
     RDKit          3D

 23 23  0  0  0  0  0  0  0  0999 V2000
   -1.7301    1.0879    0.6615 C   0  0  0  0  0  0  0  0  0  0  0  0
   -1.4465    0.4887   -0.6467 C   0  0  0  0  0  0  0  0  0  0  0  0
   -0.3009   -0.3964   -0.8519 C   0  0  0  0  0  0  0  0  0  0  0  0
   -0.2505   -1.6533    0.0076 C   0  0  0  0  0  0  0  0  0  0  0  0
    0.1664   -2.7466   -0.7408 O   0  0  0  0  0  0  0  0  0  0  0  0
    0.9141   -1.0454    0.7297 C   0  0  0  0  0  0  0  0  0  0  0  0
    1.0810   -0.1241   -0.4925 C   0  0  0  0  0  0  0  0  0  0  0  0
    1.6096    1.2186   -0.1879 C   0  0  0  0  0  0  0  0  0  0  0  0
    1.0227    1.8537    0.8887 O   0  0  0  0  0  0  0  0  0  0  0  0
   -1.6312    2.2181    0.6699 H   0  0  0  0  0  0  0  0  0  0  0  0
   -2.8574    0.9800    0.8466 H   0  0  0  0  0  0  0  0  0  0  0  0
   -1.3021    0.6468    1.5562 H   0  0  0  0  0  0  0  0  0  0  0  0
   -2.3642   -0.0823   -1.0088 H   0  0  0  0  0  0  0  0  0  0  0  0
   -1.4155    1.3418   -1.3942 H   0  0  0  0  0  0  0  0  0  0  0  0
   -0.3503   -0.7396   -1.9601 H   0  0  0  0  0  0  0  0  0  0  0  0
   -1.1555   -1.8417    0.6065 H   0  0  0  0  0  0  0  0  0  0  0  0
   -0.2594   -3.5860   -0.5074 H   0  0  0  0  0  0  0  0  0  0  0  0
    0.7457   -0.5261    1.6687 H   0  0  0  0  0  0  0  0  0  0  0  0
    1.7421   -1.7721    0.8668 H   0  0  0  0  0  0  0  0  0  0  0  0
    1.7908   -0.7041   -1.1837 H   0  0  0  0  0  0  0  0  0  0  0  0
    2.6980    1.0915    0.1005 H   0  0  0  0  0  0  0  0  0  0  0  0
    1.6519    1.9025   -1.0593 H   0  0  0  0  0  0  0  0  0  0  0  0
    1.6414    2.3881    1.4305 H   0  0  0  0  0  0  0  0  0  0  0  0
  1  2  1  0
  2  3  1  0
  3  4  1  0
  4  5  1  0
  4  6  1  0
  6  7  1  0
  7  8  1  0
  8  9  1  0
  7  3  1  0
  1 10  1  0
  1 11  1  0
  1 12  1  0
  2 13  1  0
  2 14  1  0
  3 15  1  0
  4 16  1  0
  5 17  1  0
  6 18  1  0
  6 19  1  0
  7 20  1  0
  8 21  1  0
  8 22  1  0
  9 23  1  0
M  END
