
     RDKit          3D

 23 23  0  0  0  0  0  0  0  0999 V2000
    2.5431   -0.8290    0.1206 C   0  0  0  0  0  0  0  0  0  0  0  0
    1.7878    0.3561   -0.3435 C   0  0  0  0  0  0  0  0  0  0  0  0
    0.3499    0.4125   -0.2304 C   0  0  0  0  0  0  0  0  0  0  0  0
   -0.4746   -0.4818    0.2453 C   0  0  0  0  0  0  0  0  0  0  0  0
   -0.0634   -1.7934    0.7871 C   0  0  0  0  0  0  0  0  0  0  0  0
   -1.9577   -0.2000    0.2612 C   0  0  0  0  0  0  0  0  0  0  0  0
   -2.3011    1.2439    0.2055 C   0  0  0  0  0  0  0  0  0  0  0  0
   -1.2352    2.1039    0.2392 O   0  0  0  0  0  0  0  0  0  0  0  0
   -0.3295    1.6817   -0.7243 C   0  0  0  0  0  0  0  0  0  0  0  0
    2.3591   -1.1380    1.1414 H   0  0  0  0  0  0  0  0  0  0  0  0
    2.6285   -1.6596   -0.6325 H   0  0  0  0  0  0  0  0  0  0  0  0
    3.6477   -0.4801    0.1547 H   0  0  0  0  0  0  0  0  0  0  0  0
    2.1596    0.6406   -1.3783 H   0  0  0  0  0  0  0  0  0  0  0  0
    2.2211    1.2295    0.2721 H   0  0  0  0  0  0  0  0  0  0  0  0
   -0.9821   -2.4694    0.8744 H   0  0  0  0  0  0  0  0  0  0  0  0
    0.2242   -1.6813    1.8634 H   0  0  0  0  0  0  0  0  0  0  0  0
    0.6140   -2.3797    0.1759 H   0  0  0  0  0  0  0  0  0  0  0  0
   -2.3916   -0.7014   -0.6349 H   0  0  0  0  0  0  0  0  0  0  0  0
   -2.4086   -0.7187    1.1372 H   0  0  0  0  0  0  0  0  0  0  0  0
   -2.9234    1.4734    1.1135 H   0  0  0  0  0  0  0  0  0  0  0  0
   -2.9992    1.4636   -0.6520 H   0  0  0  0  0  0  0  0  0  0  0  0
   -0.8993    1.4784   -1.6487 H   0  0  0  0  0  0  0  0  0  0  0  0
    0.4309    2.4485   -0.9641 H   0  0  0  0  0  0  0  0  0  0  0  0
  1  2  1  0
  2  3  1  0
  3  4  2  0
  4  5  1  0
  4  6  1  0
  6  7  1  0
  7  8  1  0
  8  9  1  0
  9  3  1  0
  1 10  1  0
  1 11  1  0
  1 12  1  0
  2 13  1  0
  2 14  1  0
  5 15  1  0
  5 16  1  0
  5 17  1  0
  6 18  1  0
  6 19  1  0
  7 20  1  0
  7 21  1  0
  9 22  1  0
  9 23  1  0
M  END
