
     RDKit          3D

 23 24  0  0  0  0  0  0  0  0999 V2000
    2.8143    0.1355    0.1386 C   0  0  0  0  0  0  0  0  0  0  0  0
    1.5173    0.9001    0.1786 C   0  0  0  0  0  0  0  0  0  0  0  0
    0.5337    0.2090   -0.7187 C   0  0  0  0  0  0  0  0  0  0  0  0
    0.2311   -1.2397   -0.3235 C   0  0  0  0  0  0  0  0  0  0  0  0
   -1.2147   -0.8302   -0.2323 C   0  0  0  0  0  0  0  0  0  0  0  0
   -2.2245   -1.6355    0.4677 C   0  0  0  0  0  0  0  0  0  0  0  0
   -1.7630   -0.1205   -1.3458 O   0  0  0  0  0  0  0  0  0  0  0  0
   -0.9331    0.4743   -0.3926 C   0  0  0  0  0  0  0  0  0  0  0  0
   -1.3375    1.7231    0.2881 C   0  0  0  0  0  0  0  0  0  0  0  0
    3.0310   -0.2546   -0.8709 H   0  0  0  0  0  0  0  0  0  0  0  0
    2.8652   -0.7016    0.8370 H   0  0  0  0  0  0  0  0  0  0  0  0
    3.6410    0.8620    0.3696 H   0  0  0  0  0  0  0  0  0  0  0  0
    1.7063    1.9022   -0.2573 H   0  0  0  0  0  0  0  0  0  0  0  0
    1.1816    1.0425    1.2046 H   0  0  0  0  0  0  0  0  0  0  0  0
    0.7826    0.2990   -1.7730 H   0  0  0  0  0  0  0  0  0  0  0  0
    0.6352   -1.4525    0.6681 H   0  0  0  0  0  0  0  0  0  0  0  0
    0.4012   -1.9790   -1.1108 H   0  0  0  0  0  0  0  0  0  0  0  0
   -2.6140   -2.4121   -0.2556 H   0  0  0  0  0  0  0  0  0  0  0  0
   -1.8715   -2.1982    1.3395 H   0  0  0  0  0  0  0  0  0  0  0  0
   -3.1098   -0.9936    0.7095 H   0  0  0  0  0  0  0  0  0  0  0  0
   -1.6421    2.4771   -0.4928 H   0  0  0  0  0  0  0  0  0  0  0  0
   -2.1594    1.6245    1.0131 H   0  0  0  0  0  0  0  0  0  0  0  0
   -0.4708    2.1681    0.8002 H   0  0  0  0  0  0  0  0  0  0  0  0
  1  2  1  0
  2  3  1  0
  3  4  1  0
  4  5  1  0
  5  6  1  0
  5  7  1  0
  7  8  1  0
  8  9  1  0
  8  3  1  0
  8  5  1  0
  1 10  1  0
  1 11  1  0
  1 12  1  0
  2 13  1  0
  2 14  1  0
  3 15  1  0
  4 16  1  0
  4 17  1  0
  6 18  1  0
  6 19  1  0
  6 20  1  0
  9 21  1  0
  9 22  1  0
  9 23  1  0
M  END
