
     RDKit          3D

 19 20  0  0  0  0  0  0  0  0999 V2000
   -2.3765    0.4943    0.0332 C   0  0  0  0  0  0  0  0  0  0  0  0
   -0.9394    0.7741    0.3451 C   0  0  0  0  0  0  0  0  0  0  0  0
   -0.0153   -0.2786   -0.1790 C   0  0  0  0  0  0  0  0  0  0  0  0
   -0.0936   -1.6913    0.2250 C   0  0  0  0  0  0  0  0  0  0  0  0
    0.9033   -0.8727    0.9271 C   0  0  0  0  0  0  0  0  0  0  0  0
    1.9931   -0.1208    0.2168 C   0  0  0  0  0  0  0  0  0  0  0  0
    2.2432    1.0934    0.8636 O   0  0  0  0  0  0  0  0  0  0  0  0
    1.1689    0.1027   -0.9767 C   0  0  0  0  0  0  0  0  0  0  0  0
    1.3207    0.4420   -2.1177 O   0  0  0  0  0  0  0  0  0  0  0  0
   -2.5070   -0.4797   -0.5202 H   0  0  0  0  0  0  0  0  0  0  0  0
   -2.9859    0.4681    0.9743 H   0  0  0  0  0  0  0  0  0  0  0  0
   -2.8187    1.3294   -0.5695 H   0  0  0  0  0  0  0  0  0  0  0  0
   -0.6405    1.7405   -0.1580 H   0  0  0  0  0  0  0  0  0  0  0  0
   -0.8069    0.9746    1.4332 H   0  0  0  0  0  0  0  0  0  0  0  0
   -0.9803   -2.0035    0.7742 H   0  0  0  0  0  0  0  0  0  0  0  0
    0.2927   -2.4273   -0.5148 H   0  0  0  0  0  0  0  0  0  0  0  0
    0.7045   -0.6009    1.9618 H   0  0  0  0  0  0  0  0  0  0  0  0
    2.9136   -0.7178    0.0737 H   0  0  0  0  0  0  0  0  0  0  0  0
    2.6242    1.7736    0.2589 H   0  0  0  0  0  0  0  0  0  0  0  0
  1  2  1  0
  2  3  1  0
  3  4  1  0
  4  5  1  0
  5  6  1  0
  6  7  1  0
  6  8  1  0
  8  9  2  0
  5  3  1  0
  8  3  1  0
  1 10  1  0
  1 11  1  0
  1 12  1  0
  2 13  1  0
  2 14  1  0
  4 15  1  0
  4 16  1  0
  5 17  1  0
  6 18  1  0
  7 19  1  0
M  END
