
     RDKit          3D

 21 22  0  0  0  0  0  0  0  0999 V2000
    2.6460    0.4781    0.2989 C   0  0  0  0  0  0  0  0  0  0  0  0
    1.6822   -0.2330   -0.6283 C   0  0  0  0  0  0  0  0  0  0  0  0
    0.3172   -0.0295   -0.1210 C   0  0  0  0  0  0  0  0  0  0  0  0
   -0.7516   -0.7159   -0.9952 C   0  0  0  0  0  0  0  0  0  0  0  0
   -1.8763   -0.2303   -0.0591 C   0  0  0  0  0  0  0  0  0  0  0  0
   -1.3183   -0.7940    1.2294 C   0  0  0  0  0  0  0  0  0  0  0  0
    0.0612   -0.5268    1.1283 O   0  0  0  0  0  0  0  0  0  0  0  0
   -1.5345    1.2402   -0.0535 C   0  0  0  0  0  0  0  0  0  0  0  0
   -0.1301    1.2832   -0.1692 O   0  0  0  0  0  0  0  0  0  0  0  0
    2.6777   -0.0037    1.2967 H   0  0  0  0  0  0  0  0  0  0  0  0
    3.6500    0.4427   -0.1452 H   0  0  0  0  0  0  0  0  0  0  0  0
    2.2586    1.5007    0.4556 H   0  0  0  0  0  0  0  0  0  0  0  0
    1.9130   -1.3094   -0.7080 H   0  0  0  0  0  0  0  0  0  0  0  0
    1.8094    0.2298   -1.6253 H   0  0  0  0  0  0  0  0  0  0  0  0
   -0.8216   -0.2665   -1.9816 H   0  0  0  0  0  0  0  0  0  0  0  0
   -0.6347   -1.7960   -0.9550 H   0  0  0  0  0  0  0  0  0  0  0  0
   -2.8519   -0.5141   -0.3404 H   0  0  0  0  0  0  0  0  0  0  0  0
   -1.4347   -1.8825    1.1870 H   0  0  0  0  0  0  0  0  0  0  0  0
   -1.7639   -0.3189    2.1234 H   0  0  0  0  0  0  0  0  0  0  0  0
   -2.0271    1.7972   -0.8602 H   0  0  0  0  0  0  0  0  0  0  0  0
   -1.8706    1.6489    0.9226 H   0  0  0  0  0  0  0  0  0  0  0  0
  1  2  1  0
  2  3  1  0
  3  4  1  0
  4  5  1  0
  5  6  1  0
  6  7  1  0
  5  8  1  0
  8  9  1  0
  7  3  1  0
  9  3  1  0
  1 10  1  0
  1 11  1  0
  1 12  1  0
  2 13  1  0
  2 14  1  0
  4 15  1  0
  4 16  1  0
  5 17  1  0
  6 18  1  0
  6 19  1  0
  8 20  1  0
  8 21  1  0
M  END
