
     RDKit          3D

 27 27  0  0  0  0  0  0  0  0999 V2000
   -3.4333    0.1231    0.2870 C   0  0  0  0  0  0  0  0  0  0  0  0
   -2.1177   -0.2725    0.9153 C   0  0  0  0  0  0  0  0  0  0  0  0
   -0.9567    0.5017    0.2887 C   0  0  0  0  0  0  0  0  0  0  0  0
   -0.9246    0.1844   -1.1858 C   0  0  0  0  0  0  0  0  0  0  0  0
    0.5874    0.1431   -1.4428 C   0  0  0  0  0  0  0  0  0  0  0  0
    1.0247   -0.7080   -0.2658 C   0  0  0  0  0  0  0  0  0  0  0  0
    2.5178   -0.7564   -0.1200 C   0  0  0  0  0  0  0  0  0  0  0  0
    3.1350    0.5850    0.0942 C   0  0  0  0  0  0  0  0  0  0  0  0
    0.3273   -0.0619    0.8786 C   0  0  0  0  0  0  0  0  0  0  0  0
   -3.3475    1.0449   -0.3248 H   0  0  0  0  0  0  0  0  0  0  0  0
   -4.1500    0.3456    1.0951 H   0  0  0  0  0  0  0  0  0  0  0  0
   -3.8718   -0.6871   -0.3213 H   0  0  0  0  0  0  0  0  0  0  0  0
   -1.9716   -1.3639    0.7872 H   0  0  0  0  0  0  0  0  0  0  0  0
   -2.1126   -0.0986    2.0267 H   0  0  0  0  0  0  0  0  0  0  0  0
   -1.0544    1.5791    0.4791 H   0  0  0  0  0  0  0  0  0  0  0  0
   -1.3225   -0.8612   -1.2957 H   0  0  0  0  0  0  0  0  0  0  0  0
   -1.4324    0.9147   -1.8109 H   0  0  0  0  0  0  0  0  0  0  0  0
    0.8123   -0.3614   -2.3992 H   0  0  0  0  0  0  0  0  0  0  0  0
    0.9490    1.1793   -1.3840 H   0  0  0  0  0  0  0  0  0  0  0  0
    0.6271   -1.7162   -0.4366 H   0  0  0  0  0  0  0  0  0  0  0  0
    2.7366   -1.3762    0.7758 H   0  0  0  0  0  0  0  0  0  0  0  0
    2.9807   -1.2312   -0.9830 H   0  0  0  0  0  0  0  0  0  0  0  0
    4.2362    0.4749    0.0138 H   0  0  0  0  0  0  0  0  0  0  0  0
    2.8432    1.3489   -0.6464 H   0  0  0  0  0  0  0  0  0  0  0  0
    2.9084    1.0231    1.0949 H   0  0  0  0  0  0  0  0  0  0  0  0
    0.1175   -0.7528    1.7068 H   0  0  0  0  0  0  0  0  0  0  0  0
    0.8920    0.7997    1.3074 H   0  0  0  0  0  0  0  0  0  0  0  0
  1  2  1  0
  2  3  1  0
  3  4  1  0
  4  5  1  0
  5  6  1  0
  6  7  1  0
  7  8  1  0
  6  9  1  0
  9  3  1  0
  1 10  1  0
  1 11  1  0
  1 12  1  0
  2 13  1  0
  2 14  1  0
  3 15  1  0
  4 16  1  0
  4 17  1  0
  5 18  1  0
  5 19  1  0
  6 20  1  0
  7 21  1  0
  7 22  1  0
  8 23  1  0
  8 24  1  0
  8 25  1  0
  9 26  1  0
  9 27  1  0
M  END
