
     RDKit          3D

 23 23  0  0  0  0  0  0  0  0999 V2000
    2.6094   -0.0359   -0.4380 C   0  0  0  0  0  0  0  0  0  0  0  0
    1.4543   -0.8330    0.1186 C   0  0  0  0  0  0  0  0  0  0  0  0
    0.1227   -0.1998   -0.2236 C   0  0  0  0  0  0  0  0  0  0  0  0
   -0.0828   -0.1012   -1.5827 O   0  0  0  0  0  0  0  0  0  0  0  0
    0.0316    1.1886    0.3603 C   0  0  0  0  0  0  0  0  0  0  0  0
   -1.4659    1.4669    0.2235 C   0  0  0  0  0  0  0  0  0  0  0  0
   -2.0547    0.1810    0.7520 C   0  0  0  0  0  0  0  0  0  0  0  0
   -1.0242   -0.9029    0.4420 C   0  0  0  0  0  0  0  0  0  0  0  0
   -1.5852   -1.8968   -0.3270 O   0  0  0  0  0  0  0  0  0  0  0  0
    2.9005    0.8023    0.2315 H   0  0  0  0  0  0  0  0  0  0  0  0
    2.4393    0.2901   -1.4849 H   0  0  0  0  0  0  0  0  0  0  0  0
    3.4867   -0.7192   -0.4620 H   0  0  0  0  0  0  0  0  0  0  0  0
    1.5415   -1.8605   -0.2463 H   0  0  0  0  0  0  0  0  0  0  0  0
    1.5495   -0.8057    1.2336 H   0  0  0  0  0  0  0  0  0  0  0  0
    0.1805   -0.9010   -2.0936 H   0  0  0  0  0  0  0  0  0  0  0  0
    0.2382    1.1926    1.4459 H   0  0  0  0  0  0  0  0  0  0  0  0
    0.6445    1.8769   -0.2207 H   0  0  0  0  0  0  0  0  0  0  0  0
   -1.6949    2.3024    0.8881 H   0  0  0  0  0  0  0  0  0  0  0  0
   -1.6916    1.6363   -0.8379 H   0  0  0  0  0  0  0  0  0  0  0  0
   -2.1801    0.2948    1.8501 H   0  0  0  0  0  0  0  0  0  0  0  0
   -3.0112   -0.0013    0.2498 H   0  0  0  0  0  0  0  0  0  0  0  0
   -0.6545   -1.3472    1.3832 H   0  0  0  0  0  0  0  0  0  0  0  0
   -1.7534   -1.6273   -1.2616 H   0  0  0  0  0  0  0  0  0  0  0  0
  1  2  1  0
  2  3  1  0
  3  4  1  0
  3  5  1  0
  5  6  1  0
  6  7  1  0
  7  8  1  0
  8  9  1  0
  8  3  1  0
  1 10  1  0
  1 11  1  0
  1 12  1  0
  2 13  1  0
  2 14  1  0
  4 15  1  0
  5 16  1  0
  5 17  1  0
  6 18  1  0
  6 19  1  0
  7 20  1  0
  7 21  1  0
  8 22  1  0
  9 23  1  0
M  END
