
     RDKit          3D

 23 23  0  0  0  0  0  0  0  0999 V2000
   -1.9162   -0.7910    0.9700 C   0  0  0  0  0  0  0  0  0  0  0  0
   -1.3015   -1.1660   -0.3331 C   0  0  0  0  0  0  0  0  0  0  0  0
   -0.3952   -0.1106   -0.9011 C   0  0  0  0  0  0  0  0  0  0  0  0
   -1.0779    1.1731   -1.1537 C   0  0  0  0  0  0  0  0  0  0  0  0
   -0.2099    2.1605   -0.9779 C   0  0  0  0  0  0  0  0  0  0  0  0
    1.1398    1.6165   -0.5881 C   0  0  0  0  0  0  0  0  0  0  0  0
    0.7371    0.2501   -0.0055 C   0  0  0  0  0  0  0  0  0  0  0  0
    1.7576   -0.6790   -0.1945 O   0  0  0  0  0  0  0  0  0  0  0  0
    2.1854   -1.2099    1.0351 C   0  0  0  0  0  0  0  0  0  0  0  0
   -2.6239    0.0673    0.8839 H   0  0  0  0  0  0  0  0  0  0  0  0
   -1.1689   -0.6025    1.7611 H   0  0  0  0  0  0  0  0  0  0  0  0
   -2.5267   -1.6505    1.3189 H   0  0  0  0  0  0  0  0  0  0  0  0
   -0.7419   -2.0962   -0.2267 H   0  0  0  0  0  0  0  0  0  0  0  0
   -2.1052   -1.3439   -1.0729 H   0  0  0  0  0  0  0  0  0  0  0  0
    0.0286   -0.4912   -1.8539 H   0  0  0  0  0  0  0  0  0  0  0  0
   -2.1313    1.3287   -1.4421 H   0  0  0  0  0  0  0  0  0  0  0  0
   -0.4327    3.2321   -1.0972 H   0  0  0  0  0  0  0  0  0  0  0  0
    1.7919    1.4877   -1.4699 H   0  0  0  0  0  0  0  0  0  0  0  0
    1.5590    2.2646    0.1950 H   0  0  0  0  0  0  0  0  0  0  0  0
    0.4716    0.3824    1.0549 H   0  0  0  0  0  0  0  0  0  0  0  0
    2.5481   -0.3156    1.6179 H   0  0  0  0  0  0  0  0  0  0  0  0
    1.3499   -1.6487    1.5767 H   0  0  0  0  0  0  0  0  0  0  0  0
    3.0624   -1.8582    0.9029 H   0  0  0  0  0  0  0  0  0  0  0  0
  1  2  1  0
  2  3  1  0
  3  4  1  0
  4  5  2  0
  5  6  1  0
  6  7  1  0
  7  8  1  0
  8  9  1  0
  7  3  1  0
  1 10  1  0
  1 11  1  0
  1 12  1  0
  2 13  1  0
  2 14  1  0
  3 15  1  0
  4 16  1  0
  5 17  1  0
  6 18  1  0
  6 19  1  0
  7 20  1  0
  9 21  1  0
  9 22  1  0
  9 23  1  0
M  END
