
     RDKit          3D

 20 21  0  0  0  0  0  0  0  0999 V2000
    2.7535   -0.8683    0.0303 C   0  0  0  0  0  0  0  0  0  0  0  0
    1.8102    0.2433   -0.3471 C   0  0  0  0  0  0  0  0  0  0  0  0
    0.4846    0.1636    0.3245 C   0  0  0  0  0  0  0  0  0  0  0  0
   -0.2705   -0.9613    0.1004 O   0  0  0  0  0  0  0  0  0  0  0  0
   -1.3766   -0.2454   -0.3464 C   0  0  0  0  0  0  0  0  0  0  0  0
   -2.6735   -0.3056    0.3760 C   0  0  0  0  0  0  0  0  0  0  0  0
   -1.1993    0.4569   -1.6349 C   0  0  0  0  0  0  0  0  0  0  0  0
   -0.5529    0.9830   -0.4087 C   0  0  0  0  0  0  0  0  0  0  0  0
    2.5176   -1.3421    0.9843 H   0  0  0  0  0  0  0  0  0  0  0  0
    2.8185   -1.5713   -0.8258 H   0  0  0  0  0  0  0  0  0  0  0  0
    3.7891   -0.4397    0.1407 H   0  0  0  0  0  0  0  0  0  0  0  0
    1.6683    0.2793   -1.4546 H   0  0  0  0  0  0  0  0  0  0  0  0
    2.2740    1.2187   -0.0736 H   0  0  0  0  0  0  0  0  0  0  0  0
    0.5767    0.3991    1.4028 H   0  0  0  0  0  0  0  0  0  0  0  0
   -2.7134    0.3533    1.2813 H   0  0  0  0  0  0  0  0  0  0  0  0
   -2.9285   -1.3495    0.6511 H   0  0  0  0  0  0  0  0  0  0  0  0
   -3.4806    0.0394   -0.3279 H   0  0  0  0  0  0  0  0  0  0  0  0
   -0.5503   -0.0239   -2.4127 H   0  0  0  0  0  0  0  0  0  0  0  0
   -2.0776    1.0344   -1.9859 H   0  0  0  0  0  0  0  0  0  0  0  0
   -0.8693    1.9361    0.0521 H   0  0  0  0  0  0  0  0  0  0  0  0
  1  2  1  0
  2  3  1  0
  3  4  1  0
  4  5  1  0
  5  6  1  0
  5  7  1  0
  7  8  1  0
  8  3  1  0
  8  5  1  0
  1  9  1  0
  1 10  1  0
  1 11  1  0
  2 12  1  0
  2 13  1  0
  3 14  1  0
  6 15  1  0
  6 16  1  0
  6 17  1  0
  7 18  1  0
  7 19  1  0
  8 20  1  0
M  END
