
     RDKit          3D

 18 18  0  0  0  0  0  0  0  0999 V2000
    2.4379   -0.0323   -0.0209 C   0  0  0  0  0  0  0  0  0  0  0  0
    1.2950    0.0264   -0.9872 C   0  0  0  0  0  0  0  0  0  0  0  0
    0.0229    0.3139   -0.2569 C   0  0  0  0  0  0  0  0  0  0  0  0
   -1.0704    0.3773   -1.1217 O   0  0  0  0  0  0  0  0  0  0  0  0
   -2.1006    0.5806   -0.1743 C   0  0  0  0  0  0  0  0  0  0  0  0
   -1.8673   -0.5525    0.8368 C   0  0  0  0  0  0  0  0  0  0  0  0
   -0.3912   -0.7325    0.6849 C   0  0  0  0  0  0  0  0  0  0  0  0
    0.2264   -1.6028    1.2731 O   0  0  0  0  0  0  0  0  0  0  0  0
    2.5028    0.9271    0.5316 H   0  0  0  0  0  0  0  0  0  0  0  0
    3.3883   -0.1895   -0.6016 H   0  0  0  0  0  0  0  0  0  0  0  0
    2.3662   -0.8750    0.6765 H   0  0  0  0  0  0  0  0  0  0  0  0
    1.1779   -0.9079   -1.5466 H   0  0  0  0  0  0  0  0  0  0  0  0
    1.4797    0.8785   -1.6741 H   0  0  0  0  0  0  0  0  0  0  0  0
    0.0468    1.2821    0.2845 H   0  0  0  0  0  0  0  0  0  0  0  0
   -3.0879    0.5207   -0.6286 H   0  0  0  0  0  0  0  0  0  0  0  0
   -1.8872    1.5686    0.2816 H   0  0  0  0  0  0  0  0  0  0  0  0
   -2.0991   -0.1412    1.8556 H   0  0  0  0  0  0  0  0  0  0  0  0
   -2.4404   -1.4413    0.5874 H   0  0  0  0  0  0  0  0  0  0  0  0
  1  2  1  0
  2  3  1  0
  3  4  1  0
  4  5  1  0
  5  6  1  0
  6  7  1  0
  7  8  2  0
  7  3  1  0
  1  9  1  0
  1 10  1  0
  1 11  1  0
  2 12  1  0
  2 13  1  0
  3 14  1  0
  5 15  1  0
  5 16  1  0
  6 17  1  0
  6 18  1  0
M  END
