
     RDKit          3D

 23 24  0  0  0  0  0  0  0  0999 V2000
    2.2569   -1.1510    0.0320 C   0  0  0  0  0  0  0  0  0  0  0  0
    1.8339    0.2940    0.1900 C   0  0  0  0  0  0  0  0  0  0  0  0
    0.3069    0.4137    0.1267 C   0  0  0  0  0  0  0  0  0  0  0  0
   -0.3620   -0.3800    1.2108 C   0  0  0  0  0  0  0  0  0  0  0  0
   -1.8644   -0.3044    1.0309 C   0  0  0  0  0  0  0  0  0  0  0  0
   -2.1489   -0.9336   -0.1724 O   0  0  0  0  0  0  0  0  0  0  0  0
   -1.7420   -0.1546   -1.2127 C   0  0  0  0  0  0  0  0  0  0  0  0
   -0.3686    0.3649   -1.1682 C   0  0  0  0  0  0  0  0  0  0  0  0
   -0.2096    1.6799   -0.3724 C   0  0  0  0  0  0  0  0  0  0  0  0
    1.7923   -1.5965   -0.8621 H   0  0  0  0  0  0  0  0  0  0  0  0
    3.3679   -1.1312   -0.1304 H   0  0  0  0  0  0  0  0  0  0  0  0
    2.0568   -1.7384    0.9443 H   0  0  0  0  0  0  0  0  0  0  0  0
    2.3328    0.9491   -0.5243 H   0  0  0  0  0  0  0  0  0  0  0  0
    2.1601    0.6009    1.2100 H   0  0  0  0  0  0  0  0  0  0  0  0
   -0.0886   -1.4596    1.0226 H   0  0  0  0  0  0  0  0  0  0  0  0
   -0.0247   -0.1442    2.2155 H   0  0  0  0  0  0  0  0  0  0  0  0
   -2.2046    0.7307    0.9670 H   0  0  0  0  0  0  0  0  0  0  0  0
   -2.3972   -0.7714    1.8868 H   0  0  0  0  0  0  0  0  0  0  0  0
   -1.8664   -0.7606   -2.1556 H   0  0  0  0  0  0  0  0  0  0  0  0
   -2.4897    0.6768   -1.3275 H   0  0  0  0  0  0  0  0  0  0  0  0
    0.2793    0.2461   -2.0641 H   0  0  0  0  0  0  0  0  0  0  0  0
   -1.1271    2.1721   -0.0131 H   0  0  0  0  0  0  0  0  0  0  0  0
    0.5069    2.3975   -0.8337 H   0  0  0  0  0  0  0  0  0  0  0  0
  1  2  1  0
  2  3  1  0
  3  4  1  0
  4  5  1  0
  5  6  1  0
  6  7  1  0
  7  8  1  0
  8  9  1  0
  8  3  1  0
  9  3  1  0
  1 10  1  0
  1 11  1  0
  1 12  1  0
  2 13  1  0
  2 14  1  0
  4 15  1  0
  4 16  1  0
  5 17  1  0
  5 18  1  0
  7 19  1  0
  7 20  1  0
  8 21  1  0
  9 22  1  0
  9 23  1  0
M  END
