
     RDKit          3D

 25 25  0  0  0  0  0  0  0  0999 V2000
    2.6923    0.5896    0.6461 C   0  0  0  0  0  0  0  0  0  0  0  0
    1.9627   -0.0355   -0.5166 C   0  0  0  0  0  0  0  0  0  0  0  0
    0.5346   -0.3849   -0.1337 C   0  0  0  0  0  0  0  0  0  0  0  0
    0.1144   -1.6255   -0.1949 C   0  0  0  0  0  0  0  0  0  0  0  0
   -1.2641   -2.0322    0.1639 C   0  0  0  0  0  0  0  0  0  0  0  0
   -2.1806   -0.8899   -0.2403 C   0  0  0  0  0  0  0  0  0  0  0  0
   -1.7514    0.3166    0.5438 C   0  0  0  0  0  0  0  0  0  0  0  0
   -0.3460    0.7141    0.3058 C   0  0  0  0  0  0  0  0  0  0  0  0
   -0.3291    1.8706   -0.6795 C   0  0  0  0  0  0  0  0  0  0  0  0
    3.6635    0.0751    0.8484 H   0  0  0  0  0  0  0  0  0  0  0  0
    2.0301    0.5468    1.5212 H   0  0  0  0  0  0  0  0  0  0  0  0
    2.9754    1.6525    0.4037 H   0  0  0  0  0  0  0  0  0  0  0  0
    2.5126   -0.9284   -0.8491 H   0  0  0  0  0  0  0  0  0  0  0  0
    1.9318    0.6661   -1.3730 H   0  0  0  0  0  0  0  0  0  0  0  0
    0.8515   -2.3880   -0.5365 H   0  0  0  0  0  0  0  0  0  0  0  0
   -1.5349   -2.9018   -0.4400 H   0  0  0  0  0  0  0  0  0  0  0  0
   -1.2933   -2.2155    1.2550 H   0  0  0  0  0  0  0  0  0  0  0  0
   -3.2395   -1.1220    0.0306 H   0  0  0  0  0  0  0  0  0  0  0  0
   -2.0456   -0.7011   -1.3038 H   0  0  0  0  0  0  0  0  0  0  0  0
   -2.4547    1.1773    0.3542 H   0  0  0  0  0  0  0  0  0  0  0  0
   -1.9317    0.0708    1.6324 H   0  0  0  0  0  0  0  0  0  0  0  0
    0.0437    1.1200    1.2905 H   0  0  0  0  0  0  0  0  0  0  0  0
   -1.0180    2.6310   -0.3030 H   0  0  0  0  0  0  0  0  0  0  0  0
   -0.5957    1.4574   -1.6637 H   0  0  0  0  0  0  0  0  0  0  0  0
    0.6720    2.3370   -0.7616 H   0  0  0  0  0  0  0  0  0  0  0  0
  1  2  1  0
  2  3  1  0
  3  4  2  0
  4  5  1  0
  5  6  1  0
  6  7  1  0
  7  8  1  0
  8  9  1  0
  8  3  1  0
  1 10  1  0
  1 11  1  0
  1 12  1  0
  2 13  1  0
  2 14  1  0
  4 15  1  0
  5 16  1  0
  5 17  1  0
  6 18  1  0
  6 19  1  0
  7 20  1  0
  7 21  1  0
  8 22  1  0
  9 23  1  0
  9 24  1  0
  9 25  1  0
M  END
