
     RDKit          3D

 21 22  0  0  0  0  0  0  0  0999 V2000
   -2.5872    0.7379    0.3849 C   0  0  0  0  0  0  0  0  0  0  0  0
   -1.8197    0.4402   -0.8976 C   0  0  0  0  0  0  0  0  0  0  0  0
   -0.7032   -0.5077   -0.5317 C   0  0  0  0  0  0  0  0  0  0  0  0
    0.2371    0.0783    0.4867 C   0  0  0  0  0  0  0  0  0  0  0  0
    1.5660   -0.4522    0.0539 C   0  0  0  0  0  0  0  0  0  0  0  0
    1.3506   -0.8051   -1.3733 C   0  0  0  0  0  0  0  0  0  0  0  0
    0.0093   -0.8571   -1.6392 O   0  0  0  0  0  0  0  0  0  0  0  0
    2.7809    0.1824    0.5273 C   0  0  0  0  0  0  0  0  0  0  0  0
    2.3550   -1.2021    0.8887 O   0  0  0  0  0  0  0  0  0  0  0  0
   -3.3009    1.5698    0.2374 H   0  0  0  0  0  0  0  0  0  0  0  0
   -1.9191    0.9305    1.2365 H   0  0  0  0  0  0  0  0  0  0  0  0
   -3.2088   -0.1775    0.5742 H   0  0  0  0  0  0  0  0  0  0  0  0
   -2.5016   -0.0698   -1.5880 H   0  0  0  0  0  0  0  0  0  0  0  0
   -1.4557    1.3826   -1.3282 H   0  0  0  0  0  0  0  0  0  0  0  0
   -1.1514   -1.4179   -0.0884 H   0  0  0  0  0  0  0  0  0  0  0  0
   -0.0414   -0.1331    1.5145 H   0  0  0  0  0  0  0  0  0  0  0  0
    0.2654    1.1948    0.3271 H   0  0  0  0  0  0  0  0  0  0  0  0
    1.8622   -0.0279   -2.0063 H   0  0  0  0  0  0  0  0  0  0  0  0
    1.8165   -1.8117   -1.5859 H   0  0  0  0  0  0  0  0  0  0  0  0
    3.6685    0.1777   -0.1432 H   0  0  0  0  0  0  0  0  0  0  0  0
    2.7774    0.7681    1.4486 H   0  0  0  0  0  0  0  0  0  0  0  0
  1  2  1  0
  2  3  1  0
  3  4  1  0
  4  5  1  0
  5  6  1  0
  6  7  1  0
  5  8  1  0
  8  9  1  0
  7  3  1  0
  9  5  1  0
  1 10  1  0
  1 11  1  0
  1 12  1  0
  2 13  1  0
  2 14  1  0
  3 15  1  0
  4 16  1  0
  4 17  1  0
  6 18  1  0
  6 19  1  0
  8 20  1  0
  8 21  1  0
M  END
