
     RDKit          3D

 21 22  0  0  0  0  0  0  0  0999 V2000
    2.3638    0.3346    0.4030 C   0  0  0  0  0  0  0  0  0  0  0  0
    1.3489   -0.7059    0.0809 C   0  0  0  0  0  0  0  0  0  0  0  0
    0.1242   -0.2167   -0.5891 C   0  0  0  0  0  0  0  0  0  0  0  0
   -0.9256   -1.2354   -0.9314 C   0  0  0  0  0  0  0  0  0  0  0  0
   -1.2007   -0.1010   -0.0180 C   0  0  0  0  0  0  0  0  0  0  0  0
   -1.5726   -0.2894    1.3990 C   0  0  0  0  0  0  0  0  0  0  0  0
   -1.2652    1.3108   -0.5996 C   0  0  0  0  0  0  0  0  0  0  0  0
    0.0640    1.1166   -1.2354 C   0  0  0  0  0  0  0  0  0  0  0  0
    0.8437    1.7008   -1.9642 O   0  0  0  0  0  0  0  0  0  0  0  0
    3.1641    0.4154   -0.3867 H   0  0  0  0  0  0  0  0  0  0  0  0
    2.8907    0.0378    1.3258 H   0  0  0  0  0  0  0  0  0  0  0  0
    1.8917    1.3249    0.4610 H   0  0  0  0  0  0  0  0  0  0  0  0
    1.0553   -1.3259    0.9782 H   0  0  0  0  0  0  0  0  0  0  0  0
    1.8345   -1.4563   -0.6061 H   0  0  0  0  0  0  0  0  0  0  0  0
   -1.2679   -1.2069   -1.9888 H   0  0  0  0  0  0  0  0  0  0  0  0
   -0.8069   -2.2153   -0.4713 H   0  0  0  0  0  0  0  0  0  0  0  0
   -2.6616   -0.0026    1.5081 H   0  0  0  0  0  0  0  0  0  0  0  0
   -1.5285   -1.3562    1.6602 H   0  0  0  0  0  0  0  0  0  0  0  0
   -1.0407    0.3566    2.1209 H   0  0  0  0  0  0  0  0  0  0  0  0
   -2.0556    1.4311   -1.3520 H   0  0  0  0  0  0  0  0  0  0  0  0
   -1.2555    2.0828    0.2053 H   0  0  0  0  0  0  0  0  0  0  0  0
  1  2  1  0
  2  3  1  0
  3  4  1  0
  4  5  1  0
  5  6  1  0
  5  7  1  0
  7  8  1  0
  8  9  2  0
  5  3  1  0
  8  3  1  0
  1 10  1  0
  1 11  1  0
  1 12  1  0
  2 13  1  0
  2 14  1  0
  4 15  1  0
  4 16  1  0
  6 17  1  0
  6 18  1  0
  6 19  1  0
  7 20  1  0
  7 21  1  0
M  END
