
     RDKit          3D

 20 20  0  0  0  0  0  0  0  0999 V2000
    2.2721   -0.2007    0.3014 C   0  0  0  0  0  0  0  0  0  0  0  0
    1.3154    0.7709   -0.3851 C   0  0  0  0  0  0  0  0  0  0  0  0
    0.0491    0.1939   -0.7273 C   0  0  0  0  0  0  0  0  0  0  0  0
   -1.2167   -0.4593   -0.4308 C   0  0  0  0  0  0  0  0  0  0  0  0
   -1.3177   -1.8868    0.1173 C   0  0  0  0  0  0  0  0  0  0  0  0
   -0.8183    0.5451    0.3686 C   0  0  0  0  0  0  0  0  0  0  0  0
   -1.4469    1.8974    0.2821 C   0  0  0  0  0  0  0  0  0  0  0  0
   -1.6231    2.6307    1.2284 O   0  0  0  0  0  0  0  0  0  0  0  0
    2.6278   -0.9874   -0.4033 H   0  0  0  0  0  0  0  0  0  0  0  0
    3.1719    0.3268    0.6860 H   0  0  0  0  0  0  0  0  0  0  0  0
    1.7918   -0.6613    1.2016 H   0  0  0  0  0  0  0  0  0  0  0  0
    1.3909    1.6974    0.2454 H   0  0  0  0  0  0  0  0  0  0  0  0
    1.8634    1.0851   -1.3035 H   0  0  0  0  0  0  0  0  0  0  0  0
    0.3284   -0.5536   -1.4833 H   0  0  0  0  0  0  0  0  0  0  0  0
   -2.0595   -0.2633   -1.1688 H   0  0  0  0  0  0  0  0  0  0  0  0
   -0.5179   -2.4549   -0.3841 H   0  0  0  0  0  0  0  0  0  0  0  0
   -1.2334   -1.8835    1.2203 H   0  0  0  0  0  0  0  0  0  0  0  0
   -2.2700   -2.3739   -0.1325 H   0  0  0  0  0  0  0  0  0  0  0  0
   -0.5403    0.3290    1.4536 H   0  0  0  0  0  0  0  0  0  0  0  0
   -1.7668    2.2487   -0.6860 H   0  0  0  0  0  0  0  0  0  0  0  0
  1  2  1  0
  2  3  1  0
  3  4  1  0
  4  5  1  0
  4  6  1  0
  6  7  1  0
  7  8  2  0
  6  3  1  0
  1  9  1  0
  1 10  1  0
  1 11  1  0
  2 12  1  0
  2 13  1  0
  3 14  1  0
  4 15  1  0
  5 16  1  0
  5 17  1  0
  5 18  1  0
  6 19  1  0
  7 20  1  0
M  END
