
     RDKit          3D

 18 19  0  0  0  0  0  0  0  0999 V2000
   -2.3738    0.0820   -0.6708 C   0  0  0  0  0  0  0  0  0  0  0  0
   -1.4084    0.7379    0.2946 C   0  0  0  0  0  0  0  0  0  0  0  0
   -0.0971   -0.0021    0.2339 C   0  0  0  0  0  0  0  0  0  0  0  0
    0.6461   -0.0864   -1.0283 C   0  0  0  0  0  0  0  0  0  0  0  0
    1.9308   -0.3142   -0.8094 C   0  0  0  0  0  0  0  0  0  0  0  0
    2.2036   -0.4110    0.6514 C   0  0  0  0  0  0  0  0  0  0  0  0
    0.8493   -0.1143    1.2735 C   0  0  0  0  0  0  0  0  0  0  0  0
   -0.0531   -1.1476    1.1089 O   0  0  0  0  0  0  0  0  0  0  0  0
   -1.9911    0.1343   -1.6956 H   0  0  0  0  0  0  0  0  0  0  0  0
   -3.3628    0.5871   -0.6651 H   0  0  0  0  0  0  0  0  0  0  0  0
   -2.4682   -0.9860   -0.3724 H   0  0  0  0  0  0  0  0  0  0  0  0
   -1.2320    1.7777   -0.0938 H   0  0  0  0  0  0  0  0  0  0  0  0
   -1.8149    0.7900    1.3063 H   0  0  0  0  0  0  0  0  0  0  0  0
    0.2296    0.0189   -2.0178 H   0  0  0  0  0  0  0  0  0  0  0  0
    2.6937   -0.4193   -1.5624 H   0  0  0  0  0  0  0  0  0  0  0  0
    2.9807    0.2988    0.9774 H   0  0  0  0  0  0  0  0  0  0  0  0
    2.4596   -1.4704    0.8957 H   0  0  0  0  0  0  0  0  0  0  0  0
    0.8080    0.5246    2.1741 H   0  0  0  0  0  0  0  0  0  0  0  0
  1  2  1  0
  2  3  1  0
  3  4  1  0
  4  5  2  0
  5  6  1  0
  6  7  1  0
  7  8  1  0
  7  3  1  0
  8  3  1  0
  1  9  1  0
  1 10  1  0
  1 11  1  0
  2 12  1  0
  2 13  1  0
  4 14  1  0
  5 15  1  0
  6 16  1  0
  6 17  1  0
  7 18  1  0
M  END
