
     RDKit          3D

 25 26  0  0  0  0  0  0  0  0999 V2000
    3.0210    0.0279   -0.3096 C   0  0  0  0  0  0  0  0  0  0  0  0
    1.8431   -0.8878   -0.5481 C   0  0  0  0  0  0  0  0  0  0  0  0
    0.6864   -0.5102    0.3223 C   0  0  0  0  0  0  0  0  0  0  0  0
   -0.4944   -1.4573    0.0579 C   0  0  0  0  0  0  0  0  0  0  0  0
   -1.3599   -0.2467    0.1120 C   0  0  0  0  0  0  0  0  0  0  0  0
   -2.6677   -0.2664   -0.5020 C   0  0  0  0  0  0  0  0  0  0  0  0
   -2.4264    0.0286    1.0104 C   0  0  0  0  0  0  0  0  0  0  0  0
   -0.2133    0.5921   -0.2587 C   0  0  0  0  0  0  0  0  0  0  0  0
   -0.0539    1.9302    0.3538 C   0  0  0  0  0  0  0  0  0  0  0  0
    3.7106   -0.1003   -1.1558 H   0  0  0  0  0  0  0  0  0  0  0  0
    2.6520    1.0569   -0.1757 H   0  0  0  0  0  0  0  0  0  0  0  0
    3.5633   -0.3008    0.6117 H   0  0  0  0  0  0  0  0  0  0  0  0
    1.5103   -0.7585   -1.6100 H   0  0  0  0  0  0  0  0  0  0  0  0
    2.0848   -1.9493   -0.3867 H   0  0  0  0  0  0  0  0  0  0  0  0
    0.9062   -0.3826    1.3886 H   0  0  0  0  0  0  0  0  0  0  0  0
   -0.6361   -2.2370    0.7987 H   0  0  0  0  0  0  0  0  0  0  0  0
   -0.4509   -1.8468   -0.9963 H   0  0  0  0  0  0  0  0  0  0  0  0
   -2.9768    0.5649   -1.1308 H   0  0  0  0  0  0  0  0  0  0  0  0
   -3.1314   -1.2589   -0.6976 H   0  0  0  0  0  0  0  0  0  0  0  0
   -2.6794    1.0643    1.2874 H   0  0  0  0  0  0  0  0  0  0  0  0
   -2.8170   -0.7203    1.7217 H   0  0  0  0  0  0  0  0  0  0  0  0
   -0.0972    0.6435   -1.3781 H   0  0  0  0  0  0  0  0  0  0  0  0
    0.4934    1.9471    1.3170 H   0  0  0  0  0  0  0  0  0  0  0  0
   -1.0121    2.4754    0.5065 H   0  0  0  0  0  0  0  0  0  0  0  0
    0.5455    2.5920   -0.3387 H   0  0  0  0  0  0  0  0  0  0  0  0
  1  2  1  0
  2  3  1  0
  3  4  1  0
  4  5  1  0
  5  6  1  0
  6  7  1  0
  5  8  1  0
  8  9  1  0
  8  3  1  0
  7  5  1  0
  1 10  1  0
  1 11  1  0
  1 12  1  0
  2 13  1  0
  2 14  1  0
  3 15  1  0
  4 16  1  0
  4 17  1  0
  6 18  1  0
  6 19  1  0
  7 20  1  0
  7 21  1  0
  8 22  1  0
  9 23  1  0
  9 24  1  0
  9 25  1  0
M  END
