
     RDKit          3D

 23 23  0  0  0  0  0  0  0  0999 V2000
    2.7591    0.3735    0.2739 C   0  0  0  0  0  0  0  0  0  0  0  0
    2.2877   -1.0621    0.3701 C   0  0  0  0  0  0  0  0  0  0  0  0
    0.8675   -1.2342   -0.0471 C   0  0  0  0  0  0  0  0  0  0  0  0
    0.5779   -0.8647   -1.3486 O   0  0  0  0  0  0  0  0  0  0  0  0
    0.0174   -0.1048   -0.2004 C   0  0  0  0  0  0  0  0  0  0  0  0
   -1.4704   -0.1098   -0.2165 C   0  0  0  0  0  0  0  0  0  0  0  0
   -2.0696   -0.6514    1.0645 C   0  0  0  0  0  0  0  0  0  0  0  0
   -2.0218    1.3156   -0.3637 C   0  0  0  0  0  0  0  0  0  0  0  0
   -1.5153    1.7950   -1.5804 O   0  0  0  0  0  0  0  0  0  0  0  0
    2.3375    0.9542    1.1202 H   0  0  0  0  0  0  0  0  0  0  0  0
    3.8627    0.4347    0.3670 H   0  0  0  0  0  0  0  0  0  0  0  0
    2.4334    0.8556   -0.6661 H   0  0  0  0  0  0  0  0  0  0  0  0
    2.9650   -1.6627   -0.2871 H   0  0  0  0  0  0  0  0  0  0  0  0
    2.4335   -1.4256    1.4000 H   0  0  0  0  0  0  0  0  0  0  0  0
    0.4388   -2.2324    0.2324 H   0  0  0  0  0  0  0  0  0  0  0  0
    0.4710    0.9195   -0.1185 H   0  0  0  0  0  0  0  0  0  0  0  0
   -1.8929   -0.6641   -1.0820 H   0  0  0  0  0  0  0  0  0  0  0  0
   -1.2700   -1.1011    1.6906 H   0  0  0  0  0  0  0  0  0  0  0  0
   -2.5991    0.1152    1.6550 H   0  0  0  0  0  0  0  0  0  0  0  0
   -2.8028   -1.4449    0.8226 H   0  0  0  0  0  0  0  0  0  0  0  0
   -3.1196    1.2973   -0.4660 H   0  0  0  0  0  0  0  0  0  0  0  0
   -1.7585    1.9403    0.4910 H   0  0  0  0  0  0  0  0  0  0  0  0
   -0.9317    2.5569   -1.4330 H   0  0  0  0  0  0  0  0  0  0  0  0
  1  2  1  0
  2  3  1  0
  3  4  1  0
  4  5  1  0
  5  6  1  0
  6  7  1  0
  6  8  1  0
  8  9  1  0
  5  3  1  0
  1 10  1  0
  1 11  1  0
  1 12  1  0
  2 13  1  0
  2 14  1  0
  3 15  1  0
  5 16  1  0
  6 17  1  0
  7 18  1  0
  7 19  1  0
  7 20  1  0
  8 21  1  0
  8 22  1  0
  9 23  1  0
M  END
