
     RDKit          3D

 23 24  0  0  0  0  0  0  0  0999 V2000
    2.4300    0.7847    0.5006 C   0  0  0  0  0  0  0  0  0  0  0  0
    1.9900   -0.6320    0.6759 C   0  0  0  0  0  0  0  0  0  0  0  0
    0.6583   -0.9178    0.0291 C   0  0  0  0  0  0  0  0  0  0  0  0
    0.7893   -0.6376   -1.4285 C   0  0  0  0  0  0  0  0  0  0  0  0
   -0.1208    0.1941   -1.8595 C   0  0  0  0  0  0  0  0  0  0  0  0
   -1.0272    0.6211   -0.7645 C   0  0  0  0  0  0  0  0  0  0  0  0
   -1.8117   -0.3840    0.0089 C   0  0  0  0  0  0  0  0  0  0  0  0
   -3.0023    0.1969    0.7560 C   0  0  0  0  0  0  0  0  0  0  0  0
   -0.4220    0.0182    0.4449 C   0  0  0  0  0  0  0  0  0  0  0  0
    2.0451    1.4584    1.3024 H   0  0  0  0  0  0  0  0  0  0  0  0
    2.1216    1.1596   -0.4928 H   0  0  0  0  0  0  0  0  0  0  0  0
    3.5396    0.8196    0.5700 H   0  0  0  0  0  0  0  0  0  0  0  0
    2.7868   -1.2858    0.2742 H   0  0  0  0  0  0  0  0  0  0  0  0
    1.8571   -0.8216    1.7762 H   0  0  0  0  0  0  0  0  0  0  0  0
    0.3612   -1.9768    0.1213 H   0  0  0  0  0  0  0  0  0  0  0  0
    1.5656   -1.0907   -2.0340 H   0  0  0  0  0  0  0  0  0  0  0  0
   -0.2198    0.5459   -2.8995 H   0  0  0  0  0  0  0  0  0  0  0  0
   -1.3689    1.6885   -0.7734 H   0  0  0  0  0  0  0  0  0  0  0  0
   -1.9975   -1.3961   -0.3781 H   0  0  0  0  0  0  0  0  0  0  0  0
   -3.1594   -0.4395    1.6477 H   0  0  0  0  0  0  0  0  0  0  0  0
   -2.8171    1.2341    1.0981 H   0  0  0  0  0  0  0  0  0  0  0  0
   -3.9075    0.1587    0.1202 H   0  0  0  0  0  0  0  0  0  0  0  0
   -0.2903    0.7020    1.3047 H   0  0  0  0  0  0  0  0  0  0  0  0
  1  2  1  0
  2  3  1  0
  3  4  1  0
  4  5  2  0
  5  6  1  0
  6  7  1  0
  7  8  1  0
  7  9  1  0
  9  3  1  0
  9  6  1  0
  1 10  1  0
  1 11  1  0
  1 12  1  0
  2 13  1  0
  2 14  1  0
  3 15  1  0
  4 16  1  0
  5 17  1  0
  6 18  1  0
  7 19  1  0
  8 20  1  0
  8 21  1  0
  8 22  1  0
  9 23  1  0
M  END
