
     RDKit          3D

 23 24  0  0  0  0  0  0  0  0999 V2000
    2.8383   -0.7609    0.2743 C   0  0  0  0  0  0  0  0  0  0  0  0
    1.5373   -0.2824    0.9337 C   0  0  0  0  0  0  0  0  0  0  0  0
    0.6544    0.2598   -0.1677 C   0  0  0  0  0  0  0  0  0  0  0  0
   -0.6818    0.8083    0.1036 C   0  0  0  0  0  0  0  0  0  0  0  0
   -1.1512    1.9968   -0.6976 C   0  0  0  0  0  0  0  0  0  0  0  0
   -1.7225    0.1133    0.8967 C   0  0  0  0  0  0  0  0  0  0  0  0
   -1.3168   -1.2463    0.3567 C   0  0  0  0  0  0  0  0  0  0  0  0
   -0.4942   -0.5267   -0.6730 C   0  0  0  0  0  0  0  0  0  0  0  0
   -0.9008   -0.4684   -1.9809 O   0  0  0  0  0  0  0  0  0  0  0  0
    3.3386   -1.5313    0.8588 H   0  0  0  0  0  0  0  0  0  0  0  0
    3.5259    0.1318    0.2301 H   0  0  0  0  0  0  0  0  0  0  0  0
    2.6615   -1.1097   -0.7565 H   0  0  0  0  0  0  0  0  0  0  0  0
    1.7685    0.5578    1.6234 H   0  0  0  0  0  0  0  0  0  0  0  0
    1.1087   -1.1186    1.4788 H   0  0  0  0  0  0  0  0  0  0  0  0
    1.2378    0.7879   -0.9591 H   0  0  0  0  0  0  0  0  0  0  0  0
   -0.2515    2.6686   -0.8062 H   0  0  0  0  0  0  0  0  0  0  0  0
   -1.4394    1.6291   -1.7072 H   0  0  0  0  0  0  0  0  0  0  0  0
   -2.0037    2.5137   -0.2496 H   0  0  0  0  0  0  0  0  0  0  0  0
   -2.7660    0.3331    0.5262 H   0  0  0  0  0  0  0  0  0  0  0  0
   -1.6975    0.2199    1.9825 H   0  0  0  0  0  0  0  0  0  0  0  0
   -0.7547   -1.8551    1.0950 H   0  0  0  0  0  0  0  0  0  0  0  0
   -2.1542   -1.8596   -0.0380 H   0  0  0  0  0  0  0  0  0  0  0  0
   -1.3369   -1.2615   -2.3241 H   0  0  0  0  0  0  0  0  0  0  0  0
  1  2  1  0
  2  3  1  0
  3  4  1  0
  4  5  1  0
  4  6  1  0
  6  7  1  0
  7  8  1  0
  8  9  1  0
  8  3  1  0
  8  4  1  0
  1 10  1  0
  1 11  1  0
  1 12  1  0
  2 13  1  0
  2 14  1  0
  3 15  1  0
  5 16  1  0
  5 17  1  0
  5 18  1  0
  6 19  1  0
  6 20  1  0
  7 21  1  0
  7 22  1  0
  9 23  1  0
M  END
