
     RDKit          3D

 19 19  0  0  0  0  0  0  0  0999 V2000
    2.5898   -0.0108   -0.2679 C   0  0  0  0  0  0  0  0  0  0  0  0
    1.4826   -0.6062    0.6115 C   0  0  0  0  0  0  0  0  0  0  0  0
    0.3123    0.3690    0.5005 C   0  0  0  0  0  0  0  0  0  0  0  0
   -0.0720    0.4571   -0.7957 O   0  0  0  0  0  0  0  0  0  0  0  0
   -1.3752    0.0932   -0.9478 C   0  0  0  0  0  0  0  0  0  0  0  0
   -1.9609   -0.2730    0.3675 C   0  0  0  0  0  0  0  0  0  0  0  0
   -3.0505    0.5473    0.6603 O   0  0  0  0  0  0  0  0  0  0  0  0
   -0.8400   -0.0934    1.3059 C   0  0  0  0  0  0  0  0  0  0  0  0
   -0.8122   -0.2731    2.5029 O   0  0  0  0  0  0  0  0  0  0  0  0
    2.2089    0.0048   -1.2916 H   0  0  0  0  0  0  0  0  0  0  0  0
    3.5225   -0.5696   -0.1252 H   0  0  0  0  0  0  0  0  0  0  0  0
    2.6807    1.0663    0.0488 H   0  0  0  0  0  0  0  0  0  0  0  0
    1.8171   -0.7301    1.6553 H   0  0  0  0  0  0  0  0  0  0  0  0
    1.2454   -1.5784    0.1853 H   0  0  0  0  0  0  0  0  0  0  0  0
    0.6071    1.3657    0.8782 H   0  0  0  0  0  0  0  0  0  0  0  0
   -1.9640    0.8978   -1.4237 H   0  0  0  0  0  0  0  0  0  0  0  0
   -1.4121   -0.7669   -1.6751 H   0  0  0  0  0  0  0  0  0  0  0  0
   -2.2395   -1.3378    0.3710 H   0  0  0  0  0  0  0  0  0  0  0  0
   -2.7398    1.4381    0.9363 H   0  0  0  0  0  0  0  0  0  0  0  0
  1  2  1  0
  2  3  1  0
  3  4  1  0
  4  5  1  0
  5  6  1  0
  6  7  1  0
  6  8  1  0
  8  9  2  0
  8  3  1  0
  1 10  1  0
  1 11  1  0
  1 12  1  0
  2 13  1  0
  2 14  1  0
  3 15  1  0
  5 16  1  0
  5 17  1  0
  6 18  1  0
  7 19  1  0
M  END
