
     RDKit          3D

 23 23  0  0  0  0  0  0  0  0999 V2000
    2.5869   -0.3018   -0.4014 C   0  0  0  0  0  0  0  0  0  0  0  0
    1.4723   -0.3143    0.6598 C   0  0  0  0  0  0  0  0  0  0  0  0
    0.2322    0.3466    0.0325 C   0  0  0  0  0  0  0  0  0  0  0  0
    0.4998    1.7639   -0.3846 C   0  0  0  0  0  0  0  0  0  0  0  0
    0.1658    2.0159   -1.5660 O   0  0  0  0  0  0  0  0  0  0  0  0
   -0.9773    0.1267    0.8787 C   0  0  0  0  0  0  0  0  0  0  0  0
   -2.0160    1.1537    1.0781 C   0  0  0  0  0  0  0  0  0  0  0  0
   -0.8672   -0.3767   -0.5566 C   0  0  0  0  0  0  0  0  0  0  0  0
   -1.0205   -1.8531   -0.6620 C   0  0  0  0  0  0  0  0  0  0  0  0
    3.0570   -1.2856   -0.4959 H   0  0  0  0  0  0  0  0  0  0  0  0
    2.1636    0.0090   -1.3974 H   0  0  0  0  0  0  0  0  0  0  0  0
    3.3735    0.4357   -0.1719 H   0  0  0  0  0  0  0  0  0  0  0  0
    1.3010   -1.3943    0.8788 H   0  0  0  0  0  0  0  0  0  0  0  0
    1.8206    0.1780    1.5613 H   0  0  0  0  0  0  0  0  0  0  0  0
    0.9109    2.4701    0.2407 H   0  0  0  0  0  0  0  0  0  0  0  0
   -0.8884   -0.5941    1.6986 H   0  0  0  0  0  0  0  0  0  0  0  0
   -1.9958    1.9236    0.3118 H   0  0  0  0  0  0  0  0  0  0  0  0
   -3.0112    0.6287    0.9457 H   0  0  0  0  0  0  0  0  0  0  0  0
   -2.0450    1.5835    2.0950 H   0  0  0  0  0  0  0  0  0  0  0  0
   -1.4420    0.1800   -1.3423 H   0  0  0  0  0  0  0  0  0  0  0  0
   -2.0367   -2.1082   -0.2938 H   0  0  0  0  0  0  0  0  0  0  0  0
   -0.9759   -2.1754   -1.7180 H   0  0  0  0  0  0  0  0  0  0  0  0
   -0.3078   -2.4119   -0.0261 H   0  0  0  0  0  0  0  0  0  0  0  0
  1  2  1  0
  2  3  1  0
  3  4  1  0
  4  5  2  0
  3  6  1  0
  6  7  1  0
  6  8  1  0
  8  9  1  0
  8  3  1  0
  1 10  1  0
  1 11  1  0
  1 12  1  0
  2 13  1  0
  2 14  1  0
  4 15  1  0
  6 16  1  0
  7 17  1  0
  7 18  1  0
  7 19  1  0
  8 20  1  0
  9 21  1  0
  9 22  1  0
  9 23  1  0
M  END
