
     RDKit          3D

 25 25  0  0  0  0  0  0  0  0999 V2000
   -1.7853    1.9654    0.7968 C   0  0  0  0  0  0  0  0  0  0  0  0
   -0.3709    1.7132    0.3567 C   0  0  0  0  0  0  0  0  0  0  0  0
   -0.0969    0.2208    0.1717 C   0  0  0  0  0  0  0  0  0  0  0  0
   -0.9784   -0.4068   -0.8511 C   0  0  0  0  0  0  0  0  0  0  0  0
   -0.8022   -1.8534   -1.1141 C   0  0  0  0  0  0  0  0  0  0  0  0
    0.4274   -0.5728    1.2819 C   0  0  0  0  0  0  0  0  0  0  0  0
    1.3793   -0.0879    0.2489 C   0  0  0  0  0  0  0  0  0  0  0  0
    1.9732   -0.9807   -0.7886 C   0  0  0  0  0  0  0  0  0  0  0  0
    2.2554    0.9150    0.7170 O   0  0  0  0  0  0  0  0  0  0  0  0
   -1.9493    1.5473    1.8263 H   0  0  0  0  0  0  0  0  0  0  0  0
   -1.8966    3.0635    0.9107 H   0  0  0  0  0  0  0  0  0  0  0  0
   -2.5405    1.6377    0.0781 H   0  0  0  0  0  0  0  0  0  0  0  0
    0.3251    2.1770    1.0550 H   0  0  0  0  0  0  0  0  0  0  0  0
   -0.2413    2.1785   -0.6424 H   0  0  0  0  0  0  0  0  0  0  0  0
   -0.9436    0.1320   -1.8340 H   0  0  0  0  0  0  0  0  0  0  0  0
   -2.0516   -0.2501   -0.5214 H   0  0  0  0  0  0  0  0  0  0  0  0
   -1.8090   -2.2636   -1.4500 H   0  0  0  0  0  0  0  0  0  0  0  0
   -0.1685   -2.0573   -2.0317 H   0  0  0  0  0  0  0  0  0  0  0  0
   -0.5342   -2.4833   -0.2660 H   0  0  0  0  0  0  0  0  0  0  0  0
    0.2988   -1.6505    1.3405 H   0  0  0  0  0  0  0  0  0  0  0  0
    0.4474   -0.0991    2.3031 H   0  0  0  0  0  0  0  0  0  0  0  0
    1.6752   -0.5662   -1.7884 H   0  0  0  0  0  0  0  0  0  0  0  0
    3.0973   -0.8839   -0.7867 H   0  0  0  0  0  0  0  0  0  0  0  0
    1.7851   -2.0450   -0.6631 H   0  0  0  0  0  0  0  0  0  0  0  0
    2.5042    0.6502    1.6507 H   0  0  0  0  0  0  0  0  0  0  0  0
  1  2  1  0
  2  3  1  0
  3  4  1  0
  4  5  1  0
  3  6  1  0
  6  7  1  0
  7  8  1  0
  7  9  1  0
  7  3  1  0
  1 10  1  0
  1 11  1  0
  1 12  1  0
  2 13  1  0
  2 14  1  0
  4 15  1  0
  4 16  1  0
  5 17  1  0
  5 18  1  0
  5 19  1  0
  6 20  1  0
  6 21  1  0
  8 22  1  0
  8 23  1  0
  8 24  1  0
  9 25  1  0
M  END
