
     RDKit          3D

 21 23  0  0  0  0  0  0  0  0999 V2000
   -2.8154    0.2457    0.2924 C   0  0  0  0  0  0  0  0  0  0  0  0
   -1.7224   -0.2365   -0.6333 C   0  0  0  0  0  0  0  0  0  0  0  0
   -0.3628   -0.1175   -0.0314 C   0  0  0  0  0  0  0  0  0  0  0  0
   -0.0828   -0.7898    1.1250 O   0  0  0  0  0  0  0  0  0  0  0  0
    1.2734   -0.8959    1.2917 C   0  0  0  0  0  0  0  0  0  0  0  0
    1.9394   -0.4696    0.0037 C   0  0  0  0  0  0  0  0  0  0  0  0
    1.9509    1.0593   -0.0561 C   0  0  0  0  0  0  0  0  0  0  0  0
    0.5083    0.9544   -0.5629 C   0  0  0  0  0  0  0  0  0  0  0  0
    0.7672   -0.4263   -0.9244 C   0  0  0  0  0  0  0  0  0  0  0  0
   -2.7490    1.3494    0.4421 H   0  0  0  0  0  0  0  0  0  0  0  0
   -2.6721   -0.2506    1.2598 H   0  0  0  0  0  0  0  0  0  0  0  0
   -3.7797   -0.0271   -0.1670 H   0  0  0  0  0  0  0  0  0  0  0  0
   -1.9424   -1.3225   -0.8303 H   0  0  0  0  0  0  0  0  0  0  0  0
   -1.7941    0.2540   -1.6251 H   0  0  0  0  0  0  0  0  0  0  0  0
    1.6029   -1.9241    1.5305 H   0  0  0  0  0  0  0  0  0  0  0  0
    1.5850   -0.2336    2.1142 H   0  0  0  0  0  0  0  0  0  0  0  0
    2.8387   -0.9744   -0.2997 H   0  0  0  0  0  0  0  0  0  0  0  0
    2.6680    1.4370   -0.7817 H   0  0  0  0  0  0  0  0  0  0  0  0
    1.9536    1.5385    0.9509 H   0  0  0  0  0  0  0  0  0  0  0  0
    0.1082    1.7205   -1.2173 H   0  0  0  0  0  0  0  0  0  0  0  0
    0.7248   -0.8910   -1.8810 H   0  0  0  0  0  0  0  0  0  0  0  0
  1  2  1  0
  2  3  1  0
  3  4  1  0
  4  5  1  0
  5  6  1  0
  6  7  1  0
  7  8  1  0
  8  9  1  0
  8  3  1  0
  9  3  1  0
  9  6  1  0
  1 10  1  0
  1 11  1  0
  1 12  1  0
  2 13  1  0
  2 14  1  0
  5 15  1  0
  5 16  1  0
  6 17  1  0
  7 18  1  0
  7 19  1  0
  8 20  1  0
  9 21  1  0
M  END
