
     RDKit          3D

 21 21  0  0  0  0  0  0  0  0999 V2000
   -2.1331   -0.6654    0.4069 C   0  0  0  0  0  0  0  0  0  0  0  0
   -0.9135   -0.6834   -0.4867 C   0  0  0  0  0  0  0  0  0  0  0  0
    0.1020    0.3450   -0.0445 C   0  0  0  0  0  0  0  0  0  0  0  0
   -0.4069    1.7368   -0.0641 C   0  0  0  0  0  0  0  0  0  0  0  0
    1.3912    0.2455   -0.7886 C   0  0  0  0  0  0  0  0  0  0  0  0
    2.0290   -0.9770   -0.1472 C   0  0  0  0  0  0  0  0  0  0  0  0
    1.3230   -1.2110    1.0502 O   0  0  0  0  0  0  0  0  0  0  0  0
    0.5518   -0.0876    1.3277 C   0  0  0  0  0  0  0  0  0  0  0  0
    0.2796    0.4541    2.4278 O   0  0  0  0  0  0  0  0  0  0  0  0
   -2.7277   -1.5938    0.1669 H   0  0  0  0  0  0  0  0  0  0  0  0
   -2.7552    0.2123    0.1508 H   0  0  0  0  0  0  0  0  0  0  0  0
   -1.8635   -0.6452    1.4801 H   0  0  0  0  0  0  0  0  0  0  0  0
   -1.2546   -0.3802   -1.5149 H   0  0  0  0  0  0  0  0  0  0  0  0
   -0.4860   -1.6908   -0.5293 H   0  0  0  0  0  0  0  0  0  0  0  0
   -1.4891    1.8164    0.0967 H   0  0  0  0  0  0  0  0  0  0  0  0
   -0.2198    2.1559   -1.0966 H   0  0  0  0  0  0  0  0  0  0  0  0
    0.1835    2.3585    0.6471 H   0  0  0  0  0  0  0  0  0  0  0  0
    2.0175    1.1160   -0.5010 H   0  0  0  0  0  0  0  0  0  0  0  0
    1.2781    0.1357   -1.8744 H   0  0  0  0  0  0  0  0  0  0  0  0
    3.0849   -0.7919    0.1231 H   0  0  0  0  0  0  0  0  0  0  0  0
    2.0088   -1.8499   -0.8299 H   0  0  0  0  0  0  0  0  0  0  0  0
  1  2  1  0
  2  3  1  0
  3  4  1  0
  3  5  1  0
  5  6  1  0
  6  7  1  0
  7  8  1  0
  8  9  2  0
  8  3  1  0
  1 10  1  0
  1 11  1  0
  1 12  1  0
  2 13  1  0
  2 14  1  0
  4 15  1  0
  4 16  1  0
  4 17  1  0
  5 18  1  0
  5 19  1  0
  6 20  1  0
  6 21  1  0
M  END
