
     RDKit          3D

 23 24  0  0  0  0  0  0  0  0999 V2000
    2.3722   -1.1639    0.5825 C   0  0  0  0  0  0  0  0  0  0  0  0
    1.8755    0.0552   -0.0690 C   0  0  0  0  0  0  0  0  0  0  0  0
    0.4826    0.4540    0.0971 C   0  0  0  0  0  0  0  0  0  0  0  0
    0.2684    1.7620   -0.7003 C   0  0  0  0  0  0  0  0  0  0  0  0
   -1.2224    1.7629   -0.9498 C   0  0  0  0  0  0  0  0  0  0  0  0
   -1.7232    0.5603   -0.8132 C   0  0  0  0  0  0  0  0  0  0  0  0
   -2.5388   -0.6644   -0.7247 C   0  0  0  0  0  0  0  0  0  0  0  0
   -1.5924   -0.9769    0.4635 C   0  0  0  0  0  0  0  0  0  0  0  0
   -0.5731   -0.3842   -0.4832 C   0  0  0  0  0  0  0  0  0  0  0  0
    3.0327   -1.7798   -0.0868 H   0  0  0  0  0  0  0  0  0  0  0  0
    1.6123   -1.8691    0.9591 H   0  0  0  0  0  0  0  0  0  0  0  0
    3.0278   -0.9468    1.4769 H   0  0  0  0  0  0  0  0  0  0  0  0
    2.5295    0.9183    0.2648 H   0  0  0  0  0  0  0  0  0  0  0  0
    2.1242   -0.0218   -1.1717 H   0  0  0  0  0  0  0  0  0  0  0  0
    0.2123    0.7115    1.1410 H   0  0  0  0  0  0  0  0  0  0  0  0
    0.6104    2.6354   -0.1597 H   0  0  0  0  0  0  0  0  0  0  0  0
    0.7905    1.7176   -1.6769 H   0  0  0  0  0  0  0  0  0  0  0  0
   -1.7175    2.6915   -1.2028 H   0  0  0  0  0  0  0  0  0  0  0  0
   -3.5876   -0.5489   -0.4185 H   0  0  0  0  0  0  0  0  0  0  0  0
   -2.3286   -1.3554   -1.5438 H   0  0  0  0  0  0  0  0  0  0  0  0
   -1.7804   -0.3625    1.3469 H   0  0  0  0  0  0  0  0  0  0  0  0
   -1.5150   -2.0715    0.6125 H   0  0  0  0  0  0  0  0  0  0  0  0
   -0.3593   -1.1234   -1.2412 H   0  0  0  0  0  0  0  0  0  0  0  0
  1  2  1  0
  2  3  1  0
  3  4  1  0
  4  5  1  0
  5  6  2  0
  6  7  1  0
  7  8  1  0
  8  9  1  0
  9  3  1  0
  9  6  1  0
  1 10  1  0
  1 11  1  0
  1 12  1  0
  2 13  1  0
  2 14  1  0
  3 15  1  0
  4 16  1  0
  4 17  1  0
  5 18  1  0
  7 19  1  0
  7 20  1  0
  8 21  1  0
  8 22  1  0
  9 23  1  0
M  END
