
     RDKit          3D

 23 24  0  0  0  0  0  0  0  0999 V2000
    2.8741   -0.3769   -0.2499 C   0  0  0  0  0  0  0  0  0  0  0  0
    1.7379    0.5496    0.0924 C   0  0  0  0  0  0  0  0  0  0  0  0
    0.3963    0.0103   -0.3067 C   0  0  0  0  0  0  0  0  0  0  0  0
   -0.0234   -1.2874    0.3012 C   0  0  0  0  0  0  0  0  0  0  0  0
   -1.4121   -0.6542    0.4609 C   0  0  0  0  0  0  0  0  0  0  0  0
   -2.1728   -0.5184   -0.8339 C   0  0  0  0  0  0  0  0  0  0  0  0
   -1.8424    0.7118   -1.3806 O   0  0  0  0  0  0  0  0  0  0  0  0
   -1.5570    1.5628   -0.2921 C   0  0  0  0  0  0  0  0  0  0  0  0
   -0.6934    0.6720    0.5440 C   0  0  0  0  0  0  0  0  0  0  0  0
    3.1969   -0.8559    0.7104 H   0  0  0  0  0  0  0  0  0  0  0  0
    2.5660   -1.1690   -0.9576 H   0  0  0  0  0  0  0  0  0  0  0  0
    3.7380    0.1935   -0.6736 H   0  0  0  0  0  0  0  0  0  0  0  0
    1.8949    1.4821   -0.5115 H   0  0  0  0  0  0  0  0  0  0  0  0
    1.7433    0.8801    1.1488 H   0  0  0  0  0  0  0  0  0  0  0  0
    0.1591    0.0391   -1.3764 H   0  0  0  0  0  0  0  0  0  0  0  0
   -0.0708   -2.1636   -0.3814 H   0  0  0  0  0  0  0  0  0  0  0  0
    0.3947   -1.5423    1.2787 H   0  0  0  0  0  0  0  0  0  0  0  0
   -1.9691   -0.9731    1.3339 H   0  0  0  0  0  0  0  0  0  0  0  0
   -1.8711   -1.3214   -1.5523 H   0  0  0  0  0  0  0  0  0  0  0  0
   -3.2509   -0.5202   -0.6137 H   0  0  0  0  0  0  0  0  0  0  0  0
   -2.4991    1.8480    0.1944 H   0  0  0  0  0  0  0  0  0  0  0  0
   -0.9532    2.4192   -0.6192 H   0  0  0  0  0  0  0  0  0  0  0  0
   -0.3860    1.0139    1.5207 H   0  0  0  0  0  0  0  0  0  0  0  0
  1  2  1  0
  2  3  1  0
  3  4  1  0
  4  5  1  0
  5  6  1  0
  6  7  1  0
  7  8  1  0
  8  9  1  0
  9  3  1  0
  9  5  1  0
  1 10  1  0
  1 11  1  0
  1 12  1  0
  2 13  1  0
  2 14  1  0
  3 15  1  0
  4 16  1  0
  4 17  1  0
  5 18  1  0
  6 19  1  0
  6 20  1  0
  8 21  1  0
  8 22  1  0
  9 23  1  0
M  END
