
     RDKit          3D

 27 27  0  0  0  0  0  0  0  0999 V2000
    2.6304    0.9050    0.4303 C   0  0  0  0  0  0  0  0  0  0  0  0
    1.9708   -0.3940    0.0676 C   0  0  0  0  0  0  0  0  0  0  0  0
    0.6325   -0.2344   -0.5862 C   0  0  0  0  0  0  0  0  0  0  0  0
    0.0755   -1.6260   -0.9012 C   0  0  0  0  0  0  0  0  0  0  0  0
   -1.2467   -1.1471   -0.4141 C   0  0  0  0  0  0  0  0  0  0  0  0
   -2.0010   -2.0815    0.4877 C   0  0  0  0  0  0  0  0  0  0  0  0
   -0.5441    0.0020    0.2844 C   0  0  0  0  0  0  0  0  0  0  0  0
   -1.3431    1.2625    0.0029 C   0  0  0  0  0  0  0  0  0  0  0  0
   -0.5136    2.5095    0.1502 C   0  0  0  0  0  0  0  0  0  0  0  0
    3.6897    0.7178    0.6729 H   0  0  0  0  0  0  0  0  0  0  0  0
    2.1231    1.3923    1.2632 H   0  0  0  0  0  0  0  0  0  0  0  0
    2.6067    1.5547   -0.4570 H   0  0  0  0  0  0  0  0  0  0  0  0
    2.6452   -0.9276   -0.6338 H   0  0  0  0  0  0  0  0  0  0  0  0
    1.9290   -1.0089    0.9899 H   0  0  0  0  0  0  0  0  0  0  0  0
    0.6324    0.4153   -1.4626 H   0  0  0  0  0  0  0  0  0  0  0  0
    0.1413   -1.8426   -1.9839 H   0  0  0  0  0  0  0  0  0  0  0  0
    0.5408   -2.4409   -0.3259 H   0  0  0  0  0  0  0  0  0  0  0  0
   -1.8878   -0.8444   -1.2768 H   0  0  0  0  0  0  0  0  0  0  0  0
   -2.0149   -3.0988    0.0064 H   0  0  0  0  0  0  0  0  0  0  0  0
   -3.0663   -1.7531    0.5108 H   0  0  0  0  0  0  0  0  0  0  0  0
   -1.5765   -2.1385    1.4887 H   0  0  0  0  0  0  0  0  0  0  0  0
   -0.4395   -0.2340    1.3579 H   0  0  0  0  0  0  0  0  0  0  0  0
   -1.8063    1.2005   -0.9904 H   0  0  0  0  0  0  0  0  0  0  0  0
   -2.1645    1.3254    0.7469 H   0  0  0  0  0  0  0  0  0  0  0  0
   -1.1506    3.3593   -0.1719 H   0  0  0  0  0  0  0  0  0  0  0  0
   -0.2550    2.6236    1.2325 H   0  0  0  0  0  0  0  0  0  0  0  0
    0.3925    2.5038   -0.4883 H   0  0  0  0  0  0  0  0  0  0  0  0
  1  2  1  0
  2  3  1  0
  3  4  1  0
  4  5  1  0
  5  6  1  0
  5  7  1  0
  7  8  1  0
  8  9  1  0
  7  3  1  0
  1 10  1  0
  1 11  1  0
  1 12  1  0
  2 13  1  0
  2 14  1  0
  3 15  1  0
  4 16  1  0
  4 17  1  0
  5 18  1  0
  6 19  1  0
  6 20  1  0
  6 21  1  0
  7 22  1  0
  8 23  1  0
  8 24  1  0
  9 25  1  0
  9 26  1  0
  9 27  1  0
M  END
