
     RDKit          3D

 21 21  0  0  0  0  0  0  0  0999 V2000
   -1.6027    1.2544    0.4911 C   0  0  0  0  0  0  0  0  0  0  0  0
   -0.2384    1.1276   -0.1117 C   0  0  0  0  0  0  0  0  0  0  0  0
    0.2934   -0.2426   -0.3143 C   0  0  0  0  0  0  0  0  0  0  0  0
   -0.3715   -1.0885   -1.1587 O   0  0  0  0  0  0  0  0  0  0  0  0
   -1.6486   -1.4425   -0.9232 C   0  0  0  0  0  0  0  0  0  0  0  0
    0.8833   -0.9835    0.8694 C   0  0  0  0  0  0  0  0  0  0  0  0
    1.7850   -0.4129   -0.2373 C   0  0  0  0  0  0  0  0  0  0  0  0
    2.6661    0.6786    0.2055 C   0  0  0  0  0  0  0  0  0  0  0  0
    3.7899    0.7783   -0.2571 O   0  0  0  0  0  0  0  0  0  0  0  0
   -1.5910    2.1074    1.2355 H   0  0  0  0  0  0  0  0  0  0  0  0
   -2.3969    1.5315   -0.2300 H   0  0  0  0  0  0  0  0  0  0  0  0
   -1.9077    0.3422    1.0606 H   0  0  0  0  0  0  0  0  0  0  0  0
    0.4552    1.7968    0.4460 H   0  0  0  0  0  0  0  0  0  0  0  0
   -0.3310    1.6031   -1.1430 H   0  0  0  0  0  0  0  0  0  0  0  0
   -2.3912   -0.6362   -0.9545 H   0  0  0  0  0  0  0  0  0  0  0  0
   -1.7975   -1.9899    0.0440 H   0  0  0  0  0  0  0  0  0  0  0  0
   -1.9717   -2.1611   -1.7243 H   0  0  0  0  0  0  0  0  0  0  0  0
    0.8901   -2.0703    0.9077 H   0  0  0  0  0  0  0  0  0  0  0  0
    0.9067   -0.4872    1.8506 H   0  0  0  0  0  0  0  0  0  0  0  0
    2.2014   -1.1261   -0.9913 H   0  0  0  0  0  0  0  0  0  0  0  0
    2.3771    1.4207    0.9351 H   0  0  0  0  0  0  0  0  0  0  0  0
  1  2  1  0
  2  3  1  0
  3  4  1  0
  4  5  1  0
  3  6  1  0
  6  7  1  0
  7  8  1  0
  8  9  2  0
  7  3  1  0
  1 10  1  0
  1 11  1  0
  1 12  1  0
  2 13  1  0
  2 14  1  0
  5 15  1  0
  5 16  1  0
  5 17  1  0
  6 18  1  0
  6 19  1  0
  7 20  1  0
  8 21  1  0
M  END
