
     RDKit          3D

 20 20  0  0  0  0  0  0  0  0999 V2000
   -2.1222    0.6533   -0.3789 C   0  0  0  0  0  0  0  0  0  0  0  0
   -1.1225   -0.4263   -0.6807 C   0  0  0  0  0  0  0  0  0  0  0  0
   -0.1625   -0.6037    0.4751 C   0  0  0  0  0  0  0  0  0  0  0  0
    0.8555   -1.6764    0.2128 C   0  0  0  0  0  0  0  0  0  0  0  0
    1.8264   -1.0896   -0.5663 O   0  0  0  0  0  0  0  0  0  0  0  0
    1.8838    0.2441   -0.2959 C   0  0  0  0  0  0  0  0  0  0  0  0
    0.7492    0.6190    0.6013 C   0  0  0  0  0  0  0  0  0  0  0  0
    0.1168    1.7862    0.2587 O   0  0  0  0  0  0  0  0  0  0  0  0
   -1.9585    1.5759   -0.9762 H   0  0  0  0  0  0  0  0  0  0  0  0
   -2.0192    0.9343    0.6876 H   0  0  0  0  0  0  0  0  0  0  0  0
   -3.1508    0.3077   -0.6112 H   0  0  0  0  0  0  0  0  0  0  0  0
   -0.5796   -0.1902   -1.6217 H   0  0  0  0  0  0  0  0  0  0  0  0
   -1.6575   -1.3657   -0.8484 H   0  0  0  0  0  0  0  0  0  0  0  0
   -0.7334   -0.7937    1.3888 H   0  0  0  0  0  0  0  0  0  0  0  0
    1.3246   -1.9214    1.2037 H   0  0  0  0  0  0  0  0  0  0  0  0
    0.3736   -2.5553   -0.2490 H   0  0  0  0  0  0  0  0  0  0  0  0
    1.8969    0.8463   -1.2428 H   0  0  0  0  0  0  0  0  0  0  0  0
    2.8348    0.4970    0.2343 H   0  0  0  0  0  0  0  0  0  0  0  0
    1.0940    0.6082    1.6696 H   0  0  0  0  0  0  0  0  0  0  0  0
    0.5505    2.5504    0.7390 H   0  0  0  0  0  0  0  0  0  0  0  0
  1  2  1  0
  2  3  1  0
  3  4  1  0
  4  5  1  0
  5  6  1  0
  6  7  1  0
  7  8  1  0
  7  3  1  0
  1  9  1  0
  1 10  1  0
  1 11  1  0
  2 12  1  0
  2 13  1  0
  3 14  1  0
  4 15  1  0
  4 16  1  0
  6 17  1  0
  6 18  1  0
  7 19  1  0
  8 20  1  0
M  END
