
     RDKit          3D

 21 21  0  0  0  0  0  0  0  0999 V2000
   -2.6107   -0.5304   -0.1559 C   0  0  0  0  0  0  0  0  0  0  0  0
   -1.2494   -0.3156   -0.7299 C   0  0  0  0  0  0  0  0  0  0  0  0
   -0.3695    0.2907    0.3423 C   0  0  0  0  0  0  0  0  0  0  0  0
   -0.8433    1.5963    0.8654 C   0  0  0  0  0  0  0  0  0  0  0  0
   -0.1842    2.1392    1.7287 O   0  0  0  0  0  0  0  0  0  0  0  0
    0.2658   -0.6842    1.3027 C   0  0  0  0  0  0  0  0  0  0  0  0
    1.0944    0.0762    0.3243 C   0  0  0  0  0  0  0  0  0  0  0  0
    1.6850   -0.6012   -0.7221 O   0  0  0  0  0  0  0  0  0  0  0  0
    2.9544   -0.1104   -0.9487 C   0  0  0  0  0  0  0  0  0  0  0  0
   -2.7922    0.0324    0.7848 H   0  0  0  0  0  0  0  0  0  0  0  0
   -2.7764   -1.6050    0.0979 H   0  0  0  0  0  0  0  0  0  0  0  0
   -3.4136   -0.2095   -0.8693 H   0  0  0  0  0  0  0  0  0  0  0  0
   -0.7859   -1.2676   -1.1146 H   0  0  0  0  0  0  0  0  0  0  0  0
   -1.3327    0.3546   -1.6136 H   0  0  0  0  0  0  0  0  0  0  0  0
   -1.7457    2.0589    0.4969 H   0  0  0  0  0  0  0  0  0  0  0  0
    0.1911   -1.7717    1.0908 H   0  0  0  0  0  0  0  0  0  0  0  0
    0.2167   -0.3568    2.3624 H   0  0  0  0  0  0  0  0  0  0  0  0
    1.7231    0.8682    0.7823 H   0  0  0  0  0  0  0  0  0  0  0  0
    2.9495    0.9799   -1.2086 H   0  0  0  0  0  0  0  0  0  0  0  0
    3.3803   -0.6949   -1.8050 H   0  0  0  0  0  0  0  0  0  0  0  0
    3.6433   -0.2493   -0.1101 H   0  0  0  0  0  0  0  0  0  0  0  0
  1  2  1  0
  2  3  1  0
  3  4  1  0
  4  5  2  0
  3  6  1  0
  6  7  1  0
  7  8  1  0
  8  9  1  0
  7  3  1  0
  1 10  1  0
  1 11  1  0
  1 12  1  0
  2 13  1  0
  2 14  1  0
  4 15  1  0
  6 16  1  0
  6 17  1  0
  7 18  1  0
  9 19  1  0
  9 20  1  0
  9 21  1  0
M  END
