
     RDKit          3D

 21 21  0  0  0  0  0  0  0  0999 V2000
    2.6280   -0.3962    0.2633 C   0  0  0  0  0  0  0  0  0  0  0  0
    1.4203    0.4371    0.7150 C   0  0  0  0  0  0  0  0  0  0  0  0
    0.3116    0.3029   -0.2646 C   0  0  0  0  0  0  0  0  0  0  0  0
   -0.9423    1.1049    0.1108 C   0  0  0  0  0  0  0  0  0  0  0  0
   -1.4622    1.9384   -0.8720 O   0  0  0  0  0  0  0  0  0  0  0  0
   -0.9542   -0.3790   -0.0701 C   0  0  0  0  0  0  0  0  0  0  0  0
   -1.7139   -0.8342   -1.3106 C   0  0  0  0  0  0  0  0  0  0  0  0
   -1.3425   -1.1400    1.1400 C   0  0  0  0  0  0  0  0  0  0  0  0
   -0.8056   -0.8496    2.1850 O   0  0  0  0  0  0  0  0  0  0  0  0
    2.4105   -1.4836    0.4023 H   0  0  0  0  0  0  0  0  0  0  0  0
    3.5150   -0.1438    0.9036 H   0  0  0  0  0  0  0  0  0  0  0  0
    2.8360   -0.1680   -0.7823 H   0  0  0  0  0  0  0  0  0  0  0  0
    1.1659    0.2466    1.7696 H   0  0  0  0  0  0  0  0  0  0  0  0
    1.8253    1.4956    0.7179 H   0  0  0  0  0  0  0  0  0  0  0  0
    0.6322    0.4397   -1.3395 H   0  0  0  0  0  0  0  0  0  0  0  0
   -1.0069    1.5249    1.1299 H   0  0  0  0  0  0  0  0  0  0  0  0
   -0.8037    2.6694   -0.9952 H   0  0  0  0  0  0  0  0  0  0  0  0
   -1.9492   -1.9055   -1.2199 H   0  0  0  0  0  0  0  0  0  0  0  0
   -1.0786   -0.7304   -2.2246 H   0  0  0  0  0  0  0  0  0  0  0  0
   -2.6138   -0.1953   -1.4026 H   0  0  0  0  0  0  0  0  0  0  0  0
   -2.0720   -1.9337    1.1441 H   0  0  0  0  0  0  0  0  0  0  0  0
  1  2  1  0
  2  3  1  0
  3  4  1  0
  4  5  1  0
  4  6  1  0
  6  7  1  0
  6  8  1  0
  8  9  2  0
  6  3  1  0
  1 10  1  0
  1 11  1  0
  1 12  1  0
  2 13  1  0
  2 14  1  0
  3 15  1  0
  4 16  1  0
  5 17  1  0
  7 18  1  0
  7 19  1  0
  7 20  1  0
  8 21  1  0
M  END
