
     RDKit          3D

 25 25  0  0  0  0  0  0  0  0999 V2000
   -2.2868    0.3761    0.9863 C   0  0  0  0  0  0  0  0  0  0  0  0
   -1.7222    0.0642   -0.3705 C   0  0  0  0  0  0  0  0  0  0  0  0
   -0.2858   -0.3237   -0.3656 C   0  0  0  0  0  0  0  0  0  0  0  0
    0.1810   -0.6158   -1.7787 C   0  0  0  0  0  0  0  0  0  0  0  0
    0.1492   -1.4149    0.5538 C   0  0  0  0  0  0  0  0  0  0  0  0
    1.4728   -0.6334    0.6582 C   0  0  0  0  0  0  0  0  0  0  0  0
    2.0942   -0.7238    1.8706 O   0  0  0  0  0  0  0  0  0  0  0  0
    0.6101    0.5861    0.4250 C   0  0  0  0  0  0  0  0  0  0  0  0
    1.2530    1.7074   -0.3297 C   0  0  0  0  0  0  0  0  0  0  0  0
   -3.3725    0.6145    0.8290 H   0  0  0  0  0  0  0  0  0  0  0  0
   -2.2729   -0.5166    1.6402 H   0  0  0  0  0  0  0  0  0  0  0  0
   -1.8526    1.2751    1.4554 H   0  0  0  0  0  0  0  0  0  0  0  0
   -1.8285    0.9799   -0.9883 H   0  0  0  0  0  0  0  0  0  0  0  0
   -2.3316   -0.7201   -0.8258 H   0  0  0  0  0  0  0  0  0  0  0  0
   -0.6749   -1.1622   -2.2751 H   0  0  0  0  0  0  0  0  0  0  0  0
    0.3548    0.2809   -2.3758 H   0  0  0  0  0  0  0  0  0  0  0  0
    1.0212   -1.3441   -1.7941 H   0  0  0  0  0  0  0  0  0  0  0  0
    0.2563   -2.3993    0.0802 H   0  0  0  0  0  0  0  0  0  0  0  0
   -0.3054   -1.4346    1.5581 H   0  0  0  0  0  0  0  0  0  0  0  0
    2.1782   -0.8755   -0.1717 H   0  0  0  0  0  0  0  0  0  0  0  0
    3.0797   -0.7134    1.8161 H   0  0  0  0  0  0  0  0  0  0  0  0
    0.1514    0.9096    1.3515 H   0  0  0  0  0  0  0  0  0  0  0  0
    1.6563    1.4310   -1.3035 H   0  0  0  0  0  0  0  0  0  0  0  0
    0.4705    2.4757   -0.5010 H   0  0  0  0  0  0  0  0  0  0  0  0
    2.0047    2.1770    0.3365 H   0  0  0  0  0  0  0  0  0  0  0  0
  1  2  1  0
  2  3  1  0
  3  4  1  0
  3  5  1  0
  5  6  1  0
  6  7  1  0
  6  8  1  0
  8  9  1  0
  8  3  1  0
  1 10  1  0
  1 11  1  0
  1 12  1  0
  2 13  1  0
  2 14  1  0
  4 15  1  0
  4 16  1  0
  4 17  1  0
  5 18  1  0
  5 19  1  0
  6 20  1  0
  7 21  1  0
  8 22  1  0
  9 23  1  0
  9 24  1  0
  9 25  1  0
M  END
