
     RDKit          3D

 21 22  0  0  0  0  0  0  0  0999 V2000
    2.5428    0.0643    0.4263 C   0  0  0  0  0  0  0  0  0  0  0  0
    1.5511    0.1219   -0.7185 C   0  0  0  0  0  0  0  0  0  0  0  0
    0.1948    0.1648   -0.2628 C   0  0  0  0  0  0  0  0  0  0  0  0
   -0.3161    1.2403    0.5928 C   0  0  0  0  0  0  0  0  0  0  0  0
   -1.5861    0.8698    0.8328 C   0  0  0  0  0  0  0  0  0  0  0  0
   -1.7091   -0.3776    0.0329 C   0  0  0  0  0  0  0  0  0  0  0  0
   -2.8258   -1.0574   -0.0438 O   0  0  0  0  0  0  0  0  0  0  0  0
   -0.3997   -1.0835    0.4123 C   0  0  0  0  0  0  0  0  0  0  0  0
   -0.9496   -0.0003   -1.2509 C   0  0  0  0  0  0  0  0  0  0  0  0
    2.5836   -0.9877    0.7628 H   0  0  0  0  0  0  0  0  0  0  0  0
    3.5379    0.4530    0.1285 H   0  0  0  0  0  0  0  0  0  0  0  0
    2.1853    0.6840    1.2900 H   0  0  0  0  0  0  0  0  0  0  0  0
    1.8135    0.9979   -1.3211 H   0  0  0  0  0  0  0  0  0  0  0  0
    1.7394   -0.7930   -1.3241 H   0  0  0  0  0  0  0  0  0  0  0  0
    0.2478    2.1005    0.9174 H   0  0  0  0  0  0  0  0  0  0  0  0
   -2.3402    1.3374    1.4425 H   0  0  0  0  0  0  0  0  0  0  0  0
   -3.6033   -0.6358    0.3996 H   0  0  0  0  0  0  0  0  0  0  0  0
   -0.2928   -2.0060   -0.1685 H   0  0  0  0  0  0  0  0  0  0  0  0
   -0.2187   -1.1397    1.4926 H   0  0  0  0  0  0  0  0  0  0  0  0
   -0.8388   -0.8742   -1.9392 H   0  0  0  0  0  0  0  0  0  0  0  0
   -1.3159    0.9213   -1.7014 H   0  0  0  0  0  0  0  0  0  0  0  0
  1  2  1  0
  2  3  1  0
  3  4  1  0
  4  5  2  0
  5  6  1  0
  6  7  1  0
  6  8  1  0
  6  9  1  0
  8  3  1  0
  9  3  1  0
  1 10  1  0
  1 11  1  0
  1 12  1  0
  2 13  1  0
  2 14  1  0
  4 15  1  0
  5 16  1  0
  7 17  1  0
  8 18  1  0
  8 19  1  0
  9 20  1  0
  9 21  1  0
M  END
