
     RDKit          3D

 25 26  0  0  0  0  0  0  0  0999 V2000
    2.8420    0.8671   -0.5389 C   0  0  0  0  0  0  0  0  0  0  0  0
    2.1812   -0.2107    0.2901 C   0  0  0  0  0  0  0  0  0  0  0  0
    0.8464   -0.5557   -0.3173 C   0  0  0  0  0  0  0  0  0  0  0  0
    0.1263   -1.6181    0.4465 C   0  0  0  0  0  0  0  0  0  0  0  0
   -1.1352   -0.9779    1.0002 C   0  0  0  0  0  0  0  0  0  0  0  0
   -1.3811    0.1404    0.0556 C   0  0  0  0  0  0  0  0  0  0  0  0
   -2.3662    1.2306    0.3601 C   0  0  0  0  0  0  0  0  0  0  0  0
   -2.6316    0.2035   -0.6969 C   0  0  0  0  0  0  0  0  0  0  0  0
   -0.0646    0.6112   -0.4814 C   0  0  0  0  0  0  0  0  0  0  0  0
    3.9354    0.7720   -0.4167 H   0  0  0  0  0  0  0  0  0  0  0  0
    2.5036    1.8668   -0.1828 H   0  0  0  0  0  0  0  0  0  0  0  0
    2.5621    0.6843   -1.5905 H   0  0  0  0  0  0  0  0  0  0  0  0
    2.8244   -1.1317    0.1671 H   0  0  0  0  0  0  0  0  0  0  0  0
    2.1385    0.0400    1.3535 H   0  0  0  0  0  0  0  0  0  0  0  0
    1.0506   -0.9671   -1.3410 H   0  0  0  0  0  0  0  0  0  0  0  0
   -0.1511   -2.4856   -0.1637 H   0  0  0  0  0  0  0  0  0  0  0  0
    0.7162   -1.9971    1.3254 H   0  0  0  0  0  0  0  0  0  0  0  0
   -1.9776   -1.7193    0.9652 H   0  0  0  0  0  0  0  0  0  0  0  0
   -0.9908   -0.5791    2.0251 H   0  0  0  0  0  0  0  0  0  0  0  0
   -2.8226    1.1687    1.3513 H   0  0  0  0  0  0  0  0  0  0  0  0
   -2.1580    2.2536   -0.0721 H   0  0  0  0  0  0  0  0  0  0  0  0
   -3.4270   -0.5390   -0.3894 H   0  0  0  0  0  0  0  0  0  0  0  0
   -2.7076    0.4657   -1.7539 H   0  0  0  0  0  0  0  0  0  0  0  0
    0.2349    1.5035    0.1317 H   0  0  0  0  0  0  0  0  0  0  0  0
   -0.1482    0.9739   -1.5271 H   0  0  0  0  0  0  0  0  0  0  0  0
  1  2  1  0
  2  3  1  0
  3  4  1  0
  4  5  1  0
  5  6  1  0
  6  7  1  0
  7  8  1  0
  6  9  1  0
  9  3  1  0
  8  6  1  0
  1 10  1  0
  1 11  1  0
  1 12  1  0
  2 13  1  0
  2 14  1  0
  3 15  1  0
  4 16  1  0
  4 17  1  0
  5 18  1  0
  5 19  1  0
  7 20  1  0
  7 21  1  0
  8 22  1  0
  8 23  1  0
  9 24  1  0
  9 25  1  0
M  END
