
     RDKit          3D

 21 21  0  0  0  0  0  0  0  0999 V2000
    2.3637   -0.5309   -0.0266 C   0  0  0  0  0  0  0  0  0  0  0  0
    1.2188   -0.0171   -0.8787 C   0  0  0  0  0  0  0  0  0  0  0  0
    0.0252    0.1396    0.0100 C   0  0  0  0  0  0  0  0  0  0  0  0
    0.2282    1.0794    1.1196 C   0  0  0  0  0  0  0  0  0  0  0  0
    0.7630    0.7127    2.1482 O   0  0  0  0  0  0  0  0  0  0  0  0
   -0.6022   -1.1410    0.5049 C   0  0  0  0  0  0  0  0  0  0  0  0
   -1.9386   -0.3959    0.4111 C   0  0  0  0  0  0  0  0  0  0  0  0
   -1.2862    0.3957   -0.7251 C   0  0  0  0  0  0  0  0  0  0  0  0
   -1.6612    1.7122   -0.8084 O   0  0  0  0  0  0  0  0  0  0  0  0
    3.2631   -0.7587   -0.5949 H   0  0  0  0  0  0  0  0  0  0  0  0
    2.5830    0.2583    0.7245 H   0  0  0  0  0  0  0  0  0  0  0  0
    1.9650   -1.4053    0.5383 H   0  0  0  0  0  0  0  0  0  0  0  0
    1.5194    1.0030   -1.2066 H   0  0  0  0  0  0  0  0  0  0  0  0
    1.0468   -0.6075   -1.7731 H   0  0  0  0  0  0  0  0  0  0  0  0
   -0.0886    2.1024    1.0474 H   0  0  0  0  0  0  0  0  0  0  0  0
   -0.5915   -1.9655   -0.2371 H   0  0  0  0  0  0  0  0  0  0  0  0
   -0.2985   -1.4045    1.5299 H   0  0  0  0  0  0  0  0  0  0  0  0
   -2.7914   -1.0067    0.1211 H   0  0  0  0  0  0  0  0  0  0  0  0
   -2.0516    0.2390    1.3015 H   0  0  0  0  0  0  0  0  0  0  0  0
   -1.3028   -0.1807   -1.6840 H   0  0  0  0  0  0  0  0  0  0  0  0
   -2.3635    1.7716   -1.5219 H   0  0  0  0  0  0  0  0  0  0  0  0
  1  2  1  0
  2  3  1  0
  3  4  1  0
  4  5  2  0
  3  6  1  0
  6  7  1  0
  7  8  1  0
  8  9  1  0
  8  3  1  0
  1 10  1  0
  1 11  1  0
  1 12  1  0
  2 13  1  0
  2 14  1  0
  4 15  1  0
  6 16  1  0
  6 17  1  0
  7 18  1  0
  7 19  1  0
  8 20  1  0
  9 21  1  0
M  END
