
     RDKit          3D

 20 21  0  0  0  0  0  0  0  0999 V2000
    2.4131   -0.0894   -0.2162 C   0  0  0  0  0  0  0  0  0  0  0  0
    1.1543    0.5246   -0.8483 C   0  0  0  0  0  0  0  0  0  0  0  0
    0.0308    0.1514    0.0609 C   0  0  0  0  0  0  0  0  0  0  0  0
   -0.1963   -1.2957    0.2459 C   0  0  0  0  0  0  0  0  0  0  0  0
   -1.6933   -1.0517    0.2722 C   0  0  0  0  0  0  0  0  0  0  0  0
   -1.3801    0.3605   -0.2221 C   0  0  0  0  0  0  0  0  0  0  0  0
   -1.8779    0.7944   -1.4133 O   0  0  0  0  0  0  0  0  0  0  0  0
   -0.7024    1.2159    0.7631 C   0  0  0  0  0  0  0  0  0  0  0  0
    2.2495   -1.1761   -0.2090 H   0  0  0  0  0  0  0  0  0  0  0  0
    3.3257    0.2475   -0.7044 H   0  0  0  0  0  0  0  0  0  0  0  0
    2.4170    0.2383    0.8579 H   0  0  0  0  0  0  0  0  0  0  0  0
    1.3109    1.6299   -0.8890 H   0  0  0  0  0  0  0  0  0  0  0  0
    1.0324    0.1041   -1.8742 H   0  0  0  0  0  0  0  0  0  0  0  0
    0.0592   -1.8576   -0.6981 H   0  0  0  0  0  0  0  0  0  0  0  0
    0.2239   -1.7630    1.1477 H   0  0  0  0  0  0  0  0  0  0  0  0
   -2.0226   -1.0465    1.3440 H   0  0  0  0  0  0  0  0  0  0  0  0
   -2.2878   -1.6561   -0.4114 H   0  0  0  0  0  0  0  0  0  0  0  0
   -2.7037    1.3289   -1.3632 H   0  0  0  0  0  0  0  0  0  0  0  0
   -0.9445    1.0911    1.8317 H   0  0  0  0  0  0  0  0  0  0  0  0
   -0.4081    2.2493    0.4977 H   0  0  0  0  0  0  0  0  0  0  0  0
  1  2  1  0
  2  3  1  0
  3  4  1  0
  4  5  1  0
  5  6  1  0
  6  7  1  0
  6  8  1  0
  6  3  1  0
  8  3  1  0
  1  9  1  0
  1 10  1  0
  1 11  1  0
  2 12  1  0
  2 13  1  0
  4 14  1  0
  4 15  1  0
  5 16  1  0
  5 17  1  0
  7 18  1  0
  8 19  1  0
  8 20  1  0
M  END
