
     RDKit          3D

 25 25  0  0  0  0  0  0  0  0999 V2000
    2.9193    1.4049    0.2770 C   0  0  0  0  0  0  0  0  0  0  0  0
    2.3797    0.0213    0.5220 C   0  0  0  0  0  0  0  0  0  0  0  0
    1.2787   -0.2341   -0.4632 C   0  0  0  0  0  0  0  0  0  0  0  0
    0.6635   -1.6050   -0.3034 C   0  0  0  0  0  0  0  0  0  0  0  0
   -0.8134   -1.2630   -0.5446 C   0  0  0  0  0  0  0  0  0  0  0  0
   -0.8483    0.0854    0.1506 C   0  0  0  0  0  0  0  0  0  0  0  0
   -2.0760    0.8757   -0.2132 C   0  0  0  0  0  0  0  0  0  0  0  0
   -3.3528    0.1918    0.1497 C   0  0  0  0  0  0  0  0  0  0  0  0
    0.2901    0.6974   -0.2872 O   0  0  0  0  0  0  0  0  0  0  0  0
    2.3916    1.9357   -0.5361 H   0  0  0  0  0  0  0  0  0  0  0  0
    4.0088    1.3998    0.0346 H   0  0  0  0  0  0  0  0  0  0  0  0
    2.8389    2.0336    1.2106 H   0  0  0  0  0  0  0  0  0  0  0  0
    3.2058   -0.6953    0.3530 H   0  0  0  0  0  0  0  0  0  0  0  0
    1.9339   -0.0774    1.5457 H   0  0  0  0  0  0  0  0  0  0  0  0
    1.6881   -0.1418   -1.5079 H   0  0  0  0  0  0  0  0  0  0  0  0
    1.0360   -2.3351   -1.0196 H   0  0  0  0  0  0  0  0  0  0  0  0
    0.7945   -1.9399    0.7632 H   0  0  0  0  0  0  0  0  0  0  0  0
   -1.4800   -1.9989   -0.0438 H   0  0  0  0  0  0  0  0  0  0  0  0
   -0.9528   -1.2067   -1.6204 H   0  0  0  0  0  0  0  0  0  0  0  0
   -0.7993   -0.1297    1.2453 H   0  0  0  0  0  0  0  0  0  0  0  0
   -2.0529    1.0015   -1.3259 H   0  0  0  0  0  0  0  0  0  0  0  0
   -2.0087    1.8462    0.3126 H   0  0  0  0  0  0  0  0  0  0  0  0
   -3.2119   -0.4471    1.0403 H   0  0  0  0  0  0  0  0  0  0  0  0
   -3.7212   -0.4245   -0.7117 H   0  0  0  0  0  0  0  0  0  0  0  0
   -4.1118    1.0051    0.3344 H   0  0  0  0  0  0  0  0  0  0  0  0
  1  2  1  0
  2  3  1  0
  3  4  1  0
  4  5  1  0
  5  6  1  0
  6  7  1  0
  7  8  1  0
  6  9  1  0
  9  3  1  0
  1 10  1  0
  1 11  1  0
  1 12  1  0
  2 13  1  0
  2 14  1  0
  3 15  1  0
  4 16  1  0
  4 17  1  0
  5 18  1  0
  5 19  1  0
  6 20  1  0
  7 21  1  0
  7 22  1  0
  8 23  1  0
  8 24  1  0
  8 25  1  0
M  END
