
     RDKit          3D

 21 21  0  0  0  0  0  0  0  0999 V2000
    1.6590   -1.5468    0.5330 C   0  0  0  0  0  0  0  0  0  0  0  0
    1.5415   -0.0677    0.2275 C   0  0  0  0  0  0  0  0  0  0  0  0
    0.1587    0.3110   -0.2525 C   0  0  0  0  0  0  0  0  0  0  0  0
    0.0202    1.6808   -0.5439 O   0  0  0  0  0  0  0  0  0  0  0  0
    0.2021    2.7040    0.3412 C   0  0  0  0  0  0  0  0  0  0  0  0
    0.5222    2.4190    1.5274 O   0  0  0  0  0  0  0  0  0  0  0  0
   -0.3827   -0.5932   -1.3728 C   0  0  0  0  0  0  0  0  0  0  0  0
   -0.9763   -0.5723   -0.0022 C   0  0  0  0  0  0  0  0  0  0  0  0
   -2.3925   -0.0500    0.0801 C   0  0  0  0  0  0  0  0  0  0  0  0
    1.5622   -2.1874   -0.3483 H   0  0  0  0  0  0  0  0  0  0  0  0
    2.7191   -1.6841    0.9001 H   0  0  0  0  0  0  0  0  0  0  0  0
    1.0230   -1.8472    1.3907 H   0  0  0  0  0  0  0  0  0  0  0  0
    2.2548    0.1207   -0.6281 H   0  0  0  0  0  0  0  0  0  0  0  0
    1.8397    0.4753    1.1239 H   0  0  0  0  0  0  0  0  0  0  0  0
    0.0949    3.7532    0.1141 H   0  0  0  0  0  0  0  0  0  0  0  0
    0.2499   -1.4321   -1.7130 H   0  0  0  0  0  0  0  0  0  0  0  0
   -0.9558   -0.1270   -2.1903 H   0  0  0  0  0  0  0  0  0  0  0  0
   -0.8148   -1.4898    0.5830 H   0  0  0  0  0  0  0  0  0  0  0  0
   -2.5710    0.5589    0.9732 H   0  0  0  0  0  0  0  0  0  0  0  0
   -2.6729    0.4939   -0.8697 H   0  0  0  0  0  0  0  0  0  0  0  0
   -3.0811   -0.9192    0.1264 H   0  0  0  0  0  0  0  0  0  0  0  0
  1  2  1  0
  2  3  1  0
  3  4  1  0
  4  5  1  0
  5  6  2  0
  3  7  1  0
  7  8  1  0
  8  9  1  0
  8  3  1  0
  1 10  1  0
  1 11  1  0
  1 12  1  0
  2 13  1  0
  2 14  1  0
  5 15  1  0
  7 16  1  0
  7 17  1  0
  8 18  1  0
  9 19  1  0
  9 20  1  0
  9 21  1  0
M  END
