
     RDKit          3D

 25 26  0  0  0  0  0  0  0  0999 V2000
   -2.3311    0.2458   -0.5289 C   0  0  0  0  0  0  0  0  0  0  0  0
   -1.2113   -0.6690   -0.9460 C   0  0  0  0  0  0  0  0  0  0  0  0
   -0.0472   -0.5071    0.0047 C   0  0  0  0  0  0  0  0  0  0  0  0
   -0.5111   -0.8665    1.4171 C   0  0  0  0  0  0  0  0  0  0  0  0
    0.5839    0.8368   -0.1175 C   0  0  0  0  0  0  0  0  0  0  0  0
    0.2583    1.8306    0.9332 C   0  0  0  0  0  0  0  0  0  0  0  0
    1.9214    0.1737   -0.0680 C   0  0  0  0  0  0  0  0  0  0  0  0
    2.2295   -0.6149   -1.2787 C   0  0  0  0  0  0  0  0  0  0  0  0
    1.2167   -1.1739   -0.3680 C   0  0  0  0  0  0  0  0  0  0  0  0
   -2.4584    0.3082    0.5638 H   0  0  0  0  0  0  0  0  0  0  0  0
   -2.1982    1.2378   -1.0104 H   0  0  0  0  0  0  0  0  0  0  0  0
   -3.2826   -0.1625   -0.9487 H   0  0  0  0  0  0  0  0  0  0  0  0
   -1.5750   -1.7146   -0.8632 H   0  0  0  0  0  0  0  0  0  0  0  0
   -0.9288   -0.4467   -1.9908 H   0  0  0  0  0  0  0  0  0  0  0  0
    0.3043   -1.4592    1.9275 H   0  0  0  0  0  0  0  0  0  0  0  0
   -1.3710   -1.5712    1.3563 H   0  0  0  0  0  0  0  0  0  0  0  0
   -0.7092    0.0199    2.0296 H   0  0  0  0  0  0  0  0  0  0  0  0
    0.3938    1.2707   -1.1350 H   0  0  0  0  0  0  0  0  0  0  0  0
   -0.8291    2.0387    0.8985 H   0  0  0  0  0  0  0  0  0  0  0  0
    0.7617    2.7960    0.6620 H   0  0  0  0  0  0  0  0  0  0  0  0
    0.6189    1.5657    1.9398 H   0  0  0  0  0  0  0  0  0  0  0  0
    2.5327    0.1691    0.8354 H   0  0  0  0  0  0  0  0  0  0  0  0
    3.1880   -1.1456   -1.3323 H   0  0  0  0  0  0  0  0  0  0  0  0
    1.9392   -0.1241   -2.2461 H   0  0  0  0  0  0  0  0  0  0  0  0
    1.5045   -2.0377    0.2658 H   0  0  0  0  0  0  0  0  0  0  0  0
  1  2  1  0
  2  3  1  0
  3  4  1  0
  3  5  1  0
  5  6  1  0
  5  7  1  0
  7  8  1  0
  8  9  1  0
  9  3  1  0
  9  7  1  0
  1 10  1  0
  1 11  1  0
  1 12  1  0
  2 13  1  0
  2 14  1  0
  4 15  1  0
  4 16  1  0
  4 17  1  0
  5 18  1  0
  6 19  1  0
  6 20  1  0
  6 21  1  0
  7 22  1  0
  8 23  1  0
  8 24  1  0
  9 25  1  0
M  END
