
     RDKit          3D

 21 21  0  0  0  0  0  0  0  0999 V2000
    2.0208    0.7244    1.3030 C   0  0  0  0  0  0  0  0  0  0  0  0
    1.3585    0.5914   -0.0431 C   0  0  0  0  0  0  0  0  0  0  0  0
    0.2918   -0.4849   -0.0425 C   0  0  0  0  0  0  0  0  0  0  0  0
   -0.4032   -0.6611   -1.3630 C   0  0  0  0  0  0  0  0  0  0  0  0
   -0.0777    0.3994   -2.2375 O   0  0  0  0  0  0  0  0  0  0  0  0
   -1.7542   -0.4373   -0.6903 C   0  0  0  0  0  0  0  0  0  0  0  0
   -1.0033   -0.1390    0.5846 C   0  0  0  0  0  0  0  0  0  0  0  0
   -1.2063    1.2258    1.0653 C   0  0  0  0  0  0  0  0  0  0  0  0
   -2.2150    1.4861    1.6951 O   0  0  0  0  0  0  0  0  0  0  0  0
    3.1052    0.4482    1.2666 H   0  0  0  0  0  0  0  0  0  0  0  0
    1.4685    0.1457    2.0552 H   0  0  0  0  0  0  0  0  0  0  0  0
    2.0208    1.8133    1.5962 H   0  0  0  0  0  0  0  0  0  0  0  0
    2.1494    0.2308   -0.7646 H   0  0  0  0  0  0  0  0  0  0  0  0
    0.9862    1.5597   -0.4032 H   0  0  0  0  0  0  0  0  0  0  0  0
    0.7388   -1.4491    0.2748 H   0  0  0  0  0  0  0  0  0  0  0  0
   -0.2816   -1.6250   -1.8636 H   0  0  0  0  0  0  0  0  0  0  0  0
   -0.7662    0.4014   -2.9383 H   0  0  0  0  0  0  0  0  0  0  0  0
   -2.3324   -1.3843   -0.6888 H   0  0  0  0  0  0  0  0  0  0  0  0
   -2.3033    0.4498   -1.0582 H   0  0  0  0  0  0  0  0  0  0  0  0
   -1.2862   -0.8970    1.3545 H   0  0  0  0  0  0  0  0  0  0  0  0
   -0.5106    2.0360    0.8980 H   0  0  0  0  0  0  0  0  0  0  0  0
  1  2  1  0
  2  3  1  0
  3  4  1  0
  4  5  1  0
  4  6  1  0
  6  7  1  0
  7  8  1  0
  8  9  2  0
  7  3  1  0
  1 10  1  0
  1 11  1  0
  1 12  1  0
  2 13  1  0
  2 14  1  0
  3 15  1  0
  4 16  1  0
  5 17  1  0
  6 18  1  0
  6 19  1  0
  7 20  1  0
  8 21  1  0
M  END
