
     RDKit          3D

 23 24  0  0  0  0  0  0  0  0999 V2000
   -1.5295    0.7652    1.2316 C   0  0  0  0  0  0  0  0  0  0  0  0
   -1.4836    0.6927   -0.2745 C   0  0  0  0  0  0  0  0  0  0  0  0
   -0.4666   -0.2936   -0.7826 C   0  0  0  0  0  0  0  0  0  0  0  0
   -0.6951   -1.7202   -0.3299 C   0  0  0  0  0  0  0  0  0  0  0  0
    0.7835   -1.7882   -0.0540 C   0  0  0  0  0  0  0  0  0  0  0  0
    1.2731   -0.9411    1.0366 C   0  0  0  0  0  0  0  0  0  0  0  0
    0.8902   -0.2452   -0.2037 C   0  0  0  0  0  0  0  0  0  0  0  0
    1.9083    0.2425   -0.9750 O   0  0  0  0  0  0  0  0  0  0  0  0
    1.5976    1.5455   -1.3362 C   0  0  0  0  0  0  0  0  0  0  0  0
   -1.6642   -0.1959    1.7215 H   0  0  0  0  0  0  0  0  0  0  0  0
   -2.4284    1.3852    1.4860 H   0  0  0  0  0  0  0  0  0  0  0  0
   -0.6607    1.3576    1.6258 H   0  0  0  0  0  0  0  0  0  0  0  0
   -1.2332    1.7066   -0.6315 H   0  0  0  0  0  0  0  0  0  0  0  0
   -2.4951    0.4641   -0.6294 H   0  0  0  0  0  0  0  0  0  0  0  0
   -0.4565   -0.2812   -1.8898 H   0  0  0  0  0  0  0  0  0  0  0  0
   -1.0680   -2.4092   -1.1158 H   0  0  0  0  0  0  0  0  0  0  0  0
   -1.2575   -1.8498    0.5985 H   0  0  0  0  0  0  0  0  0  0  0  0
    1.4509   -2.3042   -0.7656 H   0  0  0  0  0  0  0  0  0  0  0  0
    2.3362   -0.9985    1.2872 H   0  0  0  0  0  0  0  0  0  0  0  0
    0.6204   -0.9094    1.9511 H   0  0  0  0  0  0  0  0  0  0  0  0
    1.4661    2.1309   -0.3932 H   0  0  0  0  0  0  0  0  0  0  0  0
    2.4180    2.0151   -1.9317 H   0  0  0  0  0  0  0  0  0  0  0  0
    0.6940    1.6311   -1.9654 H   0  0  0  0  0  0  0  0  0  0  0  0
  1  2  1  0
  2  3  1  0
  3  4  1  0
  4  5  1  0
  5  6  1  0
  6  7  1  0
  7  8  1  0
  8  9  1  0
  7  3  1  0
  7  5  1  0
  1 10  1  0
  1 11  1  0
  1 12  1  0
  2 13  1  0
  2 14  1  0
  3 15  1  0
  4 16  1  0
  4 17  1  0
  5 18  1  0
  6 19  1  0
  6 20  1  0
  9 21  1  0
  9 22  1  0
  9 23  1  0
M  END
