
     RDKit          3D

 23 24  0  0  0  0  0  0  0  0999 V2000
    2.6118    0.3141   -0.6486 C   0  0  0  0  0  0  0  0  0  0  0  0
    1.6512   -0.7406   -0.1481 C   0  0  0  0  0  0  0  0  0  0  0  0
    0.4277   -0.1074    0.4959 C   0  0  0  0  0  0  0  0  0  0  0  0
   -0.4932   -1.2439    0.9753 C   0  0  0  0  0  0  0  0  0  0  0  0
   -1.2699   -1.0270   -0.3321 C   0  0  0  0  0  0  0  0  0  0  0  0
   -2.6363   -1.1193   -0.0938 O   0  0  0  0  0  0  0  0  0  0  0  0
   -0.6648    0.3000   -0.3723 C   0  0  0  0  0  0  0  0  0  0  0  0
   -0.8450    1.3980   -1.2389 C   0  0  0  0  0  0  0  0  0  0  0  0
   -1.5267    1.4666    0.1113 C   0  0  0  0  0  0  0  0  0  0  0  0
    3.6627    0.1054   -0.3068 H   0  0  0  0  0  0  0  0  0  0  0  0
    2.3760    1.3286   -0.2310 H   0  0  0  0  0  0  0  0  0  0  0  0
    2.6624    0.3417   -1.7602 H   0  0  0  0  0  0  0  0  0  0  0  0
    2.2056   -1.3503    0.6223 H   0  0  0  0  0  0  0  0  0  0  0  0
    1.3631   -1.4679   -0.9340 H   0  0  0  0  0  0  0  0  0  0  0  0
    0.7325    0.5385    1.3449 H   0  0  0  0  0  0  0  0  0  0  0  0
   -1.0384   -0.9139    1.8753 H   0  0  0  0  0  0  0  0  0  0  0  0
   -0.0025   -2.2166    1.0600 H   0  0  0  0  0  0  0  0  0  0  0  0
   -0.8761   -1.7774   -1.0718 H   0  0  0  0  0  0  0  0  0  0  0  0
   -3.1085   -0.6506   -0.8383 H   0  0  0  0  0  0  0  0  0  0  0  0
   -1.5497    1.2983   -2.1066 H   0  0  0  0  0  0  0  0  0  0  0  0
    0.0107    2.1041   -1.4270 H   0  0  0  0  0  0  0  0  0  0  0  0
   -2.6137    1.2881    0.1843 H   0  0  0  0  0  0  0  0  0  0  0  0
   -1.0788    2.1317    0.8943 H   0  0  0  0  0  0  0  0  0  0  0  0
  1  2  1  0
  2  3  1  0
  3  4  1  0
  4  5  1  0
  5  6  1  0
  5  7  1  0
  7  8  1  0
  8  9  1  0
  7  3  1  0
  9  7  1  0
  1 10  1  0
  1 11  1  0
  1 12  1  0
  2 13  1  0
  2 14  1  0
  3 15  1  0
  4 16  1  0
  4 17  1  0
  5 18  1  0
  6 19  1  0
  8 20  1  0
  8 21  1  0
  9 22  1  0
  9 23  1  0
M  END
