
     RDKit          3D

 23 24  0  0  0  0  0  0  0  0999 V2000
    2.9206   -0.4692    0.4191 C   0  0  0  0  0  0  0  0  0  0  0  0
    1.8858    0.2636   -0.4028 C   0  0  0  0  0  0  0  0  0  0  0  0
    0.5651    0.3611    0.3121 C   0  0  0  0  0  0  0  0  0  0  0  0
   -0.4684    1.1155   -0.5561 C   0  0  0  0  0  0  0  0  0  0  0  0
   -1.6220    0.2159   -0.2672 C   0  0  0  0  0  0  0  0  0  0  0  0
   -2.0327    0.4085    1.2060 C   0  0  0  0  0  0  0  0  0  0  0  0
   -2.1229   -0.9501   -0.8584 C   0  0  0  0  0  0  0  0  0  0  0  0
   -0.7549   -1.0858   -0.5381 C   0  0  0  0  0  0  0  0  0  0  0  0
   -0.0063   -0.8903    0.5706 O   0  0  0  0  0  0  0  0  0  0  0  0
    2.4580   -1.4514    0.7070 H   0  0  0  0  0  0  0  0  0  0  0  0
    3.2851    0.0925    1.2789 H   0  0  0  0  0  0  0  0  0  0  0  0
    3.7492   -0.7500   -0.2834 H   0  0  0  0  0  0  0  0  0  0  0  0
    2.2491    1.2833   -0.6807 H   0  0  0  0  0  0  0  0  0  0  0  0
    1.8158   -0.2882   -1.3619 H   0  0  0  0  0  0  0  0  0  0  0  0
    0.7469    0.9303    1.2462 H   0  0  0  0  0  0  0  0  0  0  0  0
   -0.1603    1.1643   -1.5964 H   0  0  0  0  0  0  0  0  0  0  0  0
   -0.6270    2.1031   -0.1135 H   0  0  0  0  0  0  0  0  0  0  0  0
   -2.6591    1.3241    1.1870 H   0  0  0  0  0  0  0  0  0  0  0  0
   -1.1729    0.5737    1.8522 H   0  0  0  0  0  0  0  0  0  0  0  0
   -2.6869   -0.4072    1.5602 H   0  0  0  0  0  0  0  0  0  0  0  0
   -2.4475   -0.9073   -1.9331 H   0  0  0  0  0  0  0  0  0  0  0  0
   -2.8475   -1.6045   -0.3080 H   0  0  0  0  0  0  0  0  0  0  0  0
   -0.0676   -1.0320   -1.4398 H   0  0  0  0  0  0  0  0  0  0  0  0
  1  2  1  0
  2  3  1  0
  3  4  1  0
  4  5  1  0
  5  6  1  0
  5  7  1  0
  7  8  1  0
  8  9  1  0
  9  3  1  0
  8  5  1  0
  1 10  1  0
  1 11  1  0
  1 12  1  0
  2 13  1  0
  2 14  1  0
  3 15  1  0
  4 16  1  0
  4 17  1  0
  6 18  1  0
  6 19  1  0
  6 20  1  0
  7 21  1  0
  7 22  1  0
  8 23  1  0
M  END
