
     RDKit          3D

 21 22  0  0  0  0  0  0  0  0999 V2000
    2.2429   -0.0486   -0.8950 C   0  0  0  0  0  0  0  0  0  0  0  0
    1.5035    0.8364    0.0564 C   0  0  0  0  0  0  0  0  0  0  0  0
    0.2125    0.2011    0.5384 C   0  0  0  0  0  0  0  0  0  0  0  0
   -0.8364   -0.1635   -0.4455 C   0  0  0  0  0  0  0  0  0  0  0  0
   -2.0928   -0.7038    0.1590 C   0  0  0  0  0  0  0  0  0  0  0  0
   -2.5969    0.5983    0.2184 O   0  0  0  0  0  0  0  0  0  0  0  0
   -1.7938    0.9195   -0.8687 C   0  0  0  0  0  0  0  0  0  0  0  0
    0.4218   -0.7695    1.6942 C   0  0  0  0  0  0  0  0  0  0  0  0
   -0.1497    0.4697    1.8906 O   0  0  0  0  0  0  0  0  0  0  0  0
    1.5683   -0.2906   -1.7433 H   0  0  0  0  0  0  0  0  0  0  0  0
    3.1172    0.5055   -1.2791 H   0  0  0  0  0  0  0  0  0  0  0  0
    2.5418   -0.9941   -0.3960 H   0  0  0  0  0  0  0  0  0  0  0  0
    1.3015    1.8150   -0.4246 H   0  0  0  0  0  0  0  0  0  0  0  0
    2.1364    0.9912    0.9546 H   0  0  0  0  0  0  0  0  0  0  0  0
   -0.5026   -0.8356   -1.2689 H   0  0  0  0  0  0  0  0  0  0  0  0
   -2.6854   -1.3831   -0.5047 H   0  0  0  0  0  0  0  0  0  0  0  0
   -1.9756   -1.1817    1.1464 H   0  0  0  0  0  0  0  0  0  0  0  0
   -2.3020    0.6500   -1.8121 H   0  0  0  0  0  0  0  0  0  0  0  0
   -1.3879    1.9474   -0.8691 H   0  0  0  0  0  0  0  0  0  0  0  0
   -0.1760   -1.6850    1.7382 H   0  0  0  0  0  0  0  0  0  0  0  0
    1.4531   -0.8785    2.1107 H   0  0  0  0  0  0  0  0  0  0  0  0
  1  2  1  0
  2  3  1  0
  3  4  1  0
  4  5  1  0
  5  6  1  0
  6  7  1  0
  3  8  1  0
  8  9  1  0
  9  3  1  0
  7  4  1  0
  1 10  1  0
  1 11  1  0
  1 12  1  0
  2 13  1  0
  2 14  1  0
  4 15  1  0
  5 16  1  0
  5 17  1  0
  7 18  1  0
  7 19  1  0
  8 20  1  0
  8 21  1  0
M  END
