
     RDKit          3D

 21 23  0  0  0  0  0  0  0  0999 V2000
    2.4187    0.9532   -0.0586 C   0  0  0  0  0  0  0  0  0  0  0  0
    1.7869   -0.0861    0.8316 C   0  0  0  0  0  0  0  0  0  0  0  0
    0.5370   -0.6739    0.2952 C   0  0  0  0  0  0  0  0  0  0  0  0
    0.4765   -1.4029   -0.9919 C   0  0  0  0  0  0  0  0  0  0  0  0
   -0.2487   -0.1051   -0.7997 C   0  0  0  0  0  0  0  0  0  0  0  0
   -1.3169   -0.1252    0.2337 C   0  0  0  0  0  0  0  0  0  0  0  0
   -2.2777    0.9318    0.4698 C   0  0  0  0  0  0  0  0  0  0  0  0
   -2.7112   -0.4559   -0.0236 C   0  0  0  0  0  0  0  0  0  0  0  0
   -0.5365   -0.7236    1.1844 O   0  0  0  0  0  0  0  0  0  0  0  0
    1.7015    1.6615   -0.4942 H   0  0  0  0  0  0  0  0  0  0  0  0
    3.0398    0.5157   -0.8558 H   0  0  0  0  0  0  0  0  0  0  0  0
    3.1186    1.5703    0.5781 H   0  0  0  0  0  0  0  0  0  0  0  0
    2.5503   -0.9063    0.9435 H   0  0  0  0  0  0  0  0  0  0  0  0
    1.6074    0.3904    1.8106 H   0  0  0  0  0  0  0  0  0  0  0  0
    1.3635   -1.3622   -1.6181 H   0  0  0  0  0  0  0  0  0  0  0  0
   -0.1902   -2.3024   -1.0626 H   0  0  0  0  0  0  0  0  0  0  0  0
    0.0458    0.8030   -1.3210 H   0  0  0  0  0  0  0  0  0  0  0  0
   -2.4166    1.7438   -0.2814 H   0  0  0  0  0  0  0  0  0  0  0  0
   -2.5724    1.2179    1.5003 H   0  0  0  0  0  0  0  0  0  0  0  0
   -3.2180   -1.1237    0.7007 H   0  0  0  0  0  0  0  0  0  0  0  0
   -3.1578   -0.5203   -1.0409 H   0  0  0  0  0  0  0  0  0  0  0  0
  1  2  1  0
  2  3  1  0
  3  4  1  0
  4  5  1  0
  5  6  1  0
  6  7  1  0
  7  8  1  0
  6  9  1  0
  5  3  1  0
  8  6  1  0
  9  3  1  0
  1 10  1  0
  1 11  1  0
  1 12  1  0
  2 13  1  0
  2 14  1  0
  4 15  1  0
  4 16  1  0
  5 17  1  0
  7 18  1  0
  7 19  1  0
  8 20  1  0
  8 21  1  0
M  END
