
     RDKit          3D

 17 18  0  0  0  0  0  0  0  0999 V2000
   -1.7065   -0.7091   -0.3828 C   0  0  0  0  0  0  0  0  0  0  0  0
   -1.5184    0.7288    0.0140 C   0  0  0  0  0  0  0  0  0  0  0  0
   -0.1252    1.0136    0.5249 C   0  0  0  0  0  0  0  0  0  0  0  0
    0.1244    0.1604    1.7197 O   0  0  0  0  0  0  0  0  0  0  0  0
    0.9295    0.1665    0.6164 C   0  0  0  0  0  0  0  0  0  0  0  0
    1.3814   -1.0346   -0.0869 C   0  0  0  0  0  0  0  0  0  0  0  0
    2.6769   -0.7861    0.4845 O   0  0  0  0  0  0  0  0  0  0  0  0
    2.3336    0.5649    0.6605 C   0  0  0  0  0  0  0  0  0  0  0  0
    2.9222    1.6597    0.7986 O   0  0  0  0  0  0  0  0  0  0  0  0
   -0.9869   -1.0406   -1.1562 H   0  0  0  0  0  0  0  0  0  0  0  0
   -1.7166   -1.3559    0.5119 H   0  0  0  0  0  0  0  0  0  0  0  0
   -2.7138   -0.7890   -0.8460 H   0  0  0  0  0  0  0  0  0  0  0  0
   -2.2539    0.9678    0.7953 H   0  0  0  0  0  0  0  0  0  0  0  0
   -1.7106    1.3608   -0.8693 H   0  0  0  0  0  0  0  0  0  0  0  0
   -0.0280    2.0982    0.8265 H   0  0  0  0  0  0  0  0  0  0  0  0
    1.4182   -0.9839   -1.1981 H   0  0  0  0  0  0  0  0  0  0  0  0
    0.9737   -2.0214    0.2406 H   0  0  0  0  0  0  0  0  0  0  0  0
  1  2  1  0
  2  3  1  0
  3  4  1  0
  4  5  1  0
  5  6  1  0
  6  7  1  0
  7  8  1  0
  8  9  2  0
  5  3  1  0
  8  5  1  0
  1 10  1  0
  1 11  1  0
  1 12  1  0
  2 13  1  0
  2 14  1  0
  3 15  1  0
  6 16  1  0
  6 17  1  0
M  END
