
     RDKit          3D

 21 22  0  0  0  0  0  0  0  0999 V2000
    2.5019   -0.1817    0.3732 C   0  0  0  0  0  0  0  0  0  0  0  0
    1.4011   -0.2693   -0.6893 C   0  0  0  0  0  0  0  0  0  0  0  0
    0.1245    0.1115   -0.0514 C   0  0  0  0  0  0  0  0  0  0  0  0
   -0.4321   -0.6386    1.1043 C   0  0  0  0  0  0  0  0  0  0  0  0
   -1.8211   -0.4893    0.5036 C   0  0  0  0  0  0  0  0  0  0  0  0
   -2.4778   -1.6618    0.2229 O   0  0  0  0  0  0  0  0  0  0  0  0
   -1.1740    0.1572   -0.6913 C   0  0  0  0  0  0  0  0  0  0  0  0
   -0.4553    1.4387   -0.3583 C   0  0  0  0  0  0  0  0  0  0  0  0
   -0.0789    2.1623   -1.4719 O   0  0  0  0  0  0  0  0  0  0  0  0
    3.4826    0.0705   -0.1104 H   0  0  0  0  0  0  0  0  0  0  0  0
    2.6219   -1.1447    0.9082 H   0  0  0  0  0  0  0  0  0  0  0  0
    2.3052    0.6720    1.0699 H   0  0  0  0  0  0  0  0  0  0  0  0
    1.6467    0.4369   -1.4991 H   0  0  0  0  0  0  0  0  0  0  0  0
    1.4508   -1.2996   -1.0845 H   0  0  0  0  0  0  0  0  0  0  0  0
   -0.2785   -0.1422    2.0712 H   0  0  0  0  0  0  0  0  0  0  0  0
   -0.0828   -1.7103    1.0658 H   0  0  0  0  0  0  0  0  0  0  0  0
   -2.4233    0.2475    1.0819 H   0  0  0  0  0  0  0  0  0  0  0  0
   -3.2524   -1.8153    0.8255 H   0  0  0  0  0  0  0  0  0  0  0  0
   -1.4205   -0.1202   -1.7054 H   0  0  0  0  0  0  0  0  0  0  0  0
   -0.7656    2.0321    0.5304 H   0  0  0  0  0  0  0  0  0  0  0  0
   -0.8724    2.1441   -2.0952 H   0  0  0  0  0  0  0  0  0  0  0  0
  1  2  1  0
  2  3  1  0
  3  4  1  0
  4  5  1  0
  5  6  1  0
  5  7  1  0
  7  8  1  0
  8  9  1  0
  7  3  1  0
  8  3  1  0
  1 10  1  0
  1 11  1  0
  1 12  1  0
  2 13  1  0
  2 14  1  0
  4 15  1  0
  4 16  1  0
  5 17  1  0
  6 18  1  0
  7 19  1  0
  8 20  1  0
  9 21  1  0
M  END
