
     RDKit          3D

 27 27  0  0  0  0  0  0  0  0999 V2000
    3.5835   -0.0139   -0.5660 C   0  0  0  0  0  0  0  0  0  0  0  0
    2.4717    0.8648    0.0115 C   0  0  0  0  0  0  0  0  0  0  0  0
    1.1836    0.0814   -0.1719 C   0  0  0  0  0  0  0  0  0  0  0  0
    1.2400   -1.2701    0.5692 C   0  0  0  0  0  0  0  0  0  0  0  0
    0.2809   -0.1553    0.9655 C   0  0  0  0  0  0  0  0  0  0  0  0
   -1.1533   -0.4835    0.8044 C   0  0  0  0  0  0  0  0  0  0  0  0
   -2.0348    0.4904    0.1290 C   0  0  0  0  0  0  0  0  0  0  0  0
   -3.4455   -0.1426    0.1417 C   0  0  0  0  0  0  0  0  0  0  0  0
   -1.7206    0.7476   -1.3104 C   0  0  0  0  0  0  0  0  0  0  0  0
    3.7415   -0.9149    0.0443 H   0  0  0  0  0  0  0  0  0  0  0  0
    4.5438    0.5515   -0.5936 H   0  0  0  0  0  0  0  0  0  0  0  0
    3.3282   -0.3398   -1.6081 H   0  0  0  0  0  0  0  0  0  0  0  0
    2.6942    0.9611    1.0947 H   0  0  0  0  0  0  0  0  0  0  0  0
    2.4705    1.8122   -0.5321 H   0  0  0  0  0  0  0  0  0  0  0  0
    0.7849    0.0786   -1.1771 H   0  0  0  0  0  0  0  0  0  0  0  0
    2.0685   -1.4804    1.2440 H   0  0  0  0  0  0  0  0  0  0  0  0
    0.8614   -2.1137   -0.0270 H   0  0  0  0  0  0  0  0  0  0  0  0
    0.5603    0.3716    1.9270 H   0  0  0  0  0  0  0  0  0  0  0  0
   -1.5847   -0.6461    1.8369 H   0  0  0  0  0  0  0  0  0  0  0  0
   -1.2761   -1.4694    0.2865 H   0  0  0  0  0  0  0  0  0  0  0  0
   -2.1318    1.4632    0.6411 H   0  0  0  0  0  0  0  0  0  0  0  0
   -3.4825   -0.9812   -0.5935 H   0  0  0  0  0  0  0  0  0  0  0  0
   -4.2064    0.5933   -0.1113 H   0  0  0  0  0  0  0  0  0  0  0  0
   -3.6569   -0.5494    1.1494 H   0  0  0  0  0  0  0  0  0  0  0  0
   -1.4413   -0.1517   -1.8844 H   0  0  0  0  0  0  0  0  0  0  0  0
   -1.0105    1.5711   -1.4271 H   0  0  0  0  0  0  0  0  0  0  0  0
   -2.6686    1.1253   -1.7880 H   0  0  0  0  0  0  0  0  0  0  0  0
  1  2  1  0
  2  3  1  0
  3  4  1  0
  4  5  1  0
  5  6  1  0
  6  7  1  0
  7  8  1  0
  7  9  1  0
  5  3  1  0
  1 10  1  0
  1 11  1  0
  1 12  1  0
  2 13  1  0
  2 14  1  0
  3 15  1  0
  4 16  1  0
  4 17  1  0
  5 18  1  0
  6 19  1  0
  6 20  1  0
  7 21  1  0
  8 22  1  0
  8 23  1  0
  8 24  1  0
  9 25  1  0
  9 26  1  0
  9 27  1  0
M  END
