
     RDKit          3D

 23 24  0  0  0  0  0  0  0  0999 V2000
    2.3929    0.3912   -0.0203 C   0  0  0  0  0  0  0  0  0  0  0  0
    1.0343    0.7478   -0.6375 C   0  0  0  0  0  0  0  0  0  0  0  0
    0.0392   -0.2541   -0.1632 C   0  0  0  0  0  0  0  0  0  0  0  0
    0.4087   -1.6375   -0.5657 C   0  0  0  0  0  0  0  0  0  0  0  0
   -1.4128    0.0211   -0.4892 C   0  0  0  0  0  0  0  0  0  0  0  0
   -1.5283    1.4480   -0.0188 C   0  0  0  0  0  0  0  0  0  0  0  0
   -0.8175    1.3307    1.2038 O   0  0  0  0  0  0  0  0  0  0  0  0
   -0.4244   -0.0089    1.2314 C   0  0  0  0  0  0  0  0  0  0  0  0
   -1.7353   -0.6901    0.8090 C   0  0  0  0  0  0  0  0  0  0  0  0
    2.1691    0.0267    1.0033 H   0  0  0  0  0  0  0  0  0  0  0  0
    2.9270   -0.3481   -0.6367 H   0  0  0  0  0  0  0  0  0  0  0  0
    3.0282    1.2921    0.0444 H   0  0  0  0  0  0  0  0  0  0  0  0
    0.8342    1.7890   -0.2458 H   0  0  0  0  0  0  0  0  0  0  0  0
    1.1651    0.7442   -1.7242 H   0  0  0  0  0  0  0  0  0  0  0  0
   -0.4164   -2.3359   -0.6777 H   0  0  0  0  0  0  0  0  0  0  0  0
    0.9027   -1.5580   -1.5696 H   0  0  0  0  0  0  0  0  0  0  0  0
    1.1804   -2.1037    0.0885 H   0  0  0  0  0  0  0  0  0  0  0  0
   -1.8308   -0.2961   -1.3912 H   0  0  0  0  0  0  0  0  0  0  0  0
   -2.6144    1.6210    0.2132 H   0  0  0  0  0  0  0  0  0  0  0  0
   -1.1066    2.1939   -0.6925 H   0  0  0  0  0  0  0  0  0  0  0  0
    0.0853   -0.3909    2.0679 H   0  0  0  0  0  0  0  0  0  0  0  0
   -1.7091   -1.7689    0.7991 H   0  0  0  0  0  0  0  0  0  0  0  0
   -2.5717   -0.2135    1.3718 H   0  0  0  0  0  0  0  0  0  0  0  0
  1  2  1  0
  2  3  1  0
  3  4  1  0
  3  5  1  0
  5  6  1  0
  6  7  1  0
  7  8  1  0
  8  9  1  0
  8  3  1  0
  9  5  1  0
  1 10  1  0
  1 11  1  0
  1 12  1  0
  2 13  1  0
  2 14  1  0
  4 15  1  0
  4 16  1  0
  4 17  1  0
  5 18  1  0
  6 19  1  0
  6 20  1  0
  8 21  1  0
  9 22  1  0
  9 23  1  0
M  END
