
     RDKit          3D

 21 21  0  0  0  0  0  0  0  0999 V2000
    2.7142    0.2028   -0.1520 C   0  0  0  0  0  0  0  0  0  0  0  0
    1.5005   -0.6607   -0.2452 C   0  0  0  0  0  0  0  0  0  0  0  0
    0.3772   -0.1767    0.6571 C   0  0  0  0  0  0  0  0  0  0  0  0
   -0.8293   -1.0312    0.5675 C   0  0  0  0  0  0  0  0  0  0  0  0
   -1.8457   -0.2147   -0.1927 C   0  0  0  0  0  0  0  0  0  0  0  0
   -3.1549   -0.5600    0.1345 O   0  0  0  0  0  0  0  0  0  0  0  0
   -1.5149    1.1852    0.2424 C   0  0  0  0  0  0  0  0  0  0  0  0
   -0.0308    1.1852    0.1912 C   0  0  0  0  0  0  0  0  0  0  0  0
    0.6899    2.0811   -0.1495 O   0  0  0  0  0  0  0  0  0  0  0  0
    2.7364    1.0125   -0.9133 H   0  0  0  0  0  0  0  0  0  0  0  0
    2.7890    0.6911    0.8566 H   0  0  0  0  0  0  0  0  0  0  0  0
    3.6492   -0.3938   -0.3302 H   0  0  0  0  0  0  0  0  0  0  0  0
    1.7800   -1.7020    0.0102 H   0  0  0  0  0  0  0  0  0  0  0  0
    1.1114   -0.6001   -1.2849 H   0  0  0  0  0  0  0  0  0  0  0  0
    0.7337   -0.1251    1.6982 H   0  0  0  0  0  0  0  0  0  0  0  0
   -1.2234   -1.2999    1.5739 H   0  0  0  0  0  0  0  0  0  0  0  0
   -0.6645   -2.0003    0.0449 H   0  0  0  0  0  0  0  0  0  0  0  0
   -1.7034   -0.3726   -1.2660 H   0  0  0  0  0  0  0  0  0  0  0  0
   -3.3544   -0.4608    1.0891 H   0  0  0  0  0  0  0  0  0  0  0  0
   -1.9717    1.9578   -0.3898 H   0  0  0  0  0  0  0  0  0  0  0  0
   -1.7882    1.2821    1.3248 H   0  0  0  0  0  0  0  0  0  0  0  0
  1  2  1  0
  2  3  1  0
  3  4  1  0
  4  5  1  0
  5  6  1  0
  5  7  1  0
  7  8  1  0
  8  9  2  0
  8  3  1  0
  1 10  1  0
  1 11  1  0
  1 12  1  0
  2 13  1  0
  2 14  1  0
  3 15  1  0
  4 16  1  0
  4 17  1  0
  5 18  1  0
  6 19  1  0
  7 20  1  0
  7 21  1  0
M  END
