
     RDKit          3D

 20 20  0  0  0  0  0  0  0  0999 V2000
    2.6001   -0.0113   -0.4582 C   0  0  0  0  0  0  0  0  0  0  0  0
    1.6001    0.4378    0.5456 C   0  0  0  0  0  0  0  0  0  0  0  0
    0.1977    0.1056    0.1705 C   0  0  0  0  0  0  0  0  0  0  0  0
   -0.2205   -0.5226   -0.9218 C   0  0  0  0  0  0  0  0  0  0  0  0
   -1.7138   -0.6506   -0.9025 C   0  0  0  0  0  0  0  0  0  0  0  0
   -1.9389   -0.6600    0.6167 C   0  0  0  0  0  0  0  0  0  0  0  0
   -0.9843    0.4488    1.0063 C   0  0  0  0  0  0  0  0  0  0  0  0
   -1.4626    1.6746    0.5443 O   0  0  0  0  0  0  0  0  0  0  0  0
    2.2809    0.0465   -1.4960 H   0  0  0  0  0  0  0  0  0  0  0  0
    2.8778   -1.0722   -0.2048 H   0  0  0  0  0  0  0  0  0  0  0  0
    3.5193    0.6069   -0.3294 H   0  0  0  0  0  0  0  0  0  0  0  0
    1.8105   -0.0202    1.5440 H   0  0  0  0  0  0  0  0  0  0  0  0
    1.6593    1.5447    0.7226 H   0  0  0  0  0  0  0  0  0  0  0  0
    0.3711   -0.9086   -1.7385 H   0  0  0  0  0  0  0  0  0  0  0  0
   -2.0670   -1.5729   -1.3699 H   0  0  0  0  0  0  0  0  0  0  0  0
   -2.1160    0.2761   -1.3322 H   0  0  0  0  0  0  0  0  0  0  0  0
   -1.5296   -1.6141    0.9965 H   0  0  0  0  0  0  0  0  0  0  0  0
   -2.9754   -0.4638    0.8732 H   0  0  0  0  0  0  0  0  0  0  0  0
   -0.7585    0.4615    2.0876 H   0  0  0  0  0  0  0  0  0  0  0  0
   -1.1503    1.8939   -0.3541 H   0  0  0  0  0  0  0  0  0  0  0  0
  1  2  1  0
  2  3  1  0
  3  4  2  0
  4  5  1  0
  5  6  1  0
  6  7  1  0
  7  8  1  0
  7  3  1  0
  1  9  1  0
  1 10  1  0
  1 11  1  0
  2 12  1  0
  2 13  1  0
  4 14  1  0
  5 15  1  0
  5 16  1  0
  6 17  1  0
  6 18  1  0
  7 19  1  0
  8 20  1  0
M  END
