
     RDKit          3D

 21 22  0  0  0  0  0  0  0  0999 V2000
    2.4516   -0.0786    0.5276 C   0  0  0  0  0  0  0  0  0  0  0  0
    1.6487   -0.2881   -0.7192 C   0  0  0  0  0  0  0  0  0  0  0  0
    0.1901   -0.4149   -0.4237 C   0  0  0  0  0  0  0  0  0  0  0  0
   -0.5722   -1.4683   -0.7028 C   0  0  0  0  0  0  0  0  0  0  0  0
   -1.9663   -1.2009   -0.2495 C   0  0  0  0  0  0  0  0  0  0  0  0
   -2.0048    0.3143   -0.2770 C   0  0  0  0  0  0  0  0  0  0  0  0
   -0.6216    0.6384    0.2315 C   0  0  0  0  0  0  0  0  0  0  0  0
   -0.2101    1.8521    0.7262 C   0  0  0  0  0  0  0  0  0  0  0  0
   -0.5671    0.7909    1.6184 O   0  0  0  0  0  0  0  0  0  0  0  0
    3.0970    0.8075    0.3918 H   0  0  0  0  0  0  0  0  0  0  0  0
    3.0399   -0.9942    0.7688 H   0  0  0  0  0  0  0  0  0  0  0  0
    1.7880    0.0563    1.4331 H   0  0  0  0  0  0  0  0  0  0  0  0
    1.8442    0.5368   -1.4391 H   0  0  0  0  0  0  0  0  0  0  0  0
    1.9905   -1.2391   -1.1880 H   0  0  0  0  0  0  0  0  0  0  0  0
   -0.2759   -2.3960   -1.1816 H   0  0  0  0  0  0  0  0  0  0  0  0
   -2.1205   -1.5095    0.8082 H   0  0  0  0  0  0  0  0  0  0  0  0
   -2.7267   -1.6586   -0.9004 H   0  0  0  0  0  0  0  0  0  0  0  0
   -2.1058    0.6194   -1.3420 H   0  0  0  0  0  0  0  0  0  0  0  0
   -2.8079    0.7326    0.3569 H   0  0  0  0  0  0  0  0  0  0  0  0
   -0.9090    2.7372    0.7660 H   0  0  0  0  0  0  0  0  0  0  0  0
    0.8379    2.1629    0.7950 H   0  0  0  0  0  0  0  0  0  0  0  0
  1  2  1  0
  2  3  1  0
  3  4  2  0
  4  5  1  0
  5  6  1  0
  6  7  1  0
  7  8  1  0
  8  9  1  0
  7  3  1  0
  9  7  1  0
  1 10  1  0
  1 11  1  0
  1 12  1  0
  2 13  1  0
  2 14  1  0
  4 15  1  0
  5 16  1  0
  5 17  1  0
  6 18  1  0
  6 19  1  0
  8 20  1  0
  8 21  1  0
M  END
