
     RDKit          3D

 23 24  0  0  0  0  0  0  0  0999 V2000
   -2.8749    0.3719   -0.1664 C   0  0  0  0  0  0  0  0  0  0  0  0
   -1.6352    0.0391   -1.0047 C   0  0  0  0  0  0  0  0  0  0  0  0
   -0.7084   -0.7201   -0.1141 C   0  0  0  0  0  0  0  0  0  0  0  0
   -0.3126    0.1275    1.1125 C   0  0  0  0  0  0  0  0  0  0  0  0
    1.1953    0.0262    0.9011 C   0  0  0  0  0  0  0  0  0  0  0  0
    1.3811   -1.3090    0.4709 O   0  0  0  0  0  0  0  0  0  0  0  0
    0.6732   -0.8957   -0.6841 C   0  0  0  0  0  0  0  0  0  0  0  0
    1.3840    0.4208   -0.5223 C   0  0  0  0  0  0  0  0  0  0  0  0
    2.8315    0.3028   -0.9290 C   0  0  0  0  0  0  0  0  0  0  0  0
   -3.0285   -0.4889    0.5432 H   0  0  0  0  0  0  0  0  0  0  0  0
   -2.6701    1.2790    0.4128 H   0  0  0  0  0  0  0  0  0  0  0  0
   -3.7790    0.4151   -0.7841 H   0  0  0  0  0  0  0  0  0  0  0  0
   -1.1723    0.9504   -1.4151 H   0  0  0  0  0  0  0  0  0  0  0  0
   -1.9725   -0.6333   -1.8050 H   0  0  0  0  0  0  0  0  0  0  0  0
   -1.1448   -1.6682    0.1958 H   0  0  0  0  0  0  0  0  0  0  0  0
   -0.6443   -0.3388    2.0382 H   0  0  0  0  0  0  0  0  0  0  0  0
   -0.6840    1.1381    0.9293 H   0  0  0  0  0  0  0  0  0  0  0  0
    1.8359    0.3921    1.6642 H   0  0  0  0  0  0  0  0  0  0  0  0
    0.8121   -1.4661   -1.5730 H   0  0  0  0  0  0  0  0  0  0  0  0
    0.8640    1.3146   -0.8748 H   0  0  0  0  0  0  0  0  0  0  0  0
    3.4832    0.8549   -0.2125 H   0  0  0  0  0  0  0  0  0  0  0  0
    3.0170    0.6468   -1.9654 H   0  0  0  0  0  0  0  0  0  0  0  0
    3.1493   -0.7589   -0.8645 H   0  0  0  0  0  0  0  0  0  0  0  0
  1  2  1  0
  2  3  1  0
  3  4  1  0
  4  5  1  0
  5  6  1  0
  6  7  1  0
  7  8  1  0
  8  9  1  0
  7  3  1  0
  8  5  1  0
  1 10  1  0
  1 11  1  0
  1 12  1  0
  2 13  1  0
  2 14  1  0
  3 15  1  0
  4 16  1  0
  4 17  1  0
  5 18  1  0
  7 19  1  0
  8 20  1  0
  9 21  1  0
  9 22  1  0
  9 23  1  0
M  END
