
     RDKit          3D

 19 20  0  0  0  0  0  0  0  0999 V2000
    2.5012    0.3465   -0.0426 C   0  0  0  0  0  0  0  0  0  0  0  0
    1.2659   -0.0085    0.7158 C   0  0  0  0  0  0  0  0  0  0  0  0
    0.2159   -0.6323   -0.1577 C   0  0  0  0  0  0  0  0  0  0  0  0
   -0.3491    0.1203   -1.3279 C   0  0  0  0  0  0  0  0  0  0  0  0
   -1.1126   -0.0607   -0.1278 C   0  0  0  0  0  0  0  0  0  0  0  0
   -2.3553   -0.8344    0.0502 C   0  0  0  0  0  0  0  0  0  0  0  0
   -2.8232    0.3048    0.7895 O   0  0  0  0  0  0  0  0  0  0  0  0
   -1.5812    0.9710    0.7811 C   0  0  0  0  0  0  0  0  0  0  0  0
   -1.1941    2.0054    1.3621 O   0  0  0  0  0  0  0  0  0  0  0  0
    2.7263   -0.4454   -0.7634 H   0  0  0  0  0  0  0  0  0  0  0  0
    3.3204    0.5133    0.6942 H   0  0  0  0  0  0  0  0  0  0  0  0
    2.3331    1.3362   -0.5322 H   0  0  0  0  0  0  0  0  0  0  0  0
    0.8912    0.9211    1.2183 H   0  0  0  0  0  0  0  0  0  0  0  0
    1.4827   -0.7231    1.5392 H   0  0  0  0  0  0  0  0  0  0  0  0
    0.3117   -1.7224   -0.3319 H   0  0  0  0  0  0  0  0  0  0  0  0
    0.1086    1.1135   -1.5829 H   0  0  0  0  0  0  0  0  0  0  0  0
   -0.5878   -0.4417   -2.2776 H   0  0  0  0  0  0  0  0  0  0  0  0
   -2.1991   -1.6587    0.8072 H   0  0  0  0  0  0  0  0  0  0  0  0
   -2.9545   -1.1049   -0.8136 H   0  0  0  0  0  0  0  0  0  0  0  0
  1  2  1  0
  2  3  1  0
  3  4  1  0
  4  5  1  0
  5  6  1  0
  6  7  1  0
  7  8  1  0
  8  9  2  0
  5  3  1  0
  8  5  1  0
  1 10  1  0
  1 11  1  0
  1 12  1  0
  2 13  1  0
  2 14  1  0
  3 15  1  0
  4 16  1  0
  4 17  1  0
  6 18  1  0
  6 19  1  0
M  END
