
     RDKit          3D

 23 24  0  0  0  0  0  0  0  0999 V2000
    1.7317   -1.6122    0.0631 C   0  0  0  0  0  0  0  0  0  0  0  0
    1.7222   -0.1262   -0.1117 C   0  0  0  0  0  0  0  0  0  0  0  0
    0.3718    0.4916   -0.2104 C   0  0  0  0  0  0  0  0  0  0  0  0
    0.6018    1.9765   -0.3804 C   0  0  0  0  0  0  0  0  0  0  0  0
   -0.4834    0.2029    1.0379 C   0  0  0  0  0  0  0  0  0  0  0  0
   -1.4428   -0.7489    0.4334 C   0  0  0  0  0  0  0  0  0  0  0  0
   -2.6474   -0.6302   -0.2714 C   0  0  0  0  0  0  0  0  0  0  0  0
   -1.6434    0.1637   -0.8478 C   0  0  0  0  0  0  0  0  0  0  0  0
   -0.3753   -0.0426   -1.2926 O   0  0  0  0  0  0  0  0  0  0  0  0
    1.2552   -2.0902   -0.7994 H   0  0  0  0  0  0  0  0  0  0  0  0
    2.8170   -1.9186    0.0266 H   0  0  0  0  0  0  0  0  0  0  0  0
    1.3697   -1.9584    1.0446 H   0  0  0  0  0  0  0  0  0  0  0  0
    2.2811    0.1169   -1.0202 H   0  0  0  0  0  0  0  0  0  0  0  0
    2.2512    0.3668    0.7317 H   0  0  0  0  0  0  0  0  0  0  0  0
    0.7226    2.4022    0.6509 H   0  0  0  0  0  0  0  0  0  0  0  0
   -0.1425    2.4815   -0.9830 H   0  0  0  0  0  0  0  0  0  0  0  0
    1.5974    2.1671   -0.8716 H   0  0  0  0  0  0  0  0  0  0  0  0
   -0.9226    1.1246    1.4369 H   0  0  0  0  0  0  0  0  0  0  0  0
    0.1257   -0.2685    1.8305 H   0  0  0  0  0  0  0  0  0  0  0  0
   -0.8767   -1.7161    0.2368 H   0  0  0  0  0  0  0  0  0  0  0  0
   -3.5242   -0.1580    0.2435 H   0  0  0  0  0  0  0  0  0  0  0  0
   -3.0397   -1.4985   -0.8792 H   0  0  0  0  0  0  0  0  0  0  0  0
   -1.7496    1.2746   -0.6375 H   0  0  0  0  0  0  0  0  0  0  0  0
  1  2  1  0
  2  3  1  0
  3  4  1  0
  3  5  1  0
  5  6  1  0
  6  7  1  0
  7  8  1  0
  8  9  1  0
  9  3  1  0
  8  6  1  0
  1 10  1  0
  1 11  1  0
  1 12  1  0
  2 13  1  0
  2 14  1  0
  4 15  1  0
  4 16  1  0
  4 17  1  0
  5 18  1  0
  5 19  1  0
  6 20  1  0
  7 21  1  0
  7 22  1  0
  8 23  1  0
M  END
