
     RDKit          3D

 21 21  0  0  0  0  0  0  0  0999 V2000
    2.5106    0.9564   -0.4104 C   0  0  0  0  0  0  0  0  0  0  0  0
    1.9074   -0.4043   -0.0434 C   0  0  0  0  0  0  0  0  0  0  0  0
    0.5530   -0.2108    0.5717 C   0  0  0  0  0  0  0  0  0  0  0  0
   -0.1083   -1.5389    0.9636 C   0  0  0  0  0  0  0  0  0  0  0  0
   -0.6919   -0.6273   -0.0715 C   0  0  0  0  0  0  0  0  0  0  0  0
   -1.9463    0.0924    0.3437 C   0  0  0  0  0  0  0  0  0  0  0  0
   -3.0610   -0.4112   -0.3536 O   0  0  0  0  0  0  0  0  0  0  0  0
   -1.8383    1.5596    0.1902 C   0  0  0  0  0  0  0  0  0  0  0  0
   -2.6591    2.1435   -0.4718 O   0  0  0  0  0  0  0  0  0  0  0  0
    3.0250    1.3741    0.4826 H   0  0  0  0  0  0  0  0  0  0  0  0
    1.7151    1.6853   -0.6793 H   0  0  0  0  0  0  0  0  0  0  0  0
    3.2144    0.7606   -1.2384 H   0  0  0  0  0  0  0  0  0  0  0  0
    1.9083   -1.0871   -0.9094 H   0  0  0  0  0  0  0  0  0  0  0  0
    2.5665   -0.8365    0.7386 H   0  0  0  0  0  0  0  0  0  0  0  0
    0.5172    0.6217    1.3102 H   0  0  0  0  0  0  0  0  0  0  0  0
    0.3138   -2.4739    0.5917 H   0  0  0  0  0  0  0  0  0  0  0  0
   -0.5062   -1.5402    1.9875 H   0  0  0  0  0  0  0  0  0  0  0  0
   -0.6869   -0.9427   -1.1347 H   0  0  0  0  0  0  0  0  0  0  0  0
   -2.1487   -0.1167    1.4116 H   0  0  0  0  0  0  0  0  0  0  0  0
   -3.5643   -1.0753    0.1961 H   0  0  0  0  0  0  0  0  0  0  0  0
   -1.0203    2.0713    0.6795 H   0  0  0  0  0  0  0  0  0  0  0  0
  1  2  1  0
  2  3  1  0
  3  4  1  0
  4  5  1  0
  5  6  1  0
  6  7  1  0
  6  8  1  0
  8  9  2  0
  5  3  1  0
  1 10  1  0
  1 11  1  0
  1 12  1  0
  2 13  1  0
  2 14  1  0
  3 15  1  0
  4 16  1  0
  4 17  1  0
  5 18  1  0
  6 19  1  0
  7 20  1  0
  8 21  1  0
M  END
