
     RDKit          3D

 21 22  0  0  0  0  0  0  0  0999 V2000
    2.9349    0.1637    0.1505 C   0  0  0  0  0  0  0  0  0  0  0  0
    1.8141   -0.3397   -0.7330 C   0  0  0  0  0  0  0  0  0  0  0  0
    0.5184    0.1731   -0.1680 C   0  0  0  0  0  0  0  0  0  0  0  0
    0.1458   -0.2256    1.2456 C   0  0  0  0  0  0  0  0  0  0  0  0
   -1.1738   -0.6292    1.1285 O   0  0  0  0  0  0  0  0  0  0  0  0
   -1.7795    0.2603    0.2179 C   0  0  0  0  0  0  0  0  0  0  0  0
   -3.0725   -0.2734   -0.2927 C   0  0  0  0  0  0  0  0  0  0  0  0
   -0.7050    0.3381   -0.8551 C   0  0  0  0  0  0  0  0  0  0  0  0
    0.1922    1.4714   -0.6003 O   0  0  0  0  0  0  0  0  0  0  0  0
    3.0911    1.2629   -0.0335 H   0  0  0  0  0  0  0  0  0  0  0  0
    3.8718   -0.4101   -0.0020 H   0  0  0  0  0  0  0  0  0  0  0  0
    2.5813    0.0240    1.2114 H   0  0  0  0  0  0  0  0  0  0  0  0
    1.9486   -0.1308   -1.7916 H   0  0  0  0  0  0  0  0  0  0  0  0
    1.8052   -1.4597   -0.5988 H   0  0  0  0  0  0  0  0  0  0  0  0
    0.7670   -1.1088    1.4995 H   0  0  0  0  0  0  0  0  0  0  0  0
    0.2848    0.6266    1.9155 H   0  0  0  0  0  0  0  0  0  0  0  0
   -1.9548    1.2476    0.6993 H   0  0  0  0  0  0  0  0  0  0  0  0
   -3.6180   -0.7334    0.5782 H   0  0  0  0  0  0  0  0  0  0  0  0
   -2.9977   -1.0386   -1.0620 H   0  0  0  0  0  0  0  0  0  0  0  0
   -3.6989    0.5885   -0.6077 H   0  0  0  0  0  0  0  0  0  0  0  0
   -0.9551    0.1933   -1.9016 H   0  0  0  0  0  0  0  0  0  0  0  0
  1  2  1  0
  2  3  1  0
  3  4  1  0
  4  5  1  0
  5  6  1  0
  6  7  1  0
  6  8  1  0
  8  9  1  0
  8  3  1  0
  9  3  1  0
  1 10  1  0
  1 11  1  0
  1 12  1  0
  2 13  1  0
  2 14  1  0
  4 15  1  0
  4 16  1  0
  6 17  1  0
  7 18  1  0
  7 19  1  0
  7 20  1  0
  8 21  1  0
M  END
