
     RDKit          3D

 20 20  0  0  0  0  0  0  0  0999 V2000
    2.2050   -0.3689   -0.0860 C   0  0  0  0  0  0  0  0  0  0  0  0
    0.8302   -0.5276   -0.7083 C   0  0  0  0  0  0  0  0  0  0  0  0
   -0.1719    0.3377    0.0091 C   0  0  0  0  0  0  0  0  0  0  0  0
    0.1925    1.8135   -0.0498 C   0  0  0  0  0  0  0  0  0  0  0  0
   -0.6966   -0.2459    1.2832 C   0  0  0  0  0  0  0  0  0  0  0  0
   -1.5964    0.0097    0.1148 C   0  0  0  0  0  0  0  0  0  0  0  0
   -2.2246   -1.1633   -0.5017 C   0  0  0  0  0  0  0  0  0  0  0  0
   -1.6466   -2.1925   -0.7651 O   0  0  0  0  0  0  0  0  0  0  0  0
    2.8186   -1.2372   -0.4468 H   0  0  0  0  0  0  0  0  0  0  0  0
    2.1492   -0.4553    1.0159 H   0  0  0  0  0  0  0  0  0  0  0  0
    2.6916    0.5844   -0.3773 H   0  0  0  0  0  0  0  0  0  0  0  0
    0.9066   -0.2933   -1.7900 H   0  0  0  0  0  0  0  0  0  0  0  0
    0.6028   -1.6129   -0.6459 H   0  0  0  0  0  0  0  0  0  0  0  0
   -0.6708    2.4012    0.3568 H   0  0  0  0  0  0  0  0  0  0  0  0
    0.2911    2.1117   -1.1133 H   0  0  0  0  0  0  0  0  0  0  0  0
    1.1339    2.0436    0.4509 H   0  0  0  0  0  0  0  0  0  0  0  0
   -0.4598   -1.3082    1.5255 H   0  0  0  0  0  0  0  0  0  0  0  0
   -0.7719    0.3778    2.1989 H   0  0  0  0  0  0  0  0  0  0  0  0
   -2.2924    0.8801    0.2895 H   0  0  0  0  0  0  0  0  0  0  0  0
   -3.2906   -1.1546   -0.7604 H   0  0  0  0  0  0  0  0  0  0  0  0
  1  2  1  0
  2  3  1  0
  3  4  1  0
  3  5  1  0
  5  6  1  0
  6  7  1  0
  7  8  2  0
  6  3  1  0
  1  9  1  0
  1 10  1  0
  1 11  1  0
  2 12  1  0
  2 13  1  0
  4 14  1  0
  4 15  1  0
  4 16  1  0
  5 17  1  0
  5 18  1  0
  6 19  1  0
  7 20  1  0
M  END
