
     RDKit          3D

 27 27  0  0  0  0  0  0  0  0999 V2000
    3.3235    0.5346    0.0660 C   0  0  0  0  0  0  0  0  0  0  0  0
    1.9076    1.1075    0.1329 C   0  0  0  0  0  0  0  0  0  0  0  0
    1.0600    0.1256    0.9019 C   0  0  0  0  0  0  0  0  0  0  0  0
   -0.3723    0.4887    1.0887 C   0  0  0  0  0  0  0  0  0  0  0  0
   -0.7971   -0.5889    0.1231 C   0  0  0  0  0  0  0  0  0  0  0  0
   -1.7325   -1.6282    0.6769 C   0  0  0  0  0  0  0  0  0  0  0  0
   -1.3183   -0.0009   -1.1509 C   0  0  0  0  0  0  0  0  0  0  0  0
   -2.5230    0.8741   -0.7973 C   0  0  0  0  0  0  0  0  0  0  0  0
    0.6123   -1.0876    0.1115 C   0  0  0  0  0  0  0  0  0  0  0  0
    3.2746   -0.3668   -0.5921 H   0  0  0  0  0  0  0  0  0  0  0  0
    3.9679    1.2632   -0.4785 H   0  0  0  0  0  0  0  0  0  0  0  0
    3.7081    0.2759    1.0657 H   0  0  0  0  0  0  0  0  0  0  0  0
    1.5871    1.2034   -0.9350 H   0  0  0  0  0  0  0  0  0  0  0  0
    1.8989    2.0817    0.6549 H   0  0  0  0  0  0  0  0  0  0  0  0
    1.5459   -0.0969    1.8736 H   0  0  0  0  0  0  0  0  0  0  0  0
   -0.7695    0.2263    2.1109 H   0  0  0  0  0  0  0  0  0  0  0  0
   -0.6875    1.4973    0.7817 H   0  0  0  0  0  0  0  0  0  0  0  0
   -1.3096   -2.6441    0.4862 H   0  0  0  0  0  0  0  0  0  0  0  0
   -2.7267   -1.6213    0.1911 H   0  0  0  0  0  0  0  0  0  0  0  0
   -1.8536   -1.5611    1.7791 H   0  0  0  0  0  0  0  0  0  0  0  0
   -1.6271   -0.8094   -1.8666 H   0  0  0  0  0  0  0  0  0  0  0  0
   -0.6204    0.6377   -1.6877 H   0  0  0  0  0  0  0  0  0  0  0  0
   -2.2361    1.9437   -0.7246 H   0  0  0  0  0  0  0  0  0  0  0  0
   -3.2322    0.7786   -1.6270 H   0  0  0  0  0  0  0  0  0  0  0  0
   -2.9405    0.5932    0.1880 H   0  0  0  0  0  0  0  0  0  0  0  0
    1.0974   -1.2233   -0.8568 H   0  0  0  0  0  0  0  0  0  0  0  0
    0.7630   -2.0031    0.7540 H   0  0  0  0  0  0  0  0  0  0  0  0
  1  2  1  0
  2  3  1  0
  3  4  1  0
  4  5  1  0
  5  6  1  0
  5  7  1  0
  7  8  1  0
  5  9  1  0
  9  3  1  0
  1 10  1  0
  1 11  1  0
  1 12  1  0
  2 13  1  0
  2 14  1  0
  3 15  1  0
  4 16  1  0
  4 17  1  0
  6 18  1  0
  6 19  1  0
  6 20  1  0
  7 21  1  0
  7 22  1  0
  8 23  1  0
  8 24  1  0
  8 25  1  0
  9 26  1  0
  9 27  1  0
M  END
