
     RDKit          3D

 19 21  0  0  0  0  0  0  0  0999 V2000
   -2.1910    0.6959   -0.1847 C   0  0  0  0  0  0  0  0  0  0  0  0
   -1.4946   -0.6133   -0.3780 C   0  0  0  0  0  0  0  0  0  0  0  0
   -0.0521   -0.6191   -0.2819 C   0  0  0  0  0  0  0  0  0  0  0  0
    0.7701    0.2243   -1.2247 C   0  0  0  0  0  0  0  0  0  0  0  0
    1.8944    0.0020   -0.1948 C   0  0  0  0  0  0  0  0  0  0  0  0
    2.7708    0.9639    0.1208 O   0  0  0  0  0  0  0  0  0  0  0  0
    1.5506   -1.1882    0.6285 C   0  0  0  0  0  0  0  0  0  0  0  0
    0.4782   -1.8852    0.0086 O   0  0  0  0  0  0  0  0  0  0  0  0
    0.7038   -0.0775    0.8219 C   0  0  0  0  0  0  0  0  0  0  0  0
   -2.4624    0.8776    0.8901 H   0  0  0  0  0  0  0  0  0  0  0  0
   -3.1817    0.6374   -0.7171 H   0  0  0  0  0  0  0  0  0  0  0  0
   -1.6635    1.5669   -0.5611 H   0  0  0  0  0  0  0  0  0  0  0  0
   -1.8023   -1.0140   -1.3895 H   0  0  0  0  0  0  0  0  0  0  0  0
   -1.9234   -1.3331    0.3489 H   0  0  0  0  0  0  0  0  0  0  0  0
    0.4989    1.2686   -1.2200 H   0  0  0  0  0  0  0  0  0  0  0  0
    1.0213   -0.2678   -2.1675 H   0  0  0  0  0  0  0  0  0  0  0  0
    2.2997    1.7886    0.4056 H   0  0  0  0  0  0  0  0  0  0  0  0
    2.2313   -1.7036    1.2771 H   0  0  0  0  0  0  0  0  0  0  0  0
    0.5519    0.6766    1.5152 H   0  0  0  0  0  0  0  0  0  0  0  0
  1  2  1  0
  2  3  1  0
  3  4  1  0
  4  5  1  0
  5  6  1  0
  5  7  1  0
  7  8  1  0
  7  9  1  0
  8  3  1  0
  9  3  1  0
  9  5  1  0
  1 10  1  0
  1 11  1  0
  1 12  1  0
  2 13  1  0
  2 14  1  0
  4 15  1  0
  4 16  1  0
  6 17  1  0
  7 18  1  0
  9 19  1  0
M  END
