
     RDKit          3D

 21 22  0  0  0  0  0  0  0  0999 V2000
   -2.1361   -0.8679   -0.2330 C   0  0  0  0  0  0  0  0  0  0  0  0
   -0.8479   -0.3848   -0.8516 C   0  0  0  0  0  0  0  0  0  0  0  0
    0.1294    0.1219    0.2229 C   0  0  0  0  0  0  0  0  0  0  0  0
   -0.4549    1.1861    0.9290 O   0  0  0  0  0  0  0  0  0  0  0  0
   -0.7749    2.2609    0.1188 C   0  0  0  0  0  0  0  0  0  0  0  0
    1.5351    0.0954   -0.1399 C   0  0  0  0  0  0  0  0  0  0  0  0
    2.4997   -1.0679    0.1451 C   0  0  0  0  0  0  0  0  0  0  0  0
    2.1781   -0.7088    1.4854 O   0  0  0  0  0  0  0  0  0  0  0  0
    0.8834   -0.8120    0.9807 C   0  0  0  0  0  0  0  0  0  0  0  0
   -1.9743   -1.5594    0.6117 H   0  0  0  0  0  0  0  0  0  0  0  0
   -2.6850   -1.4148   -1.0260 H   0  0  0  0  0  0  0  0  0  0  0  0
   -2.7161    0.0276    0.0770 H   0  0  0  0  0  0  0  0  0  0  0  0
   -0.3665   -1.3024   -1.3046 H   0  0  0  0  0  0  0  0  0  0  0  0
   -1.0815    0.3606   -1.6079 H   0  0  0  0  0  0  0  0  0  0  0  0
   -1.2229    3.0281    0.8150 H   0  0  0  0  0  0  0  0  0  0  0  0
   -1.5763    2.0544   -0.6161 H   0  0  0  0  0  0  0  0  0  0  0  0
    0.1029    2.7426   -0.3466 H   0  0  0  0  0  0  0  0  0  0  0  0
    2.0616    1.0166    0.2682 H   0  0  0  0  0  0  0  0  0  0  0  0
    2.1610   -2.0466   -0.1773 H   0  0  0  0  0  0  0  0  0  0  0  0
    3.5456   -0.8351   -0.0242 H   0  0  0  0  0  0  0  0  0  0  0  0
    0.7397   -1.8947    0.6733 H   0  0  0  0  0  0  0  0  0  0  0  0
  1  2  1  0
  2  3  1  0
  3  4  1  0
  4  5  1  0
  3  6  1  0
  6  7  1  0
  7  8  1  0
  8  9  1  0
  9  3  1  0
  9  6  1  0
  1 10  1  0
  1 11  1  0
  1 12  1  0
  2 13  1  0
  2 14  1  0
  5 15  1  0
  5 16  1  0
  5 17  1  0
  6 18  1  0
  7 19  1  0
  7 20  1  0
  9 21  1  0
M  END
