
     RDKit          3D

 21 21  0  0  0  0  0  0  0  0999 V2000
   -2.6922   -0.4909   -0.7468 C   0  0  0  0  0  0  0  0  0  0  0  0
   -1.8658   -0.3868    0.5336 C   0  0  0  0  0  0  0  0  0  0  0  0
   -0.6662    0.4575    0.1982 C   0  0  0  0  0  0  0  0  0  0  0  0
    0.1579   -0.1560   -0.8923 C   0  0  0  0  0  0  0  0  0  0  0  0
    1.4514    0.0571   -0.6472 C   0  0  0  0  0  0  0  0  0  0  0  0
    2.6275   -0.3710   -1.4591 C   0  0  0  0  0  0  0  0  0  0  0  0
    1.5952    0.8267    0.6205 C   0  0  0  0  0  0  0  0  0  0  0  0
    0.3127    0.5546    1.2911 C   0  0  0  0  0  0  0  0  0  0  0  0
    0.1016    0.4370    2.4601 O   0  0  0  0  0  0  0  0  0  0  0  0
   -2.4257    0.3415   -1.4591 H   0  0  0  0  0  0  0  0  0  0  0  0
   -2.5179   -1.4753   -1.2482 H   0  0  0  0  0  0  0  0  0  0  0  0
   -3.7637   -0.3322   -0.5056 H   0  0  0  0  0  0  0  0  0  0  0  0
   -1.5343   -1.3991    0.8404 H   0  0  0  0  0  0  0  0  0  0  0  0
   -2.4166    0.1297    1.3407 H   0  0  0  0  0  0  0  0  0  0  0  0
   -1.0176    1.4801   -0.1064 H   0  0  0  0  0  0  0  0  0  0  0  0
   -0.2130   -0.6956   -1.7588 H   0  0  0  0  0  0  0  0  0  0  0  0
    3.2841   -0.9606   -0.7753 H   0  0  0  0  0  0  0  0  0  0  0  0
    2.2730   -0.9788   -2.3180 H   0  0  0  0  0  0  0  0  0  0  0  0
    3.1748    0.5426   -1.7699 H   0  0  0  0  0  0  0  0  0  0  0  0
    1.6610    1.9039    0.3142 H   0  0  0  0  0  0  0  0  0  0  0  0
    2.4739    0.5159    1.2117 H   0  0  0  0  0  0  0  0  0  0  0  0
  1  2  1  0
  2  3  1  0
  3  4  1  0
  4  5  2  0
  5  6  1  0
  5  7  1  0
  7  8  1  0
  8  9  2  0
  8  3  1  0
  1 10  1  0
  1 11  1  0
  1 12  1  0
  2 13  1  0
  2 14  1  0
  3 15  1  0
  4 16  1  0
  6 17  1  0
  6 18  1  0
  6 19  1  0
  7 20  1  0
  7 21  1  0
M  END
