
     RDKit          3D

 23 24  0  0  0  0  0  0  0  0999 V2000
    1.5512    1.4688    0.2333 C   0  0  0  0  0  0  0  0  0  0  0  0
    1.6359    0.0890   -0.2600 C   0  0  0  0  0  0  0  0  0  0  0  0
    0.4388   -0.7723   -0.2984 C   0  0  0  0  0  0  0  0  0  0  0  0
   -0.2419   -1.0354    0.9825 C   0  0  0  0  0  0  0  0  0  0  0  0
   -1.3955   -0.0744    1.0989 C   0  0  0  0  0  0  0  0  0  0  0  0
   -1.4793    1.0428    0.1539 C   0  0  0  0  0  0  0  0  0  0  0  0
   -0.8082    0.8608   -1.0857 O   0  0  0  0  0  0  0  0  0  0  0  0
   -0.7458   -0.4768   -1.2580 C   0  0  0  0  0  0  0  0  0  0  0  0
    0.2325   -1.4378   -1.5883 C   0  0  0  0  0  0  0  0  0  0  0  0
    2.6219    1.8297    0.3413 H   0  0  0  0  0  0  0  0  0  0  0  0
    1.1346    1.6009    1.2508 H   0  0  0  0  0  0  0  0  0  0  0  0
    1.0945    2.2129   -0.4453 H   0  0  0  0  0  0  0  0  0  0  0  0
    2.1886    0.1008   -1.2241 H   0  0  0  0  0  0  0  0  0  0  0  0
    2.3573   -0.4496    0.4345 H   0  0  0  0  0  0  0  0  0  0  0  0
   -0.6688   -2.0809    0.9220 H   0  0  0  0  0  0  0  0  0  0  0  0
    0.4181   -1.0550    1.8705 H   0  0  0  0  0  0  0  0  0  0  0  0
   -2.3782   -0.6344    1.1763 H   0  0  0  0  0  0  0  0  0  0  0  0
   -1.3071    0.3619    2.1419 H   0  0  0  0  0  0  0  0  0  0  0  0
   -1.2382    2.0106    0.6192 H   0  0  0  0  0  0  0  0  0  0  0  0
   -2.5674    1.1579   -0.1471 H   0  0  0  0  0  0  0  0  0  0  0  0
   -1.7602   -0.9240   -1.0025 H   0  0  0  0  0  0  0  0  0  0  0  0
   -0.0029   -2.5283   -1.4971 H   0  0  0  0  0  0  0  0  0  0  0  0
    0.9201   -1.2672   -2.4185 H   0  0  0  0  0  0  0  0  0  0  0  0
  1  2  1  0
  2  3  1  0
  3  4  1  0
  4  5  1  0
  5  6  1  0
  6  7  1  0
  7  8  1  0
  8  9  1  0
  8  3  1  0
  9  3  1  0
  1 10  1  0
  1 11  1  0
  1 12  1  0
  2 13  1  0
  2 14  1  0
  4 15  1  0
  4 16  1  0
  5 17  1  0
  5 18  1  0
  6 19  1  0
  6 20  1  0
  8 21  1  0
  9 22  1  0
  9 23  1  0
M  END
