
     RDKit          3D

 23 23  0  0  0  0  0  0  0  0999 V2000
    2.6687   -0.0720    0.5836 C   0  0  0  0  0  0  0  0  0  0  0  0
    1.7283    0.4673   -0.4740 C   0  0  0  0  0  0  0  0  0  0  0  0
    0.3313    0.0494   -0.1739 C   0  0  0  0  0  0  0  0  0  0  0  0
   -0.7150    0.8357    0.0524 C   0  0  0  0  0  0  0  0  0  0  0  0
   -0.6983    2.3077    0.0509 C   0  0  0  0  0  0  0  0  0  0  0  0
   -1.9183   -0.0065    0.3106 C   0  0  0  0  0  0  0  0  0  0  0  0
   -1.5664   -1.2567   -0.4645 C   0  0  0  0  0  0  0  0  0  0  0  0
   -2.2860   -2.3582   -0.0610 O   0  0  0  0  0  0  0  0  0  0  0  0
   -0.0839   -1.3824   -0.0869 C   0  0  0  0  0  0  0  0  0  0  0  0
    3.6423    0.4490    0.4383 H   0  0  0  0  0  0  0  0  0  0  0  0
    2.2820    0.0940    1.6099 H   0  0  0  0  0  0  0  0  0  0  0  0
    2.8859   -1.1601    0.4126 H   0  0  0  0  0  0  0  0  0  0  0  0
    1.7789    1.5642   -0.4476 H   0  0  0  0  0  0  0  0  0  0  0  0
    2.0849    0.0575   -1.4465 H   0  0  0  0  0  0  0  0  0  0  0  0
   -1.7196    2.7377   -0.0984 H   0  0  0  0  0  0  0  0  0  0  0  0
   -0.3201    2.6871    1.0325 H   0  0  0  0  0  0  0  0  0  0  0  0
   -0.0630    2.7464   -0.7421 H   0  0  0  0  0  0  0  0  0  0  0  0
   -1.9712   -0.3134    1.3862 H   0  0  0  0  0  0  0  0  0  0  0  0
   -2.8549    0.4669   -0.0358 H   0  0  0  0  0  0  0  0  0  0  0  0
   -1.6678   -1.0284   -1.5448 H   0  0  0  0  0  0  0  0  0  0  0  0
   -1.9223   -3.1450   -0.5230 H   0  0  0  0  0  0  0  0  0  0  0  0
    0.4610   -2.0394   -0.7572 H   0  0  0  0  0  0  0  0  0  0  0  0
   -0.0766   -1.7009    0.9787 H   0  0  0  0  0  0  0  0  0  0  0  0
  1  2  1  0
  2  3  1  0
  3  4  2  0
  4  5  1  0
  4  6  1  0
  6  7  1  0
  7  8  1  0
  7  9  1  0
  9  3  1  0
  1 10  1  0
  1 11  1  0
  1 12  1  0
  2 13  1  0
  2 14  1  0
  5 15  1  0
  5 16  1  0
  5 17  1  0
  6 18  1  0
  6 19  1  0
  7 20  1  0
  8 21  1  0
  9 22  1  0
  9 23  1  0
M  END
