
     RDKit          3D

 21 21  0  0  0  0  0  0  0  0999 V2000
    2.6573   -0.2479    0.2131 C   0  0  0  0  0  0  0  0  0  0  0  0
    1.2661   -0.5448    0.7330 C   0  0  0  0  0  0  0  0  0  0  0  0
    0.2039    0.0914   -0.1306 C   0  0  0  0  0  0  0  0  0  0  0  0
    0.2670    1.5450   -0.2396 C   0  0  0  0  0  0  0  0  0  0  0  0
    0.2601    2.0880   -1.3223 O   0  0  0  0  0  0  0  0  0  0  0  0
    0.1381   -0.5572   -1.3748 O   0  0  0  0  0  0  0  0  0  0  0  0
   -1.2243   -0.8261   -1.2952 C   0  0  0  0  0  0  0  0  0  0  0  0
   -1.1511   -0.5051    0.1764 C   0  0  0  0  0  0  0  0  0  0  0  0
   -2.2087    0.4902    0.5667 C   0  0  0  0  0  0  0  0  0  0  0  0
    2.6577    0.2950   -0.7421 H   0  0  0  0  0  0  0  0  0  0  0  0
    3.2165    0.3468    0.9937 H   0  0  0  0  0  0  0  0  0  0  0  0
    3.2420   -1.1909    0.0435 H   0  0  0  0  0  0  0  0  0  0  0  0
    1.0959   -1.6542    0.6671 H   0  0  0  0  0  0  0  0  0  0  0  0
    1.1795   -0.2665    1.8017 H   0  0  0  0  0  0  0  0  0  0  0  0
    0.3207    2.1586    0.6428 H   0  0  0  0  0  0  0  0  0  0  0  0
   -1.8181   -0.0987   -1.8959 H   0  0  0  0  0  0  0  0  0  0  0  0
   -1.5145   -1.8535   -1.5535 H   0  0  0  0  0  0  0  0  0  0  0  0
   -1.1111   -1.4178    0.8122 H   0  0  0  0  0  0  0  0  0  0  0  0
   -2.2304    1.2818   -0.2111 H   0  0  0  0  0  0  0  0  0  0  0  0
   -2.0562    0.8939    1.5901 H   0  0  0  0  0  0  0  0  0  0  0  0
   -3.1902   -0.0280    0.5249 H   0  0  0  0  0  0  0  0  0  0  0  0
  1  2  1  0
  2  3  1  0
  3  4  1  0
  4  5  2  0
  3  6  1  0
  6  7  1  0
  7  8  1  0
  8  9  1  0
  8  3  1  0
  1 10  1  0
  1 11  1  0
  1 12  1  0
  2 13  1  0
  2 14  1  0
  4 15  1  0
  7 16  1  0
  7 17  1  0
  8 18  1  0
  9 19  1  0
  9 20  1  0
  9 21  1  0
M  END
