
     RDKit          3D

 22 22  0  0  0  0  0  0  0  0999 V2000
    2.5622   -0.8758   -0.6167 C   0  0  0  0  0  0  0  0  0  0  0  0
    1.1015   -1.0199   -0.3634 C   0  0  0  0  0  0  0  0  0  0  0  0
    0.5211    0.1361    0.4244 C   0  0  0  0  0  0  0  0  0  0  0  0
    0.7123    1.4480   -0.3148 C   0  0  0  0  0  0  0  0  0  0  0  0
   -0.6715    1.8197    0.1854 C   0  0  0  0  0  0  0  0  0  0  0  0
   -0.9694    0.3340    0.2035 C   0  0  0  0  0  0  0  0  0  0  0  0
   -1.7761   -0.0897    1.2449 O   0  0  0  0  0  0  0  0  0  0  0  0
   -2.7428   -0.9320    0.6926 C   0  0  0  0  0  0  0  0  0  0  0  0
    2.9600   -0.0072   -0.0382 H   0  0  0  0  0  0  0  0  0  0  0  0
    2.8375   -0.6974   -1.6669 H   0  0  0  0  0  0  0  0  0  0  0  0
    3.1395   -1.7605   -0.2531 H   0  0  0  0  0  0  0  0  0  0  0  0
    0.5120   -1.1396   -1.3016 H   0  0  0  0  0  0  0  0  0  0  0  0
    0.8698   -1.9365    0.2475 H   0  0  0  0  0  0  0  0  0  0  0  0
    0.8491    0.2087    1.4661 H   0  0  0  0  0  0  0  0  0  0  0  0
    1.5308    2.0887    0.0701 H   0  0  0  0  0  0  0  0  0  0  0  0
    0.7078    1.2949   -1.4133 H   0  0  0  0  0  0  0  0  0  0  0  0
   -0.6761    2.2025    1.2309 H   0  0  0  0  0  0  0  0  0  0  0  0
   -1.2736    2.4155   -0.5244 H   0  0  0  0  0  0  0  0  0  0  0  0
   -1.2405   -0.0614   -0.8077 H   0  0  0  0  0  0  0  0  0  0  0  0
   -3.4413   -1.3245    1.4558 H   0  0  0  0  0  0  0  0  0  0  0  0
   -2.1877   -1.7389    0.1627 H   0  0  0  0  0  0  0  0  0  0  0  0
   -3.3245   -0.3645   -0.0839 H   0  0  0  0  0  0  0  0  0  0  0  0
  1  2  1  0
  2  3  1  0
  3  4  1  0
  4  5  1  0
  5  6  1  0
  6  7  1  0
  7  8  1  0
  6  3  1  0
  1  9  1  0
  1 10  1  0
  1 11  1  0
  2 12  1  0
  2 13  1  0
  3 14  1  0
  4 15  1  0
  4 16  1  0
  5 17  1  0
  5 18  1  0
  6 19  1  0
  8 20  1  0
  8 21  1  0
  8 22  1  0
M  END
