
     RDKit          3D

 27 27  0  0  0  0  0  0  0  0999 V2000
    2.5857    0.9956   -0.2910 C   0  0  0  0  0  0  0  0  0  0  0  0
    1.4915    0.2985   -1.0838 C   0  0  0  0  0  0  0  0  0  0  0  0
    0.6400   -0.4649   -0.1260 C   0  0  0  0  0  0  0  0  0  0  0  0
    1.4639   -1.4944    0.6157 C   0  0  0  0  0  0  0  0  0  0  0  0
   -0.6629   -0.9872   -0.6268 C   0  0  0  0  0  0  0  0  0  0  0  0
   -1.3988    0.1006    0.0823 C   0  0  0  0  0  0  0  0  0  0  0  0
   -2.4194   -0.3716    1.1170 C   0  0  0  0  0  0  0  0  0  0  0  0
   -2.0252    1.1304   -0.8041 C   0  0  0  0  0  0  0  0  0  0  0  0
   -0.1289    0.4869    0.7716 C   0  0  0  0  0  0  0  0  0  0  0  0
    3.5960    0.6668   -0.5950 H   0  0  0  0  0  0  0  0  0  0  0  0
    2.4822    0.7951    0.8108 H   0  0  0  0  0  0  0  0  0  0  0  0
    2.5148    2.0996   -0.3875 H   0  0  0  0  0  0  0  0  0  0  0  0
    0.9714    1.0602   -1.6644 H   0  0  0  0  0  0  0  0  0  0  0  0
    1.9591   -0.4406   -1.7849 H   0  0  0  0  0  0  0  0  0  0  0  0
    2.5435   -1.2316    0.5869 H   0  0  0  0  0  0  0  0  0  0  0  0
    1.1142   -1.6262    1.6576 H   0  0  0  0  0  0  0  0  0  0  0  0
    1.3958   -2.4754    0.0622 H   0  0  0  0  0  0  0  0  0  0  0  0
   -0.7958   -1.0618   -1.7167 H   0  0  0  0  0  0  0  0  0  0  0  0
   -0.9146   -1.9787   -0.1490 H   0  0  0  0  0  0  0  0  0  0  0  0
   -2.5995    0.5249    1.7798 H   0  0  0  0  0  0  0  0  0  0  0  0
   -1.9249   -1.1441    1.7146 H   0  0  0  0  0  0  0  0  0  0  0  0
   -3.3283   -0.6896    0.5954 H   0  0  0  0  0  0  0  0  0  0  0  0
   -2.3925    1.9807   -0.1881 H   0  0  0  0  0  0  0  0  0  0  0  0
   -2.9138    0.6557   -1.2848 H   0  0  0  0  0  0  0  0  0  0  0  0
   -1.3887    1.4966   -1.6118 H   0  0  0  0  0  0  0  0  0  0  0  0
   -0.0421    0.1360    1.8210 H   0  0  0  0  0  0  0  0  0  0  0  0
    0.1776    1.5385    0.6991 H   0  0  0  0  0  0  0  0  0  0  0  0
  1  2  1  0
  2  3  1  0
  3  4  1  0
  3  5  1  0
  5  6  1  0
  6  7  1  0
  6  8  1  0
  6  9  1  0
  9  3  1  0
  1 10  1  0
  1 11  1  0
  1 12  1  0
  2 13  1  0
  2 14  1  0
  4 15  1  0
  4 16  1  0
  4 17  1  0
  5 18  1  0
  5 19  1  0
  7 20  1  0
  7 21  1  0
  7 22  1  0
  8 23  1  0
  8 24  1  0
  8 25  1  0
  9 26  1  0
  9 27  1  0
M  END
