
     RDKit          3D

 23 24  0  0  0  0  0  0  0  0999 V2000
    3.1970    0.1263   -0.1635 C   0  0  0  0  0  0  0  0  0  0  0  0
    1.9230    0.9282   -0.1582 C   0  0  0  0  0  0  0  0  0  0  0  0
    0.7526    0.2056    0.3977 C   0  0  0  0  0  0  0  0  0  0  0  0
    0.2345   -1.0525   -0.1756 C   0  0  0  0  0  0  0  0  0  0  0  0
   -0.7696   -1.8017    0.6301 C   0  0  0  0  0  0  0  0  0  0  0  0
   -1.9933   -0.9620    0.7331 C   0  0  0  0  0  0  0  0  0  0  0  0
   -1.8061    0.1674    0.0698 C   0  0  0  0  0  0  0  0  0  0  0  0
   -2.8141    1.2507   -0.0470 C   0  0  0  0  0  0  0  0  0  0  0  0
   -0.4657    0.1999   -0.5332 C   0  0  0  0  0  0  0  0  0  0  0  0
    3.5973    0.0169    0.8700 H   0  0  0  0  0  0  0  0  0  0  0  0
    3.1162   -0.8305   -0.6767 H   0  0  0  0  0  0  0  0  0  0  0  0
    3.9618    0.7550   -0.7034 H   0  0  0  0  0  0  0  0  0  0  0  0
    2.1117    1.8348    0.4560 H   0  0  0  0  0  0  0  0  0  0  0  0
    1.7728    1.2953   -1.2017 H   0  0  0  0  0  0  0  0  0  0  0  0
    0.5073    0.4126    1.4697 H   0  0  0  0  0  0  0  0  0  0  0  0
    0.7439   -1.6196   -0.9600 H   0  0  0  0  0  0  0  0  0  0  0  0
   -0.4182   -2.0065    1.6725 H   0  0  0  0  0  0  0  0  0  0  0  0
   -1.0658   -2.7612    0.1242 H   0  0  0  0  0  0  0  0  0  0  0  0
   -2.9053   -1.2553    1.2831 H   0  0  0  0  0  0  0  0  0  0  0  0
   -3.3192    1.4622    0.9201 H   0  0  0  0  0  0  0  0  0  0  0  0
   -2.3931    2.1815   -0.4611 H   0  0  0  0  0  0  0  0  0  0  0  0
   -3.6395    0.9112   -0.7341 H   0  0  0  0  0  0  0  0  0  0  0  0
   -0.3280    0.5417   -1.5767 H   0  0  0  0  0  0  0  0  0  0  0  0
  1  2  1  0
  2  3  1  0
  3  4  1  0
  4  5  1  0
  5  6  1  0
  6  7  2  0
  7  8  1  0
  7  9  1  0
  9  3  1  0
  9  4  1  0
  1 10  1  0
  1 11  1  0
  1 12  1  0
  2 13  1  0
  2 14  1  0
  3 15  1  0
  4 16  1  0
  5 17  1  0
  5 18  1  0
  6 19  1  0
  8 20  1  0
  8 21  1  0
  8 22  1  0
  9 23  1  0
M  END
