
     RDKit          3D

 25 26  0  0  0  0  0  0  0  0999 V2000
   -2.7446    0.0687    0.6765 C   0  0  0  0  0  0  0  0  0  0  0  0
   -1.7214    0.8661   -0.0695 C   0  0  0  0  0  0  0  0  0  0  0  0
   -0.4815    0.0813   -0.4160 C   0  0  0  0  0  0  0  0  0  0  0  0
    0.5526    0.8532   -1.1589 C   0  0  0  0  0  0  0  0  0  0  0  0
    1.8108    1.1178   -0.3836 C   0  0  0  0  0  0  0  0  0  0  0  0
    2.3518   -0.2671    0.0020 C   0  0  0  0  0  0  0  0  0  0  0  0
    1.4017   -0.8334    0.9883 C   0  0  0  0  0  0  0  0  0  0  0  0
   -0.0222   -0.8570    0.5952 C   0  0  0  0  0  0  0  0  0  0  0  0
   -0.5344   -1.3728   -0.6842 C   0  0  0  0  0  0  0  0  0  0  0  0
   -3.6639    0.7198    0.7400 H   0  0  0  0  0  0  0  0  0  0  0  0
   -2.9853   -0.9053    0.2265 H   0  0  0  0  0  0  0  0  0  0  0  0
   -2.4605   -0.0862    1.7593 H   0  0  0  0  0  0  0  0  0  0  0  0
   -1.3737    1.6760    0.6338 H   0  0  0  0  0  0  0  0  0  0  0  0
   -2.1636    1.3846   -0.9254 H   0  0  0  0  0  0  0  0  0  0  0  0
    0.8645    0.2705   -2.0745 H   0  0  0  0  0  0  0  0  0  0  0  0
    0.1297    1.8045   -1.5792 H   0  0  0  0  0  0  0  0  0  0  0  0
    2.5416    1.6033   -1.0275 H   0  0  0  0  0  0  0  0  0  0  0  0
    1.5694    1.6953    0.5281 H   0  0  0  0  0  0  0  0  0  0  0  0
    2.4265   -0.8761   -0.9209 H   0  0  0  0  0  0  0  0  0  0  0  0
    3.3196   -0.0801    0.4895 H   0  0  0  0  0  0  0  0  0  0  0  0
    1.6857   -1.8628    1.3318 H   0  0  0  0  0  0  0  0  0  0  0  0
    1.4801   -0.2073    1.9277 H   0  0  0  0  0  0  0  0  0  0  0  0
   -0.6968   -1.0712    1.4777 H   0  0  0  0  0  0  0  0  0  0  0  0
    0.2118   -1.8030   -1.4061 H   0  0  0  0  0  0  0  0  0  0  0  0
   -1.4978   -1.9187   -0.7305 H   0  0  0  0  0  0  0  0  0  0  0  0
  1  2  1  0
  2  3  1  0
  3  4  1  0
  4  5  1  0
  5  6  1  0
  6  7  1  0
  7  8  1  0
  8  9  1  0
  8  3  1  0
  9  3  1  0
  1 10  1  0
  1 11  1  0
  1 12  1  0
  2 13  1  0
  2 14  1  0
  4 15  1  0
  4 16  1  0
  5 17  1  0
  5 18  1  0
  6 19  1  0
  6 20  1  0
  7 21  1  0
  7 22  1  0
  8 23  1  0
  9 24  1  0
  9 25  1  0
M  END
