
     RDKit          3D

 23 24  0  0  0  0  0  0  0  0999 V2000
   -2.9191    0.4539    0.5681 C   0  0  0  0  0  0  0  0  0  0  0  0
   -1.8224    0.6140   -0.4193 C   0  0  0  0  0  0  0  0  0  0  0  0
   -0.4477    0.3737    0.1277 C   0  0  0  0  0  0  0  0  0  0  0  0
   -0.1657   -0.9712    0.6975 C   0  0  0  0  0  0  0  0  0  0  0  0
    1.0662   -1.1543   -0.1148 C   0  0  0  0  0  0  0  0  0  0  0  0
    1.2033   -2.3753   -0.7368 O   0  0  0  0  0  0  0  0  0  0  0  0
    1.9487   -0.0492   -0.5282 C   0  0  0  0  0  0  0  0  0  0  0  0
    2.4423    0.9881    0.4493 C   0  0  0  0  0  0  0  0  0  0  0  0
    0.5475    0.0320   -0.9779 C   0  0  0  0  0  0  0  0  0  0  0  0
   -3.6091   -0.3856    0.2675 H   0  0  0  0  0  0  0  0  0  0  0  0
   -3.5550    1.3659    0.5527 H   0  0  0  0  0  0  0  0  0  0  0  0
   -2.5794    0.3330    1.6156 H   0  0  0  0  0  0  0  0  0  0  0  0
   -1.9904   -0.0788   -1.2784 H   0  0  0  0  0  0  0  0  0  0  0  0
   -1.8226    1.6413   -0.8640 H   0  0  0  0  0  0  0  0  0  0  0  0
   -0.0703    1.1871    0.7910 H   0  0  0  0  0  0  0  0  0  0  0  0
   -0.9471   -1.7518    0.4841 H   0  0  0  0  0  0  0  0  0  0  0  0
    0.0517   -1.0131    1.7897 H   0  0  0  0  0  0  0  0  0  0  0  0
    1.9477   -2.4110   -1.3827 H   0  0  0  0  0  0  0  0  0  0  0  0
    2.6915   -0.2940   -1.3146 H   0  0  0  0  0  0  0  0  0  0  0  0
    1.8868    0.9885    1.4015 H   0  0  0  0  0  0  0  0  0  0  0  0
    3.5182    0.7930    0.6913 H   0  0  0  0  0  0  0  0  0  0  0  0
    2.4321    1.9872   -0.0546 H   0  0  0  0  0  0  0  0  0  0  0  0
    0.1930   -0.2733   -1.9551 H   0  0  0  0  0  0  0  0  0  0  0  0
  1  2  1  0
  2  3  1  0
  3  4  1  0
  4  5  1  0
  5  6  1  0
  5  7  1  0
  7  8  1  0
  7  9  1  0
  9  3  1  0
  9  5  1  0
  1 10  1  0
  1 11  1  0
  1 12  1  0
  2 13  1  0
  2 14  1  0
  3 15  1  0
  4 16  1  0
  4 17  1  0
  6 18  1  0
  7 19  1  0
  8 20  1  0
  8 21  1  0
  8 22  1  0
  9 23  1  0
M  END
