
     RDKit          3D

 21 21  0  0  0  0  0  0  0  0999 V2000
    2.0066   -0.3097   -0.7973 C   0  0  0  0  0  0  0  0  0  0  0  0
    1.1868   -0.8657    0.3383 C   0  0  0  0  0  0  0  0  0  0  0  0
    0.2322    0.1905    0.7955 C   0  0  0  0  0  0  0  0  0  0  0  0
    0.8340    1.3559    1.2497 O   0  0  0  0  0  0  0  0  0  0  0  0
   -1.0856   -0.1226    1.3700 C   0  0  0  0  0  0  0  0  0  0  0  0
   -1.0498    0.3099   -0.0422 C   0  0  0  0  0  0  0  0  0  0  0  0
   -1.3196   -0.7788   -1.0538 C   0  0  0  0  0  0  0  0  0  0  0  0
   -1.3339    1.6947   -0.4505 C   0  0  0  0  0  0  0  0  0  0  0  0
   -1.1684    2.6685    0.2492 O   0  0  0  0  0  0  0  0  0  0  0  0
    2.4264   -1.0809   -1.4602 H   0  0  0  0  0  0  0  0  0  0  0  0
    2.8272    0.2912   -0.3335 H   0  0  0  0  0  0  0  0  0  0  0  0
    1.3761    0.4280   -1.3443 H   0  0  0  0  0  0  0  0  0  0  0  0
    1.8446   -1.2149    1.1810 H   0  0  0  0  0  0  0  0  0  0  0  0
    0.6806   -1.7781   -0.0399 H   0  0  0  0  0  0  0  0  0  0  0  0
    1.4650    1.0881    1.9647 H   0  0  0  0  0  0  0  0  0  0  0  0
   -1.5438    0.5947    2.0860 H   0  0  0  0  0  0  0  0  0  0  0  0
   -1.3344   -1.1743    1.6072 H   0  0  0  0  0  0  0  0  0  0  0  0
   -2.3939   -0.6491   -1.3711 H   0  0  0  0  0  0  0  0  0  0  0  0
   -1.2867   -1.7834   -0.5796 H   0  0  0  0  0  0  0  0  0  0  0  0
   -0.6443   -0.7374   -1.9242 H   0  0  0  0  0  0  0  0  0  0  0  0
   -1.7191    1.8734   -1.4450 H   0  0  0  0  0  0  0  0  0  0  0  0
  1  2  1  0
  2  3  1  0
  3  4  1  0
  3  5  1  0
  5  6  1  0
  6  7  1  0
  6  8  1  0
  8  9  2  0
  6  3  1  0
  1 10  1  0
  1 11  1  0
  1 12  1  0
  2 13  1  0
  2 14  1  0
  4 15  1  0
  5 16  1  0
  5 17  1  0
  7 18  1  0
  7 19  1  0
  7 20  1  0
  8 21  1  0
M  END
