
     RDKit          3D

 21 21  0  0  0  0  0  0  0  0999 V2000
    2.4362    0.2727    0.5326 C   0  0  0  0  0  0  0  0  0  0  0  0
    1.7439   -0.3572   -0.6539 C   0  0  0  0  0  0  0  0  0  0  0  0
    0.3045   -0.6061   -0.2758 C   0  0  0  0  0  0  0  0  0  0  0  0
   -0.3784   -1.1888   -1.3423 O   0  0  0  0  0  0  0  0  0  0  0  0
   -1.5015   -0.4589   -0.9632 C   0  0  0  0  0  0  0  0  0  0  0  0
   -2.2827   -1.1718    0.0706 C   0  0  0  0  0  0  0  0  0  0  0  0
   -1.9004   -2.2536    0.4668 O   0  0  0  0  0  0  0  0  0  0  0  0
   -0.5843    0.6032   -0.4148 C   0  0  0  0  0  0  0  0  0  0  0  0
   -1.0126    1.2529    0.8593 C   0  0  0  0  0  0  0  0  0  0  0  0
    1.8346    1.1251    0.8954 H   0  0  0  0  0  0  0  0  0  0  0  0
    3.4487    0.5772    0.2033 H   0  0  0  0  0  0  0  0  0  0  0  0
    2.5250   -0.4772    1.3404 H   0  0  0  0  0  0  0  0  0  0  0  0
    2.2295   -1.3128   -0.8562 H   0  0  0  0  0  0  0  0  0  0  0  0
    1.8169    0.3563   -1.4902 H   0  0  0  0  0  0  0  0  0  0  0  0
    0.1766   -1.1947    0.6328 H   0  0  0  0  0  0  0  0  0  0  0  0
   -2.1208   -0.0996   -1.8107 H   0  0  0  0  0  0  0  0  0  0  0  0
   -3.1925   -0.7774    0.5021 H   0  0  0  0  0  0  0  0  0  0  0  0
   -0.2107    1.2674   -1.2114 H   0  0  0  0  0  0  0  0  0  0  0  0
   -0.4978    0.8517    1.7557 H   0  0  0  0  0  0  0  0  0  0  0  0
   -2.1210    1.2578    0.9639 H   0  0  0  0  0  0  0  0  0  0  0  0
   -0.7129    2.3338    0.7954 H   0  0  0  0  0  0  0  0  0  0  0  0
  1  2  1  0
  2  3  1  0
  3  4  1  0
  4  5  1  0
  5  6  1  0
  6  7  2  0
  5  8  1  0
  8  9  1  0
  8  3  1  0
  1 10  1  0
  1 11  1  0
  1 12  1  0
  2 13  1  0
  2 14  1  0
  3 15  1  0
  5 16  1  0
  6 17  1  0
  8 18  1  0
  9 19  1  0
  9 20  1  0
  9 21  1  0
M  END
