
     RDKit          3D

 25 25  0  0  0  0  0  0  0  0999 V2000
   -2.4931   -0.1406   -1.2610 C   0  0  0  0  0  0  0  0  0  0  0  0
   -1.5460   -0.7560   -0.2622 C   0  0  0  0  0  0  0  0  0  0  0  0
   -0.4228    0.1744    0.0806 C   0  0  0  0  0  0  0  0  0  0  0  0
   -0.8147    1.4881    0.6860 C   0  0  0  0  0  0  0  0  0  0  0  0
    0.3536    2.2135    0.9353 O   0  0  0  0  0  0  0  0  0  0  0  0
    0.6683    0.2737   -0.9777 C   0  0  0  0  0  0  0  0  0  0  0  0
    1.2958   -0.9383   -0.3325 C   0  0  0  0  0  0  0  0  0  0  0  0
    2.7746   -0.8965   -0.1544 C   0  0  0  0  0  0  0  0  0  0  0  0
    0.5882   -0.5514    0.9498 C   0  0  0  0  0  0  0  0  0  0  0  0
   -1.8995    0.0943   -2.1674 H   0  0  0  0  0  0  0  0  0  0  0  0
   -3.0188    0.7391   -0.8566 H   0  0  0  0  0  0  0  0  0  0  0  0
   -3.2434   -0.9302   -1.5347 H   0  0  0  0  0  0  0  0  0  0  0  0
   -2.0529   -1.0289    0.6885 H   0  0  0  0  0  0  0  0  0  0  0  0
   -1.1028   -1.6549   -0.7461 H   0  0  0  0  0  0  0  0  0  0  0  0
   -1.4922    2.0551    0.0069 H   0  0  0  0  0  0  0  0  0  0  0  0
   -1.3230    1.2875    1.6431 H   0  0  0  0  0  0  0  0  0  0  0  0
    0.4109    2.9127    0.2325 H   0  0  0  0  0  0  0  0  0  0  0  0
    1.2078    1.2183   -0.8459 H   0  0  0  0  0  0  0  0  0  0  0  0
    0.2708    0.1402   -1.9876 H   0  0  0  0  0  0  0  0  0  0  0  0
    0.9464   -1.8592   -0.8038 H   0  0  0  0  0  0  0  0  0  0  0  0
    3.3162   -0.5554   -1.0609 H   0  0  0  0  0  0  0  0  0  0  0  0
    3.1086   -1.9159    0.1470 H   0  0  0  0  0  0  0  0  0  0  0  0
    3.0736   -0.1616    0.6492 H   0  0  0  0  0  0  0  0  0  0  0  0
    1.1918    0.1678    1.5372 H   0  0  0  0  0  0  0  0  0  0  0  0
    0.2025   -1.3760    1.5454 H   0  0  0  0  0  0  0  0  0  0  0  0
  1  2  1  0
  2  3  1  0
  3  4  1  0
  4  5  1  0
  3  6  1  0
  6  7  1  0
  7  8  1  0
  7  9  1  0
  9  3  1  0
  1 10  1  0
  1 11  1  0
  1 12  1  0
  2 13  1  0
  2 14  1  0
  4 15  1  0
  4 16  1  0
  5 17  1  0
  6 18  1  0
  6 19  1  0
  7 20  1  0
  8 21  1  0
  8 22  1  0
  8 23  1  0
  9 24  1  0
  9 25  1  0
M  END
