
     RDKit          3D

 25 25  0  0  0  0  0  0  0  0999 V2000
    2.6923   -0.7185    0.0455 C   0  0  0  0  0  0  0  0  0  0  0  0
    1.6740   -0.9729   -1.0092 C   0  0  0  0  0  0  0  0  0  0  0  0
    0.3856   -0.2117   -0.8131 C   0  0  0  0  0  0  0  0  0  0  0  0
   -0.3316   -0.5031    0.4577 C   0  0  0  0  0  0  0  0  0  0  0  0
   -1.8257   -0.6057    0.4913 C   0  0  0  0  0  0  0  0  0  0  0  0
   -2.3681   -1.6864   -0.3969 C   0  0  0  0  0  0  0  0  0  0  0  0
    0.2755    0.9022    0.1438 C   0  0  0  0  0  0  0  0  0  0  0  0
   -0.6915    1.8729   -0.1022 O   0  0  0  0  0  0  0  0  0  0  0  0
   -0.3939    3.0490    0.6247 C   0  0  0  0  0  0  0  0  0  0  0  0
    3.4354    0.0294   -0.3293 H   0  0  0  0  0  0  0  0  0  0  0  0
    3.2622   -1.6714    0.2499 H   0  0  0  0  0  0  0  0  0  0  0  0
    2.2761   -0.4216    1.0285 H   0  0  0  0  0  0  0  0  0  0  0  0
    1.4410   -2.0552   -1.0306 H   0  0  0  0  0  0  0  0  0  0  0  0
    2.1407   -0.7532   -2.0088 H   0  0  0  0  0  0  0  0  0  0  0  0
   -0.1995   -0.1050   -1.7518 H   0  0  0  0  0  0  0  0  0  0  0  0
    0.1932   -1.0856    1.2317 H   0  0  0  0  0  0  0  0  0  0  0  0
   -2.2391    0.3818    0.1875 H   0  0  0  0  0  0  0  0  0  0  0  0
   -2.1591   -0.7842    1.5268 H   0  0  0  0  0  0  0  0  0  0  0  0
   -1.6840   -2.0053   -1.1851 H   0  0  0  0  0  0  0  0  0  0  0  0
   -2.6826   -2.5936    0.1659 H   0  0  0  0  0  0  0  0  0  0  0  0
   -3.2978   -1.2976   -0.8810 H   0  0  0  0  0  0  0  0  0  0  0  0
    1.0641    1.2070    0.8286 H   0  0  0  0  0  0  0  0  0  0  0  0
   -0.3821    2.7910    1.7101 H   0  0  0  0  0  0  0  0  0  0  0  0
    0.5909    3.4327    0.3218 H   0  0  0  0  0  0  0  0  0  0  0  0
   -1.1759    3.8051    0.4945 H   0  0  0  0  0  0  0  0  0  0  0  0
  1  2  1  0
  2  3  1  0
  3  4  1  0
  4  5  1  0
  5  6  1  0
  4  7  1  0
  7  8  1  0
  8  9  1  0
  7  3  1  0
  1 10  1  0
  1 11  1  0
  1 12  1  0
  2 13  1  0
  2 14  1  0
  3 15  1  0
  4 16  1  0
  5 17  1  0
  5 18  1  0
  6 19  1  0
  6 20  1  0
  6 21  1  0
  7 22  1  0
  9 23  1  0
  9 24  1  0
  9 25  1  0
M  END
