
     RDKit          3D

 19 19  0  0  0  0  0  0  0  0999 V2000
   -2.0580    0.8572    0.1563 C   0  0  0  0  0  0  0  0  0  0  0  0
   -0.8132    0.5504   -0.6331 C   0  0  0  0  0  0  0  0  0  0  0  0
    0.0460   -0.4481    0.1110 C   0  0  0  0  0  0  0  0  0  0  0  0
   -0.5976   -1.7687    0.3920 C   0  0  0  0  0  0  0  0  0  0  0  0
    0.6794    0.0659    1.3084 O   0  0  0  0  0  0  0  0  0  0  0  0
    1.4797   -0.3525    0.1058 C   0  0  0  0  0  0  0  0  0  0  0  0
    2.2715    0.8082   -0.3785 C   0  0  0  0  0  0  0  0  0  0  0  0
   -2.8880    1.0044   -0.5905 H   0  0  0  0  0  0  0  0  0  0  0  0
   -1.9161    1.8449    0.6690 H   0  0  0  0  0  0  0  0  0  0  0  0
   -2.2778    0.0587    0.8576 H   0  0  0  0  0  0  0  0  0  0  0  0
   -0.1956    1.4681   -0.8034 H   0  0  0  0  0  0  0  0  0  0  0  0
   -1.0743    0.0972   -1.5968 H   0  0  0  0  0  0  0  0  0  0  0  0
    0.1856   -2.5061    0.6978 H   0  0  0  0  0  0  0  0  0  0  0  0
   -1.2370   -1.6397    1.3000 H   0  0  0  0  0  0  0  0  0  0  0  0
   -1.2219   -2.1390   -0.4298 H   0  0  0  0  0  0  0  0  0  0  0  0
    2.0509   -1.2902    0.3361 H   0  0  0  0  0  0  0  0  0  0  0  0
    3.2849    0.7584    0.1020 H   0  0  0  0  0  0  0  0  0  0  0  0
    1.8578    1.7982   -0.0755 H   0  0  0  0  0  0  0  0  0  0  0  0
    2.4237    0.8326   -1.4744 H   0  0  0  0  0  0  0  0  0  0  0  0
  1  2  1  0
  2  3  1  0
  3  4  1  0
  3  5  1  0
  5  6  1  0
  6  7  1  0
  6  3  1  0
  1  8  1  0
  1  9  1  0
  1 10  1  0
  2 11  1  0
  2 12  1  0
  4 13  1  0
  4 14  1  0
  4 15  1  0
  6 16  1  0
  7 17  1  0
  7 18  1  0
  7 19  1  0
M  END
