
     RDKit          3D

 18 19  0  0  0  0  0  0  0  0999 V2000
    1.9804    0.5260    0.0717 C   0  0  0  0  0  0  0  0  0  0  0  0
    1.0863    0.0890   -1.0214 C   0  0  0  0  0  0  0  0  0  0  0  0
   -0.3447   -0.1042   -0.7307 C   0  0  0  0  0  0  0  0  0  0  0  0
   -0.7587   -1.0991    0.2815 C   0  0  0  0  0  0  0  0  0  0  0  0
   -2.0908   -0.3703    0.2618 C   0  0  0  0  0  0  0  0  0  0  0  0
   -1.0227    0.7135    0.3130 C   0  0  0  0  0  0  0  0  0  0  0  0
   -0.3944   -0.1354    1.3110 C   0  0  0  0  0  0  0  0  0  0  0  0
    0.1305   -0.0798    2.3848 O   0  0  0  0  0  0  0  0  0  0  0  0
    2.9290    0.9197   -0.4257 H   0  0  0  0  0  0  0  0  0  0  0  0
    1.5904    1.3837    0.6496 H   0  0  0  0  0  0  0  0  0  0  0  0
    2.2916   -0.2637    0.7877 H   0  0  0  0  0  0  0  0  0  0  0  0
    1.4866   -0.8855   -1.4442 H   0  0  0  0  0  0  0  0  0  0  0  0
    1.2270    0.8221   -1.8724 H   0  0  0  0  0  0  0  0  0  0  0  0
   -0.9571   -0.1434   -1.7017 H   0  0  0  0  0  0  0  0  0  0  0  0
   -0.6409   -2.0947    0.2805 H   0  0  0  0  0  0  0  0  0  0  0  0
   -2.6379   -0.5371    1.1856 H   0  0  0  0  0  0  0  0  0  0  0  0
   -2.6755   -0.4378   -0.6516 H   0  0  0  0  0  0  0  0  0  0  0  0
   -1.1991    1.6970    0.3206 H   0  0  0  0  0  0  0  0  0  0  0  0
  1  2  1  0
  2  3  1  0
  3  4  1  0
  4  5  1  0
  5  6  1  0
  6  7  1  0
  7  8  2  0
  6  3  1  0
  7  4  1  0
  1  9  1  0
  1 10  1  0
  1 11  1  0
  2 12  1  0
  2 13  1  0
  3 14  1  0
  4 15  1  0
  5 16  1  0
  5 17  1  0
  6 18  1  0
M  END
