
     RDKit          3D

 21 21  0  0  0  0  0  0  0  0999 V2000
   -2.2408    0.8532    0.4889 C   0  0  0  0  0  0  0  0  0  0  0  0
   -1.6287   -0.4027    0.0463 C   0  0  0  0  0  0  0  0  0  0  0  0
   -0.1824   -0.4969   -0.0958 C   0  0  0  0  0  0  0  0  0  0  0  0
    0.8045    0.3688    0.1008 C   0  0  0  0  0  0  0  0  0  0  0  0
    0.6151    1.7542    0.5532 C   0  0  0  0  0  0  0  0  0  0  0  0
    2.1291   -0.2586   -0.2022 C   0  0  0  0  0  0  0  0  0  0  0  0
    1.7082   -1.3430   -1.1012 C   0  0  0  0  0  0  0  0  0  0  0  0
    2.2761   -1.7590   -2.0634 O   0  0  0  0  0  0  0  0  0  0  0  0
    0.4262   -1.8087   -0.5553 C   0  0  0  0  0  0  0  0  0  0  0  0
   -3.3503    0.7659    0.2609 H   0  0  0  0  0  0  0  0  0  0  0  0
   -2.2447    0.9704    1.6141 H   0  0  0  0  0  0  0  0  0  0  0  0
   -1.9320    1.7567   -0.0376 H   0  0  0  0  0  0  0  0  0  0  0  0
   -1.9548   -1.2217    0.7484 H   0  0  0  0  0  0  0  0  0  0  0  0
   -2.0845   -0.6919   -0.9463 H   0  0  0  0  0  0  0  0  0  0  0  0
   -0.0394    1.8752    1.4256 H   0  0  0  0  0  0  0  0  0  0  0  0
    0.3425    2.4454   -0.3003 H   0  0  0  0  0  0  0  0  0  0  0  0
    1.6063    2.1849    0.8963 H   0  0  0  0  0  0  0  0  0  0  0  0
    2.8364    0.4580   -0.6623 H   0  0  0  0  0  0  0  0  0  0  0  0
    2.5524   -0.7292    0.7158 H   0  0  0  0  0  0  0  0  0  0  0  0
    0.5727   -2.3911    0.3902 H   0  0  0  0  0  0  0  0  0  0  0  0
   -0.2120   -2.3300   -1.2759 H   0  0  0  0  0  0  0  0  0  0  0  0
  1  2  1  0
  2  3  1  0
  3  4  2  0
  4  5  1  0
  4  6  1  0
  6  7  1  0
  7  8  2  0
  7  9  1  0
  9  3  1  0
  1 10  1  0
  1 11  1  0
  1 12  1  0
  2 13  1  0
  2 14  1  0
  5 15  1  0
  5 16  1  0
  5 17  1  0
  6 18  1  0
  6 19  1  0
  9 20  1  0
  9 21  1  0
M  END
