
     RDKit          3D

 25 25  0  0  0  0  0  0  0  0999 V2000
   -2.4818    1.3720   -0.1447 C   0  0  0  0  0  0  0  0  0  0  0  0
   -2.0501   -0.0388    0.1858 C   0  0  0  0  0  0  0  0  0  0  0  0
   -0.6252   -0.1438    0.6008 C   0  0  0  0  0  0  0  0  0  0  0  0
    0.4614    0.2679   -0.2961 C   0  0  0  0  0  0  0  0  0  0  0  0
    1.7733    0.7561    0.1970 C   0  0  0  0  0  0  0  0  0  0  0  0
    2.7419    1.1240   -0.8832 C   0  0  0  0  0  0  0  0  0  0  0  0
    0.1956   -1.2210   -0.0676 C   0  0  0  0  0  0  0  0  0  0  0  0
   -0.3935   -1.9709   -1.2350 C   0  0  0  0  0  0  0  0  0  0  0  0
    1.1224   -1.9408    0.6670 O   0  0  0  0  0  0  0  0  0  0  0  0
   -3.5775    1.4356    0.0768 H   0  0  0  0  0  0  0  0  0  0  0  0
   -1.9938    2.1278    0.4848 H   0  0  0  0  0  0  0  0  0  0  0  0
   -2.3798    1.6033   -1.2253 H   0  0  0  0  0  0  0  0  0  0  0  0
   -2.6997   -0.4388    1.0099 H   0  0  0  0  0  0  0  0  0  0  0  0
   -2.2003   -0.6374   -0.7321 H   0  0  0  0  0  0  0  0  0  0  0  0
   -0.3802   -0.0551    1.7004 H   0  0  0  0  0  0  0  0  0  0  0  0
    0.1898    0.6552   -1.3171 H   0  0  0  0  0  0  0  0  0  0  0  0
    2.2486   -0.0152    0.8334 H   0  0  0  0  0  0  0  0  0  0  0  0
    1.6322    1.6406    0.8779 H   0  0  0  0  0  0  0  0  0  0  0  0
    3.3151    2.0350   -0.5712 H   0  0  0  0  0  0  0  0  0  0  0  0
    3.5255    0.3423   -1.0591 H   0  0  0  0  0  0  0  0  0  0  0  0
    2.2383    1.2934   -1.8494 H   0  0  0  0  0  0  0  0  0  0  0  0
    0.3720   -2.6797   -1.6043 H   0  0  0  0  0  0  0  0  0  0  0  0
   -0.5901   -1.2679   -2.0933 H   0  0  0  0  0  0  0  0  0  0  0  0
   -1.3494   -2.4726   -0.9952 H   0  0  0  0  0  0  0  0  0  0  0  0
    0.9053   -1.7714    1.6306 H   0  0  0  0  0  0  0  0  0  0  0  0
  1  2  1  0
  2  3  1  0
  3  4  1  0
  4  5  1  0
  5  6  1  0
  4  7  1  0
  7  8  1  0
  7  9  1  0
  7  3  1  0
  1 10  1  0
  1 11  1  0
  1 12  1  0
  2 13  1  0
  2 14  1  0
  3 15  1  0
  4 16  1  0
  5 17  1  0
  5 18  1  0
  6 19  1  0
  6 20  1  0
  6 21  1  0
  8 22  1  0
  8 23  1  0
  8 24  1  0
  9 25  1  0
M  END
