
     RDKit          3D

 19 20  0  0  0  0  0  0  0  0999 V2000
    2.2075   -0.4986   -0.2571 C   0  0  0  0  0  0  0  0  0  0  0  0
    1.1042    0.3990   -0.7922 C   0  0  0  0  0  0  0  0  0  0  0  0
    0.0039    0.4259    0.2366 C   0  0  0  0  0  0  0  0  0  0  0  0
    0.3719    0.9069    1.4757 O   0  0  0  0  0  0  0  0  0  0  0  0
   -0.8519   -0.8191    0.2369 C   0  0  0  0  0  0  0  0  0  0  0  0
   -1.9114    0.0360    0.8645 C   0  0  0  0  0  0  0  0  0  0  0  0
   -1.3381    0.8810   -0.2492 C   0  0  0  0  0  0  0  0  0  0  0  0
   -1.3593   -0.3508   -1.0593 C   0  0  0  0  0  0  0  0  0  0  0  0
   -1.6457   -0.7078   -2.1666 O   0  0  0  0  0  0  0  0  0  0  0  0
    2.7489   -1.0024   -1.0832 H   0  0  0  0  0  0  0  0  0  0  0  0
    1.7420   -1.2491    0.4121 H   0  0  0  0  0  0  0  0  0  0  0  0
    2.8704    0.1515    0.3493 H   0  0  0  0  0  0  0  0  0  0  0  0
    1.4668    1.4548   -0.8941 H   0  0  0  0  0  0  0  0  0  0  0  0
    0.7240    0.0133   -1.7401 H   0  0  0  0  0  0  0  0  0  0  0  0
    0.6207    0.1594    2.0895 H   0  0  0  0  0  0  0  0  0  0  0  0
   -0.5660   -1.7386    0.5029 H   0  0  0  0  0  0  0  0  0  0  0  0
   -1.6150    0.4079    1.8539 H   0  0  0  0  0  0  0  0  0  0  0  0
   -2.9492   -0.2709    0.7317 H   0  0  0  0  0  0  0  0  0  0  0  0
   -1.6239    1.8015   -0.5112 H   0  0  0  0  0  0  0  0  0  0  0  0
  1  2  1  0
  2  3  1  0
  3  4  1  0
  3  5  1  0
  5  6  1  0
  6  7  1  0
  7  8  1  0
  8  9  2  0
  7  3  1  0
  8  5  1  0
  1 10  1  0
  1 11  1  0
  1 12  1  0
  2 13  1  0
  2 14  1  0
  4 15  1  0
  5 16  1  0
  6 17  1  0
  6 18  1  0
  7 19  1  0
M  END
