
     RDKit          3D

 25 25  0  0  0  0  0  0  0  0999 V2000
    2.2089   -1.0115   -0.0833 C   0  0  0  0  0  0  0  0  0  0  0  0
    1.6538    0.3484   -0.4475 C   0  0  0  0  0  0  0  0  0  0  0  0
    0.4233    0.6938    0.3223 C   0  0  0  0  0  0  0  0  0  0  0  0
   -0.1149    2.0555   -0.0562 C   0  0  0  0  0  0  0  0  0  0  0  0
   -1.4504    1.8739   -0.3906 O   0  0  0  0  0  0  0  0  0  0  0  0
   -1.8986    0.7782    0.3767 C   0  0  0  0  0  0  0  0  0  0  0  0
   -0.7363   -0.1984    0.1316 C   0  0  0  0  0  0  0  0  0  0  0  0
   -0.9296   -0.7213   -1.2612 C   0  0  0  0  0  0  0  0  0  0  0  0
   -0.8625   -1.2882    1.1677 C   0  0  0  0  0  0  0  0  0  0  0  0
    1.5058   -1.8317   -0.2364 H   0  0  0  0  0  0  0  0  0  0  0  0
    2.6766   -1.0043    0.9335 H   0  0  0  0  0  0  0  0  0  0  0  0
    3.0647   -1.2004   -0.7969 H   0  0  0  0  0  0  0  0  0  0  0  0
    1.5515    0.3855   -1.5310 H   0  0  0  0  0  0  0  0  0  0  0  0
    2.4404    1.0888   -0.1695 H   0  0  0  0  0  0  0  0  0  0  0  0
    0.6989    0.6905    1.4084 H   0  0  0  0  0  0  0  0  0  0  0  0
    0.4179    2.4345   -0.9597 H   0  0  0  0  0  0  0  0  0  0  0  0
    0.0226    2.7547    0.7817 H   0  0  0  0  0  0  0  0  0  0  0  0
   -2.8075    0.3753   -0.0803 H   0  0  0  0  0  0  0  0  0  0  0  0
   -1.9846    1.0523    1.4268 H   0  0  0  0  0  0  0  0  0  0  0  0
   -1.5719   -0.0290   -1.8812 H   0  0  0  0  0  0  0  0  0  0  0  0
   -0.0191   -0.8818   -1.8276 H   0  0  0  0  0  0  0  0  0  0  0  0
   -1.5303   -1.6571   -1.1870 H   0  0  0  0  0  0  0  0  0  0  0  0
   -0.2298   -1.0671    2.0515 H   0  0  0  0  0  0  0  0  0  0  0  0
   -0.6220   -2.2954    0.7719 H   0  0  0  0  0  0  0  0  0  0  0  0
   -1.9067   -1.3450    1.5362 H   0  0  0  0  0  0  0  0  0  0  0  0
  1  2  1  0
  2  3  1  0
  3  4  1  0
  4  5  1  0
  5  6  1  0
  6  7  1  0
  7  8  1  0
  7  9  1  0
  7  3  1  0
  1 10  1  0
  1 11  1  0
  1 12  1  0
  2 13  1  0
  2 14  1  0
  3 15  1  0
  4 16  1  0
  4 17  1  0
  6 18  1  0
  6 19  1  0
  8 20  1  0
  8 21  1  0
  8 22  1  0
  9 23  1  0
  9 24  1  0
  9 25  1  0
M  END
