
     RDKit          3D

 23 24  0  0  0  0  0  0  0  0999 V2000
   -2.4537    1.3311   -0.4191 C   0  0  0  0  0  0  0  0  0  0  0  0
   -1.2246    1.0654    0.4217 C   0  0  0  0  0  0  0  0  0  0  0  0
   -0.3318    0.1077   -0.3098 C   0  0  0  0  0  0  0  0  0  0  0  0
   -1.0524   -1.2007   -0.5665 C   0  0  0  0  0  0  0  0  0  0  0  0
    0.0468   -1.9553    0.1873 C   0  0  0  0  0  0  0  0  0  0  0  0
    0.6757   -0.6351    0.4737 C   0  0  0  0  0  0  0  0  0  0  0  0
    1.1650   -0.2615    1.6686 O   0  0  0  0  0  0  0  0  0  0  0  0
    2.0419   -0.4569    0.6074 C   0  0  0  0  0  0  0  0  0  0  0  0
    2.7491    0.7417    0.0209 C   0  0  0  0  0  0  0  0  0  0  0  0
   -2.2857    2.0740   -1.2118 H   0  0  0  0  0  0  0  0  0  0  0  0
   -2.8125    0.3638   -0.8055 H   0  0  0  0  0  0  0  0  0  0  0  0
   -3.2635    1.7569    0.2414 H   0  0  0  0  0  0  0  0  0  0  0  0
   -0.7231    2.0101    0.6981 H   0  0  0  0  0  0  0  0  0  0  0  0
   -1.5871    0.6122    1.3711 H   0  0  0  0  0  0  0  0  0  0  0  0
    0.1173    0.5631   -1.2146 H   0  0  0  0  0  0  0  0  0  0  0  0
   -1.0326   -1.4606   -1.6522 H   0  0  0  0  0  0  0  0  0  0  0  0
   -1.9982   -1.3455   -0.0464 H   0  0  0  0  0  0  0  0  0  0  0  0
    0.7036   -2.5549   -0.4915 H   0  0  0  0  0  0  0  0  0  0  0  0
   -0.3036   -2.5496    1.0392 H   0  0  0  0  0  0  0  0  0  0  0  0
    2.7353   -1.3243    0.7855 H   0  0  0  0  0  0  0  0  0  0  0  0
    3.6058    0.3968   -0.5943 H   0  0  0  0  0  0  0  0  0  0  0  0
    3.1505    1.4282    0.7899 H   0  0  0  0  0  0  0  0  0  0  0  0
    2.0779    1.2933   -0.7020 H   0  0  0  0  0  0  0  0  0  0  0  0
  1  2  1  0
  2  3  1  0
  3  4  1  0
  4  5  1  0
  5  6  1  0
  6  7  1  0
  7  8  1  0
  8  9  1  0
  6  3  1  0
  8  6  1  0
  1 10  1  0
  1 11  1  0
  1 12  1  0
  2 13  1  0
  2 14  1  0
  3 15  1  0
  4 16  1  0
  4 17  1  0
  5 18  1  0
  5 19  1  0
  8 20  1  0
  9 21  1  0
  9 22  1  0
  9 23  1  0
M  END
