
     RDKit          3D

 21 22  0  0  0  0  0  0  0  0999 V2000
   -2.4561   -0.5735    0.5914 C   0  0  0  0  0  0  0  0  0  0  0  0
   -1.6885    0.2487   -0.4418 C   0  0  0  0  0  0  0  0  0  0  0  0
   -0.3463    0.6687    0.0371 C   0  0  0  0  0  0  0  0  0  0  0  0
   -0.1943    1.4524    1.1599 O   0  0  0  0  0  0  0  0  0  0  0  0
    0.4128    0.2022    1.0670 C   0  0  0  0  0  0  0  0  0  0  0  0
    1.6770    0.1432    0.1976 C   0  0  0  0  0  0  0  0  0  0  0  0
    2.0999   -1.2783    0.0166 C   0  0  0  0  0  0  0  0  0  0  0  0
    0.8284    0.7068   -0.9283 C   0  0  0  0  0  0  0  0  0  0  0  0
    1.1115    2.0439   -1.2331 O   0  0  0  0  0  0  0  0  0  0  0  0
   -3.0820   -1.3500    0.1053 H   0  0  0  0  0  0  0  0  0  0  0  0
   -1.7868   -0.9771    1.3624 H   0  0  0  0  0  0  0  0  0  0  0  0
   -3.1458    0.1308    1.0972 H   0  0  0  0  0  0  0  0  0  0  0  0
   -2.3273    1.0798   -0.7783 H   0  0  0  0  0  0  0  0  0  0  0  0
   -1.5358   -0.4189   -1.3320 H   0  0  0  0  0  0  0  0  0  0  0  0
    0.2906   -0.5405    1.8560 H   0  0  0  0  0  0  0  0  0  0  0  0
    2.4151    0.8372    0.6140 H   0  0  0  0  0  0  0  0  0  0  0  0
    1.5598   -1.9884    0.6656 H   0  0  0  0  0  0  0  0  0  0  0  0
    3.1862   -1.3541    0.2531 H   0  0  0  0  0  0  0  0  0  0  0  0
    1.9957   -1.6266   -1.0313 H   0  0  0  0  0  0  0  0  0  0  0  0
    0.7411    0.0873   -1.8169 H   0  0  0  0  0  0  0  0  0  0  0  0
    0.2449    2.5064   -1.4616 H   0  0  0  0  0  0  0  0  0  0  0  0
  1  2  1  0
  2  3  1  0
  3  4  1  0
  4  5  1  0
  5  6  1  0
  6  7  1  0
  6  8  1  0
  8  9  1  0
  5  3  1  0
  8  3  1  0
  1 10  1  0
  1 11  1  0
  1 12  1  0
  2 13  1  0
  2 14  1  0
  5 15  1  0
  6 16  1  0
  7 17  1  0
  7 18  1  0
  7 19  1  0
  8 20  1  0
  9 21  1  0
M  END
