
     RDKit          3D

 23 24  0  0  0  0  0  0  0  0999 V2000
   -2.7061    1.0141    0.1753 C   0  0  0  0  0  0  0  0  0  0  0  0
   -2.4095   -0.3133    0.8314 C   0  0  0  0  0  0  0  0  0  0  0  0
   -0.9513   -0.6744    0.6504 C   0  0  0  0  0  0  0  0  0  0  0  0
   -0.4887   -0.8076   -0.8179 C   0  0  0  0  0  0  0  0  0  0  0  0
   -0.0421    0.3093    0.0213 C   0  0  0  0  0  0  0  0  0  0  0  0
    1.4055    0.3986    0.3476 C   0  0  0  0  0  0  0  0  0  0  0  0
    2.2735   -0.7913    0.1009 C   0  0  0  0  0  0  0  0  0  0  0  0
    3.2364    0.3660   -0.2077 C   0  0  0  0  0  0  0  0  0  0  0  0
    2.1113    1.0364   -0.7002 O   0  0  0  0  0  0  0  0  0  0  0  0
   -3.8183    1.1668    0.1803 H   0  0  0  0  0  0  0  0  0  0  0  0
   -2.2784    1.8231    0.7867 H   0  0  0  0  0  0  0  0  0  0  0  0
   -2.3829    1.0430   -0.8900 H   0  0  0  0  0  0  0  0  0  0  0  0
   -2.6189   -0.2202    1.9025 H   0  0  0  0  0  0  0  0  0  0  0  0
   -3.0786   -1.1031    0.4110 H   0  0  0  0  0  0  0  0  0  0  0  0
   -0.5951   -1.4406    1.3527 H   0  0  0  0  0  0  0  0  0  0  0  0
   -1.2903   -0.6748   -1.5862 H   0  0  0  0  0  0  0  0  0  0  0  0
    0.1389   -1.6727   -1.0128 H   0  0  0  0  0  0  0  0  0  0  0  0
   -0.5118    1.3274   -0.1292 H   0  0  0  0  0  0  0  0  0  0  0  0
    1.6717    0.9328    1.2816 H   0  0  0  0  0  0  0  0  0  0  0  0
    2.1224   -1.3359   -0.8272 H   0  0  0  0  0  0  0  0  0  0  0  0
    2.5781   -1.3751    0.9845 H   0  0  0  0  0  0  0  0  0  0  0  0
    4.0124    0.1260   -0.9388 H   0  0  0  0  0  0  0  0  0  0  0  0
    3.6218    0.8656    0.6785 H   0  0  0  0  0  0  0  0  0  0  0  0
  1  2  1  0
  2  3  1  0
  3  4  1  0
  4  5  1  0
  5  6  1  0
  6  7  1  0
  7  8  1  0
  8  9  1  0
  5  3  1  0
  9  6  1  0
  1 10  1  0
  1 11  1  0
  1 12  1  0
  2 13  1  0
  2 14  1  0
  3 15  1  0
  4 16  1  0
  4 17  1  0
  5 18  1  0
  6 19  1  0
  7 20  1  0
  7 21  1  0
  8 22  1  0
  8 23  1  0
M  END
