
     RDKit          3D

 18 19  0  0  0  0  0  0  0  0999 V2000
    2.2641    0.0854    0.5264 C   0  0  0  0  0  0  0  0  0  0  0  0
    1.3497   -0.4477   -0.5772 C   0  0  0  0  0  0  0  0  0  0  0  0
    0.0192    0.2136   -0.4173 C   0  0  0  0  0  0  0  0  0  0  0  0
   -0.6714   -0.0317    0.9069 C   0  0  0  0  0  0  0  0  0  0  0  0
   -1.9736    0.7143    0.7137 C   0  0  0  0  0  0  0  0  0  0  0  0
   -2.2906    0.3153   -0.5186 C   0  0  0  0  0  0  0  0  0  0  0  0
   -1.1801   -0.6373   -0.8038 C   0  0  0  0  0  0  0  0  0  0  0  0
   -0.9860   -1.2873    0.4153 O   0  0  0  0  0  0  0  0  0  0  0  0
    1.9570    1.1269    0.7916 H   0  0  0  0  0  0  0  0  0  0  0  0
    3.2889    0.1374    0.1331 H   0  0  0  0  0  0  0  0  0  0  0  0
    2.1624   -0.5700    1.4121 H   0  0  0  0  0  0  0  0  0  0  0  0
    1.7662   -0.1387   -1.5552 H   0  0  0  0  0  0  0  0  0  0  0  0
    1.2394   -1.5505   -0.5184 H   0  0  0  0  0  0  0  0  0  0  0  0
   -0.0534    1.2157   -0.8303 H   0  0  0  0  0  0  0  0  0  0  0  0
   -0.1492    0.0925    1.8110 H   0  0  0  0  0  0  0  0  0  0  0  0
   -2.4808    1.3795    1.4035 H   0  0  0  0  0  0  0  0  0  0  0  0
   -3.0982    0.5608   -1.1870 H   0  0  0  0  0  0  0  0  0  0  0  0
   -1.1636   -1.1783   -1.7058 H   0  0  0  0  0  0  0  0  0  0  0  0
  1  2  1  0
  2  3  1  0
  3  4  1  0
  4  5  1  0
  5  6  2  0
  6  7  1  0
  7  8  1  0
  7  3  1  0
  8  4  1  0
  1  9  1  0
  1 10  1  0
  1 11  1  0
  2 12  1  0
  2 13  1  0
  3 14  1  0
  4 15  1  0
  5 16  1  0
  6 17  1  0
  7 18  1  0
M  END
