
     RDKit          3D

 21 22  0  0  0  0  0  0  0  0999 V2000
   -1.5930   -1.3267   -0.8090 C   0  0  0  0  0  0  0  0  0  0  0  0
   -1.5106    0.0495   -0.2518 C   0  0  0  0  0  0  0  0  0  0  0  0
   -0.1611    0.4409    0.2544 C   0  0  0  0  0  0  0  0  0  0  0  0
   -0.2169    1.8729    0.7971 C   0  0  0  0  0  0  0  0  0  0  0  0
    0.4395   -0.4367    1.2797 C   0  0  0  0  0  0  0  0  0  0  0  0
    0.1324   -1.0689    2.2745 O   0  0  0  0  0  0  0  0  0  0  0  0
    1.7468   -0.2533    0.5689 C   0  0  0  0  0  0  0  0  0  0  0  0
    1.8212   -0.9371   -0.7387 C   0  0  0  0  0  0  0  0  0  0  0  0
    0.9788    0.2489   -0.6788 C   0  0  0  0  0  0  0  0  0  0  0  0
   -0.7996   -1.5657   -1.5432 H   0  0  0  0  0  0  0  0  0  0  0  0
   -1.5994   -2.0543    0.0538 H   0  0  0  0  0  0  0  0  0  0  0  0
   -2.5887   -1.4403   -1.2949 H   0  0  0  0  0  0  0  0  0  0  0  0
   -1.8140    0.7912   -1.0164 H   0  0  0  0  0  0  0  0  0  0  0  0
   -2.2255    0.1273    0.5913 H   0  0  0  0  0  0  0  0  0  0  0  0
    0.5203    2.5116    0.2321 H   0  0  0  0  0  0  0  0  0  0  0  0
   -1.1965    2.3372    0.6445 H   0  0  0  0  0  0  0  0  0  0  0  0
    0.0220    1.9232    1.8629 H   0  0  0  0  0  0  0  0  0  0  0  0
    2.4887    0.4384    0.9464 H   0  0  0  0  0  0  0  0  0  0  0  0
    1.4239   -1.9813   -0.7420 H   0  0  0  0  0  0  0  0  0  0  0  0
    2.7792   -0.8547   -1.2758 H   0  0  0  0  0  0  0  0  0  0  0  0
    1.3525    1.1781   -1.1550 H   0  0  0  0  0  0  0  0  0  0  0  0
  1  2  1  0
  2  3  1  0
  3  4  1  0
  3  5  1  0
  5  6  2  0
  5  7  1  0
  7  8  1  0
  8  9  1  0
  9  3  1  0
  9  7  1  0
  1 10  1  0
  1 11  1  0
  1 12  1  0
  2 13  1  0
  2 14  1  0
  4 15  1  0
  4 16  1  0
  4 17  1  0
  7 18  1  0
  8 19  1  0
  8 20  1  0
  9 21  1  0
M  END
