
     RDKit          3D

 23 24  0  0  0  0  0  0  0  0999 V2000
    2.5207   -0.1174    0.4190 C   0  0  0  0  0  0  0  0  0  0  0  0
    1.1025   -0.3743    0.9469 C   0  0  0  0  0  0  0  0  0  0  0  0
    0.2621   -0.7334   -0.2118 C   0  0  0  0  0  0  0  0  0  0  0  0
    0.1285    0.2757   -1.3213 C   0  0  0  0  0  0  0  0  0  0  0  0
   -0.4231    1.5261   -0.6962 C   0  0  0  0  0  0  0  0  0  0  0  0
   -1.3883    0.8845    0.3166 C   0  0  0  0  0  0  0  0  0  0  0  0
   -1.2351   -0.5495   -0.0943 C   0  0  0  0  0  0  0  0  0  0  0  0
   -1.9761   -1.5016    0.4584 O   0  0  0  0  0  0  0  0  0  0  0  0
   -1.1735   -0.4891   -1.6338 C   0  0  0  0  0  0  0  0  0  0  0  0
    3.1869   -0.9826    0.6264 H   0  0  0  0  0  0  0  0  0  0  0  0
    2.5079    0.0452   -0.6848 H   0  0  0  0  0  0  0  0  0  0  0  0
    2.9388    0.7657    0.9430 H   0  0  0  0  0  0  0  0  0  0  0  0
    0.7815    0.4954    1.5397 H   0  0  0  0  0  0  0  0  0  0  0  0
    1.1883   -1.2405    1.6468 H   0  0  0  0  0  0  0  0  0  0  0  0
    0.5474   -1.7155   -0.6416 H   0  0  0  0  0  0  0  0  0  0  0  0
    0.8558    0.3279   -2.0888 H   0  0  0  0  0  0  0  0  0  0  0  0
    0.3292    2.1449   -0.1881 H   0  0  0  0  0  0  0  0  0  0  0  0
   -0.9922    2.1015   -1.4552 H   0  0  0  0  0  0  0  0  0  0  0  0
   -2.4186    1.1943    0.0327 H   0  0  0  0  0  0  0  0  0  0  0  0
   -1.1348    1.1048    1.3495 H   0  0  0  0  0  0  0  0  0  0  0  0
   -2.6879   -1.7962   -0.1852 H   0  0  0  0  0  0  0  0  0  0  0  0
   -1.9497    0.1171   -2.0949 H   0  0  0  0  0  0  0  0  0  0  0  0
   -0.9702   -1.4829   -2.0378 H   0  0  0  0  0  0  0  0  0  0  0  0
  1  2  1  0
  2  3  1  0
  3  4  1  0
  4  5  1  0
  5  6  1  0
  6  7  1  0
  7  8  1  0
  7  9  1  0
  7  3  1  0
  9  4  1  0
  1 10  1  0
  1 11  1  0
  1 12  1  0
  2 13  1  0
  2 14  1  0
  3 15  1  0
  4 16  1  0
  5 17  1  0
  5 18  1  0
  6 19  1  0
  6 20  1  0
  8 21  1  0
  9 22  1  0
  9 23  1  0
M  END
