
     RDKit          3D

 23 24  0  0  0  0  0  0  0  0999 V2000
    2.8165   -0.2835    0.0524 C   0  0  0  0  0  0  0  0  0  0  0  0
    1.5985    0.4943   -0.3244 C   0  0  0  0  0  0  0  0  0  0  0  0
    0.3213   -0.0912    0.1803 C   0  0  0  0  0  0  0  0  0  0  0  0
    0.2408   -0.2004    1.5653 O   0  0  0  0  0  0  0  0  0  0  0  0
    0.0378   -1.3080    0.7237 C   0  0  0  0  0  0  0  0  0  0  0  0
   -1.4488   -1.6062    0.5369 C   0  0  0  0  0  0  0  0  0  0  0  0
   -2.0703   -0.3531   -0.0057 C   0  0  0  0  0  0  0  0  0  0  0  0
   -0.9131    0.4048   -0.5659 C   0  0  0  0  0  0  0  0  0  0  0  0
   -1.0562    1.9017   -0.4553 C   0  0  0  0  0  0  0  0  0  0  0  0
    3.7050    0.3123   -0.2847 H   0  0  0  0  0  0  0  0  0  0  0  0
    2.8941   -1.2607   -0.4418 H   0  0  0  0  0  0  0  0  0  0  0  0
    2.8933   -0.3318    1.1548 H   0  0  0  0  0  0  0  0  0  0  0  0
    1.5487    0.6608   -1.4228 H   0  0  0  0  0  0  0  0  0  0  0  0
    1.7168    1.5210    0.1302 H   0  0  0  0  0  0  0  0  0  0  0  0
    0.7015   -2.1673    0.8027 H   0  0  0  0  0  0  0  0  0  0  0  0
   -1.6214   -2.4959   -0.0657 H   0  0  0  0  0  0  0  0  0  0  0  0
   -1.8543   -1.7605    1.5578 H   0  0  0  0  0  0  0  0  0  0  0  0
   -2.7670   -0.6215   -0.8250 H   0  0  0  0  0  0  0  0  0  0  0  0
   -2.6408    0.2214    0.7584 H   0  0  0  0  0  0  0  0  0  0  0  0
   -0.7677    0.1481   -1.6377 H   0  0  0  0  0  0  0  0  0  0  0  0
   -2.1038    2.1447   -0.7316 H   0  0  0  0  0  0  0  0  0  0  0  0
   -0.8084    2.2838    0.5528 H   0  0  0  0  0  0  0  0  0  0  0  0
   -0.4225    2.3873   -1.2547 H   0  0  0  0  0  0  0  0  0  0  0  0
  1  2  1  0
  2  3  1  0
  3  4  1  0
  4  5  1  0
  5  6  1  0
  6  7  1  0
  7  8  1  0
  8  9  1  0
  5  3  1  0
  8  3  1  0
  1 10  1  0
  1 11  1  0
  1 12  1  0
  2 13  1  0
  2 14  1  0
  5 15  1  0
  6 16  1  0
  6 17  1  0
  7 18  1  0
  7 19  1  0
  8 20  1  0
  9 21  1  0
  9 22  1  0
  9 23  1  0
M  END
