
     RDKit          3D

 21 21  0  0  0  0  0  0  0  0999 V2000
   -1.8133   -0.8367    0.8440 C   0  0  0  0  0  0  0  0  0  0  0  0
   -1.4113    0.3367    0.0430 C   0  0  0  0  0  0  0  0  0  0  0  0
    0.0368    0.5521   -0.2041 C   0  0  0  0  0  0  0  0  0  0  0  0
    0.2749    1.8083   -1.0547 C   0  0  0  0  0  0  0  0  0  0  0  0
    0.9930    0.5257    0.9828 C   0  0  0  0  0  0  0  0  0  0  0  0
    1.0990   -0.4303   -0.2162 C   0  0  0  0  0  0  0  0  0  0  0  0
    2.1713   -0.2060   -1.1128 O   0  0  0  0  0  0  0  0  0  0  0  0
    0.9967   -1.8414    0.1861 C   0  0  0  0  0  0  0  0  0  0  0  0
    1.5194   -2.7521   -0.4542 O   0  0  0  0  0  0  0  0  0  0  0  0
   -1.7377   -1.7890    0.2598 H   0  0  0  0  0  0  0  0  0  0  0  0
   -2.9285   -0.7387    1.0135 H   0  0  0  0  0  0  0  0  0  0  0  0
   -1.3846   -0.8970    1.8439 H   0  0  0  0  0  0  0  0  0  0  0  0
   -1.9187    0.2672   -0.9520 H   0  0  0  0  0  0  0  0  0  0  0  0
   -1.8847    1.2459    0.5274 H   0  0  0  0  0  0  0  0  0  0  0  0
   -0.6509    2.2110   -1.4827 H   0  0  0  0  0  0  0  0  0  0  0  0
    0.9473    1.5280   -1.8946 H   0  0  0  0  0  0  0  0  0  0  0  0
    0.8389    2.5894   -0.5009 H   0  0  0  0  0  0  0  0  0  0  0  0
    1.8051    1.2631    1.0623 H   0  0  0  0  0  0  0  0  0  0  0  0
    0.6345    0.1460    1.9387 H   0  0  0  0  0  0  0  0  0  0  0  0
    1.9504   -0.7890   -1.8940 H   0  0  0  0  0  0  0  0  0  0  0  0
    0.4624   -2.1931    1.0648 H   0  0  0  0  0  0  0  0  0  0  0  0
  1  2  1  0
  2  3  1  0
  3  4  1  0
  3  5  1  0
  5  6  1  0
  6  7  1  0
  6  8  1  0
  8  9  2  0
  6  3  1  0
  1 10  1  0
  1 11  1  0
  1 12  1  0
  2 13  1  0
  2 14  1  0
  4 15  1  0
  4 16  1  0
  4 17  1  0
  5 18  1  0
  5 19  1  0
  7 20  1  0
  8 21  1  0
M  END
