
     RDKit          3D

 21 21  0  0  0  0  0  0  0  0999 V2000
    2.2696   -0.6273   -1.0623 C   0  0  0  0  0  0  0  0  0  0  0  0
    1.9752   -0.1531    0.3352 C   0  0  0  0  0  0  0  0  0  0  0  0
    0.5693    0.3859    0.4730 C   0  0  0  0  0  0  0  0  0  0  0  0
    0.3816    0.8063    1.8111 O   0  0  0  0  0  0  0  0  0  0  0  0
   -0.9741    0.4680    1.6264 C   0  0  0  0  0  0  0  0  0  0  0  0
   -0.5033   -0.6283    0.7056 C   0  0  0  0  0  0  0  0  0  0  0  0
   -1.4387   -0.8870   -0.3948 C   0  0  0  0  0  0  0  0  0  0  0  0
   -2.3212    0.1235   -1.0073 C   0  0  0  0  0  0  0  0  0  0  0  0
   -1.4904   -2.0234   -0.8366 O   0  0  0  0  0  0  0  0  0  0  0  0
    1.5763   -0.1669   -1.7977 H   0  0  0  0  0  0  0  0  0  0  0  0
    2.2325   -1.7372   -1.1279 H   0  0  0  0  0  0  0  0  0  0  0  0
    3.2951   -0.3342   -1.4004 H   0  0  0  0  0  0  0  0  0  0  0  0
    2.6777    0.6955    0.5570 H   0  0  0  0  0  0  0  0  0  0  0  0
    2.2069   -0.9380    1.0594 H   0  0  0  0  0  0  0  0  0  0  0  0
    0.3364    1.1350   -0.2838 H   0  0  0  0  0  0  0  0  0  0  0  0
   -1.4625    1.3178    1.1066 H   0  0  0  0  0  0  0  0  0  0  0  0
   -1.4838    0.1267    2.5493 H   0  0  0  0  0  0  0  0  0  0  0  0
   -0.1843   -1.5275    1.2522 H   0  0  0  0  0  0  0  0  0  0  0  0
   -3.1024   -0.3414   -1.6333 H   0  0  0  0  0  0  0  0  0  0  0  0
   -2.8581    0.7546   -0.2670 H   0  0  0  0  0  0  0  0  0  0  0  0
   -1.7017    0.7990   -1.6645 H   0  0  0  0  0  0  0  0  0  0  0  0
  1  2  1  0
  2  3  1  0
  3  4  1  0
  4  5  1  0
  5  6  1  0
  6  7  1  0
  7  8  1  0
  7  9  2  0
  6  3  1  0
  1 10  1  0
  1 11  1  0
  1 12  1  0
  2 13  1  0
  2 14  1  0
  3 15  1  0
  5 16  1  0
  5 17  1  0
  6 18  1  0
  8 19  1  0
  8 20  1  0
  8 21  1  0
M  END
