
     RDKit          3D

 23 23  0  0  0  0  0  0  0  0999 V2000
    3.1426   -0.0089    0.4634 C   0  0  0  0  0  0  0  0  0  0  0  0
    2.0912    0.8087   -0.2585 C   0  0  0  0  0  0  0  0  0  0  0  0
    0.7276    0.2702   -0.0189 C   0  0  0  0  0  0  0  0  0  0  0  0
   -0.2371    0.9803    0.5510 C   0  0  0  0  0  0  0  0  0  0  0  0
   -1.4562    0.1387    0.6331 C   0  0  0  0  0  0  0  0  0  0  0  0
   -2.6610    0.8774    0.0471 C   0  0  0  0  0  0  0  0  0  0  0  0
   -1.2311   -1.0893   -0.1813 C   0  0  0  0  0  0  0  0  0  0  0  0
   -1.8380   -0.9823   -1.4531 O   0  0  0  0  0  0  0  0  0  0  0  0
    0.2758   -1.0827   -0.3708 C   0  0  0  0  0  0  0  0  0  0  0  0
    3.1395    0.1942    1.5590 H   0  0  0  0  0  0  0  0  0  0  0  0
    4.1327    0.3569    0.0605 H   0  0  0  0  0  0  0  0  0  0  0  0
    3.0998   -1.0806    0.2172 H   0  0  0  0  0  0  0  0  0  0  0  0
    2.2078    1.8507    0.0894 H   0  0  0  0  0  0  0  0  0  0  0  0
    2.2935    0.6957   -1.3406 H   0  0  0  0  0  0  0  0  0  0  0  0
   -0.1995    1.9923    0.9102 H   0  0  0  0  0  0  0  0  0  0  0  0
   -1.6585   -0.0635    1.7017 H   0  0  0  0  0  0  0  0  0  0  0  0
   -3.3481    0.0861   -0.3209 H   0  0  0  0  0  0  0  0  0  0  0  0
   -2.3195    1.5480   -0.7575 H   0  0  0  0  0  0  0  0  0  0  0  0
   -3.2001    1.4162    0.8641 H   0  0  0  0  0  0  0  0  0  0  0  0
   -1.5880   -2.0224    0.3087 H   0  0  0  0  0  0  0  0  0  0  0  0
   -2.5645   -1.6333   -1.5703 H   0  0  0  0  0  0  0  0  0  0  0  0
    0.4974   -1.3761   -1.4125 H   0  0  0  0  0  0  0  0  0  0  0  0
    0.6935   -1.8764    0.2791 H   0  0  0  0  0  0  0  0  0  0  0  0
  1  2  1  0
  2  3  1  0
  3  4  2  0
  4  5  1  0
  5  6  1  0
  5  7  1  0
  7  8  1  0
  7  9  1  0
  9  3  1  0
  1 10  1  0
  1 11  1  0
  1 12  1  0
  2 13  1  0
  2 14  1  0
  4 15  1  0
  5 16  1  0
  6 17  1  0
  6 18  1  0
  6 19  1  0
  7 20  1  0
  8 21  1  0
  9 22  1  0
  9 23  1  0
M  END
