
     RDKit          3D

 23 24  0  0  0  0  0  0  0  0999 V2000
    2.4673    0.0051   -0.6619 C   0  0  0  0  0  0  0  0  0  0  0  0
    1.5937   -0.3071    0.4908 C   0  0  0  0  0  0  0  0  0  0  0  0
    0.1871   -0.5590    0.2637 C   0  0  0  0  0  0  0  0  0  0  0  0
   -0.5742   -0.8637    1.5390 C   0  0  0  0  0  0  0  0  0  0  0  0
   -1.5939    0.1650    1.1068 C   0  0  0  0  0  0  0  0  0  0  0  0
   -0.8405    0.2584   -0.2094 C   0  0  0  0  0  0  0  0  0  0  0  0
   -0.8355    1.5865   -0.7644 C   0  0  0  0  0  0  0  0  0  0  0  0
   -1.2140   -0.8433   -1.1577 C   0  0  0  0  0  0  0  0  0  0  0  0
   -0.0865   -1.5473   -0.6835 O   0  0  0  0  0  0  0  0  0  0  0  0
    3.2455    0.7876   -0.4140 H   0  0  0  0  0  0  0  0  0  0  0  0
    1.9492    0.3830   -1.5540 H   0  0  0  0  0  0  0  0  0  0  0  0
    3.0810   -0.8685   -1.0124 H   0  0  0  0  0  0  0  0  0  0  0  0
    1.7120    0.5316    1.2396 H   0  0  0  0  0  0  0  0  0  0  0  0
    2.0494   -1.1915    1.0272 H   0  0  0  0  0  0  0  0  0  0  0  0
   -1.0561   -1.8642    1.5669 H   0  0  0  0  0  0  0  0  0  0  0  0
   -0.0168   -0.5802    2.4482 H   0  0  0  0  0  0  0  0  0  0  0  0
   -1.4729    1.1217    1.6603 H   0  0  0  0  0  0  0  0  0  0  0  0
   -2.6276   -0.1928    1.0009 H   0  0  0  0  0  0  0  0  0  0  0  0
   -0.2002    2.3141   -0.2009 H   0  0  0  0  0  0  0  0  0  0  0  0
   -1.8754    2.0175   -0.6669 H   0  0  0  0  0  0  0  0  0  0  0  0
   -0.6351    1.6510   -1.8673 H   0  0  0  0  0  0  0  0  0  0  0  0
   -1.0809   -0.6516   -2.2269 H   0  0  0  0  0  0  0  0  0  0  0  0
   -2.1756   -1.3525   -0.9242 H   0  0  0  0  0  0  0  0  0  0  0  0
  1  2  1  0
  2  3  1  0
  3  4  1  0
  4  5  1  0
  5  6  1  0
  6  7  1  0
  6  8  1  0
  8  9  1  0
  6  3  1  0
  9  3  1  0
  1 10  1  0
  1 11  1  0
  1 12  1  0
  2 13  1  0
  2 14  1  0
  4 15  1  0
  4 16  1  0
  5 17  1  0
  5 18  1  0
  7 19  1  0
  7 20  1  0
  7 21  1  0
  8 22  1  0
  8 23  1  0
M  END
