
     RDKit          3D

 25 25  0  0  0  0  0  0  0  0999 V2000
   -2.4505   -0.8572    0.2945 C   0  0  0  0  0  0  0  0  0  0  0  0
   -1.0873   -0.9809   -0.3161 C   0  0  0  0  0  0  0  0  0  0  0  0
   -0.2743    0.2648   -0.0776 C   0  0  0  0  0  0  0  0  0  0  0  0
   -0.8402    1.5258   -0.6317 C   0  0  0  0  0  0  0  0  0  0  0  0
    0.1726    0.4683    1.3560 C   0  0  0  0  0  0  0  0  0  0  0  0
    1.4708    1.0105    0.7874 C   0  0  0  0  0  0  0  0  0  0  0  0
    1.1870    0.1326   -0.4231 C   0  0  0  0  0  0  0  0  0  0  0  0
    1.7866   -1.2378   -0.1842 C   0  0  0  0  0  0  0  0  0  0  0  0
    1.5935    0.7431   -1.5828 O   0  0  0  0  0  0  0  0  0  0  0  0
   -2.9650   -1.8510    0.2107 H   0  0  0  0  0  0  0  0  0  0  0  0
   -2.3618   -0.6598    1.4021 H   0  0  0  0  0  0  0  0  0  0  0  0
   -3.1009   -0.1333   -0.2048 H   0  0  0  0  0  0  0  0  0  0  0  0
   -0.6072   -1.8701    0.0913 H   0  0  0  0  0  0  0  0  0  0  0  0
   -1.2348   -1.0505   -1.4248 H   0  0  0  0  0  0  0  0  0  0  0  0
   -0.7647    2.3891    0.0789 H   0  0  0  0  0  0  0  0  0  0  0  0
   -1.8970    1.4631   -0.9208 H   0  0  0  0  0  0  0  0  0  0  0  0
   -0.2444    1.8293   -1.5285 H   0  0  0  0  0  0  0  0  0  0  0  0
   -0.3877    1.2456    1.9098 H   0  0  0  0  0  0  0  0  0  0  0  0
    0.3686   -0.4608    1.9111 H   0  0  0  0  0  0  0  0  0  0  0  0
    2.3828    0.7348    1.3493 H   0  0  0  0  0  0  0  0  0  0  0  0
    1.4157    2.0828    0.4827 H   0  0  0  0  0  0  0  0  0  0  0  0
    1.3437   -1.7519    0.6706 H   0  0  0  0  0  0  0  0  0  0  0  0
    2.8870   -1.1544    0.0240 H   0  0  0  0  0  0  0  0  0  0  0  0
    1.7034   -1.8995   -1.0717 H   0  0  0  0  0  0  0  0  0  0  0  0
    1.9041    0.0174   -2.2023 H   0  0  0  0  0  0  0  0  0  0  0  0
  1  2  1  0
  2  3  1  0
  3  4  1  0
  3  5  1  0
  5  6  1  0
  6  7  1  0
  7  8  1  0
  7  9  1  0
  7  3  1  0
  1 10  1  0
  1 11  1  0
  1 12  1  0
  2 13  1  0
  2 14  1  0
  4 15  1  0
  4 16  1  0
  4 17  1  0
  5 18  1  0
  5 19  1  0
  6 20  1  0
  6 21  1  0
  8 22  1  0
  8 23  1  0
  8 24  1  0
  9 25  1  0
M  END
