
     RDKit          3D

 20 20  0  0  0  0  0  0  0  0999 V2000
    2.7443   -0.1275    0.0742 C   0  0  0  0  0  0  0  0  0  0  0  0
    1.6051    0.7137   -0.4361 C   0  0  0  0  0  0  0  0  0  0  0  0
    0.3571    0.5518    0.3989 C   0  0  0  0  0  0  0  0  0  0  0  0
   -0.7091    1.3234   -0.0583 O   0  0  0  0  0  0  0  0  0  0  0  0
   -1.5504    0.3255    0.4824 C   0  0  0  0  0  0  0  0  0  0  0  0
   -2.8332    0.1972   -0.2608 C   0  0  0  0  0  0  0  0  0  0  0  0
   -0.4639   -0.6731    0.1055 C   0  0  0  0  0  0  0  0  0  0  0  0
   -0.3492   -1.6925    1.0128 O   0  0  0  0  0  0  0  0  0  0  0  0
    3.7079    0.4272    0.0665 H   0  0  0  0  0  0  0  0  0  0  0  0
    2.8637   -1.0211   -0.5612 H   0  0  0  0  0  0  0  0  0  0  0  0
    2.5859   -0.4425    1.1270 H   0  0  0  0  0  0  0  0  0  0  0  0
    1.3774    0.5050   -1.5012 H   0  0  0  0  0  0  0  0  0  0  0  0
    1.9210    1.7802   -0.3208 H   0  0  0  0  0  0  0  0  0  0  0  0
    0.4835    0.6868    1.4742 H   0  0  0  0  0  0  0  0  0  0  0  0
   -1.6230    0.3804    1.5960 H   0  0  0  0  0  0  0  0  0  0  0  0
   -3.6552   -0.1622    0.4249 H   0  0  0  0  0  0  0  0  0  0  0  0
   -2.7959   -0.4742   -1.1257 H   0  0  0  0  0  0  0  0  0  0  0  0
   -3.1598    1.2228   -0.5786 H   0  0  0  0  0  0  0  0  0  0  0  0
   -0.4839   -0.9923   -0.9500 H   0  0  0  0  0  0  0  0  0  0  0  0
   -0.0221   -2.5286    0.6166 H   0  0  0  0  0  0  0  0  0  0  0  0
  1  2  1  0
  2  3  1  0
  3  4  1  0
  4  5  1  0
  5  6  1  0
  5  7  1  0
  7  8  1  0
  7  3  1  0
  1  9  1  0
  1 10  1  0
  1 11  1  0
  2 12  1  0
  2 13  1  0
  3 14  1  0
  5 15  1  0
  6 16  1  0
  6 17  1  0
  6 18  1  0
  7 19  1  0
  8 20  1  0
M  END
