
     RDKit          3D

 21 22  0  0  0  0  0  0  0  0999 V2000
    2.5357   -0.1807   -0.0265 C   0  0  0  0  0  0  0  0  0  0  0  0
    1.3778    0.3932   -0.8193 C   0  0  0  0  0  0  0  0  0  0  0  0
    0.0819   -0.1100   -0.2924 C   0  0  0  0  0  0  0  0  0  0  0  0
   -0.8986    0.6269    0.1950 C   0  0  0  0  0  0  0  0  0  0  0  0
   -0.8859    2.1016    0.3066 C   0  0  0  0  0  0  0  0  0  0  0  0
   -2.0119   -0.2569    0.6118 C   0  0  0  0  0  0  0  0  0  0  0  0
   -2.6718   -0.8886   -0.4179 O   0  0  0  0  0  0  0  0  0  0  0  0
   -1.6908   -1.6343    0.1973 C   0  0  0  0  0  0  0  0  0  0  0  0
   -0.2683   -1.5573   -0.2540 C   0  0  0  0  0  0  0  0  0  0  0  0
    3.0803    0.6380    0.4829 H   0  0  0  0  0  0  0  0  0  0  0  0
    3.2416   -0.7334   -0.6446 H   0  0  0  0  0  0  0  0  0  0  0  0
    2.1478   -0.8443    0.7584 H   0  0  0  0  0  0  0  0  0  0  0  0
    1.4735    0.0752   -1.8825 H   0  0  0  0  0  0  0  0  0  0  0  0
    1.3985    1.4921   -0.8141 H   0  0  0  0  0  0  0  0  0  0  0  0
   -1.8361    2.5060    0.7079 H   0  0  0  0  0  0  0  0  0  0  0  0
   -0.7289    2.6020   -0.6880 H   0  0  0  0  0  0  0  0  0  0  0  0
   -0.0798    2.4836    0.9645 H   0  0  0  0  0  0  0  0  0  0  0  0
   -2.4808   -0.1354    1.5996 H   0  0  0  0  0  0  0  0  0  0  0  0
   -2.0470   -2.4952    0.7734 H   0  0  0  0  0  0  0  0  0  0  0  0
    0.3833   -2.0462    0.4990 H   0  0  0  0  0  0  0  0  0  0  0  0
   -0.1206   -2.0363   -1.2572 H   0  0  0  0  0  0  0  0  0  0  0  0
  1  2  1  0
  2  3  1  0
  3  4  2  0
  4  5  1  0
  4  6  1  0
  6  7  1  0
  7  8  1  0
  8  9  1  0
  9  3  1  0
  8  6  1  0
  1 10  1  0
  1 11  1  0
  1 12  1  0
  2 13  1  0
  2 14  1  0
  5 15  1  0
  5 16  1  0
  5 17  1  0
  6 18  1  0
  8 19  1  0
  9 20  1  0
  9 21  1  0
M  END
