
     RDKit          3D

 19 21  0  0  0  0  0  0  0  0999 V2000
    2.1281   -0.5707   -0.2419 C   0  0  0  0  0  0  0  0  0  0  0  0
    1.1900    0.5029   -0.6594 C   0  0  0  0  0  0  0  0  0  0  0  0
   -0.1763    0.3063   -0.2291 C   0  0  0  0  0  0  0  0  0  0  0  0
   -1.2296    1.2882   -0.5659 C   0  0  0  0  0  0  0  0  0  0  0  0
   -2.3730    0.6997    0.0284 O   0  0  0  0  0  0  0  0  0  0  0  0
   -1.8792   -0.4674    0.5594 C   0  0  0  0  0  0  0  0  0  0  0  0
   -0.5203   -0.1657    1.1260 C   0  0  0  0  0  0  0  0  0  0  0  0
   -0.1491   -1.4385    0.7401 O   0  0  0  0  0  0  0  0  0  0  0  0
   -0.8445   -1.0114   -0.3786 C   0  0  0  0  0  0  0  0  0  0  0  0
    3.1070   -0.3911   -0.7753 H   0  0  0  0  0  0  0  0  0  0  0  0
    2.3981   -0.4881    0.8460 H   0  0  0  0  0  0  0  0  0  0  0  0
    1.8203   -1.5857   -0.5191 H   0  0  0  0  0  0  0  0  0  0  0  0
    1.2387    0.5677   -1.7832 H   0  0  0  0  0  0  0  0  0  0  0  0
    1.5816    1.4705   -0.2928 H   0  0  0  0  0  0  0  0  0  0  0  0
   -1.0243    2.2809   -0.1192 H   0  0  0  0  0  0  0  0  0  0  0  0
   -1.3910    1.4016   -1.6581 H   0  0  0  0  0  0  0  0  0  0  0  0
   -2.5260   -1.1413    1.0816 H   0  0  0  0  0  0  0  0  0  0  0  0
   -0.3363    0.2761    2.0169 H   0  0  0  0  0  0  0  0  0  0  0  0
   -1.0142   -1.5341   -1.2251 H   0  0  0  0  0  0  0  0  0  0  0  0
  1  2  1  0
  2  3  1  0
  3  4  1  0
  4  5  1  0
  5  6  1  0
  6  7  1  0
  7  8  1  0
  8  9  1  0
  7  3  1  0
  9  3  1  0
  9  6  1  0
  1 10  1  0
  1 11  1  0
  1 12  1  0
  2 13  1  0
  2 14  1  0
  4 15  1  0
  4 16  1  0
  6 17  1  0
  7 18  1  0
  9 19  1  0
M  END
