
     RDKit          3D

 25 25  0  0  0  0  0  0  0  0999 V2000
    2.8820   -1.1126    0.0835 C   0  0  0  0  0  0  0  0  0  0  0  0
    2.0313   -0.0244   -0.5872 C   0  0  0  0  0  0  0  0  0  0  0  0
    0.7935    0.1091    0.2477 C   0  0  0  0  0  0  0  0  0  0  0  0
   -0.0485   -1.1458    0.3710 C   0  0  0  0  0  0  0  0  0  0  0  0
   -1.2252   -0.1939    0.4629 C   0  0  0  0  0  0  0  0  0  0  0  0
   -2.5134   -0.7124   -0.0975 C   0  0  0  0  0  0  0  0  0  0  0  0
   -3.4846    0.2896    0.0704 O   0  0  0  0  0  0  0  0  0  0  0  0
   -0.4177    0.6826   -0.5004 C   0  0  0  0  0  0  0  0  0  0  0  0
   -0.5341    2.1504   -0.2617 C   0  0  0  0  0  0  0  0  0  0  0  0
    3.5562   -1.5723   -0.6473 H   0  0  0  0  0  0  0  0  0  0  0  0
    3.4675   -0.6618    0.9147 H   0  0  0  0  0  0  0  0  0  0  0  0
    2.2045   -1.8652    0.5651 H   0  0  0  0  0  0  0  0  0  0  0  0
    1.8082   -0.2712   -1.6333 H   0  0  0  0  0  0  0  0  0  0  0  0
    2.6146    0.9125   -0.4632 H   0  0  0  0  0  0  0  0  0  0  0  0
    0.9693    0.5482    1.2321 H   0  0  0  0  0  0  0  0  0  0  0  0
   -0.1208   -1.7237   -0.5911 H   0  0  0  0  0  0  0  0  0  0  0  0
    0.1366   -1.7634    1.2518 H   0  0  0  0  0  0  0  0  0  0  0  0
   -1.2645    0.2869    1.4374 H   0  0  0  0  0  0  0  0  0  0  0  0
   -2.8305   -1.5844    0.5099 H   0  0  0  0  0  0  0  0  0  0  0  0
   -2.4527   -0.9300   -1.1811 H   0  0  0  0  0  0  0  0  0  0  0  0
   -3.4244    0.6774    0.9987 H   0  0  0  0  0  0  0  0  0  0  0  0
   -0.4409    0.3347   -1.5327 H   0  0  0  0  0  0  0  0  0  0  0  0
   -0.9744    2.3407    0.7235 H   0  0  0  0  0  0  0  0  0  0  0  0
   -1.2139    2.6267   -1.0088 H   0  0  0  0  0  0  0  0  0  0  0  0
    0.4820    2.6021   -0.3645 H   0  0  0  0  0  0  0  0  0  0  0  0
  1  2  1  0
  2  3  1  0
  3  4  1  0
  4  5  1  0
  5  6  1  0
  6  7  1  0
  5  8  1  0
  8  9  1  0
  8  3  1  0
  1 10  1  0
  1 11  1  0
  1 12  1  0
  2 13  1  0
  2 14  1  0
  3 15  1  0
  4 16  1  0
  4 17  1  0
  5 18  1  0
  6 19  1  0
  6 20  1  0
  7 21  1  0
  8 22  1  0
  9 23  1  0
  9 24  1  0
  9 25  1  0
M  END
