
     RDKit          3D

 25 25  0  0  0  0  0  0  0  0999 V2000
   -2.3382   -1.0176    0.8161 C   0  0  0  0  0  0  0  0  0  0  0  0
   -0.9508   -1.1829    0.2687 C   0  0  0  0  0  0  0  0  0  0  0  0
   -0.3210    0.0907   -0.1856 C   0  0  0  0  0  0  0  0  0  0  0  0
    1.0752   -0.1780   -0.7211 C   0  0  0  0  0  0  0  0  0  0  0  0
    1.7868   -0.7414    0.3556 O   0  0  0  0  0  0  0  0  0  0  0  0
    3.0962   -1.0359   -0.0121 C   0  0  0  0  0  0  0  0  0  0  0  0
   -0.2293    1.1805    0.8759 C   0  0  0  0  0  0  0  0  0  0  0  0
   -0.4371    2.1757   -0.2757 C   0  0  0  0  0  0  0  0  0  0  0  0
   -1.1486    1.0214   -0.9961 C   0  0  0  0  0  0  0  0  0  0  0  0
   -2.6724   -2.0429    1.1414 H   0  0  0  0  0  0  0  0  0  0  0  0
   -2.2826   -0.4196    1.7345 H   0  0  0  0  0  0  0  0  0  0  0  0
   -3.0665   -0.6809    0.0789 H   0  0  0  0  0  0  0  0  0  0  0  0
   -1.0069   -1.8613   -0.6070 H   0  0  0  0  0  0  0  0  0  0  0  0
   -0.3402   -1.6650    1.0594 H   0  0  0  0  0  0  0  0  0  0  0  0
    1.5577    0.7339   -1.1074 H   0  0  0  0  0  0  0  0  0  0  0  0
    1.0418   -0.9925   -1.4991 H   0  0  0  0  0  0  0  0  0  0  0  0
    3.0646   -1.7619   -0.8542 H   0  0  0  0  0  0  0  0  0  0  0  0
    3.5574   -1.5652    0.8445 H   0  0  0  0  0  0  0  0  0  0  0  0
    3.6619   -0.1251   -0.2819 H   0  0  0  0  0  0  0  0  0  0  0  0
   -1.0509    1.2003    1.5932 H   0  0  0  0  0  0  0  0  0  0  0  0
    0.7711    1.3170    1.3117 H   0  0  0  0  0  0  0  0  0  0  0  0
   -1.0705    3.0286   -0.0376 H   0  0  0  0  0  0  0  0  0  0  0  0
    0.5005    2.4929   -0.7506 H   0  0  0  0  0  0  0  0  0  0  0  0
   -2.2009    1.0124   -0.6589 H   0  0  0  0  0  0  0  0  0  0  0  0
   -0.9972    1.0170   -2.0926 H   0  0  0  0  0  0  0  0  0  0  0  0
  1  2  1  0
  2  3  1  0
  3  4  1  0
  4  5  1  0
  5  6  1  0
  3  7  1  0
  7  8  1  0
  8  9  1  0
  9  3  1  0
  1 10  1  0
  1 11  1  0
  1 12  1  0
  2 13  1  0
  2 14  1  0
  4 15  1  0
  4 16  1  0
  6 17  1  0
  6 18  1  0
  6 19  1  0
  7 20  1  0
  7 21  1  0
  8 22  1  0
  8 23  1  0
  9 24  1  0
  9 25  1  0
M  END
