
     RDKit          3D

 25 25  0  0  0  0  0  0  0  0999 V2000
    2.9235   -0.5474    0.5715 C   0  0  0  0  0  0  0  0  0  0  0  0
    1.8341   -0.7611   -0.4565 C   0  0  0  0  0  0  0  0  0  0  0  0
    0.7132    0.2275   -0.1929 C   0  0  0  0  0  0  0  0  0  0  0  0
    1.2669    1.5057   -0.3046 O   0  0  0  0  0  0  0  0  0  0  0  0
    0.0736   -0.0184    1.1337 C   0  0  0  0  0  0  0  0  0  0  0  0
   -1.3688   -0.3911    0.8894 C   0  0  0  0  0  0  0  0  0  0  0  0
   -1.6352   -0.2442   -0.5696 C   0  0  0  0  0  0  0  0  0  0  0  0
   -2.7317    0.7811   -0.7496 C   0  0  0  0  0  0  0  0  0  0  0  0
   -0.3590    0.1207   -1.2476 C   0  0  0  0  0  0  0  0  0  0  0  0
    2.4648   -0.2285    1.5146 H   0  0  0  0  0  0  0  0  0  0  0  0
    3.5730   -1.4461    0.6725 H   0  0  0  0  0  0  0  0  0  0  0  0
    3.5467    0.3069    0.1793 H   0  0  0  0  0  0  0  0  0  0  0  0
    1.4590   -1.8124   -0.2940 H   0  0  0  0  0  0  0  0  0  0  0  0
    2.2173   -0.6825   -1.4897 H   0  0  0  0  0  0  0  0  0  0  0  0
    0.7104    2.2012    0.1347 H   0  0  0  0  0  0  0  0  0  0  0  0
    0.5339   -0.8635    1.6867 H   0  0  0  0  0  0  0  0  0  0  0  0
    0.1252    0.9038    1.7686 H   0  0  0  0  0  0  0  0  0  0  0  0
   -2.0157    0.2359    1.5373 H   0  0  0  0  0  0  0  0  0  0  0  0
   -1.5877   -1.4500    1.1944 H   0  0  0  0  0  0  0  0  0  0  0  0
   -2.0223   -1.1982   -1.0062 H   0  0  0  0  0  0  0  0  0  0  0  0
   -2.9139    1.0185   -1.8205 H   0  0  0  0  0  0  0  0  0  0  0  0
   -3.6796    0.2833   -0.4011 H   0  0  0  0  0  0  0  0  0  0  0  0
   -2.5992    1.6765   -0.1245 H   0  0  0  0  0  0  0  0  0  0  0  0
   -0.0543   -0.6672   -1.9710 H   0  0  0  0  0  0  0  0  0  0  0  0
   -0.4741    1.0494   -1.8416 H   0  0  0  0  0  0  0  0  0  0  0  0
  1  2  1  0
  2  3  1  0
  3  4  1  0
  3  5  1  0
  5  6  1  0
  6  7  1  0
  7  8  1  0
  7  9  1  0
  9  3  1  0
  1 10  1  0
  1 11  1  0
  1 12  1  0
  2 13  1  0
  2 14  1  0
  4 15  1  0
  5 16  1  0
  5 17  1  0
  6 18  1  0
  6 19  1  0
  7 20  1  0
  8 21  1  0
  8 22  1  0
  8 23  1  0
  9 24  1  0
  9 25  1  0
M  END
