
     RDKit          3D

 23 23  0  0  0  0  0  0  0  0999 V2000
    1.6254    1.3098   -0.7186 C   0  0  0  0  0  0  0  0  0  0  0  0
    1.4744    0.0997    0.1236 C   0  0  0  0  0  0  0  0  0  0  0  0
    0.1540   -0.5783    0.1215 C   0  0  0  0  0  0  0  0  0  0  0  0
    0.1525   -1.8164    1.0375 C   0  0  0  0  0  0  0  0  0  0  0  0
    0.4463   -1.4342    2.3473 O   0  0  0  0  0  0  0  0  0  0  0  0
   -0.5443   -0.7294   -1.1618 C   0  0  0  0  0  0  0  0  0  0  0  0
   -1.1449    0.0683   -0.0241 C   0  0  0  0  0  0  0  0  0  0  0  0
   -1.3267    1.5514   -0.1584 C   0  0  0  0  0  0  0  0  0  0  0  0
   -2.2761   -0.5828    0.5272 O   0  0  0  0  0  0  0  0  0  0  0  0
    2.7387    1.4753   -0.8467 H   0  0  0  0  0  0  0  0  0  0  0  0
    1.2529    2.2484   -0.2967 H   0  0  0  0  0  0  0  0  0  0  0  0
    1.2538    1.1944   -1.7547 H   0  0  0  0  0  0  0  0  0  0  0  0
    1.8373    0.3584    1.1507 H   0  0  0  0  0  0  0  0  0  0  0  0
    2.2323   -0.6559   -0.2430 H   0  0  0  0  0  0  0  0  0  0  0  0
    0.8366   -2.5789    0.6421 H   0  0  0  0  0  0  0  0  0  0  0  0
   -0.8663   -2.2756    1.0464 H   0  0  0  0  0  0  0  0  0  0  0  0
    0.4081   -0.4404    2.4268 H   0  0  0  0  0  0  0  0  0  0  0  0
   -0.9537   -1.7143   -1.4324 H   0  0  0  0  0  0  0  0  0  0  0  0
   -0.3064   -0.1040   -2.0475 H   0  0  0  0  0  0  0  0  0  0  0  0
   -2.4246    1.8035   -0.1669 H   0  0  0  0  0  0  0  0  0  0  0  0
   -0.9582    1.8691   -1.1404 H   0  0  0  0  0  0  0  0  0  0  0  0
   -0.9208    2.1288    0.6988 H   0  0  0  0  0  0  0  0  0  0  0  0
   -2.6904   -1.1968   -0.1308 H   0  0  0  0  0  0  0  0  0  0  0  0
  1  2  1  0
  2  3  1  0
  3  4  1  0
  4  5  1  0
  3  6  1  0
  6  7  1  0
  7  8  1  0
  7  9  1  0
  7  3  1  0
  1 10  1  0
  1 11  1  0
  1 12  1  0
  2 13  1  0
  2 14  1  0
  4 15  1  0
  4 16  1  0
  5 17  1  0
  6 18  1  0
  6 19  1  0
  8 20  1  0
  8 21  1  0
  8 22  1  0
  9 23  1  0
M  END
