
     RDKit          3D

 23 24  0  0  0  0  0  0  0  0999 V2000
    2.6611   -0.2712    0.5334 C   0  0  0  0  0  0  0  0  0  0  0  0
    1.4532   -0.3648   -0.3828 C   0  0  0  0  0  0  0  0  0  0  0  0
    0.2261    0.2578    0.2082 C   0  0  0  0  0  0  0  0  0  0  0  0
    0.3732    1.7342    0.5243 C   0  0  0  0  0  0  0  0  0  0  0  0
   -0.5618   -0.5696    1.1595 C   0  0  0  0  0  0  0  0  0  0  0  0
   -1.5319    0.0413    1.9306 O   0  0  0  0  0  0  0  0  0  0  0  0
   -2.2355    0.3609    0.7730 C   0  0  0  0  0  0  0  0  0  0  0  0
   -1.1324   -0.1509   -0.1126 C   0  0  0  0  0  0  0  0  0  0  0  0
   -1.5142   -1.0739   -1.2141 C   0  0  0  0  0  0  0  0  0  0  0  0
    2.9320    0.7879    0.6683 H   0  0  0  0  0  0  0  0  0  0  0  0
    2.5090   -0.7898    1.4944 H   0  0  0  0  0  0  0  0  0  0  0  0
    3.5053   -0.7541    0.0021 H   0  0  0  0  0  0  0  0  0  0  0  0
    1.7583    0.2008   -1.3135 H   0  0  0  0  0  0  0  0  0  0  0  0
    1.2925   -1.4064   -0.7306 H   0  0  0  0  0  0  0  0  0  0  0  0
    1.4056    2.1030    0.3487 H   0  0  0  0  0  0  0  0  0  0  0  0
   -0.2854    2.2707   -0.2109 H   0  0  0  0  0  0  0  0  0  0  0  0
    0.0732    1.9609    1.5712 H   0  0  0  0  0  0  0  0  0  0  0  0
   -0.3554   -1.6268    1.3348 H   0  0  0  0  0  0  0  0  0  0  0  0
   -3.1705   -0.2087    0.6992 H   0  0  0  0  0  0  0  0  0  0  0  0
   -2.4046    1.4464    0.7255 H   0  0  0  0  0  0  0  0  0  0  0  0
   -0.7037   -1.6910   -1.6083 H   0  0  0  0  0  0  0  0  0  0  0  0
   -1.9523   -0.4900   -2.0460 H   0  0  0  0  0  0  0  0  0  0  0  0
   -2.3420   -1.7668   -0.8802 H   0  0  0  0  0  0  0  0  0  0  0  0
  1  2  1  0
  2  3  1  0
  3  4  1  0
  3  5  1  0
  5  6  1  0
  6  7  1  0
  7  8  1  0
  8  9  1  0
  8  3  1  0
  8  5  1  0
  1 10  1  0
  1 11  1  0
  1 12  1  0
  2 13  1  0
  2 14  1  0
  4 15  1  0
  4 16  1  0
  4 17  1  0
  5 18  1  0
  7 19  1  0
  7 20  1  0
  9 21  1  0
  9 22  1  0
  9 23  1  0
M  END
