
     RDKit          3D

 23 24  0  0  0  0  0  0  0  0999 V2000
   -2.7647   -0.0554    0.9956 C   0  0  0  0  0  0  0  0  0  0  0  0
   -1.8264    0.6137    0.0413 C   0  0  0  0  0  0  0  0  0  0  0  0
   -0.4671   -0.0487   -0.0100 C   0  0  0  0  0  0  0  0  0  0  0  0
   -0.4921   -1.4833   -0.4352 C   0  0  0  0  0  0  0  0  0  0  0  0
    0.5193    0.8317   -0.7744 C   0  0  0  0  0  0  0  0  0  0  0  0
    1.3802    0.3741    0.3480 C   0  0  0  0  0  0  0  0  0  0  0  0
    2.5532   -0.4627    0.2172 C   0  0  0  0  0  0  0  0  0  0  0  0
    2.6317    0.9616    0.7544 C   0  0  0  0  0  0  0  0  0  0  0  0
    0.3000    0.1281    1.1414 O   0  0  0  0  0  0  0  0  0  0  0  0
   -3.3749   -0.8547    0.5242 H   0  0  0  0  0  0  0  0  0  0  0  0
   -3.4869    0.7039    1.3607 H   0  0  0  0  0  0  0  0  0  0  0  0
   -2.2599   -0.4760    1.8879 H   0  0  0  0  0  0  0  0  0  0  0  0
   -2.2836    0.5869   -0.9685 H   0  0  0  0  0  0  0  0  0  0  0  0
   -1.7335    1.6796    0.3337 H   0  0  0  0  0  0  0  0  0  0  0  0
    0.5294   -1.8779   -0.4591 H   0  0  0  0  0  0  0  0  0  0  0  0
   -1.0504   -2.0522    0.3346 H   0  0  0  0  0  0  0  0  0  0  0  0
   -0.9156   -1.6191   -1.4515 H   0  0  0  0  0  0  0  0  0  0  0  0
    0.2052    1.9014   -0.7268 H   0  0  0  0  0  0  0  0  0  0  0  0
    0.7677    0.4726   -1.7824 H   0  0  0  0  0  0  0  0  0  0  0  0
    2.9425   -0.6656   -0.8039 H   0  0  0  0  0  0  0  0  0  0  0  0
    2.6685   -1.3071    0.9231 H   0  0  0  0  0  0  0  0  0  0  0  0
    3.2183    1.6541    0.1243 H   0  0  0  0  0  0  0  0  0  0  0  0
    2.9391    0.9952    1.8278 H   0  0  0  0  0  0  0  0  0  0  0  0
  1  2  1  0
  2  3  1  0
  3  4  1  0
  3  5  1  0
  5  6  1  0
  6  7  1  0
  7  8  1  0
  6  9  1  0
  9  3  1  0
  8  6  1  0
  1 10  1  0
  1 11  1  0
  1 12  1  0
  2 13  1  0
  2 14  1  0
  4 15  1  0
  4 16  1  0
  4 17  1  0
  5 18  1  0
  5 19  1  0
  7 20  1  0
  7 21  1  0
  8 22  1  0
  8 23  1  0
M  END
