
     RDKit          3D

 25 26  0  0  0  0  0  0  0  0999 V2000
    2.5100   -0.8428    0.8211 C   0  0  0  0  0  0  0  0  0  0  0  0
    2.1284    0.5833    1.0087 C   0  0  0  0  0  0  0  0  0  0  0  0
    0.8514    0.9699    0.3466 C   0  0  0  0  0  0  0  0  0  0  0  0
    0.8427    0.7762   -1.1836 C   0  0  0  0  0  0  0  0  0  0  0  0
   -0.6652    0.8318   -0.8983 C   0  0  0  0  0  0  0  0  0  0  0  0
   -0.1433   -0.1882    0.2034 C   0  0  0  0  0  0  0  0  0  0  0  0
   -1.4746   -0.1529   -0.2787 C   0  0  0  0  0  0  0  0  0  0  0  0
   -2.0148   -1.2672   -1.1947 C   0  0  0  0  0  0  0  0  0  0  0  0
   -2.5464    0.2196    0.7631 C   0  0  0  0  0  0  0  0  0  0  0  0
    3.4641   -1.0326    1.3452 H   0  0  0  0  0  0  0  0  0  0  0  0
    1.7649   -1.5296    1.2685 H   0  0  0  0  0  0  0  0  0  0  0  0
    2.6651   -1.0188   -0.2631 H   0  0  0  0  0  0  0  0  0  0  0  0
    2.9429    1.2055    0.5346 H   0  0  0  0  0  0  0  0  0  0  0  0
    2.0867    0.8749    2.0735 H   0  0  0  0  0  0  0  0  0  0  0  0
    0.3771    1.8987    0.6357 H   0  0  0  0  0  0  0  0  0  0  0  0
    1.1765   -0.2114   -1.5120 H   0  0  0  0  0  0  0  0  0  0  0  0
    1.2070    1.6492   -1.7120 H   0  0  0  0  0  0  0  0  0  0  0  0
   -0.8608    1.8766   -0.4934 H   0  0  0  0  0  0  0  0  0  0  0  0
    0.4724   -1.0413   -0.2322 H   0  0  0  0  0  0  0  0  0  0  0  0
   -2.6174   -1.9691   -0.5774 H   0  0  0  0  0  0  0  0  0  0  0  0
   -2.5902   -0.8619   -2.0295 H   0  0  0  0  0  0  0  0  0  0  0  0
   -1.1673   -1.8604   -1.5972 H   0  0  0  0  0  0  0  0  0  0  0  0
   -3.2197   -0.6047    0.9736 H   0  0  0  0  0  0  0  0  0  0  0  0
   -3.1106    1.0770    0.3125 H   0  0  0  0  0  0  0  0  0  0  0  0
   -2.0788    0.6183    1.6856 H   0  0  0  0  0  0  0  0  0  0  0  0
  1  2  1  0
  2  3  1  0
  3  4  1  0
  4  5  1  0
  5  6  1  0
  6  7  1  0
  7  8  1  0
  7  9  1  0
  6  3  1  0
  7  5  1  0
  1 10  1  0
  1 11  1  0
  1 12  1  0
  2 13  1  0
  2 14  1  0
  3 15  1  0
  4 16  1  0
  4 17  1  0
  5 18  1  0
  6 19  1  0
  8 20  1  0
  8 21  1  0
  8 22  1  0
  9 23  1  0
  9 24  1  0
  9 25  1  0
M  END
