
     RDKit          3D

 22 22  0  0  0  0  0  0  0  0999 V2000
    2.3784    0.5054    0.9563 C   0  0  0  0  0  0  0  0  0  0  0  0
    2.0184    0.1589   -0.4640 C   0  0  0  0  0  0  0  0  0  0  0  0
    0.5384   -0.1192   -0.5607 C   0  0  0  0  0  0  0  0  0  0  0  0
    0.1171   -1.2748    0.3253 C   0  0  0  0  0  0  0  0  0  0  0  0
   -1.3926   -1.0169    0.4125 C   0  0  0  0  0  0  0  0  0  0  0  0
   -1.4598    0.4675    0.2559 C   0  0  0  0  0  0  0  0  0  0  0  0
   -2.3414    0.8968   -0.9110 C   0  0  0  0  0  0  0  0  0  0  0  0
   -0.1807    0.9358    0.0119 O   0  0  0  0  0  0  0  0  0  0  0  0
    1.5842    1.1740    1.3512 H   0  0  0  0  0  0  0  0  0  0  0  0
    2.4736   -0.3868    1.6129 H   0  0  0  0  0  0  0  0  0  0  0  0
    3.3635    1.0332    0.9193 H   0  0  0  0  0  0  0  0  0  0  0  0
    2.5777   -0.7150   -0.8217 H   0  0  0  0  0  0  0  0  0  0  0  0
    2.2164    1.0563   -1.0847 H   0  0  0  0  0  0  0  0  0  0  0  0
    0.1970   -0.3124   -1.5763 H   0  0  0  0  0  0  0  0  0  0  0  0
    0.5963   -1.1360    1.3128 H   0  0  0  0  0  0  0  0  0  0  0  0
    0.3233   -2.2592   -0.1339 H   0  0  0  0  0  0  0  0  0  0  0  0
   -1.8266   -1.4047    1.3349 H   0  0  0  0  0  0  0  0  0  0  0  0
   -1.8237   -1.4945   -0.5128 H   0  0  0  0  0  0  0  0  0  0  0  0
   -1.8359    0.8853    1.2251 H   0  0  0  0  0  0  0  0  0  0  0  0
   -3.4168    0.8761   -0.6504 H   0  0  0  0  0  0  0  0  0  0  0  0
   -2.0964    0.2145   -1.7553 H   0  0  0  0  0  0  0  0  0  0  0  0
   -2.0104    1.9158   -1.2475 H   0  0  0  0  0  0  0  0  0  0  0  0
  1  2  1  0
  2  3  1  0
  3  4  1  0
  4  5  1  0
  5  6  1  0
  6  7  1  0
  6  8  1  0
  8  3  1  0
  1  9  1  0
  1 10  1  0
  1 11  1  0
  2 12  1  0
  2 13  1  0
  3 14  1  0
  4 15  1  0
  4 16  1  0
  5 17  1  0
  5 18  1  0
  6 19  1  0
  7 20  1  0
  7 21  1  0
  7 22  1  0
M  END
