
     RDKit          3D

 23 24  0  0  0  0  0  0  0  0999 V2000
    2.5886   -0.4973    0.5009 C   0  0  0  0  0  0  0  0  0  0  0  0
    1.9044    0.0004   -0.7547 C   0  0  0  0  0  0  0  0  0  0  0  0
    0.4826    0.2198   -0.5676 C   0  0  0  0  0  0  0  0  0  0  0  0
   -0.3662   -0.9929   -0.1523 C   0  0  0  0  0  0  0  0  0  0  0  0
   -1.2804    0.1229    0.3570 C   0  0  0  0  0  0  0  0  0  0  0  0
   -2.2827   -0.1619    1.3329 C   0  0  0  0  0  0  0  0  0  0  0  0
   -1.5651    0.8424   -0.9188 C   0  0  0  0  0  0  0  0  0  0  0  0
   -0.2557    0.9367   -1.4597 O   0  0  0  0  0  0  0  0  0  0  0  0
    0.0317    0.7939    0.7865 C   0  0  0  0  0  0  0  0  0  0  0  0
    2.4851    0.2757    1.3001 H   0  0  0  0  0  0  0  0  0  0  0  0
    2.1766   -1.4803    0.8411 H   0  0  0  0  0  0  0  0  0  0  0  0
    3.6715   -0.5825    0.2594 H   0  0  0  0  0  0  0  0  0  0  0  0
    2.0863   -0.7431   -1.5661 H   0  0  0  0  0  0  0  0  0  0  0  0
    2.4000    0.9250   -1.0582 H   0  0  0  0  0  0  0  0  0  0  0  0
    0.1378   -1.5752    0.6115 H   0  0  0  0  0  0  0  0  0  0  0  0
   -0.7804   -1.5168   -1.0190 H   0  0  0  0  0  0  0  0  0  0  0  0
   -1.9094    0.0021    2.3836 H   0  0  0  0  0  0  0  0  0  0  0  0
   -3.1514    0.5385    1.2299 H   0  0  0  0  0  0  0  0  0  0  0  0
   -2.6924   -1.2011    1.2147 H   0  0  0  0  0  0  0  0  0  0  0  0
   -2.0932    0.1329   -1.6022 H   0  0  0  0  0  0  0  0  0  0  0  0
   -2.0427    1.8092   -0.8160 H   0  0  0  0  0  0  0  0  0  0  0  0
    0.4675    0.2679    1.6541 H   0  0  0  0  0  0  0  0  0  0  0  0
   -0.0127    1.8837    0.8272 H   0  0  0  0  0  0  0  0  0  0  0  0
  1  2  1  0
  2  3  1  0
  3  4  1  0
  4  5  1  0
  5  6  1  0
  5  7  1  0
  7  8  1  0
  5  9  1  0
  8  3  1  0
  9  3  1  0
  1 10  1  0
  1 11  1  0
  1 12  1  0
  2 13  1  0
  2 14  1  0
  4 15  1  0
  4 16  1  0
  6 17  1  0
  6 18  1  0
  6 19  1  0
  7 20  1  0
  7 21  1  0
  9 22  1  0
  9 23  1  0
M  END
