
     RDKit          3D

 23 24  0  0  0  0  0  0  0  0999 V2000
    2.7035    0.2527    0.5676 C   0  0  0  0  0  0  0  0  0  0  0  0
    1.5954    0.4030   -0.4556 C   0  0  0  0  0  0  0  0  0  0  0  0
    0.2677    0.0179    0.1109 C   0  0  0  0  0  0  0  0  0  0  0  0
   -0.8226    0.7684    0.2341 C   0  0  0  0  0  0  0  0  0  0  0  0
   -0.8615    2.1900   -0.2086 C   0  0  0  0  0  0  0  0  0  0  0  0
   -1.9371   -0.0066    0.8545 C   0  0  0  0  0  0  0  0  0  0  0  0
   -1.3980   -1.3785    1.0759 C   0  0  0  0  0  0  0  0  0  0  0  0
   -1.0224   -2.1258   -0.2022 C   0  0  0  0  0  0  0  0  0  0  0  0
   -0.0017   -1.3536    0.6405 C   0  0  0  0  0  0  0  0  0  0  0  0
    2.8380    1.2384    1.0925 H   0  0  0  0  0  0  0  0  0  0  0  0
    2.5229   -0.5579    1.2756 H   0  0  0  0  0  0  0  0  0  0  0  0
    3.6526    0.1197   -0.0219 H   0  0  0  0  0  0  0  0  0  0  0  0
    1.6233    1.4360   -0.8161 H   0  0  0  0  0  0  0  0  0  0  0  0
    1.8437   -0.2491   -1.3409 H   0  0  0  0  0  0  0  0  0  0  0  0
   -0.1564    2.4146   -1.0163 H   0  0  0  0  0  0  0  0  0  0  0  0
   -1.9026    2.4683   -0.5148 H   0  0  0  0  0  0  0  0  0  0  0  0
   -0.6340    2.8267    0.6707 H   0  0  0  0  0  0  0  0  0  0  0  0
   -2.3262    0.4774    1.7496 H   0  0  0  0  0  0  0  0  0  0  0  0
   -2.7529   -0.0712    0.0809 H   0  0  0  0  0  0  0  0  0  0  0  0
   -1.7657   -1.9901    1.9174 H   0  0  0  0  0  0  0  0  0  0  0  0
   -0.9496   -3.2432   -0.1410 H   0  0  0  0  0  0  0  0  0  0  0  0
   -1.3218   -1.7120   -1.1729 H   0  0  0  0  0  0  0  0  0  0  0  0
    0.8052   -1.9250    1.1052 H   0  0  0  0  0  0  0  0  0  0  0  0
  1  2  1  0
  2  3  1  0
  3  4  2  0
  4  5  1  0
  4  6  1  0
  6  7  1  0
  7  8  1  0
  8  9  1  0
  9  3  1  0
  9  7  1  0
  1 10  1  0
  1 11  1  0
  1 12  1  0
  2 13  1  0
  2 14  1  0
  5 15  1  0
  5 16  1  0
  5 17  1  0
  6 18  1  0
  6 19  1  0
  7 20  1  0
  8 21  1  0
  8 22  1  0
  9 23  1  0
M  END
