
     RDKit          3D

 21 22  0  0  0  0  0  0  0  0999 V2000
   -2.3442   -0.2650    0.1242 C   0  0  0  0  0  0  0  0  0  0  0  0
   -1.0355   -0.6782    0.8112 C   0  0  0  0  0  0  0  0  0  0  0  0
   -0.0187    0.4209    0.7415 C   0  0  0  0  0  0  0  0  0  0  0  0
    1.2224    0.1948    1.3228 O   0  0  0  0  0  0  0  0  0  0  0  0
    1.8511    0.0373    0.0913 C   0  0  0  0  0  0  0  0  0  0  0  0
    2.1172   -1.4096   -0.2875 C   0  0  0  0  0  0  0  0  0  0  0  0
    0.6481    0.5388   -0.6293 C   0  0  0  0  0  0  0  0  0  0  0  0
   -0.1925    1.6552    0.0011 C   0  0  0  0  0  0  0  0  0  0  0  0
   -1.2985    1.9840   -0.7310 O   0  0  0  0  0  0  0  0  0  0  0  0
   -2.1206   -0.2044   -0.9555 H   0  0  0  0  0  0  0  0  0  0  0  0
   -2.7257    0.6580    0.5595 H   0  0  0  0  0  0  0  0  0  0  0  0
   -3.1189   -1.0440    0.2739 H   0  0  0  0  0  0  0  0  0  0  0  0
   -1.3109   -0.8215    1.8767 H   0  0  0  0  0  0  0  0  0  0  0  0
   -0.6783   -1.6415    0.4208 H   0  0  0  0  0  0  0  0  0  0  0  0
    2.7687    0.6731    0.0324 H   0  0  0  0  0  0  0  0  0  0  0  0
    3.1486   -1.4852   -0.6657 H   0  0  0  0  0  0  0  0  0  0  0  0
    2.0371   -2.0359    0.6263 H   0  0  0  0  0  0  0  0  0  0  0  0
    1.4328   -1.7715   -1.0570 H   0  0  0  0  0  0  0  0  0  0  0  0
    0.2137   -0.0254   -1.4779 H   0  0  0  0  0  0  0  0  0  0  0  0
    0.4392    2.5191    0.2941 H   0  0  0  0  0  0  0  0  0  0  0  0
   -1.0352    2.7010   -1.3719 H   0  0  0  0  0  0  0  0  0  0  0  0
  1  2  1  0
  2  3  1  0
  3  4  1  0
  4  5  1  0
  5  6  1  0
  5  7  1  0
  7  8  1  0
  8  9  1  0
  7  3  1  0
  8  3  1  0
  1 10  1  0
  1 11  1  0
  1 12  1  0
  2 13  1  0
  2 14  1  0
  5 15  1  0
  6 16  1  0
  6 17  1  0
  6 18  1  0
  7 19  1  0
  8 20  1  0
  9 21  1  0
M  END
