
     RDKit          3D

 18 18  0  0  0  0  0  0  0  0999 V2000
   -2.1506    0.3958    0.2333 C   0  0  0  0  0  0  0  0  0  0  0  0
   -0.6961    0.7072    0.5104 C   0  0  0  0  0  0  0  0  0  0  0  0
    0.1375    0.1833   -0.5985 C   0  0  0  0  0  0  0  0  0  0  0  0
   -0.0077   -1.3067   -0.7502 C   0  0  0  0  0  0  0  0  0  0  0  0
    1.2183   -1.5538   -0.1226 O   0  0  0  0  0  0  0  0  0  0  0  0
    1.5396   -0.2251   -0.3165 C   0  0  0  0  0  0  0  0  0  0  0  0
    2.2518    0.4246    0.7782 C   0  0  0  0  0  0  0  0  0  0  0  0
    2.5766   -0.1040    1.8253 O   0  0  0  0  0  0  0  0  0  0  0  0
   -2.6962    1.2953   -0.1478 H   0  0  0  0  0  0  0  0  0  0  0  0
   -2.6615   -0.0367    1.1163 H   0  0  0  0  0  0  0  0  0  0  0  0
   -2.2105   -0.3561   -0.5798 H   0  0  0  0  0  0  0  0  0  0  0  0
   -0.4481    0.2284    1.4764 H   0  0  0  0  0  0  0  0  0  0  0  0
   -0.6279    1.7956    0.6712 H   0  0  0  0  0  0  0  0  0  0  0  0
   -0.0317    0.6753   -1.5726 H   0  0  0  0  0  0  0  0  0  0  0  0
   -0.8098   -1.7715   -0.1477 H   0  0  0  0  0  0  0  0  0  0  0  0
   -0.0598   -1.6754   -1.7937 H   0  0  0  0  0  0  0  0  0  0  0  0
    2.1431   -0.1438   -1.2700 H   0  0  0  0  0  0  0  0  0  0  0  0
    2.5329    1.4675    0.6882 H   0  0  0  0  0  0  0  0  0  0  0  0
  1  2  1  0
  2  3  1  0
  3  4  1  0
  4  5  1  0
  5  6  1  0
  6  7  1  0
  7  8  2  0
  6  3  1  0
  1  9  1  0
  1 10  1  0
  1 11  1  0
  2 12  1  0
  2 13  1  0
  3 14  1  0
  4 15  1  0
  4 16  1  0
  6 17  1  0
  7 18  1  0
M  END
