
     RDKit          3D

 19 19  0  0  0  0  0  0  0  0999 V2000
    2.3520    0.3103   -0.3897 C   0  0  0  0  0  0  0  0  0  0  0  0
    1.4359   -0.5790    0.4227 C   0  0  0  0  0  0  0  0  0  0  0  0
    0.0967    0.0034    0.6698 C   0  0  0  0  0  0  0  0  0  0  0  0
   -0.7885    0.3553   -0.4507 C   0  0  0  0  0  0  0  0  0  0  0  0
   -1.9009    1.3639   -0.3094 C   0  0  0  0  0  0  0  0  0  0  0  0
   -1.0632   -0.9226    0.3087 C   0  0  0  0  0  0  0  0  0  0  0  0
   -0.7883   -2.0684   -0.4260 O   0  0  0  0  0  0  0  0  0  0  0  0
    1.9399    0.5576   -1.3800 H   0  0  0  0  0  0  0  0  0  0  0  0
    2.6615    1.1838    0.2050 H   0  0  0  0  0  0  0  0  0  0  0  0
    3.2769   -0.2907   -0.5841 H   0  0  0  0  0  0  0  0  0  0  0  0
    1.3848   -1.5649   -0.0570 H   0  0  0  0  0  0  0  0  0  0  0  0
    1.9597   -0.7323    1.4076 H   0  0  0  0  0  0  0  0  0  0  0  0
   -0.0347    0.5787    1.5993 H   0  0  0  0  0  0  0  0  0  0  0  0
   -0.3543    0.3093   -1.4564 H   0  0  0  0  0  0  0  0  0  0  0  0
   -2.1664    1.5137    0.7510 H   0  0  0  0  0  0  0  0  0  0  0  0
   -1.7148    2.3033   -0.8479 H   0  0  0  0  0  0  0  0  0  0  0  0
   -2.8047    0.8876   -0.7899 H   0  0  0  0  0  0  0  0  0  0  0  0
   -1.9172   -0.9893    0.9965 H   0  0  0  0  0  0  0  0  0  0  0  0
   -1.5743   -2.2196   -1.0113 H   0  0  0  0  0  0  0  0  0  0  0  0
  1  2  1  0
  2  3  1  0
  3  4  1  0
  4  5  1  0
  4  6  1  0
  6  7  1  0
  6  3  1  0
  1  8  1  0
  1  9  1  0
  1 10  1  0
  2 11  1  0
  2 12  1  0
  3 13  1  0
  4 14  1  0
  5 15  1  0
  5 16  1  0
  5 17  1  0
  6 18  1  0
  7 19  1  0
M  END
