
     RDKit          3D

 25 25  0  0  0  0  0  0  0  0999 V2000
    3.1490   -0.5796   -0.3986 C   0  0  0  0  0  0  0  0  0  0  0  0
    2.4277    0.5303    0.3495 C   0  0  0  0  0  0  0  0  0  0  0  0
    0.9761    0.3455    0.1394 C   0  0  0  0  0  0  0  0  0  0  0  0
    0.1485    1.2036   -0.4214 C   0  0  0  0  0  0  0  0  0  0  0  0
   -1.2540    0.6588   -0.4566 C   0  0  0  0  0  0  0  0  0  0  0  0
   -2.1843    1.7607   -0.0641 C   0  0  0  0  0  0  0  0  0  0  0  0
   -1.2444   -0.4865    0.5272 C   0  0  0  0  0  0  0  0  0  0  0  0
   -2.0059   -1.6775   -0.0168 C   0  0  0  0  0  0  0  0  0  0  0  0
    0.2206   -0.8522    0.5332 C   0  0  0  0  0  0  0  0  0  0  0  0
    4.0248   -0.9484    0.1716 H   0  0  0  0  0  0  0  0  0  0  0  0
    3.4145   -0.1734   -1.3941 H   0  0  0  0  0  0  0  0  0  0  0  0
    2.4556   -1.4353   -0.5184 H   0  0  0  0  0  0  0  0  0  0  0  0
    2.6956    0.5021    1.4359 H   0  0  0  0  0  0  0  0  0  0  0  0
    2.7099    1.5209   -0.0424 H   0  0  0  0  0  0  0  0  0  0  0  0
    0.3662    2.1972   -0.8323 H   0  0  0  0  0  0  0  0  0  0  0  0
   -1.5174    0.3038   -1.4537 H   0  0  0  0  0  0  0  0  0  0  0  0
   -1.9604    2.1207    0.9774 H   0  0  0  0  0  0  0  0  0  0  0  0
   -3.2435    1.4509   -0.1008 H   0  0  0  0  0  0  0  0  0  0  0  0
   -2.0415    2.5964   -0.7718 H   0  0  0  0  0  0  0  0  0  0  0  0
   -1.6081   -0.1766    1.5300 H   0  0  0  0  0  0  0  0  0  0  0  0
   -3.0162   -1.4040   -0.3750 H   0  0  0  0  0  0  0  0  0  0  0  0
   -2.0639   -2.4502    0.7717 H   0  0  0  0  0  0  0  0  0  0  0  0
   -1.3895   -2.1183   -0.8328 H   0  0  0  0  0  0  0  0  0  0  0  0
    0.3993   -1.6232   -0.2679 H   0  0  0  0  0  0  0  0  0  0  0  0
    0.5415   -1.2657    1.5106 H   0  0  0  0  0  0  0  0  0  0  0  0
  1  2  1  0
  2  3  1  0
  3  4  2  0
  4  5  1  0
  5  6  1  0
  5  7  1  0
  7  8  1  0
  7  9  1  0
  9  3  1  0
  1 10  1  0
  1 11  1  0
  1 12  1  0
  2 13  1  0
  2 14  1  0
  4 15  1  0
  5 16  1  0
  6 17  1  0
  6 18  1  0
  6 19  1  0
  7 20  1  0
  8 21  1  0
  8 22  1  0
  8 23  1  0
  9 24  1  0
  9 25  1  0
M  END
