
     RDKit          3D

 23 24  0  0  0  0  0  0  0  0999 V2000
    2.7743    0.2959    0.0550 C   0  0  0  0  0  0  0  0  0  0  0  0
    1.6063   -0.1006    0.9364 C   0  0  0  0  0  0  0  0  0  0  0  0
    0.4818   -0.4538    0.0188 C   0  0  0  0  0  0  0  0  0  0  0  0
    0.0964    0.7463   -0.8668 C   0  0  0  0  0  0  0  0  0  0  0  0
   -1.3928    0.7409   -0.6218 C   0  0  0  0  0  0  0  0  0  0  0  0
   -1.4214    0.6857    0.9130 C   0  0  0  0  0  0  0  0  0  0  0  0
   -0.8243   -0.7067    0.6717 C   0  0  0  0  0  0  0  0  0  0  0  0
   -1.7472   -0.7234   -0.5601 C   0  0  0  0  0  0  0  0  0  0  0  0
   -3.0472   -1.0205   -0.2398 O   0  0  0  0  0  0  0  0  0  0  0  0
    3.5216    0.9109    0.5962 H   0  0  0  0  0  0  0  0  0  0  0  0
    2.3588    0.8018   -0.8393 H   0  0  0  0  0  0  0  0  0  0  0  0
    3.2151   -0.6590   -0.3175 H   0  0  0  0  0  0  0  0  0  0  0  0
    1.2667    0.7994    1.5282 H   0  0  0  0  0  0  0  0  0  0  0  0
    1.9011   -0.9228    1.5832 H   0  0  0  0  0  0  0  0  0  0  0  0
    0.7604   -1.3255   -0.5895 H   0  0  0  0  0  0  0  0  0  0  0  0
    0.5580    1.6337   -0.3773 H   0  0  0  0  0  0  0  0  0  0  0  0
    0.3832    0.6004   -1.9044 H   0  0  0  0  0  0  0  0  0  0  0  0
   -2.0238    1.4292   -1.1087 H   0  0  0  0  0  0  0  0  0  0  0  0
   -2.4260    0.5827    1.3339 H   0  0  0  0  0  0  0  0  0  0  0  0
   -0.7394    1.3940    1.4000 H   0  0  0  0  0  0  0  0  0  0  0  0
   -0.9679   -1.4473    1.4046 H   0  0  0  0  0  0  0  0  0  0  0  0
   -1.2906   -1.3262   -1.3730 H   0  0  0  0  0  0  0  0  0  0  0  0
   -3.0431   -1.9350    0.1762 H   0  0  0  0  0  0  0  0  0  0  0  0
  1  2  1  0
  2  3  1  0
  3  4  1  0
  4  5  1  0
  5  6  1  0
  6  7  1  0
  7  8  1  0
  8  9  1  0
  7  3  1  0
  8  5  1  0
  1 10  1  0
  1 11  1  0
  1 12  1  0
  2 13  1  0
  2 14  1  0
  3 15  1  0
  4 16  1  0
  4 17  1  0
  5 18  1  0
  6 19  1  0
  6 20  1  0
  7 21  1  0
  8 22  1  0
  9 23  1  0
M  END
