
     RDKit          3D

 22 22  0  0  0  0  0  0  0  0999 V2000
   -2.9994    0.2418   -0.6622 C   0  0  0  0  0  0  0  0  0  0  0  0
   -1.9180    0.8826    0.1344 C   0  0  0  0  0  0  0  0  0  0  0  0
   -0.6606    0.0833    0.1854 C   0  0  0  0  0  0  0  0  0  0  0  0
   -0.3506   -1.0695   -0.3437 C   0  0  0  0  0  0  0  0  0  0  0  0
    1.0321   -1.4890   -0.0272 C   0  0  0  0  0  0  0  0  0  0  0  0
    1.6447   -0.3392    0.7120 C   0  0  0  0  0  0  0  0  0  0  0  0
    2.7315    0.3539   -0.0455 C   0  0  0  0  0  0  0  0  0  0  0  0
    0.5085    0.6063    0.9504 C   0  0  0  0  0  0  0  0  0  0  0  0
   -3.6618   -0.3389    0.0064 H   0  0  0  0  0  0  0  0  0  0  0  0
   -3.6284    1.0280   -1.1359 H   0  0  0  0  0  0  0  0  0  0  0  0
   -2.5697   -0.3714   -1.4797 H   0  0  0  0  0  0  0  0  0  0  0  0
   -2.2570    0.9994    1.1850 H   0  0  0  0  0  0  0  0  0  0  0  0
   -1.6649    1.8774   -0.2852 H   0  0  0  0  0  0  0  0  0  0  0  0
   -1.0175   -1.6693   -0.9510 H   0  0  0  0  0  0  0  0  0  0  0  0
    1.6129   -1.8015   -0.9197 H   0  0  0  0  0  0  0  0  0  0  0  0
    0.9988   -2.3611    0.6878 H   0  0  0  0  0  0  0  0  0  0  0  0
    2.0568   -0.6422    1.6946 H   0  0  0  0  0  0  0  0  0  0  0  0
    2.9283   -0.1136   -1.0255 H   0  0  0  0  0  0  0  0  0  0  0  0
    3.7092    0.3739    0.5040 H   0  0  0  0  0  0  0  0  0  0  0  0
    2.4966    1.4258   -0.2474 H   0  0  0  0  0  0  0  0  0  0  0  0
    0.7347    1.6148    0.5004 H   0  0  0  0  0  0  0  0  0  0  0  0
    0.2738    0.7087    2.0182 H   0  0  0  0  0  0  0  0  0  0  0  0
  1  2  1  0
  2  3  1  0
  3  4  2  0
  4  5  1  0
  5  6  1  0
  6  7  1  0
  6  8  1  0
  8  3  1  0
  1  9  1  0
  1 10  1  0
  1 11  1  0
  2 12  1  0
  2 13  1  0
  4 14  1  0
  5 15  1  0
  5 16  1  0
  6 17  1  0
  7 18  1  0
  7 19  1  0
  7 20  1  0
  8 21  1  0
  8 22  1  0
M  END
