
     RDKit          3D

 21 22  0  0  0  0  0  0  0  0999 V2000
    2.5543    0.0439   -0.6010 C   0  0  0  0  0  0  0  0  0  0  0  0
    1.7600   -0.0737    0.7068 C   0  0  0  0  0  0  0  0  0  0  0  0
    0.3635   -0.5000    0.3339 C   0  0  0  0  0  0  0  0  0  0  0  0
   -0.4071    0.3798   -0.5499 C   0  0  0  0  0  0  0  0  0  0  0  0
   -1.5926   -0.0545   -1.3277 C   0  0  0  0  0  0  0  0  0  0  0  0
   -2.6750    0.0070   -0.4236 O   0  0  0  0  0  0  0  0  0  0  0  0
   -2.1357   -0.6271    0.6902 C   0  0  0  0  0  0  0  0  0  0  0  0
   -0.8320    0.1201    0.8803 C   0  0  0  0  0  0  0  0  0  0  0  0
   -0.8644    1.1884    1.7230 O   0  0  0  0  0  0  0  0  0  0  0  0
    3.3257   -0.7663   -0.6242 H   0  0  0  0  0  0  0  0  0  0  0  0
    1.9044   -0.0783   -1.4836 H   0  0  0  0  0  0  0  0  0  0  0  0
    3.0210    1.0460   -0.6346 H   0  0  0  0  0  0  0  0  0  0  0  0
    1.7495    0.9070    1.2395 H   0  0  0  0  0  0  0  0  0  0  0  0
    2.1896   -0.8301    1.3793 H   0  0  0  0  0  0  0  0  0  0  0  0
    0.3041   -1.5976    0.0923 H   0  0  0  0  0  0  0  0  0  0  0  0
    0.0570    1.3676   -0.7935 H   0  0  0  0  0  0  0  0  0  0  0  0
   -1.5335   -1.0508   -1.7744 H   0  0  0  0  0  0  0  0  0  0  0  0
   -1.8261    0.7385   -2.0979 H   0  0  0  0  0  0  0  0  0  0  0  0
   -2.7888   -0.5903    1.5743 H   0  0  0  0  0  0  0  0  0  0  0  0
   -1.9308   -1.6862    0.3695 H   0  0  0  0  0  0  0  0  0  0  0  0
   -0.6431    2.0566    1.3213 H   0  0  0  0  0  0  0  0  0  0  0  0
  1  2  1  0
  2  3  1  0
  3  4  1  0
  4  5  1  0
  5  6  1  0
  6  7  1  0
  7  8  1  0
  8  9  1  0
  8  3  1  0
  8  4  1  0
  1 10  1  0
  1 11  1  0
  1 12  1  0
  2 13  1  0
  2 14  1  0
  3 15  1  0
  4 16  1  0
  5 17  1  0
  5 18  1  0
  7 19  1  0
  7 20  1  0
  9 21  1  0
M  END
