
     RDKit          3D

 21 22  0  0  0  0  0  0  0  0999 V2000
   -2.4713   -0.1287    0.3332 C   0  0  0  0  0  0  0  0  0  0  0  0
   -1.4122    0.7340   -0.2486 C   0  0  0  0  0  0  0  0  0  0  0  0
   -0.0423    0.1377   -0.2550 C   0  0  0  0  0  0  0  0  0  0  0  0
    0.2651   -1.1274   -0.9711 C   0  0  0  0  0  0  0  0  0  0  0  0
    1.2336   -1.8138   -0.3074 O   0  0  0  0  0  0  0  0  0  0  0  0
    1.6214   -1.1445    0.8085 C   0  0  0  0  0  0  0  0  0  0  0  0
    0.8192    0.1128    0.9412 C   0  0  0  0  0  0  0  0  0  0  0  0
    1.0845    1.1508   -0.1041 C   0  0  0  0  0  0  0  0  0  0  0  0
    2.1098    1.0154   -1.0055 O   0  0  0  0  0  0  0  0  0  0  0  0
   -2.6431    0.1845    1.3946 H   0  0  0  0  0  0  0  0  0  0  0  0
   -3.4391    0.1145   -0.1931 H   0  0  0  0  0  0  0  0  0  0  0  0
   -2.3197   -1.2024    0.2472 H   0  0  0  0  0  0  0  0  0  0  0  0
   -1.6622    0.9794   -1.3222 H   0  0  0  0  0  0  0  0  0  0  0  0
   -1.3968    1.6954    0.2765 H   0  0  0  0  0  0  0  0  0  0  0  0
    0.6739   -0.8651   -1.9896 H   0  0  0  0  0  0  0  0  0  0  0  0
   -0.6370   -1.7442   -1.0735 H   0  0  0  0  0  0  0  0  0  0  0  0
    1.6008   -1.7437    1.7400 H   0  0  0  0  0  0  0  0  0  0  0  0
    2.6957   -0.8267    0.6787 H   0  0  0  0  0  0  0  0  0  0  0  0
    0.4501    0.4353    1.9375 H   0  0  0  0  0  0  0  0  0  0  0  0
    0.8135    2.1976    0.1501 H   0  0  0  0  0  0  0  0  0  0  0  0
    2.6562    1.8391   -1.0374 H   0  0  0  0  0  0  0  0  0  0  0  0
  1  2  1  0
  2  3  1  0
  3  4  1  0
  4  5  1  0
  5  6  1  0
  6  7  1  0
  7  8  1  0
  8  9  1  0
  7  3  1  0
  8  3  1  0
  1 10  1  0
  1 11  1  0
  1 12  1  0
  2 13  1  0
  2 14  1  0
  4 15  1  0
  4 16  1  0
  6 17  1  0
  6 18  1  0
  7 19  1  0
  8 20  1  0
  9 21  1  0
M  END
