
     RDKit          3D

 19 20  0  0  0  0  0  0  0  0999 V2000
    2.1144   -0.5775    0.3529 C   0  0  0  0  0  0  0  0  0  0  0  0
    1.2422    0.6099   -0.0482 C   0  0  0  0  0  0  0  0  0  0  0  0
   -0.1585    0.3186   -0.1619 C   0  0  0  0  0  0  0  0  0  0  0  0
   -1.1689    1.3298   -0.5388 C   0  0  0  0  0  0  0  0  0  0  0  0
   -2.3552    0.5553   -0.4139 O   0  0  0  0  0  0  0  0  0  0  0  0
   -1.8588   -0.6907   -0.1118 C   0  0  0  0  0  0  0  0  0  0  0  0
   -0.8659   -0.3656    1.0175 C   0  0  0  0  0  0  0  0  0  0  0  0
   -0.6097   -0.8696   -0.9472 C   0  0  0  0  0  0  0  0  0  0  0  0
   -0.2261   -1.6166   -1.8044 O   0  0  0  0  0  0  0  0  0  0  0  0
    2.1779   -1.3261   -0.4483 H   0  0  0  0  0  0  0  0  0  0  0  0
    1.8303   -0.9918    1.3324 H   0  0  0  0  0  0  0  0  0  0  0  0
    3.1423   -0.1556    0.4781 H   0  0  0  0  0  0  0  0  0  0  0  0
    1.4609    1.3949    0.7049 H   0  0  0  0  0  0  0  0  0  0  0  0
    1.6676    0.9807   -1.0026 H   0  0  0  0  0  0  0  0  0  0  0  0
   -1.1133    1.5928   -1.6343 H   0  0  0  0  0  0  0  0  0  0  0  0
   -1.2088    2.2256    0.0808 H   0  0  0  0  0  0  0  0  0  0  0  0
   -2.4906   -1.5322    0.0181 H   0  0  0  0  0  0  0  0  0  0  0  0
   -1.2237    0.3724    1.7368 H   0  0  0  0  0  0  0  0  0  0  0  0
   -0.3561   -1.2543    1.3900 H   0  0  0  0  0  0  0  0  0  0  0  0
  1  2  1  0
  2  3  1  0
  3  4  1  0
  4  5  1  0
  5  6  1  0
  6  7  1  0
  6  8  1  0
  8  9  2  0
  7  3  1  0
  8  3  1  0
  1 10  1  0
  1 11  1  0
  1 12  1  0
  2 13  1  0
  2 14  1  0
  4 15  1  0
  4 16  1  0
  6 17  1  0
  7 18  1  0
  7 19  1  0
M  END
