
     RDKit          3D

 23 23  0  0  0  0  0  0  0  0999 V2000
    2.5144    0.4392    0.7217 C   0  0  0  0  0  0  0  0  0  0  0  0
    1.7419   -0.0342   -0.4841 C   0  0  0  0  0  0  0  0  0  0  0  0
    0.3797   -0.5470   -0.1400 C   0  0  0  0  0  0  0  0  0  0  0  0
   -0.2450   -0.9553   -1.3100 O   0  0  0  0  0  0  0  0  0  0  0  0
   -1.3764   -1.6978   -0.9101 C   0  0  0  0  0  0  0  0  0  0  0  0
   -2.3032   -0.9103   -0.2784 O   0  0  0  0  0  0  0  0  0  0  0  0
   -1.8350   -0.2167    0.8109 C   0  0  0  0  0  0  0  0  0  0  0  0
   -0.4986    0.4808    0.5149 C   0  0  0  0  0  0  0  0  0  0  0  0
   -0.8422    1.6218   -0.4354 C   0  0  0  0  0  0  0  0  0  0  0  0
    3.5920    0.4923    0.3966 H   0  0  0  0  0  0  0  0  0  0  0  0
    2.4819   -0.3628    1.4885 H   0  0  0  0  0  0  0  0  0  0  0  0
    2.1353    1.4057    1.0738 H   0  0  0  0  0  0  0  0  0  0  0  0
    1.6934    0.7558   -1.2657 H   0  0  0  0  0  0  0  0  0  0  0  0
    2.3143   -0.8700   -0.9310 H   0  0  0  0  0  0  0  0  0  0  0  0
    0.4564   -1.4088    0.5218 H   0  0  0  0  0  0  0  0  0  0  0  0
   -0.9772   -2.4853   -0.2164 H   0  0  0  0  0  0  0  0  0  0  0  0
   -1.8333   -2.1339   -1.8055 H   0  0  0  0  0  0  0  0  0  0  0  0
   -2.5538    0.6325    0.9882 H   0  0  0  0  0  0  0  0  0  0  0  0
   -1.7987   -0.7851    1.7367 H   0  0  0  0  0  0  0  0  0  0  0  0
   -0.0965    0.8747    1.4564 H   0  0  0  0  0  0  0  0  0  0  0  0
   -0.0170    1.9032   -1.0863 H   0  0  0  0  0  0  0  0  0  0  0  0
   -1.7449    1.3373   -1.0478 H   0  0  0  0  0  0  0  0  0  0  0  0
   -1.1876    2.4639    0.2009 H   0  0  0  0  0  0  0  0  0  0  0  0
  1  2  1  0
  2  3  1  0
  3  4  1  0
  4  5  1  0
  5  6  1  0
  6  7  1  0
  7  8  1  0
  8  9  1  0
  8  3  1  0
  1 10  1  0
  1 11  1  0
  1 12  1  0
  2 13  1  0
  2 14  1  0
  3 15  1  0
  5 16  1  0
  5 17  1  0
  7 18  1  0
  7 19  1  0
  8 20  1  0
  9 21  1  0
  9 22  1  0
  9 23  1  0
M  END
