
     RDKit          3D

 20 20  0  0  0  0  0  0  0  0999 V2000
    1.7690   -1.4869   -0.1411 C   0  0  0  0  0  0  0  0  0  0  0  0
    1.5871   -0.0058   -0.2281 C   0  0  0  0  0  0  0  0  0  0  0  0
    0.4112    0.5210    0.5528 C   0  0  0  0  0  0  0  0  0  0  0  0
    0.3937    1.9065    0.3642 O   0  0  0  0  0  0  0  0  0  0  0  0
   -0.9233    2.2780    0.2669 C   0  0  0  0  0  0  0  0  0  0  0  0
   -1.6914    1.0748   -0.1199 C   0  0  0  0  0  0  0  0  0  0  0  0
   -0.8806    0.0402    0.0572 C   0  0  0  0  0  0  0  0  0  0  0  0
   -1.2779   -1.3648   -0.2206 C   0  0  0  0  0  0  0  0  0  0  0  0
    2.8399   -1.7697   -0.3340 H   0  0  0  0  0  0  0  0  0  0  0  0
    1.1713   -2.0393   -0.8902 H   0  0  0  0  0  0  0  0  0  0  0  0
    1.5500   -1.9108    0.8622 H   0  0  0  0  0  0  0  0  0  0  0  0
    1.4177    0.2410   -1.3055 H   0  0  0  0  0  0  0  0  0  0  0  0
    2.5230    0.5059    0.0511 H   0  0  0  0  0  0  0  0  0  0  0  0
    0.5827    0.3420    1.6328 H   0  0  0  0  0  0  0  0  0  0  0  0
   -1.1255    3.0663   -0.4632 H   0  0  0  0  0  0  0  0  0  0  0  0
   -1.2687    2.6726    1.2663 H   0  0  0  0  0  0  0  0  0  0  0  0
   -2.7347    1.0587   -0.4833 H   0  0  0  0  0  0  0  0  0  0  0  0
   -1.1483   -1.5956   -1.2935 H   0  0  0  0  0  0  0  0  0  0  0  0
   -2.3895   -1.4672   -0.0423 H   0  0  0  0  0  0  0  0  0  0  0  0
   -0.8058   -2.0671    0.4683 H   0  0  0  0  0  0  0  0  0  0  0  0
  1  2  1  0
  2  3  1  0
  3  4  1  0
  4  5  1  0
  5  6  1  0
  6  7  2  0
  7  8  1  0
  7  3  1  0
  1  9  1  0
  1 10  1  0
  1 11  1  0
  2 12  1  0
  2 13  1  0
  3 14  1  0
  5 15  1  0
  5 16  1  0
  6 17  1  0
  8 18  1  0
  8 19  1  0
  8 20  1  0
M  END
