
     RDKit          3D

 21 21  0  0  0  0  0  0  0  0999 V2000
    2.4112   -0.3320    0.2978 C   0  0  0  0  0  0  0  0  0  0  0  0
    1.1966   -0.8288   -0.4288 C   0  0  0  0  0  0  0  0  0  0  0  0
   -0.0210    0.0307   -0.1999 C   0  0  0  0  0  0  0  0  0  0  0  0
    0.1750    1.3068   -0.6143 O   0  0  0  0  0  0  0  0  0  0  0  0
   -0.8701    2.1722   -0.4519 C   0  0  0  0  0  0  0  0  0  0  0  0
   -0.7076   -0.2095    1.0981 C   0  0  0  0  0  0  0  0  0  0  0  0
   -1.4391   -1.3590    0.3948 C   0  0  0  0  0  0  0  0  0  0  0  0
   -1.1975   -0.6197   -0.8832 C   0  0  0  0  0  0  0  0  0  0  0  0
   -1.6766   -0.5272   -1.9980 O   0  0  0  0  0  0  0  0  0  0  0  0
    2.3062    0.7041    0.6777 H   0  0  0  0  0  0  0  0  0  0  0  0
    2.6248   -1.0234    1.1394 H   0  0  0  0  0  0  0  0  0  0  0  0
    3.3212   -0.3780   -0.3592 H   0  0  0  0  0  0  0  0  0  0  0  0
    0.9295   -1.8611   -0.1439 H   0  0  0  0  0  0  0  0  0  0  0  0
    1.3967   -0.8150   -1.5237 H   0  0  0  0  0  0  0  0  0  0  0  0
   -1.7836    1.8419   -1.0082 H   0  0  0  0  0  0  0  0  0  0  0  0
   -0.5769    3.1389   -0.9582 H   0  0  0  0  0  0  0  0  0  0  0  0
   -1.0858    2.4518    0.5940 H   0  0  0  0  0  0  0  0  0  0  0  0
   -1.4644    0.5720    1.3331 H   0  0  0  0  0  0  0  0  0  0  0  0
   -0.0632   -0.5282    1.9316 H   0  0  0  0  0  0  0  0  0  0  0  0
   -2.5211   -1.4028    0.6224 H   0  0  0  0  0  0  0  0  0  0  0  0
   -0.9543   -2.3337    0.4805 H   0  0  0  0  0  0  0  0  0  0  0  0
  1  2  1  0
  2  3  1  0
  3  4  1  0
  4  5  1  0
  3  6  1  0
  6  7  1  0
  7  8  1  0
  8  9  2  0
  8  3  1  0
  1 10  1  0
  1 11  1  0
  1 12  1  0
  2 13  1  0
  2 14  1  0
  5 15  1  0
  5 16  1  0
  5 17  1  0
  6 18  1  0
  6 19  1  0
  7 20  1  0
  7 21  1  0
M  END
