
     RDKit          3D

 22 22  0  0  0  0  0  0  0  0999 V2000
   -2.2494   -0.3496   -0.2622 C   0  0  0  0  0  0  0  0  0  0  0  0
   -0.9702   -0.5947    0.4721 C   0  0  0  0  0  0  0  0  0  0  0  0
    0.1519    0.3092    0.0696 C   0  0  0  0  0  0  0  0  0  0  0  0
   -0.2314    1.7325    0.3255 C   0  0  0  0  0  0  0  0  0  0  0  0
    1.3748   -0.0989    0.8894 C   0  0  0  0  0  0  0  0  0  0  0  0
    1.8986   -1.2232   -0.0160 C   0  0  0  0  0  0  0  0  0  0  0  0
    1.6942   -0.7833   -1.3003 O   0  0  0  0  0  0  0  0  0  0  0  0
    0.6505    0.1035   -1.3171 C   0  0  0  0  0  0  0  0  0  0  0  0
   -2.9279   -1.2179   -0.0317 H   0  0  0  0  0  0  0  0  0  0  0  0
   -2.1464   -0.2633   -1.3495 H   0  0  0  0  0  0  0  0  0  0  0  0
   -2.7550    0.5589    0.1240 H   0  0  0  0  0  0  0  0  0  0  0  0
   -0.7188   -1.6712    0.3893 H   0  0  0  0  0  0  0  0  0  0  0  0
   -1.1679   -0.4097    1.5537 H   0  0  0  0  0  0  0  0  0  0  0  0
    0.6102    2.4411    0.1639 H   0  0  0  0  0  0  0  0  0  0  0  0
   -0.6885    1.8641    1.3156 H   0  0  0  0  0  0  0  0  0  0  0  0
   -1.0054    2.0095   -0.4217 H   0  0  0  0  0  0  0  0  0  0  0  0
    1.1184   -0.4551    1.8864 H   0  0  0  0  0  0  0  0  0  0  0  0
    2.1545    0.6848    0.8601 H   0  0  0  0  0  0  0  0  0  0  0  0
    1.3148   -2.1499    0.1498 H   0  0  0  0  0  0  0  0  0  0  0  0
    2.9548   -1.4476    0.2130 H   0  0  0  0  0  0  0  0  0  0  0  0
   -0.1389   -0.1326   -2.0544 H   0  0  0  0  0  0  0  0  0  0  0  0
    1.0772    1.0935   -1.6596 H   0  0  0  0  0  0  0  0  0  0  0  0
  1  2  1  0
  2  3  1  0
  3  4  1  0
  3  5  1  0
  5  6  1  0
  6  7  1  0
  7  8  1  0
  8  3  1  0
  1  9  1  0
  1 10  1  0
  1 11  1  0
  2 12  1  0
  2 13  1  0
  4 14  1  0
  4 15  1  0
  4 16  1  0
  5 17  1  0
  5 18  1  0
  6 19  1  0
  6 20  1  0
  8 21  1  0
  8 22  1  0
M  END
