
     RDKit          3D

 23 23  0  0  0  0  0  0  0  0999 V2000
    2.1762   -0.8911   -0.4448 C   0  0  0  0  0  0  0  0  0  0  0  0
    1.6205    0.2751    0.3038 C   0  0  0  0  0  0  0  0  0  0  0  0
    0.1302    0.4346    0.1558 C   0  0  0  0  0  0  0  0  0  0  0  0
   -0.2475    1.6687    0.9850 C   0  0  0  0  0  0  0  0  0  0  0  0
   -0.5741   -0.7731    0.7350 C   0  0  0  0  0  0  0  0  0  0  0  0
   -1.3094   -1.4422   -0.4135 C   0  0  0  0  0  0  0  0  0  0  0  0
   -2.2797   -0.5571   -0.8481 O   0  0  0  0  0  0  0  0  0  0  0  0
   -1.6794    0.6497   -1.1394 C   0  0  0  0  0  0  0  0  0  0  0  0
   -0.2837    0.5810   -1.1467 O   0  0  0  0  0  0  0  0  0  0  0  0
    3.2507   -0.7189   -0.7175 H   0  0  0  0  0  0  0  0  0  0  0  0
    1.6614   -1.0963   -1.4033 H   0  0  0  0  0  0  0  0  0  0  0  0
    2.1762   -1.8008    0.1924 H   0  0  0  0  0  0  0  0  0  0  0  0
    2.1587    1.1930   -0.0102 H   0  0  0  0  0  0  0  0  0  0  0  0
    1.8233    0.1631    1.3942 H   0  0  0  0  0  0  0  0  0  0  0  0
   -0.1283    2.5422    0.3227 H   0  0  0  0  0  0  0  0  0  0  0  0
    0.4865    1.7924    1.8247 H   0  0  0  0  0  0  0  0  0  0  0  0
   -1.2333    1.5726    1.4402 H   0  0  0  0  0  0  0  0  0  0  0  0
    0.1388   -1.4778    1.2314 H   0  0  0  0  0  0  0  0  0  0  0  0
   -1.3706   -0.4253    1.4397 H   0  0  0  0  0  0  0  0  0  0  0  0
   -0.6624   -1.6789   -1.2626 H   0  0  0  0  0  0  0  0  0  0  0  0
   -1.7344   -2.4062   -0.0525 H   0  0  0  0  0  0  0  0  0  0  0  0
   -2.0457    1.4326   -0.4380 H   0  0  0  0  0  0  0  0  0  0  0  0
   -2.0740    0.9627   -2.1482 H   0  0  0  0  0  0  0  0  0  0  0  0
  1  2  1  0
  2  3  1  0
  3  4  1  0
  3  5  1  0
  5  6  1  0
  6  7  1  0
  7  8  1  0
  8  9  1  0
  9  3  1  0
  1 10  1  0
  1 11  1  0
  1 12  1  0
  2 13  1  0
  2 14  1  0
  4 15  1  0
  4 16  1  0
  4 17  1  0
  5 18  1  0
  5 19  1  0
  6 20  1  0
  6 21  1  0
  8 22  1  0
  8 23  1  0
M  END
