
     RDKit          3D

 23 24  0  0  0  0  0  0  0  0999 V2000
    1.9657   -1.3416    0.3386 C   0  0  0  0  0  0  0  0  0  0  0  0
    1.4628   -0.0330   -0.1148 C   0  0  0  0  0  0  0  0  0  0  0  0
    0.0419    0.0724   -0.5529 C   0  0  0  0  0  0  0  0  0  0  0  0
   -0.2843   -0.7980   -1.6283 C   0  0  0  0  0  0  0  0  0  0  0  0
   -0.9930   -1.0665   -0.4435 C   0  0  0  0  0  0  0  0  0  0  0  0
   -0.9721   -1.0093    1.0137 C   0  0  0  0  0  0  0  0  0  0  0  0
   -1.3532    0.4532    1.1541 C   0  0  0  0  0  0  0  0  0  0  0  0
   -0.7124    1.0730    0.1748 C   0  0  0  0  0  0  0  0  0  0  0  0
   -0.7881    2.5568   -0.0919 C   0  0  0  0  0  0  0  0  0  0  0  0
    2.1945   -1.3101    1.4339 H   0  0  0  0  0  0  0  0  0  0  0  0
    2.9839   -1.5454   -0.1370 H   0  0  0  0  0  0  0  0  0  0  0  0
    1.3943   -2.2345    0.1432 H   0  0  0  0  0  0  0  0  0  0  0  0
    2.0476    0.2158   -1.0642 H   0  0  0  0  0  0  0  0  0  0  0  0
    1.7804    0.8215    0.5391 H   0  0  0  0  0  0  0  0  0  0  0  0
    0.4497   -1.5418   -1.9930 H   0  0  0  0  0  0  0  0  0  0  0  0
   -0.7144   -0.2795   -2.5242 H   0  0  0  0  0  0  0  0  0  0  0  0
   -2.1068   -0.7911   -0.6662 H   0  0  0  0  0  0  0  0  0  0  0  0
   -0.1268   -1.2656    1.6065 H   0  0  0  0  0  0  0  0  0  0  0  0
   -1.8131   -1.6414    1.4480 H   0  0  0  0  0  0  0  0  0  0  0  0
   -1.9900    0.8924    1.8726 H   0  0  0  0  0  0  0  0  0  0  0  0
   -1.4918    2.7506   -0.9518 H   0  0  0  0  0  0  0  0  0  0  0  0
   -1.1875    3.0760    0.7882 H   0  0  0  0  0  0  0  0  0  0  0  0
    0.2125    2.9463   -0.3450 H   0  0  0  0  0  0  0  0  0  0  0  0
  1  2  1  0
  2  3  1  0
  3  4  1  0
  4  5  1  0
  5  6  1  0
  6  7  1  0
  7  8  2  0
  8  9  1  0
  5  3  1  0
  8  3  1  0
  1 10  1  0
  1 11  1  0
  1 12  1  0
  2 13  1  0
  2 14  1  0
  4 15  1  0
  4 16  1  0
  5 17  1  0
  6 18  1  0
  6 19  1  0
  7 20  1  0
  9 21  1  0
  9 22  1  0
  9 23  1  0
M  END
