
     RDKit          3D

 27 27  0  0  0  0  0  0  0  0999 V2000
    3.3491   -0.0368   -0.2453 C   0  0  0  0  0  0  0  0  0  0  0  0
    2.0492   -0.2651   -0.9930 C   0  0  0  0  0  0  0  0  0  0  0  0
    0.9505    0.4026   -0.2484 C   0  0  0  0  0  0  0  0  0  0  0  0
    0.6069    0.0419    1.1543 C   0  0  0  0  0  0  0  0  0  0  0  0
   -0.3410   -0.2980    0.0500 C   0  0  0  0  0  0  0  0  0  0  0  0
   -0.4559   -1.7810   -0.2221 C   0  0  0  0  0  0  0  0  0  0  0  0
   -1.5831    0.4987   -0.1875 C   0  0  0  0  0  0  0  0  0  0  0  0
   -2.8425   -0.2724    0.1347 C   0  0  0  0  0  0  0  0  0  0  0  0
   -1.5663    1.8511    0.4990 C   0  0  0  0  0  0  0  0  0  0  0  0
    3.4521    1.0625   -0.1288 H   0  0  0  0  0  0  0  0  0  0  0  0
    4.2115   -0.4551   -0.8048 H   0  0  0  0  0  0  0  0  0  0  0  0
    3.3188   -0.5406    0.7351 H   0  0  0  0  0  0  0  0  0  0  0  0
    1.9408   -1.3572   -1.1091 H   0  0  0  0  0  0  0  0  0  0  0  0
    2.1192    0.1938   -2.0007 H   0  0  0  0  0  0  0  0  0  0  0  0
    0.8942    1.5052   -0.4541 H   0  0  0  0  0  0  0  0  0  0  0  0
    1.1580   -0.7734    1.6820 H   0  0  0  0  0  0  0  0  0  0  0  0
    0.2467    0.8205    1.8507 H   0  0  0  0  0  0  0  0  0  0  0  0
   -1.2104   -2.2622    0.4697 H   0  0  0  0  0  0  0  0  0  0  0  0
   -0.7810   -1.9955   -1.2559 H   0  0  0  0  0  0  0  0  0  0  0  0
    0.4822   -2.3133   -0.0512 H   0  0  0  0  0  0  0  0  0  0  0  0
   -1.6482    0.7351   -1.2907 H   0  0  0  0  0  0  0  0  0  0  0  0
   -2.9928   -1.0088   -0.6739 H   0  0  0  0  0  0  0  0  0  0  0  0
   -3.6810    0.4556    0.1320 H   0  0  0  0  0  0  0  0  0  0  0  0
   -2.7652   -0.8263    1.0885 H   0  0  0  0  0  0  0  0  0  0  0  0
   -2.5662    2.3169    0.2511 H   0  0  0  0  0  0  0  0  0  0  0  0
   -1.5268    1.7914    1.5858 H   0  0  0  0  0  0  0  0  0  0  0  0
   -0.8190    2.5103    0.0325 H   0  0  0  0  0  0  0  0  0  0  0  0
  1  2  1  0
  2  3  1  0
  3  4  1  0
  4  5  1  0
  5  6  1  0
  5  7  1  0
  7  8  1  0
  7  9  1  0
  5  3  1  0
  1 10  1  0
  1 11  1  0
  1 12  1  0
  2 13  1  0
  2 14  1  0
  3 15  1  0
  4 16  1  0
  4 17  1  0
  6 18  1  0
  6 19  1  0
  6 20  1  0
  7 21  1  0
  8 22  1  0
  8 23  1  0
  8 24  1  0
  9 25  1  0
  9 26  1  0
  9 27  1  0
M  END
