
     RDKit          3D

 21 21  0  0  0  0  0  0  0  0999 V2000
   -2.1292    0.8730   -0.1479 C   0  0  0  0  0  0  0  0  0  0  0  0
   -1.0926    0.0723   -0.8631 C   0  0  0  0  0  0  0  0  0  0  0  0
    0.1312   -0.2101   -0.0302 C   0  0  0  0  0  0  0  0  0  0  0  0
    0.7891    1.0341    0.3933 C   0  0  0  0  0  0  0  0  0  0  0  0
    2.1764    1.4214    0.0838 C   0  0  0  0  0  0  0  0  0  0  0  0
    0.1265    1.8137    1.0597 O   0  0  0  0  0  0  0  0  0  0  0  0
   -0.0545   -1.2756    0.9933 C   0  0  0  0  0  0  0  0  0  0  0  0
    0.4768   -2.1084   -0.1570 C   0  0  0  0  0  0  0  0  0  0  0  0
    1.0193   -1.0045   -0.7887 O   0  0  0  0  0  0  0  0  0  0  0  0
   -2.0809    0.7640    0.9635 H   0  0  0  0  0  0  0  0  0  0  0  0
   -2.0114    1.9336   -0.4268 H   0  0  0  0  0  0  0  0  0  0  0  0
   -3.1323    0.5437   -0.5447 H   0  0  0  0  0  0  0  0  0  0  0  0
   -1.5294   -0.8762   -1.2541 H   0  0  0  0  0  0  0  0  0  0  0  0
   -0.7307    0.6221   -1.7734 H   0  0  0  0  0  0  0  0  0  0  0  0
    2.3825    1.0621   -0.9643 H   0  0  0  0  0  0  0  0  0  0  0  0
    2.2537    2.5270    0.0293 H   0  0  0  0  0  0  0  0  0  0  0  0
    2.9227    0.9654    0.7643 H   0  0  0  0  0  0  0  0  0  0  0  0
    0.6062   -1.2392    1.8801 H   0  0  0  0  0  0  0  0  0  0  0  0
   -1.0782   -1.5239    1.2950 H   0  0  0  0  0  0  0  0  0  0  0  0
    1.3091   -2.7817    0.1722 H   0  0  0  0  0  0  0  0  0  0  0  0
   -0.3543   -2.6126   -0.6844 H   0  0  0  0  0  0  0  0  0  0  0  0
  1  2  1  0
  2  3  1  0
  3  4  1  0
  4  5  1  0
  4  6  2  0
  3  7  1  0
  7  8  1  0
  8  9  1  0
  9  3  1  0
  1 10  1  0
  1 11  1  0
  1 12  1  0
  2 13  1  0
  2 14  1  0
  5 15  1  0
  5 16  1  0
  5 17  1  0
  7 18  1  0
  7 19  1  0
  8 20  1  0
  8 21  1  0
M  END
