
     RDKit          3D

 23 23  0  0  0  0  0  0  0  0999 V2000
    2.6260   -0.9676    0.7586 C   0  0  0  0  0  0  0  0  0  0  0  0
    1.7940   -0.3881   -0.3223 C   0  0  0  0  0  0  0  0  0  0  0  0
    0.8874    0.7279    0.1220 C   0  0  0  0  0  0  0  0  0  0  0  0
   -0.0263    1.1908   -1.0052 C   0  0  0  0  0  0  0  0  0  0  0  0
   -0.5557    0.5328    0.2950 C   0  0  0  0  0  0  0  0  0  0  0  0
   -1.4634    1.4726    0.9958 C   0  0  0  0  0  0  0  0  0  0  0  0
   -1.0218   -0.8845    0.1160 C   0  0  0  0  0  0  0  0  0  0  0  0
   -2.2962   -1.1308   -0.6571 C   0  0  0  0  0  0  0  0  0  0  0  0
   -0.4380   -1.8095    0.5773 O   0  0  0  0  0  0  0  0  0  0  0  0
    3.6569   -1.1735    0.4191 H   0  0  0  0  0  0  0  0  0  0  0  0
    2.2337   -1.9843    1.0713 H   0  0  0  0  0  0  0  0  0  0  0  0
    2.6061   -0.3816    1.7049 H   0  0  0  0  0  0  0  0  0  0  0  0
    2.4683    0.0654   -1.1091 H   0  0  0  0  0  0  0  0  0  0  0  0
    1.1965   -1.1532   -0.8352 H   0  0  0  0  0  0  0  0  0  0  0  0
    1.3360    1.5550    0.7285 H   0  0  0  0  0  0  0  0  0  0  0  0
   -0.1366    2.2771   -1.1289 H   0  0  0  0  0  0  0  0  0  0  0  0
   -0.1627    0.5608   -1.8841 H   0  0  0  0  0  0  0  0  0  0  0  0
   -2.3481    1.7037    0.4063 H   0  0  0  0  0  0  0  0  0  0  0  0
   -0.8977    2.4392    1.1961 H   0  0  0  0  0  0  0  0  0  0  0  0
   -1.8146    1.0731    1.9866 H   0  0  0  0  0  0  0  0  0  0  0  0
   -2.4142   -2.2518   -0.7523 H   0  0  0  0  0  0  0  0  0  0  0  0
   -2.0693   -0.8265   -1.7192 H   0  0  0  0  0  0  0  0  0  0  0  0
   -3.1603   -0.6469   -0.2185 H   0  0  0  0  0  0  0  0  0  0  0  0
  1  2  1  0
  2  3  1  0
  3  4  1  0
  4  5  1  0
  5  6  1  0
  5  7  1  0
  7  8  1  0
  7  9  2  0
  5  3  1  0
  1 10  1  0
  1 11  1  0
  1 12  1  0
  2 13  1  0
  2 14  1  0
  3 15  1  0
  4 16  1  0
  4 17  1  0
  6 18  1  0
  6 19  1  0
  6 20  1  0
  8 21  1  0
  8 22  1  0
  8 23  1  0
M  END
