
     RDKit          3D

 19 20  0  0  0  0  0  0  0  0999 V2000
    2.1097    0.7669    0.3550 C   0  0  0  0  0  0  0  0  0  0  0  0
    1.4705   -0.5782    0.0221 C   0  0  0  0  0  0  0  0  0  0  0  0
    0.0657   -0.3490   -0.4042 C   0  0  0  0  0  0  0  0  0  0  0  0
   -0.8586   -1.4145   -0.8012 C   0  0  0  0  0  0  0  0  0  0  0  0
   -0.9894   -0.8268    0.5337 C   0  0  0  0  0  0  0  0  0  0  0  0
   -1.7638    0.3973    0.8532 C   0  0  0  0  0  0  0  0  0  0  0  0
   -1.2073    1.4945    0.0229 C   0  0  0  0  0  0  0  0  0  0  0  0
   -1.5629    2.6914    0.1056 O   0  0  0  0  0  0  0  0  0  0  0  0
   -0.2684    0.9578   -0.8147 O   0  0  0  0  0  0  0  0  0  0  0  0
    2.3221    0.8594    1.4309 H   0  0  0  0  0  0  0  0  0  0  0  0
    1.4235    1.5936    0.0880 H   0  0  0  0  0  0  0  0  0  0  0  0
    3.0117    0.8709   -0.2868 H   0  0  0  0  0  0  0  0  0  0  0  0
    2.0769   -1.1294   -0.7362 H   0  0  0  0  0  0  0  0  0  0  0  0
    1.5041   -1.1892    0.9472 H   0  0  0  0  0  0  0  0  0  0  0  0
   -1.6307   -1.1682   -1.5698 H   0  0  0  0  0  0  0  0  0  0  0  0
   -0.5519   -2.4783   -0.8555 H   0  0  0  0  0  0  0  0  0  0  0  0
   -0.7202   -1.4712    1.4113 H   0  0  0  0  0  0  0  0  0  0  0  0
   -1.5710    0.6835    1.9154 H   0  0  0  0  0  0  0  0  0  0  0  0
   -2.8600    0.2897    0.6963 H   0  0  0  0  0  0  0  0  0  0  0  0
  1  2  1  0
  2  3  1  0
  3  4  1  0
  4  5  1  0
  5  6  1  0
  6  7  1  0
  7  8  2  0
  7  9  1  0
  5  3  1  0
  9  3  1  0
  1 10  1  0
  1 11  1  0
  1 12  1  0
  2 13  1  0
  2 14  1  0
  4 15  1  0
  4 16  1  0
  5 17  1  0
  6 18  1  0
  6 19  1  0
M  END
