
     RDKit          3D

 21 21  0  0  0  0  0  0  0  0999 V2000
    2.8450   -0.2766   -0.2733 C   0  0  0  0  0  0  0  0  0  0  0  0
    1.7218    0.7317   -0.2680 C   0  0  0  0  0  0  0  0  0  0  0  0
    0.5651    0.3162    0.5953 C   0  0  0  0  0  0  0  0  0  0  0  0
   -0.0805   -0.9894    0.1823 C   0  0  0  0  0  0  0  0  0  0  0  0
   -1.0933   -0.1771   -0.5533 C   0  0  0  0  0  0  0  0  0  0  0  0
   -2.5382   -0.4976   -0.2296 C   0  0  0  0  0  0  0  0  0  0  0  0
   -3.3690    0.3306   -0.9833 O   0  0  0  0  0  0  0  0  0  0  0  0
   -0.6715    1.0303    0.1964 C   0  0  0  0  0  0  0  0  0  0  0  0
   -1.1647    2.1204    0.3778 O   0  0  0  0  0  0  0  0  0  0  0  0
    2.5695   -1.1607   -0.8692 H   0  0  0  0  0  0  0  0  0  0  0  0
    3.1899   -0.5530    0.7324 H   0  0  0  0  0  0  0  0  0  0  0  0
    3.6953    0.2128   -0.8251 H   0  0  0  0  0  0  0  0  0  0  0  0
    1.3477    0.7892   -1.3212 H   0  0  0  0  0  0  0  0  0  0  0  0
    2.0755    1.7223    0.0802 H   0  0  0  0  0  0  0  0  0  0  0  0
    0.7342    0.3891    1.6874 H   0  0  0  0  0  0  0  0  0  0  0  0
    0.6060   -1.5707   -0.4963 H   0  0  0  0  0  0  0  0  0  0  0  0
   -0.4674   -1.6063    1.0198 H   0  0  0  0  0  0  0  0  0  0  0  0
   -0.8742   -0.1484   -1.6318 H   0  0  0  0  0  0  0  0  0  0  0  0
   -2.7570   -0.3133    0.8236 H   0  0  0  0  0  0  0  0  0  0  0  0
   -2.7908   -1.5389   -0.4949 H   0  0  0  0  0  0  0  0  0  0  0  0
   -3.5436    1.1894   -0.5270 H   0  0  0  0  0  0  0  0  0  0  0  0
  1  2  1  0
  2  3  1  0
  3  4  1  0
  4  5  1  0
  5  6  1  0
  6  7  1  0
  5  8  1  0
  8  9  2  0
  8  3  1  0
  1 10  1  0
  1 11  1  0
  1 12  1  0
  2 13  1  0
  2 14  1  0
  3 15  1  0
  4 16  1  0
  4 17  1  0
  5 18  1  0
  6 19  1  0
  6 20  1  0
  7 21  1  0
M  END
