
     RDKit          3D

 23 23  0  0  0  0  0  0  0  0999 V2000
   -2.6779    0.7885    0.5169 C   0  0  0  0  0  0  0  0  0  0  0  0
   -1.9595   -0.2390   -0.2900 C   0  0  0  0  0  0  0  0  0  0  0  0
   -0.5085   -0.0674   -0.3676 C   0  0  0  0  0  0  0  0  0  0  0  0
   -0.0032    0.9879    0.2934 C   0  0  0  0  0  0  0  0  0  0  0  0
    1.4319    1.3731    0.3655 C   0  0  0  0  0  0  0  0  0  0  0  0
    2.3099    0.1743    0.6328 C   0  0  0  0  0  0  0  0  0  0  0  0
    2.3997   -0.5534   -0.5541 O   0  0  0  0  0  0  0  0  0  0  0  0
    1.4779   -1.5702   -0.4896 C   0  0  0  0  0  0  0  0  0  0  0  0
    0.2000   -1.0957   -1.1741 C   0  0  0  0  0  0  0  0  0  0  0  0
   -2.4273    0.7641    1.5812 H   0  0  0  0  0  0  0  0  0  0  0  0
   -3.7756    0.5237    0.4612 H   0  0  0  0  0  0  0  0  0  0  0  0
   -2.6125    1.7911    0.0487 H   0  0  0  0  0  0  0  0  0  0  0  0
   -2.3903   -0.2876   -1.3129 H   0  0  0  0  0  0  0  0  0  0  0  0
   -2.1466   -1.2473    0.1826 H   0  0  0  0  0  0  0  0  0  0  0  0
   -0.7326    1.5899    0.8080 H   0  0  0  0  0  0  0  0  0  0  0  0
    1.5707    2.0565    1.2535 H   0  0  0  0  0  0  0  0  0  0  0  0
    1.7649    1.9539   -0.5126 H   0  0  0  0  0  0  0  0  0  0  0  0
    1.8473   -0.4156    1.4422 H   0  0  0  0  0  0  0  0  0  0  0  0
    3.3079    0.5241    0.9770 H   0  0  0  0  0  0  0  0  0  0  0  0
    1.1839   -1.7849    0.5705 H   0  0  0  0  0  0  0  0  0  0  0  0
    1.7908   -2.5092   -0.9638 H   0  0  0  0  0  0  0  0  0  0  0  0
    0.3931   -0.7618   -2.2141 H   0  0  0  0  0  0  0  0  0  0  0  0
   -0.4439   -1.9949   -1.2547 H   0  0  0  0  0  0  0  0  0  0  0  0
  1  2  1  0
  2  3  1  0
  3  4  2  0
  4  5  1  0
  5  6  1  0
  6  7  1  0
  7  8  1  0
  8  9  1  0
  9  3  1  0
  1 10  1  0
  1 11  1  0
  1 12  1  0
  2 13  1  0
  2 14  1  0
  4 15  1  0
  5 16  1  0
  5 17  1  0
  6 18  1  0
  6 19  1  0
  8 20  1  0
  8 21  1  0
  9 22  1  0
  9 23  1  0
M  END
