
     RDKit          3D

 23 23  0  0  0  0  0  0  0  0999 V2000
   -1.7479    1.3288    0.4161 C   0  0  0  0  0  0  0  0  0  0  0  0
   -1.1969    0.6550   -0.8337 C   0  0  0  0  0  0  0  0  0  0  0  0
   -0.8457   -0.7974   -0.5149 C   0  0  0  0  0  0  0  0  0  0  0  0
    0.1659   -1.0819    0.5397 C   0  0  0  0  0  0  0  0  0  0  0  0
    1.5223   -0.5084    0.2813 C   0  0  0  0  0  0  0  0  0  0  0  0
    1.5603    0.8556    0.1617 O   0  0  0  0  0  0  0  0  0  0  0  0
    2.8877    1.2256   -0.0752 C   0  0  0  0  0  0  0  0  0  0  0  0
   -2.0817   -1.6863   -0.4536 C   0  0  0  0  0  0  0  0  0  0  0  0
   -1.1284   -1.7116   -1.5105 O   0  0  0  0  0  0  0  0  0  0  0  0
   -1.7178    0.6589    1.2873 H   0  0  0  0  0  0  0  0  0  0  0  0
   -1.1643    2.2404    0.6808 H   0  0  0  0  0  0  0  0  0  0  0  0
   -2.7907    1.6800    0.2503 H   0  0  0  0  0  0  0  0  0  0  0  0
   -1.9370    0.6956   -1.6595 H   0  0  0  0  0  0  0  0  0  0  0  0
   -0.3278    1.2381   -1.1588 H   0  0  0  0  0  0  0  0  0  0  0  0
   -0.2366   -0.7401    1.5170 H   0  0  0  0  0  0  0  0  0  0  0  0
    0.2803   -2.1878    0.6027 H   0  0  0  0  0  0  0  0  0  0  0  0
    2.1668   -0.7869    1.1498 H   0  0  0  0  0  0  0  0  0  0  0  0
    1.9362   -0.9449   -0.6501 H   0  0  0  0  0  0  0  0  0  0  0  0
    3.0285    2.3030   -0.1869 H   0  0  0  0  0  0  0  0  0  0  0  0
    3.4747    0.7953    0.7887 H   0  0  0  0  0  0  0  0  0  0  0  0
    3.2483    0.6522   -0.9763 H   0  0  0  0  0  0  0  0  0  0  0  0
   -3.0645   -1.2736   -0.6742 H   0  0  0  0  0  0  0  0  0  0  0  0
   -2.0315   -2.6096    0.1740 H   0  0  0  0  0  0  0  0  0  0  0  0
  1  2  1  0
  2  3  1  0
  3  4  1  0
  4  5  1  0
  5  6  1  0
  6  7  1  0
  3  8  1  0
  8  9  1  0
  9  3  1  0
  1 10  1  0
  1 11  1  0
  1 12  1  0
  2 13  1  0
  2 14  1  0
  4 15  1  0
  4 16  1  0
  5 17  1  0
  5 18  1  0
  7 19  1  0
  7 20  1  0
  7 21  1  0
  8 22  1  0
  8 23  1  0
M  END
