
     RDKit          3D

 21 22  0  0  0  0  0  0  0  0999 V2000
    2.6730    0.5479    0.6039 C   0  0  0  0  0  0  0  0  0  0  0  0
    1.7372   -0.3087   -0.1915 C   0  0  0  0  0  0  0  0  0  0  0  0
    0.3274   -0.2987    0.3251 C   0  0  0  0  0  0  0  0  0  0  0  0
   -0.5502   -1.1747   -0.5167 C   0  0  0  0  0  0  0  0  0  0  0  0
   -1.9028   -1.0238    0.1456 C   0  0  0  0  0  0  0  0  0  0  0  0
   -1.9324    0.5175    0.1256 C   0  0  0  0  0  0  0  0  0  0  0  0
   -2.1559    1.0335    1.3811 O   0  0  0  0  0  0  0  0  0  0  0  0
   -0.5196    0.7282   -0.3644 C   0  0  0  0  0  0  0  0  0  0  0  0
   -0.4968   -0.1396   -1.4811 O   0  0  0  0  0  0  0  0  0  0  0  0
    3.1792    1.3046   -0.0169 H   0  0  0  0  0  0  0  0  0  0  0  0
    2.1339    1.0429    1.4326 H   0  0  0  0  0  0  0  0  0  0  0  0
    3.4980   -0.0628    1.0754 H   0  0  0  0  0  0  0  0  0  0  0  0
    2.1563   -1.3445   -0.2096 H   0  0  0  0  0  0  0  0  0  0  0  0
    1.7194    0.0868   -1.2311 H   0  0  0  0  0  0  0  0  0  0  0  0
    0.1887   -0.4220    1.4012 H   0  0  0  0  0  0  0  0  0  0  0  0
   -0.2213   -2.1397   -0.8118 H   0  0  0  0  0  0  0  0  0  0  0  0
   -1.8549   -1.4052    1.1736 H   0  0  0  0  0  0  0  0  0  0  0  0
   -2.7217   -1.4456   -0.4526 H   0  0  0  0  0  0  0  0  0  0  0  0
   -2.6502    0.8141   -0.6372 H   0  0  0  0  0  0  0  0  0  0  0  0
   -2.4509    1.9719    1.2595 H   0  0  0  0  0  0  0  0  0  0  0  0
   -0.1562    1.7182   -0.5033 H   0  0  0  0  0  0  0  0  0  0  0  0
  1  2  1  0
  2  3  1  0
  3  4  1  0
  4  5  1  0
  5  6  1  0
  6  7  1  0
  6  8  1  0
  8  9  1  0
  8  3  1  0
  9  4  1  0
  1 10  1  0
  1 11  1  0
  1 12  1  0
  2 13  1  0
  2 14  1  0
  3 15  1  0
  4 16  1  0
  5 17  1  0
  5 18  1  0
  6 19  1  0
  7 20  1  0
  8 21  1  0
M  END
