
     RDKit          3D

 25 25  0  0  0  0  0  0  0  0999 V2000
    2.9146   -0.8665   -0.3721 C   0  0  0  0  0  0  0  0  0  0  0  0
    2.0691    0.3215   -0.0523 C   0  0  0  0  0  0  0  0  0  0  0  0
    0.5922    0.0896   -0.3715 C   0  0  0  0  0  0  0  0  0  0  0  0
   -0.1186    1.3509   -0.0028 C   0  0  0  0  0  0  0  0  0  0  0  0
   -1.5690    1.3689   -0.2867 C   0  0  0  0  0  0  0  0  0  0  0  0
   -2.2625    0.0541   -0.1997 C   0  0  0  0  0  0  0  0  0  0  0  0
   -2.0474   -0.6603    1.0957 C   0  0  0  0  0  0  0  0  0  0  0  0
   -0.7194   -0.7317    1.4442 O   0  0  0  0  0  0  0  0  0  0  0  0
    0.0479   -1.1051    0.3417 C   0  0  0  0  0  0  0  0  0  0  0  0
    2.9955   -1.5838    0.4902 H   0  0  0  0  0  0  0  0  0  0  0  0
    3.9713   -0.4932   -0.5103 H   0  0  0  0  0  0  0  0  0  0  0  0
    2.6469   -1.3646   -1.3048 H   0  0  0  0  0  0  0  0  0  0  0  0
    2.4186    1.1705   -0.6606 H   0  0  0  0  0  0  0  0  0  0  0  0
    2.1530    0.5804    1.0237 H   0  0  0  0  0  0  0  0  0  0  0  0
    0.5482   -0.1238   -1.4662 H   0  0  0  0  0  0  0  0  0  0  0  0
    0.1498    1.5930    1.0542 H   0  0  0  0  0  0  0  0  0  0  0  0
    0.3591    2.1789   -0.6056 H   0  0  0  0  0  0  0  0  0  0  0  0
   -1.8127    1.8182   -1.2767 H   0  0  0  0  0  0  0  0  0  0  0  0
   -2.0594    2.0508    0.4681 H   0  0  0  0  0  0  0  0  0  0  0  0
   -2.0621   -0.5960   -1.0980 H   0  0  0  0  0  0  0  0  0  0  0  0
   -3.3708    0.2623   -0.2665 H   0  0  0  0  0  0  0  0  0  0  0  0
   -2.5162   -1.6608    1.0303 H   0  0  0  0  0  0  0  0  0  0  0  0
   -2.5904   -0.1050    1.8878 H   0  0  0  0  0  0  0  0  0  0  0  0
   -0.5795   -1.7656   -0.3255 H   0  0  0  0  0  0  0  0  0  0  0  0
    0.8417   -1.7827    0.7334 H   0  0  0  0  0  0  0  0  0  0  0  0
  1  2  1  0
  2  3  1  0
  3  4  1  0
  4  5  1  0
  5  6  1  0
  6  7  1  0
  7  8  1  0
  8  9  1  0
  9  3  1  0
  1 10  1  0
  1 11  1  0
  1 12  1  0
  2 13  1  0
  2 14  1  0
  3 15  1  0
  4 16  1  0
  4 17  1  0
  5 18  1  0
  5 19  1  0
  6 20  1  0
  6 21  1  0
  7 22  1  0
  7 23  1  0
  9 24  1  0
  9 25  1  0
M  END
