
     RDKit          3D

 19 20  0  0  0  0  0  0  0  0999 V2000
    2.3513   -0.2660    0.4737 C   0  0  0  0  0  0  0  0  0  0  0  0
    1.1320    0.2589    1.2029 C   0  0  0  0  0  0  0  0  0  0  0  0
    0.1575    0.7288    0.1767 C   0  0  0  0  0  0  0  0  0  0  0  0
   -1.0232    1.2410    0.7556 O   0  0  0  0  0  0  0  0  0  0  0  0
   -2.0025    0.5316    0.0896 C   0  0  0  0  0  0  0  0  0  0  0  0
   -1.4826   -0.9074    0.2805 C   0  0  0  0  0  0  0  0  0  0  0  0
   -0.4256   -0.3773   -0.6637 C   0  0  0  0  0  0  0  0  0  0  0  0
   -1.5449    0.3557   -1.3091 C   0  0  0  0  0  0  0  0  0  0  0  0
   -1.8113    0.6039   -2.4553 O   0  0  0  0  0  0  0  0  0  0  0  0
    2.6263   -1.2718    0.8537 H   0  0  0  0  0  0  0  0  0  0  0  0
    2.1708   -0.3707   -0.6189 H   0  0  0  0  0  0  0  0  0  0  0  0
    3.2289    0.3936    0.5876 H   0  0  0  0  0  0  0  0  0  0  0  0
    1.4044    1.1449    1.8268 H   0  0  0  0  0  0  0  0  0  0  0  0
    0.7520   -0.5200    1.8683 H   0  0  0  0  0  0  0  0  0  0  0  0
    0.5893    1.5385   -0.4093 H   0  0  0  0  0  0  0  0  0  0  0  0
   -3.0302    0.7002    0.2925 H   0  0  0  0  0  0  0  0  0  0  0  0
   -1.1236   -1.0864    1.3070 H   0  0  0  0  0  0  0  0  0  0  0  0
   -2.1505   -1.6664   -0.1388 H   0  0  0  0  0  0  0  0  0  0  0  0
    0.1819   -1.0312   -1.2117 H   0  0  0  0  0  0  0  0  0  0  0  0
  1  2  1  0
  2  3  1  0
  3  4  1  0
  4  5  1  0
  5  6  1  0
  6  7  1  0
  7  8  1  0
  8  9  2  0
  7  3  1  0
  8  5  1  0
  1 10  1  0
  1 11  1  0
  1 12  1  0
  2 13  1  0
  2 14  1  0
  3 15  1  0
  5 16  1  0
  6 17  1  0
  6 18  1  0
  7 19  1  0
M  END
