
     RDKit          3D

 25 25  0  0  0  0  0  0  0  0999 V2000
    2.5768    0.1572    0.6328 C   0  0  0  0  0  0  0  0  0  0  0  0
    1.2088   -0.4636    0.5900 C   0  0  0  0  0  0  0  0  0  0  0  0
    0.1993    0.3475   -0.1489 C   0  0  0  0  0  0  0  0  0  0  0  0
   -1.1788   -0.2958   -0.1820 C   0  0  0  0  0  0  0  0  0  0  0  0
   -1.1206   -1.6568   -0.8621 C   0  0  0  0  0  0  0  0  0  0  0  0
   -1.6493   -0.4073    1.2528 C   0  0  0  0  0  0  0  0  0  0  0  0
   -1.9920    0.5608   -0.9185 O   0  0  0  0  0  0  0  0  0  0  0  0
    0.6036    1.2430   -1.2801 C   0  0  0  0  0  0  0  0  0  0  0  0
    0.1549    1.8396   -0.0092 C   0  0  0  0  0  0  0  0  0  0  0  0
    3.2262   -0.2150   -0.2120 H   0  0  0  0  0  0  0  0  0  0  0  0
    2.5779    1.2442    0.6021 H   0  0  0  0  0  0  0  0  0  0  0  0
    3.0779   -0.1991    1.5565 H   0  0  0  0  0  0  0  0  0  0  0  0
    1.3173   -1.4379    0.0438 H   0  0  0  0  0  0  0  0  0  0  0  0
    0.8276   -0.7337    1.5969 H   0  0  0  0  0  0  0  0  0  0  0  0
   -0.5944   -2.3535   -0.1930 H   0  0  0  0  0  0  0  0  0  0  0  0
   -2.1709   -1.9916   -0.9657 H   0  0  0  0  0  0  0  0  0  0  0  0
   -0.6276   -1.5241   -1.8272 H   0  0  0  0  0  0  0  0  0  0  0  0
   -2.7106   -0.0351    1.3285 H   0  0  0  0  0  0  0  0  0  0  0  0
   -1.6908   -1.4850    1.5777 H   0  0  0  0  0  0  0  0  0  0  0  0
   -0.9945    0.1074    1.9676 H   0  0  0  0  0  0  0  0  0  0  0  0
   -2.7152    0.1121   -1.3971 H   0  0  0  0  0  0  0  0  0  0  0  0
    1.6951    1.2320   -1.5609 H   0  0  0  0  0  0  0  0  0  0  0  0
   -0.0512    1.2138   -2.1815 H   0  0  0  0  0  0  0  0  0  0  0  0
   -0.8426    2.3676   -0.0398 H   0  0  0  0  0  0  0  0  0  0  0  0
    0.8732    2.3732    0.6292 H   0  0  0  0  0  0  0  0  0  0  0  0
  1  2  1  0
  2  3  1  0
  3  4  1  0
  4  5  1  0
  4  6  1  0
  4  7  1  0
  3  8  1  0
  8  9  1  0
  9  3  1  0
  1 10  1  0
  1 11  1  0
  1 12  1  0
  2 13  1  0
  2 14  1  0
  5 15  1  0
  5 16  1  0
  5 17  1  0
  6 18  1  0
  6 19  1  0
  6 20  1  0
  7 21  1  0
  8 22  1  0
  8 23  1  0
  9 24  1  0
  9 25  1  0
M  END
