
     RDKit          3D

 27 27  0  0  0  0  0  0  0  0999 V2000
    3.5426    0.0682    0.2792 C   0  0  0  0  0  0  0  0  0  0  0  0
    2.2814    0.6207   -0.3427 C   0  0  0  0  0  0  0  0  0  0  0  0
    1.0321    0.1560    0.3373 C   0  0  0  0  0  0  0  0  0  0  0  0
    0.6652   -1.2723    0.4365 C   0  0  0  0  0  0  0  0  0  0  0  0
   -0.0288   -0.4070   -0.5415 C   0  0  0  0  0  0  0  0  0  0  0  0
   -1.4583   -0.0002   -0.3842 C   0  0  0  0  0  0  0  0  0  0  0  0
   -1.5654    1.4918   -0.5997 C   0  0  0  0  0  0  0  0  0  0  0  0
   -2.0425   -0.3540    0.9572 C   0  0  0  0  0  0  0  0  0  0  0  0
   -2.2687   -0.6827   -1.4647 C   0  0  0  0  0  0  0  0  0  0  0  0
    3.6274    0.3768    1.3344 H   0  0  0  0  0  0  0  0  0  0  0  0
    3.5777   -1.0161    0.1252 H   0  0  0  0  0  0  0  0  0  0  0  0
    4.3932    0.5032   -0.3015 H   0  0  0  0  0  0  0  0  0  0  0  0
    2.2899    0.4081   -1.4349 H   0  0  0  0  0  0  0  0  0  0  0  0
    2.3265    1.7346   -0.2608 H   0  0  0  0  0  0  0  0  0  0  0  0
    0.7599    0.7656    1.2318 H   0  0  0  0  0  0  0  0  0  0  0  0
    0.0777   -1.6308    1.2999 H   0  0  0  0  0  0  0  0  0  0  0  0
    1.3969   -2.0427    0.0812 H   0  0  0  0  0  0  0  0  0  0  0  0
    0.2541   -0.5958   -1.6057 H   0  0  0  0  0  0  0  0  0  0  0  0
   -0.7267    2.0453   -0.1312 H   0  0  0  0  0  0  0  0  0  0  0  0
   -2.5401    1.9048   -0.2643 H   0  0  0  0  0  0  0  0  0  0  0  0
   -1.5131    1.6836   -1.7036 H   0  0  0  0  0  0  0  0  0  0  0  0
   -2.9992    0.2340    1.0513 H   0  0  0  0  0  0  0  0  0  0  0  0
   -2.3556   -1.4311    0.9867 H   0  0  0  0  0  0  0  0  0  0  0  0
   -1.4201   -0.0655    1.8055 H   0  0  0  0  0  0  0  0  0  0  0  0
   -1.6717   -0.5650   -2.4135 H   0  0  0  0  0  0  0  0  0  0  0  0
   -3.2484   -0.1730   -1.6261 H   0  0  0  0  0  0  0  0  0  0  0  0
   -2.3859   -1.7563   -1.2776 H   0  0  0  0  0  0  0  0  0  0  0  0
  1  2  1  0
  2  3  1  0
  3  4  1  0
  4  5  1  0
  5  6  1  0
  6  7  1  0
  6  8  1  0
  6  9  1  0
  5  3  1  0
  1 10  1  0
  1 11  1  0
  1 12  1  0
  2 13  1  0
  2 14  1  0
  3 15  1  0
  4 16  1  0
  4 17  1  0
  5 18  1  0
  7 19  1  0
  7 20  1  0
  7 21  1  0
  8 22  1  0
  8 23  1  0
  8 24  1  0
  9 25  1  0
  9 26  1  0
  9 27  1  0
M  END
