
     RDKit          3D

 21 22  0  0  0  0  0  0  0  0999 V2000
   -2.1079   -0.2319    0.7841 C   0  0  0  0  0  0  0  0  0  0  0  0
   -1.5730    0.8819   -0.0814 C   0  0  0  0  0  0  0  0  0  0  0  0
   -0.3268    0.4640   -0.8334 C   0  0  0  0  0  0  0  0  0  0  0  0
    0.1645    1.5165   -1.6401 O   0  0  0  0  0  0  0  0  0  0  0  0
   -0.1028   -0.9066   -1.2978 C   0  0  0  0  0  0  0  0  0  0  0  0
    0.6847   -0.3508   -0.1825 C   0  0  0  0  0  0  0  0  0  0  0  0
    2.1387   -0.1281   -0.2134 C   0  0  0  0  0  0  0  0  0  0  0  0
    1.9122   -0.2102    1.3005 C   0  0  0  0  0  0  0  0  0  0  0  0
    0.6506   -0.8123    1.0923 O   0  0  0  0  0  0  0  0  0  0  0  0
   -2.1628   -1.2044    0.2772 H   0  0  0  0  0  0  0  0  0  0  0  0
   -1.5308   -0.2857    1.7443 H   0  0  0  0  0  0  0  0  0  0  0  0
   -3.1545    0.0055    1.0995 H   0  0  0  0  0  0  0  0  0  0  0  0
   -2.4081    1.1366   -0.7961 H   0  0  0  0  0  0  0  0  0  0  0  0
   -1.3624    1.7409    0.6027 H   0  0  0  0  0  0  0  0  0  0  0  0
   -0.1973    1.4697   -2.5574 H   0  0  0  0  0  0  0  0  0  0  0  0
   -0.7305   -1.7646   -1.0559 H   0  0  0  0  0  0  0  0  0  0  0  0
    0.4506   -1.0082   -2.2785 H   0  0  0  0  0  0  0  0  0  0  0  0
    2.6730   -1.0418   -0.6061 H   0  0  0  0  0  0  0  0  0  0  0  0
    2.5262    0.8307   -0.5642 H   0  0  0  0  0  0  0  0  0  0  0  0
    2.6325   -0.8929    1.7795 H   0  0  0  0  0  0  0  0  0  0  0  0
    1.8239    0.7915    1.7651 H   0  0  0  0  0  0  0  0  0  0  0  0
  1  2  1  0
  2  3  1  0
  3  4  1  0
  3  5  1  0
  5  6  1  0
  6  7  1  0
  7  8  1  0
  8  9  1  0
  6  3  1  0
  9  6  1  0
  1 10  1  0
  1 11  1  0
  1 12  1  0
  2 13  1  0
  2 14  1  0
  4 15  1  0
  5 16  1  0
  5 17  1  0
  7 18  1  0
  7 19  1  0
  8 20  1  0
  8 21  1  0
M  END
