
     RDKit          3D

 21 22  0  0  0  0  0  0  0  0999 V2000
    2.7094    0.1986   -0.0852 C   0  0  0  0  0  0  0  0  0  0  0  0
    1.3644   -0.1412   -0.7429 C   0  0  0  0  0  0  0  0  0  0  0  0
    0.3303    0.3644    0.2227 C   0  0  0  0  0  0  0  0  0  0  0  0
    0.4917   -0.3334    1.5625 C   0  0  0  0  0  0  0  0  0  0  0  0
   -0.9020   -0.5534    1.6460 O   0  0  0  0  0  0  0  0  0  0  0  0
   -0.9569   -0.2832    0.3067 C   0  0  0  0  0  0  0  0  0  0  0  0
   -1.8039   -0.8780   -0.6695 C   0  0  0  0  0  0  0  0  0  0  0  0
   -2.1423    0.5101   -0.2565 C   0  0  0  0  0  0  0  0  0  0  0  0
   -3.0883    0.7866    0.6895 O   0  0  0  0  0  0  0  0  0  0  0  0
    2.6420    1.3066    0.1236 H   0  0  0  0  0  0  0  0  0  0  0  0
    3.5545   -0.0024   -0.7530 H   0  0  0  0  0  0  0  0  0  0  0  0
    2.7617   -0.2826    0.8970 H   0  0  0  0  0  0  0  0  0  0  0  0
    1.3077    0.3541   -1.7329 H   0  0  0  0  0  0  0  0  0  0  0  0
    1.3446   -1.2309   -0.8450 H   0  0  0  0  0  0  0  0  0  0  0  0
    0.2916    1.4633    0.2626 H   0  0  0  0  0  0  0  0  0  0  0  0
    0.8812    0.3023    2.3716 H   0  0  0  0  0  0  0  0  0  0  0  0
    1.0014   -1.3132    1.4637 H   0  0  0  0  0  0  0  0  0  0  0  0
   -2.5515   -1.6457   -0.3386 H   0  0  0  0  0  0  0  0  0  0  0  0
   -1.4395   -1.0714   -1.6896 H   0  0  0  0  0  0  0  0  0  0  0  0
   -1.8743    1.2865   -1.0285 H   0  0  0  0  0  0  0  0  0  0  0  0
   -3.9216    1.1629    0.3821 H   0  0  0  0  0  0  0  0  0  0  0  0
  1  2  1  0
  2  3  1  0
  3  4  1  0
  4  5  1  0
  5  6  1  0
  6  7  1  0
  7  8  1  0
  8  9  1  0
  6  3  1  0
  8  6  1  0
  1 10  1  0
  1 11  1  0
  1 12  1  0
  2 13  1  0
  2 14  1  0
  3 15  1  0
  4 16  1  0
  4 17  1  0
  7 18  1  0
  7 19  1  0
  8 20  1  0
  9 21  1  0
M  END
