
     RDKit          3D

 21 22  0  0  0  0  0  0  0  0999 V2000
   -3.0252   -0.4427   -0.0001 C   0  0  0  0  0  0  0  0  0  0  0  0
   -1.6714   -0.6770   -0.6058 C   0  0  0  0  0  0  0  0  0  0  0  0
   -0.5476   -0.0423    0.1267 C   0  0  0  0  0  0  0  0  0  0  0  0
   -0.4154    1.3936    0.3625 C   0  0  0  0  0  0  0  0  0  0  0  0
    0.5210    0.7267   -0.5425 C   0  0  0  0  0  0  0  0  0  0  0  0
    1.3107   -0.4955   -0.1379 C   0  0  0  0  0  0  0  0  0  0  0  0
    2.6047   -0.1534    0.6125 C   0  0  0  0  0  0  0  0  0  0  0  0
    3.5852    0.2455   -0.3106 O   0  0  0  0  0  0  0  0  0  0  0  0
    0.3552   -0.8853    0.7702 O   0  0  0  0  0  0  0  0  0  0  0  0
   -3.0335    0.3961    0.7324 H   0  0  0  0  0  0  0  0  0  0  0  0
   -3.7107   -0.1446   -0.8465 H   0  0  0  0  0  0  0  0  0  0  0  0
   -3.4784   -1.3656    0.4164 H   0  0  0  0  0  0  0  0  0  0  0  0
   -1.5155   -1.7829   -0.6308 H   0  0  0  0  0  0  0  0  0  0  0  0
   -1.6297   -0.3667   -1.6892 H   0  0  0  0  0  0  0  0  0  0  0  0
   -0.0333    1.7997    1.3285 H   0  0  0  0  0  0  0  0  0  0  0  0
   -1.1673    2.0583   -0.1007 H   0  0  0  0  0  0  0  0  0  0  0  0
    0.4929    0.9902   -1.6122 H   0  0  0  0  0  0  0  0  0  0  0  0
    1.4722   -1.1374   -1.0167 H   0  0  0  0  0  0  0  0  0  0  0  0
    2.9835   -1.0742    1.1025 H   0  0  0  0  0  0  0  0  0  0  0  0
    2.4495    0.6892    1.2941 H   0  0  0  0  0  0  0  0  0  0  0  0
    4.4532    0.2683    0.1455 H   0  0  0  0  0  0  0  0  0  0  0  0
  1  2  1  0
  2  3  1  0
  3  4  1  0
  4  5  1  0
  5  6  1  0
  6  7  1  0
  7  8  1  0
  6  9  1  0
  5  3  1  0
  9  3  1  0
  1 10  1  0
  1 11  1  0
  1 12  1  0
  2 13  1  0
  2 14  1  0
  4 15  1  0
  4 16  1  0
  5 17  1  0
  6 18  1  0
  7 19  1  0
  7 20  1  0
  8 21  1  0
M  END
