
     RDKit          3D

 25 25  0  0  0  0  0  0  0  0999 V2000
    2.3534    0.5609   -0.5937 C   0  0  0  0  0  0  0  0  0  0  0  0
    1.8488   -0.6949    0.0437 C   0  0  0  0  0  0  0  0  0  0  0  0
    0.3269   -0.8067   -0.0258 C   0  0  0  0  0  0  0  0  0  0  0  0
   -0.1785   -0.8112   -1.4244 C   0  0  0  0  0  0  0  0  0  0  0  0
   -0.6396    0.4110   -1.8759 O   0  0  0  0  0  0  0  0  0  0  0  0
   -1.7521    0.7187   -1.0573 C   0  0  0  0  0  0  0  0  0  0  0  0
   -1.1291    1.2285    0.2425 C   0  0  0  0  0  0  0  0  0  0  0  0
   -0.3126    0.1712    0.8866 C   0  0  0  0  0  0  0  0  0  0  0  0
   -1.1964   -0.5112    1.9411 C   0  0  0  0  0  0  0  0  0  0  0  0
    1.7994    1.4510   -0.2124 H   0  0  0  0  0  0  0  0  0  0  0  0
    3.4073    0.7065   -0.2282 H   0  0  0  0  0  0  0  0  0  0  0  0
    2.3861    0.5464   -1.6844 H   0  0  0  0  0  0  0  0  0  0  0  0
    2.3477   -1.5643   -0.3869 H   0  0  0  0  0  0  0  0  0  0  0  0
    2.1072   -0.6568    1.1252 H   0  0  0  0  0  0  0  0  0  0  0  0
    0.1111   -1.8357    0.3948 H   0  0  0  0  0  0  0  0  0  0  0  0
    0.5897   -1.1613   -2.1439 H   0  0  0  0  0  0  0  0  0  0  0  0
   -1.0379   -1.5340   -1.5346 H   0  0  0  0  0  0  0  0  0  0  0  0
   -2.3410   -0.2107   -0.8662 H   0  0  0  0  0  0  0  0  0  0  0  0
   -2.3818    1.4969   -1.4793 H   0  0  0  0  0  0  0  0  0  0  0  0
   -1.9386    1.5679    0.9342 H   0  0  0  0  0  0  0  0  0  0  0  0
   -0.5421    2.1348   -0.0553 H   0  0  0  0  0  0  0  0  0  0  0  0
    0.4882    0.6857    1.4920 H   0  0  0  0  0  0  0  0  0  0  0  0
   -1.7242    0.3197    2.4764 H   0  0  0  0  0  0  0  0  0  0  0  0
   -0.5769   -1.1287    2.5981 H   0  0  0  0  0  0  0  0  0  0  0  0
   -2.0149   -1.0836    1.4338 H   0  0  0  0  0  0  0  0  0  0  0  0
  1  2  1  0
  2  3  1  0
  3  4  1  0
  4  5  1  0
  5  6  1  0
  6  7  1  0
  7  8  1  0
  8  9  1  0
  8  3  1  0
  1 10  1  0
  1 11  1  0
  1 12  1  0
  2 13  1  0
  2 14  1  0
  3 15  1  0
  4 16  1  0
  4 17  1  0
  6 18  1  0
  6 19  1  0
  7 20  1  0
  7 21  1  0
  8 22  1  0
  9 23  1  0
  9 24  1  0
  9 25  1  0
M  END
