
     RDKit          3D

 23 24  0  0  0  0  0  0  0  0999 V2000
    2.6973   -0.2604   -0.0492 C   0  0  0  0  0  0  0  0  0  0  0  0
    1.5442    0.7198    0.0936 C   0  0  0  0  0  0  0  0  0  0  0  0
    0.3487    0.0970   -0.5200 C   0  0  0  0  0  0  0  0  0  0  0  0
    0.0520   -1.2178    0.2302 C   0  0  0  0  0  0  0  0  0  0  0  0
   -1.3888   -0.9644    0.5736 C   0  0  0  0  0  0  0  0  0  0  0  0
   -1.9275   -0.3109   -0.7062 C   0  0  0  0  0  0  0  0  0  0  0  0
   -0.9415    0.8013   -0.3105 C   0  0  0  0  0  0  0  0  0  0  0  0
   -1.1651    2.0271   -0.7481 O   0  0  0  0  0  0  0  0  0  0  0  0
   -1.3427    0.4442    1.1274 C   0  0  0  0  0  0  0  0  0  0  0  0
    2.6557   -0.9557    0.8153 H   0  0  0  0  0  0  0  0  0  0  0  0
    2.5286   -0.8342   -0.9899 H   0  0  0  0  0  0  0  0  0  0  0  0
    3.6722    0.2647   -0.1168 H   0  0  0  0  0  0  0  0  0  0  0  0
    1.8098    1.6944   -0.3350 H   0  0  0  0  0  0  0  0  0  0  0  0
    1.3608    0.8485    1.2002 H   0  0  0  0  0  0  0  0  0  0  0  0
    0.5529   -0.1098   -1.5807 H   0  0  0  0  0  0  0  0  0  0  0  0
    0.2212   -2.0419   -0.4588 H   0  0  0  0  0  0  0  0  0  0  0  0
    0.6733   -1.2820    1.1578 H   0  0  0  0  0  0  0  0  0  0  0  0
   -1.9773   -1.6992    1.0462 H   0  0  0  0  0  0  0  0  0  0  0  0
   -2.9770   -0.0263   -0.6310 H   0  0  0  0  0  0  0  0  0  0  0  0
   -1.6280   -0.8634   -1.6077 H   0  0  0  0  0  0  0  0  0  0  0  0
   -1.8635    2.1786   -1.4261 H   0  0  0  0  0  0  0  0  0  0  0  0
   -2.3465    0.8343    1.3790 H   0  0  0  0  0  0  0  0  0  0  0  0
   -0.5591    0.6561    1.8568 H   0  0  0  0  0  0  0  0  0  0  0  0
  1  2  1  0
  2  3  1  0
  3  4  1  0
  4  5  1  0
  5  6  1  0
  6  7  1  0
  7  8  1  0
  7  9  1  0
  7  3  1  0
  9  5  1  0
  1 10  1  0
  1 11  1  0
  1 12  1  0
  2 13  1  0
  2 14  1  0
  3 15  1  0
  4 16  1  0
  4 17  1  0
  5 18  1  0
  6 19  1  0
  6 20  1  0
  8 21  1  0
  9 22  1  0
  9 23  1  0
M  END
