
     RDKit          3D

 23 23  0  0  0  0  0  0  0  0999 V2000
   -2.8404   -0.4181   -0.3101 C   0  0  0  0  0  0  0  0  0  0  0  0
   -1.9658    0.3659    0.6455 C   0  0  0  0  0  0  0  0  0  0  0  0
   -0.5579    0.5536    0.0845 C   0  0  0  0  0  0  0  0  0  0  0  0
    0.0168   -0.8304   -0.1232 C   0  0  0  0  0  0  0  0  0  0  0  0
    1.3337   -0.8262   -0.8245 C   0  0  0  0  0  0  0  0  0  0  0  0
    2.4940   -0.4405    0.0300 C   0  0  0  0  0  0  0  0  0  0  0  0
    2.1707    0.3216    1.1291 O   0  0  0  0  0  0  0  0  0  0  0  0
    1.4797    1.4509    0.6724 C   0  0  0  0  0  0  0  0  0  0  0  0
    0.1474    1.2715    1.0495 O   0  0  0  0  0  0  0  0  0  0  0  0
   -3.9044   -0.1780   -0.0285 H   0  0  0  0  0  0  0  0  0  0  0  0
   -2.6217   -0.1482   -1.3640 H   0  0  0  0  0  0  0  0  0  0  0  0
   -2.6299   -1.5045   -0.1072 H   0  0  0  0  0  0  0  0  0  0  0  0
   -2.3911    1.3842    0.7925 H   0  0  0  0  0  0  0  0  0  0  0  0
   -1.8608   -0.1449    1.6050 H   0  0  0  0  0  0  0  0  0  0  0  0
   -0.5815    1.1177   -0.8630 H   0  0  0  0  0  0  0  0  0  0  0  0
   -0.7138   -1.3618   -0.7982 H   0  0  0  0  0  0  0  0  0  0  0  0
    0.0038   -1.3797    0.8225 H   0  0  0  0  0  0  0  0  0  0  0  0
    1.5086   -1.8708   -1.2043 H   0  0  0  0  0  0  0  0  0  0  0  0
    1.2230   -0.1974   -1.7411 H   0  0  0  0  0  0  0  0  0  0  0  0
    3.0948   -1.3015    0.3773 H   0  0  0  0  0  0  0  0  0  0  0  0
    3.1845    0.1805   -0.6072 H   0  0  0  0  0  0  0  0  0  0  0  0
    1.8275    2.3755    1.1866 H   0  0  0  0  0  0  0  0  0  0  0  0
    1.5827    1.5807   -0.4236 H   0  0  0  0  0  0  0  0  0  0  0  0
  1  2  1  0
  2  3  1  0
  3  4  1  0
  4  5  1  0
  5  6  1  0
  6  7  1  0
  7  8  1  0
  8  9  1  0
  9  3  1  0
  1 10  1  0
  1 11  1  0
  1 12  1  0
  2 13  1  0
  2 14  1  0
  3 15  1  0
  4 16  1  0
  4 17  1  0
  5 18  1  0
  5 19  1  0
  6 20  1  0
  6 21  1  0
  8 22  1  0
  8 23  1  0
M  END
