
     RDKit          3D

 25 25  0  0  0  0  0  0  0  0999 V2000
    3.1778    0.6950   -0.2059 C   0  0  0  0  0  0  0  0  0  0  0  0
    2.1228   -0.3441   -0.4007 C   0  0  0  0  0  0  0  0  0  0  0  0
    0.9792   -0.2422    0.5704 C   0  0  0  0  0  0  0  0  0  0  0  0
    0.0031   -1.3360    0.2627 C   0  0  0  0  0  0  0  0  0  0  0  0
   -1.1318   -0.5978   -0.3891 C   0  0  0  0  0  0  0  0  0  0  0  0
   -2.4111   -1.0386    0.2486 C   0  0  0  0  0  0  0  0  0  0  0  0
   -0.8077    0.8379   -0.2339 C   0  0  0  0  0  0  0  0  0  0  0  0
   -1.9287    1.6942    0.2627 C   0  0  0  0  0  0  0  0  0  0  0  0
    0.3270    0.9548    0.5613 O   0  0  0  0  0  0  0  0  0  0  0  0
    4.1817    0.1863   -0.2599 H   0  0  0  0  0  0  0  0  0  0  0  0
    3.1105    1.4055   -1.0633 H   0  0  0  0  0  0  0  0  0  0  0  0
    3.1298    1.1888    0.7759 H   0  0  0  0  0  0  0  0  0  0  0  0
    2.5498   -1.3692   -0.2897 H   0  0  0  0  0  0  0  0  0  0  0  0
    1.6860   -0.3092   -1.4222 H   0  0  0  0  0  0  0  0  0  0  0  0
    1.4251   -0.3711    1.6002 H   0  0  0  0  0  0  0  0  0  0  0  0
   -0.2925   -1.8964    1.1690 H   0  0  0  0  0  0  0  0  0  0  0  0
    0.4194   -2.0817   -0.4530 H   0  0  0  0  0  0  0  0  0  0  0  0
   -1.1942   -0.8826   -1.4743 H   0  0  0  0  0  0  0  0  0  0  0  0
   -3.2345   -0.8199   -0.4468 H   0  0  0  0  0  0  0  0  0  0  0  0
   -2.3623   -2.1658    0.3182 H   0  0  0  0  0  0  0  0  0  0  0  0
   -2.5618   -0.6885    1.2735 H   0  0  0  0  0  0  0  0  0  0  0  0
   -0.5093    1.2528   -1.2426 H   0  0  0  0  0  0  0  0  0  0  0  0
   -2.8534    1.1719    0.4892 H   0  0  0  0  0  0  0  0  0  0  0  0
   -1.6232    2.2371    1.1954 H   0  0  0  0  0  0  0  0  0  0  0  0
   -2.2018    2.5191   -0.4593 H   0  0  0  0  0  0  0  0  0  0  0  0
  1  2  1  0
  2  3  1  0
  3  4  1  0
  4  5  1  0
  5  6  1  0
  5  7  1  0
  7  8  1  0
  7  9  1  0
  9  3  1  0
  1 10  1  0
  1 11  1  0
  1 12  1  0
  2 13  1  0
  2 14  1  0
  3 15  1  0
  4 16  1  0
  4 17  1  0
  5 18  1  0
  6 19  1  0
  6 20  1  0
  6 21  1  0
  7 22  1  0
  8 23  1  0
  8 24  1  0
  8 25  1  0
M  END
