
     RDKit          3D

 23 24  0  0  0  0  0  0  0  0999 V2000
    2.4437   -0.7701    0.3856 C   0  0  0  0  0  0  0  0  0  0  0  0
    1.6619   -0.2528   -0.7795 C   0  0  0  0  0  0  0  0  0  0  0  0
    0.1875   -0.1293   -0.4745 C   0  0  0  0  0  0  0  0  0  0  0  0
   -0.6621    0.3338   -1.4530 O   0  0  0  0  0  0  0  0  0  0  0  0
   -0.9826    1.6375   -1.1152 C   0  0  0  0  0  0  0  0  0  0  0  0
   -1.3066    1.5101    0.3551 C   0  0  0  0  0  0  0  0  0  0  0  0
   -0.2424    0.5449    0.8214 C   0  0  0  0  0  0  0  0  0  0  0  0
   -0.4031   -0.9069    0.6788 C   0  0  0  0  0  0  0  0  0  0  0  0
   -1.7488   -1.5233    0.3829 C   0  0  0  0  0  0  0  0  0  0  0  0
    2.2923   -0.1091    1.2473 H   0  0  0  0  0  0  0  0  0  0  0  0
    2.2179   -1.8393    0.5897 H   0  0  0  0  0  0  0  0  0  0  0  0
    3.5340   -0.6563    0.1125 H   0  0  0  0  0  0  0  0  0  0  0  0
    1.7776   -0.8579   -1.6783 H   0  0  0  0  0  0  0  0  0  0  0  0
    2.0253    0.7707   -1.0258 H   0  0  0  0  0  0  0  0  0  0  0  0
   -0.0909    2.3182   -1.1767 H   0  0  0  0  0  0  0  0  0  0  0  0
   -1.8229    2.0070   -1.7177 H   0  0  0  0  0  0  0  0  0  0  0  0
   -1.1533    2.4928    0.8161 H   0  0  0  0  0  0  0  0  0  0  0  0
   -2.3254    1.1715    0.5458 H   0  0  0  0  0  0  0  0  0  0  0  0
    0.5758    0.9747    1.3928 H   0  0  0  0  0  0  0  0  0  0  0  0
    0.2994   -1.5449    1.2109 H   0  0  0  0  0  0  0  0  0  0  0  0
   -1.7267   -2.6203    0.6116 H   0  0  0  0  0  0  0  0  0  0  0  0
   -2.5571   -1.0869    0.9742 H   0  0  0  0  0  0  0  0  0  0  0  0
   -1.9937   -1.4642   -0.7043 H   0  0  0  0  0  0  0  0  0  0  0  0
  1  2  1  0
  2  3  1  0
  3  4  1  0
  4  5  1  0
  5  6  1  0
  6  7  1  0
  7  8  1  0
  8  9  1  0
  7  3  1  0
  8  3  1  0
  1 10  1  0
  1 11  1  0
  1 12  1  0
  2 13  1  0
  2 14  1  0
  5 15  1  0
  5 16  1  0
  6 17  1  0
  6 18  1  0
  7 19  1  0
  8 20  1  0
  9 21  1  0
  9 22  1  0
  9 23  1  0
M  END
