
     RDKit          3D

 21 22  0  0  0  0  0  0  0  0999 V2000
    2.5406   -0.0188    0.6707 C   0  0  0  0  0  0  0  0  0  0  0  0
    1.5557    0.5348   -0.3188 C   0  0  0  0  0  0  0  0  0  0  0  0
    0.4017   -0.3724   -0.5744 C   0  0  0  0  0  0  0  0  0  0  0  0
   -0.4527    0.2472   -1.5140 O   0  0  0  0  0  0  0  0  0  0  0  0
   -1.3265    0.8930   -0.7129 C   0  0  0  0  0  0  0  0  0  0  0  0
   -2.6336    0.6507   -0.2535 C   0  0  0  0  0  0  0  0  0  0  0  0
   -1.7914   -0.4266    0.0327 C   0  0  0  0  0  0  0  0  0  0  0  0
   -0.4590   -0.5757    0.6885 C   0  0  0  0  0  0  0  0  0  0  0  0
   -0.3184   -1.8674    1.1770 O   0  0  0  0  0  0  0  0  0  0  0  0
    3.5497    0.4283    0.4288 H   0  0  0  0  0  0  0  0  0  0  0  0
    2.2992    0.3365    1.6847 H   0  0  0  0  0  0  0  0  0  0  0  0
    2.6404   -1.1181    0.6253 H   0  0  0  0  0  0  0  0  0  0  0  0
    2.0945    0.6579   -1.2809 H   0  0  0  0  0  0  0  0  0  0  0  0
    1.2880    1.5506    0.0166 H   0  0  0  0  0  0  0  0  0  0  0  0
    0.7684   -1.3323   -0.9229 H   0  0  0  0  0  0  0  0  0  0  0  0
   -0.7433    1.6326   -0.0803 H   0  0  0  0  0  0  0  0  0  0  0  0
   -3.4440    0.5437   -1.0302 H   0  0  0  0  0  0  0  0  0  0  0  0
   -3.0569    1.2502    0.5990 H   0  0  0  0  0  0  0  0  0  0  0  0
   -1.9190   -1.3304   -0.6476 H   0  0  0  0  0  0  0  0  0  0  0  0
   -0.2734    0.2030    1.4312 H   0  0  0  0  0  0  0  0  0  0  0  0
   -0.7200   -1.8866    2.0680 H   0  0  0  0  0  0  0  0  0  0  0  0
  1  2  1  0
  2  3  1  0
  3  4  1  0
  4  5  1  0
  5  6  1  0
  6  7  1  0
  7  8  1  0
  8  9  1  0
  8  3  1  0
  7  5  1  0
  1 10  1  0
  1 11  1  0
  1 12  1  0
  2 13  1  0
  2 14  1  0
  3 15  1  0
  5 16  1  0
  6 17  1  0
  6 18  1  0
  7 19  1  0
  8 20  1  0
  9 21  1  0
M  END
