
     RDKit          3D

 25 25  0  0  0  0  0  0  0  0999 V2000
    2.7783   -0.2597   -0.9601 C   0  0  0  0  0  0  0  0  0  0  0  0
    1.5127   -0.9886   -0.5542 C   0  0  0  0  0  0  0  0  0  0  0  0
    0.7789   -0.0979    0.4010 C   0  0  0  0  0  0  0  0  0  0  0  0
   -0.5348   -0.6538    0.9331 C   0  0  0  0  0  0  0  0  0  0  0  0
   -1.2597   -1.5427   -0.0205 C   0  0  0  0  0  0  0  0  0  0  0  0
   -0.9751    0.8022    0.9392 C   0  0  0  0  0  0  0  0  0  0  0  0
   -2.4268    1.0529    0.7480 C   0  0  0  0  0  0  0  0  0  0  0  0
   -0.0796    0.9739   -0.2457 C   0  0  0  0  0  0  0  0  0  0  0  0
    0.5609    2.1840   -0.3729 O   0  0  0  0  0  0  0  0  0  0  0  0
    2.6037    0.3842   -1.8614 H   0  0  0  0  0  0  0  0  0  0  0  0
    3.1311    0.4202   -0.1393 H   0  0  0  0  0  0  0  0  0  0  0  0
    3.6192   -0.9772   -1.1323 H   0  0  0  0  0  0  0  0  0  0  0  0
    1.7757   -1.9678   -0.1407 H   0  0  0  0  0  0  0  0  0  0  0  0
    0.8968   -1.0734   -1.4937 H   0  0  0  0  0  0  0  0  0  0  0  0
    1.3625    0.3164    1.2346 H   0  0  0  0  0  0  0  0  0  0  0  0
   -0.4789   -1.0647    1.9636 H   0  0  0  0  0  0  0  0  0  0  0  0
   -1.9257   -2.2643    0.5197 H   0  0  0  0  0  0  0  0  0  0  0  0
   -0.4926   -2.2052   -0.5198 H   0  0  0  0  0  0  0  0  0  0  0  0
   -1.7803   -1.0220   -0.8326 H   0  0  0  0  0  0  0  0  0  0  0  0
   -0.5824    1.3378    1.8092 H   0  0  0  0  0  0  0  0  0  0  0  0
   -2.5347    2.0470    0.2423 H   0  0  0  0  0  0  0  0  0  0  0  0
   -2.9778    0.2799    0.2197 H   0  0  0  0  0  0  0  0  0  0  0  0
   -2.8778    1.2007    1.7642 H   0  0  0  0  0  0  0  0  0  0  0  0
   -0.4929    0.5589   -1.2092 H   0  0  0  0  0  0  0  0  0  0  0  0
    0.3991    2.5595   -1.2923 H   0  0  0  0  0  0  0  0  0  0  0  0
  1  2  1  0
  2  3  1  0
  3  4  1  0
  4  5  1  0
  4  6  1  0
  6  7  1  0
  6  8  1  0
  8  9  1  0
  8  3  1  0
  1 10  1  0
  1 11  1  0
  1 12  1  0
  2 13  1  0
  2 14  1  0
  3 15  1  0
  4 16  1  0
  5 17  1  0
  5 18  1  0
  5 19  1  0
  6 20  1  0
  7 21  1  0
  7 22  1  0
  7 23  1  0
  8 24  1  0
  9 25  1  0
M  END
