
     RDKit          3D

 21 22  0  0  0  0  0  0  0  0999 V2000
    2.3686    0.7273    0.3682 C   0  0  0  0  0  0  0  0  0  0  0  0
    1.3232   -0.3155    0.7024 C   0  0  0  0  0  0  0  0  0  0  0  0
    0.4029   -0.4176   -0.4889 C   0  0  0  0  0  0  0  0  0  0  0  0
   -0.6971   -1.4557   -0.2452 C   0  0  0  0  0  0  0  0  0  0  0  0
   -1.9390   -0.6388   -0.4834 C   0  0  0  0  0  0  0  0  0  0  0  0
   -2.1214    0.2616    0.6743 C   0  0  0  0  0  0  0  0  0  0  0  0
   -1.1363    1.1782    0.5535 C   0  0  0  0  0  0  0  0  0  0  0  0
   -0.4181    0.8216   -0.6982 C   0  0  0  0  0  0  0  0  0  0  0  0
   -1.4849    0.2812   -1.4593 O   0  0  0  0  0  0  0  0  0  0  0  0
    2.5913    1.3920    1.2343 H   0  0  0  0  0  0  0  0  0  0  0  0
    2.0626    1.3539   -0.5115 H   0  0  0  0  0  0  0  0  0  0  0  0
    3.3518    0.2398    0.1003 H   0  0  0  0  0  0  0  0  0  0  0  0
    1.8166   -1.2750    0.8553 H   0  0  0  0  0  0  0  0  0  0  0  0
    0.7758   -0.0284    1.6271 H   0  0  0  0  0  0  0  0  0  0  0  0
    0.9913   -0.6628   -1.3719 H   0  0  0  0  0  0  0  0  0  0  0  0
   -0.6207   -2.2898   -0.9689 H   0  0  0  0  0  0  0  0  0  0  0  0
   -0.7051   -1.7995    0.8070 H   0  0  0  0  0  0  0  0  0  0  0  0
   -2.8084   -1.1920   -0.7878 H   0  0  0  0  0  0  0  0  0  0  0  0
   -2.8813    0.1937    1.4457 H   0  0  0  0  0  0  0  0  0  0  0  0
   -0.9541    1.9862    1.2563 H   0  0  0  0  0  0  0  0  0  0  0  0
    0.0822    1.6396   -1.1869 H   0  0  0  0  0  0  0  0  0  0  0  0
  1  2  1  0
  2  3  1  0
  3  4  1  0
  4  5  1  0
  5  6  1  0
  6  7  2  0
  7  8  1  0
  8  9  1  0
  8  3  1  0
  9  5  1  0
  1 10  1  0
  1 11  1  0
  1 12  1  0
  2 13  1  0
  2 14  1  0
  3 15  1  0
  4 16  1  0
  4 17  1  0
  5 18  1  0
  6 19  1  0
  7 20  1  0
  8 21  1  0
M  END
