
     RDKit          3D

 23 24  0  0  0  0  0  0  0  0999 V2000
    2.8699   -0.3631   -0.6256 C   0  0  0  0  0  0  0  0  0  0  0  0
    1.8661    0.5569    0.0100 C   0  0  0  0  0  0  0  0  0  0  0  0
    0.8524   -0.2063    0.8075 C   0  0  0  0  0  0  0  0  0  0  0  0
   -0.2117    0.6310    1.4940 C   0  0  0  0  0  0  0  0  0  0  0  0
   -0.5415   -0.3417    0.4407 C   0  0  0  0  0  0  0  0  0  0  0  0
   -1.3001   -1.4556    0.6292 O   0  0  0  0  0  0  0  0  0  0  0  0
   -1.6255   -1.4312   -0.7367 C   0  0  0  0  0  0  0  0  0  0  0  0
   -1.1439    0.0151   -0.8571 C   0  0  0  0  0  0  0  0  0  0  0  0
   -2.3470    0.9302   -0.8204 C   0  0  0  0  0  0  0  0  0  0  0  0
    3.8195   -0.4306   -0.0314 H   0  0  0  0  0  0  0  0  0  0  0  0
    2.4546   -1.3981   -0.6161 H   0  0  0  0  0  0  0  0  0  0  0  0
    3.1134   -0.0757   -1.6600 H   0  0  0  0  0  0  0  0  0  0  0  0
    2.4024    1.2439    0.6931 H   0  0  0  0  0  0  0  0  0  0  0  0
    1.3963    1.1908   -0.7787 H   0  0  0  0  0  0  0  0  0  0  0  0
    1.3064   -0.9855    1.4682 H   0  0  0  0  0  0  0  0  0  0  0  0
   -0.5261    0.3676    2.5165 H   0  0  0  0  0  0  0  0  0  0  0  0
   -0.2646    1.7192    1.2096 H   0  0  0  0  0  0  0  0  0  0  0  0
   -1.0213   -2.1259   -1.3408 H   0  0  0  0  0  0  0  0  0  0  0  0
   -2.7086   -1.5683   -0.8623 H   0  0  0  0  0  0  0  0  0  0  0  0
   -0.4925    0.1818   -1.7198 H   0  0  0  0  0  0  0  0  0  0  0  0
   -2.0042    1.9363   -1.1259 H   0  0  0  0  0  0  0  0  0  0  0  0
   -2.7512    1.0292    0.2098 H   0  0  0  0  0  0  0  0  0  0  0  0
   -3.1430    0.5799   -1.4846 H   0  0  0  0  0  0  0  0  0  0  0  0
  1  2  1  0
  2  3  1  0
  3  4  1  0
  4  5  1  0
  5  6  1  0
  6  7  1  0
  7  8  1  0
  8  9  1  0
  5  3  1  0
  8  5  1  0
  1 10  1  0
  1 11  1  0
  1 12  1  0
  2 13  1  0
  2 14  1  0
  3 15  1  0
  4 16  1  0
  4 17  1  0
  7 18  1  0
  7 19  1  0
  8 20  1  0
  9 21  1  0
  9 22  1  0
  9 23  1  0
M  END
