
     RDKit          3D

 17 18  0  0  0  0  0  0  0  0999 V2000
    1.7598   -0.2717    0.6732 C   0  0  0  0  0  0  0  0  0  0  0  0
    1.0552    0.1402   -0.6052 C   0  0  0  0  0  0  0  0  0  0  0  0
   -0.4369    0.0354   -0.4864 C   0  0  0  0  0  0  0  0  0  0  0  0
   -1.0828   -1.2797   -0.1838 C   0  0  0  0  0  0  0  0  0  0  0  0
   -1.9432   -0.6576    0.7342 O   0  0  0  0  0  0  0  0  0  0  0  0
   -1.1781    0.5080    0.6744 C   0  0  0  0  0  0  0  0  0  0  0  0
   -1.2392    1.2622   -0.5897 C   0  0  0  0  0  0  0  0  0  0  0  0
    1.5425    0.4552    1.4983 H   0  0  0  0  0  0  0  0  0  0  0  0
    1.5407   -1.3098    0.9567 H   0  0  0  0  0  0  0  0  0  0  0  0
    2.8534   -0.2267    0.4606 H   0  0  0  0  0  0  0  0  0  0  0  0
    1.4789   -0.4663   -1.4138 H   0  0  0  0  0  0  0  0  0  0  0  0
    1.3180    1.1988   -0.8089 H   0  0  0  0  0  0  0  0  0  0  0  0
   -1.6376   -1.7263   -1.0339 H   0  0  0  0  0  0  0  0  0  0  0  0
   -0.4438   -2.0186    0.3526 H   0  0  0  0  0  0  0  0  0  0  0  0
   -0.7240    0.9125    1.5910 H   0  0  0  0  0  0  0  0  0  0  0  0
   -0.6974    2.2315   -0.6013 H   0  0  0  0  0  0  0  0  0  0  0  0
   -2.1653    1.2130   -1.2179 H   0  0  0  0  0  0  0  0  0  0  0  0
  1  2  1  0
  2  3  1  0
  3  4  1  0
  4  5  1  0
  5  6  1  0
  6  7  1  0
  6  3  1  0
  7  3  1  0
  1  8  1  0
  1  9  1  0
  1 10  1  0
  2 11  1  0
  2 12  1  0
  4 13  1  0
  4 14  1  0
  6 15  1  0
  7 16  1  0
  7 17  1  0
M  END
