
     RDKit          3D

 19 20  0  0  0  0  0  0  0  0999 V2000
   -2.4927    0.6433   -0.3422 C   0  0  0  0  0  0  0  0  0  0  0  0
   -1.6376    0.1009    0.7452 C   0  0  0  0  0  0  0  0  0  0  0  0
   -0.2633   -0.2574    0.3439 C   0  0  0  0  0  0  0  0  0  0  0  0
    0.2873   -0.1527   -0.8566 C   0  0  0  0  0  0  0  0  0  0  0  0
    1.7054   -0.5815   -0.6534 C   0  0  0  0  0  0  0  0  0  0  0  0
    2.3525    0.4344    0.2368 C   0  0  0  0  0  0  0  0  0  0  0  0
    1.7821    0.1362    1.4923 O   0  0  0  0  0  0  0  0  0  0  0  0
    0.7978   -0.8175    1.2224 C   0  0  0  0  0  0  0  0  0  0  0  0
    1.4943   -1.6239    0.2844 O   0  0  0  0  0  0  0  0  0  0  0  0
   -2.8693    1.6537   -0.0205 H   0  0  0  0  0  0  0  0  0  0  0  0
   -2.0440    0.7314   -1.3293 H   0  0  0  0  0  0  0  0  0  0  0  0
   -3.4412    0.0484   -0.4902 H   0  0  0  0  0  0  0  0  0  0  0  0
   -2.1833   -0.7880    1.1812 H   0  0  0  0  0  0  0  0  0  0  0  0
   -1.5701    0.8124    1.6144 H   0  0  0  0  0  0  0  0  0  0  0  0
   -0.1504    0.1597   -1.7691 H   0  0  0  0  0  0  0  0  0  0  0  0
    2.2319   -0.8753   -1.5318 H   0  0  0  0  0  0  0  0  0  0  0  0
    2.1008    1.4886   -0.0383 H   0  0  0  0  0  0  0  0  0  0  0  0
    3.4461    0.2463    0.2334 H   0  0  0  0  0  0  0  0  0  0  0  0
    0.4538   -1.3590    2.0818 H   0  0  0  0  0  0  0  0  0  0  0  0
  1  2  1  0
  2  3  1  0
  3  4  2  0
  4  5  1  0
  5  6  1  0
  6  7  1  0
  7  8  1  0
  8  9  1  0
  8  3  1  0
  9  5  1  0
  1 10  1  0
  1 11  1  0
  1 12  1  0
  2 13  1  0
  2 14  1  0
  4 15  1  0
  5 16  1  0
  6 17  1  0
  6 18  1  0
  8 19  1  0
M  END
