
     RDKit          3D

 19 19  0  0  0  0  0  0  0  0999 V2000
   -0.4556    1.9917   -0.3536 C   0  0  0  0  0  0  0  0  0  0  0  0
    0.0051    0.7003   -0.9786 C   0  0  0  0  0  0  0  0  0  0  0  0
   -0.1594   -0.4485    0.0190 C   0  0  0  0  0  0  0  0  0  0  0  0
   -1.6001   -0.5436    0.3792 C   0  0  0  0  0  0  0  0  0  0  0  0
    0.3468   -1.6229   -0.4803 O   0  0  0  0  0  0  0  0  0  0  0  0
    1.6402   -1.7712   -0.0606 C   0  0  0  0  0  0  0  0  0  0  0  0
    1.9557   -0.6792    0.7861 O   0  0  0  0  0  0  0  0  0  0  0  0
    0.7220   -0.1692    1.1769 C   0  0  0  0  0  0  0  0  0  0  0  0
    0.4176    0.4060    2.2763 O   0  0  0  0  0  0  0  0  0  0  0  0
   -1.0520    1.8069    0.5542 H   0  0  0  0  0  0  0  0  0  0  0  0
   -1.0657    2.5269   -1.1136 H   0  0  0  0  0  0  0  0  0  0  0  0
    0.4141    2.6694   -0.1477 H   0  0  0  0  0  0  0  0  0  0  0  0
    1.1059    0.7585   -1.1953 H   0  0  0  0  0  0  0  0  0  0  0  0
   -0.4934    0.4931   -1.9222 H   0  0  0  0  0  0  0  0  0  0  0  0
   -2.2060   -0.1065   -0.4213 H   0  0  0  0  0  0  0  0  0  0  0  0
   -1.9150   -1.5964    0.5484 H   0  0  0  0  0  0  0  0  0  0  0  0
   -1.7857    0.0565    1.3014 H   0  0  0  0  0  0  0  0  0  0  0  0
    2.3393   -1.7849   -0.9429 H   0  0  0  0  0  0  0  0  0  0  0  0
    1.7862   -2.6871    0.5746 H   0  0  0  0  0  0  0  0  0  0  0  0
  1  2  1  0
  2  3  1  0
  3  4  1  0
  3  5  1  0
  5  6  1  0
  6  7  1  0
  7  8  1  0
  8  9  2  0
  8  3  1  0
  1 10  1  0
  1 11  1  0
  1 12  1  0
  2 13  1  0
  2 14  1  0
  4 15  1  0
  4 16  1  0
  4 17  1  0
  6 18  1  0
  6 19  1  0
M  END
