
     RDKit          3D

 21 21  0  0  0  0  0  0  0  0999 V2000
    1.9054   -0.0486    0.5371 C   0  0  0  0  0  0  0  0  0  0  0  0
    0.9704    1.0160    0.1057 C   0  0  0  0  0  0  0  0  0  0  0  0
   -0.3477    0.5412   -0.4173 C   0  0  0  0  0  0  0  0  0  0  0  0
   -1.0928    1.6780   -0.7735 O   0  0  0  0  0  0  0  0  0  0  0  0
   -0.2615   -0.4155   -1.5552 C   0  0  0  0  0  0  0  0  0  0  0  0
   -0.2224   -1.6872   -0.9689 O   0  0  0  0  0  0  0  0  0  0  0  0
   -0.9526   -1.6455    0.1805 C   0  0  0  0  0  0  0  0  0  0  0  0
   -1.1544   -0.2224    0.5891 C   0  0  0  0  0  0  0  0  0  0  0  0
   -0.7450    0.0657    1.8728 O   0  0  0  0  0  0  0  0  0  0  0  0
    2.2113    0.0819    1.6166 H   0  0  0  0  0  0  0  0  0  0  0  0
    2.8828    0.0061   -0.0215 H   0  0  0  0  0  0  0  0  0  0  0  0
    1.5547   -1.0727    0.4404 H   0  0  0  0  0  0  0  0  0  0  0  0
    1.4518    1.6259   -0.6854 H   0  0  0  0  0  0  0  0  0  0  0  0
    0.7655    1.7008    0.9562 H   0  0  0  0  0  0  0  0  0  0  0  0
   -0.4940    2.3740   -1.1656 H   0  0  0  0  0  0  0  0  0  0  0  0
    0.5714   -0.2348   -2.2342 H   0  0  0  0  0  0  0  0  0  0  0  0
   -1.2557   -0.3834   -2.0939 H   0  0  0  0  0  0  0  0  0  0  0  0
   -1.9379   -2.1621   -0.0113 H   0  0  0  0  0  0  0  0  0  0  0  0
   -0.4804   -2.1983    1.0343 H   0  0  0  0  0  0  0  0  0  0  0  0
   -2.2543    0.0127    0.4944 H   0  0  0  0  0  0  0  0  0  0  0  0
   -1.1146    0.9683    2.0999 H   0  0  0  0  0  0  0  0  0  0  0  0
  1  2  1  0
  2  3  1  0
  3  4  1  0
  3  5  1  0
  5  6  1  0
  6  7  1  0
  7  8  1  0
  8  9  1  0
  8  3  1  0
  1 10  1  0
  1 11  1  0
  1 12  1  0
  2 13  1  0
  2 14  1  0
  4 15  1  0
  5 16  1  0
  5 17  1  0
  7 18  1  0
  7 19  1  0
  8 20  1  0
  9 21  1  0
M  END
