
     RDKit          3D

 21 22  0  0  0  0  0  0  0  0999 V2000
    3.0517   -0.3007   -0.0512 C   0  0  0  0  0  0  0  0  0  0  0  0
    1.9527    0.5078   -0.7053 C   0  0  0  0  0  0  0  0  0  0  0  0
    0.6100    0.0597   -0.2277 C   0  0  0  0  0  0  0  0  0  0  0  0
    0.3814   -0.9162    0.6535 C   0  0  0  0  0  0  0  0  0  0  0  0
   -1.0966   -1.0426    0.8530 C   0  0  0  0  0  0  0  0  0  0  0  0
   -1.7791   -1.4879   -0.3679 O   0  0  0  0  0  0  0  0  0  0  0  0
   -1.7259   -0.1331    0.0637 C   0  0  0  0  0  0  0  0  0  0  0  0
   -3.0444    0.5490    0.1631 C   0  0  0  0  0  0  0  0  0  0  0  0
   -0.6555    0.6653   -0.6915 C   0  0  0  0  0  0  0  0  0  0  0  0
    2.8402   -1.3878   -0.0511 H   0  0  0  0  0  0  0  0  0  0  0  0
    3.1952    0.1116    0.9681 H   0  0  0  0  0  0  0  0  0  0  0  0
    3.9912   -0.0570   -0.6069 H   0  0  0  0  0  0  0  0  0  0  0  0
    2.1134    1.5761   -0.4185 H   0  0  0  0  0  0  0  0  0  0  0  0
    2.0165    0.4316   -1.8235 H   0  0  0  0  0  0  0  0  0  0  0  0
    1.1654   -1.4913    1.1186 H   0  0  0  0  0  0  0  0  0  0  0  0
   -1.3738   -1.6359    1.7281 H   0  0  0  0  0  0  0  0  0  0  0  0
   -3.2238    1.1172   -0.7771 H   0  0  0  0  0  0  0  0  0  0  0  0
   -2.9748    1.3297    0.9686 H   0  0  0  0  0  0  0  0  0  0  0  0
   -3.9003   -0.1297    0.3498 H   0  0  0  0  0  0  0  0  0  0  0  0
   -0.8158    0.5369   -1.7773 H   0  0  0  0  0  0  0  0  0  0  0  0
   -0.7275    1.6973   -0.3373 H   0  0  0  0  0  0  0  0  0  0  0  0
  1  2  1  0
  2  3  1  0
  3  4  2  0
  4  5  1  0
  5  6  1  0
  6  7  1  0
  7  8  1  0
  7  9  1  0
  9  3  1  0
  7  5  1  0
  1 10  1  0
  1 11  1  0
  1 12  1  0
  2 13  1  0
  2 14  1  0
  4 15  1  0
  5 16  1  0
  8 17  1  0
  8 18  1  0
  8 19  1  0
  9 20  1  0
  9 21  1  0
M  END
