
     RDKit          3D

 23 24  0  0  0  0  0  0  0  0999 V2000
   -2.4961    0.4175   -0.1145 C   0  0  0  0  0  0  0  0  0  0  0  0
   -1.2875    0.6139    0.7765 C   0  0  0  0  0  0  0  0  0  0  0  0
   -0.0725   -0.1068    0.2389 C   0  0  0  0  0  0  0  0  0  0  0  0
   -0.3582   -1.5997    0.1544 C   0  0  0  0  0  0  0  0  0  0  0  0
    0.6006    0.4780   -0.9494 C   0  0  0  0  0  0  0  0  0  0  0  0
    1.1494    1.5339   -0.0376 C   0  0  0  0  0  0  0  0  0  0  0  0
    1.2546    0.2650    0.7654 C   0  0  0  0  0  0  0  0  0  0  0  0
    1.8275   -0.2783   -0.5209 C   0  0  0  0  0  0  0  0  0  0  0  0
    1.8929   -1.6139   -0.7108 O   0  0  0  0  0  0  0  0  0  0  0  0
   -3.4269    0.2321    0.4626 H   0  0  0  0  0  0  0  0  0  0  0  0
   -2.7109    1.3499   -0.7109 H   0  0  0  0  0  0  0  0  0  0  0  0
   -2.3596   -0.4497   -0.7918 H   0  0  0  0  0  0  0  0  0  0  0  0
   -1.5813    0.1079    1.7506 H   0  0  0  0  0  0  0  0  0  0  0  0
   -1.1193    1.6572    1.0748 H   0  0  0  0  0  0  0  0  0  0  0  0
   -0.3869   -1.9759   -0.8881 H   0  0  0  0  0  0  0  0  0  0  0  0
   -1.4032   -1.8061    0.5389 H   0  0  0  0  0  0  0  0  0  0  0  0
    0.2761   -2.1995    0.8384 H   0  0  0  0  0  0  0  0  0  0  0  0
    0.2577    0.5935   -1.8817 H   0  0  0  0  0  0  0  0  0  0  0  0
    2.1768    1.9049   -0.3219 H   0  0  0  0  0  0  0  0  0  0  0  0
    0.5371    2.3433    0.2986 H   0  0  0  0  0  0  0  0  0  0  0  0
    1.6417    0.1633    1.6804 H   0  0  0  0  0  0  0  0  0  0  0  0
    2.7394    0.2622   -0.8917 H   0  0  0  0  0  0  0  0  0  0  0  0
    2.8486   -1.8927   -0.7600 H   0  0  0  0  0  0  0  0  0  0  0  0
  1  2  1  0
  2  3  1  0
  3  4  1  0
  3  5  1  0
  5  6  1  0
  6  7  1  0
  7  8  1  0
  8  9  1  0
  7  3  1  0
  8  5  1  0
  1 10  1  0
  1 11  1  0
  1 12  1  0
  2 13  1  0
  2 14  1  0
  4 15  1  0
  4 16  1  0
  4 17  1  0
  5 18  1  0
  6 19  1  0
  6 20  1  0
  7 21  1  0
  8 22  1  0
  9 23  1  0
M  END
