
     RDKit          3D

 20 21  0  0  0  0  0  0  0  0999 V2000
    2.1764   -0.5132   -0.8460 C   0  0  0  0  0  0  0  0  0  0  0  0
    1.1044   -0.7607    0.1709 C   0  0  0  0  0  0  0  0  0  0  0  0
   -0.0010    0.3095    0.1187 C   0  0  0  0  0  0  0  0  0  0  0  0
    0.5353    1.7282    0.3863 C   0  0  0  0  0  0  0  0  0  0  0  0
   -1.2483   -0.1416    0.6994 C   0  0  0  0  0  0  0  0  0  0  0  0
   -2.3968   -0.7949   -0.0825 C   0  0  0  0  0  0  0  0  0  0  0  0
   -2.4164    0.4934   -0.6838 O   0  0  0  0  0  0  0  0  0  0  0  0
   -1.0569    0.2165   -0.8292 C   0  0  0  0  0  0  0  0  0  0  0  0
    3.1484   -0.8354   -0.3768 H   0  0  0  0  0  0  0  0  0  0  0  0
    2.2503    0.5103   -1.2033 H   0  0  0  0  0  0  0  0  0  0  0  0
    2.0757   -1.1628   -1.7561 H   0  0  0  0  0  0  0  0  0  0  0  0
    0.6063   -1.7182   -0.1054 H   0  0  0  0  0  0  0  0  0  0  0  0
    1.4623   -0.8697    1.1988 H   0  0  0  0  0  0  0  0  0  0  0  0
    0.2712    1.9141    1.4679 H   0  0  0  0  0  0  0  0  0  0  0  0
    1.6094    1.7891    0.3036 H   0  0  0  0  0  0  0  0  0  0  0  0
   -0.0273    2.4797   -0.1819 H   0  0  0  0  0  0  0  0  0  0  0  0
   -1.7380    0.6826    1.3089 H   0  0  0  0  0  0  0  0  0  0  0  0
   -3.2523   -1.0171    0.5528 H   0  0  0  0  0  0  0  0  0  0  0  0
   -2.1234   -1.6189   -0.7301 H   0  0  0  0  0  0  0  0  0  0  0  0
   -0.9793   -0.6908   -1.5071 H   0  0  0  0  0  0  0  0  0  0  0  0
  1  2  1  0
  2  3  1  0
  3  4  1  0
  3  5  1  0
  5  6  1  0
  6  7  1  0
  7  8  1  0
  8  3  1  0
  8  5  1  0
  1  9  1  0
  1 10  1  0
  1 11  1  0
  2 12  1  0
  2 13  1  0
  4 14  1  0
  4 15  1  0
  4 16  1  0
  5 17  1  0
  6 18  1  0
  6 19  1  0
  8 20  1  0
M  END
