
     RDKit          3D

 19 19  0  0  0  0  0  0  0  0999 V2000
   -2.0486   -0.2788    0.7697 C   0  0  0  0  0  0  0  0  0  0  0  0
   -1.5092   -0.4830   -0.6029 C   0  0  0  0  0  0  0  0  0  0  0  0
   -0.0154   -0.3476   -0.6910 C   0  0  0  0  0  0  0  0  0  0  0  0
    0.4697   -0.5386   -1.9640 O   0  0  0  0  0  0  0  0  0  0  0  0
    0.7813   -1.1292    0.3126 C   0  0  0  0  0  0  0  0  0  0  0  0
    1.7493    0.0621    0.2541 C   0  0  0  0  0  0  0  0  0  0  0  0
    2.3534    0.3682    1.4415 O   0  0  0  0  0  0  0  0  0  0  0  0
    0.5471    0.8962   -0.0908 C   0  0  0  0  0  0  0  0  0  0  0  0
    0.2374    2.0649    0.0764 O   0  0  0  0  0  0  0  0  0  0  0  0
   -1.9110    0.7949    1.0716 H   0  0  0  0  0  0  0  0  0  0  0  0
   -1.6479   -0.9775    1.5186 H   0  0  0  0  0  0  0  0  0  0  0  0
   -3.1455   -0.4446    0.7346 H   0  0  0  0  0  0  0  0  0  0  0  0
   -1.9476    0.3090   -1.2591 H   0  0  0  0  0  0  0  0  0  0  0  0
   -1.7899   -1.4482   -1.0286 H   0  0  0  0  0  0  0  0  0  0  0  0
    0.5371    0.3505   -2.4096 H   0  0  0  0  0  0  0  0  0  0  0  0
    1.2816   -2.0424   -0.0608 H   0  0  0  0  0  0  0  0  0  0  0  0
    0.3737   -1.1853    1.3345 H   0  0  0  0  0  0  0  0  0  0  0  0
    2.3779   -0.0344   -0.6403 H   0  0  0  0  0  0  0  0  0  0  0  0
    3.3067    0.6150    1.2336 H   0  0  0  0  0  0  0  0  0  0  0  0
  1  2  1  0
  2  3  1  0
  3  4  1  0
  3  5  1  0
  5  6  1  0
  6  7  1  0
  6  8  1  0
  8  9  2  0
  8  3  1  0
  1 10  1  0
  1 11  1  0
  1 12  1  0
  2 13  1  0
  2 14  1  0
  4 15  1  0
  5 16  1  0
  5 17  1  0
  6 18  1  0
  7 19  1  0
M  END
