
     RDKit          3D

 23 23  0  0  0  0  0  0  0  0999 V2000
    2.7321    0.8503    0.4105 C   0  0  0  0  0  0  0  0  0  0  0  0
    1.4340    0.9841   -0.3589 C   0  0  0  0  0  0  0  0  0  0  0  0
    0.6243   -0.2355   -0.3048 C   0  0  0  0  0  0  0  0  0  0  0  0
   -0.5975   -0.3407    0.1894 C   0  0  0  0  0  0  0  0  0  0  0  0
   -1.4240    0.7359    0.7967 C   0  0  0  0  0  0  0  0  0  0  0  0
   -2.6799    0.8497   -0.0400 C   0  0  0  0  0  0  0  0  0  0  0  0
   -1.0609   -1.7545    0.0499 C   0  0  0  0  0  0  0  0  0  0  0  0
    0.0693   -2.4698   -0.2198 O   0  0  0  0  0  0  0  0  0  0  0  0
    0.9980   -1.6199   -0.7930 C   0  0  0  0  0  0  0  0  0  0  0  0
    2.5982    0.3808    1.3921 H   0  0  0  0  0  0  0  0  0  0  0  0
    3.4721    0.3286   -0.2273 H   0  0  0  0  0  0  0  0  0  0  0  0
    3.1430    1.8835    0.5599 H   0  0  0  0  0  0  0  0  0  0  0  0
    0.8559    1.8536   -0.0087 H   0  0  0  0  0  0  0  0  0  0  0  0
    1.7420    1.2517   -1.4104 H   0  0  0  0  0  0  0  0  0  0  0  0
   -0.9380    1.7130    0.8556 H   0  0  0  0  0  0  0  0  0  0  0  0
   -1.7531    0.4473    1.8192 H   0  0  0  0  0  0  0  0  0  0  0  0
   -2.9250   -0.1521   -0.4455 H   0  0  0  0  0  0  0  0  0  0  0  0
   -3.5030    1.2020    0.6040 H   0  0  0  0  0  0  0  0  0  0  0  0
   -2.4782    1.5817   -0.8330 H   0  0  0  0  0  0  0  0  0  0  0  0
   -1.7797   -1.8801   -0.7758 H   0  0  0  0  0  0  0  0  0  0  0  0
   -1.5802   -2.0474    0.9798 H   0  0  0  0  0  0  0  0  0  0  0  0
    1.9965   -1.8901   -0.3619 H   0  0  0  0  0  0  0  0  0  0  0  0
    1.0543   -1.6722   -1.8779 H   0  0  0  0  0  0  0  0  0  0  0  0
  1  2  1  0
  2  3  1  0
  3  4  2  0
  4  5  1  0
  5  6  1  0
  4  7  1  0
  7  8  1  0
  8  9  1  0
  9  3  1  0
  1 10  1  0
  1 11  1  0
  1 12  1  0
  2 13  1  0
  2 14  1  0
  5 15  1  0
  5 16  1  0
  6 17  1  0
  6 18  1  0
  6 19  1  0
  7 20  1  0
  7 21  1  0
  9 22  1  0
  9 23  1  0
M  END
