
     RDKit          3D

 24 24  0  0  0  0  0  0  0  0999 V2000
   -2.6501   -0.3908   -0.3261 C   0  0  0  0  0  0  0  0  0  0  0  0
   -1.2333   -0.8189   -0.5938 C   0  0  0  0  0  0  0  0  0  0  0  0
   -0.2144    0.1789   -0.0879 C   0  0  0  0  0  0  0  0  0  0  0  0
    1.2152   -0.2636   -0.3637 C   0  0  0  0  0  0  0  0  0  0  0  0
    1.4964   -1.5988    0.3220 C   0  0  0  0  0  0  0  0  0  0  0  0
    2.2301    0.7572    0.0111 C   0  0  0  0  0  0  0  0  0  0  0  0
   -0.4669    1.6448   -0.2109 C   0  0  0  0  0  0  0  0  0  0  0  0
   -0.5378    0.9419    1.1314 C   0  0  0  0  0  0  0  0  0  0  0  0
   -3.3089   -1.1185   -0.8521 H   0  0  0  0  0  0  0  0  0  0  0  0
   -2.8495    0.5906   -0.7748 H   0  0  0  0  0  0  0  0  0  0  0  0
   -2.8913   -0.4264    0.7546 H   0  0  0  0  0  0  0  0  0  0  0  0
   -1.0832   -1.0041   -1.6651 H   0  0  0  0  0  0  0  0  0  0  0  0
   -1.0504   -1.7898   -0.0623 H   0  0  0  0  0  0  0  0  0  0  0  0
    1.2737   -0.4583   -1.4573 H   0  0  0  0  0  0  0  0  0  0  0  0
    1.2574   -2.4420   -0.3776 H   0  0  0  0  0  0  0  0  0  0  0  0
    2.5679   -1.5908    0.5999 H   0  0  0  0  0  0  0  0  0  0  0  0
    0.8692   -1.6877    1.2194 H   0  0  0  0  0  0  0  0  0  0  0  0
    1.9001    1.5181    0.7213 H   0  0  0  0  0  0  0  0  0  0  0  0
    3.1156    0.2415    0.4868 H   0  0  0  0  0  0  0  0  0  0  0  0
    2.6728    1.2790   -0.8878 H   0  0  0  0  0  0  0  0  0  0  0  0
    0.4077    2.3005   -0.4276 H   0  0  0  0  0  0  0  0  0  0  0  0
   -1.4210    2.0367   -0.6090 H   0  0  0  0  0  0  0  0  0  0  0  0
   -1.5380    0.8589    1.5775 H   0  0  0  0  0  0  0  0  0  0  0  0
    0.2387    1.2416    1.8721 H   0  0  0  0  0  0  0  0  0  0  0  0
  1  2  1  0
  2  3  1  0
  3  4  1  0
  4  5  1  0
  4  6  1  0
  3  7  1  0
  7  8  1  0
  8  3  1  0
  1  9  1  0
  1 10  1  0
  1 11  1  0
  2 12  1  0
  2 13  1  0
  4 14  1  0
  5 15  1  0
  5 16  1  0
  5 17  1  0
  6 18  1  0
  6 19  1  0
  6 20  1  0
  7 21  1  0
  7 22  1  0
  8 23  1  0
  8 24  1  0
M  END
