
     RDKit          3D

 23 25  0  0  0  0  0  0  0  0999 V2000
    1.9068    1.1635    0.7642 C   0  0  0  0  0  0  0  0  0  0  0  0
    1.7805   -0.0239   -0.1334 C   0  0  0  0  0  0  0  0  0  0  0  0
    0.3730   -0.4357   -0.4124 C   0  0  0  0  0  0  0  0  0  0  0  0
    0.2084   -1.6259   -1.3112 C   0  0  0  0  0  0  0  0  0  0  0  0
   -0.2100   -1.6909    0.1020 C   0  0  0  0  0  0  0  0  0  0  0  0
   -1.5022   -0.9829    0.4278 C   0  0  0  0  0  0  0  0  0  0  0  0
   -1.4033    0.1169    1.4053 C   0  0  0  0  0  0  0  0  0  0  0  0
   -0.7933    0.3275    0.0768 C   0  0  0  0  0  0  0  0  0  0  0  0
   -1.4746    1.2925   -0.8390 C   0  0  0  0  0  0  0  0  0  0  0  0
    1.9153    0.8556    1.8190 H   0  0  0  0  0  0  0  0  0  0  0  0
    2.9179    1.6196    0.5675 H   0  0  0  0  0  0  0  0  0  0  0  0
    1.1797    1.9677    0.5340 H   0  0  0  0  0  0  0  0  0  0  0  0
    2.3376   -0.8694    0.3405 H   0  0  0  0  0  0  0  0  0  0  0  0
    2.2776    0.2115   -1.1168 H   0  0  0  0  0  0  0  0  0  0  0  0
   -0.6186   -1.6004   -2.0588 H   0  0  0  0  0  0  0  0  0  0  0  0
    1.1022   -2.1865   -1.5798 H   0  0  0  0  0  0  0  0  0  0  0  0
    0.3399   -2.2291    0.8739 H   0  0  0  0  0  0  0  0  0  0  0  0
   -2.3998   -1.2242   -0.1384 H   0  0  0  0  0  0  0  0  0  0  0  0
   -2.3260    0.6579    1.6313 H   0  0  0  0  0  0  0  0  0  0  0  0
   -0.7521   -0.0578    2.2970 H   0  0  0  0  0  0  0  0  0  0  0  0
   -1.9529    0.7965   -1.6863 H   0  0  0  0  0  0  0  0  0  0  0  0
   -0.7048    1.9811   -1.2643 H   0  0  0  0  0  0  0  0  0  0  0  0
   -2.2015    1.9364   -0.2990 H   0  0  0  0  0  0  0  0  0  0  0  0
  1  2  1  0
  2  3  1  0
  3  4  1  0
  4  5  1  0
  5  6  1  0
  6  7  1  0
  7  8  1  0
  8  9  1  0
  5  3  1  0
  8  6  1  0
  8  3  1  0
  1 10  1  0
  1 11  1  0
  1 12  1  0
  2 13  1  0
  2 14  1  0
  4 15  1  0
  4 16  1  0
  5 17  1  0
  6 18  1  0
  7 19  1  0
  7 20  1  0
  9 21  1  0
  9 22  1  0
  9 23  1  0
M  END
