
     RDKit          3D

 23 24  0  0  0  0  0  0  0  0999 V2000
    2.6988   -0.2461   -0.1853 C   0  0  0  0  0  0  0  0  0  0  0  0
    1.3575   -0.9509   -0.4211 C   0  0  0  0  0  0  0  0  0  0  0  0
    0.3566    0.0983   -0.7445 C   0  0  0  0  0  0  0  0  0  0  0  0
    0.1685    1.1222    0.3430 C   0  0  0  0  0  0  0  0  0  0  0  0
   -0.8533    2.1639    0.1351 C   0  0  0  0  0  0  0  0  0  0  0  0
   -1.2699    0.7858    0.4098 C   0  0  0  0  0  0  0  0  0  0  0  0
   -1.0808   -0.2440   -0.6733 C   0  0  0  0  0  0  0  0  0  0  0  0
   -1.4663   -1.6046   -0.2124 C   0  0  0  0  0  0  0  0  0  0  0  0
   -1.7636    0.1624   -1.8243 O   0  0  0  0  0  0  0  0  0  0  0  0
    2.7129    0.7531   -0.6643 H   0  0  0  0  0  0  0  0  0  0  0  0
    2.8933   -0.1354    0.9059 H   0  0  0  0  0  0  0  0  0  0  0  0
    3.5326   -0.8386   -0.6538 H   0  0  0  0  0  0  0  0  0  0  0  0
    1.1434   -1.5039    0.5010 H   0  0  0  0  0  0  0  0  0  0  0  0
    1.4920   -1.6585   -1.2470 H   0  0  0  0  0  0  0  0  0  0  0  0
    0.6537    0.6304   -1.6897 H   0  0  0  0  0  0  0  0  0  0  0  0
    0.7655    1.0310    1.2597 H   0  0  0  0  0  0  0  0  0  0  0  0
   -0.9698    2.5900   -0.8854 H   0  0  0  0  0  0  0  0  0  0  0  0
   -1.0155    2.8991    0.9495 H   0  0  0  0  0  0  0  0  0  0  0  0
   -1.7854    0.5206    1.3407 H   0  0  0  0  0  0  0  0  0  0  0  0
   -0.8432   -1.9523    0.6139 H   0  0  0  0  0  0  0  0  0  0  0  0
   -2.5239   -1.5905    0.1851 H   0  0  0  0  0  0  0  0  0  0  0  0
   -1.4874   -2.3035   -1.0859 H   0  0  0  0  0  0  0  0  0  0  0  0
   -2.7156    0.2715   -1.5807 H   0  0  0  0  0  0  0  0  0  0  0  0
  1  2  1  0
  2  3  1  0
  3  4  1  0
  4  5  1  0
  5  6  1  0
  6  7  1  0
  7  8  1  0
  7  9  1  0
  7  3  1  0
  6  4  1  0
  1 10  1  0
  1 11  1  0
  1 12  1  0
  2 13  1  0
  2 14  1  0
  3 15  1  0
  4 16  1  0
  5 17  1  0
  5 18  1  0
  6 19  1  0
  8 20  1  0
  8 21  1  0
  8 22  1  0
  9 23  1  0
M  END
