
     RDKit          3D

 19 19  0  0  0  0  0  0  0  0999 V2000
    1.9971   -0.5698   -0.5747 C   0  0  0  0  0  0  0  0  0  0  0  0
    1.3728    0.2609    0.4984 C   0  0  0  0  0  0  0  0  0  0  0  0
   -0.1267    0.4615    0.2838 C   0  0  0  0  0  0  0  0  0  0  0  0
   -0.7412    1.2780    1.3388 C   0  0  0  0  0  0  0  0  0  0  0  0
   -1.9029    1.6285    1.3653 O   0  0  0  0  0  0  0  0  0  0  0  0
   -0.6933    0.6651   -1.0685 C   0  0  0  0  0  0  0  0  0  0  0  0
   -0.8216   -0.6286   -0.3992 C   0  0  0  0  0  0  0  0  0  0  0  0
   -2.0572   -1.2001    0.1336 C   0  0  0  0  0  0  0  0  0  0  0  0
   -2.9094   -0.5212    0.6340 O   0  0  0  0  0  0  0  0  0  0  0  0
    3.1054   -0.4509   -0.4765 H   0  0  0  0  0  0  0  0  0  0  0  0
    1.7570   -0.2296   -1.6028 H   0  0  0  0  0  0  0  0  0  0  0  0
    1.8110   -1.6602   -0.4462 H   0  0  0  0  0  0  0  0  0  0  0  0
    1.8987    1.2380    0.5294 H   0  0  0  0  0  0  0  0  0  0  0  0
    1.4908   -0.2802    1.4585 H   0  0  0  0  0  0  0  0  0  0  0  0
   -0.1583    1.6414    2.2153 H   0  0  0  0  0  0  0  0  0  0  0  0
   -1.5775    1.3224   -1.1967 H   0  0  0  0  0  0  0  0  0  0  0  0
    0.0173    0.7805   -1.9337 H   0  0  0  0  0  0  0  0  0  0  0  0
   -0.1744   -1.4582   -0.8714 H   0  0  0  0  0  0  0  0  0  0  0  0
   -2.2876   -2.2776    0.1126 H   0  0  0  0  0  0  0  0  0  0  0  0
  1  2  1  0
  2  3  1  0
  3  4  1  0
  4  5  2  0
  3  6  1  0
  6  7  1  0
  7  8  1  0
  8  9  2  0
  7  3  1  0
  1 10  1  0
  1 11  1  0
  1 12  1  0
  2 13  1  0
  2 14  1  0
  4 15  1  0
  6 16  1  0
  6 17  1  0
  7 18  1  0
  8 19  1  0
M  END
