
     RDKit          3D

 23 23  0  0  0  0  0  0  0  0999 V2000
   -0.1622    2.3559    0.1941 C   0  0  0  0  0  0  0  0  0  0  0  0
    0.0705    1.0914   -0.5988 C   0  0  0  0  0  0  0  0  0  0  0  0
   -0.0738   -0.1473    0.2257 C   0  0  0  0  0  0  0  0  0  0  0  0
    0.8002   -0.2069    1.2885 O   0  0  0  0  0  0  0  0  0  0  0  0
    2.1132   -0.1762    0.8496 C   0  0  0  0  0  0  0  0  0  0  0  0
    0.1109   -1.4067   -0.5841 C   0  0  0  0  0  0  0  0  0  0  0  0
   -1.2832   -1.9947   -0.5962 C   0  0  0  0  0  0  0  0  0  0  0  0
   -1.7870   -1.5968    0.6499 O   0  0  0  0  0  0  0  0  0  0  0  0
   -1.5188   -0.2524    0.6775 C   0  0  0  0  0  0  0  0  0  0  0  0
    0.0156    2.1940    1.2782 H   0  0  0  0  0  0  0  0  0  0  0  0
    0.5526    3.1445   -0.1221 H   0  0  0  0  0  0  0  0  0  0  0  0
   -1.1771    2.7823    0.0038 H   0  0  0  0  0  0  0  0  0  0  0  0
    1.0759    1.1575   -1.0470 H   0  0  0  0  0  0  0  0  0  0  0  0
   -0.6522    1.0993   -1.4492 H   0  0  0  0  0  0  0  0  0  0  0  0
    2.8316   -0.2475    1.7155 H   0  0  0  0  0  0  0  0  0  0  0  0
    2.3883   -0.9878    0.1550 H   0  0  0  0  0  0  0  0  0  0  0  0
    2.3932    0.8228    0.3965 H   0  0  0  0  0  0  0  0  0  0  0  0
    0.5153   -1.1924   -1.5703 H   0  0  0  0  0  0  0  0  0  0  0  0
    0.7487   -2.1658   -0.0707 H   0  0  0  0  0  0  0  0  0  0  0  0
   -1.8898   -1.6159   -1.4280 H   0  0  0  0  0  0  0  0  0  0  0  0
   -1.2550   -3.1100   -0.5628 H   0  0  0  0  0  0  0  0  0  0  0  0
   -1.6768    0.2197    1.6641 H   0  0  0  0  0  0  0  0  0  0  0  0
   -2.1400    0.2328   -0.1119 H   0  0  0  0  0  0  0  0  0  0  0  0
  1  2  1  0
  2  3  1  0
  3  4  1  0
  4  5  1  0
  3  6  1  0
  6  7  1  0
  7  8  1  0
  8  9  1  0
  9  3  1  0
  1 10  1  0
  1 11  1  0
  1 12  1  0
  2 13  1  0
  2 14  1  0
  5 15  1  0
  5 16  1  0
  5 17  1  0
  6 18  1  0
  6 19  1  0
  7 20  1  0
  7 21  1  0
  9 22  1  0
  9 23  1  0
M  END
