
     RDKit          3D

 23 23  0  0  0  0  0  0  0  0999 V2000
   -2.5473    0.9684   -0.3831 C   0  0  0  0  0  0  0  0  0  0  0  0
   -1.7406   -0.3333   -0.3682 C   0  0  0  0  0  0  0  0  0  0  0  0
   -0.5189   -0.0682    0.4840 C   0  0  0  0  0  0  0  0  0  0  0  0
    0.2986    1.0616   -0.1113 C   0  0  0  0  0  0  0  0  0  0  0  0
    1.4675    0.0795   -0.1823 C   0  0  0  0  0  0  0  0  0  0  0  0
    2.5647    0.5168    0.7474 C   0  0  0  0  0  0  0  0  0  0  0  0
    0.6009   -1.0476    0.3454 C   0  0  0  0  0  0  0  0  0  0  0  0
    0.3340   -2.1309   -0.6091 C   0  0  0  0  0  0  0  0  0  0  0  0
    1.1825   -2.3792   -1.4519 O   0  0  0  0  0  0  0  0  0  0  0  0
   -2.4000    1.5407   -1.2997 H   0  0  0  0  0  0  0  0  0  0  0  0
   -2.2407    1.6320    0.4720 H   0  0  0  0  0  0  0  0  0  0  0  0
   -3.6160    0.7216   -0.1837 H   0  0  0  0  0  0  0  0  0  0  0  0
   -2.3254   -1.1885   -0.0410 H   0  0  0  0  0  0  0  0  0  0  0  0
   -1.4382   -0.5085   -1.4274 H   0  0  0  0  0  0  0  0  0  0  0  0
   -0.7782    0.1561    1.5252 H   0  0  0  0  0  0  0  0  0  0  0  0
    0.4615    1.9129    0.5673 H   0  0  0  0  0  0  0  0  0  0  0  0
   -0.0125    1.3482   -1.1293 H   0  0  0  0  0  0  0  0  0  0  0  0
    1.8387   -0.1279   -1.1847 H   0  0  0  0  0  0  0  0  0  0  0  0
    3.1013    1.3508    0.2498 H   0  0  0  0  0  0  0  0  0  0  0  0
    3.2568   -0.2989    0.9961 H   0  0  0  0  0  0  0  0  0  0  0  0
    2.1525    0.9339    1.7032 H   0  0  0  0  0  0  0  0  0  0  0  0
    0.9420   -1.4521    1.3250 H   0  0  0  0  0  0  0  0  0  0  0  0
   -0.5834   -2.6875   -0.5641 H   0  0  0  0  0  0  0  0  0  0  0  0
  1  2  1  0
  2  3  1  0
  3  4  1  0
  4  5  1  0
  5  6  1  0
  5  7  1  0
  7  8  1  0
  8  9  2  0
  7  3  1  0
  1 10  1  0
  1 11  1  0
  1 12  1  0
  2 13  1  0
  2 14  1  0
  3 15  1  0
  4 16  1  0
  4 17  1  0
  5 18  1  0
  6 19  1  0
  6 20  1  0
  6 21  1  0
  7 22  1  0
  8 23  1  0
M  END
