
     RDKit          3D

 23 24  0  0  0  0  0  0  0  0999 V2000
    2.9150    0.1536   -0.1365 C   0  0  0  0  0  0  0  0  0  0  0  0
    1.7931   -0.8335    0.0632 C   0  0  0  0  0  0  0  0  0  0  0  0
    0.6275   -0.2287    0.8275 C   0  0  0  0  0  0  0  0  0  0  0  0
   -0.3608   -1.2327    0.9574 O   0  0  0  0  0  0  0  0  0  0  0  0
   -1.1157   -0.5845    0.0419 C   0  0  0  0  0  0  0  0  0  0  0  0
   -2.5753   -0.6542    0.0335 C   0  0  0  0  0  0  0  0  0  0  0  0
   -1.7455   -1.1425   -1.1387 C   0  0  0  0  0  0  0  0  0  0  0  0
   -0.2941    0.6215   -0.0222 C   0  0  0  0  0  0  0  0  0  0  0  0
   -0.7878    1.8798    0.5928 C   0  0  0  0  0  0  0  0  0  0  0  0
    2.5812    0.9871   -0.7765 H   0  0  0  0  0  0  0  0  0  0  0  0
    3.7725   -0.4123   -0.5517 H   0  0  0  0  0  0  0  0  0  0  0  0
    3.1691    0.5661    0.8554 H   0  0  0  0  0  0  0  0  0  0  0  0
    1.3843   -1.2086   -0.8985 H   0  0  0  0  0  0  0  0  0  0  0  0
    2.1534   -1.7119    0.6296 H   0  0  0  0  0  0  0  0  0  0  0  0
    0.8731    0.2259    1.7907 H   0  0  0  0  0  0  0  0  0  0  0  0
   -3.2482    0.1921   -0.0725 H   0  0  0  0  0  0  0  0  0  0  0  0
   -3.0261   -1.5109    0.6164 H   0  0  0  0  0  0  0  0  0  0  0  0
   -1.6762   -2.2236   -1.3465 H   0  0  0  0  0  0  0  0  0  0  0  0
   -1.8402   -0.4548   -2.0289 H   0  0  0  0  0  0  0  0  0  0  0  0
    0.1395    0.7904   -1.0309 H   0  0  0  0  0  0  0  0  0  0  0  0
   -0.1920    2.1747    1.4829 H   0  0  0  0  0  0  0  0  0  0  0  0
   -1.8750    1.8643    0.8340 H   0  0  0  0  0  0  0  0  0  0  0  0
   -0.6718    2.7427   -0.1256 H   0  0  0  0  0  0  0  0  0  0  0  0
  1  2  1  0
  2  3  1  0
  3  4  1  0
  4  5  1  0
  5  6  1  0
  6  7  1  0
  5  8  1  0
  8  9  1  0
  8  3  1  0
  7  5  1  0
  1 10  1  0
  1 11  1  0
  1 12  1  0
  2 13  1  0
  2 14  1  0
  3 15  1  0
  6 16  1  0
  6 17  1  0
  7 18  1  0
  7 19  1  0
  8 20  1  0
  9 21  1  0
  9 22  1  0
  9 23  1  0
M  END
