
     RDKit          3D

 27 27  0  0  0  0  0  0  0  0999 V2000
    2.8283   -0.5775   -0.0628 C   0  0  0  0  0  0  0  0  0  0  0  0
    1.6759    0.3948   -0.1793 C   0  0  0  0  0  0  0  0  0  0  0  0
    0.4409   -0.2806    0.3936 C   0  0  0  0  0  0  0  0  0  0  0  0
    0.1554   -1.5415   -0.3978 C   0  0  0  0  0  0  0  0  0  0  0  0
   -1.2741   -1.3713   -0.9105 C   0  0  0  0  0  0  0  0  0  0  0  0
   -1.3398    0.1360   -1.0717 C   0  0  0  0  0  0  0  0  0  0  0  0
   -0.7831    0.5982    0.2512 C   0  0  0  0  0  0  0  0  0  0  0  0
   -0.4842    2.0539    0.3009 C   0  0  0  0  0  0  0  0  0  0  0  0
   -1.8129    0.2848    1.3137 C   0  0  0  0  0  0  0  0  0  0  0  0
    2.7388   -1.4230   -0.7488 H   0  0  0  0  0  0  0  0  0  0  0  0
    2.8098   -0.9520    0.9980 H   0  0  0  0  0  0  0  0  0  0  0  0
    3.8043   -0.0545   -0.1618 H   0  0  0  0  0  0  0  0  0  0  0  0
    1.5316    0.6716   -1.2412 H   0  0  0  0  0  0  0  0  0  0  0  0
    1.9490    1.3017    0.3682 H   0  0  0  0  0  0  0  0  0  0  0  0
    0.6134   -0.4717    1.4583 H   0  0  0  0  0  0  0  0  0  0  0  0
    0.7881   -1.6078   -1.3161 H   0  0  0  0  0  0  0  0  0  0  0  0
    0.2499   -2.4444    0.2357 H   0  0  0  0  0  0  0  0  0  0  0  0
   -2.0194   -1.7565   -0.1939 H   0  0  0  0  0  0  0  0  0  0  0  0
   -1.4230   -1.9010   -1.8688 H   0  0  0  0  0  0  0  0  0  0  0  0
   -2.3849    0.4863   -1.2235 H   0  0  0  0  0  0  0  0  0  0  0  0
   -0.6782    0.4027   -1.9235 H   0  0  0  0  0  0  0  0  0  0  0  0
   -0.1577    2.4987   -0.6462 H   0  0  0  0  0  0  0  0  0  0  0  0
   -1.3995    2.5860    0.6898 H   0  0  0  0  0  0  0  0  0  0  0  0
    0.2847    2.2196    1.1108 H   0  0  0  0  0  0  0  0  0  0  0  0
   -1.8343   -0.7774    1.5862 H   0  0  0  0  0  0  0  0  0  0  0  0
   -2.7967    0.6906    1.0045 H   0  0  0  0  0  0  0  0  0  0  0  0
   -1.4824    0.8344    2.2350 H   0  0  0  0  0  0  0  0  0  0  0  0
  1  2  1  0
  2  3  1  0
  3  4  1  0
  4  5  1  0
  5  6  1  0
  6  7  1  0
  7  8  1  0
  7  9  1  0
  7  3  1  0
  1 10  1  0
  1 11  1  0
  1 12  1  0
  2 13  1  0
  2 14  1  0
  3 15  1  0
  4 16  1  0
  4 17  1  0
  5 18  1  0
  5 19  1  0
  6 20  1  0
  6 21  1  0
  8 22  1  0
  8 23  1  0
  8 24  1  0
  9 25  1  0
  9 26  1  0
  9 27  1  0
M  END
