
     RDKit          3D

 21 23  0  0  0  0  0  0  0  0999 V2000
    2.3825   -0.5803    0.3616 C   0  0  0  0  0  0  0  0  0  0  0  0
    1.5363   -0.1341   -0.8283 C   0  0  0  0  0  0  0  0  0  0  0  0
    0.1119   -0.1231   -0.4586 C   0  0  0  0  0  0  0  0  0  0  0  0
   -0.7593    0.2742   -1.4842 O   0  0  0  0  0  0  0  0  0  0  0  0
   -0.8454    0.7528   -0.1988 C   0  0  0  0  0  0  0  0  0  0  0  0
   -0.9675    2.2095    0.0293 C   0  0  0  0  0  0  0  0  0  0  0  0
   -1.6123   -0.1939    0.7335 C   0  0  0  0  0  0  0  0  0  0  0  0
   -1.7753   -1.6254    0.2907 C   0  0  0  0  0  0  0  0  0  0  0  0
   -0.4084   -1.1655    0.5204 C   0  0  0  0  0  0  0  0  0  0  0  0
    3.3705   -0.0856    0.2715 H   0  0  0  0  0  0  0  0  0  0  0  0
    1.9357   -0.2340    1.3084 H   0  0  0  0  0  0  0  0  0  0  0  0
    2.5333   -1.6658    0.3832 H   0  0  0  0  0  0  0  0  0  0  0  0
    1.7048   -0.9311   -1.6118 H   0  0  0  0  0  0  0  0  0  0  0  0
    1.8812    0.8560   -1.1872 H   0  0  0  0  0  0  0  0  0  0  0  0
   -0.7018    2.5109    1.0661 H   0  0  0  0  0  0  0  0  0  0  0  0
   -2.0101    2.6040   -0.1495 H   0  0  0  0  0  0  0  0  0  0  0  0
   -0.3076    2.7492   -0.6499 H   0  0  0  0  0  0  0  0  0  0  0  0
   -1.8268    0.1172    1.7524 H   0  0  0  0  0  0  0  0  0  0  0  0
   -2.3579   -2.2429    0.9754 H   0  0  0  0  0  0  0  0  0  0  0  0
   -2.0543   -1.7638   -0.7964 H   0  0  0  0  0  0  0  0  0  0  0  0
    0.1703   -1.3283    1.4227 H   0  0  0  0  0  0  0  0  0  0  0  0
  1  2  1  0
  2  3  1  0
  3  4  1  0
  4  5  1  0
  5  6  1  0
  5  7  1  0
  7  8  1  0
  8  9  1  0
  5  3  1  0
  9  7  1  0
  9  3  1  0
  1 10  1  0
  1 11  1  0
  1 12  1  0
  2 13  1  0
  2 14  1  0
  6 15  1  0
  6 16  1  0
  6 17  1  0
  7 18  1  0
  8 19  1  0
  8 20  1  0
  9 21  1  0
M  END
