
     RDKit          3D

 23 24  0  0  0  0  0  0  0  0999 V2000
    2.6737    0.5774    0.0558 C   0  0  0  0  0  0  0  0  0  0  0  0
    1.7665   -0.5990   -0.1509 C   0  0  0  0  0  0  0  0  0  0  0  0
    0.3340   -0.3143    0.1367 C   0  0  0  0  0  0  0  0  0  0  0  0
   -0.5838   -1.5035   -0.0722 C   0  0  0  0  0  0  0  0  0  0  0  0
   -1.9762   -0.9660   -0.1145 C   0  0  0  0  0  0  0  0  0  0  0  0
   -1.8296    0.4094   -0.6855 C   0  0  0  0  0  0  0  0  0  0  0  0
   -2.7120    1.2525    0.0297 O   0  0  0  0  0  0  0  0  0  0  0  0
   -0.4060    0.8097   -0.4183 C   0  0  0  0  0  0  0  0  0  0  0  0
   -0.0363    0.7657    1.0697 C   0  0  0  0  0  0  0  0  0  0  0  0
    3.7187    0.2136   -0.1680 H   0  0  0  0  0  0  0  0  0  0  0  0
    2.4701    1.3823   -0.6839 H   0  0  0  0  0  0  0  0  0  0  0  0
    2.7036    0.9557    1.0813 H   0  0  0  0  0  0  0  0  0  0  0  0
    1.9338   -0.9597   -1.1982 H   0  0  0  0  0  0  0  0  0  0  0  0
    2.1270   -1.4315    0.5008 H   0  0  0  0  0  0  0  0  0  0  0  0
   -0.2722   -1.9621   -1.0391 H   0  0  0  0  0  0  0  0  0  0  0  0
   -0.4166   -2.2725    0.7011 H   0  0  0  0  0  0  0  0  0  0  0  0
   -2.4277   -0.9680    0.9154 H   0  0  0  0  0  0  0  0  0  0  0  0
   -2.6422   -1.6229   -0.7248 H   0  0  0  0  0  0  0  0  0  0  0  0
   -2.1164    0.4415   -1.7326 H   0  0  0  0  0  0  0  0  0  0  0  0
   -2.2664    2.0654    0.3227 H   0  0  0  0  0  0  0  0  0  0  0  0
    0.0597    1.6203   -1.0150 H   0  0  0  0  0  0  0  0  0  0  0  0
    0.7491    1.4565    1.3826 H   0  0  0  0  0  0  0  0  0  0  0  0
   -0.8507    0.6495    1.8070 H   0  0  0  0  0  0  0  0  0  0  0  0
  1  2  1  0
  2  3  1  0
  3  4  1  0
  4  5  1  0
  5  6  1  0
  6  7  1  0
  6  8  1  0
  8  9  1  0
  8  3  1  0
  9  3  1  0
  1 10  1  0
  1 11  1  0
  1 12  1  0
  2 13  1  0
  2 14  1  0
  4 15  1  0
  4 16  1  0
  5 17  1  0
  5 18  1  0
  6 19  1  0
  7 20  1  0
  8 21  1  0
  9 22  1  0
  9 23  1  0
M  END
