
     RDKit          3D

 21 21  0  0  0  0  0  0  0  0999 V2000
    2.4231    0.4732    0.4370 C   0  0  0  0  0  0  0  0  0  0  0  0
    0.9726    0.9493    0.4447 C   0  0  0  0  0  0  0  0  0  0  0  0
    0.0965    0.0052   -0.3423 C   0  0  0  0  0  0  0  0  0  0  0  0
    0.0917   -1.3920    0.1897 C   0  0  0  0  0  0  0  0  0  0  0  0
   -1.3618   -1.8008   -0.0047 C   0  0  0  0  0  0  0  0  0  0  0  0
   -2.0301   -0.7179   -0.5077 O   0  0  0  0  0  0  0  0  0  0  0  0
   -1.3401    0.4315   -0.1483 C   0  0  0  0  0  0  0  0  0  0  0  0
   -1.7272    1.5895   -0.9549 C   0  0  0  0  0  0  0  0  0  0  0  0
   -1.1798    2.6622   -0.7237 O   0  0  0  0  0  0  0  0  0  0  0  0
    2.3874   -0.6300    0.4978 H   0  0  0  0  0  0  0  0  0  0  0  0
    2.9159    0.7396   -0.5165 H   0  0  0  0  0  0  0  0  0  0  0  0
    2.9680    0.8450    1.3236 H   0  0  0  0  0  0  0  0  0  0  0  0
    0.5849    1.0822    1.4606 H   0  0  0  0  0  0  0  0  0  0  0  0
    0.9795    1.9211   -0.0917 H   0  0  0  0  0  0  0  0  0  0  0  0
    0.4157   -0.0003   -1.3894 H   0  0  0  0  0  0  0  0  0  0  0  0
    0.7111   -2.0853   -0.3795 H   0  0  0  0  0  0  0  0  0  0  0  0
    0.3157   -1.4573    1.2705 H   0  0  0  0  0  0  0  0  0  0  0  0
   -1.4610   -2.6421   -0.7253 H   0  0  0  0  0  0  0  0  0  0  0  0
   -1.8132   -2.1383    0.9723 H   0  0  0  0  0  0  0  0  0  0  0  0
   -1.4888    0.6141    0.9215 H   0  0  0  0  0  0  0  0  0  0  0  0
   -2.4602    1.5512   -1.7335 H   0  0  0  0  0  0  0  0  0  0  0  0
  1  2  1  0
  2  3  1  0
  3  4  1  0
  4  5  1  0
  5  6  1  0
  6  7  1  0
  7  8  1  0
  8  9  2  0
  7  3  1  0
  1 10  1  0
  1 11  1  0
  1 12  1  0
  2 13  1  0
  2 14  1  0
  3 15  1  0
  4 16  1  0
  4 17  1  0
  5 18  1  0
  5 19  1  0
  7 20  1  0
  8 21  1  0
M  END
