
     RDKit          3D

 21 23  0  0  0  0  0  0  0  0999 V2000
    2.2545    0.2046    0.0182 C   0  0  0  0  0  0  0  0  0  0  0  0
    1.3499   -0.7501   -0.7083 C   0  0  0  0  0  0  0  0  0  0  0  0
   -0.0414   -0.7594   -0.3225 C   0  0  0  0  0  0  0  0  0  0  0  0
   -0.3719   -1.1110    1.1355 C   0  0  0  0  0  0  0  0  0  0  0  0
   -1.7439   -0.4982    0.7938 C   0  0  0  0  0  0  0  0  0  0  0  0
   -1.9220   -0.5473   -0.6782 C   0  0  0  0  0  0  0  0  0  0  0  0
   -0.8972   -1.3357   -1.2654 O   0  0  0  0  0  0  0  0  0  0  0  0
   -0.9171    0.3599   -0.2269 C   0  0  0  0  0  0  0  0  0  0  0  0
   -0.8256    1.7646   -0.1295 C   0  0  0  0  0  0  0  0  0  0  0  0
    2.1441    1.2541   -0.3291 H   0  0  0  0  0  0  0  0  0  0  0  0
    2.1968    0.1065    1.1188 H   0  0  0  0  0  0  0  0  0  0  0  0
    3.3055   -0.0828   -0.2588 H   0  0  0  0  0  0  0  0  0  0  0  0
    1.7939   -1.7784   -0.5461 H   0  0  0  0  0  0  0  0  0  0  0  0
    1.4535   -0.5591   -1.7826 H   0  0  0  0  0  0  0  0  0  0  0  0
    0.2150   -0.4670    1.7885 H   0  0  0  0  0  0  0  0  0  0  0  0
   -0.3932   -2.1816    1.3393 H   0  0  0  0  0  0  0  0  0  0  0  0
   -2.2544    0.1436    1.4818 H   0  0  0  0  0  0  0  0  0  0  0  0
   -2.8430   -0.3692   -1.1998 H   0  0  0  0  0  0  0  0  0  0  0  0
    0.0490    2.1139    0.4654 H   0  0  0  0  0  0  0  0  0  0  0  0
   -1.7184    2.1942    0.4186 H   0  0  0  0  0  0  0  0  0  0  0  0
   -0.8340    2.2984   -1.1130 H   0  0  0  0  0  0  0  0  0  0  0  0
  1  2  1  0
  2  3  1  0
  3  4  1  0
  4  5  1  0
  5  6  1  0
  6  7  1  0
  6  8  1  0
  8  9  1  0
  7  3  1  0
  8  3  1  0
  8  5  1  0
  1 10  1  0
  1 11  1  0
  1 12  1  0
  2 13  1  0
  2 14  1  0
  4 15  1  0
  4 16  1  0
  5 17  1  0
  6 18  1  0
  9 19  1  0
  9 20  1  0
  9 21  1  0
M  END
