
     RDKit          3D

 21 22  0  0  0  0  0  0  0  0999 V2000
    2.0040    1.0020    0.1136 C   0  0  0  0  0  0  0  0  0  0  0  0
    1.5068   -0.4101   -0.0208 C   0  0  0  0  0  0  0  0  0  0  0  0
   -0.0263   -0.4761    0.0352 C   0  0  0  0  0  0  0  0  0  0  0  0
   -0.3975   -1.9031   -0.1059 C   0  0  0  0  0  0  0  0  0  0  0  0
   -0.4940    0.1092    1.2162 O   0  0  0  0  0  0  0  0  0  0  0  0
   -1.4864    1.0493    0.8558 C   0  0  0  0  0  0  0  0  0  0  0  0
   -1.9767    0.4505   -0.4127 C   0  0  0  0  0  0  0  0  0  0  0  0
   -1.6511    0.5627   -1.6697 O   0  0  0  0  0  0  0  0  0  0  0  0
   -0.5323    0.4391   -1.0145 C   0  0  0  0  0  0  0  0  0  0  0  0
    1.2917    1.6731    0.6253 H   0  0  0  0  0  0  0  0  0  0  0  0
    2.2648    1.4051   -0.8943 H   0  0  0  0  0  0  0  0  0  0  0  0
    2.9613    0.9434    0.7048 H   0  0  0  0  0  0  0  0  0  0  0  0
    1.7806   -0.8302   -1.0171 H   0  0  0  0  0  0  0  0  0  0  0  0
    1.9097   -1.0953    0.7365 H   0  0  0  0  0  0  0  0  0  0  0  0
   -1.3279   -2.1888    0.4362 H   0  0  0  0  0  0  0  0  0  0  0  0
   -0.4428   -2.1883   -1.1794 H   0  0  0  0  0  0  0  0  0  0  0  0
    0.4045   -2.5332    0.3394 H   0  0  0  0  0  0  0  0  0  0  0  0
   -1.0946    2.0630    0.7740 H   0  0  0  0  0  0  0  0  0  0  0  0
   -2.3059    1.0725    1.6163 H   0  0  0  0  0  0  0  0  0  0  0  0
   -2.4084   -0.5752   -0.1876 H   0  0  0  0  0  0  0  0  0  0  0  0
    0.0205    1.4304   -0.9515 H   0  0  0  0  0  0  0  0  0  0  0  0
  1  2  1  0
  2  3  1  0
  3  4  1  0
  3  5  1  0
  5  6  1  0
  6  7  1  0
  7  8  1  0
  8  9  1  0
  9  3  1  0
  9  7  1  0
  1 10  1  0
  1 11  1  0
  1 12  1  0
  2 13  1  0
  2 14  1  0
  4 15  1  0
  4 16  1  0
  4 17  1  0
  6 18  1  0
  6 19  1  0
  7 20  1  0
  9 21  1  0
M  END
