
     RDKit          3D

 23 23  0  0  0  0  0  0  0  0999 V2000
    3.0303    0.2121   -0.1433 C   0  0  0  0  0  0  0  0  0  0  0  0
    1.9654   -0.7080   -0.6805 C   0  0  0  0  0  0  0  0  0  0  0  0
    0.7999   -0.6746    0.3075 C   0  0  0  0  0  0  0  0  0  0  0  0
    0.2246    0.6415    0.4856 C   0  0  0  0  0  0  0  0  0  0  0  0
   -0.9433    1.2626    0.4343 C   0  0  0  0  0  0  0  0  0  0  0  0
   -2.3394    0.8947    0.1492 C   0  0  0  0  0  0  0  0  0  0  0  0
   -2.5384   -0.6186   -0.1765 C   0  0  0  0  0  0  0  0  0  0  0  0
   -1.2393   -1.0930   -0.0773 C   0  0  0  0  0  0  0  0  0  0  0  0
   -0.1198   -1.7269   -0.0377 O   0  0  0  0  0  0  0  0  0  0  0  0
    3.0466    0.1217    0.9799 H   0  0  0  0  0  0  0  0  0  0  0  0
    4.0343   -0.0107   -0.5605 H   0  0  0  0  0  0  0  0  0  0  0  0
    2.7458    1.2566   -0.3633 H   0  0  0  0  0  0  0  0  0  0  0  0
    2.3505   -1.7419   -0.6691 H   0  0  0  0  0  0  0  0  0  0  0  0
    1.6392   -0.3877   -1.6899 H   0  0  0  0  0  0  0  0  0  0  0  0
    1.2201   -1.0092    1.2804 H   0  0  0  0  0  0  0  0  0  0  0  0
    1.0389    1.3447    0.7504 H   0  0  0  0  0  0  0  0  0  0  0  0
   -0.8932    2.3358    0.6581 H   0  0  0  0  0  0  0  0  0  0  0  0
   -2.9516    1.1883    1.0182 H   0  0  0  0  0  0  0  0  0  0  0  0
   -2.7283    1.4992   -0.7123 H   0  0  0  0  0  0  0  0  0  0  0  0
   -3.0533   -0.6817   -1.1821 H   0  0  0  0  0  0  0  0  0  0  0  0
   -3.3154   -0.9768    0.5393 H   0  0  0  0  0  0  0  0  0  0  0  0
   -0.8443   -0.3768   -0.8867 H   0  0  0  0  0  0  0  0  0  0  0  0
   -1.1294   -0.7517    1.0165 H   0  0  0  0  0  0  0  0  0  0  0  0
  1  2  1  0
  2  3  1  0
  3  4  1  0
  4  5  2  0
  5  6  1  0
  6  7  1  0
  7  8  1  0
  8  9  1  0
  9  3  1  0
  1 10  1  0
  1 11  1  0
  1 12  1  0
  2 13  1  0
  2 14  1  0
  3 15  1  0
  4 16  1  0
  5 17  1  0
  6 18  1  0
  6 19  1  0
  7 20  1  0
  7 21  1  0
  8 22  1  0
  8 23  1  0
M  END
