
     RDKit          3D

 23 23  0  0  0  0  0  0  0  0999 V2000
   -1.8831    0.6297   -1.2893 C   0  0  0  0  0  0  0  0  0  0  0  0
   -1.5920    0.7308    0.1889 C   0  0  0  0  0  0  0  0  0  0  0  0
   -0.3875   -0.0684    0.6020 C   0  0  0  0  0  0  0  0  0  0  0  0
   -0.5554   -1.5182    0.3024 C   0  0  0  0  0  0  0  0  0  0  0  0
   -0.2393    0.1056    2.0023 O   0  0  0  0  0  0  0  0  0  0  0  0
    1.1448   -0.0844    1.7793 C   0  0  0  0  0  0  0  0  0  0  0  0
    0.9340    0.5509    0.4368 C   0  0  0  0  0  0  0  0  0  0  0  0
    1.8870    0.0187   -0.5753 C   0  0  0  0  0  0  0  0  0  0  0  0
    1.3885    0.0696   -1.8862 O   0  0  0  0  0  0  0  0  0  0  0  0
   -1.9281   -0.3916   -1.6671 H   0  0  0  0  0  0  0  0  0  0  0  0
   -2.8490    1.1811   -1.4482 H   0  0  0  0  0  0  0  0  0  0  0  0
   -1.1187    1.2056   -1.8300 H   0  0  0  0  0  0  0  0  0  0  0  0
   -2.4458    0.3753    0.8099 H   0  0  0  0  0  0  0  0  0  0  0  0
   -1.4547    1.8142    0.4106 H   0  0  0  0  0  0  0  0  0  0  0  0
   -0.5614   -2.1641    1.2298 H   0  0  0  0  0  0  0  0  0  0  0  0
    0.1993   -1.9514   -0.3573 H   0  0  0  0  0  0  0  0  0  0  0  0
   -1.5532   -1.7293   -0.1730 H   0  0  0  0  0  0  0  0  0  0  0  0
    1.3408   -1.1717    1.7865 H   0  0  0  0  0  0  0  0  0  0  0  0
    1.7767    0.5058    2.4928 H   0  0  0  0  0  0  0  0  0  0  0  0
    0.9206    1.6328    0.5080 H   0  0  0  0  0  0  0  0  0  0  0  0
    2.8273    0.6075   -0.5029 H   0  0  0  0  0  0  0  0  0  0  0  0
    2.1734   -1.0296   -0.3951 H   0  0  0  0  0  0  0  0  0  0  0  0
    1.9758    0.6811   -2.4249 H   0  0  0  0  0  0  0  0  0  0  0  0
  1  2  1  0
  2  3  1  0
  3  4  1  0
  3  5  1  0
  5  6  1  0
  6  7  1  0
  7  8  1  0
  8  9  1  0
  7  3  1  0
  1 10  1  0
  1 11  1  0
  1 12  1  0
  2 13  1  0
  2 14  1  0
  4 15  1  0
  4 16  1  0
  4 17  1  0
  6 18  1  0
  6 19  1  0
  7 20  1  0
  8 21  1  0
  8 22  1  0
  9 23  1  0
M  END
