
     RDKit          3D

 25 26  0  0  0  0  0  0  0  0999 V2000
    3.0886   -0.5321   -0.3827 C   0  0  0  0  0  0  0  0  0  0  0  0
    2.0839    0.3508    0.3694 C   0  0  0  0  0  0  0  0  0  0  0  0
    0.7404   -0.2699    0.4349 C   0  0  0  0  0  0  0  0  0  0  0  0
   -0.2646    0.5886    1.1798 C   0  0  0  0  0  0  0  0  0  0  0  0
   -1.4033   -0.4058    1.2456 C   0  0  0  0  0  0  0  0  0  0  0  0
   -1.4573   -0.7918   -0.2477 C   0  0  0  0  0  0  0  0  0  0  0  0
   -2.6431   -0.1158   -0.8473 C   0  0  0  0  0  0  0  0  0  0  0  0
   -0.2051   -0.0710   -0.7109 C   0  0  0  0  0  0  0  0  0  0  0  0
   -0.4738    1.2985   -0.1219 C   0  0  0  0  0  0  0  0  0  0  0  0
    2.9448   -1.5960   -0.1365 H   0  0  0  0  0  0  0  0  0  0  0  0
    4.1308   -0.2780   -0.1025 H   0  0  0  0  0  0  0  0  0  0  0  0
    2.9783   -0.3285   -1.4733 H   0  0  0  0  0  0  0  0  0  0  0  0
    2.0494    1.3280   -0.1403 H   0  0  0  0  0  0  0  0  0  0  0  0
    2.5294    0.5149    1.3935 H   0  0  0  0  0  0  0  0  0  0  0  0
    0.7608   -1.3248    0.8270 H   0  0  0  0  0  0  0  0  0  0  0  0
    0.0367    1.1081    2.0475 H   0  0  0  0  0  0  0  0  0  0  0  0
   -2.3396    0.0056    1.5972 H   0  0  0  0  0  0  0  0  0  0  0  0
   -1.0291   -1.2890    1.7822 H   0  0  0  0  0  0  0  0  0  0  0  0
   -1.4091   -1.8698   -0.3863 H   0  0  0  0  0  0  0  0  0  0  0  0
   -2.3644    0.4876   -1.7570 H   0  0  0  0  0  0  0  0  0  0  0  0
   -3.2094    0.5254   -0.1216 H   0  0  0  0  0  0  0  0  0  0  0  0
   -3.3885   -0.8593   -1.2102 H   0  0  0  0  0  0  0  0  0  0  0  0
    0.1150   -0.1607   -1.7095 H   0  0  0  0  0  0  0  0  0  0  0  0
    0.2472    2.0379   -0.4345 H   0  0  0  0  0  0  0  0  0  0  0  0
   -1.5176    1.6472   -0.3096 H   0  0  0  0  0  0  0  0  0  0  0  0
  1  2  1  0
  2  3  1  0
  3  4  1  0
  4  5  1  0
  5  6  1  0
  6  7  1  0
  6  8  1  0
  8  9  1  0
  8  3  1  0
  9  4  1  0
  1 10  1  0
  1 11  1  0
  1 12  1  0
  2 13  1  0
  2 14  1  0
  3 15  1  0
  4 16  1  0
  5 17  1  0
  5 18  1  0
  6 19  1  0
  7 20  1  0
  7 21  1  0
  7 22  1  0
  8 23  1  0
  9 24  1  0
  9 25  1  0
M  END
