
     RDKit          3D

 20 20  0  0  0  0  0  0  0  0999 V2000
    2.3858    0.1188    0.0761 C   0  0  0  0  0  0  0  0  0  0  0  0
    1.1034    0.9022   -0.1564 C   0  0  0  0  0  0  0  0  0  0  0  0
    0.0369   -0.0547   -0.5409 C   0  0  0  0  0  0  0  0  0  0  0  0
   -0.3245   -1.1373    0.4169 C   0  0  0  0  0  0  0  0  0  0  0  0
   -0.3774   -0.8125    1.7530 O   0  0  0  0  0  0  0  0  0  0  0  0
   -1.7458   -1.0200   -0.1624 C   0  0  0  0  0  0  0  0  0  0  0  0
   -1.3901    0.4479   -0.3921 C   0  0  0  0  0  0  0  0  0  0  0  0
   -1.9436    0.9978   -1.5306 O   0  0  0  0  0  0  0  0  0  0  0  0
    3.2818    0.7314   -0.1262 H   0  0  0  0  0  0  0  0  0  0  0  0
    2.4368   -0.2221    1.1265 H   0  0  0  0  0  0  0  0  0  0  0  0
    2.4007   -0.7789   -0.5973 H   0  0  0  0  0  0  0  0  0  0  0  0
    1.2774    1.5915   -1.0033 H   0  0  0  0  0  0  0  0  0  0  0  0
    0.9181    1.4994    0.7304 H   0  0  0  0  0  0  0  0  0  0  0  0
    0.2018   -0.4676   -1.5544 H   0  0  0  0  0  0  0  0  0  0  0  0
    0.1389   -2.1330    0.2342 H   0  0  0  0  0  0  0  0  0  0  0  0
   -0.3428    0.1306    1.9595 H   0  0  0  0  0  0  0  0  0  0  0  0
   -1.8452   -1.5539   -1.1338 H   0  0  0  0  0  0  0  0  0  0  0  0
   -2.5295   -1.1988    0.5778 H   0  0  0  0  0  0  0  0  0  0  0  0
   -1.4769    1.0400    0.5283 H   0  0  0  0  0  0  0  0  0  0  0  0
   -2.2057    1.9194   -1.3389 H   0  0  0  0  0  0  0  0  0  0  0  0
  1  2  1  0
  2  3  1  0
  3  4  1  0
  4  5  1  0
  4  6  1  0
  6  7  1  0
  7  8  1  0
  7  3  1  0
  1  9  1  0
  1 10  1  0
  1 11  1  0
  2 12  1  0
  2 13  1  0
  3 14  1  0
  4 15  1  0
  5 16  1  0
  6 17  1  0
  6 18  1  0
  7 19  1  0
  8 20  1  0
M  END
