
     RDKit          3D

 21 22  0  0  0  0  0  0  0  0999 V2000
    2.6184    1.0225   -0.1845 C   0  0  0  0  0  0  0  0  0  0  0  0
    1.7028   -0.0125    0.4392 C   0  0  0  0  0  0  0  0  0  0  0  0
    0.6641   -0.4326   -0.5632 C   0  0  0  0  0  0  0  0  0  0  0  0
   -0.3009   -1.4886    0.0153 C   0  0  0  0  0  0  0  0  0  0  0  0
   -1.5637   -0.8741   -0.5069 C   0  0  0  0  0  0  0  0  0  0  0  0
   -2.4684    0.0974   -0.0534 C   0  0  0  0  0  0  0  0  0  0  0  0
   -3.2949    0.7710   -0.9884 O   0  0  0  0  0  0  0  0  0  0  0  0
   -1.1347    0.5548    0.0245 C   0  0  0  0  0  0  0  0  0  0  0  0
   -0.1235    0.6819   -0.8622 O   0  0  0  0  0  0  0  0  0  0  0  0
    3.3436    0.5558   -0.8774 H   0  0  0  0  0  0  0  0  0  0  0  0
    3.1211    1.5504    0.6404 H   0  0  0  0  0  0  0  0  0  0  0  0
    1.9596    1.7622   -0.6987 H   0  0  0  0  0  0  0  0  0  0  0  0
    1.2749    0.4615    1.3404 H   0  0  0  0  0  0  0  0  0  0  0  0
    2.2907   -0.9200    0.7243 H   0  0  0  0  0  0  0  0  0  0  0  0
    1.1230   -0.8720   -1.4735 H   0  0  0  0  0  0  0  0  0  0  0  0
   -0.1123   -2.4700   -0.4316 H   0  0  0  0  0  0  0  0  0  0  0  0
   -0.2169   -1.4735    1.1091 H   0  0  0  0  0  0  0  0  0  0  0  0
   -1.5273   -0.9972   -1.6362 H   0  0  0  0  0  0  0  0  0  0  0  0
   -3.0544   -0.0915    0.8694 H   0  0  0  0  0  0  0  0  0  0  0  0
   -3.5807    1.6012   -0.4908 H   0  0  0  0  0  0  0  0  0  0  0  0
   -0.7203    0.5734    1.0794 H   0  0  0  0  0  0  0  0  0  0  0  0
  1  2  1  0
  2  3  1  0
  3  4  1  0
  4  5  1  0
  5  6  1  0
  6  7  1  0
  6  8  1  0
  8  9  1  0
  9  3  1  0
  8  5  1  0
  1 10  1  0
  1 11  1  0
  1 12  1  0
  2 13  1  0
  2 14  1  0
  3 15  1  0
  4 16  1  0
  4 17  1  0
  5 18  1  0
  6 19  1  0
  7 20  1  0
  8 21  1  0
M  END
