
     RDKit          3D

 21 22  0  0  0  0  0  0  0  0999 V2000
    2.5121   -0.4280   -0.1336 C   0  0  0  0  0  0  0  0  0  0  0  0
    1.0753   -0.7663    0.0377 C   0  0  0  0  0  0  0  0  0  0  0  0
    0.1412    0.3969   -0.2527 C   0  0  0  0  0  0  0  0  0  0  0  0
    0.2207    0.9016   -1.5244 O   0  0  0  0  0  0  0  0  0  0  0  0
    0.0947    1.4449    0.8403 C   0  0  0  0  0  0  0  0  0  0  0  0
   -0.9258    0.7300    1.5098 O   0  0  0  0  0  0  0  0  0  0  0  0
   -1.1910    0.1168    0.3203 C   0  0  0  0  0  0  0  0  0  0  0  0
   -1.7575   -1.2201    0.1714 C   0  0  0  0  0  0  0  0  0  0  0  0
   -2.4479    0.0367   -0.3585 C   0  0  0  0  0  0  0  0  0  0  0  0
    2.7471    0.6512   -0.0411 H   0  0  0  0  0  0  0  0  0  0  0  0
    3.1206   -0.9313    0.6639 H   0  0  0  0  0  0  0  0  0  0  0  0
    2.9356   -0.7862   -1.0955 H   0  0  0  0  0  0  0  0  0  0  0  0
    0.8790   -1.2092    1.0279 H   0  0  0  0  0  0  0  0  0  0  0  0
    0.7919   -1.5638   -0.7057 H   0  0  0  0  0  0  0  0  0  0  0  0
    0.6129    1.8126   -1.5269 H   0  0  0  0  0  0  0  0  0  0  0  0
   -0.3731    2.3724    0.4306 H   0  0  0  0  0  0  0  0  0  0  0  0
    1.0083    1.5820    1.4136 H   0  0  0  0  0  0  0  0  0  0  0  0
   -1.3103   -1.8588   -0.6317 H   0  0  0  0  0  0  0  0  0  0  0  0
   -2.1532   -1.7079    1.0708 H   0  0  0  0  0  0  0  0  0  0  0  0
   -3.3785    0.2847    0.2274 H   0  0  0  0  0  0  0  0  0  0  0  0
   -2.6020    0.1416   -1.4436 H   0  0  0  0  0  0  0  0  0  0  0  0
  1  2  1  0
  2  3  1  0
  3  4  1  0
  3  5  1  0
  5  6  1  0
  6  7  1  0
  7  8  1  0
  8  9  1  0
  7  3  1  0
  9  7  1  0
  1 10  1  0
  1 11  1  0
  1 12  1  0
  2 13  1  0
  2 14  1  0
  4 15  1  0
  5 16  1  0
  5 17  1  0
  8 18  1  0
  8 19  1  0
  9 20  1  0
  9 21  1  0
M  END
