
     RDKit          3D

 23 23  0  0  0  0  0  0  0  0999 V2000
   -1.3038    1.5609   -0.4756 C   0  0  0  0  0  0  0  0  0  0  0  0
   -1.2859    0.5221    0.6318 C   0  0  0  0  0  0  0  0  0  0  0  0
   -0.4464   -0.6193    0.1901 C   0  0  0  0  0  0  0  0  0  0  0  0
   -0.9421   -1.3117   -1.0879 C   0  0  0  0  0  0  0  0  0  0  0  0
   -2.2089   -1.8168   -0.9234 O   0  0  0  0  0  0  0  0  0  0  0  0
    0.3964   -1.4290    1.0754 C   0  0  0  0  0  0  0  0  0  0  0  0
    1.0560   -0.3624    0.2780 C   0  0  0  0  0  0  0  0  0  0  0  0
    1.4741    0.7454    1.0326 O   0  0  0  0  0  0  0  0  0  0  0  0
    2.5774    1.3163    0.3689 C   0  0  0  0  0  0  0  0  0  0  0  0
   -0.4943    1.3898   -1.2225 H   0  0  0  0  0  0  0  0  0  0  0  0
   -2.2584    1.5240   -1.0537 H   0  0  0  0  0  0  0  0  0  0  0  0
   -1.1134    2.5878   -0.0715 H   0  0  0  0  0  0  0  0  0  0  0  0
   -0.8391    0.9960    1.5501 H   0  0  0  0  0  0  0  0  0  0  0  0
   -2.3145    0.2223    0.9242 H   0  0  0  0  0  0  0  0  0  0  0  0
   -0.9814   -0.4925   -1.8421 H   0  0  0  0  0  0  0  0  0  0  0  0
   -0.1837   -2.0818   -1.3394 H   0  0  0  0  0  0  0  0  0  0  0  0
   -2.1721   -2.7989   -0.7709 H   0  0  0  0  0  0  0  0  0  0  0  0
    0.2662   -1.2962    2.1547 H   0  0  0  0  0  0  0  0  0  0  0  0
    0.6269   -2.4591    0.7713 H   0  0  0  0  0  0  0  0  0  0  0  0
    1.6122   -0.5933   -0.6421 H   0  0  0  0  0  0  0  0  0  0  0  0
    3.3889    0.5887    0.2887 H   0  0  0  0  0  0  0  0  0  0  0  0
    2.8934    2.2543    0.8409 H   0  0  0  0  0  0  0  0  0  0  0  0
    2.2526    1.5534   -0.6777 H   0  0  0  0  0  0  0  0  0  0  0  0
  1  2  1  0
  2  3  1  0
  3  4  1  0
  4  5  1  0
  3  6  1  0
  6  7  1  0
  7  8  1  0
  8  9  1  0
  7  3  1  0
  1 10  1  0
  1 11  1  0
  1 12  1  0
  2 13  1  0
  2 14  1  0
  4 15  1  0
  4 16  1  0
  5 17  1  0
  6 18  1  0
  6 19  1  0
  7 20  1  0
  9 21  1  0
  9 22  1  0
  9 23  1  0
M  END
