
     RDKit          3D

 21 21  0  0  0  0  0  0  0  0999 V2000
    2.7471   -0.6905   -0.0977 C   0  0  0  0  0  0  0  0  0  0  0  0
    2.0922    0.6737   -0.1604 C   0  0  0  0  0  0  0  0  0  0  0  0
    0.7746    0.5664    0.5729 C   0  0  0  0  0  0  0  0  0  0  0  0
   -0.0427   -0.4588   -0.1143 C   0  0  0  0  0  0  0  0  0  0  0  0
   -1.2981   -0.0440   -0.1621 C   0  0  0  0  0  0  0  0  0  0  0  0
   -2.4356   -0.7559   -0.7563 C   0  0  0  0  0  0  0  0  0  0  0  0
   -3.4226   -1.0136    0.1846 O   0  0  0  0  0  0  0  0  0  0  0  0
   -1.3245    1.2796    0.5029 C   0  0  0  0  0  0  0  0  0  0  0  0
    0.0087    1.7038    0.4794 O   0  0  0  0  0  0  0  0  0  0  0  0
    2.5905   -1.1931    0.8814 H   0  0  0  0  0  0  0  0  0  0  0  0
    3.8348   -0.6370   -0.3432 H   0  0  0  0  0  0  0  0  0  0  0  0
    2.2906   -1.3082   -0.8979 H   0  0  0  0  0  0  0  0  0  0  0  0
    2.7436    1.4693    0.2718 H   0  0  0  0  0  0  0  0  0  0  0  0
    1.9300    0.9264   -1.2120 H   0  0  0  0  0  0  0  0  0  0  0  0
    0.9167    0.2912    1.6215 H   0  0  0  0  0  0  0  0  0  0  0  0
    0.2850   -1.4223   -0.5349 H   0  0  0  0  0  0  0  0  0  0  0  0
   -2.8495   -0.1792   -1.6070 H   0  0  0  0  0  0  0  0  0  0  0  0
   -2.1055   -1.7281   -1.1722 H   0  0  0  0  0  0  0  0  0  0  0  0
   -3.0937   -0.6958    1.0660 H   0  0  0  0  0  0  0  0  0  0  0  0
   -1.9153    2.0137   -0.0527 H   0  0  0  0  0  0  0  0  0  0  0  0
   -1.7263    1.2024    1.5304 H   0  0  0  0  0  0  0  0  0  0  0  0
  1  2  1  0
  2  3  1  0
  3  4  1  0
  4  5  2  0
  5  6  1  0
  6  7  1  0
  5  8  1  0
  8  9  1  0
  9  3  1  0
  1 10  1  0
  1 11  1  0
  1 12  1  0
  2 13  1  0
  2 14  1  0
  3 15  1  0
  4 16  1  0
  6 17  1  0
  6 18  1  0
  7 19  1  0
  8 20  1  0
  8 21  1  0
M  END
