
     RDKit          3D

 25 26  0  0  0  0  0  0  0  0999 V2000
    3.1037   -0.2319   -0.6059 C   0  0  0  0  0  0  0  0  0  0  0  0
    2.2193    1.0004   -0.3696 C   0  0  0  0  0  0  0  0  0  0  0  0
    1.2276    0.5497    0.7189 C   0  0  0  0  0  0  0  0  0  0  0  0
    0.4495   -0.5516    0.3181 C   0  0  0  0  0  0  0  0  0  0  0  0
   -0.5130   -0.7919   -0.7709 C   0  0  0  0  0  0  0  0  0  0  0  0
   -1.7988   -0.6458    0.0698 C   0  0  0  0  0  0  0  0  0  0  0  0
   -2.9460   -0.1663   -0.7332 C   0  0  0  0  0  0  0  0  0  0  0  0
   -1.3973    0.3488    1.1775 C   0  0  0  0  0  0  0  0  0  0  0  0
   -0.1342    0.8860    0.6426 C   0  0  0  0  0  0  0  0  0  0  0  0
    3.9543    0.0522   -1.2463 H   0  0  0  0  0  0  0  0  0  0  0  0
    3.5488   -0.5203    0.3872 H   0  0  0  0  0  0  0  0  0  0  0  0
    2.5178   -1.0850   -0.9758 H   0  0  0  0  0  0  0  0  0  0  0  0
    2.8815    1.7923   -0.0153 H   0  0  0  0  0  0  0  0  0  0  0  0
    1.6807    1.2377   -1.3095 H   0  0  0  0  0  0  0  0  0  0  0  0
    1.7363    0.5622    1.7052 H   0  0  0  0  0  0  0  0  0  0  0  0
    0.2772   -1.3237    1.1320 H   0  0  0  0  0  0  0  0  0  0  0  0
   -0.4649   -1.7494   -1.2770 H   0  0  0  0  0  0  0  0  0  0  0  0
   -0.5638    0.0687   -1.4902 H   0  0  0  0  0  0  0  0  0  0  0  0
   -1.9928   -1.6421    0.5323 H   0  0  0  0  0  0  0  0  0  0  0  0
   -2.7240   -0.0136   -1.8091 H   0  0  0  0  0  0  0  0  0  0  0  0
   -3.4576    0.7312   -0.2855 H   0  0  0  0  0  0  0  0  0  0  0  0
   -3.7486   -0.9622   -0.7182 H   0  0  0  0  0  0  0  0  0  0  0  0
   -1.2967   -0.1990    2.1362 H   0  0  0  0  0  0  0  0  0  0  0  0
   -2.1768    1.1332    1.2988 H   0  0  0  0  0  0  0  0  0  0  0  0
   -0.3822    1.5204   -0.2675 H   0  0  0  0  0  0  0  0  0  0  0  0
  1  2  1  0
  2  3  1  0
  3  4  1  0
  4  5  1  0
  5  6  1  0
  6  7  1  0
  6  8  1  0
  8  9  1  0
  9  3  1  0
  9  4  1  0
  1 10  1  0
  1 11  1  0
  1 12  1  0
  2 13  1  0
  2 14  1  0
  3 15  1  0
  4 16  1  0
  5 17  1  0
  5 18  1  0
  6 19  1  0
  7 20  1  0
  7 21  1  0
  7 22  1  0
  8 23  1  0
  8 24  1  0
  9 25  1  0
M  END
