
     RDKit          3D

 23 24  0  0  0  0  0  0  0  0999 V2000
    2.3766    0.5250    0.0289 C   0  0  0  0  0  0  0  0  0  0  0  0
    1.6475   -0.7154   -0.3258 C   0  0  0  0  0  0  0  0  0  0  0  0
    0.2407   -0.8401    0.0720 C   0  0  0  0  0  0  0  0  0  0  0  0
   -0.3332   -2.1205   -0.3453 O   0  0  0  0  0  0  0  0  0  0  0  0
   -0.4638   -1.6067    0.9344 C   0  0  0  0  0  0  0  0  0  0  0  0
   -1.5268   -0.5131    1.1213 C   0  0  0  0  0  0  0  0  0  0  0  0
   -0.7992    0.2096   -0.0266 C   0  0  0  0  0  0  0  0  0  0  0  0
   -1.5575    0.0796   -1.3472 C   0  0  0  0  0  0  0  0  0  0  0  0
   -0.4923    1.6166    0.2903 C   0  0  0  0  0  0  0  0  0  0  0  0
    2.3750    0.7560    1.1093 H   0  0  0  0  0  0  0  0  0  0  0  0
    3.4367    0.4386   -0.3107 H   0  0  0  0  0  0  0  0  0  0  0  0
    1.9868    1.4139   -0.5051 H   0  0  0  0  0  0  0  0  0  0  0  0
    2.2580   -1.5833    0.0402 H   0  0  0  0  0  0  0  0  0  0  0  0
    1.7012   -0.8157   -1.4510 H   0  0  0  0  0  0  0  0  0  0  0  0
   -0.2638   -2.3047    1.7420 H   0  0  0  0  0  0  0  0  0  0  0  0
   -2.5376   -0.8093    0.8558 H   0  0  0  0  0  0  0  0  0  0  0  0
   -1.3475    0.0193    2.0518 H   0  0  0  0  0  0  0  0  0  0  0  0
   -1.4493    1.0242   -1.9471 H   0  0  0  0  0  0  0  0  0  0  0  0
   -2.6162   -0.1329   -1.0925 H   0  0  0  0  0  0  0  0  0  0  0  0
   -1.1578   -0.7359   -1.9716 H   0  0  0  0  0  0  0  0  0  0  0  0
   -1.4599    2.0978    0.6393 H   0  0  0  0  0  0  0  0  0  0  0  0
   -0.2532    2.2054   -0.6404 H   0  0  0  0  0  0  0  0  0  0  0  0
    0.2355    1.7916    1.0778 H   0  0  0  0  0  0  0  0  0  0  0  0
  1  2  1  0
  2  3  1  0
  3  4  1  0
  4  5  1  0
  5  6  1  0
  6  7  1  0
  7  8  1  0
  7  9  1  0
  5  3  1  0
  7  3  1  0
  1 10  1  0
  1 11  1  0
  1 12  1  0
  2 13  1  0
  2 14  1  0
  5 15  1  0
  6 16  1  0
  6 17  1  0
  8 18  1  0
  8 19  1  0
  8 20  1  0
  9 21  1  0
  9 22  1  0
  9 23  1  0
M  END
