
     RDKit          3D

 25 25  0  0  0  0  0  0  0  0999 V2000
    3.1663   -0.7622    0.0002 C   0  0  0  0  0  0  0  0  0  0  0  0
    2.2499    0.3934   -0.3334 C   0  0  0  0  0  0  0  0  0  0  0  0
    0.9740    0.3198    0.4808 C   0  0  0  0  0  0  0  0  0  0  0  0
    0.2351   -0.9634    0.1984 C   0  0  0  0  0  0  0  0  0  0  0  0
   -1.0559   -0.6900    0.1276 C   0  0  0  0  0  0  0  0  0  0  0  0
   -2.1316   -1.6781   -0.1360 C   0  0  0  0  0  0  0  0  0  0  0  0
   -1.3147    0.7509    0.3500 C   0  0  0  0  0  0  0  0  0  0  0  0
   -2.4528    1.2431   -0.5100 C   0  0  0  0  0  0  0  0  0  0  0  0
   -0.0098    1.3953    0.0407 C   0  0  0  0  0  0  0  0  0  0  0  0
    2.7114   -1.4684    0.7161 H   0  0  0  0  0  0  0  0  0  0  0  0
    4.1232   -0.4113    0.4783 H   0  0  0  0  0  0  0  0  0  0  0  0
    3.4080   -1.3636   -0.9118 H   0  0  0  0  0  0  0  0  0  0  0  0
    2.7696    1.3168   -0.0404 H   0  0  0  0  0  0  0  0  0  0  0  0
    2.0301    0.3535   -1.4197 H   0  0  0  0  0  0  0  0  0  0  0  0
    1.2022    0.4028    1.5451 H   0  0  0  0  0  0  0  0  0  0  0  0
    0.7615   -1.9059    0.0877 H   0  0  0  0  0  0  0  0  0  0  0  0
   -2.4831   -2.0553    0.8415 H   0  0  0  0  0  0  0  0  0  0  0  0
   -2.9579   -1.2507   -0.7383 H   0  0  0  0  0  0  0  0  0  0  0  0
   -1.7110   -2.5281   -0.7049 H   0  0  0  0  0  0  0  0  0  0  0  0
   -1.5659    0.8721    1.4245 H   0  0  0  0  0  0  0  0  0  0  0  0
   -2.4909    2.3501   -0.4012 H   0  0  0  0  0  0  0  0  0  0  0  0
   -2.3315    0.9077   -1.5426 H   0  0  0  0  0  0  0  0  0  0  0  0
   -3.3922    0.8355   -0.0428 H   0  0  0  0  0  0  0  0  0  0  0  0
    0.1635    2.3154    0.6375 H   0  0  0  0  0  0  0  0  0  0  0  0
    0.1023    1.6210   -1.0381 H   0  0  0  0  0  0  0  0  0  0  0  0
  1  2  1  0
  2  3  1  0
  3  4  1  0
  4  5  2  0
  5  6  1  0
  5  7  1  0
  7  8  1  0
  7  9  1  0
  9  3  1  0
  1 10  1  0
  1 11  1  0
  1 12  1  0
  2 13  1  0
  2 14  1  0
  3 15  1  0
  4 16  1  0
  6 17  1  0
  6 18  1  0
  6 19  1  0
  7 20  1  0
  8 21  1  0
  8 22  1  0
  8 23  1  0
  9 24  1  0
  9 25  1  0
M  END
