
     RDKit          3D

 19 19  0  0  0  0  0  0  0  0999 V2000
    2.5852    0.6534    0.6437 C   0  0  0  0  0  0  0  0  0  0  0  0
    1.7797    0.0824   -0.4908 C   0  0  0  0  0  0  0  0  0  0  0  0
    0.6281   -0.7719   -0.0060 C   0  0  0  0  0  0  0  0  0  0  0  0
   -0.0331   -1.2359   -1.1893 O   0  0  0  0  0  0  0  0  0  0  0  0
   -1.3323   -0.7654   -1.1577 C   0  0  0  0  0  0  0  0  0  0  0  0
   -2.2662   -1.1662   -1.8748 O   0  0  0  0  0  0  0  0  0  0  0  0
   -1.3382    0.2924   -0.1008 C   0  0  0  0  0  0  0  0  0  0  0  0
   -2.6789    0.1799    0.6031 C   0  0  0  0  0  0  0  0  0  0  0  0
   -0.2762   -0.0306    0.7008 O   0  0  0  0  0  0  0  0  0  0  0  0
    2.0123    1.2895    1.3244 H   0  0  0  0  0  0  0  0  0  0  0  0
    3.0047   -0.1786    1.2812 H   0  0  0  0  0  0  0  0  0  0  0  0
    3.4008    1.2550    0.1919 H   0  0  0  0  0  0  0  0  0  0  0  0
    1.3828    0.9286   -1.0849 H   0  0  0  0  0  0  0  0  0  0  0  0
    2.4721   -0.5050   -1.1290 H   0  0  0  0  0  0  0  0  0  0  0  0
    0.9828   -1.6859    0.5084 H   0  0  0  0  0  0  0  0  0  0  0  0
   -1.2815    1.2548   -0.6014 H   0  0  0  0  0  0  0  0  0  0  0  0
   -2.7310    0.8223    1.5040 H   0  0  0  0  0  0  0  0  0  0  0  0
   -3.4558    0.4452   -0.1577 H   0  0  0  0  0  0  0  0  0  0  0  0
   -2.8556   -0.8638    0.9669 H   0  0  0  0  0  0  0  0  0  0  0  0
  1  2  1  0
  2  3  1  0
  3  4  1  0
  4  5  1  0
  5  6  2  0
  5  7  1  0
  7  8  1  0
  7  9  1  0
  9  3  1  0
  1 10  1  0
  1 11  1  0
  1 12  1  0
  2 13  1  0
  2 14  1  0
  3 15  1  0
  7 16  1  0
  8 17  1  0
  8 18  1  0
  8 19  1  0
M  END
