
     RDKit          3D

 25 26  0  0  0  0  0  0  0  0999 V2000
    2.5604    0.7365   -0.3479 C   0  0  0  0  0  0  0  0  0  0  0  0
    1.0928    1.0292   -0.2148 C   0  0  0  0  0  0  0  0  0  0  0  0
    0.2797   -0.1976    0.1451 C   0  0  0  0  0  0  0  0  0  0  0  0
    0.6672   -0.8435    1.4480 C   0  0  0  0  0  0  0  0  0  0  0  0
    0.2649   -1.2480   -0.9595 C   0  0  0  0  0  0  0  0  0  0  0  0
   -1.2578   -1.3216   -0.7700 C   0  0  0  0  0  0  0  0  0  0  0  0
   -1.1676   -0.0147   -0.0687 C   0  0  0  0  0  0  0  0  0  0  0  0
   -1.8476    1.1742   -0.5043 C   0  0  0  0  0  0  0  0  0  0  0  0
   -2.1277    0.5072    0.8728 C   0  0  0  0  0  0  0  0  0  0  0  0
    3.0632    0.7794    0.6370 H   0  0  0  0  0  0  0  0  0  0  0  0
    2.7765   -0.1929   -0.9076 H   0  0  0  0  0  0  0  0  0  0  0  0
    3.0054    1.5878   -0.9404 H   0  0  0  0  0  0  0  0  0  0  0  0
    0.9920    1.7225    0.6710 H   0  0  0  0  0  0  0  0  0  0  0  0
    0.6934    1.5635   -1.0748 H   0  0  0  0  0  0  0  0  0  0  0  0
    0.5023   -1.9584    1.4252 H   0  0  0  0  0  0  0  0  0  0  0  0
    0.0292   -0.4811    2.2864 H   0  0  0  0  0  0  0  0  0  0  0  0
    1.7322   -0.7118    1.6961 H   0  0  0  0  0  0  0  0  0  0  0  0
    0.7045   -2.2155   -0.6911 H   0  0  0  0  0  0  0  0  0  0  0  0
    0.5207   -0.8596   -1.9582 H   0  0  0  0  0  0  0  0  0  0  0  0
   -1.5712   -2.1263   -0.0737 H   0  0  0  0  0  0  0  0  0  0  0  0
   -1.8274   -1.3265   -1.7080 H   0  0  0  0  0  0  0  0  0  0  0  0
   -2.6750    1.0642   -1.2641 H   0  0  0  0  0  0  0  0  0  0  0  0
   -1.4890    2.2087   -0.4258 H   0  0  0  0  0  0  0  0  0  0  0  0
   -3.1462    0.0519    0.9597 H   0  0  0  0  0  0  0  0  0  0  0  0
   -1.7750    1.0724    1.7675 H   0  0  0  0  0  0  0  0  0  0  0  0
  1  2  1  0
  2  3  1  0
  3  4  1  0
  3  5  1  0
  5  6  1  0
  6  7  1  0
  7  8  1  0
  8  9  1  0
  7  3  1  0
  9  7  1  0
  1 10  1  0
  1 11  1  0
  1 12  1  0
  2 13  1  0
  2 14  1  0
  4 15  1  0
  4 16  1  0
  4 17  1  0
  5 18  1  0
  5 19  1  0
  6 20  1  0
  6 21  1  0
  8 22  1  0
  8 23  1  0
  9 24  1  0
  9 25  1  0
M  END
