
     RDKit          3D

 21 23  0  0  0  0  0  0  0  0999 V2000
    2.4200   -0.3299   -0.1816 C   0  0  0  0  0  0  0  0  0  0  0  0
    1.1159   -0.8436    0.4426 C   0  0  0  0  0  0  0  0  0  0  0  0
    0.0830    0.0320    0.2441 C   0  0  0  0  0  0  0  0  0  0  0  0
   -0.0469    1.4466    0.6755 C   0  0  0  0  0  0  0  0  0  0  0  0
   -1.3177    1.2078   -0.0611 C   0  0  0  0  0  0  0  0  0  0  0  0
   -1.3564   -0.1323    0.6225 C   0  0  0  0  0  0  0  0  0  0  0  0
   -1.8976   -1.0353   -0.4114 C   0  0  0  0  0  0  0  0  0  0  0  0
   -1.2574   -0.5460   -1.5773 O   0  0  0  0  0  0  0  0  0  0  0  0
   -0.4851    0.4692   -1.0826 C   0  0  0  0  0  0  0  0  0  0  0  0
    3.2878   -0.9249    0.1537 H   0  0  0  0  0  0  0  0  0  0  0  0
    2.2945   -0.4228   -1.2836 H   0  0  0  0  0  0  0  0  0  0  0  0
    2.5617    0.7140    0.1312 H   0  0  0  0  0  0  0  0  0  0  0  0
    1.3470   -1.0614    1.4844 H   0  0  0  0  0  0  0  0  0  0  0  0
    0.9445   -1.8361   -0.0527 H   0  0  0  0  0  0  0  0  0  0  0  0
    0.6651    2.1664    0.2691 H   0  0  0  0  0  0  0  0  0  0  0  0
   -0.2334    1.5024    1.7806 H   0  0  0  0  0  0  0  0  0  0  0  0
   -2.0826    1.8259   -0.2397 H   0  0  0  0  0  0  0  0  0  0  0  0
   -1.6401   -0.1952    1.6431 H   0  0  0  0  0  0  0  0  0  0  0  0
   -3.0033   -1.0029   -0.5268 H   0  0  0  0  0  0  0  0  0  0  0  0
   -1.5379   -2.0799   -0.2906 H   0  0  0  0  0  0  0  0  0  0  0  0
    0.1387    1.0458   -1.7395 H   0  0  0  0  0  0  0  0  0  0  0  0
  1  2  1  0
  2  3  1  0
  3  4  1  0
  4  5  1  0
  5  6  1  0
  6  7  1  0
  7  8  1  0
  8  9  1  0
  6  3  1  0
  9  3  1  0
  9  5  1  0
  1 10  1  0
  1 11  1  0
  1 12  1  0
  2 13  1  0
  2 14  1  0
  4 15  1  0
  4 16  1  0
  5 17  1  0
  6 18  1  0
  7 19  1  0
  7 20  1  0
  9 21  1  0
M  END
