
     RDKit          3D

 21 22  0  0  0  0  0  0  0  0999 V2000
    2.5068    0.9146   -0.0911 C   0  0  0  0  0  0  0  0  0  0  0  0
    1.7061   -0.3752   -0.2445 C   0  0  0  0  0  0  0  0  0  0  0  0
    0.2967    0.0268   -0.5530 C   0  0  0  0  0  0  0  0  0  0  0  0
   -0.6502   -1.1783   -0.7392 C   0  0  0  0  0  0  0  0  0  0  0  0
   -0.5329   -2.1756    0.1838 O   0  0  0  0  0  0  0  0  0  0  0  0
   -1.6466   -0.0742   -0.4513 C   0  0  0  0  0  0  0  0  0  0  0  0
   -1.9465    0.5631    0.7755 C   0  0  0  0  0  0  0  0  0  0  0  0
   -2.2335    1.9509    0.8421 O   0  0  0  0  0  0  0  0  0  0  0  0
   -0.5704    0.2193    0.6775 C   0  0  0  0  0  0  0  0  0  0  0  0
    2.3280    1.3471    0.9267 H   0  0  0  0  0  0  0  0  0  0  0  0
    2.2065    1.6445   -0.8759 H   0  0  0  0  0  0  0  0  0  0  0  0
    3.5874    0.7013   -0.2595 H   0  0  0  0  0  0  0  0  0  0  0  0
    1.8085   -1.0018    0.6413 H   0  0  0  0  0  0  0  0  0  0  0  0
    2.1051   -0.8969   -1.1456 H   0  0  0  0  0  0  0  0  0  0  0  0
    0.1533    0.7245   -1.3716 H   0  0  0  0  0  0  0  0  0  0  0  0
   -0.6447   -1.5011   -1.7882 H   0  0  0  0  0  0  0  0  0  0  0  0
   -0.8624   -3.0144   -0.2151 H   0  0  0  0  0  0  0  0  0  0  0  0
   -1.5807    0.6569   -1.3229 H   0  0  0  0  0  0  0  0  0  0  0  0
   -2.6881    0.0243    1.4430 H   0  0  0  0  0  0  0  0  0  0  0  0
   -3.0146    2.1142    0.2320 H   0  0  0  0  0  0  0  0  0  0  0  0
   -0.3277   -0.6700    1.3410 H   0  0  0  0  0  0  0  0  0  0  0  0
  1  2  1  0
  2  3  1  0
  3  4  1  0
  4  5  1  0
  4  6  1  0
  6  7  1  0
  7  8  1  0
  7  9  1  0
  9  3  1  0
  9  6  1  0
  1 10  1  0
  1 11  1  0
  1 12  1  0
  2 13  1  0
  2 14  1  0
  3 15  1  0
  4 16  1  0
  5 17  1  0
  6 18  1  0
  7 19  1  0
  8 20  1  0
  9 21  1  0
M  END
