
     RDKit          3D

 25 25  0  0  0  0  0  0  0  0999 V2000
    3.1917   -0.6248   -0.2867 C   0  0  0  0  0  0  0  0  0  0  0  0
    2.3404    0.5603    0.1160 C   0  0  0  0  0  0  0  0  0  0  0  0
    0.8800    0.1517    0.1756 C   0  0  0  0  0  0  0  0  0  0  0  0
   -0.0041    1.3091    0.5751 C   0  0  0  0  0  0  0  0  0  0  0  0
   -1.4298    1.1006    0.1308 C   0  0  0  0  0  0  0  0  0  0  0  0
   -1.6304   -0.3838   -0.0635 C   0  0  0  0  0  0  0  0  0  0  0  0
   -3.0227   -0.7128   -0.5681 C   0  0  0  0  0  0  0  0  0  0  0  0
   -0.6615   -0.8866   -1.1115 C   0  0  0  0  0  0  0  0  0  0  0  0
    0.5196   -0.1811   -1.1449 O   0  0  0  0  0  0  0  0  0  0  0  0
    2.9207   -1.5399    0.2909 H   0  0  0  0  0  0  0  0  0  0  0  0
    3.1165   -0.8116   -1.3677 H   0  0  0  0  0  0  0  0  0  0  0  0
    4.2655   -0.3630   -0.0855 H   0  0  0  0  0  0  0  0  0  0  0  0
    2.5074    1.3403   -0.6549 H   0  0  0  0  0  0  0  0  0  0  0  0
    2.6245    0.9882    1.0776 H   0  0  0  0  0  0  0  0  0  0  0  0
    0.7268   -0.7093    0.8440 H   0  0  0  0  0  0  0  0  0  0  0  0
    0.4368    2.2335    0.1038 H   0  0  0  0  0  0  0  0  0  0  0  0
    0.0611    1.4770    1.6759 H   0  0  0  0  0  0  0  0  0  0  0  0
   -2.1058    1.4783    0.9212 H   0  0  0  0  0  0  0  0  0  0  0  0
   -1.6490    1.6806   -0.7870 H   0  0  0  0  0  0  0  0  0  0  0  0
   -1.4919   -0.8780    0.9116 H   0  0  0  0  0  0  0  0  0  0  0  0
   -3.7697   -0.7252    0.2480 H   0  0  0  0  0  0  0  0  0  0  0  0
   -2.9363   -1.7128   -1.0664 H   0  0  0  0  0  0  0  0  0  0  0  0
   -3.2651    0.0116   -1.3672 H   0  0  0  0  0  0  0  0  0  0  0  0
   -1.1171   -0.8246   -2.1406 H   0  0  0  0  0  0  0  0  0  0  0  0
   -0.5076   -1.9779   -0.9339 H   0  0  0  0  0  0  0  0  0  0  0  0
  1  2  1  0
  2  3  1  0
  3  4  1  0
  4  5  1  0
  5  6  1  0
  6  7  1  0
  6  8  1  0
  8  9  1  0
  9  3  1  0
  1 10  1  0
  1 11  1  0
  1 12  1  0
  2 13  1  0
  2 14  1  0
  3 15  1  0
  4 16  1  0
  4 17  1  0
  5 18  1  0
  5 19  1  0
  6 20  1  0
  7 21  1  0
  7 22  1  0
  7 23  1  0
  8 24  1  0
  8 25  1  0
M  END
