
     RDKit          3D

 21 21  0  0  0  0  0  0  0  0999 V2000
    2.7154   -0.2361    0.4025 C   0  0  0  0  0  0  0  0  0  0  0  0
    1.8320    0.2282   -0.7614 C   0  0  0  0  0  0  0  0  0  0  0  0
    0.4358   -0.0469   -0.3796 C   0  0  0  0  0  0  0  0  0  0  0  0
   -0.3006   -0.8499   -1.1091 C   0  0  0  0  0  0  0  0  0  0  0  0
   -1.6827   -1.1125   -0.7175 C   0  0  0  0  0  0  0  0  0  0  0  0
   -2.2595   -2.1959   -0.9870 O   0  0  0  0  0  0  0  0  0  0  0  0
   -2.4248   -0.0835    0.0128 C   0  0  0  0  0  0  0  0  0  0  0  0
   -1.5935    0.9308    0.6910 C   0  0  0  0  0  0  0  0  0  0  0  0
   -0.1396    0.5763    0.8217 C   0  0  0  0  0  0  0  0  0  0  0  0
    2.2936   -1.2215    0.7084 H   0  0  0  0  0  0  0  0  0  0  0  0
    3.7747   -0.3342    0.0820 H   0  0  0  0  0  0  0  0  0  0  0  0
    2.5743    0.5195    1.1985 H   0  0  0  0  0  0  0  0  0  0  0  0
    2.1266   -0.3216   -1.6813 H   0  0  0  0  0  0  0  0  0  0  0  0
    1.9710    1.3201   -0.9288 H   0  0  0  0  0  0  0  0  0  0  0  0
    0.0882   -1.3415   -2.0185 H   0  0  0  0  0  0  0  0  0  0  0  0
   -3.1255    0.4078   -0.7164 H   0  0  0  0  0  0  0  0  0  0  0  0
   -3.1046   -0.5977    0.7507 H   0  0  0  0  0  0  0  0  0  0  0  0
   -1.9888    1.1506    1.7167 H   0  0  0  0  0  0  0  0  0  0  0  0
   -1.6538    1.8901    0.1319 H   0  0  0  0  0  0  0  0  0  0  0  0
   -0.0140   -0.1376    1.6884 H   0  0  0  0  0  0  0  0  0  0  0  0
    0.4757    1.4557    1.0951 H   0  0  0  0  0  0  0  0  0  0  0  0
  1  2  1  0
  2  3  1  0
  3  4  2  0
  4  5  1  0
  5  6  2  0
  5  7  1  0
  7  8  1  0
  8  9  1  0
  9  3  1  0
  1 10  1  0
  1 11  1  0
  1 12  1  0
  2 13  1  0
  2 14  1  0
  4 15  1  0
  7 16  1  0
  7 17  1  0
  8 18  1  0
  8 19  1  0
  9 20  1  0
  9 21  1  0
M  END
