
     RDKit          3D

 22 22  0  0  0  0  0  0  0  0999 V2000
    2.7066   -0.3356    0.7983 C   0  0  0  0  0  0  0  0  0  0  0  0
    1.8386    0.2753   -0.2685 C   0  0  0  0  0  0  0  0  0  0  0  0
    0.5491   -0.4730   -0.4621 C   0  0  0  0  0  0  0  0  0  0  0  0
   -0.2196    0.1296   -1.4586 O   0  0  0  0  0  0  0  0  0  0  0  0
   -0.7989    0.9107   -0.4679 C   0  0  0  0  0  0  0  0  0  0  0  0
   -2.2301    1.2271   -0.7937 C   0  0  0  0  0  0  0  0  0  0  0  0
   -0.5484   -0.1777    0.5078 C   0  0  0  0  0  0  0  0  0  0  0  0
   -1.5394   -1.3038    0.5567 C   0  0  0  0  0  0  0  0  0  0  0  0
    3.2227   -1.2645    0.4287 H   0  0  0  0  0  0  0  0  0  0  0  0
    2.1745   -0.5369    1.7397 H   0  0  0  0  0  0  0  0  0  0  0  0
    3.5121    0.3915    1.0283 H   0  0  0  0  0  0  0  0  0  0  0  0
    1.7151    1.3406   -0.0494 H   0  0  0  0  0  0  0  0  0  0  0  0
    2.4086    0.1908   -1.2280 H   0  0  0  0  0  0  0  0  0  0  0  0
    0.7278   -1.5299   -0.6547 H   0  0  0  0  0  0  0  0  0  0  0  0
   -0.2592    1.8328   -0.1945 H   0  0  0  0  0  0  0  0  0  0  0  0
   -2.7826    1.6706    0.0540 H   0  0  0  0  0  0  0  0  0  0  0  0
   -2.7798    0.3893   -1.2562 H   0  0  0  0  0  0  0  0  0  0  0  0
   -2.2026    2.0327   -1.5846 H   0  0  0  0  0  0  0  0  0  0  0  0
   -0.2373    0.1549    1.5164 H   0  0  0  0  0  0  0  0  0  0  0  0
   -2.0290   -1.3345    1.5595 H   0  0  0  0  0  0  0  0  0  0  0  0
   -2.2557   -1.3126   -0.2610 H   0  0  0  0  0  0  0  0  0  0  0  0
   -0.9724   -2.2775    0.4896 H   0  0  0  0  0  0  0  0  0  0  0  0
  1  2  1  0
  2  3  1  0
  3  4  1  0
  4  5  1  0
  5  6  1  0
  5  7  1  0
  7  8  1  0
  7  3  1  0
  1  9  1  0
  1 10  1  0
  1 11  1  0
  2 12  1  0
  2 13  1  0
  3 14  1  0
  5 15  1  0
  6 16  1  0
  6 17  1  0
  6 18  1  0
  7 19  1  0
  8 20  1  0
  8 21  1  0
  8 22  1  0
M  END
