
     RDKit          3D

 23 23  0  0  0  0  0  0  0  0999 V2000
    1.8498    0.0637    0.9982 C   0  0  0  0  0  0  0  0  0  0  0  0
    1.7222   -0.2294   -0.4406 C   0  0  0  0  0  0  0  0  0  0  0  0
    0.4044   -0.3784   -1.0632 C   0  0  0  0  0  0  0  0  0  0  0  0
    0.5696   -0.6712   -2.4662 O   0  0  0  0  0  0  0  0  0  0  0  0
   -0.6604    0.6593   -0.8920 C   0  0  0  0  0  0  0  0  0  0  0  0
   -0.6512    1.7014    0.1558 C   0  0  0  0  0  0  0  0  0  0  0  0
   -0.8563   -0.8211   -0.5123 C   0  0  0  0  0  0  0  0  0  0  0  0
   -1.2423   -1.0564    0.8936 C   0  0  0  0  0  0  0  0  0  0  0  0
   -2.5986   -1.4907    0.8896 O   0  0  0  0  0  0  0  0  0  0  0  0
    1.0921   -0.3804    1.6675 H   0  0  0  0  0  0  0  0  0  0  0  0
    2.0231    1.1650    1.1928 H   0  0  0  0  0  0  0  0  0  0  0  0
    2.8223   -0.3705    1.4170 H   0  0  0  0  0  0  0  0  0  0  0  0
    2.2666    0.5898   -1.0142 H   0  0  0  0  0  0  0  0  0  0  0  0
    2.4049   -1.1174   -0.6449 H   0  0  0  0  0  0  0  0  0  0  0  0
    0.7777    0.1529   -2.9453 H   0  0  0  0  0  0  0  0  0  0  0  0
   -1.2679    0.9764   -1.7951 H   0  0  0  0  0  0  0  0  0  0  0  0
   -0.1320    2.5964   -0.2480 H   0  0  0  0  0  0  0  0  0  0  0  0
   -1.7277    2.0416    0.2702 H   0  0  0  0  0  0  0  0  0  0  0  0
   -0.3072    1.4612    1.1458 H   0  0  0  0  0  0  0  0  0  0  0  0
   -1.5234   -1.4144   -1.2275 H   0  0  0  0  0  0  0  0  0  0  0  0
   -0.6903   -1.9367    1.2915 H   0  0  0  0  0  0  0  0  0  0  0  0
   -1.2577   -0.2072    1.5733 H   0  0  0  0  0  0  0  0  0  0  0  0
   -3.0178   -1.3339    1.7542 H   0  0  0  0  0  0  0  0  0  0  0  0
  1  2  1  0
  2  3  1  0
  3  4  1  0
  3  5  1  0
  5  6  1  0
  5  7  1  0
  7  8  1  0
  8  9  1  0
  7  3  1  0
  1 10  1  0
  1 11  1  0
  1 12  1  0
  2 13  1  0
  2 14  1  0
  4 15  1  0
  5 16  1  0
  6 17  1  0
  6 18  1  0
  6 19  1  0
  7 20  1  0
  8 21  1  0
  8 22  1  0
  9 23  1  0
M  END
