
     RDKit          3D

 21 22  0  0  0  0  0  0  0  0999 V2000
    2.0467   -0.7048    0.5281 C   0  0  0  0  0  0  0  0  0  0  0  0
    1.4604    0.1158   -0.6087 C   0  0  0  0  0  0  0  0  0  0  0  0
    0.1411    0.4329   -0.4429 C   0  0  0  0  0  0  0  0  0  0  0  0
   -0.7285    1.2322   -1.3858 C   0  0  0  0  0  0  0  0  0  0  0  0
   -1.6206    0.9110   -0.2116 C   0  0  0  0  0  0  0  0  0  0  0  0
   -0.4558    1.2683    0.6308 C   0  0  0  0  0  0  0  0  0  0  0  0
   -0.1469    1.8798    1.6182 O   0  0  0  0  0  0  0  0  0  0  0  0
   -1.0310   -0.4667   -0.2693 C   0  0  0  0  0  0  0  0  0  0  0  0
   -1.0949   -1.2493    1.0233 C   0  0  0  0  0  0  0  0  0  0  0  0
    1.4861   -0.4183    1.4466 H   0  0  0  0  0  0  0  0  0  0  0  0
    1.9494   -1.7941    0.3108 H   0  0  0  0  0  0  0  0  0  0  0  0
    3.1148   -0.5042    0.6448 H   0  0  0  0  0  0  0  0  0  0  0  0
    1.6953   -0.4452   -1.5374 H   0  0  0  0  0  0  0  0  0  0  0  0
    2.1241    1.0303   -0.6710 H   0  0  0  0  0  0  0  0  0  0  0  0
   -1.0241    0.7073   -2.3097 H   0  0  0  0  0  0  0  0  0  0  0  0
   -0.4613    2.3029   -1.4907 H   0  0  0  0  0  0  0  0  0  0  0  0
   -2.5760    1.1751   -0.0843 H   0  0  0  0  0  0  0  0  0  0  0  0
   -1.3703   -1.0117   -1.1541 H   0  0  0  0  0  0  0  0  0  0  0  0
   -0.3246   -2.0478    1.0326 H   0  0  0  0  0  0  0  0  0  0  0  0
   -2.0785   -1.7971    1.0193 H   0  0  0  0  0  0  0  0  0  0  0  0
   -1.1052   -0.6164    1.9110 H   0  0  0  0  0  0  0  0  0  0  0  0
  1  2  1  0
  2  3  1  0
  3  4  1  0
  4  5  1  0
  5  6  1  0
  6  7  2  0
  5  8  1  0
  8  9  1  0
  6  3  1  0
  8  3  1  0
  1 10  1  0
  1 11  1  0
  1 12  1  0
  2 13  1  0
  2 14  1  0
  4 15  1  0
  4 16  1  0
  5 17  1  0
  8 18  1  0
  9 19  1  0
  9 20  1  0
  9 21  1  0
M  END
