
     RDKit          3D

 21 22  0  0  0  0  0  0  0  0999 V2000
    2.7622    0.6007   -0.5308 C   0  0  0  0  0  0  0  0  0  0  0  0
    1.8408   -0.4017    0.1606 C   0  0  0  0  0  0  0  0  0  0  0  0
    0.4510    0.1844    0.1292 C   0  0  0  0  0  0  0  0  0  0  0  0
   -0.0399    0.4227   -1.1307 O   0  0  0  0  0  0  0  0  0  0  0  0
   -1.1450   -0.4144   -0.9829 C   0  0  0  0  0  0  0  0  0  0  0  0
   -2.0403   -0.2403    0.2072 C   0  0  0  0  0  0  0  0  0  0  0  0
   -2.2678    1.1898    0.7033 C   0  0  0  0  0  0  0  0  0  0  0  0
   -0.6729   -0.7868    0.3557 C   0  0  0  0  0  0  0  0  0  0  0  0
   -0.4337   -2.0781    0.7485 O   0  0  0  0  0  0  0  0  0  0  0  0
    2.1741    1.0357   -1.3662 H   0  0  0  0  0  0  0  0  0  0  0  0
    2.9808    1.3948    0.2123 H   0  0  0  0  0  0  0  0  0  0  0  0
    3.6561    0.1306   -0.9430 H   0  0  0  0  0  0  0  0  0  0  0  0
    1.8843   -1.3378   -0.4442 H   0  0  0  0  0  0  0  0  0  0  0  0
    2.1883   -0.6371    1.1688 H   0  0  0  0  0  0  0  0  0  0  0  0
    0.3814    1.0160    0.8535 H   0  0  0  0  0  0  0  0  0  0  0  0
   -1.3865   -1.1499   -1.7626 H   0  0  0  0  0  0  0  0  0  0  0  0
   -2.9397   -0.8528    0.1972 H   0  0  0  0  0  0  0  0  0  0  0  0
   -2.2104    1.2367    1.8113 H   0  0  0  0  0  0  0  0  0  0  0  0
   -1.5190    1.8902    0.2592 H   0  0  0  0  0  0  0  0  0  0  0  0
   -3.2559    1.5404    0.3144 H   0  0  0  0  0  0  0  0  0  0  0  0
   -0.4080   -2.7432    0.0390 H   0  0  0  0  0  0  0  0  0  0  0  0
  1  2  1  0
  2  3  1  0
  3  4  1  0
  4  5  1  0
  5  6  1  0
  6  7  1  0
  6  8  1  0
  8  9  1  0
  8  3  1  0
  8  5  1  0
  1 10  1  0
  1 11  1  0
  1 12  1  0
  2 13  1  0
  2 14  1  0
  3 15  1  0
  5 16  1  0
  6 17  1  0
  7 18  1  0
  7 19  1  0
  7 20  1  0
  9 21  1  0
M  END
