
     RDKit          3D

 23 24  0  0  0  0  0  0  0  0999 V2000
    2.7629    0.7546   -0.0141 C   0  0  0  0  0  0  0  0  0  0  0  0
    1.7601    0.1613    0.9565 C   0  0  0  0  0  0  0  0  0  0  0  0
    0.8601   -0.8559    0.2503 C   0  0  0  0  0  0  0  0  0  0  0  0
    0.0612   -0.4606   -0.8274 C   0  0  0  0  0  0  0  0  0  0  0  0
   -0.9811   -1.0270   -1.6465 C   0  0  0  0  0  0  0  0  0  0  0  0
   -2.1226   -0.8713   -0.9881 C   0  0  0  0  0  0  0  0  0  0  0  0
   -1.7596   -0.1704    0.3204 C   0  0  0  0  0  0  0  0  0  0  0  0
   -1.6858    1.2688    0.0661 C   0  0  0  0  0  0  0  0  0  0  0  0
   -0.5073   -0.9398    0.5485 C   0  0  0  0  0  0  0  0  0  0  0  0
    3.0392    1.7684    0.3220 H   0  0  0  0  0  0  0  0  0  0  0  0
    2.3426    0.7474   -1.0561 H   0  0  0  0  0  0  0  0  0  0  0  0
    3.6708    0.0881   -0.0453 H   0  0  0  0  0  0  0  0  0  0  0  0
    1.2058    0.9969    1.3831 H   0  0  0  0  0  0  0  0  0  0  0  0
    2.3505   -0.3722    1.7392 H   0  0  0  0  0  0  0  0  0  0  0  0
    1.4833   -1.7866    0.0610 H   0  0  0  0  0  0  0  0  0  0  0  0
    0.0552    0.6718   -0.9865 H   0  0  0  0  0  0  0  0  0  0  0  0
   -0.8367   -1.4914   -2.6212 H   0  0  0  0  0  0  0  0  0  0  0  0
   -3.1115   -1.1644   -1.2834 H   0  0  0  0  0  0  0  0  0  0  0  0
   -2.5127   -0.4040    1.0892 H   0  0  0  0  0  0  0  0  0  0  0  0
   -0.8318    1.8228    0.4385 H   0  0  0  0  0  0  0  0  0  0  0  0
   -2.5914    1.7775    0.5199 H   0  0  0  0  0  0  0  0  0  0  0  0
   -1.7966    1.5135   -1.0325 H   0  0  0  0  0  0  0  0  0  0  0  0
   -0.8544   -2.0273    0.5998 H   0  0  0  0  0  0  0  0  0  0  0  0
  1  2  1  0
  2  3  1  0
  3  4  1  0
  4  5  1  0
  5  6  2  0
  6  7  1  0
  7  8  1  0
  7  9  1  0
  9  3  1  0
  9  4  1  0
  1 10  1  0
  1 11  1  0
  1 12  1  0
  2 13  1  0
  2 14  1  0
  3 15  1  0
  4 16  1  0
  5 17  1  0
  6 18  1  0
  7 19  1  0
  8 20  1  0
  8 21  1  0
  8 22  1  0
  9 23  1  0
M  END
