
     RDKit          3D

 21 21  0  0  0  0  0  0  0  0999 V2000
    2.7103   -0.5797   -0.2198 C   0  0  0  0  0  0  0  0  0  0  0  0
    1.8288    0.5314    0.2954 C   0  0  0  0  0  0  0  0  0  0  0  0
    0.4467    0.0523    0.6097 C   0  0  0  0  0  0  0  0  0  0  0  0
   -0.2760   -0.5272   -0.5624 C   0  0  0  0  0  0  0  0  0  0  0  0
   -1.6770   -0.9167   -0.0748 C   0  0  0  0  0  0  0  0  0  0  0  0
   -2.4493    0.3771    0.0377 C   0  0  0  0  0  0  0  0  0  0  0  0
   -1.5937    1.4192    0.7018 C   0  0  0  0  0  0  0  0  0  0  0  0
   -2.1442    2.5507    0.8473 O   0  0  0  0  0  0  0  0  0  0  0  0
   -0.3137    1.1359    1.1098 O   0  0  0  0  0  0  0  0  0  0  0  0
    2.2379   -1.2040   -0.9853 H   0  0  0  0  0  0  0  0  0  0  0  0
    3.0327   -1.2410    0.6275 H   0  0  0  0  0  0  0  0  0  0  0  0
    3.6208   -0.0757   -0.6498 H   0  0  0  0  0  0  0  0  0  0  0  0
    2.2894    0.9141    1.2175 H   0  0  0  0  0  0  0  0  0  0  0  0
    1.8084    1.3684   -0.4328 H   0  0  0  0  0  0  0  0  0  0  0  0
    0.5088   -0.7394    1.3906 H   0  0  0  0  0  0  0  0  0  0  0  0
   -0.4582    0.2542   -1.3530 H   0  0  0  0  0  0  0  0  0  0  0  0
    0.2063   -1.3809   -1.0357 H   0  0  0  0  0  0  0  0  0  0  0  0
   -1.5642   -1.3535    0.9286 H   0  0  0  0  0  0  0  0  0  0  0  0
   -2.1728   -1.6039   -0.7723 H   0  0  0  0  0  0  0  0  0  0  0  0
   -3.3876    0.2648    0.6192 H   0  0  0  0  0  0  0  0  0  0  0  0
   -2.6535    0.7538   -0.9877 H   0  0  0  0  0  0  0  0  0  0  0  0
  1  2  1  0
  2  3  1  0
  3  4  1  0
  4  5  1  0
  5  6  1  0
  6  7  1  0
  7  8  2  0
  7  9  1  0
  9  3  1  0
  1 10  1  0
  1 11  1  0
  1 12  1  0
  2 13  1  0
  2 14  1  0
  3 15  1  0
  4 16  1  0
  4 17  1  0
  5 18  1  0
  5 19  1  0
  6 20  1  0
  6 21  1  0
M  END
