
     RDKit          3D

 23 24  0  0  0  0  0  0  0  0999 V2000
    2.7484    0.0117    0.5186 C   0  0  0  0  0  0  0  0  0  0  0  0
    1.7402    0.6878   -0.3889 C   0  0  0  0  0  0  0  0  0  0  0  0
    0.5220   -0.2207   -0.5626 C   0  0  0  0  0  0  0  0  0  0  0  0
   -0.4769    0.4638   -1.4695 C   0  0  0  0  0  0  0  0  0  0  0  0
   -1.8266   -0.1788   -1.2588 C   0  0  0  0  0  0  0  0  0  0  0  0
   -2.3782    0.3222    0.0408 C   0  0  0  0  0  0  0  0  0  0  0  0
   -1.5799   -0.8195    0.5968 C   0  0  0  0  0  0  0  0  0  0  0  0
   -0.1251   -0.4881    0.7937 C   0  0  0  0  0  0  0  0  0  0  0  0
   -1.7044   -1.4428   -0.6630 O   0  0  0  0  0  0  0  0  0  0  0  0
    2.2633   -0.5751    1.3149 H   0  0  0  0  0  0  0  0  0  0  0  0
    3.4688    0.7560    0.8755 H   0  0  0  0  0  0  0  0  0  0  0  0
    3.3180   -0.7007   -0.1435 H   0  0  0  0  0  0  0  0  0  0  0  0
    2.1867    0.8414   -1.3779 H   0  0  0  0  0  0  0  0  0  0  0  0
    1.3836    1.6529    0.0460 H   0  0  0  0  0  0  0  0  0  0  0  0
    0.9097   -1.1653   -1.0022 H   0  0  0  0  0  0  0  0  0  0  0  0
   -0.1571    0.4682   -2.5099 H   0  0  0  0  0  0  0  0  0  0  0  0
   -0.5718    1.5159   -1.0842 H   0  0  0  0  0  0  0  0  0  0  0  0
   -2.5451   -0.0994   -2.0728 H   0  0  0  0  0  0  0  0  0  0  0  0
   -2.0797    1.3309    0.3097 H   0  0  0  0  0  0  0  0  0  0  0  0
   -3.4634    0.0876    0.1056 H   0  0  0  0  0  0  0  0  0  0  0  0
   -2.0406   -1.3983    1.4075 H   0  0  0  0  0  0  0  0  0  0  0  0
    0.3641   -1.3922    1.2101 H   0  0  0  0  0  0  0  0  0  0  0  0
    0.0439    0.3424    1.4959 H   0  0  0  0  0  0  0  0  0  0  0  0
  1  2  1  0
  2  3  1  0
  3  4  1  0
  4  5  1  0
  5  6  1  0
  6  7  1  0
  7  8  1  0
  7  9  1  0
  8  3  1  0
  9  5  1  0
  1 10  1  0
  1 11  1  0
  1 12  1  0
  2 13  1  0
  2 14  1  0
  3 15  1  0
  4 16  1  0
  4 17  1  0
  5 18  1  0
  6 19  1  0
  6 20  1  0
  7 21  1  0
  8 22  1  0
  8 23  1  0
M  END
