
     RDKit          3D

 25 25  0  0  0  0  0  0  0  0999 V2000
    2.9218    0.6888    0.4473 C   0  0  0  0  0  0  0  0  0  0  0  0
    1.8280   -0.3117    0.3078 C   0  0  0  0  0  0  0  0  0  0  0  0
    0.4505    0.2515    0.5074 C   0  0  0  0  0  0  0  0  0  0  0  0
    0.1044    1.3205   -0.4487 C   0  0  0  0  0  0  0  0  0  0  0  0
   -1.1264    1.4921   -0.8617 C   0  0  0  0  0  0  0  0  0  0  0  0
   -2.2890    0.6776   -0.4482 C   0  0  0  0  0  0  0  0  0  0  0  0
   -1.9554   -0.3447    0.6040 C   0  0  0  0  0  0  0  0  0  0  0  0
   -0.5553   -0.8739    0.5066 C   0  0  0  0  0  0  0  0  0  0  0  0
   -0.4740   -1.7316   -0.7313 C   0  0  0  0  0  0  0  0  0  0  0  0
    3.8768    0.2107    0.7716 H   0  0  0  0  0  0  0  0  0  0  0  0
    3.1595    1.2092   -0.5080 H   0  0  0  0  0  0  0  0  0  0  0  0
    2.6492    1.4246    1.2567 H   0  0  0  0  0  0  0  0  0  0  0  0
    1.9696   -1.0872    1.1076 H   0  0  0  0  0  0  0  0  0  0  0  0
    1.9499   -0.8473   -0.6431 H   0  0  0  0  0  0  0  0  0  0  0  0
    0.3776    0.7117    1.5196 H   0  0  0  0  0  0  0  0  0  0  0  0
    0.8890    1.9559   -0.7982 H   0  0  0  0  0  0  0  0  0  0  0  0
   -1.3414    2.2989   -1.5730 H   0  0  0  0  0  0  0  0  0  0  0  0
   -2.6972    0.2105   -1.3706 H   0  0  0  0  0  0  0  0  0  0  0  0
   -3.0775    1.3355   -0.0270 H   0  0  0  0  0  0  0  0  0  0  0  0
   -2.6498   -1.2063    0.4428 H   0  0  0  0  0  0  0  0  0  0  0  0
   -2.1630    0.0156    1.6362 H   0  0  0  0  0  0  0  0  0  0  0  0
   -0.3615   -1.4956    1.3914 H   0  0  0  0  0  0  0  0  0  0  0  0
   -1.2996   -2.4706   -0.6589 H   0  0  0  0  0  0  0  0  0  0  0  0
   -0.6521   -1.1194   -1.6444 H   0  0  0  0  0  0  0  0  0  0  0  0
    0.4660   -2.3147   -0.7858 H   0  0  0  0  0  0  0  0  0  0  0  0
  1  2  1  0
  2  3  1  0
  3  4  1  0
  4  5  2  0
  5  6  1  0
  6  7  1  0
  7  8  1  0
  8  9  1  0
  8  3  1  0
  1 10  1  0
  1 11  1  0
  1 12  1  0
  2 13  1  0
  2 14  1  0
  3 15  1  0
  4 16  1  0
  5 17  1  0
  6 18  1  0
  6 19  1  0
  7 20  1  0
  7 21  1  0
  8 22  1  0
  9 23  1  0
  9 24  1  0
  9 25  1  0
M  END
