
     RDKit          3D

 19 21  0  0  0  0  0  0  0  0999 V2000
    2.5191   -0.1400    0.1838 C   0  0  0  0  0  0  0  0  0  0  0  0
    1.2966    0.7141   -0.0020 C   0  0  0  0  0  0  0  0  0  0  0  0
    0.0776   -0.1067    0.2044 C   0  0  0  0  0  0  0  0  0  0  0  0
   -0.0783   -0.7038    1.4354 O   0  0  0  0  0  0  0  0  0  0  0  0
   -0.1507   -1.4414    0.2478 C   0  0  0  0  0  0  0  0  0  0  0  0
   -1.5103   -1.3014   -0.4253 C   0  0  0  0  0  0  0  0  0  0  0  0
   -1.5013   -0.7010   -1.6500 O   0  0  0  0  0  0  0  0  0  0  0  0
   -1.1196    0.1620   -0.6639 C   0  0  0  0  0  0  0  0  0  0  0  0
   -2.0459    1.2284   -0.1445 C   0  0  0  0  0  0  0  0  0  0  0  0
    3.4008    0.5054    0.0576 H   0  0  0  0  0  0  0  0  0  0  0  0
    2.5756   -0.5875    1.2063 H   0  0  0  0  0  0  0  0  0  0  0  0
    2.5178   -1.0052   -0.5149 H   0  0  0  0  0  0  0  0  0  0  0  0
    1.3552    1.1799   -0.9949 H   0  0  0  0  0  0  0  0  0  0  0  0
    1.3389    1.5214    0.7828 H   0  0  0  0  0  0  0  0  0  0  0  0
    0.4245   -2.3539    0.1229 H   0  0  0  0  0  0  0  0  0  0  0  0
   -2.4156   -1.5237    0.1315 H   0  0  0  0  0  0  0  0  0  0  0  0
   -3.0278    1.2375   -0.6329 H   0  0  0  0  0  0  0  0  0  0  0  0
   -2.1116    1.1132    0.9673 H   0  0  0  0  0  0  0  0  0  0  0  0
   -1.5451    2.2028   -0.3114 H   0  0  0  0  0  0  0  0  0  0  0  0
  1  2  1  0
  2  3  1  0
  3  4  1  0
  4  5  1  0
  5  6  1  0
  6  7  1  0
  7  8  1  0
  8  9  1  0
  5  3  1  0
  8  6  1  0
  8  3  1  0
  1 10  1  0
  1 11  1  0
  1 12  1  0
  2 13  1  0
  2 14  1  0
  5 15  1  0
  6 16  1  0
  9 17  1  0
  9 18  1  0
  9 19  1  0
M  END
