
     RDKit          3D

 21 22  0  0  0  0  0  0  0  0999 V2000
    2.5583   -0.0136   -0.3045 C   0  0  0  0  0  0  0  0  0  0  0  0
    1.3061    0.6936    0.1238 C   0  0  0  0  0  0  0  0  0  0  0  0
    0.2616   -0.3352    0.4169 C   0  0  0  0  0  0  0  0  0  0  0  0
   -1.0603    0.3152    0.8651 C   0  0  0  0  0  0  0  0  0  0  0  0
   -1.3624    1.1001   -0.3853 C   0  0  0  0  0  0  0  0  0  0  0  0
   -0.8301    0.3458   -1.4254 O   0  0  0  0  0  0  0  0  0  0  0  0
   -0.3909   -0.8694   -0.8733 C   0  0  0  0  0  0  0  0  0  0  0  0
   -1.4992   -1.5353   -0.4155 O   0  0  0  0  0  0  0  0  0  0  0  0
   -1.8992   -0.9474    0.7928 C   0  0  0  0  0  0  0  0  0  0  0  0
    2.5676   -0.1189   -1.4076 H   0  0  0  0  0  0  0  0  0  0  0  0
    2.5845   -1.0058    0.2041 H   0  0  0  0  0  0  0  0  0  0  0  0
    3.4270    0.5806    0.0063 H   0  0  0  0  0  0  0  0  0  0  0  0
    0.9297    1.4131   -0.6040 H   0  0  0  0  0  0  0  0  0  0  0  0
    1.5216    1.2342    1.0635 H   0  0  0  0  0  0  0  0  0  0  0  0
    0.5754   -1.1350    1.0812 H   0  0  0  0  0  0  0  0  0  0  0  0
   -1.0264    0.8265    1.7846 H   0  0  0  0  0  0  0  0  0  0  0  0
   -2.4853    1.1240   -0.4842 H   0  0  0  0  0  0  0  0  0  0  0  0
   -0.9967    2.1272   -0.3699 H   0  0  0  0  0  0  0  0  0  0  0  0
    0.2844   -1.4074   -1.4993 H   0  0  0  0  0  0  0  0  0  0  0  0
   -2.9685   -0.7698    0.8604 H   0  0  0  0  0  0  0  0  0  0  0  0
   -1.4970   -1.6226    1.5938 H   0  0  0  0  0  0  0  0  0  0  0  0
  1  2  1  0
  2  3  1  0
  3  4  1  0
  4  5  1  0
  5  6  1  0
  6  7  1  0
  7  8  1  0
  8  9  1  0
  7  3  1  0
  9  4  1  0
  1 10  1  0
  1 11  1  0
  1 12  1  0
  2 13  1  0
  2 14  1  0
  3 15  1  0
  4 16  1  0
  5 17  1  0
  5 18  1  0
  7 19  1  0
  9 20  1  0
  9 21  1  0
M  END
