
     RDKit          3D

 25 25  0  0  0  0  0  0  0  0999 V2000
    3.4208    0.1577    0.4624 C   0  0  0  0  0  0  0  0  0  0  0  0
    2.2831   -0.8679    0.5213 C   0  0  0  0  0  0  0  0  0  0  0  0
    1.1827   -0.3343   -0.3555 C   0  0  0  0  0  0  0  0  0  0  0  0
   -0.0492   -1.1999   -0.4417 C   0  0  0  0  0  0  0  0  0  0  0  0
   -0.8572    0.0832   -0.4302 C   0  0  0  0  0  0  0  0  0  0  0  0
   -2.1600   -0.0087    0.3023 C   0  0  0  0  0  0  0  0  0  0  0  0
   -2.8590    1.3187    0.2405 C   0  0  0  0  0  0  0  0  0  0  0  0
   -2.9672   -0.9279   -0.4050 O   0  0  0  0  0  0  0  0  0  0  0  0
    0.2899    0.6964    0.3401 C   0  0  0  0  0  0  0  0  0  0  0  0
    3.4283    0.5790   -0.5650 H   0  0  0  0  0  0  0  0  0  0  0  0
    4.3900   -0.2841    0.7060 H   0  0  0  0  0  0  0  0  0  0  0  0
    3.1219    0.9928    1.1407 H   0  0  0  0  0  0  0  0  0  0  0  0
    2.6816   -1.7889    0.0210 H   0  0  0  0  0  0  0  0  0  0  0  0
    1.9610   -1.0441    1.5557 H   0  0  0  0  0  0  0  0  0  0  0  0
    1.5319   -0.0409   -1.3432 H   0  0  0  0  0  0  0  0  0  0  0  0
   -0.2810   -1.7916    0.4464 H   0  0  0  0  0  0  0  0  0  0  0  0
   -0.1412   -1.7300   -1.4102 H   0  0  0  0  0  0  0  0  0  0  0  0
   -0.9701    0.5591   -1.4087 H   0  0  0  0  0  0  0  0  0  0  0  0
   -2.0631   -0.4049    1.3158 H   0  0  0  0  0  0  0  0  0  0  0  0
   -2.4000    2.0596    0.9250 H   0  0  0  0  0  0  0  0  0  0  0  0
   -2.7118    1.7241   -0.8002 H   0  0  0  0  0  0  0  0  0  0  0  0
   -3.9620    1.2337    0.3712 H   0  0  0  0  0  0  0  0  0  0  0  0
   -3.7462   -1.2079    0.1450 H   0  0  0  0  0  0  0  0  0  0  0  0
    0.5725    1.7145    0.0661 H   0  0  0  0  0  0  0  0  0  0  0  0
    0.3042    0.5123    1.4146 H   0  0  0  0  0  0  0  0  0  0  0  0
  1  2  1  0
  2  3  1  0
  3  4  1  0
  4  5  1  0
  5  6  1  0
  6  7  1  0
  6  8  1  0
  5  9  1  0
  9  3  1  0
  1 10  1  0
  1 11  1  0
  1 12  1  0
  2 13  1  0
  2 14  1  0
  3 15  1  0
  4 16  1  0
  4 17  1  0
  5 18  1  0
  6 19  1  0
  7 20  1  0
  7 21  1  0
  7 22  1  0
  8 23  1  0
  9 24  1  0
  9 25  1  0
M  END
