
     RDKit          3D

 23 24  0  0  0  0  0  0  0  0999 V2000
   -2.5700    0.3100   -0.6750 C   0  0  0  0  0  0  0  0  0  0  0  0
   -1.6020   -0.3472    0.2523 C   0  0  0  0  0  0  0  0  0  0  0  0
   -0.3845    0.5221    0.5459 C   0  0  0  0  0  0  0  0  0  0  0  0
    0.4984   -0.2483    1.4797 C   0  0  0  0  0  0  0  0  0  0  0  0
    1.3022   -1.3009    0.7090 C   0  0  0  0  0  0  0  0  0  0  0  0
    2.2073   -0.5252   -0.2201 C   0  0  0  0  0  0  0  0  0  0  0  0
    2.5270    0.8032    0.1657 O   0  0  0  0  0  0  0  0  0  0  0  0
    1.6257    0.4759   -0.9626 C   0  0  0  0  0  0  0  0  0  0  0  0
    0.2668    0.9864   -0.6984 C   0  0  0  0  0  0  0  0  0  0  0  0
   -2.4145    1.3820   -0.8152 H   0  0  0  0  0  0  0  0  0  0  0  0
   -2.6100   -0.2176   -1.6698 H   0  0  0  0  0  0  0  0  0  0  0  0
   -3.5956    0.1659   -0.2362 H   0  0  0  0  0  0  0  0  0  0  0  0
   -2.0416   -0.6351    1.2236 H   0  0  0  0  0  0  0  0  0  0  0  0
   -1.2112   -1.2684   -0.2469 H   0  0  0  0  0  0  0  0  0  0  0  0
   -0.7756    1.4041    1.1248 H   0  0  0  0  0  0  0  0  0  0  0  0
   -0.1038   -0.7259    2.2502 H   0  0  0  0  0  0  0  0  0  0  0  0
    1.2542    0.4575    1.8834 H   0  0  0  0  0  0  0  0  0  0  0  0
    0.6512   -2.0097    0.1878 H   0  0  0  0  0  0  0  0  0  0  0  0
    1.8718   -1.8768    1.4770 H   0  0  0  0  0  0  0  0  0  0  0  0
    3.0764   -1.0953   -0.5616 H   0  0  0  0  0  0  0  0  0  0  0  0
    2.0984    0.8902   -1.8876 H   0  0  0  0  0  0  0  0  0  0  0  0
    0.3144    2.1160   -0.7154 H   0  0  0  0  0  0  0  0  0  0  0  0
   -0.3849    0.7371   -1.5798 H   0  0  0  0  0  0  0  0  0  0  0  0
  1  2  1  0
  2  3  1  0
  3  4  1  0
  4  5  1  0
  5  6  1  0
  6  7  1  0
  7  8  1  0
  8  9  1  0
  9  3  1  0
  8  6  1  0
  1 10  1  0
  1 11  1  0
  1 12  1  0
  2 13  1  0
  2 14  1  0
  3 15  1  0
  4 16  1  0
  4 17  1  0
  5 18  1  0
  5 19  1  0
  6 20  1  0
  8 21  1  0
  9 22  1  0
  9 23  1  0
M  END
