
     RDKit          3D

 19 19  0  0  0  0  0  0  0  0999 V2000
    2.0703    0.3869    0.0086 C   0  0  0  0  0  0  0  0  0  0  0  0
    1.1939   -0.2796   -0.9774 C   0  0  0  0  0  0  0  0  0  0  0  0
   -0.2620   -0.1578   -0.8420 C   0  0  0  0  0  0  0  0  0  0  0  0
   -0.8212   -0.7123    0.5035 C   0  0  0  0  0  0  0  0  0  0  0  0
   -1.8843   -1.7365    0.3627 C   0  0  0  0  0  0  0  0  0  0  0  0
   -1.9306   -2.6833    1.1274 O   0  0  0  0  0  0  0  0  0  0  0  0
   -1.0605    0.7023    0.0003 C   0  0  0  0  0  0  0  0  0  0  0  0
   -0.6212    1.8296    0.8168 C   0  0  0  0  0  0  0  0  0  0  0  0
   -1.4325    2.7453    1.0439 O   0  0  0  0  0  0  0  0  0  0  0  0
    2.1975    1.4711   -0.1048 H   0  0  0  0  0  0  0  0  0  0  0  0
    3.1094   -0.0520   -0.1528 H   0  0  0  0  0  0  0  0  0  0  0  0
    1.8423    0.1701    1.0561 H   0  0  0  0  0  0  0  0  0  0  0  0
    1.4396   -1.3857   -0.9286 H   0  0  0  0  0  0  0  0  0  0  0  0
    1.4928    0.0112   -2.0082 H   0  0  0  0  0  0  0  0  0  0  0  0
   -0.7993   -0.5769   -1.7608 H   0  0  0  0  0  0  0  0  0  0  0  0
   -0.0901   -0.8458    1.3156 H   0  0  0  0  0  0  0  0  0  0  0  0
   -2.6432   -1.6843   -0.4070 H   0  0  0  0  0  0  0  0  0  0  0  0
   -2.1500    0.8125   -0.3227 H   0  0  0  0  0  0  0  0  0  0  0  0
    0.3492    1.9852    1.2697 H   0  0  0  0  0  0  0  0  0  0  0  0
  1  2  1  0
  2  3  1  0
  3  4  1  0
  4  5  1  0
  5  6  2  0
  4  7  1  0
  7  8  1  0
  8  9  2  0
  7  3  1  0
  1 10  1  0
  1 11  1  0
  1 12  1  0
  2 13  1  0
  2 14  1  0
  3 15  1  0
  4 16  1  0
  5 17  1  0
  7 18  1  0
  8 19  1  0
M  END
