
     RDKit          3D

 25 25  0  0  0  0  0  0  0  0999 V2000
    3.1242    0.2459    0.0996 C   0  0  0  0  0  0  0  0  0  0  0  0
    1.9113   -0.6854    0.0526 C   0  0  0  0  0  0  0  0  0  0  0  0
    0.7734    0.1140   -0.5169 C   0  0  0  0  0  0  0  0  0  0  0  0
    0.4449    1.3024    0.2994 C   0  0  0  0  0  0  0  0  0  0  0  0
   -0.8457    1.5655    0.1563 C   0  0  0  0  0  0  0  0  0  0  0  0
   -1.4825    0.5615   -0.7751 C   0  0  0  0  0  0  0  0  0  0  0  0
   -2.8439    0.2152   -0.2693 C   0  0  0  0  0  0  0  0  0  0  0  0
   -0.5086   -0.6227   -0.6311 C   0  0  0  0  0  0  0  0  0  0  0  0
   -0.8794   -1.4475    0.5601 C   0  0  0  0  0  0  0  0  0  0  0  0
    2.9369    1.1929   -0.4435 H   0  0  0  0  0  0  0  0  0  0  0  0
    3.9610   -0.2527   -0.4578 H   0  0  0  0  0  0  0  0  0  0  0  0
    3.4054    0.5021    1.1289 H   0  0  0  0  0  0  0  0  0  0  0  0
    2.0781   -1.5630   -0.5749 H   0  0  0  0  0  0  0  0  0  0  0  0
    1.7414   -1.0184    1.0840 H   0  0  0  0  0  0  0  0  0  0  0  0
    1.0711    0.4543   -1.5320 H   0  0  0  0  0  0  0  0  0  0  0  0
    1.1488    1.8823    0.9274 H   0  0  0  0  0  0  0  0  0  0  0  0
   -1.3651    2.3869    0.6419 H   0  0  0  0  0  0  0  0  0  0  0  0
   -1.4639    0.9570   -1.7973 H   0  0  0  0  0  0  0  0  0  0  0  0
   -2.9726    0.6179    0.7708 H   0  0  0  0  0  0  0  0  0  0  0  0
   -3.6118    0.7690   -0.8829 H   0  0  0  0  0  0  0  0  0  0  0  0
   -3.0557   -0.8720   -0.2872 H   0  0  0  0  0  0  0  0  0  0  0  0
   -0.6060   -1.2167   -1.5720 H   0  0  0  0  0  0  0  0  0  0  0  0
   -1.3169   -0.8331    1.3835 H   0  0  0  0  0  0  0  0  0  0  0  0
   -1.6163   -2.2307    0.2150 H   0  0  0  0  0  0  0  0  0  0  0  0
   -0.0283   -2.0248    0.9749 H   0  0  0  0  0  0  0  0  0  0  0  0
  1  2  1  0
  2  3  1  0
  3  4  1  0
  4  5  2  0
  5  6  1  0
  6  7  1  0
  6  8  1  0
  8  9  1  0
  8  3  1  0
  1 10  1  0
  1 11  1  0
  1 12  1  0
  2 13  1  0
  2 14  1  0
  3 15  1  0
  4 16  1  0
  5 17  1  0
  6 18  1  0
  7 19  1  0
  7 20  1  0
  7 21  1  0
  8 22  1  0
  9 23  1  0
  9 24  1  0
  9 25  1  0
M  END
