
     RDKit          3D

 22 23  0  0  0  0  0  0  0  0999 V2000
    2.1093   -0.1947   -0.3414 C   0  0  0  0  0  0  0  0  0  0  0  0
    1.1549    0.2474   -1.3926 C   0  0  0  0  0  0  0  0  0  0  0  0
   -0.2057    0.6025   -0.8882 C   0  0  0  0  0  0  0  0  0  0  0  0
   -0.2450    1.7366    0.1290 C   0  0  0  0  0  0  0  0  0  0  0  0
   -0.7156    0.7389    1.1986 C   0  0  0  0  0  0  0  0  0  0  0  0
   -0.7842   -0.2808    0.1381 C   0  0  0  0  0  0  0  0  0  0  0  0
   -1.9617   -1.1451   -0.0951 C   0  0  0  0  0  0  0  0  0  0  0  0
   -0.6099   -1.7008    0.2767 C   0  0  0  0  0  0  0  0  0  0  0  0
    2.6858    0.6363    0.1108 H   0  0  0  0  0  0  0  0  0  0  0  0
    1.6812   -0.8096    0.4517 H   0  0  0  0  0  0  0  0  0  0  0  0
    2.8865   -0.8397   -0.8485 H   0  0  0  0  0  0  0  0  0  0  0  0
    1.5786    1.1569   -1.8865 H   0  0  0  0  0  0  0  0  0  0  0  0
    1.0531   -0.5279   -2.1545 H   0  0  0  0  0  0  0  0  0  0  0  0
   -0.8838    0.8130   -1.7523 H   0  0  0  0  0  0  0  0  0  0  0  0
    0.7214    2.1782    0.3738 H   0  0  0  0  0  0  0  0  0  0  0  0
   -1.0366    2.4934   -0.0872 H   0  0  0  0  0  0  0  0  0  0  0  0
   -1.7356    1.0000    1.5880 H   0  0  0  0  0  0  0  0  0  0  0  0
    0.0057    0.6103    2.0198 H   0  0  0  0  0  0  0  0  0  0  0  0
   -2.2984   -1.1969   -1.1569 H   0  0  0  0  0  0  0  0  0  0  0  0
   -2.7533   -1.0579    0.6816 H   0  0  0  0  0  0  0  0  0  0  0  0
   -0.5812   -2.1494    1.3104 H   0  0  0  0  0  0  0  0  0  0  0  0
   -0.0654   -2.3105   -0.4881 H   0  0  0  0  0  0  0  0  0  0  0  0
  1  2  1  0
  2  3  1  0
  3  4  1  0
  4  5  1  0
  5  6  1  0
  6  7  1  0
  7  8  1  0
  6  3  1  0
  8  6  1  0
  1  9  1  0
  1 10  1  0
  1 11  1  0
  2 12  1  0
  2 13  1  0
  3 14  1  0
  4 15  1  0
  4 16  1  0
  5 17  1  0
  5 18  1  0
  7 19  1  0
  7 20  1  0
  8 21  1  0
  8 22  1  0
M  END
