
     RDKit          3D

 23 23  0  0  0  0  0  0  0  0999 V2000
    2.0287    0.9624    0.9688 C   0  0  0  0  0  0  0  0  0  0  0  0
    1.5975   -0.3340    0.3934 C   0  0  0  0  0  0  0  0  0  0  0  0
    0.5972   -0.2671   -0.6972 C   0  0  0  0  0  0  0  0  0  0  0  0
    0.2430   -1.6534   -1.1953 C   0  0  0  0  0  0  0  0  0  0  0  0
   -1.0578   -1.2114   -1.3531 O   0  0  0  0  0  0  0  0  0  0  0  0
   -0.8426   -0.1994   -0.3997 C   0  0  0  0  0  0  0  0  0  0  0  0
   -1.3397   -0.6643    0.9253 C   0  0  0  0  0  0  0  0  0  0  0  0
   -1.5591    1.0576   -0.8788 C   0  0  0  0  0  0  0  0  0  0  0  0
   -1.3944    2.1089    0.0121 O   0  0  0  0  0  0  0  0  0  0  0  0
    2.0165    1.8175    0.2720 H   0  0  0  0  0  0  0  0  0  0  0  0
    3.0754    0.8690    1.3377 H   0  0  0  0  0  0  0  0  0  0  0  0
    1.4200    1.1676    1.8962 H   0  0  0  0  0  0  0  0  0  0  0  0
    1.2679   -0.9965    1.2205 H   0  0  0  0  0  0  0  0  0  0  0  0
    2.5191   -0.8390   -0.0249 H   0  0  0  0  0  0  0  0  0  0  0  0
    0.8775    0.4205   -1.5195 H   0  0  0  0  0  0  0  0  0  0  0  0
    0.3515   -2.4114   -0.3864 H   0  0  0  0  0  0  0  0  0  0  0  0
    0.7631   -1.9274   -2.1477 H   0  0  0  0  0  0  0  0  0  0  0  0
   -2.4423   -0.4216    0.9592 H   0  0  0  0  0  0  0  0  0  0  0  0
   -1.2720   -1.7542    1.0557 H   0  0  0  0  0  0  0  0  0  0  0  0
   -0.9087   -0.1081    1.7902 H   0  0  0  0  0  0  0  0  0  0  0  0
   -2.6452    0.8967   -1.0036 H   0  0  0  0  0  0  0  0  0  0  0  0
   -1.1640    1.3578   -1.8708 H   0  0  0  0  0  0  0  0  0  0  0  0
   -2.1318    2.1299    0.6460 H   0  0  0  0  0  0  0  0  0  0  0  0
  1  2  1  0
  2  3  1  0
  3  4  1  0
  4  5  1  0
  5  6  1  0
  6  7  1  0
  6  8  1  0
  8  9  1  0
  6  3  1  0
  1 10  1  0
  1 11  1  0
  1 12  1  0
  2 13  1  0
  2 14  1  0
  3 15  1  0
  4 16  1  0
  4 17  1  0
  7 18  1  0
  7 19  1  0
  7 20  1  0
  8 21  1  0
  8 22  1  0
  9 23  1  0
M  END
