
     RDKit          3D

 19 20  0  0  0  0  0  0  0  0999 V2000
    2.4121   -0.3192    0.0729 C   0  0  0  0  0  0  0  0  0  0  0  0
    1.3759    0.7264   -0.1685 C   0  0  0  0  0  0  0  0  0  0  0  0
    0.1587    0.0832   -0.7483 C   0  0  0  0  0  0  0  0  0  0  0  0
   -0.9287    1.1019   -1.0140 C   0  0  0  0  0  0  0  0  0  0  0  0
   -0.9481    2.0630   -1.7162 O   0  0  0  0  0  0  0  0  0  0  0  0
   -1.9980    0.5574   -0.1319 C   0  0  0  0  0  0  0  0  0  0  0  0
   -1.9252   -0.9386   -0.3519 C   0  0  0  0  0  0  0  0  0  0  0  0
   -0.6111   -0.6707    0.3243 C   0  0  0  0  0  0  0  0  0  0  0  0
   -1.2963    0.3342    1.0470 O   0  0  0  0  0  0  0  0  0  0  0  0
    2.1121   -1.3113   -0.3487 H   0  0  0  0  0  0  0  0  0  0  0  0
    3.3991   -0.0907   -0.3620 H   0  0  0  0  0  0  0  0  0  0  0  0
    2.5512   -0.5095    1.1703 H   0  0  0  0  0  0  0  0  0  0  0  0
    1.1030    1.2053    0.7819 H   0  0  0  0  0  0  0  0  0  0  0  0
    1.7945    1.4786   -0.8684 H   0  0  0  0  0  0  0  0  0  0  0  0
    0.3300   -0.5570   -1.6096 H   0  0  0  0  0  0  0  0  0  0  0  0
   -2.9448    1.0330   -0.1039 H   0  0  0  0  0  0  0  0  0  0  0  0
   -1.8632   -1.2573   -1.4091 H   0  0  0  0  0  0  0  0  0  0  0  0
   -2.5997   -1.4953    0.3026 H   0  0  0  0  0  0  0  0  0  0  0  0
   -0.1215   -1.4335    0.8715 H   0  0  0  0  0  0  0  0  0  0  0  0
  1  2  1  0
  2  3  1  0
  3  4  1  0
  4  5  2  0
  4  6  1  0
  6  7  1  0
  7  8  1  0
  8  9  1  0
  8  3  1  0
  9  6  1  0
  1 10  1  0
  1 11  1  0
  1 12  1  0
  2 13  1  0
  2 14  1  0
  3 15  1  0
  6 16  1  0
  7 17  1  0
  7 18  1  0
  8 19  1  0
M  END
