
     RDKit          3D

 21 22  0  0  0  0  0  0  0  0999 V2000
    2.1762    0.6151   -0.5465 C   0  0  0  0  0  0  0  0  0  0  0  0
    1.1427    0.6941    0.5123 C   0  0  0  0  0  0  0  0  0  0  0  0
   -0.0390   -0.1900    0.3216 C   0  0  0  0  0  0  0  0  0  0  0  0
   -1.0881   -0.1036    1.4055 C   0  0  0  0  0  0  0  0  0  0  0  0
   -2.3279   -0.1955    0.7610 O   0  0  0  0  0  0  0  0  0  0  0  0
   -2.1528    0.4306   -0.4874 C   0  0  0  0  0  0  0  0  0  0  0  0
   -0.8068   -0.0910   -0.9352 C   0  0  0  0  0  0  0  0  0  0  0  0
   -0.8625   -1.5026   -0.9852 O   0  0  0  0  0  0  0  0  0  0  0  0
    0.2513   -1.5920   -0.1505 C   0  0  0  0  0  0  0  0  0  0  0  0
    2.9162    1.4268   -0.3756 H   0  0  0  0  0  0  0  0  0  0  0  0
    2.7524   -0.3484   -0.4991 H   0  0  0  0  0  0  0  0  0  0  0  0
    1.7778    0.7807   -1.5698 H   0  0  0  0  0  0  0  0  0  0  0  0
    0.7843    1.7463    0.5855 H   0  0  0  0  0  0  0  0  0  0  0  0
    1.6094    0.4595    1.4847 H   0  0  0  0  0  0  0  0  0  0  0  0
   -1.0200    0.9076    1.8760 H   0  0  0  0  0  0  0  0  0  0  0  0
   -1.0071   -0.9226    2.1377 H   0  0  0  0  0  0  0  0  0  0  0  0
   -2.9077   -0.0087   -1.1798 H   0  0  0  0  0  0  0  0  0  0  0  0
   -2.1976    1.5157   -0.4295 H   0  0  0  0  0  0  0  0  0  0  0  0
   -0.3568    0.3776   -1.8033 H   0  0  0  0  0  0  0  0  0  0  0  0
    0.1815   -2.3728    0.6427 H   0  0  0  0  0  0  0  0  0  0  0  0
    1.1746   -1.6267   -0.7651 H   0  0  0  0  0  0  0  0  0  0  0  0
  1  2  1  0
  2  3  1  0
  3  4  1  0
  4  5  1  0
  5  6  1  0
  6  7  1  0
  7  8  1  0
  8  9  1  0
  7  3  1  0
  9  3  1  0
  1 10  1  0
  1 11  1  0
  1 12  1  0
  2 13  1  0
  2 14  1  0
  4 15  1  0
  4 16  1  0
  6 17  1  0
  6 18  1  0
  7 19  1  0
  9 20  1  0
  9 21  1  0
M  END
