
     RDKit          3D

 23 24  0  0  0  0  0  0  0  0999 V2000
    2.5511   -0.4596    0.3058 C   0  0  0  0  0  0  0  0  0  0  0  0
    1.6012    0.6625    0.5094 C   0  0  0  0  0  0  0  0  0  0  0  0
    0.1723    0.3191    0.3578 C   0  0  0  0  0  0  0  0  0  0  0  0
   -0.8103    1.4521    0.5627 C   0  0  0  0  0  0  0  0  0  0  0  0
   -2.0595    0.9683    0.9132 O   0  0  0  0  0  0  0  0  0  0  0  0
   -2.4251    0.0017   -0.0190 C   0  0  0  0  0  0  0  0  0  0  0  0
   -1.3162   -0.9875   -0.2338 C   0  0  0  0  0  0  0  0  0  0  0  0
   -0.3317   -0.9548    0.9473 C   0  0  0  0  0  0  0  0  0  0  0  0
   -0.1774   -0.2927   -0.9987 C   0  0  0  0  0  0  0  0  0  0  0  0
    3.5810   -0.1204    0.5501 H   0  0  0  0  0  0  0  0  0  0  0  0
    2.3360   -1.3614    0.9057 H   0  0  0  0  0  0  0  0  0  0  0  0
    2.5447   -0.7499   -0.7850 H   0  0  0  0  0  0  0  0  0  0  0  0
    1.7631    1.1385    1.4973 H   0  0  0  0  0  0  0  0  0  0  0  0
    1.8745    1.4609   -0.2408 H   0  0  0  0  0  0  0  0  0  0  0  0
   -0.4180    2.1975    1.2801 H   0  0  0  0  0  0  0  0  0  0  0  0
   -0.9126    1.9707   -0.4137 H   0  0  0  0  0  0  0  0  0  0  0  0
   -3.3011   -0.5296    0.4063 H   0  0  0  0  0  0  0  0  0  0  0  0
   -2.7047    0.4472   -0.9960 H   0  0  0  0  0  0  0  0  0  0  0  0
   -1.5750   -1.9750   -0.5933 H   0  0  0  0  0  0  0  0  0  0  0  0
    0.3509   -1.7963    0.8414 H   0  0  0  0  0  0  0  0  0  0  0  0
   -0.8352   -0.8770    1.9311 H   0  0  0  0  0  0  0  0  0  0  0  0
    0.5934   -0.9932   -1.3097 H   0  0  0  0  0  0  0  0  0  0  0  0
   -0.5015    0.4788   -1.6892 H   0  0  0  0  0  0  0  0  0  0  0  0
  1  2  1  0
  2  3  1  0
  3  4  1  0
  4  5  1  0
  5  6  1  0
  6  7  1  0
  7  8  1  0
  7  9  1  0
  8  3  1  0
  9  3  1  0
  1 10  1  0
  1 11  1  0
  1 12  1  0
  2 13  1  0
  2 14  1  0
  4 15  1  0
  4 16  1  0
  6 17  1  0
  6 18  1  0
  7 19  1  0
  8 20  1  0
  8 21  1  0
  9 22  1  0
  9 23  1  0
M  END
