
     RDKit          3D

 23 25  0  0  0  0  0  0  0  0999 V2000
    2.3864    0.8622    0.2215 C   0  0  0  0  0  0  0  0  0  0  0  0
    1.6207   -0.0640   -0.7151 C   0  0  0  0  0  0  0  0  0  0  0  0
    0.2501   -0.1929   -0.2644 C   0  0  0  0  0  0  0  0  0  0  0  0
    0.0809   -0.7697    1.1518 C   0  0  0  0  0  0  0  0  0  0  0  0
   -1.3202   -1.0940    0.6131 C   0  0  0  0  0  0  0  0  0  0  0  0
   -0.5735   -1.3858   -0.6951 C   0  0  0  0  0  0  0  0  0  0  0  0
   -1.8943    0.2821    0.4773 C   0  0  0  0  0  0  0  0  0  0  0  0
   -2.0154    0.9692   -0.8183 C   0  0  0  0  0  0  0  0  0  0  0  0
   -0.6666    0.9702   -0.2252 C   0  0  0  0  0  0  0  0  0  0  0  0
    1.8907    0.9723    1.1934 H   0  0  0  0  0  0  0  0  0  0  0  0
    2.5348    1.8467   -0.2621 H   0  0  0  0  0  0  0  0  0  0  0  0
    3.4112    0.4688    0.4256 H   0  0  0  0  0  0  0  0  0  0  0  0
    1.6956    0.3033   -1.7352 H   0  0  0  0  0  0  0  0  0  0  0  0
    2.1347   -1.0445   -0.6554 H   0  0  0  0  0  0  0  0  0  0  0  0
    0.7222   -1.6364    1.3029 H   0  0  0  0  0  0  0  0  0  0  0  0
    0.0085   -0.0244    1.9385 H   0  0  0  0  0  0  0  0  0  0  0  0
   -1.8583   -1.8784    1.0685 H   0  0  0  0  0  0  0  0  0  0  0  0
   -1.1595   -1.2855   -1.6023 H   0  0  0  0  0  0  0  0  0  0  0  0
    0.0257   -2.3059   -0.5709 H   0  0  0  0  0  0  0  0  0  0  0  0
   -2.1783    0.7614    1.4186 H   0  0  0  0  0  0  0  0  0  0  0  0
   -2.2665    0.4190   -1.7473 H   0  0  0  0  0  0  0  0  0  0  0  0
   -2.5459    1.9541   -0.7740 H   0  0  0  0  0  0  0  0  0  0  0  0
   -0.2831    1.8723    0.2539 H   0  0  0  0  0  0  0  0  0  0  0  0
  1  2  1  0
  2  3  1  0
  3  4  1  0
  4  5  1  0
  5  6  1  0
  5  7  1  0
  7  8  1  0
  8  9  1  0
  6  3  1  0
  9  7  1  0
  9  3  1  0
  1 10  1  0
  1 11  1  0
  1 12  1  0
  2 13  1  0
  2 14  1  0
  4 15  1  0
  4 16  1  0
  5 17  1  0
  6 18  1  0
  6 19  1  0
  7 20  1  0
  8 21  1  0
  8 22  1  0
  9 23  1  0
M  END
