
     RDKit          3D

 19 20  0  0  0  0  0  0  0  0999 V2000
    1.8372    0.8417   -0.2633 C   0  0  0  0  0  0  0  0  0  0  0  0
    1.2150   -0.5085   -0.1048 C   0  0  0  0  0  0  0  0  0  0  0  0
   -0.2947   -0.4476   -0.0164 C   0  0  0  0  0  0  0  0  0  0  0  0
   -0.9410   -1.7785    0.1418 C   0  0  0  0  0  0  0  0  0  0  0  0
   -0.6749    0.4465    1.1267 C   0  0  0  0  0  0  0  0  0  0  0  0
   -0.5820    0.2482    2.3332 O   0  0  0  0  0  0  0  0  0  0  0  0
   -1.1373    1.5029    0.2126 C   0  0  0  0  0  0  0  0  0  0  0  0
   -0.4259    1.7978   -0.9377 O   0  0  0  0  0  0  0  0  0  0  0  0
   -0.9426    0.5250   -0.9377 C   0  0  0  0  0  0  0  0  0  0  0  0
    2.9341    0.7244   -0.0271 H   0  0  0  0  0  0  0  0  0  0  0  0
    1.8038    1.2105   -1.3224 H   0  0  0  0  0  0  0  0  0  0  0  0
    1.4451    1.5949    0.4482 H   0  0  0  0  0  0  0  0  0  0  0  0
    1.6604   -0.9861    0.7854 H   0  0  0  0  0  0  0  0  0  0  0  0
    1.4553   -1.1260   -0.9917 H   0  0  0  0  0  0  0  0  0  0  0  0
   -0.7782   -2.4628   -0.7142 H   0  0  0  0  0  0  0  0  0  0  0  0
   -0.5538   -2.2266    1.0968 H   0  0  0  0  0  0  0  0  0  0  0  0
   -2.0366   -1.6352    0.2901 H   0  0  0  0  0  0  0  0  0  0  0  0
   -2.1035    1.9951    0.3398 H   0  0  0  0  0  0  0  0  0  0  0  0
   -1.8803    0.2840   -1.4594 H   0  0  0  0  0  0  0  0  0  0  0  0
  1  2  1  0
  2  3  1  0
  3  4  1  0
  3  5  1  0
  5  6  2  0
  5  7  1  0
  7  8  1  0
  8  9  1  0
  9  3  1  0
  9  7  1  0
  1 10  1  0
  1 11  1  0
  1 12  1  0
  2 13  1  0
  2 14  1  0
  4 15  1  0
  4 16  1  0
  4 17  1  0
  7 18  1  0
  9 19  1  0
M  END
