
     RDKit          3D

 17 17  0  0  0  0  0  0  0  0999 V2000
   -1.8661    0.9536   -0.1856 C   0  0  0  0  0  0  0  0  0  0  0  0
   -0.3414    0.8894   -0.1616 C   0  0  0  0  0  0  0  0  0  0  0  0
    0.1504   -0.4957    0.0593 C   0  0  0  0  0  0  0  0  0  0  0  0
    1.6184   -0.6832    0.1056 C   0  0  0  0  0  0  0  0  0  0  0  0
    2.1140   -1.8514    0.2781 O   0  0  0  0  0  0  0  0  0  0  0  0
    2.4967    0.4495   -0.0429 C   0  0  0  0  0  0  0  0  0  0  0  0
    2.0890    1.6108   -0.2077 O   0  0  0  0  0  0  0  0  0  0  0  0
   -0.6843   -1.5914    0.4642 C   0  0  0  0  0  0  0  0  0  0  0  0
   -0.4518   -1.4750   -0.8865 O   0  0  0  0  0  0  0  0  0  0  0  0
   -2.2204    1.9916   -0.3453 H   0  0  0  0  0  0  0  0  0  0  0  0
   -2.2157    0.3326   -1.0417 H   0  0  0  0  0  0  0  0  0  0  0  0
   -2.3091    0.5884    0.7413 H   0  0  0  0  0  0  0  0  0  0  0  0
   -0.0460    1.5996    0.6308 H   0  0  0  0  0  0  0  0  0  0  0  0
    0.0312    1.3000   -1.1235 H   0  0  0  0  0  0  0  0  0  0  0  0
    3.5687    0.2715   -0.0079 H   0  0  0  0  0  0  0  0  0  0  0  0
   -1.7339   -1.4082    0.7979 H   0  0  0  0  0  0  0  0  0  0  0  0
   -0.1998   -2.4821    0.9255 H   0  0  0  0  0  0  0  0  0  0  0  0
  1  2  1  0
  2  3  1  0
  3  4  1  0
  4  5  2  0
  4  6  1  0
  6  7  2  0
  3  8  1  0
  8  9  1  0
  9  3  1  0
  1 10  1  0
  1 11  1  0
  1 12  1  0
  2 13  1  0
  2 14  1  0
  6 15  1  0
  8 16  1  0
  8 17  1  0
M  END
