
     RDKit          3D

 21 21  0  0  0  0  0  0  0  0999 V2000
    2.8219    0.0933   -0.2368 C   0  0  0  0  0  0  0  0  0  0  0  0
    1.7272   -0.9118   -0.1394 C   0  0  0  0  0  0  0  0  0  0  0  0
    0.4199   -0.2083   -0.1011 C   0  0  0  0  0  0  0  0  0  0  0  0
    0.2500    1.1006   -0.1460 C   0  0  0  0  0  0  0  0  0  0  0  0
   -1.2007    1.4000   -0.0841 C   0  0  0  0  0  0  0  0  0  0  0  0
   -1.7002    0.2023    0.6980 C   0  0  0  0  0  0  0  0  0  0  0  0
   -3.0576    0.0327    0.6355 O   0  0  0  0  0  0  0  0  0  0  0  0
   -0.9216   -0.8980   -0.0012 C   0  0  0  0  0  0  0  0  0  0  0  0
   -1.3685   -1.1341   -1.2760 O   0  0  0  0  0  0  0  0  0  0  0  0
    2.9088    0.6020    0.7498 H   0  0  0  0  0  0  0  0  0  0  0  0
    3.7905   -0.4001   -0.4888 H   0  0  0  0  0  0  0  0  0  0  0  0
    2.6032    0.7851   -1.0652 H   0  0  0  0  0  0  0  0  0  0  0  0
    1.7531   -1.6627   -0.9713 H   0  0  0  0  0  0  0  0  0  0  0  0
    1.7839   -1.5026    0.8199 H   0  0  0  0  0  0  0  0  0  0  0  0
    1.0609    1.8158   -0.2167 H   0  0  0  0  0  0  0  0  0  0  0  0
   -1.4285    2.3499    0.4218 H   0  0  0  0  0  0  0  0  0  0  0  0
   -1.6653    1.3225   -1.0958 H   0  0  0  0  0  0  0  0  0  0  0  0
   -1.2922    0.2912    1.7153 H   0  0  0  0  0  0  0  0  0  0  0  0
   -3.3644   -0.3127    1.5066 H   0  0  0  0  0  0  0  0  0  0  0  0
   -0.7818   -1.7726    0.6267 H   0  0  0  0  0  0  0  0  0  0  0  0
   -2.3385   -1.1925   -1.3514 H   0  0  0  0  0  0  0  0  0  0  0  0
  1  2  1  0
  2  3  1  0
  3  4  2  0
  4  5  1  0
  5  6  1  0
  6  7  1  0
  6  8  1  0
  8  9  1  0
  8  3  1  0
  1 10  1  0
  1 11  1  0
  1 12  1  0
  2 13  1  0
  2 14  1  0
  4 15  1  0
  5 16  1  0
  5 17  1  0
  6 18  1  0
  7 19  1  0
  8 20  1  0
  9 21  1  0
M  END
