
     RDKit          3D

 23 23  0  0  0  0  0  0  0  0999 V2000
    2.8008   -0.6780   -0.2267 C   0  0  0  0  0  0  0  0  0  0  0  0
    1.3465   -1.0344    0.0191 C   0  0  0  0  0  0  0  0  0  0  0  0
    0.5177    0.2033    0.2437 C   0  0  0  0  0  0  0  0  0  0  0  0
    0.5501    1.1600   -0.9556 C   0  0  0  0  0  0  0  0  0  0  0  0
   -0.9256    1.4305   -0.6448 C   0  0  0  0  0  0  0  0  0  0  0  0
   -1.0835    2.3357    0.4072 O   0  0  0  0  0  0  0  0  0  0  0  0
   -0.9674    0.0174   -0.0802 C   0  0  0  0  0  0  0  0  0  0  0  0
   -1.7548   -0.0897    1.0384 O   0  0  0  0  0  0  0  0  0  0  0  0
   -2.6076   -1.1867    1.0093 C   0  0  0  0  0  0  0  0  0  0  0  0
    3.4719   -1.2916    0.4034 H   0  0  0  0  0  0  0  0  0  0  0  0
    3.0751   -0.9146   -1.2929 H   0  0  0  0  0  0  0  0  0  0  0  0
    3.0047    0.3830    0.0082 H   0  0  0  0  0  0  0  0  0  0  0  0
    1.2395   -1.6692    0.9168 H   0  0  0  0  0  0  0  0  0  0  0  0
    0.9632   -1.5910   -0.8411 H   0  0  0  0  0  0  0  0  0  0  0  0
    0.6197    0.6938    1.2108 H   0  0  0  0  0  0  0  0  0  0  0  0
    0.6643    0.5602   -1.8680 H   0  0  0  0  0  0  0  0  0  0  0  0
    1.2155    2.0125   -0.8180 H   0  0  0  0  0  0  0  0  0  0  0  0
   -1.5469    1.6052   -1.5299 H   0  0  0  0  0  0  0  0  0  0  0  0
   -0.9644    3.2710    0.1321 H   0  0  0  0  0  0  0  0  0  0  0  0
   -1.0942   -0.7570   -0.8576 H   0  0  0  0  0  0  0  0  0  0  0  0
   -2.0094   -2.1132    0.9324 H   0  0  0  0  0  0  0  0  0  0  0  0
   -3.3617   -1.1227    0.1957 H   0  0  0  0  0  0  0  0  0  0  0  0
   -3.1535   -1.2245    1.9706 H   0  0  0  0  0  0  0  0  0  0  0  0
  1  2  1  0
  2  3  1  0
  3  4  1  0
  4  5  1  0
  5  6  1  0
  5  7  1  0
  7  8  1  0
  8  9  1  0
  7  3  1  0
  1 10  1  0
  1 11  1  0
  1 12  1  0
  2 13  1  0
  2 14  1  0
  3 15  1  0
  4 16  1  0
  4 17  1  0
  5 18  1  0
  6 19  1  0
  7 20  1  0
  9 21  1  0
  9 22  1  0
  9 23  1  0
M  END
