
     RDKit          3D

 25 25  0  0  0  0  0  0  0  0999 V2000
   -2.2711   -1.2870   -0.2367 C   0  0  0  0  0  0  0  0  0  0  0  0
   -0.7688   -1.3989   -0.2780 C   0  0  0  0  0  0  0  0  0  0  0  0
   -0.2020   -0.1861    0.4155 C   0  0  0  0  0  0  0  0  0  0  0  0
   -0.5701    1.1514   -0.1896 C   0  0  0  0  0  0  0  0  0  0  0  0
   -1.6110    1.9446    0.5560 C   0  0  0  0  0  0  0  0  0  0  0  0
    0.8709    1.5550    0.1694 C   0  0  0  0  0  0  0  0  0  0  0  0
    1.2136    0.1055   -0.1111 C   0  0  0  0  0  0  0  0  0  0  0  0
    2.2246   -0.4179    0.6741 O   0  0  0  0  0  0  0  0  0  0  0  0
    3.0490   -1.1865   -0.1605 C   0  0  0  0  0  0  0  0  0  0  0  0
   -2.5402   -1.0177    0.8117 H   0  0  0  0  0  0  0  0  0  0  0  0
   -2.6055   -0.4353   -0.8654 H   0  0  0  0  0  0  0  0  0  0  0  0
   -2.7756   -2.2266   -0.5400 H   0  0  0  0  0  0  0  0  0  0  0  0
   -0.3677   -1.5288   -1.2876 H   0  0  0  0  0  0  0  0  0  0  0  0
   -0.4996   -2.2747    0.3600 H   0  0  0  0  0  0  0  0  0  0  0  0
   -0.2603   -0.1968    1.5086 H   0  0  0  0  0  0  0  0  0  0  0  0
   -0.6551    1.1413   -1.2820 H   0  0  0  0  0  0  0  0  0  0  0  0
   -1.2264    2.3133    1.5278 H   0  0  0  0  0  0  0  0  0  0  0  0
   -1.8711    2.8129   -0.0844 H   0  0  0  0  0  0  0  0  0  0  0  0
   -2.5496    1.3758    0.7023 H   0  0  0  0  0  0  0  0  0  0  0  0
    1.3199    2.2632   -0.5392 H   0  0  0  0  0  0  0  0  0  0  0  0
    1.0137    1.7643    1.2424 H   0  0  0  0  0  0  0  0  0  0  0  0
    1.2520   -0.1666   -1.1705 H   0  0  0  0  0  0  0  0  0  0  0  0
    3.8930   -1.6395    0.4256 H   0  0  0  0  0  0  0  0  0  0  0  0
    2.4896   -1.9702   -0.6953 H   0  0  0  0  0  0  0  0  0  0  0  0
    3.4480   -0.4946   -0.9531 H   0  0  0  0  0  0  0  0  0  0  0  0
  1  2  1  0
  2  3  1  0
  3  4  1  0
  4  5  1  0
  4  6  1  0
  6  7  1  0
  7  8  1  0
  8  9  1  0
  7  3  1  0
  1 10  1  0
  1 11  1  0
  1 12  1  0
  2 13  1  0
  2 14  1  0
  3 15  1  0
  4 16  1  0
  5 17  1  0
  5 18  1  0
  5 19  1  0
  6 20  1  0
  6 21  1  0
  7 22  1  0
  9 23  1  0
  9 24  1  0
  9 25  1  0
M  END
