
     RDKit          3D

 23 23  0  0  0  0  0  0  0  0999 V2000
   -2.6218    1.4962    0.1916 C   0  0  0  0  0  0  0  0  0  0  0  0
   -2.3264    0.0274   -0.0203 C   0  0  0  0  0  0  0  0  0  0  0  0
   -0.8768   -0.1029   -0.4342 C   0  0  0  0  0  0  0  0  0  0  0  0
   -0.4665   -1.5189   -0.6733 C   0  0  0  0  0  0  0  0  0  0  0  0
    0.9342   -1.5840   -0.0514 C   0  0  0  0  0  0  0  0  0  0  0  0
    1.1982   -0.0900    0.1542 C   0  0  0  0  0  0  0  0  0  0  0  0
    2.2197    0.1316    1.0417 O   0  0  0  0  0  0  0  0  0  0  0  0
    3.2219    0.8400    0.3690 C   0  0  0  0  0  0  0  0  0  0  0  0
   -0.0437    0.3403    0.5915 O   0  0  0  0  0  0  0  0  0  0  0  0
   -2.2537    2.0485   -0.7032 H   0  0  0  0  0  0  0  0  0  0  0  0
   -2.0691    1.8923    1.0701 H   0  0  0  0  0  0  0  0  0  0  0  0
   -3.7028    1.6806    0.3580 H   0  0  0  0  0  0  0  0  0  0  0  0
   -3.0076   -0.3922   -0.7573 H   0  0  0  0  0  0  0  0  0  0  0  0
   -2.4207   -0.5207    0.9572 H   0  0  0  0  0  0  0  0  0  0  0  0
   -0.6619    0.5176   -1.3309 H   0  0  0  0  0  0  0  0  0  0  0  0
   -0.4071   -1.7442   -1.7572 H   0  0  0  0  0  0  0  0  0  0  0  0
   -1.1256   -2.1925   -0.1150 H   0  0  0  0  0  0  0  0  0  0  0  0
    0.8989   -2.1188    0.9062 H   0  0  0  0  0  0  0  0  0  0  0  0
    1.6734   -2.0029   -0.7333 H   0  0  0  0  0  0  0  0  0  0  0  0
    1.4066    0.3328   -0.8509 H   0  0  0  0  0  0  0  0  0  0  0  0
    2.7991    1.7905    0.0152 H   0  0  0  0  0  0  0  0  0  0  0  0
    4.0774    0.9589    1.0591 H   0  0  0  0  0  0  0  0  0  0  0  0
    3.5541    0.2104   -0.4927 H   0  0  0  0  0  0  0  0  0  0  0  0
  1  2  1  0
  2  3  1  0
  3  4  1  0
  4  5  1  0
  5  6  1  0
  6  7  1  0
  7  8  1  0
  6  9  1  0
  9  3  1  0
  1 10  1  0
  1 11  1  0
  1 12  1  0
  2 13  1  0
  2 14  1  0
  3 15  1  0
  4 16  1  0
  4 17  1  0
  5 18  1  0
  5 19  1  0
  6 20  1  0
  8 21  1  0
  8 22  1  0
  8 23  1  0
M  END
