
     RDKit          3D

 23 23  0  0  0  0  0  0  0  0999 V2000
    3.0779   -0.0246    0.7163 C   0  0  0  0  0  0  0  0  0  0  0  0
    2.3072   -0.5608   -0.4710 C   0  0  0  0  0  0  0  0  0  0  0  0
    0.8960    0.0161   -0.4116 C   0  0  0  0  0  0  0  0  0  0  0  0
    0.2370   -0.4051    0.8699 C   0  0  0  0  0  0  0  0  0  0  0  0
   -0.7324   -1.2829    0.4440 O   0  0  0  0  0  0  0  0  0  0  0  0
   -1.1139   -0.8562   -0.8379 C   0  0  0  0  0  0  0  0  0  0  0  0
   -2.0296    0.3384   -0.6504 C   0  0  0  0  0  0  0  0  0  0  0  0
   -3.2499   -0.0481    0.1575 C   0  0  0  0  0  0  0  0  0  0  0  0
    0.0912   -0.5021   -1.4146 O   0  0  0  0  0  0  0  0  0  0  0  0
    4.0514    0.4265    0.3899 H   0  0  0  0  0  0  0  0  0  0  0  0
    2.5354    0.8033    1.2263 H   0  0  0  0  0  0  0  0  0  0  0  0
    3.2419   -0.8269    1.4598 H   0  0  0  0  0  0  0  0  0  0  0  0
    2.2421   -1.6682   -0.4679 H   0  0  0  0  0  0  0  0  0  0  0  0
    2.7827   -0.2699   -1.4396 H   0  0  0  0  0  0  0  0  0  0  0  0
    0.9260    1.1146   -0.5574 H   0  0  0  0  0  0  0  0  0  0  0  0
    0.9951   -0.8854    1.5526 H   0  0  0  0  0  0  0  0  0  0  0  0
   -0.1593    0.4630    1.4373 H   0  0  0  0  0  0  0  0  0  0  0  0
   -1.5775   -1.6377   -1.4364 H   0  0  0  0  0  0  0  0  0  0  0  0
   -2.3653    0.7486   -1.6287 H   0  0  0  0  0  0  0  0  0  0  0  0
   -1.4989    1.1260   -0.0873 H   0  0  0  0  0  0  0  0  0  0  0  0
   -4.1823    0.0448   -0.4357 H   0  0  0  0  0  0  0  0  0  0  0  0
   -3.3714    0.5987    1.0562 H   0  0  0  0  0  0  0  0  0  0  0  0
   -3.1033   -1.0912    0.5286 H   0  0  0  0  0  0  0  0  0  0  0  0
  1  2  1  0
  2  3  1  0
  3  4  1  0
  4  5  1  0
  5  6  1  0
  6  7  1  0
  7  8  1  0
  6  9  1  0
  9  3  1  0
  1 10  1  0
  1 11  1  0
  1 12  1  0
  2 13  1  0
  2 14  1  0
  3 15  1  0
  4 16  1  0
  4 17  1  0
  6 18  1  0
  7 19  1  0
  7 20  1  0
  8 21  1  0
  8 22  1  0
  8 23  1  0
M  END
