
     RDKit          3D

 21 22  0  0  0  0  0  0  0  0999 V2000
    2.4905    0.1628   -0.5425 C   0  0  0  0  0  0  0  0  0  0  0  0
    1.4959   -0.5780    0.2811 C   0  0  0  0  0  0  0  0  0  0  0  0
    0.1209   -0.0669    0.1675 C   0  0  0  0  0  0  0  0  0  0  0  0
   -0.8573   -0.8574    1.0281 C   0  0  0  0  0  0  0  0  0  0  0  0
   -1.8806   -0.5119   -0.0598 C   0  0  0  0  0  0  0  0  0  0  0  0
   -0.6925   -0.5359   -1.0305 C   0  0  0  0  0  0  0  0  0  0  0  0
   -2.3039    0.7847    0.0343 O   0  0  0  0  0  0  0  0  0  0  0  0
   -1.3497    1.7009    0.3213 C   0  0  0  0  0  0  0  0  0  0  0  0
   -0.0614    1.2753    0.3586 O   0  0  0  0  0  0  0  0  0  0  0  0
    2.9275   -0.5397   -1.3086 H   0  0  0  0  0  0  0  0  0  0  0  0
    3.3609    0.5332    0.0450 H   0  0  0  0  0  0  0  0  0  0  0  0
    2.0530    0.9981   -1.1237 H   0  0  0  0  0  0  0  0  0  0  0  0
    1.8159   -0.4955    1.3593 H   0  0  0  0  0  0  0  0  0  0  0  0
    1.5226   -1.6633    0.0591 H   0  0  0  0  0  0  0  0  0  0  0  0
   -1.0669   -0.4374    2.0091 H   0  0  0  0  0  0  0  0  0  0  0  0
   -0.6363   -1.9341    0.9600 H   0  0  0  0  0  0  0  0  0  0  0  0
   -2.6499   -1.2457   -0.2371 H   0  0  0  0  0  0  0  0  0  0  0  0
   -0.4853   -1.5454   -1.3789 H   0  0  0  0  0  0  0  0  0  0  0  0
   -0.7803    0.2225   -1.8249 H   0  0  0  0  0  0  0  0  0  0  0  0
   -1.6126    2.1832    1.3033 H   0  0  0  0  0  0  0  0  0  0  0  0
   -1.4106    2.5504   -0.4206 H   0  0  0  0  0  0  0  0  0  0  0  0
  1  2  1  0
  2  3  1  0
  3  4  1  0
  4  5  1  0
  5  6  1  0
  5  7  1  0
  7  8  1  0
  8  9  1  0
  6  3  1  0
  9  3  1  0
  1 10  1  0
  1 11  1  0
  1 12  1  0
  2 13  1  0
  2 14  1  0
  4 15  1  0
  4 16  1  0
  5 17  1  0
  6 18  1  0
  6 19  1  0
  8 20  1  0
  8 21  1  0
M  END
