
     RDKit          3D

 22 22  0  0  0  0  0  0  0  0999 V2000
    2.9054   -0.2642    0.7566 C   0  0  0  0  0  0  0  0  0  0  0  0
    1.8837   -0.1458   -0.3228 C   0  0  0  0  0  0  0  0  0  0  0  0
    0.5078   -0.4976    0.1812 C   0  0  0  0  0  0  0  0  0  0  0  0
   -0.5576   -0.3874   -0.8932 C   0  0  0  0  0  0  0  0  0  0  0  0
   -1.4854    0.0160    0.2477 C   0  0  0  0  0  0  0  0  0  0  0  0
   -2.5735    0.9572   -0.0990 C   0  0  0  0  0  0  0  0  0  0  0  0
   -1.8454   -1.1164    0.9663 O   0  0  0  0  0  0  0  0  0  0  0  0
   -0.2304    0.6494    0.8600 C   0  0  0  0  0  0  0  0  0  0  0  0
    2.9727    0.7251    1.2786 H   0  0  0  0  0  0  0  0  0  0  0  0
    3.8750   -0.5619    0.3262 H   0  0  0  0  0  0  0  0  0  0  0  0
    2.5812   -0.9985    1.5203 H   0  0  0  0  0  0  0  0  0  0  0  0
    1.8456    0.8325   -0.8126 H   0  0  0  0  0  0  0  0  0  0  0  0
    2.1351   -0.9111   -1.1045 H   0  0  0  0  0  0  0  0  0  0  0  0
    0.4282   -1.4008    0.7865 H   0  0  0  0  0  0  0  0  0  0  0  0
   -0.8218   -1.3376   -1.3837 H   0  0  0  0  0  0  0  0  0  0  0  0
   -0.3538    0.4659   -1.5630 H   0  0  0  0  0  0  0  0  0  0  0  0
   -2.4732    1.4392   -1.0913 H   0  0  0  0  0  0  0  0  0  0  0  0
   -2.7692    1.7320    0.6754 H   0  0  0  0  0  0  0  0  0  0  0  0
   -3.5317    0.3653   -0.1556 H   0  0  0  0  0  0  0  0  0  0  0  0
   -2.2729   -1.8097    0.3809 H   0  0  0  0  0  0  0  0  0  0  0  0
   -0.2234    0.6070    1.9684 H   0  0  0  0  0  0  0  0  0  0  0  0
    0.0036    1.6413    0.4429 H   0  0  0  0  0  0  0  0  0  0  0  0
  1  2  1  0
  2  3  1  0
  3  4  1  0
  4  5  1  0
  5  6  1  0
  5  7  1  0
  5  8  1  0
  8  3  1  0
  1  9  1  0
  1 10  1  0
  1 11  1  0
  2 12  1  0
  2 13  1  0
  3 14  1  0
  4 15  1  0
  4 16  1  0
  6 17  1  0
  6 18  1  0
  6 19  1  0
  7 20  1  0
  8 21  1  0
  8 22  1  0
M  END
