
     RDKit          3D

 21 23  0  0  0  0  0  0  0  0999 V2000
    2.1925    0.8676   -0.0049 C   0  0  0  0  0  0  0  0  0  0  0  0
    1.4941   -0.4461    0.0079 C   0  0  0  0  0  0  0  0  0  0  0  0
    0.1011   -0.4905   -0.2654 C   0  0  0  0  0  0  0  0  0  0  0  0
   -0.7607   -1.7218   -0.2948 C   0  0  0  0  0  0  0  0  0  0  0  0
   -1.7028   -0.9140    0.6197 C   0  0  0  0  0  0  0  0  0  0  0  0
   -1.0625    0.2938   -0.1017 C   0  0  0  0  0  0  0  0  0  0  0  0
   -1.2094    1.5516    0.5906 C   0  0  0  0  0  0  0  0  0  0  0  0
   -1.2772    0.2649   -1.5023 O   0  0  0  0  0  0  0  0  0  0  0  0
   -0.5117   -0.9297   -1.5108 C   0  0  0  0  0  0  0  0  0  0  0  0
    2.0376    1.3661    0.9775 H   0  0  0  0  0  0  0  0  0  0  0  0
    1.9329    1.5121   -0.8651 H   0  0  0  0  0  0  0  0  0  0  0  0
    3.2878    0.6812   -0.0777 H   0  0  0  0  0  0  0  0  0  0  0  0
    1.7070   -0.9069    1.0217 H   0  0  0  0  0  0  0  0  0  0  0  0
    2.0688   -1.1221   -0.6961 H   0  0  0  0  0  0  0  0  0  0  0  0
   -0.2992   -2.6265    0.0224 H   0  0  0  0  0  0  0  0  0  0  0  0
   -2.7515   -1.0720    0.3805 H   0  0  0  0  0  0  0  0  0  0  0  0
   -1.4014   -0.8868    1.6673 H   0  0  0  0  0  0  0  0  0  0  0  0
   -0.3609    2.2560    0.5764 H   0  0  0  0  0  0  0  0  0  0  0  0
   -1.5187    1.3815    1.6532 H   0  0  0  0  0  0  0  0  0  0  0  0
   -2.0700    2.1371    0.1480 H   0  0  0  0  0  0  0  0  0  0  0  0
    0.1040   -1.1956   -2.3467 H   0  0  0  0  0  0  0  0  0  0  0  0
  1  2  1  0
  2  3  1  0
  3  4  1  0
  4  5  1  0
  5  6  1  0
  6  7  1  0
  6  8  1  0
  8  9  1  0
  6  3  1  0
  9  3  1  0
  9  4  1  0
  1 10  1  0
  1 11  1  0
  1 12  1  0
  2 13  1  0
  2 14  1  0
  4 15  1  0
  5 16  1  0
  5 17  1  0
  7 18  1  0
  7 19  1  0
  7 20  1  0
  9 21  1  0
M  END
