
     RDKit          3D

 23 23  0  0  0  0  0  0  0  0999 V2000
    1.6700   -0.2995    0.9268 C   0  0  0  0  0  0  0  0  0  0  0  0
    1.2691   -0.5264   -0.4980 C   0  0  0  0  0  0  0  0  0  0  0  0
   -0.0268    0.0950   -0.8810 C   0  0  0  0  0  0  0  0  0  0  0  0
   -0.2729   -0.1934   -2.2202 O   0  0  0  0  0  0  0  0  0  0  0  0
    0.0748    1.5843   -0.6922 C   0  0  0  0  0  0  0  0  0  0  0  0
   -0.5599    1.7997    0.6343 C   0  0  0  0  0  0  0  0  0  0  0  0
   -1.2872    0.7595    1.0001 C   0  0  0  0  0  0  0  0  0  0  0  0
   -1.2047   -0.2804   -0.0797 C   0  0  0  0  0  0  0  0  0  0  0  0
   -1.2487   -1.6675    0.4324 C   0  0  0  0  0  0  0  0  0  0  0  0
    2.7335   -0.6698    1.0217 H   0  0  0  0  0  0  0  0  0  0  0  0
    1.0913   -0.8986    1.6579 H   0  0  0  0  0  0  0  0  0  0  0  0
    1.7149    0.7721    1.2027 H   0  0  0  0  0  0  0  0  0  0  0  0
    1.3319   -1.6147   -0.6975 H   0  0  0  0  0  0  0  0  0  0  0  0
    2.0621   -0.0607   -1.1315 H   0  0  0  0  0  0  0  0  0  0  0  0
    0.5073    0.1318   -2.7318 H   0  0  0  0  0  0  0  0  0  0  0  0
   -0.5883    2.0951   -1.4347 H   0  0  0  0  0  0  0  0  0  0  0  0
    1.1109    1.9520   -0.7164 H   0  0  0  0  0  0  0  0  0  0  0  0
   -0.4669    2.6906    1.2669 H   0  0  0  0  0  0  0  0  0  0  0  0
   -1.8733    0.5930    1.8973 H   0  0  0  0  0  0  0  0  0  0  0  0
   -2.1265   -0.1128   -0.7099 H   0  0  0  0  0  0  0  0  0  0  0  0
   -2.1977   -2.2018    0.1456 H   0  0  0  0  0  0  0  0  0  0  0  0
   -1.2819   -1.6344    1.5529 H   0  0  0  0  0  0  0  0  0  0  0  0
   -0.4311   -2.3131    0.0542 H   0  0  0  0  0  0  0  0  0  0  0  0
  1  2  1  0
  2  3  1  0
  3  4  1  0
  3  5  1  0
  5  6  1  0
  6  7  2  0
  7  8  1  0
  8  9  1  0
  8  3  1  0
  1 10  1  0
  1 11  1  0
  1 12  1  0
  2 13  1  0
  2 14  1  0
  4 15  1  0
  5 16  1  0
  5 17  1  0
  6 18  1  0
  7 19  1  0
  8 20  1  0
  9 21  1  0
  9 22  1  0
  9 23  1  0
M  END
