
     RDKit          3D

 23 24  0  0  0  0  0  0  0  0999 V2000
   -1.6620   -1.5764   -0.7327 C   0  0  0  0  0  0  0  0  0  0  0  0
   -0.5912   -1.3758    0.2895 C   0  0  0  0  0  0  0  0  0  0  0  0
   -0.0648    0.0293    0.3324 C   0  0  0  0  0  0  0  0  0  0  0  0
   -1.0654    1.0842    0.6485 C   0  0  0  0  0  0  0  0  0  0  0  0
   -0.7748    2.4839    0.7359 C   0  0  0  0  0  0  0  0  0  0  0  0
   -1.2394    1.9849   -0.5186 O   0  0  0  0  0  0  0  0  0  0  0  0
    1.2544    0.1727    1.1177 C   0  0  0  0  0  0  0  0  0  0  0  0
    1.2082    0.3893   -0.3399 C   0  0  0  0  0  0  0  0  0  0  0  0
    1.9518   -0.5607   -1.2121 C   0  0  0  0  0  0  0  0  0  0  0  0
   -1.8603   -2.6800   -0.7916 H   0  0  0  0  0  0  0  0  0  0  0  0
   -2.6286   -1.1157   -0.4660 H   0  0  0  0  0  0  0  0  0  0  0  0
   -1.3838   -1.2571   -1.7463 H   0  0  0  0  0  0  0  0  0  0  0  0
   -1.0181   -1.6226    1.2818 H   0  0  0  0  0  0  0  0  0  0  0  0
    0.2253   -2.1042    0.1141 H   0  0  0  0  0  0  0  0  0  0  0  0
   -2.0283    0.7220    1.0613 H   0  0  0  0  0  0  0  0  0  0  0  0
   -1.5185    3.1519    1.2203 H   0  0  0  0  0  0  0  0  0  0  0  0
    0.2404    2.9179    0.6855 H   0  0  0  0  0  0  0  0  0  0  0  0
    1.7208   -0.7551    1.5088 H   0  0  0  0  0  0  0  0  0  0  0  0
    1.3549    1.0230    1.8117 H   0  0  0  0  0  0  0  0  0  0  0  0
    1.3108    1.4654   -0.6588 H   0  0  0  0  0  0  0  0  0  0  0  0
    2.2762   -0.0909   -2.1658 H   0  0  0  0  0  0  0  0  0  0  0  0
    1.3810   -1.4654   -1.4949 H   0  0  0  0  0  0  0  0  0  0  0  0
    2.9114   -0.8208   -0.6808 H   0  0  0  0  0  0  0  0  0  0  0  0
  1  2  1  0
  2  3  1  0
  3  4  1  0
  4  5  1  0
  5  6  1  0
  3  7  1  0
  7  8  1  0
  8  9  1  0
  8  3  1  0
  6  4  1  0
  1 10  1  0
  1 11  1  0
  1 12  1  0
  2 13  1  0
  2 14  1  0
  4 15  1  0
  5 16  1  0
  5 17  1  0
  7 18  1  0
  7 19  1  0
  8 20  1  0
  9 21  1  0
  9 22  1  0
  9 23  1  0
M  END
