
     RDKit          3D

 23 24  0  0  0  0  0  0  0  0999 V2000
    2.6716    1.0010   -0.3209 C   0  0  0  0  0  0  0  0  0  0  0  0
    2.1494   -0.3873   -0.0006 C   0  0  0  0  0  0  0  0  0  0  0  0
    0.6859   -0.3968   -0.2652 C   0  0  0  0  0  0  0  0  0  0  0  0
    0.0158   -1.7182    0.0082 C   0  0  0  0  0  0  0  0  0  0  0  0
   -1.4490   -1.2751   -0.1105 C   0  0  0  0  0  0  0  0  0  0  0  0
   -1.3298    0.2029    0.0543 C   0  0  0  0  0  0  0  0  0  0  0  0
   -2.4332    1.1178    0.2097 C   0  0  0  0  0  0  0  0  0  0  0  0
   -1.6769    1.1276   -1.0874 C   0  0  0  0  0  0  0  0  0  0  0  0
   -0.0462    0.4511    0.5644 O   0  0  0  0  0  0  0  0  0  0  0  0
    2.2058    1.2781   -1.3073 H   0  0  0  0  0  0  0  0  0  0  0  0
    3.7764    1.0249   -0.4140 H   0  0  0  0  0  0  0  0  0  0  0  0
    2.3019    1.7519    0.4198 H   0  0  0  0  0  0  0  0  0  0  0  0
    2.4330   -0.6425    1.0225 H   0  0  0  0  0  0  0  0  0  0  0  0
    2.6276   -1.0724   -0.7318 H   0  0  0  0  0  0  0  0  0  0  0  0
    0.4942   -0.1409   -1.3165 H   0  0  0  0  0  0  0  0  0  0  0  0
    0.1549   -2.0521    1.0448 H   0  0  0  0  0  0  0  0  0  0  0  0
    0.2540   -2.4862   -0.7527 H   0  0  0  0  0  0  0  0  0  0  0  0
   -2.0573   -1.7697    0.6713 H   0  0  0  0  0  0  0  0  0  0  0  0
   -1.8065   -1.5399   -1.1251 H   0  0  0  0  0  0  0  0  0  0  0  0
   -3.4549    0.7488    0.1582 H   0  0  0  0  0  0  0  0  0  0  0  0
   -2.3193    1.9940    0.9112 H   0  0  0  0  0  0  0  0  0  0  0  0
   -2.1192    0.7335   -2.0072 H   0  0  0  0  0  0  0  0  0  0  0  0
   -1.0781    2.0496   -1.2464 H   0  0  0  0  0  0  0  0  0  0  0  0
  1  2  1  0
  2  3  1  0
  3  4  1  0
  4  5  1  0
  5  6  1  0
  6  7  1  0
  7  8  1  0
  6  9  1  0
  9  3  1  0
  8  6  1  0
  1 10  1  0
  1 11  1  0
  1 12  1  0
  2 13  1  0
  2 14  1  0
  3 15  1  0
  4 16  1  0
  4 17  1  0
  5 18  1  0
  5 19  1  0
  7 20  1  0
  7 21  1  0
  8 22  1  0
  8 23  1  0
M  END
