
     RDKit          3D

 23 24  0  0  0  0  0  0  0  0999 V2000
   -2.8269    0.5797    0.0305 C   0  0  0  0  0  0  0  0  0  0  0  0
   -1.6366    0.2280   -0.8630 C   0  0  0  0  0  0  0  0  0  0  0  0
   -0.5515   -0.2751    0.0970 C   0  0  0  0  0  0  0  0  0  0  0  0
   -0.9998   -1.4789    0.8716 C   0  0  0  0  0  0  0  0  0  0  0  0
   -0.2179    0.8112    0.9375 O   0  0  0  0  0  0  0  0  0  0  0  0
    0.8764    1.0290    0.1095 C   0  0  0  0  0  0  0  0  0  0  0  0
    2.0175    0.1098    0.3311 C   0  0  0  0  0  0  0  0  0  0  0  0
    3.2993    0.2484   -0.4201 C   0  0  0  0  0  0  0  0  0  0  0  0
    0.8226   -0.3248   -0.4868 C   0  0  0  0  0  0  0  0  0  0  0  0
   -2.4624    1.3886    0.7224 H   0  0  0  0  0  0  0  0  0  0  0  0
   -3.0068   -0.2983    0.6656 H   0  0  0  0  0  0  0  0  0  0  0  0
   -3.6948    0.9158   -0.5395 H   0  0  0  0  0  0  0  0  0  0  0  0
   -1.2200    1.1350   -1.3357 H   0  0  0  0  0  0  0  0  0  0  0  0
   -1.9187   -0.5454   -1.5963 H   0  0  0  0  0  0  0  0  0  0  0  0
   -1.8473   -2.0161    0.3957 H   0  0  0  0  0  0  0  0  0  0  0  0
   -1.3398   -1.1490    1.8727 H   0  0  0  0  0  0  0  0  0  0  0  0
   -0.1693   -2.2092    0.9344 H   0  0  0  0  0  0  0  0  0  0  0  0
    0.9026    1.8663   -0.5896 H   0  0  0  0  0  0  0  0  0  0  0  0
    2.1184   -0.3121    1.3738 H   0  0  0  0  0  0  0  0  0  0  0  0
    3.5352   -0.7314   -0.8887 H   0  0  0  0  0  0  0  0  0  0  0  0
    4.1081    0.4382    0.3198 H   0  0  0  0  0  0  0  0  0  0  0  0
    3.2680    1.0796   -1.1522 H   0  0  0  0  0  0  0  0  0  0  0  0
    0.9438   -0.4892   -1.5769 H   0  0  0  0  0  0  0  0  0  0  0  0
  1  2  1  0
  2  3  1  0
  3  4  1  0
  3  5  1  0
  5  6  1  0
  6  7  1  0
  7  8  1  0
  7  9  1  0
  9  3  1  0
  9  6  1  0
  1 10  1  0
  1 11  1  0
  1 12  1  0
  2 13  1  0
  2 14  1  0
  4 15  1  0
  4 16  1  0
  4 17  1  0
  6 18  1  0
  7 19  1  0
  8 20  1  0
  8 21  1  0
  8 22  1  0
  9 23  1  0
M  END
