
     RDKit          3D

 21 21  0  0  0  0  0  0  0  0999 V2000
   -2.4883    0.6212   -0.2755 C   0  0  0  0  0  0  0  0  0  0  0  0
   -1.4808   -0.5032   -0.3865 C   0  0  0  0  0  0  0  0  0  0  0  0
   -0.2612   -0.2485    0.4628 C   0  0  0  0  0  0  0  0  0  0  0  0
    0.7184   -1.3970    0.3213 C   0  0  0  0  0  0  0  0  0  0  0  0
    1.3531   -0.6189   -0.8301 C   0  0  0  0  0  0  0  0  0  0  0  0
    0.7855    0.6419   -0.1631 C   0  0  0  0  0  0  0  0  0  0  0  0
    1.7842    1.1440    0.8460 C   0  0  0  0  0  0  0  0  0  0  0  0
   -2.1008    1.5810   -0.6203 H   0  0  0  0  0  0  0  0  0  0  0  0
   -3.3387    0.3411   -0.9456 H   0  0  0  0  0  0  0  0  0  0  0  0
   -2.9269    0.6611    0.7558 H   0  0  0  0  0  0  0  0  0  0  0  0
   -1.9787   -1.4263   -0.0245 H   0  0  0  0  0  0  0  0  0  0  0  0
   -1.2466   -0.6317   -1.4423 H   0  0  0  0  0  0  0  0  0  0  0  0
   -0.4736    0.0134    1.4992 H   0  0  0  0  0  0  0  0  0  0  0  0
    0.2808   -2.3295   -0.0828 H   0  0  0  0  0  0  0  0  0  0  0  0
    1.3775   -1.5190    1.2001 H   0  0  0  0  0  0  0  0  0  0  0  0
    0.8793   -0.8469   -1.7984 H   0  0  0  0  0  0  0  0  0  0  0  0
    2.4373   -0.6526   -0.8824 H   0  0  0  0  0  0  0  0  0  0  0  0
    0.4214    1.3844   -0.8753 H   0  0  0  0  0  0  0  0  0  0  0  0
    1.7194    2.2375    1.0105 H   0  0  0  0  0  0  0  0  0  0  0  0
    1.7411    0.5885    1.8097 H   0  0  0  0  0  0  0  0  0  0  0  0
    2.7976    0.9597    0.4213 H   0  0  0  0  0  0  0  0  0  0  0  0
  1  2  1  0
  2  3  1  0
  3  4  1  0
  4  5  1  0
  5  6  1  0
  6  7  1  0
  6  3  1  0
  1  8  1  0
  1  9  1  0
  1 10  1  0
  2 11  1  0
  2 12  1  0
  3 13  1  0
  4 14  1  0
  4 15  1  0
  5 16  1  0
  5 17  1  0
  6 18  1  0
  7 19  1  0
  7 20  1  0
  7 21  1  0
M  END
