
     RDKit          3D

 21 22  0  0  0  0  0  0  0  0999 V2000
    1.9600    0.8344    0.1966 C   0  0  0  0  0  0  0  0  0  0  0  0
    1.5778   -0.5852    0.0955 C   0  0  0  0  0  0  0  0  0  0  0  0
    0.1650   -0.9114   -0.1267 C   0  0  0  0  0  0  0  0  0  0  0  0
   -0.4597   -0.3758   -1.3721 C   0  0  0  0  0  0  0  0  0  0  0  0
   -1.8571   -0.0060   -0.8426 C   0  0  0  0  0  0  0  0  0  0  0  0
   -1.7388    1.2265   -0.2437 O   0  0  0  0  0  0  0  0  0  0  0  0
   -1.1428    0.9413    0.9726 C   0  0  0  0  0  0  0  0  0  0  0  0
   -0.8114   -0.5227    0.9198 C   0  0  0  0  0  0  0  0  0  0  0  0
   -1.9971   -0.9235    0.2312 O   0  0  0  0  0  0  0  0  0  0  0  0
    2.0167    1.2036    1.2630 H   0  0  0  0  0  0  0  0  0  0  0  0
    3.0031    0.9425   -0.1739 H   0  0  0  0  0  0  0  0  0  0  0  0
    1.3495    1.5284   -0.4178 H   0  0  0  0  0  0  0  0  0  0  0  0
    1.9074   -1.1050    1.0340 H   0  0  0  0  0  0  0  0  0  0  0  0
    2.1763   -1.0767   -0.7147 H   0  0  0  0  0  0  0  0  0  0  0  0
    0.1050   -2.0364   -0.2056 H   0  0  0  0  0  0  0  0  0  0  0  0
   -0.6535   -1.1576   -2.1456 H   0  0  0  0  0  0  0  0  0  0  0  0
    0.0517    0.5052   -1.7876 H   0  0  0  0  0  0  0  0  0  0  0  0
   -2.6288   -0.1069   -1.5885 H   0  0  0  0  0  0  0  0  0  0  0  0
   -1.9579    1.0389    1.7490 H   0  0  0  0  0  0  0  0  0  0  0  0
   -0.3491    1.5973    1.2758 H   0  0  0  0  0  0  0  0  0  0  0  0
   -0.7162   -1.0109    1.8815 H   0  0  0  0  0  0  0  0  0  0  0  0
  1  2  1  0
  2  3  1  0
  3  4  1  0
  4  5  1  0
  5  6  1  0
  6  7  1  0
  7  8  1  0
  8  9  1  0
  8  3  1  0
  9  5  1  0
  1 10  1  0
  1 11  1  0
  1 12  1  0
  2 13  1  0
  2 14  1  0
  3 15  1  0
  4 16  1  0
  4 17  1  0
  5 18  1  0
  7 19  1  0
  7 20  1  0
  8 21  1  0
M  END
