
     RDKit          3D

 19 20  0  0  0  0  0  0  0  0999 V2000
    2.3882    0.9087   -0.4562 C   0  0  0  0  0  0  0  0  0  0  0  0
    1.1715    0.6304    0.4170 C   0  0  0  0  0  0  0  0  0  0  0  0
    0.5275   -0.6678   -0.0073 C   0  0  0  0  0  0  0  0  0  0  0  0
   -0.6687   -1.1748    0.6713 C   0  0  0  0  0  0  0  0  0  0  0  0
   -1.6792   -0.1275    1.1042 C   0  0  0  0  0  0  0  0  0  0  0  0
   -1.9187    0.1542   -0.3632 C   0  0  0  0  0  0  0  0  0  0  0  0
   -0.7326   -0.6538   -0.7870 C   0  0  0  0  0  0  0  0  0  0  0  0
    2.0976    0.7873   -1.5140 H   0  0  0  0  0  0  0  0  0  0  0  0
    3.1408    0.1205   -0.2019 H   0  0  0  0  0  0  0  0  0  0  0  0
    2.8378    1.8697   -0.2148 H   0  0  0  0  0  0  0  0  0  0  0  0
    1.5423    0.6054    1.4616 H   0  0  0  0  0  0  0  0  0  0  0  0
    0.4305    1.4482    0.3180 H   0  0  0  0  0  0  0  0  0  0  0  0
    1.2670   -1.4311   -0.3317 H   0  0  0  0  0  0  0  0  0  0  0  0
   -0.8950   -2.2367    0.8042 H   0  0  0  0  0  0  0  0  0  0  0  0
   -1.2408    0.7580    1.5880 H   0  0  0  0  0  0  0  0  0  0  0  0
   -2.5406   -0.5014    1.6709 H   0  0  0  0  0  0  0  0  0  0  0  0
   -1.9194    1.2112   -0.6563 H   0  0  0  0  0  0  0  0  0  0  0  0
   -2.9022   -0.3146   -0.6600 H   0  0  0  0  0  0  0  0  0  0  0  0
   -0.9059   -1.3860   -1.5799 H   0  0  0  0  0  0  0  0  0  0  0  0
  1  2  1  0
  2  3  1  0
  3  4  1  0
  4  5  1  0
  5  6  1  0
  6  7  1  0
  7  3  1  0
  7  4  1  0
  1  8  1  0
  1  9  1  0
  1 10  1  0
  2 11  1  0
  2 12  1  0
  3 13  1  0
  4 14  1  0
  5 15  1  0
  5 16  1  0
  6 17  1  0
  6 18  1  0
  7 19  1  0
M  END
