
     RDKit          3D

 17 18  0  0  0  0  0  0  0  0999 V2000
   -2.2771    0.7555    0.0856 C   0  0  0  0  0  0  0  0  0  0  0  0
   -0.9452    0.5720   -0.5960 C   0  0  0  0  0  0  0  0  0  0  0  0
   -0.3032   -0.7398   -0.2732 C   0  0  0  0  0  0  0  0  0  0  0  0
    0.9962   -1.1396   -0.8196 C   0  0  0  0  0  0  0  0  0  0  0  0
    1.9489   -0.2320   -1.2824 O   0  0  0  0  0  0  0  0  0  0  0  0
    2.4761    0.5402   -0.2626 C   0  0  0  0  0  0  0  0  0  0  0  0
    3.5856    1.1596   -0.2988 O   0  0  0  0  0  0  0  0  0  0  0  0
    1.5577    0.4920    0.7750 O   0  0  0  0  0  0  0  0  0  0  0  0
    0.8356   -0.7128    0.6738 C   0  0  0  0  0  0  0  0  0  0  0  0
   -2.6590    1.7570   -0.2203 H   0  0  0  0  0  0  0  0  0  0  0  0
   -3.0213    0.0143   -0.2176 H   0  0  0  0  0  0  0  0  0  0  0  0
   -2.0888    0.7702    1.1791 H   0  0  0  0  0  0  0  0  0  0  0  0
   -0.2616    1.3774   -0.2611 H   0  0  0  0  0  0  0  0  0  0  0  0
   -1.0236    0.6723   -1.6998 H   0  0  0  0  0  0  0  0  0  0  0  0
   -1.0293   -1.5627   -0.1092 H   0  0  0  0  0  0  0  0  0  0  0  0
    1.2164   -2.2144   -0.9651 H   0  0  0  0  0  0  0  0  0  0  0  0
    0.9925   -1.5091    1.4248 H   0  0  0  0  0  0  0  0  0  0  0  0
  1  2  1  0
  2  3  1  0
  3  4  1  0
  4  5  1  0
  5  6  1  0
  6  7  2  0
  6  8  1  0
  8  9  1  0
  9  3  1  0
  9  4  1  0
  1 10  1  0
  1 11  1  0
  1 12  1  0
  2 13  1  0
  2 14  1  0
  3 15  1  0
  4 16  1  0
  9 17  1  0
M  END
