
     RDKit          3D

 22 22  0  0  0  0  0  0  0  0999 V2000
    2.6215   -0.8514   -0.1556 C   0  0  0  0  0  0  0  0  0  0  0  0
    1.6922    0.2245   -0.6397 C   0  0  0  0  0  0  0  0  0  0  0  0
    0.3305    0.1535    0.0311 C   0  0  0  0  0  0  0  0  0  0  0  0
    0.3850    0.2919    1.4100 O   0  0  0  0  0  0  0  0  0  0  0  0
   -0.7549    0.8980   -0.7333 C   0  0  0  0  0  0  0  0  0  0  0  0
   -1.5992    1.7913    0.1324 C   0  0  0  0  0  0  0  0  0  0  0  0
   -0.7942   -0.5599   -0.6261 C   0  0  0  0  0  0  0  0  0  0  0  0
   -1.8251   -1.2827    0.2001 C   0  0  0  0  0  0  0  0  0  0  0  0
    3.1716   -0.4918    0.7410 H   0  0  0  0  0  0  0  0  0  0  0  0
    2.1118   -1.7841    0.1150 H   0  0  0  0  0  0  0  0  0  0  0  0
    3.3552   -1.0597   -0.9840 H   0  0  0  0  0  0  0  0  0  0  0  0
    2.1362    1.2121   -0.3254 H   0  0  0  0  0  0  0  0  0  0  0  0
    1.5618    0.1726   -1.7411 H   0  0  0  0  0  0  0  0  0  0  0  0
    0.2417   -0.5627    1.8792 H   0  0  0  0  0  0  0  0  0  0  0  0
   -0.5005    1.3416   -1.7227 H   0  0  0  0  0  0  0  0  0  0  0  0
   -1.3267    1.7095    1.2245 H   0  0  0  0  0  0  0  0  0  0  0  0
   -2.6753    1.5999    0.0452 H   0  0  0  0  0  0  0  0  0  0  0  0
   -1.3939    2.8581   -0.1335 H   0  0  0  0  0  0  0  0  0  0  0  0
   -0.4893   -1.1401   -1.5413 H   0  0  0  0  0  0  0  0  0  0  0  0
   -2.3629   -2.0467   -0.4051 H   0  0  0  0  0  0  0  0  0  0  0  0
   -1.2942   -1.8574    0.9955 H   0  0  0  0  0  0  0  0  0  0  0  0
   -2.5915   -0.6164    0.6196 H   0  0  0  0  0  0  0  0  0  0  0  0
  1  2  1  0
  2  3  1  0
  3  4  1  0
  3  5  1  0
  5  6  1  0
  5  7  1  0
  7  8  1  0
  7  3  1  0
  1  9  1  0
  1 10  1  0
  1 11  1  0
  2 12  1  0
  2 13  1  0
  4 14  1  0
  5 15  1  0
  6 16  1  0
  6 17  1  0
  6 18  1  0
  7 19  1  0
  8 20  1  0
  8 21  1  0
  8 22  1  0
M  END
