
     RDKit          3D

 19 20  0  0  0  0  0  0  0  0999 V2000
    2.4462   -0.7462    0.5841 C   0  0  0  0  0  0  0  0  0  0  0  0
    1.4976    0.4348    0.4380 C   0  0  0  0  0  0  0  0  0  0  0  0
    0.3742    0.1267   -0.5051 C   0  0  0  0  0  0  0  0  0  0  0  0
   -0.6750    1.0923   -0.8200 C   0  0  0  0  0  0  0  0  0  0  0  0
   -1.0708    1.9364    0.2170 O   0  0  0  0  0  0  0  0  0  0  0  0
   -1.8000    0.8819    0.7222 C   0  0  0  0  0  0  0  0  0  0  0  0
   -0.9465   -0.1520    0.0515 C   0  0  0  0  0  0  0  0  0  0  0  0
   -1.7147   -1.2636   -0.5719 C   0  0  0  0  0  0  0  0  0  0  0  0
   -2.0723   -2.1653    0.1383 O   0  0  0  0  0  0  0  0  0  0  0  0
    3.0696   -0.7794   -0.3105 H   0  0  0  0  0  0  0  0  0  0  0  0
    1.8658   -1.6938    0.6855 H   0  0  0  0  0  0  0  0  0  0  0  0
    3.0044   -0.6157    1.5248 H   0  0  0  0  0  0  0  0  0  0  0  0
    2.0859    1.3218    0.1320 H   0  0  0  0  0  0  0  0  0  0  0  0
    1.0612    0.5884    1.4461 H   0  0  0  0  0  0  0  0  0  0  0  0
    0.7167   -0.5044   -1.3781 H   0  0  0  0  0  0  0  0  0  0  0  0
   -1.1883    1.1049   -1.7779 H   0  0  0  0  0  0  0  0  0  0  0  0
   -2.8319    0.9100    0.3143 H   0  0  0  0  0  0  0  0  0  0  0  0
   -1.8601    0.8204    1.8255 H   0  0  0  0  0  0  0  0  0  0  0  0
   -1.9621   -1.2974   -1.6156 H   0  0  0  0  0  0  0  0  0  0  0  0
  1  2  1  0
  2  3  1  0
  3  4  1  0
  4  5  1  0
  5  6  1  0
  6  7  1  0
  7  8  1  0
  8  9  2  0
  7  3  1  0
  7  4  1  0
  1 10  1  0
  1 11  1  0
  1 12  1  0
  2 13  1  0
  2 14  1  0
  3 15  1  0
  4 16  1  0
  6 17  1  0
  6 18  1  0
  8 19  1  0
M  END
