
     RDKit          3D

 21 21  0  0  0  0  0  0  0  0999 V2000
    2.6465    0.5262   -0.5975 C   0  0  0  0  0  0  0  0  0  0  0  0
    1.7704   -0.0628    0.4880 C   0  0  0  0  0  0  0  0  0  0  0  0
    0.4905   -0.6224   -0.1405 C   0  0  0  0  0  0  0  0  0  0  0  0
   -0.3966   -1.2133    0.9187 C   0  0  0  0  0  0  0  0  0  0  0  0
   -1.7685   -0.7249    0.4336 C   0  0  0  0  0  0  0  0  0  0  0  0
   -1.3500    0.6483   -0.0886 C   0  0  0  0  0  0  0  0  0  0  0  0
   -2.3853    1.2360   -0.9589 C   0  0  0  0  0  0  0  0  0  0  0  0
   -3.4726    1.5596   -0.5110 O   0  0  0  0  0  0  0  0  0  0  0  0
   -0.2088    0.3586   -0.7904 O   0  0  0  0  0  0  0  0  0  0  0  0
    2.1549    0.4153   -1.6026 H   0  0  0  0  0  0  0  0  0  0  0  0
    3.6236   -0.0024   -0.5700 H   0  0  0  0  0  0  0  0  0  0  0  0
    2.8804    1.6003   -0.4032 H   0  0  0  0  0  0  0  0  0  0  0  0
    2.2806   -0.8392    1.0687 H   0  0  0  0  0  0  0  0  0  0  0  0
    1.4625    0.7749    1.1696 H   0  0  0  0  0  0  0  0  0  0  0  0
    0.7944   -1.3843   -0.9092 H   0  0  0  0  0  0  0  0  0  0  0  0
   -0.3425   -2.2941    0.9986 H   0  0  0  0  0  0  0  0  0  0  0  0
   -0.1955   -0.6697    1.8618 H   0  0  0  0  0  0  0  0  0  0  0  0
   -2.4868   -0.6606    1.2499 H   0  0  0  0  0  0  0  0  0  0  0  0
   -2.1187   -1.3120   -0.4372 H   0  0  0  0  0  0  0  0  0  0  0  0
   -1.1623    1.2688    0.8325 H   0  0  0  0  0  0  0  0  0  0  0  0
   -2.2161    1.3978   -2.0123 H   0  0  0  0  0  0  0  0  0  0  0  0
  1  2  1  0
  2  3  1  0
  3  4  1  0
  4  5  1  0
  5  6  1  0
  6  7  1  0
  7  8  2  0
  6  9  1  0
  9  3  1  0
  1 10  1  0
  1 11  1  0
  1 12  1  0
  2 13  1  0
  2 14  1  0
  3 15  1  0
  4 16  1  0
  4 17  1  0
  5 18  1  0
  5 19  1  0
  6 20  1  0
  7 21  1  0
M  END
