
     RDKit          3D

 23 24  0  0  0  0  0  0  0  0999 V2000
    2.9989    0.1868    0.3273 C   0  0  0  0  0  0  0  0  0  0  0  0
    1.7438   -0.6382    0.5477 C   0  0  0  0  0  0  0  0  0  0  0  0
    0.7795   -0.3942   -0.6073 C   0  0  0  0  0  0  0  0  0  0  0  0
    0.3483    1.0449   -0.7628 C   0  0  0  0  0  0  0  0  0  0  0  0
   -0.5803    0.0032   -0.3393 C   0  0  0  0  0  0  0  0  0  0  0  0
   -1.7742   -0.3600   -1.1454 C   0  0  0  0  0  0  0  0  0  0  0  0
   -2.5295   -0.5690    0.1731 C   0  0  0  0  0  0  0  0  0  0  0  0
   -1.2948   -0.0705    0.9368 C   0  0  0  0  0  0  0  0  0  0  0  0
   -1.6018    1.0942    1.5981 O   0  0  0  0  0  0  0  0  0  0  0  0
    3.7325   -0.0572    1.1214 H   0  0  0  0  0  0  0  0  0  0  0  0
    3.3866   -0.1169   -0.6847 H   0  0  0  0  0  0  0  0  0  0  0  0
    2.7338    1.2575    0.2823 H   0  0  0  0  0  0  0  0  0  0  0  0
    2.0187   -1.6905    0.6557 H   0  0  0  0  0  0  0  0  0  0  0  0
    1.2412   -0.2269    1.4619 H   0  0  0  0  0  0  0  0  0  0  0  0
    1.0206   -0.9927   -1.4985 H   0  0  0  0  0  0  0  0  0  0  0  0
    0.7689    1.8146   -0.0826 H   0  0  0  0  0  0  0  0  0  0  0  0
    0.2288    1.3798   -1.8297 H   0  0  0  0  0  0  0  0  0  0  0  0
   -1.6253   -1.2679   -1.7370 H   0  0  0  0  0  0  0  0  0  0  0  0
   -2.1445    0.4984   -1.7395 H   0  0  0  0  0  0  0  0  0  0  0  0
   -2.7184   -1.6440    0.3482 H   0  0  0  0  0  0  0  0  0  0  0  0
   -3.4013    0.0930    0.2353 H   0  0  0  0  0  0  0  0  0  0  0  0
   -0.8934   -0.8671    1.6022 H   0  0  0  0  0  0  0  0  0  0  0  0
   -2.4381    1.5226    1.2403 H   0  0  0  0  0  0  0  0  0  0  0  0
  1  2  1  0
  2  3  1  0
  3  4  1  0
  4  5  1  0
  5  6  1  0
  6  7  1  0
  7  8  1  0
  8  9  1  0
  5  3  1  0
  8  5  1  0
  1 10  1  0
  1 11  1  0
  1 12  1  0
  2 13  1  0
  2 14  1  0
  3 15  1  0
  4 16  1  0
  4 17  1  0
  6 18  1  0
  6 19  1  0
  7 20  1  0
  7 21  1  0
  8 22  1  0
  9 23  1  0
M  END
