
     RDKit          3D

 21 22  0  0  0  0  0  0  0  0999 V2000
    2.4543    0.3186    0.3007 C   0  0  0  0  0  0  0  0  0  0  0  0
    1.1144   -0.2212    0.6757 C   0  0  0  0  0  0  0  0  0  0  0  0
    0.1764   -0.3669   -0.5097 C   0  0  0  0  0  0  0  0  0  0  0  0
   -0.0048    1.0313   -1.1195 C   0  0  0  0  0  0  0  0  0  0  0  0
   -1.0048    1.6265   -0.1837 C   0  0  0  0  0  0  0  0  0  0  0  0
   -1.6644    0.6727    0.4520 C   0  0  0  0  0  0  0  0  0  0  0  0
   -1.1823   -0.6432    0.0149 C   0  0  0  0  0  0  0  0  0  0  0  0
   -1.9805   -1.7466   -0.1097 C   0  0  0  0  0  0  0  0  0  0  0  0
   -1.1202   -1.6596    1.0963 O   0  0  0  0  0  0  0  0  0  0  0  0
    2.4924    1.4145    0.1820 H   0  0  0  0  0  0  0  0  0  0  0  0
    3.1523    0.0841    1.1518 H   0  0  0  0  0  0  0  0  0  0  0  0
    2.8792   -0.1780   -0.6073 H   0  0  0  0  0  0  0  0  0  0  0  0
    1.2796   -1.2612    1.0742 H   0  0  0  0  0  0  0  0  0  0  0  0
    0.6876    0.3859    1.4704 H   0  0  0  0  0  0  0  0  0  0  0  0
    0.5584   -1.0829   -1.2324 H   0  0  0  0  0  0  0  0  0  0  0  0
    0.9361    1.5805   -1.1263 H   0  0  0  0  0  0  0  0  0  0  0  0
   -0.4655    0.8707   -2.1070 H   0  0  0  0  0  0  0  0  0  0  0  0
   -1.1172    2.7103   -0.0924 H   0  0  0  0  0  0  0  0  0  0  0  0
   -2.4334    0.8580    1.1755 H   0  0  0  0  0  0  0  0  0  0  0  0
   -1.7233   -2.6408   -0.7259 H   0  0  0  0  0  0  0  0  0  0  0  0
   -3.0345   -1.7529    0.2204 H   0  0  0  0  0  0  0  0  0  0  0  0
  1  2  1  0
  2  3  1  0
  3  4  1  0
  4  5  1  0
  5  6  2  0
  6  7  1  0
  7  8  1  0
  8  9  1  0
  7  3  1  0
  9  7  1  0
  1 10  1  0
  1 11  1  0
  1 12  1  0
  2 13  1  0
  2 14  1  0
  3 15  1  0
  4 16  1  0
  4 17  1  0
  5 18  1  0
  6 19  1  0
  8 20  1  0
  8 21  1  0
M  END
