
     RDKit          3D

 23 23  0  0  0  0  0  0  0  0999 V2000
    2.7131   -0.3554    0.1037 C   0  0  0  0  0  0  0  0  0  0  0  0
    1.4059   -0.9784   -0.3319 C   0  0  0  0  0  0  0  0  0  0  0  0
    0.3651    0.0553   -0.6763 C   0  0  0  0  0  0  0  0  0  0  0  0
   -0.0617    1.0170    0.3683 C   0  0  0  0  0  0  0  0  0  0  0  0
   -0.5995    2.3453    0.0173 C   0  0  0  0  0  0  0  0  0  0  0  0
   -0.4202    3.3598    0.6729 O   0  0  0  0  0  0  0  0  0  0  0  0
   -0.9491   -0.1366    0.0388 C   0  0  0  0  0  0  0  0  0  0  0  0
   -2.1563    0.0601   -0.8311 C   0  0  0  0  0  0  0  0  0  0  0  0
   -1.0736   -1.1898    1.0987 C   0  0  0  0  0  0  0  0  0  0  0  0
    3.5447   -0.5966   -0.6057 H   0  0  0  0  0  0  0  0  0  0  0  0
    2.6041    0.7517    0.2259 H   0  0  0  0  0  0  0  0  0  0  0  0
    3.0292   -0.7265    1.1060 H   0  0  0  0  0  0  0  0  0  0  0  0
    1.0714   -1.6597    0.4747 H   0  0  0  0  0  0  0  0  0  0  0  0
    1.5820   -1.5999   -1.2376 H   0  0  0  0  0  0  0  0  0  0  0  0
    0.3915    0.4120   -1.7111 H   0  0  0  0  0  0  0  0  0  0  0  0
    0.5340    1.0037    1.2963 H   0  0  0  0  0  0  0  0  0  0  0  0
   -1.2045    2.4149   -0.9044 H   0  0  0  0  0  0  0  0  0  0  0  0
   -2.6111   -0.9356   -1.0088 H   0  0  0  0  0  0  0  0  0  0  0  0
   -2.9320    0.6868   -0.3518 H   0  0  0  0  0  0  0  0  0  0  0  0
   -1.8838    0.4550   -1.8487 H   0  0  0  0  0  0  0  0  0  0  0  0
   -0.9252   -2.1907    0.6406 H   0  0  0  0  0  0  0  0  0  0  0  0
   -0.3401   -1.1030    1.9131 H   0  0  0  0  0  0  0  0  0  0  0  0
   -2.0838   -1.0895    1.5509 H   0  0  0  0  0  0  0  0  0  0  0  0
  1  2  1  0
  2  3  1  0
  3  4  1  0
  4  5  1  0
  5  6  2  0
  4  7  1  0
  7  8  1  0
  7  9  1  0
  7  3  1  0
  1 10  1  0
  1 11  1  0
  1 12  1  0
  2 13  1  0
  2 14  1  0
  3 15  1  0
  4 16  1  0
  5 17  1  0
  8 18  1  0
  8 19  1  0
  8 20  1  0
  9 21  1  0
  9 22  1  0
  9 23  1  0
M  END
