
     RDKit          3D

 23 24  0  0  0  0  0  0  0  0999 V2000
    2.6929   -0.4149    0.0371 C   0  0  0  0  0  0  0  0  0  0  0  0
    1.2750   -0.8007   -0.3993 C   0  0  0  0  0  0  0  0  0  0  0  0
    0.3725    0.3107   -0.0509 C   0  0  0  0  0  0  0  0  0  0  0  0
    0.2167    0.7602    1.3792 C   0  0  0  0  0  0  0  0  0  0  0  0
   -1.2459    1.0994    1.0936 C   0  0  0  0  0  0  0  0  0  0  0  0
   -1.0422    0.4084   -0.2390 C   0  0  0  0  0  0  0  0  0  0  0  0
   -1.9838   -0.6689   -0.6196 C   0  0  0  0  0  0  0  0  0  0  0  0
   -2.0490   -1.7336    0.2361 O   0  0  0  0  0  0  0  0  0  0  0  0
   -0.1741    1.1270   -1.1670 C   0  0  0  0  0  0  0  0  0  0  0  0
    3.2045   -1.2660    0.5236 H   0  0  0  0  0  0  0  0  0  0  0  0
    3.3156   -0.1031   -0.8092 H   0  0  0  0  0  0  0  0  0  0  0  0
    2.6700    0.4126    0.7687 H   0  0  0  0  0  0  0  0  0  0  0  0
    0.9874   -1.7902    0.0053 H   0  0  0  0  0  0  0  0  0  0  0  0
    1.3312   -0.9193   -1.5008 H   0  0  0  0  0  0  0  0  0  0  0  0
    0.8288    1.6143    1.6870 H   0  0  0  0  0  0  0  0  0  0  0  0
    0.2347   -0.1251    2.0541 H   0  0  0  0  0  0  0  0  0  0  0  0
   -1.3369    2.2133    1.0155 H   0  0  0  0  0  0  0  0  0  0  0  0
   -1.9719    0.6329    1.7676 H   0  0  0  0  0  0  0  0  0  0  0  0
   -3.0191   -0.2158   -0.6537 H   0  0  0  0  0  0  0  0  0  0  0  0
   -1.8105   -1.0452   -1.6485 H   0  0  0  0  0  0  0  0  0  0  0  0
   -2.4491   -2.5014   -0.2439 H   0  0  0  0  0  0  0  0  0  0  0  0
   -0.0450    2.2411   -1.0625 H   0  0  0  0  0  0  0  0  0  0  0  0
   -0.0019    0.7644   -2.1734 H   0  0  0  0  0  0  0  0  0  0  0  0
  1  2  1  0
  2  3  1  0
  3  4  1  0
  4  5  1  0
  5  6  1  0
  6  7  1  0
  7  8  1  0
  6  9  1  0
  6  3  1  0
  9  3  1  0
  1 10  1  0
  1 11  1  0
  1 12  1  0
  2 13  1  0
  2 14  1  0
  4 15  1  0
  4 16  1  0
  5 17  1  0
  5 18  1  0
  7 19  1  0
  7 20  1  0
  8 21  1  0
  9 22  1  0
  9 23  1  0
M  END
