
     RDKit          3D

 21 22  0  0  0  0  0  0  0  0999 V2000
    2.2914   -0.2073    1.2136 C   0  0  0  0  0  0  0  0  0  0  0  0
    1.4532    0.5599    0.1773 C   0  0  0  0  0  0  0  0  0  0  0  0
    0.2933   -0.2898   -0.1525 C   0  0  0  0  0  0  0  0  0  0  0  0
   -0.5766   -0.5960    1.0788 C   0  0  0  0  0  0  0  0  0  0  0  0
   -1.7272   -1.2543    0.3340 C   0  0  0  0  0  0  0  0  0  0  0  0
   -1.7645   -0.6646   -0.9364 O   0  0  0  0  0  0  0  0  0  0  0  0
   -0.8494    0.4135   -0.8674 C   0  0  0  0  0  0  0  0  0  0  0  0
   -1.3094    1.3258    0.2344 C   0  0  0  0  0  0  0  0  0  0  0  0
   -1.0119    0.6783    1.4230 O   0  0  0  0  0  0  0  0  0  0  0  0
    2.3048   -1.2870    0.9610 H   0  0  0  0  0  0  0  0  0  0  0  0
    3.3074    0.2005    1.1926 H   0  0  0  0  0  0  0  0  0  0  0  0
    1.8089   -0.0707    2.1989 H   0  0  0  0  0  0  0  0  0  0  0  0
    1.1108    1.5085    0.6375 H   0  0  0  0  0  0  0  0  0  0  0  0
    2.0915    0.8145   -0.6780 H   0  0  0  0  0  0  0  0  0  0  0  0
    0.5182   -1.2083   -0.7101 H   0  0  0  0  0  0  0  0  0  0  0  0
   -0.1049   -1.1707    1.8285 H   0  0  0  0  0  0  0  0  0  0  0  0
   -2.6691   -1.1012    0.8844 H   0  0  0  0  0  0  0  0  0  0  0  0
   -1.4545   -2.3423    0.2582 H   0  0  0  0  0  0  0  0  0  0  0  0
   -0.6114    0.8521   -1.8049 H   0  0  0  0  0  0  0  0  0  0  0  0
   -2.3869    1.5851    0.1522 H   0  0  0  0  0  0  0  0  0  0  0  0
   -0.7139    2.2541    0.1970 H   0  0  0  0  0  0  0  0  0  0  0  0
  1  2  1  0
  2  3  1  0
  3  4  1  0
  4  5  1  0
  5  6  1  0
  6  7  1  0
  7  8  1  0
  8  9  1  0
  7  3  1  0
  9  4  1  0
  1 10  1  0
  1 11  1  0
  1 12  1  0
  2 13  1  0
  2 14  1  0
  3 15  1  0
  4 16  1  0
  5 17  1  0
  5 18  1  0
  7 19  1  0
  8 20  1  0
  8 21  1  0
M  END
