
     RDKit          3D

 21 22  0  0  0  0  0  0  0  0999 V2000
    2.6565    0.4163   -0.4136 C   0  0  0  0  0  0  0  0  0  0  0  0
    1.7063   -0.3043    0.5319 C   0  0  0  0  0  0  0  0  0  0  0  0
    0.3428   -0.1850   -0.0494 C   0  0  0  0  0  0  0  0  0  0  0  0
   -0.0449    0.4028   -1.1446 C   0  0  0  0  0  0  0  0  0  0  0  0
   -1.5120    0.2901   -1.3652 C   0  0  0  0  0  0  0  0  0  0  0  0
   -2.0509   -0.4157   -0.1700 C   0  0  0  0  0  0  0  0  0  0  0  0
   -2.5033    0.3793    0.8717 O   0  0  0  0  0  0  0  0  0  0  0  0
   -1.3716    0.1705    1.6511 C   0  0  0  0  0  0  0  0  0  0  0  0
   -0.8567   -0.7852    0.6234 C   0  0  0  0  0  0  0  0  0  0  0  0
    2.5677    1.4952   -0.2298 H   0  0  0  0  0  0  0  0  0  0  0  0
    2.4409    0.1593   -1.4703 H   0  0  0  0  0  0  0  0  0  0  0  0
    3.6991    0.0783   -0.2253 H   0  0  0  0  0  0  0  0  0  0  0  0
    2.0507   -1.3514    0.6145 H   0  0  0  0  0  0  0  0  0  0  0  0
    1.7576    0.1240    1.5547 H   0  0  0  0  0  0  0  0  0  0  0  0
    0.5959    0.9333   -1.8561 H   0  0  0  0  0  0  0  0  0  0  0  0
   -1.7212   -0.3690   -2.2593 H   0  0  0  0  0  0  0  0  0  0  0  0
   -1.9914    1.2652   -1.5792 H   0  0  0  0  0  0  0  0  0  0  0  0
   -2.7305   -1.2838   -0.4013 H   0  0  0  0  0  0  0  0  0  0  0  0
   -0.7908    1.1162    1.7763 H   0  0  0  0  0  0  0  0  0  0  0  0
   -1.5116   -0.3029    2.6169 H   0  0  0  0  0  0  0  0  0  0  0  0
   -0.7327   -1.8332    0.9237 H   0  0  0  0  0  0  0  0  0  0  0  0
  1  2  1  0
  2  3  1  0
  3  4  2  0
  4  5  1  0
  5  6  1  0
  6  7  1  0
  7  8  1  0
  8  9  1  0
  9  3  1  0
  9  6  1  0
  1 10  1  0
  1 11  1  0
  1 12  1  0
  2 13  1  0
  2 14  1  0
  4 15  1  0
  5 16  1  0
  5 17  1  0
  6 18  1  0
  8 19  1  0
  8 20  1  0
  9 21  1  0
M  END
