
     RDKit          3D

 19 20  0  0  0  0  0  0  0  0999 V2000
    2.1698   -0.5673    1.0820 C   0  0  0  0  0  0  0  0  0  0  0  0
    1.4886   -0.3568   -0.2271 C   0  0  0  0  0  0  0  0  0  0  0  0
    0.0648   -0.0857   -0.1868 C   0  0  0  0  0  0  0  0  0  0  0  0
   -0.4615    1.1182    0.5492 C   0  0  0  0  0  0  0  0  0  0  0  0
   -1.9065    1.0466    0.0049 C   0  0  0  0  0  0  0  0  0  0  0  0
   -1.7369   -0.2648   -0.7616 C   0  0  0  0  0  0  0  0  0  0  0  0
   -0.5581    0.0006   -1.4577 O   0  0  0  0  0  0  0  0  0  0  0  0
   -0.9077   -1.1324    0.1115 C   0  0  0  0  0  0  0  0  0  0  0  0
   -1.1488   -2.1695    0.6835 O   0  0  0  0  0  0  0  0  0  0  0  0
    2.7874   -1.5032    1.1019 H   0  0  0  0  0  0  0  0  0  0  0  0
    1.4212   -0.6921    1.8986 H   0  0  0  0  0  0  0  0  0  0  0  0
    2.8607    0.2636    1.3472 H   0  0  0  0  0  0  0  0  0  0  0  0
    1.6602   -1.2760   -0.8411 H   0  0  0  0  0  0  0  0  0  0  0  0
    2.0088    0.4674   -0.7898 H   0  0  0  0  0  0  0  0  0  0  0  0
    0.0264    2.0583    0.2470 H   0  0  0  0  0  0  0  0  0  0  0  0
   -0.4726    0.9511    1.6449 H   0  0  0  0  0  0  0  0  0  0  0  0
   -2.0910    1.8323   -0.7355 H   0  0  0  0  0  0  0  0  0  0  0  0
   -2.6327    0.9752    0.8096 H   0  0  0  0  0  0  0  0  0  0  0  0
   -2.5721   -0.6655   -1.2711 H   0  0  0  0  0  0  0  0  0  0  0  0
  1  2  1  0
  2  3  1  0
  3  4  1  0
  4  5  1  0
  5  6  1  0
  6  7  1  0
  6  8  1  0
  8  9  2  0
  7  3  1  0
  8  3  1  0
  1 10  1  0
  1 11  1  0
  1 12  1  0
  2 13  1  0
  2 14  1  0
  4 15  1  0
  4 16  1  0
  5 17  1  0
  5 18  1  0
  6 19  1  0
M  END
