
     RDKit          3D

 23 24  0  0  0  0  0  0  0  0999 V2000
   -2.0243    1.0604    1.3396 C   0  0  0  0  0  0  0  0  0  0  0  0
   -1.6267    0.2652    0.1140 C   0  0  0  0  0  0  0  0  0  0  0  0
   -0.5187   -0.6932    0.4205 C   0  0  0  0  0  0  0  0  0  0  0  0
   -0.0706   -1.5219   -0.7598 C   0  0  0  0  0  0  0  0  0  0  0  0
    0.9804   -2.5576   -0.5257 C   0  0  0  0  0  0  0  0  0  0  0  0
    1.7250   -1.5762    0.1655 O   0  0  0  0  0  0  0  0  0  0  0  0
    0.8248   -0.5690   -0.1163 C   0  0  0  0  0  0  0  0  0  0  0  0
    1.3702    0.6459   -0.7756 C   0  0  0  0  0  0  0  0  0  0  0  0
    1.3179    1.7879    0.2198 C   0  0  0  0  0  0  0  0  0  0  0  0
   -1.8689    2.1376    1.1240 H   0  0  0  0  0  0  0  0  0  0  0  0
   -1.4071    0.8057    2.2142 H   0  0  0  0  0  0  0  0  0  0  0  0
   -3.1035    0.9534    1.5855 H   0  0  0  0  0  0  0  0  0  0  0  0
   -1.4296    0.9001   -0.7553 H   0  0  0  0  0  0  0  0  0  0  0  0
   -2.5274   -0.3606   -0.1534 H   0  0  0  0  0  0  0  0  0  0  0  0
   -0.6438   -1.2776    1.3527 H   0  0  0  0  0  0  0  0  0  0  0  0
   -0.4914   -1.3351   -1.7510 H   0  0  0  0  0  0  0  0  0  0  0  0
    1.4880   -2.8639   -1.4442 H   0  0  0  0  0  0  0  0  0  0  0  0
    0.7241   -3.3629    0.1942 H   0  0  0  0  0  0  0  0  0  0  0  0
    2.4429    0.5039   -1.0274 H   0  0  0  0  0  0  0  0  0  0  0  0
    0.8590    0.9163   -1.7176 H   0  0  0  0  0  0  0  0  0  0  0  0
    1.5019    1.3259    1.2255 H   0  0  0  0  0  0  0  0  0  0  0  0
    0.3400    2.2906    0.1982 H   0  0  0  0  0  0  0  0  0  0  0  0
    2.1376    2.5252    0.0259 H   0  0  0  0  0  0  0  0  0  0  0  0
  1  2  1  0
  2  3  1  0
  3  4  1  0
  4  5  1  0
  5  6  1  0
  6  7  1  0
  7  8  1  0
  8  9  1  0
  7  3  1  0
  7  4  1  0
  1 10  1  0
  1 11  1  0
  1 12  1  0
  2 13  1  0
  2 14  1  0
  3 15  1  0
  4 16  1  0
  5 17  1  0
  5 18  1  0
  8 19  1  0
  8 20  1  0
  9 21  1  0
  9 22  1  0
  9 23  1  0
M  END
