
     RDKit          3D

 21 22  0  0  0  0  0  0  0  0999 V2000
    2.6173    0.4025   -0.1752 C   0  0  0  0  0  0  0  0  0  0  0  0
    1.5659   -0.2455    0.6761 C   0  0  0  0  0  0  0  0  0  0  0  0
    0.2949   -0.5265   -0.0931 C   0  0  0  0  0  0  0  0  0  0  0  0
   -0.7222   -1.1754    0.8096 C   0  0  0  0  0  0  0  0  0  0  0  0
   -1.5559   -0.1761    1.2810 O   0  0  0  0  0  0  0  0  0  0  0  0
   -1.6985    0.7435    0.2634 C   0  0  0  0  0  0  0  0  0  0  0  0
   -2.3569    0.2347   -0.9891 C   0  0  0  0  0  0  0  0  0  0  0  0
   -1.1628    0.5035   -1.6671 O   0  0  0  0  0  0  0  0  0  0  0  0
   -0.4109    0.7254   -0.5309 C   0  0  0  0  0  0  0  0  0  0  0  0
    2.5574    0.0327   -1.2260 H   0  0  0  0  0  0  0  0  0  0  0  0
    2.5990    1.5188   -0.1219 H   0  0  0  0  0  0  0  0  0  0  0  0
    3.6569    0.1231    0.1606 H   0  0  0  0  0  0  0  0  0  0  0  0
    1.3840    0.3375    1.5918 H   0  0  0  0  0  0  0  0  0  0  0  0
    1.9593   -1.2434    0.9970 H   0  0  0  0  0  0  0  0  0  0  0  0
    0.5172   -1.1333   -0.9672 H   0  0  0  0  0  0  0  0  0  0  0  0
   -0.1797   -1.7096    1.6153 H   0  0  0  0  0  0  0  0  0  0  0  0
   -1.3607   -1.8969    0.2284 H   0  0  0  0  0  0  0  0  0  0  0  0
   -2.0728    1.7210    0.5669 H   0  0  0  0  0  0  0  0  0  0  0  0
   -3.1431    0.9332   -1.3713 H   0  0  0  0  0  0  0  0  0  0  0  0
   -2.6398   -0.8244   -0.9448 H   0  0  0  0  0  0  0  0  0  0  0  0
    0.1513    1.6555   -0.4782 H   0  0  0  0  0  0  0  0  0  0  0  0
  1  2  1  0
  2  3  1  0
  3  4  1  0
  4  5  1  0
  5  6  1  0
  6  7  1  0
  7  8  1  0
  8  9  1  0
  9  3  1  0
  9  6  1  0
  1 10  1  0
  1 11  1  0
  1 12  1  0
  2 13  1  0
  2 14  1  0
  3 15  1  0
  4 16  1  0
  4 17  1  0
  6 18  1  0
  7 19  1  0
  7 20  1  0
  9 21  1  0
M  END
