
     RDKit          3D

 20 20  0  0  0  0  0  0  0  0999 V2000
   -3.3885   -0.1929    0.3082 C   0  0  0  0  0  0  0  0  0  0  0  0
   -2.2192    0.7150   -0.0597 C   0  0  0  0  0  0  0  0  0  0  0  0
   -0.9138    0.0621    0.3124 C   0  0  0  0  0  0  0  0  0  0  0  0
   -0.7472   -1.1951   -0.3811 O   0  0  0  0  0  0  0  0  0  0  0  0
    0.1243   -0.0241   -0.6481 C   0  0  0  0  0  0  0  0  0  0  0  0
    1.5437   -0.4117   -0.3091 C   0  0  0  0  0  0  0  0  0  0  0  0
    2.4124    0.6449   -0.5378 O   0  0  0  0  0  0  0  0  0  0  0  0
    3.7170    0.2853   -0.2251 C   0  0  0  0  0  0  0  0  0  0  0  0
   -3.8093    0.1378    1.2774 H   0  0  0  0  0  0  0  0  0  0  0  0
   -4.1800   -0.1673   -0.4938 H   0  0  0  0  0  0  0  0  0  0  0  0
   -2.9998   -1.2336    0.4418 H   0  0  0  0  0  0  0  0  0  0  0  0
   -2.2713    0.8599   -1.1692 H   0  0  0  0  0  0  0  0  0  0  0  0
   -2.2855    1.6927    0.4558 H   0  0  0  0  0  0  0  0  0  0  0  0
   -0.7366    0.0133    1.3990 H   0  0  0  0  0  0  0  0  0  0  0  0
   -0.0226    0.2920   -1.6914 H   0  0  0  0  0  0  0  0  0  0  0  0
    1.8921   -1.2541   -0.9593 H   0  0  0  0  0  0  0  0  0  0  0  0
    1.6492   -0.7570    0.7383 H   0  0  0  0  0  0  0  0  0  0  0  0
    3.7592    0.0023    0.8453 H   0  0  0  0  0  0  0  0  0  0  0  0
    4.0615   -0.5916   -0.8345 H   0  0  0  0  0  0  0  0  0  0  0  0
    4.4143    1.1221   -0.4329 H   0  0  0  0  0  0  0  0  0  0  0  0
  1  2  1  0
  2  3  1  0
  3  4  1  0
  4  5  1  0
  5  6  1  0
  6  7  1  0
  7  8  1  0
  5  3  1  0
  1  9  1  0
  1 10  1  0
  1 11  1  0
  2 12  1  0
  2 13  1  0
  3 14  1  0
  5 15  1  0
  6 16  1  0
  6 17  1  0
  8 18  1  0
  8 19  1  0
  8 20  1  0
M  END
