
     RDKit          3D

 21 21  0  0  0  0  0  0  0  0999 V2000
    2.5948    0.6219    0.3322 C   0  0  0  0  0  0  0  0  0  0  0  0
    1.3417    0.8308   -0.4534 C   0  0  0  0  0  0  0  0  0  0  0  0
    0.6873   -0.4696   -0.8763 C   0  0  0  0  0  0  0  0  0  0  0  0
    0.3098   -1.3197    0.3015 C   0  0  0  0  0  0  0  0  0  0  0  0
   -1.0410   -0.8442    0.6756 C   0  0  0  0  0  0  0  0  0  0  0  0
   -1.5710   -0.1472   -0.3186 C   0  0  0  0  0  0  0  0  0  0  0  0
   -2.9426    0.4678   -0.2344 C   0  0  0  0  0  0  0  0  0  0  0  0
   -0.6371   -0.0957   -1.4282 C   0  0  0  0  0  0  0  0  0  0  0  0
   -0.8634    0.1965   -2.6080 O   0  0  0  0  0  0  0  0  0  0  0  0
    3.4537    1.2086   -0.0614 H   0  0  0  0  0  0  0  0  0  0  0  0
    2.8662   -0.4501    0.3743 H   0  0  0  0  0  0  0  0  0  0  0  0
    2.3853    0.9363    1.3857 H   0  0  0  0  0  0  0  0  0  0  0  0
    1.5769    1.4118   -1.3677 H   0  0  0  0  0  0  0  0  0  0  0  0
    0.5719    1.4126    0.1027 H   0  0  0  0  0  0  0  0  0  0  0  0
    1.3194   -1.0193   -1.6040 H   0  0  0  0  0  0  0  0  0  0  0  0
    1.0380   -1.2764    1.1274 H   0  0  0  0  0  0  0  0  0  0  0  0
    0.1963   -2.3617   -0.0685 H   0  0  0  0  0  0  0  0  0  0  0  0
   -1.4975   -1.0559    1.6347 H   0  0  0  0  0  0  0  0  0  0  0  0
   -2.9379    1.2474    0.5681 H   0  0  0  0  0  0  0  0  0  0  0  0
   -3.1432    0.9983   -1.1755 H   0  0  0  0  0  0  0  0  0  0  0  0
   -3.7076   -0.2922    0.0188 H   0  0  0  0  0  0  0  0  0  0  0  0
  1  2  1  0
  2  3  1  0
  3  4  1  0
  4  5  1  0
  5  6  2  0
  6  7  1  0
  6  8  1  0
  8  9  2  0
  8  3  1  0
  1 10  1  0
  1 11  1  0
  1 12  1  0
  2 13  1  0
  2 14  1  0
  3 15  1  0
  4 16  1  0
  4 17  1  0
  5 18  1  0
  7 19  1  0
  7 20  1  0
  7 21  1  0
M  END
