
     RDKit          3D

 25 26  0  0  0  0  0  0  0  0999 V2000
    2.9528    0.7712    0.4230 C   0  0  0  0  0  0  0  0  0  0  0  0
    2.0896   -0.2606   -0.2588 C   0  0  0  0  0  0  0  0  0  0  0  0
    0.6737   -0.2675    0.2438 C   0  0  0  0  0  0  0  0  0  0  0  0
   -0.0781   -1.3381   -0.5153 C   0  0  0  0  0  0  0  0  0  0  0  0
   -1.4533   -1.4517    0.0383 C   0  0  0  0  0  0  0  0  0  0  0  0
   -2.0349   -0.2345    0.6181 C   0  0  0  0  0  0  0  0  0  0  0  0
   -2.5750    0.7650   -0.4309 C   0  0  0  0  0  0  0  0  0  0  0  0
   -1.3892    1.0373    0.4191 C   0  0  0  0  0  0  0  0  0  0  0  0
   -0.0058    1.0505   -0.1235 C   0  0  0  0  0  0  0  0  0  0  0  0
    3.8216    0.3076    0.9442 H   0  0  0  0  0  0  0  0  0  0  0  0
    3.3348    1.4713   -0.3617 H   0  0  0  0  0  0  0  0  0  0  0  0
    2.4016    1.3487    1.1988 H   0  0  0  0  0  0  0  0  0  0  0  0
    2.5227   -1.2767   -0.1684 H   0  0  0  0  0  0  0  0  0  0  0  0
    2.0290   -0.0697   -1.3685 H   0  0  0  0  0  0  0  0  0  0  0  0
    0.5843   -0.4978    1.3093 H   0  0  0  0  0  0  0  0  0  0  0  0
    0.4314   -2.3189   -0.4599 H   0  0  0  0  0  0  0  0  0  0  0  0
   -0.1083   -1.0709   -1.6116 H   0  0  0  0  0  0  0  0  0  0  0  0
   -1.4927   -2.3037    0.7785 H   0  0  0  0  0  0  0  0  0  0  0  0
   -2.1192   -1.8057   -0.8032 H   0  0  0  0  0  0  0  0  0  0  0  0
   -2.6634   -0.3816    1.5245 H   0  0  0  0  0  0  0  0  0  0  0  0
   -2.4199    0.5417   -1.4854 H   0  0  0  0  0  0  0  0  0  0  0  0
   -3.5503    1.1953   -0.1814 H   0  0  0  0  0  0  0  0  0  0  0  0
   -1.5697    1.8286    1.2048 H   0  0  0  0  0  0  0  0  0  0  0  0
   -0.0177    1.1124   -1.2403 H   0  0  0  0  0  0  0  0  0  0  0  0
    0.6360    1.8477    0.3066 H   0  0  0  0  0  0  0  0  0  0  0  0
  1  2  1  0
  2  3  1  0
  3  4  1  0
  4  5  1  0
  5  6  1  0
  6  7  1  0
  7  8  1  0
  8  9  1  0
  9  3  1  0
  8  6  1  0
  1 10  1  0
  1 11  1  0
  1 12  1  0
  2 13  1  0
  2 14  1  0
  3 15  1  0
  4 16  1  0
  4 17  1  0
  5 18  1  0
  5 19  1  0
  6 20  1  0
  7 21  1  0
  7 22  1  0
  8 23  1  0
  9 24  1  0
  9 25  1  0
M  END
