
     RDKit          3D

 27 27  0  0  0  0  0  0  0  0999 V2000
    2.6958    1.0305    0.5013 C   0  0  0  0  0  0  0  0  0  0  0  0
    1.7353   -0.1410    0.5301 C   0  0  0  0  0  0  0  0  0  0  0  0
    0.5318    0.1351   -0.3816 C   0  0  0  0  0  0  0  0  0  0  0  0
   -0.1272    1.3718    0.1522 C   0  0  0  0  0  0  0  0  0  0  0  0
   -1.4274    1.5383   -0.6166 C   0  0  0  0  0  0  0  0  0  0  0  0
   -2.3434    0.4585   -0.0857 C   0  0  0  0  0  0  0  0  0  0  0  0
   -1.7510   -0.8924   -0.0788 C   0  0  0  0  0  0  0  0  0  0  0  0
   -0.3539   -1.0358   -0.5325 C   0  0  0  0  0  0  0  0  0  0  0  0
    0.2279   -2.2722    0.1733 C   0  0  0  0  0  0  0  0  0  0  0  0
    3.6317    0.7011    0.9890 H   0  0  0  0  0  0  0  0  0  0  0  0
    2.9005    1.2254   -0.5886 H   0  0  0  0  0  0  0  0  0  0  0  0
    2.2236    1.8910    0.9978 H   0  0  0  0  0  0  0  0  0  0  0  0
    2.3289   -1.0096    0.1378 H   0  0  0  0  0  0  0  0  0  0  0  0
    1.3724   -0.3607    1.5575 H   0  0  0  0  0  0  0  0  0  0  0  0
    0.9993    0.4417   -1.3644 H   0  0  0  0  0  0  0  0  0  0  0  0
    0.5211    2.2366   -0.0840 H   0  0  0  0  0  0  0  0  0  0  0  0
   -0.3304    1.3609    1.2225 H   0  0  0  0  0  0  0  0  0  0  0  0
   -1.2714    1.4928   -1.6982 H   0  0  0  0  0  0  0  0  0  0  0  0
   -1.9165    2.5201   -0.3601 H   0  0  0  0  0  0  0  0  0  0  0  0
   -2.6202    0.7981    0.9568 H   0  0  0  0  0  0  0  0  0  0  0  0
   -3.2969    0.5330   -0.6599 H   0  0  0  0  0  0  0  0  0  0  0  0
   -1.8644   -1.3265    0.9582 H   0  0  0  0  0  0  0  0  0  0  0  0
   -2.4090   -1.5612   -0.7101 H   0  0  0  0  0  0  0  0  0  0  0  0
   -0.3591   -1.3390   -1.6221 H   0  0  0  0  0  0  0  0  0  0  0  0
    0.2951   -2.1000    1.2594 H   0  0  0  0  0  0  0  0  0  0  0  0
    1.1456   -2.6203   -0.2965 H   0  0  0  0  0  0  0  0  0  0  0  0
   -0.5381   -3.0764    0.0336 H   0  0  0  0  0  0  0  0  0  0  0  0
  1  2  1  0
  2  3  1  0
  3  4  1  0
  4  5  1  0
  5  6  1  0
  6  7  1  0
  7  8  1  0
  8  9  1  0
  8  3  1  0
  1 10  1  0
  1 11  1  0
  1 12  1  0
  2 13  1  0
  2 14  1  0
  3 15  1  0
  4 16  1  0
  4 17  1  0
  5 18  1  0
  5 19  1  0
  6 20  1  0
  6 21  1  0
  7 22  1  0
  7 23  1  0
  8 24  1  0
  9 25  1  0
  9 26  1  0
  9 27  1  0
M  END
