
     RDKit          3D

 23 23  0  0  0  0  0  0  0  0999 V2000
   -1.6635   -1.6632    0.0274 C   0  0  0  0  0  0  0  0  0  0  0  0
   -0.4440   -0.9781    0.6619 C   0  0  0  0  0  0  0  0  0  0  0  0
   -0.1593    0.2981   -0.0674 C   0  0  0  0  0  0  0  0  0  0  0  0
   -1.3188    1.2760   -0.0208 C   0  0  0  0  0  0  0  0  0  0  0  0
   -1.5688    1.5735    1.3386 O   0  0  0  0  0  0  0  0  0  0  0  0
    0.3662    0.0852   -1.4847 C   0  0  0  0  0  0  0  0  0  0  0  0
    1.1517    0.8170   -0.3747 C   0  0  0  0  0  0  0  0  0  0  0  0
    2.4633    0.2182   -0.0652 C   0  0  0  0  0  0  0  0  0  0  0  0
    2.7312    0.0127    1.2723 O   0  0  0  0  0  0  0  0  0  0  0  0
   -2.5514   -1.0138    0.0695 H   0  0  0  0  0  0  0  0  0  0  0  0
   -1.9201   -2.5860    0.5875 H   0  0  0  0  0  0  0  0  0  0  0  0
   -1.3839   -1.9244   -1.0248 H   0  0  0  0  0  0  0  0  0  0  0  0
   -0.7377   -0.7461    1.7058 H   0  0  0  0  0  0  0  0  0  0  0  0
    0.3531   -1.7173    0.6427 H   0  0  0  0  0  0  0  0  0  0  0  0
   -2.2193    0.9133   -0.5107 H   0  0  0  0  0  0  0  0  0  0  0  0
   -1.0542    2.2479   -0.4929 H   0  0  0  0  0  0  0  0  0  0  0  0
   -2.2672    2.2692    1.3553 H   0  0  0  0  0  0  0  0  0  0  0  0
    0.7044   -0.9193   -1.7650 H   0  0  0  0  0  0  0  0  0  0  0  0
   -0.0001    0.7221   -2.2969 H   0  0  0  0  0  0  0  0  0  0  0  0
    1.2237    1.9415   -0.5125 H   0  0  0  0  0  0  0  0  0  0  0  0
    3.3198    0.8228   -0.4675 H   0  0  0  0  0  0  0  0  0  0  0  0
    2.5542   -0.7677   -0.5626 H   0  0  0  0  0  0  0  0  0  0  0  0
    2.4209   -0.8816    1.5254 H   0  0  0  0  0  0  0  0  0  0  0  0
  1  2  1  0
  2  3  1  0
  3  4  1  0
  4  5  1  0
  3  6  1  0
  6  7  1  0
  7  8  1  0
  8  9  1  0
  7  3  1  0
  1 10  1  0
  1 11  1  0
  1 12  1  0
  2 13  1  0
  2 14  1  0
  4 15  1  0
  4 16  1  0
  5 17  1  0
  6 18  1  0
  6 19  1  0
  7 20  1  0
  8 21  1  0
  8 22  1  0
  9 23  1  0
M  END
