
     RDKit          3D

 25 25  0  0  0  0  0  0  0  0999 V2000
    2.0120    1.4092   -0.0052 C   0  0  0  0  0  0  0  0  0  0  0  0
    1.7344    0.2743    0.9096 C   0  0  0  0  0  0  0  0  0  0  0  0
    0.7875   -0.7460    0.3801 C   0  0  0  0  0  0  0  0  0  0  0  0
    1.2669   -1.4032   -0.8997 C   0  0  0  0  0  0  0  0  0  0  0  0
    0.1282   -2.0017   -1.4372 O   0  0  0  0  0  0  0  0  0  0  0  0
   -0.9720   -1.3385   -0.9576 C   0  0  0  0  0  0  0  0  0  0  0  0
   -0.4830   -0.1371   -0.1914 C   0  0  0  0  0  0  0  0  0  0  0  0
   -1.4349    0.3262    0.8611 C   0  0  0  0  0  0  0  0  0  0  0  0
   -2.6405    0.9034    0.1471 C   0  0  0  0  0  0  0  0  0  0  0  0
    2.4020    1.1309   -0.9902 H   0  0  0  0  0  0  0  0  0  0  0  0
    1.1027    2.0573   -0.0564 H   0  0  0  0  0  0  0  0  0  0  0  0
    2.8145    2.0358    0.4754 H   0  0  0  0  0  0  0  0  0  0  0  0
    2.6965   -0.2400    1.1265 H   0  0  0  0  0  0  0  0  0  0  0  0
    1.3549    0.6559    1.8585 H   0  0  0  0  0  0  0  0  0  0  0  0
    0.5876   -1.5266    1.1109 H   0  0  0  0  0  0  0  0  0  0  0  0
    1.5815   -0.6254   -1.6231 H   0  0  0  0  0  0  0  0  0  0  0  0
    2.0688   -2.1310   -0.6815 H   0  0  0  0  0  0  0  0  0  0  0  0
   -1.4650   -2.0186   -0.2038 H   0  0  0  0  0  0  0  0  0  0  0  0
   -1.7354   -1.0956   -1.7157 H   0  0  0  0  0  0  0  0  0  0  0  0
   -0.2027    0.6956   -0.8322 H   0  0  0  0  0  0  0  0  0  0  0  0
   -0.9741    1.1384    1.4552 H   0  0  0  0  0  0  0  0  0  0  0  0
   -1.8167   -0.4907    1.5068 H   0  0  0  0  0  0  0  0  0  0  0  0
   -3.2851    1.5043    0.7859 H   0  0  0  0  0  0  0  0  0  0  0  0
   -2.3027    1.5485   -0.6953 H   0  0  0  0  0  0  0  0  0  0  0  0
   -3.2256    0.0747   -0.3278 H   0  0  0  0  0  0  0  0  0  0  0  0
  1  2  1  0
  2  3  1  0
  3  4  1  0
  4  5  1  0
  5  6  1  0
  6  7  1  0
  7  8  1  0
  8  9  1  0
  7  3  1  0
  1 10  1  0
  1 11  1  0
  1 12  1  0
  2 13  1  0
  2 14  1  0
  3 15  1  0
  4 16  1  0
  4 17  1  0
  6 18  1  0
  6 19  1  0
  7 20  1  0
  8 21  1  0
  8 22  1  0
  9 23  1  0
  9 24  1  0
  9 25  1  0
M  END
