
     RDKit          3D

 23 24  0  0  0  0  0  0  0  0999 V2000
   -2.9039   -0.5859   -0.0256 C   0  0  0  0  0  0  0  0  0  0  0  0
   -1.8228    0.2556    0.5585 C   0  0  0  0  0  0  0  0  0  0  0  0
   -0.4555   -0.0956    0.0914 C   0  0  0  0  0  0  0  0  0  0  0  0
   -0.0351   -1.0148   -0.7432 C   0  0  0  0  0  0  0  0  0  0  0  0
    1.4445   -0.9857   -0.9000 C   0  0  0  0  0  0  0  0  0  0  0  0
    2.2060   -1.4646    0.2821 C   0  0  0  0  0  0  0  0  0  0  0  0
    1.9626   -0.0272    0.1389 C   0  0  0  0  0  0  0  0  0  0  0  0
    0.7410    0.6705    0.5968 C   0  0  0  0  0  0  0  0  0  0  0  0
    0.6840    2.0266   -0.1120 C   0  0  0  0  0  0  0  0  0  0  0  0
   -2.5960   -1.3493   -0.7380 H   0  0  0  0  0  0  0  0  0  0  0  0
   -3.6746    0.0630   -0.5375 H   0  0  0  0  0  0  0  0  0  0  0  0
   -3.4770   -1.0307    0.8415 H   0  0  0  0  0  0  0  0  0  0  0  0
   -1.7868    0.2136    1.6826 H   0  0  0  0  0  0  0  0  0  0  0  0
   -2.0152    1.3299    0.3194 H   0  0  0  0  0  0  0  0  0  0  0  0
   -0.6676   -1.7192   -1.2657 H   0  0  0  0  0  0  0  0  0  0  0  0
    1.8905   -0.8872   -1.8938 H   0  0  0  0  0  0  0  0  0  0  0  0
    3.2391   -1.8101    0.0727 H   0  0  0  0  0  0  0  0  0  0  0  0
    1.6771   -2.0998    1.0152 H   0  0  0  0  0  0  0  0  0  0  0  0
    2.8101    0.6342   -0.1555 H   0  0  0  0  0  0  0  0  0  0  0  0
    0.6614    0.8471    1.6730 H   0  0  0  0  0  0  0  0  0  0  0  0
    1.3408    2.7501    0.4107 H   0  0  0  0  0  0  0  0  0  0  0  0
   -0.3484    2.3899   -0.1879 H   0  0  0  0  0  0  0  0  0  0  0  0
    1.1259    1.8896   -1.1235 H   0  0  0  0  0  0  0  0  0  0  0  0
  1  2  1  0
  2  3  1  0
  3  4  2  0
  4  5  1  0
  5  6  1  0
  6  7  1  0
  7  8  1  0
  8  9  1  0
  8  3  1  0
  7  5  1  0
  1 10  1  0
  1 11  1  0
  1 12  1  0
  2 13  1  0
  2 14  1  0
  4 15  1  0
  5 16  1  0
  6 17  1  0
  6 18  1  0
  7 19  1  0
  8 20  1  0
  9 21  1  0
  9 22  1  0
  9 23  1  0
M  END
