
     RDKit          3D

 23 23  0  0  0  0  0  0  0  0999 V2000
   -2.0228   -0.6403    0.7551 C   0  0  0  0  0  0  0  0  0  0  0  0
   -1.5678    0.2256   -0.3705 C   0  0  0  0  0  0  0  0  0  0  0  0
   -0.2125    0.8452   -0.1992 C   0  0  0  0  0  0  0  0  0  0  0  0
    1.0073    0.0022   -0.0337 C   0  0  0  0  0  0  0  0  0  0  0  0
    1.1628   -0.8797   -1.2588 C   0  0  0  0  0  0  0  0  0  0  0  0
    1.0903   -0.8068    1.2062 C   0  0  0  0  0  0  0  0  0  0  0  0
    1.0624   -0.0408    2.3728 O   0  0  0  0  0  0  0  0  0  0  0  0
    0.0065    2.0672   -1.0937 C   0  0  0  0  0  0  0  0  0  0  0  0
   -0.1736    2.1549    0.2667 O   0  0  0  0  0  0  0  0  0  0  0  0
   -1.6399   -0.3822    1.7387 H   0  0  0  0  0  0  0  0  0  0  0  0
   -3.1473   -0.5426    0.8169 H   0  0  0  0  0  0  0  0  0  0  0  0
   -1.8738   -1.7252    0.5191 H   0  0  0  0  0  0  0  0  0  0  0  0
   -2.3554    1.0096   -0.5418 H   0  0  0  0  0  0  0  0  0  0  0  0
   -1.6023   -0.3985   -1.2912 H   0  0  0  0  0  0  0  0  0  0  0  0
    1.9373    0.6488   -0.0413 H   0  0  0  0  0  0  0  0  0  0  0  0
    0.8482   -1.9111   -0.9815 H   0  0  0  0  0  0  0  0  0  0  0  0
    2.2199   -0.9669   -1.5872 H   0  0  0  0  0  0  0  0  0  0  0  0
    0.6036   -0.4728   -2.1151 H   0  0  0  0  0  0  0  0  0  0  0  0
    2.0980   -1.3241    1.1773 H   0  0  0  0  0  0  0  0  0  0  0  0
    0.3673   -1.6162    1.3248 H   0  0  0  0  0  0  0  0  0  0  0  0
    1.9766    0.1548    2.6602 H   0  0  0  0  0  0  0  0  0  0  0  0
   -0.8002    2.3712   -1.7890 H   0  0  0  0  0  0  0  0  0  0  0  0
    1.0155    2.2275   -1.5347 H   0  0  0  0  0  0  0  0  0  0  0  0
  1  2  1  0
  2  3  1  0
  3  4  1  0
  4  5  1  0
  4  6  1  0
  6  7  1  0
  3  8  1  0
  8  9  1  0
  9  3  1  0
  1 10  1  0
  1 11  1  0
  1 12  1  0
  2 13  1  0
  2 14  1  0
  4 15  1  0
  5 16  1  0
  5 17  1  0
  5 18  1  0
  6 19  1  0
  6 20  1  0
  7 21  1  0
  8 22  1  0
  8 23  1  0
M  END
