
     RDKit          3D

 25 25  0  0  0  0  0  0  0  0999 V2000
    2.6503    0.9126    0.6540 C   0  0  0  0  0  0  0  0  0  0  0  0
    1.7123   -0.3045    0.7576 C   0  0  0  0  0  0  0  0  0  0  0  0
    1.0496   -0.5662   -0.5239 C   0  0  0  0  0  0  0  0  0  0  0  0
    0.0951   -1.7656   -0.5137 C   0  0  0  0  0  0  0  0  0  0  0  0
   -0.2787   -0.3437   -0.9909 C   0  0  0  0  0  0  0  0  0  0  0  0
   -0.4119   -0.3311   -2.4202 O   0  0  0  0  0  0  0  0  0  0  0  0
   -1.4821    0.1970   -0.3829 C   0  0  0  0  0  0  0  0  0  0  0  0
   -1.9123   -0.6264    0.8087 C   0  0  0  0  0  0  0  0  0  0  0  0
   -1.4472    1.6245    0.0830 C   0  0  0  0  0  0  0  0  0  0  0  0
    2.1219    1.6489   -0.0148 H   0  0  0  0  0  0  0  0  0  0  0  0
    3.6329    0.6132    0.2590 H   0  0  0  0  0  0  0  0  0  0  0  0
    2.7993    1.3889    1.6353 H   0  0  0  0  0  0  0  0  0  0  0  0
    2.4225   -1.1619    0.9597 H   0  0  0  0  0  0  0  0  0  0  0  0
    1.1552   -0.1531    1.6570 H   0  0  0  0  0  0  0  0  0  0  0  0
    1.8532   -0.7207   -1.3185 H   0  0  0  0  0  0  0  0  0  0  0  0
    0.2130   -2.5682   -1.2510 H   0  0  0  0  0  0  0  0  0  0  0  0
   -0.2767   -2.1116    0.4612 H   0  0  0  0  0  0  0  0  0  0  0  0
   -0.7471    0.5396   -2.7193 H   0  0  0  0  0  0  0  0  0  0  0  0
   -2.3865    0.1558   -1.0666 H   0  0  0  0  0  0  0  0  0  0  0  0
   -1.1374   -0.6429    1.5635 H   0  0  0  0  0  0  0  0  0  0  0  0
   -2.7951   -0.0902    1.2725 H   0  0  0  0  0  0  0  0  0  0  0  0
   -2.2364   -1.6288    0.4405 H   0  0  0  0  0  0  0  0  0  0  0  0
   -2.4320    1.7945    0.6131 H   0  0  0  0  0  0  0  0  0  0  0  0
   -1.4798    2.2941   -0.7848 H   0  0  0  0  0  0  0  0  0  0  0  0
   -0.6821    1.8460    0.8216 H   0  0  0  0  0  0  0  0  0  0  0  0
  1  2  1  0
  2  3  1  0
  3  4  1  0
  4  5  1  0
  5  6  1  0
  5  7  1  0
  7  8  1  0
  7  9  1  0
  5  3  1  0
  1 10  1  0
  1 11  1  0
  1 12  1  0
  2 13  1  0
  2 14  1  0
  3 15  1  0
  4 16  1  0
  4 17  1  0
  6 18  1  0
  7 19  1  0
  8 20  1  0
  8 21  1  0
  8 22  1  0
  9 23  1  0
  9 24  1  0
  9 25  1  0
M  END
