
     RDKit          3D

 23 23  0  0  0  0  0  0  0  0999 V2000
    2.9078    0.3357   -0.3778 C   0  0  0  0  0  0  0  0  0  0  0  0
    1.7424   -0.4608    0.1051 C   0  0  0  0  0  0  0  0  0  0  0  0
    0.4375    0.2329   -0.0616 C   0  0  0  0  0  0  0  0  0  0  0  0
    0.1670    1.4311   -0.5666 C   0  0  0  0  0  0  0  0  0  0  0  0
   -1.2843    1.7034   -0.5294 C   0  0  0  0  0  0  0  0  0  0  0  0
   -1.8684    0.3062   -0.5065 C   0  0  0  0  0  0  0  0  0  0  0  0
   -3.0752    0.2281    0.1423 O   0  0  0  0  0  0  0  0  0  0  0  0
   -0.8395   -0.4115    0.3658 C   0  0  0  0  0  0  0  0  0  0  0  0
   -0.8328   -1.8898    0.0686 C   0  0  0  0  0  0  0  0  0  0  0  0
    3.8191   -0.0325    0.1683 H   0  0  0  0  0  0  0  0  0  0  0  0
    3.1321    0.1726   -1.4542 H   0  0  0  0  0  0  0  0  0  0  0  0
    2.8238    1.4045   -0.1496 H   0  0  0  0  0  0  0  0  0  0  0  0
    1.8749   -0.6331    1.1932 H   0  0  0  0  0  0  0  0  0  0  0  0
    1.6733   -1.4311   -0.3895 H   0  0  0  0  0  0  0  0  0  0  0  0
    0.9087    2.1250   -0.9574 H   0  0  0  0  0  0  0  0  0  0  0  0
   -1.6470    2.3109   -1.3723 H   0  0  0  0  0  0  0  0  0  0  0  0
   -1.4978    2.1751    0.4660 H   0  0  0  0  0  0  0  0  0  0  0  0
   -1.8595   -0.1416   -1.5181 H   0  0  0  0  0  0  0  0  0  0  0  0
   -3.0889   -0.5300    0.8057 H   0  0  0  0  0  0  0  0  0  0  0  0
   -0.9929   -0.1699    1.4200 H   0  0  0  0  0  0  0  0  0  0  0  0
   -1.8652   -2.2761   -0.1172 H   0  0  0  0  0  0  0  0  0  0  0  0
   -0.4067   -2.4235    0.9345 H   0  0  0  0  0  0  0  0  0  0  0  0
   -0.2284   -2.0256   -0.8578 H   0  0  0  0  0  0  0  0  0  0  0  0
  1  2  1  0
  2  3  1  0
  3  4  2  0
  4  5  1  0
  5  6  1  0
  6  7  1  0
  6  8  1  0
  8  9  1  0
  8  3  1  0
  1 10  1  0
  1 11  1  0
  1 12  1  0
  2 13  1  0
  2 14  1  0
  4 15  1  0
  5 16  1  0
  5 17  1  0
  6 18  1  0
  7 19  1  0
  8 20  1  0
  9 21  1  0
  9 22  1  0
  9 23  1  0
M  END
