
     RDKit          3D

 21 21  0  0  0  0  0  0  0  0999 V2000
   -2.5916    1.2247   -0.0336 C   0  0  0  0  0  0  0  0  0  0  0  0
   -1.9165    0.0098    0.5131 C   0  0  0  0  0  0  0  0  0  0  0  0
   -0.9637   -0.6316   -0.4843 C   0  0  0  0  0  0  0  0  0  0  0  0
   -0.3735   -1.8073    0.1807 C   0  0  0  0  0  0  0  0  0  0  0  0
    0.8462   -1.5025    0.5444 C   0  0  0  0  0  0  0  0  0  0  0  0
    1.1047   -0.1067    0.1292 C   0  0  0  0  0  0  0  0  0  0  0  0
    2.3669   -0.0813   -0.4658 O   0  0  0  0  0  0  0  0  0  0  0  0
    3.2250    0.8118    0.1588 C   0  0  0  0  0  0  0  0  0  0  0  0
    0.0995    0.1715   -0.7902 O   0  0  0  0  0  0  0  0  0  0  0  0
   -2.5835    1.1971   -1.1568 H   0  0  0  0  0  0  0  0  0  0  0  0
   -2.1471    2.1711    0.3138 H   0  0  0  0  0  0  0  0  0  0  0  0
   -3.6736    1.1945    0.2617 H   0  0  0  0  0  0  0  0  0  0  0  0
   -1.4167    0.2044    1.4691 H   0  0  0  0  0  0  0  0  0  0  0  0
   -2.6926   -0.7809    0.7338 H   0  0  0  0  0  0  0  0  0  0  0  0
   -1.5540   -0.9076   -1.3921 H   0  0  0  0  0  0  0  0  0  0  0  0
   -0.8721   -2.7488    0.3338 H   0  0  0  0  0  0  0  0  0  0  0  0
    1.5433   -2.1640    1.0614 H   0  0  0  0  0  0  0  0  0  0  0  0
    1.0780    0.6070    0.9809 H   0  0  0  0  0  0  0  0  0  0  0  0
    4.1917    0.7588   -0.3820 H   0  0  0  0  0  0  0  0  0  0  0  0
    2.8802    1.8616    0.0897 H   0  0  0  0  0  0  0  0  0  0  0  0
    3.4497    0.5184    1.2114 H   0  0  0  0  0  0  0  0  0  0  0  0
  1  2  1  0
  2  3  1  0
  3  4  1  0
  4  5  2  0
  5  6  1  0
  6  7  1  0
  7  8  1  0
  6  9  1  0
  9  3  1  0
  1 10  1  0
  1 11  1  0
  1 12  1  0
  2 13  1  0
  2 14  1  0
  3 15  1  0
  4 16  1  0
  5 17  1  0
  6 18  1  0
  8 19  1  0
  8 20  1  0
  8 21  1  0
M  END
