
     RDKit          3D

 23 24  0  0  0  0  0  0  0  0999 V2000
    2.3380    0.0817   -0.8208 C   0  0  0  0  0  0  0  0  0  0  0  0
    1.2827    0.5860    0.0995 C   0  0  0  0  0  0  0  0  0  0  0  0
    0.0165   -0.2259    0.0780 C   0  0  0  0  0  0  0  0  0  0  0  0
    0.3920   -1.6459    0.4972 C   0  0  0  0  0  0  0  0  0  0  0  0
   -0.6563   -0.2821   -1.2369 C   0  0  0  0  0  0  0  0  0  0  0  0
   -1.9651    0.1034   -1.1030 O   0  0  0  0  0  0  0  0  0  0  0  0
   -2.2632    0.2953    0.2117 C   0  0  0  0  0  0  0  0  0  0  0  0
   -1.7288    1.5493    0.8360 C   0  0  0  0  0  0  0  0  0  0  0  0
   -1.0223    0.2625    1.0203 C   0  0  0  0  0  0  0  0  0  0  0  0
    2.1437    0.3613   -1.8832 H   0  0  0  0  0  0  0  0  0  0  0  0
    3.2933    0.6004   -0.5564 H   0  0  0  0  0  0  0  0  0  0  0  0
    2.5449   -0.9989   -0.7078 H   0  0  0  0  0  0  0  0  0  0  0  0
    1.0491    1.6400   -0.2014 H   0  0  0  0  0  0  0  0  0  0  0  0
    1.7141    0.6619    1.1176 H   0  0  0  0  0  0  0  0  0  0  0  0
    0.6036   -2.2278   -0.4273 H   0  0  0  0  0  0  0  0  0  0  0  0
   -0.4600   -2.0938    1.0179 H   0  0  0  0  0  0  0  0  0  0  0  0
    1.2985   -1.6375    1.1296 H   0  0  0  0  0  0  0  0  0  0  0  0
   -0.1324    0.3270   -2.0312 H   0  0  0  0  0  0  0  0  0  0  0  0
   -0.6747   -1.3238   -1.6737 H   0  0  0  0  0  0  0  0  0  0  0  0
   -3.1720   -0.1493    0.6626 H   0  0  0  0  0  0  0  0  0  0  0  0
   -2.2772    1.9325    1.7282 H   0  0  0  0  0  0  0  0  0  0  0  0
   -1.3268    2.3620    0.2044 H   0  0  0  0  0  0  0  0  0  0  0  0
   -0.9975   -0.1783    2.0388 H   0  0  0  0  0  0  0  0  0  0  0  0
  1  2  1  0
  2  3  1  0
  3  4  1  0
  3  5  1  0
  5  6  1  0
  6  7  1  0
  7  8  1  0
  8  9  1  0
  9  3  1  0
  9  7  1  0
  1 10  1  0
  1 11  1  0
  1 12  1  0
  2 13  1  0
  2 14  1  0
  4 15  1  0
  4 16  1  0
  4 17  1  0
  5 18  1  0
  5 19  1  0
  7 20  1  0
  8 21  1  0
  8 22  1  0
  9 23  1  0
M  END
