
     RDKit          3D

 23 24  0  0  0  0  0  0  0  0999 V2000
    2.3881    0.5064    0.9217 C   0  0  0  0  0  0  0  0  0  0  0  0
    1.5320   -0.3581    0.0466 C   0  0  0  0  0  0  0  0  0  0  0  0
    0.4930    0.4075   -0.7258 C   0  0  0  0  0  0  0  0  0  0  0  0
   -0.2754   -0.6281   -1.5527 C   0  0  0  0  0  0  0  0  0  0  0  0
   -1.2232   -1.1813   -0.5162 C   0  0  0  0  0  0  0  0  0  0  0  0
   -1.6602   -0.0215    0.3075 C   0  0  0  0  0  0  0  0  0  0  0  0
   -2.9919    0.3451    0.1559 O   0  0  0  0  0  0  0  0  0  0  0  0
   -0.9009    0.4979    1.4522 C   0  0  0  0  0  0  0  0  0  0  0  0
   -0.5774    1.0065    0.1059 C   0  0  0  0  0  0  0  0  0  0  0  0
    3.3779    0.7214    0.4348 H   0  0  0  0  0  0  0  0  0  0  0  0
    2.6425   -0.0869    1.8355 H   0  0  0  0  0  0  0  0  0  0  0  0
    1.9480    1.4603    1.2040 H   0  0  0  0  0  0  0  0  0  0  0  0
    1.0835   -1.1942    0.6405 H   0  0  0  0  0  0  0  0  0  0  0  0
    2.2015   -0.8314   -0.7117 H   0  0  0  0  0  0  0  0  0  0  0  0
    1.0197    1.1222   -1.3806 H   0  0  0  0  0  0  0  0  0  0  0  0
   -0.8120   -0.1365   -2.3968 H   0  0  0  0  0  0  0  0  0  0  0  0
    0.4504   -1.3894   -1.8803 H   0  0  0  0  0  0  0  0  0  0  0  0
   -0.7001   -1.9753    0.0262 H   0  0  0  0  0  0  0  0  0  0  0  0
   -2.0841   -1.6600   -1.0383 H   0  0  0  0  0  0  0  0  0  0  0  0
   -3.2847    0.3418   -0.7920 H   0  0  0  0  0  0  0  0  0  0  0  0
   -1.4697    1.1756    2.1375 H   0  0  0  0  0  0  0  0  0  0  0  0
   -0.1669   -0.1118    1.9883 H   0  0  0  0  0  0  0  0  0  0  0  0
   -0.9902    1.9897   -0.2624 H   0  0  0  0  0  0  0  0  0  0  0  0
  1  2  1  0
  2  3  1  0
  3  4  1  0
  4  5  1  0
  5  6  1  0
  6  7  1  0
  6  8  1  0
  8  9  1  0
  9  3  1  0
  9  6  1  0
  1 10  1  0
  1 11  1  0
  1 12  1  0
  2 13  1  0
  2 14  1  0
  3 15  1  0
  4 16  1  0
  4 17  1  0
  5 18  1  0
  5 19  1  0
  7 20  1  0
  8 21  1  0
  8 22  1  0
  9 23  1  0
M  END
