
     RDKit          3D

 22 22  0  0  0  0  0  0  0  0999 V2000
   -1.8467    1.2055    0.2138 C   0  0  0  0  0  0  0  0  0  0  0  0
   -0.9794    0.1564    0.8388 C   0  0  0  0  0  0  0  0  0  0  0  0
    0.0081   -0.4596   -0.1081 C   0  0  0  0  0  0  0  0  0  0  0  0
    0.9958    0.4552   -0.7407 C   0  0  0  0  0  0  0  0  0  0  0  0
    1.8726    1.1712    0.2515 C   0  0  0  0  0  0  0  0  0  0  0  0
   -0.5584   -1.4289   -1.1096 C   0  0  0  0  0  0  0  0  0  0  0  0
    0.5694   -2.2410   -0.8562 O   0  0  0  0  0  0  0  0  0  0  0  0
    0.5341   -1.7542    0.4405 C   0  0  0  0  0  0  0  0  0  0  0  0
   -1.1784    1.9664   -0.2544 H   0  0  0  0  0  0  0  0  0  0  0  0
   -2.5114    0.8205   -0.5726 H   0  0  0  0  0  0  0  0  0  0  0  0
   -2.4653    1.6473    1.0259 H   0  0  0  0  0  0  0  0  0  0  0  0
   -0.3758    0.6742    1.6364 H   0  0  0  0  0  0  0  0  0  0  0  0
   -1.5687   -0.6098    1.3781 H   0  0  0  0  0  0  0  0  0  0  0  0
    1.5998   -0.0627   -1.4981 H   0  0  0  0  0  0  0  0  0  0  0  0
    0.4171    1.2400   -1.2973 H   0  0  0  0  0  0  0  0  0  0  0  0
    2.9402    1.1461   -0.0660 H   0  0  0  0  0  0  0  0  0  0  0  0
    1.6136    2.2599    0.3398 H   0  0  0  0  0  0  0  0  0  0  0  0
    1.7700    0.7549    1.2624 H   0  0  0  0  0  0  0  0  0  0  0  0
   -1.4527   -1.9134   -0.7208 H   0  0  0  0  0  0  0  0  0  0  0  0
   -0.6035   -1.0485   -2.1469 H   0  0  0  0  0  0  0  0  0  0  0  0
   -0.2713   -2.2748    1.0089 H   0  0  0  0  0  0  0  0  0  0  0  0
    1.4910   -1.7046    0.9745 H   0  0  0  0  0  0  0  0  0  0  0  0
  1  2  1  0
  2  3  1  0
  3  4  1  0
  4  5  1  0
  3  6  1  0
  6  7  1  0
  7  8  1  0
  8  3  1  0
  1  9  1  0
  1 10  1  0
  1 11  1  0
  2 12  1  0
  2 13  1  0
  4 14  1  0
  4 15  1  0
  5 16  1  0
  5 17  1  0
  5 18  1  0
  6 19  1  0
  6 20  1  0
  8 21  1  0
  8 22  1  0
M  END
