
     RDKit          3D

 21 22  0  0  0  0  0  0  0  0999 V2000
    2.6733    0.0753    0.4507 C   0  0  0  0  0  0  0  0  0  0  0  0
    1.4883   -0.3190   -0.3945 C   0  0  0  0  0  0  0  0  0  0  0  0
    0.2904    0.5090   -0.0485 C   0  0  0  0  0  0  0  0  0  0  0  0
   -0.0727    0.3458    1.3134 O   0  0  0  0  0  0  0  0  0  0  0  0
   -1.3993    0.0156    1.2309 C   0  0  0  0  0  0  0  0  0  0  0  0
   -1.3929   -1.0992    0.1707 C   0  0  0  0  0  0  0  0  0  0  0  0
   -0.9619    0.0757   -0.7176 C   0  0  0  0  0  0  0  0  0  0  0  0
   -1.0985   -0.0114   -2.0195 O   0  0  0  0  0  0  0  0  0  0  0  0
   -2.0012    0.8624    0.0980 C   0  0  0  0  0  0  0  0  0  0  0  0
    2.4405    0.2326    1.5050 H   0  0  0  0  0  0  0  0  0  0  0  0
    3.3953   -0.7852    0.3959 H   0  0  0  0  0  0  0  0  0  0  0  0
    3.1897    0.9287   -0.0278 H   0  0  0  0  0  0  0  0  0  0  0  0
    1.2683   -1.3901   -0.2420 H   0  0  0  0  0  0  0  0  0  0  0  0
    1.7531   -0.0907   -1.4453 H   0  0  0  0  0  0  0  0  0  0  0  0
    0.4742    1.5767   -0.1855 H   0  0  0  0  0  0  0  0  0  0  0  0
   -1.9946   -0.1390    2.0940 H   0  0  0  0  0  0  0  0  0  0  0  0
   -2.4058   -1.4620   -0.0406 H   0  0  0  0  0  0  0  0  0  0  0  0
   -0.6211   -1.8360    0.3781 H   0  0  0  0  0  0  0  0  0  0  0  0
   -0.2298    0.0607   -2.5122 H   0  0  0  0  0  0  0  0  0  0  0  0
   -1.7939    1.9265    0.1596 H   0  0  0  0  0  0  0  0  0  0  0  0
   -3.0012    0.5237   -0.1627 H   0  0  0  0  0  0  0  0  0  0  0  0
  1  2  1  0
  2  3  1  0
  3  4  1  0
  4  5  1  0
  5  6  1  0
  6  7  1  0
  7  8  1  0
  7  9  1  0
  7  3  1  0
  9  5  1  0
  1 10  1  0
  1 11  1  0
  1 12  1  0
  2 13  1  0
  2 14  1  0
  3 15  1  0
  5 16  1  0
  6 17  1  0
  6 18  1  0
  8 19  1  0
  9 20  1  0
  9 21  1  0
M  END
