
     RDKit          3D

 19 19  0  0  0  0  0  0  0  0999 V2000
   -2.2076    0.4702    0.0961 C   0  0  0  0  0  0  0  0  0  0  0  0
   -1.4117   -0.0421   -1.0814 C   0  0  0  0  0  0  0  0  0  0  0  0
   -0.3455   -0.9536   -0.5533 C   0  0  0  0  0  0  0  0  0  0  0  0
    0.4861   -1.5156   -1.5342 O   0  0  0  0  0  0  0  0  0  0  0  0
    1.4854   -1.5653   -0.5447 C   0  0  0  0  0  0  0  0  0  0  0  0
    0.8902   -0.2609   -0.0113 C   0  0  0  0  0  0  0  0  0  0  0  0
    1.3640    0.8143   -0.7552 O   0  0  0  0  0  0  0  0  0  0  0  0
    1.8753    1.9744   -0.1673 C   0  0  0  0  0  0  0  0  0  0  0  0
    1.8896    2.0066    1.1050 O   0  0  0  0  0  0  0  0  0  0  0  0
   -1.8259    0.1079    1.0679 H   0  0  0  0  0  0  0  0  0  0  0  0
   -2.0765    1.5878    0.1106 H   0  0  0  0  0  0  0  0  0  0  0  0
   -3.2759    0.1864    0.0455 H   0  0  0  0  0  0  0  0  0  0  0  0
   -0.9800    0.7650   -1.6893 H   0  0  0  0  0  0  0  0  0  0  0  0
   -2.1131   -0.6839   -1.6877 H   0  0  0  0  0  0  0  0  0  0  0  0
   -0.7177   -1.6708    0.1990 H   0  0  0  0  0  0  0  0  0  0  0  0
    2.5104   -1.4426   -0.9237 H   0  0  0  0  0  0  0  0  0  0  0  0
    1.2878   -2.3980    0.1273 H   0  0  0  0  0  0  0  0  0  0  0  0
    0.9250   -0.1822    1.0813 H   0  0  0  0  0  0  0  0  0  0  0  0
    2.2401    2.8024   -0.7574 H   0  0  0  0  0  0  0  0  0  0  0  0
  1  2  1  0
  2  3  1  0
  3  4  1  0
  4  5  1  0
  5  6  1  0
  6  7  1  0
  7  8  1  0
  8  9  2  0
  6  3  1  0
  1 10  1  0
  1 11  1  0
  1 12  1  0
  2 13  1  0
  2 14  1  0
  3 15  1  0
  5 16  1  0
  5 17  1  0
  6 18  1  0
  8 19  1  0
M  END
