
     RDKit          3D

 25 26  0  0  0  0  0  0  0  0999 V2000
    2.6673   -0.3257   -0.5146 C   0  0  0  0  0  0  0  0  0  0  0  0
    1.5720    0.4481    0.2429 C   0  0  0  0  0  0  0  0  0  0  0  0
    0.2628    0.2660   -0.4231 C   0  0  0  0  0  0  0  0  0  0  0  0
   -0.9479    0.9237    0.1235 C   0  0  0  0  0  0  0  0  0  0  0  0
   -1.2627    2.2434    0.2300 C   0  0  0  0  0  0  0  0  0  0  0  0
   -1.7140   -0.1410   -0.6553 C   0  0  0  0  0  0  0  0  0  0  0  0
   -0.5702   -0.8951    0.0153 C   0  0  0  0  0  0  0  0  0  0  0  0
   -0.3005   -2.2301   -0.1127 C   0  0  0  0  0  0  0  0  0  0  0  0
   -0.9424   -0.1162    1.2184 C   0  0  0  0  0  0  0  0  0  0  0  0
    3.6084    0.2500   -0.5616 H   0  0  0  0  0  0  0  0  0  0  0  0
    2.2796   -0.4989   -1.5425 H   0  0  0  0  0  0  0  0  0  0  0  0
    2.8342   -1.2887    0.0355 H   0  0  0  0  0  0  0  0  0  0  0  0
    1.9066    1.5153    0.1962 H   0  0  0  0  0  0  0  0  0  0  0  0
    1.5996    0.1551    1.3023 H   0  0  0  0  0  0  0  0  0  0  0  0
    0.3009    0.3642   -1.5518 H   0  0  0  0  0  0  0  0  0  0  0  0
   -2.0184    2.6251   -0.5204 H   0  0  0  0  0  0  0  0  0  0  0  0
   -0.3982    2.9623    0.1049 H   0  0  0  0  0  0  0  0  0  0  0  0
   -1.7105    2.5586    1.2205 H   0  0  0  0  0  0  0  0  0  0  0  0
   -2.6740   -0.3609   -0.1741 H   0  0  0  0  0  0  0  0  0  0  0  0
   -1.6681   -0.0668   -1.7381 H   0  0  0  0  0  0  0  0  0  0  0  0
   -0.8693   -2.7448   -0.9417 H   0  0  0  0  0  0  0  0  0  0  0  0
    0.7782   -2.4623   -0.3550 H   0  0  0  0  0  0  0  0  0  0  0  0
   -0.5451   -2.8489    0.7969 H   0  0  0  0  0  0  0  0  0  0  0  0
   -0.2030   -0.0307    2.0039 H   0  0  0  0  0  0  0  0  0  0  0  0
   -1.9852   -0.3017    1.6005 H   0  0  0  0  0  0  0  0  0  0  0  0
  1  2  1  0
  2  3  1  0
  3  4  1  0
  4  5  1  0
  4  6  1  0
  6  7  1  0
  7  8  1  0
  7  9  1  0
  7  3  1  0
  9  4  1  0
  1 10  1  0
  1 11  1  0
  1 12  1  0
  2 13  1  0
  2 14  1  0
  3 15  1  0
  5 16  1  0
  5 17  1  0
  5 18  1  0
  6 19  1  0
  6 20  1  0
  8 21  1  0
  8 22  1  0
  8 23  1  0
  9 24  1  0
  9 25  1  0
M  END
