
     RDKit          3D

 18 19  0  0  0  0  0  0  0  0999 V2000
    2.1174    0.0026   -0.6455 C   0  0  0  0  0  0  0  0  0  0  0  0
    1.4667   -0.2194    0.6809 C   0  0  0  0  0  0  0  0  0  0  0  0
   -0.0169   -0.0944    0.6679 C   0  0  0  0  0  0  0  0  0  0  0  0
   -0.4664    1.1632    0.2611 O   0  0  0  0  0  0  0  0  0  0  0  0
   -1.7389    1.0043   -0.3032 C   0  0  0  0  0  0  0  0  0  0  0  0
   -2.0976   -0.3829    0.0887 C   0  0  0  0  0  0  0  0  0  0  0  0
   -1.8422   -1.5656   -0.4006 O   0  0  0  0  0  0  0  0  0  0  0  0
   -0.7028   -0.9417   -0.3474 C   0  0  0  0  0  0  0  0  0  0  0  0
    1.8696   -0.7959   -1.3463 H   0  0  0  0  0  0  0  0  0  0  0  0
    1.8438    1.0107   -1.0033 H   0  0  0  0  0  0  0  0  0  0  0  0
    3.2281   -0.0052   -0.4692 H   0  0  0  0  0  0  0  0  0  0  0  0
    1.8668    0.4492    1.4662 H   0  0  0  0  0  0  0  0  0  0  0  0
    1.7029   -1.2553    1.0004 H   0  0  0  0  0  0  0  0  0  0  0  0
   -0.3861   -0.2399    1.7003 H   0  0  0  0  0  0  0  0  0  0  0  0
   -1.7537    1.1965   -1.3843 H   0  0  0  0  0  0  0  0  0  0  0  0
   -2.4245    1.7200    0.2114 H   0  0  0  0  0  0  0  0  0  0  0  0
   -2.3114   -0.4307    1.2021 H   0  0  0  0  0  0  0  0  0  0  0  0
   -0.3548   -0.6153   -1.3792 H   0  0  0  0  0  0  0  0  0  0  0  0
  1  2  1  0
  2  3  1  0
  3  4  1  0
  4  5  1  0
  5  6  1  0
  6  7  1  0
  7  8  1  0
  8  3  1  0
  8  6  1  0
  1  9  1  0
  1 10  1  0
  1 11  1  0
  2 12  1  0
  2 13  1  0
  3 14  1  0
  5 15  1  0
  5 16  1  0
  6 17  1  0
  8 18  1  0
M  END
