
     RDKit          3D

 19 20  0  0  0  0  0  0  0  0999 V2000
    2.4488    0.6687    0.4565 C   0  0  0  0  0  0  0  0  0  0  0  0
    1.6568   -0.5727    0.1177 C   0  0  0  0  0  0  0  0  0  0  0  0
    0.3572   -0.1669   -0.5446 C   0  0  0  0  0  0  0  0  0  0  0  0
   -0.4667    0.6947    0.3528 C   0  0  0  0  0  0  0  0  0  0  0  0
   -1.5947   -0.2774    0.1263 C   0  0  0  0  0  0  0  0  0  0  0  0
   -2.8769    0.1029   -0.1272 C   0  0  0  0  0  0  0  0  0  0  0  0
   -2.4671   -0.5991    1.1322 O   0  0  0  0  0  0  0  0  0  0  0  0
   -0.7046   -1.2400   -0.4986 C   0  0  0  0  0  0  0  0  0  0  0  0
   -0.6362   -2.3951   -0.8871 O   0  0  0  0  0  0  0  0  0  0  0  0
    3.3094    0.4073    1.1153 H   0  0  0  0  0  0  0  0  0  0  0  0
    2.7824    1.1339   -0.4970 H   0  0  0  0  0  0  0  0  0  0  0  0
    1.8114    1.3603    1.0405 H   0  0  0  0  0  0  0  0  0  0  0  0
    1.4640   -1.1213    1.0385 H   0  0  0  0  0  0  0  0  0  0  0  0
    2.2171   -1.2013   -0.6114 H   0  0  0  0  0  0  0  0  0  0  0  0
    0.4802    0.2602   -1.5593 H   0  0  0  0  0  0  0  0  0  0  0  0
   -0.1790    0.6660    1.4358 H   0  0  0  0  0  0  0  0  0  0  0  0
   -0.6746    1.7174    0.0147 H   0  0  0  0  0  0  0  0  0  0  0  0
   -3.6554   -0.5568   -0.5965 H   0  0  0  0  0  0  0  0  0  0  0  0
   -3.2721    1.1192    0.0829 H   0  0  0  0  0  0  0  0  0  0  0  0
  1  2  1  0
  2  3  1  0
  3  4  1  0
  4  5  1  0
  5  6  1  0
  6  7  1  0
  5  8  1  0
  8  9  2  0
  8  3  1  0
  7  5  1  0
  1 10  1  0
  1 11  1  0
  1 12  1  0
  2 13  1  0
  2 14  1  0
  3 15  1  0
  4 16  1  0
  4 17  1  0
  6 18  1  0
  6 19  1  0
M  END
