
     RDKit          3D

 23 23  0  0  0  0  0  0  0  0999 V2000
   -1.6676   -0.9336   -1.2915 C   0  0  0  0  0  0  0  0  0  0  0  0
   -1.8085    0.0260   -0.1958 C   0  0  0  0  0  0  0  0  0  0  0  0
   -0.6943    0.4282    0.6533 C   0  0  0  0  0  0  0  0  0  0  0  0
   -1.2866    1.4512    1.6742 C   0  0  0  0  0  0  0  0  0  0  0  0
   -0.1810   -0.6838    1.4837 O   0  0  0  0  0  0  0  0  0  0  0  0
    0.6642    0.2675    0.6780 C   0  0  0  0  0  0  0  0  0  0  0  0
    1.6534   -0.5596   -0.0629 C   0  0  0  0  0  0  0  0  0  0  0  0
    2.6244    0.3655   -0.8089 C   0  0  0  0  0  0  0  0  0  0  0  0
    1.2246   -1.4962   -0.9277 O   0  0  0  0  0  0  0  0  0  0  0  0
   -1.4637   -1.9862   -0.9992 H   0  0  0  0  0  0  0  0  0  0  0  0
   -2.6980   -1.0092   -1.7687 H   0  0  0  0  0  0  0  0  0  0  0  0
   -1.0425   -0.5770   -2.1474 H   0  0  0  0  0  0  0  0  0  0  0  0
   -2.2688    0.9631   -0.6369 H   0  0  0  0  0  0  0  0  0  0  0  0
   -2.6426   -0.3563    0.4715 H   0  0  0  0  0  0  0  0  0  0  0  0
   -2.1895    0.9921    2.1573 H   0  0  0  0  0  0  0  0  0  0  0  0
   -0.5453    1.7122    2.4261 H   0  0  0  0  0  0  0  0  0  0  0  0
   -1.6629    2.3026    1.0737 H   0  0  0  0  0  0  0  0  0  0  0  0
    1.2667    0.9305    1.3881 H   0  0  0  0  0  0  0  0  0  0  0  0
    2.3144   -1.0884    0.6904 H   0  0  0  0  0  0  0  0  0  0  0  0
    3.5300   -0.2518   -1.0148 H   0  0  0  0  0  0  0  0  0  0  0  0
    2.9520    1.2054   -0.1855 H   0  0  0  0  0  0  0  0  0  0  0  0
    2.2000    0.6616   -1.7867 H   0  0  0  0  0  0  0  0  0  0  0  0
    1.7218   -2.3641   -0.8702 H   0  0  0  0  0  0  0  0  0  0  0  0
  1  2  1  0
  2  3  1  0
  3  4  1  0
  3  5  1  0
  5  6  1  0
  6  7  1  0
  7  8  1  0
  7  9  1  0
  6  3  1  0
  1 10  1  0
  1 11  1  0
  1 12  1  0
  2 13  1  0
  2 14  1  0
  4 15  1  0
  4 16  1  0
  4 17  1  0
  6 18  1  0
  7 19  1  0
  8 20  1  0
  8 21  1  0
  8 22  1  0
  9 23  1  0
M  END
