
     RDKit          3D

 19 21  0  0  0  0  0  0  0  0999 V2000
    2.0399    0.8023    0.3081 C   0  0  0  0  0  0  0  0  0  0  0  0
    1.5773   -0.5601   -0.0668 C   0  0  0  0  0  0  0  0  0  0  0  0
    0.2518   -0.6278   -0.7286 C   0  0  0  0  0  0  0  0  0  0  0  0
   -0.2757   -1.8445   -1.1333 O   0  0  0  0  0  0  0  0  0  0  0  0
   -0.8041   -1.3806    0.0482 C   0  0  0  0  0  0  0  0  0  0  0  0
   -1.6344   -0.1370    0.0777 C   0  0  0  0  0  0  0  0  0  0  0  0
   -2.9654   -0.3030   -0.2410 O   0  0  0  0  0  0  0  0  0  0  0  0
   -1.0836    1.1822    0.4078 C   0  0  0  0  0  0  0  0  0  0  0  0
   -0.6778    0.5290   -0.8406 C   0  0  0  0  0  0  0  0  0  0  0  0
    3.1382    0.8440    0.0194 H   0  0  0  0  0  0  0  0  0  0  0  0
    1.5663    1.6213   -0.2716 H   0  0  0  0  0  0  0  0  0  0  0  0
    2.0396    1.0227    1.3922 H   0  0  0  0  0  0  0  0  0  0  0  0
    2.2973   -1.1083   -0.7242 H   0  0  0  0  0  0  0  0  0  0  0  0
    1.5732   -1.1612    0.8914 H   0  0  0  0  0  0  0  0  0  0  0  0
   -0.5472   -1.9580    0.9326 H   0  0  0  0  0  0  0  0  0  0  0  0
   -3.2929   -1.1064    0.2397 H   0  0  0  0  0  0  0  0  0  0  0  0
   -1.8174    2.0210    0.3544 H   0  0  0  0  0  0  0  0  0  0  0  0
   -0.2997    1.3367    1.1647 H   0  0  0  0  0  0  0  0  0  0  0  0
   -1.0854    0.8280   -1.8301 H   0  0  0  0  0  0  0  0  0  0  0  0
  1  2  1  0
  2  3  1  0
  3  4  1  0
  4  5  1  0
  5  6  1  0
  6  7  1  0
  6  8  1  0
  8  9  1  0
  5  3  1  0
  9  6  1  0
  9  3  1  0
  1 10  1  0
  1 11  1  0
  1 12  1  0
  2 13  1  0
  2 14  1  0
  5 15  1  0
  7 16  1  0
  8 17  1  0
  8 18  1  0
  9 19  1  0
M  END
