
     RDKit          3D

 23 24  0  0  0  0  0  0  0  0999 V2000
    2.5094    0.5684   -0.0387 C   0  0  0  0  0  0  0  0  0  0  0  0
    1.5462   -0.3630   -0.7606 C   0  0  0  0  0  0  0  0  0  0  0  0
    0.8177   -1.1675    0.2624 C   0  0  0  0  0  0  0  0  0  0  0  0
    0.0043   -0.3073    1.2505 C   0  0  0  0  0  0  0  0  0  0  0  0
   -0.2506    1.0961    0.9180 C   0  0  0  0  0  0  0  0  0  0  0  0
   -1.4024    1.4770    0.3247 C   0  0  0  0  0  0  0  0  0  0  0  0
   -2.3710    0.3788    0.0422 C   0  0  0  0  0  0  0  0  0  0  0  0
   -1.5848   -0.7246   -0.6501 C   0  0  0  0  0  0  0  0  0  0  0  0
   -0.6260   -1.2926    0.3436 C   0  0  0  0  0  0  0  0  0  0  0  0
    3.5736    0.3168   -0.3114 H   0  0  0  0  0  0  0  0  0  0  0  0
    2.4080    0.4832    1.0637 H   0  0  0  0  0  0  0  0  0  0  0  0
    2.3639    1.6232   -0.3072 H   0  0  0  0  0  0  0  0  0  0  0  0
    2.1196   -0.9616   -1.4665 H   0  0  0  0  0  0  0  0  0  0  0  0
    0.8318    0.2520   -1.3749 H   0  0  0  0  0  0  0  0  0  0  0  0
    1.4479   -1.9627    0.7382 H   0  0  0  0  0  0  0  0  0  0  0  0
    0.1875   -0.5100    2.3140 H   0  0  0  0  0  0  0  0  0  0  0  0
    0.4571    1.8794    1.1274 H   0  0  0  0  0  0  0  0  0  0  0  0
   -1.6008    2.5055    0.0757 H   0  0  0  0  0  0  0  0  0  0  0  0
   -2.7393    0.0222    1.0363 H   0  0  0  0  0  0  0  0  0  0  0  0
   -3.1895    0.6941   -0.6239 H   0  0  0  0  0  0  0  0  0  0  0  0
   -1.1215   -0.3117   -1.5461 H   0  0  0  0  0  0  0  0  0  0  0  0
   -2.3581   -1.4864   -0.9542 H   0  0  0  0  0  0  0  0  0  0  0  0
   -1.0230   -2.2091    0.8671 H   0  0  0  0  0  0  0  0  0  0  0  0
  1  2  1  0
  2  3  1  0
  3  4  1  0
  4  5  1  0
  5  6  2  0
  6  7  1  0
  7  8  1  0
  8  9  1  0
  9  3  1  0
  9  4  1  0
  1 10  1  0
  1 11  1  0
  1 12  1  0
  2 13  1  0
  2 14  1  0
  3 15  1  0
  4 16  1  0
  5 17  1  0
  6 18  1  0
  7 19  1  0
  7 20  1  0
  8 21  1  0
  8 22  1  0
  9 23  1  0
M  END
