
     RDKit          3D

 23 23  0  0  0  0  0  0  0  0999 V2000
    3.0565    0.5386   -0.1624 C   0  0  0  0  0  0  0  0  0  0  0  0
    2.0321   -0.4924   -0.4580 C   0  0  0  0  0  0  0  0  0  0  0  0
    0.6565   -0.1954    0.0487 C   0  0  0  0  0  0  0  0  0  0  0  0
    0.0646    1.0377   -0.4850 C   0  0  0  0  0  0  0  0  0  0  0  0
   -1.1705    1.3894   -0.8233 C   0  0  0  0  0  0  0  0  0  0  0  0
   -2.4273    0.5960   -0.7655 C   0  0  0  0  0  0  0  0  0  0  0  0
   -2.4262   -0.3853    0.3913 C   0  0  0  0  0  0  0  0  0  0  0  0
   -1.4988   -1.4865    0.0006 C   0  0  0  0  0  0  0  0  0  0  0  0
   -0.1827   -1.4084   -0.1465 C   0  0  0  0  0  0  0  0  0  0  0  0
    2.6885    1.5110    0.1528 H   0  0  0  0  0  0  0  0  0  0  0  0
    3.7233    0.7257   -1.0539 H   0  0  0  0  0  0  0  0  0  0  0  0
    3.7722    0.1962    0.6376 H   0  0  0  0  0  0  0  0  0  0  0  0
    2.0137   -0.6663   -1.5537 H   0  0  0  0  0  0  0  0  0  0  0  0
    2.3568   -1.4507   -0.0024 H   0  0  0  0  0  0  0  0  0  0  0  0
    0.7158   -0.0578    1.1697 H   0  0  0  0  0  0  0  0  0  0  0  0
    0.7843    1.8360   -0.6383 H   0  0  0  0  0  0  0  0  0  0  0  0
   -1.2875    2.4041   -1.1979 H   0  0  0  0  0  0  0  0  0  0  0  0
   -2.5434    0.0037   -1.7142 H   0  0  0  0  0  0  0  0  0  0  0  0
   -3.3084    1.2484   -0.6345 H   0  0  0  0  0  0  0  0  0  0  0  0
   -3.4178   -0.7280    0.6679 H   0  0  0  0  0  0  0  0  0  0  0  0
   -1.9036    0.1538    1.2342 H   0  0  0  0  0  0  0  0  0  0  0  0
   -2.0076   -2.4262   -0.1684 H   0  0  0  0  0  0  0  0  0  0  0  0
    0.3093   -2.3434   -0.4410 H   0  0  0  0  0  0  0  0  0  0  0  0
  1  2  1  0
  2  3  1  0
  3  4  1  0
  4  5  2  0
  5  6  1  0
  6  7  1  0
  7  8  1  0
  8  9  2  0
  9  3  1  0
  1 10  1  0
  1 11  1  0
  1 12  1  0
  2 13  1  0
  2 14  1  0
  3 15  1  0
  4 16  1  0
  5 17  1  0
  6 18  1  0
  6 19  1  0
  7 20  1  0
  7 21  1  0
  8 22  1  0
  9 23  1  0
M  END
