
     RDKit          3D

 21 21  0  0  0  0  0  0  0  0999 V2000
   -1.6453    1.5110   -0.8045 C   0  0  0  0  0  0  0  0  0  0  0  0
   -1.6067    0.5629    0.4005 C   0  0  0  0  0  0  0  0  0  0  0  0
   -0.4097   -0.3416    0.1984 C   0  0  0  0  0  0  0  0  0  0  0  0
    0.8943    0.3915    0.1156 C   0  0  0  0  0  0  0  0  0  0  0  0
    1.9927   -0.4966   -0.0745 O   0  0  0  0  0  0  0  0  0  0  0  0
    3.2617    0.0531   -0.1682 C   0  0  0  0  0  0  0  0  0  0  0  0
    3.3903    1.3135   -0.0815 O   0  0  0  0  0  0  0  0  0  0  0  0
   -0.6084   -1.6512   -0.4573 C   0  0  0  0  0  0  0  0  0  0  0  0
   -0.3510   -1.6115    1.0260 C   0  0  0  0  0  0  0  0  0  0  0  0
   -2.6495    1.9619   -0.9209 H   0  0  0  0  0  0  0  0  0  0  0  0
   -0.9447    2.3545   -0.6089 H   0  0  0  0  0  0  0  0  0  0  0  0
   -1.3434    0.9863   -1.7191 H   0  0  0  0  0  0  0  0  0  0  0  0
   -2.5561    0.0308    0.4437 H   0  0  0  0  0  0  0  0  0  0  0  0
   -1.4518    1.2261    1.2863 H   0  0  0  0  0  0  0  0  0  0  0  0
    1.0457    0.9109    1.0998 H   0  0  0  0  0  0  0  0  0  0  0  0
    0.9400    1.1218   -0.7200 H   0  0  0  0  0  0  0  0  0  0  0  0
    4.1639   -0.5265   -0.3124 H   0  0  0  0  0  0  0  0  0  0  0  0
   -1.6695   -1.9239   -0.7102 H   0  0  0  0  0  0  0  0  0  0  0  0
    0.1183   -2.1059   -1.1372 H   0  0  0  0  0  0  0  0  0  0  0  0
   -1.1975   -1.8154    1.7327 H   0  0  0  0  0  0  0  0  0  0  0  0
    0.6268   -1.9518    1.4115 H   0  0  0  0  0  0  0  0  0  0  0  0
  1  2  1  0
  2  3  1  0
  3  4  1  0
  4  5  1  0
  5  6  1  0
  6  7  2  0
  3  8  1  0
  8  9  1  0
  9  3  1  0
  1 10  1  0
  1 11  1  0
  1 12  1  0
  2 13  1  0
  2 14  1  0
  4 15  1  0
  4 16  1  0
  6 17  1  0
  8 18  1  0
  8 19  1  0
  9 20  1  0
  9 21  1  0
M  END
