
     RDKit          3D

 25 25  0  0  0  0  0  0  0  0999 V2000
    2.6241    0.4779   -0.8224 C   0  0  0  0  0  0  0  0  0  0  0  0
    1.2784    0.9637   -0.3361 C   0  0  0  0  0  0  0  0  0  0  0  0
    0.3832   -0.1623    0.1110 C   0  0  0  0  0  0  0  0  0  0  0  0
    0.8539   -1.0450    1.2429 C   0  0  0  0  0  0  0  0  0  0  0  0
   -0.4909   -0.8611   -0.9039 C   0  0  0  0  0  0  0  0  0  0  0  0
   -0.7447   -2.2208   -0.7600 O   0  0  0  0  0  0  0  0  0  0  0  0
   -1.0804    0.1189    0.0171 C   0  0  0  0  0  0  0  0  0  0  0  0
   -1.5386    1.4272   -0.6197 C   0  0  0  0  0  0  0  0  0  0  0  0
   -1.9401   -0.2953    1.1801 C   0  0  0  0  0  0  0  0  0  0  0  0
    3.1858   -0.0819   -0.0715 H   0  0  0  0  0  0  0  0  0  0  0  0
    3.2163    1.3822   -1.0760 H   0  0  0  0  0  0  0  0  0  0  0  0
    2.5133   -0.0941   -1.7823 H   0  0  0  0  0  0  0  0  0  0  0  0
    0.8039    1.4911   -1.1867 H   0  0  0  0  0  0  0  0  0  0  0  0
    1.4711    1.6562    0.5096 H   0  0  0  0  0  0  0  0  0  0  0  0
    0.3198   -2.0134    1.2458 H   0  0  0  0  0  0  0  0  0  0  0  0
    1.9270   -1.2634    1.1266 H   0  0  0  0  0  0  0  0  0  0  0  0
    0.6123   -0.5507    2.2044 H   0  0  0  0  0  0  0  0  0  0  0  0
   -0.2677   -0.5661   -1.9483 H   0  0  0  0  0  0  0  0  0  0  0  0
   -1.6292   -2.4035   -0.3553 H   0  0  0  0  0  0  0  0  0  0  0  0
   -1.2402    2.2608    0.0421 H   0  0  0  0  0  0  0  0  0  0  0  0
   -1.1803    1.5360   -1.6566 H   0  0  0  0  0  0  0  0  0  0  0  0
   -2.6465    1.4353   -0.6674 H   0  0  0  0  0  0  0  0  0  0  0  0
   -1.8117    0.4786    1.9770 H   0  0  0  0  0  0  0  0  0  0  0  0
   -1.6102   -1.2492    1.6386 H   0  0  0  0  0  0  0  0  0  0  0  0
   -3.0087   -0.4211    0.8910 H   0  0  0  0  0  0  0  0  0  0  0  0
  1  2  1  0
  2  3  1  0
  3  4  1  0
  3  5  1  0
  5  6  1  0
  5  7  1  0
  7  8  1  0
  7  9  1  0
  7  3  1  0
  1 10  1  0
  1 11  1  0
  1 12  1  0
  2 13  1  0
  2 14  1  0
  4 15  1  0
  4 16  1  0
  4 17  1  0
  5 18  1  0
  6 19  1  0
  8 20  1  0
  8 21  1  0
  8 22  1  0
  9 23  1  0
  9 24  1  0
  9 25  1  0
M  END
