
     RDKit          3D

 18 19  0  0  0  0  0  0  0  0999 V2000
    2.1285    0.8033   -0.3374 C   0  0  0  0  0  0  0  0  0  0  0  0
    1.2243   -0.2905    0.1022 C   0  0  0  0  0  0  0  0  0  0  0  0
   -0.2340    0.0154   -0.0715 C   0  0  0  0  0  0  0  0  0  0  0  0
   -0.8553    1.1850    0.6233 C   0  0  0  0  0  0  0  0  0  0  0  0
   -1.6610    0.2728    1.3365 O   0  0  0  0  0  0  0  0  0  0  0  0
   -1.1756   -0.8839    0.7622 C   0  0  0  0  0  0  0  0  0  0  0  0
   -1.1078   -0.9305   -0.7610 C   0  0  0  0  0  0  0  0  0  0  0  0
   -2.2946   -0.5121   -1.3695 O   0  0  0  0  0  0  0  0  0  0  0  0
    1.6940    1.4223   -1.1648 H   0  0  0  0  0  0  0  0  0  0  0  0
    3.0890    0.3278   -0.6809 H   0  0  0  0  0  0  0  0  0  0  0  0
    2.3896    1.4202    0.5437 H   0  0  0  0  0  0  0  0  0  0  0  0
    1.4491   -0.5339    1.1609 H   0  0  0  0  0  0  0  0  0  0  0  0
    1.4248   -1.2442   -0.4647 H   0  0  0  0  0  0  0  0  0  0  0  0
   -0.2155    1.7863    1.2779 H   0  0  0  0  0  0  0  0  0  0  0  0
   -1.4876    1.7689   -0.1029 H   0  0  0  0  0  0  0  0  0  0  0  0
   -0.7146   -1.6738    1.3497 H   0  0  0  0  0  0  0  0  0  0  0  0
   -0.6472   -1.8204   -1.2068 H   0  0  0  0  0  0  0  0  0  0  0  0
   -3.0062   -1.1125   -0.9969 H   0  0  0  0  0  0  0  0  0  0  0  0
  1  2  1  0
  2  3  1  0
  3  4  1  0
  4  5  1  0
  5  6  1  0
  6  7  1  0
  7  8  1  0
  6  3  1  0
  7  3  1  0
  1  9  1  0
  1 10  1  0
  1 11  1  0
  2 12  1  0
  2 13  1  0
  4 14  1  0
  4 15  1  0
  6 16  1  0
  7 17  1  0
  8 18  1  0
M  END
