
     RDKit          3D

 23 23  0  0  0  0  0  0  0  0999 V2000
   -2.8220    0.5019   -0.6360 C   0  0  0  0  0  0  0  0  0  0  0  0
   -1.4926    0.5209   -1.2924 C   0  0  0  0  0  0  0  0  0  0  0  0
   -0.3718   -0.0914   -0.4460 C   0  0  0  0  0  0  0  0  0  0  0  0
    0.9397   -0.0246   -1.1900 C   0  0  0  0  0  0  0  0  0  0  0  0
    2.0971   -0.5648   -0.4937 C   0  0  0  0  0  0  0  0  0  0  0  0
    3.1651    0.3150    0.0418 C   0  0  0  0  0  0  0  0  0  0  0  0
    2.2207   -1.7544   -0.3309 O   0  0  0  0  0  0  0  0  0  0  0  0
   -0.6408   -1.2946    0.3529 C   0  0  0  0  0  0  0  0  0  0  0  0
   -0.4657    0.0769    0.9973 C   0  0  0  0  0  0  0  0  0  0  0  0
   -3.5333    1.0016   -1.3632 H   0  0  0  0  0  0  0  0  0  0  0  0
   -3.2454   -0.5065   -0.4892 H   0  0  0  0  0  0  0  0  0  0  0  0
   -2.8560    1.1381    0.2563 H   0  0  0  0  0  0  0  0  0  0  0  0
   -1.5619    0.0257   -2.2889 H   0  0  0  0  0  0  0  0  0  0  0  0
   -1.2049    1.5696   -1.4832 H   0  0  0  0  0  0  0  0  0  0  0  0
    1.1629    1.0342   -1.4784 H   0  0  0  0  0  0  0  0  0  0  0  0
    0.7378   -0.5298   -2.1756 H   0  0  0  0  0  0  0  0  0  0  0  0
    2.8128    0.9571    0.8867 H   0  0  0  0  0  0  0  0  0  0  0  0
    3.5314    1.0343   -0.7336 H   0  0  0  0  0  0  0  0  0  0  0  0
    4.0235   -0.2685    0.4725 H   0  0  0  0  0  0  0  0  0  0  0  0
    0.1161   -2.0771    0.5111 H   0  0  0  0  0  0  0  0  0  0  0  0
   -1.6757   -1.7027    0.4712 H   0  0  0  0  0  0  0  0  0  0  0  0
   -1.3514    0.5487    1.4640 H   0  0  0  0  0  0  0  0  0  0  0  0
    0.4145    0.0905    1.6746 H   0  0  0  0  0  0  0  0  0  0  0  0
  1  2  1  0
  2  3  1  0
  3  4  1  0
  4  5  1  0
  5  6  1  0
  5  7  2  0
  3  8  1  0
  8  9  1  0
  9  3  1  0
  1 10  1  0
  1 11  1  0
  1 12  1  0
  2 13  1  0
  2 14  1  0
  4 15  1  0
  4 16  1  0
  6 17  1  0
  6 18  1  0
  6 19  1  0
  8 20  1  0
  8 21  1  0
  9 22  1  0
  9 23  1  0
M  END
