
     RDKit          3D

 25 25  0  0  0  0  0  0  0  0999 V2000
   -1.8315   -1.4868   -0.1912 C   0  0  0  0  0  0  0  0  0  0  0  0
   -1.9453   -0.0740    0.2434 C   0  0  0  0  0  0  0  0  0  0  0  0
   -0.7486    0.7812    0.1337 C   0  0  0  0  0  0  0  0  0  0  0  0
   -1.0016    2.2109    0.6141 C   0  0  0  0  0  0  0  0  0  0  0  0
   -0.1165    0.7453   -1.2780 C   0  0  0  0  0  0  0  0  0  0  0  0
    0.6330    0.4000    0.0009 C   0  0  0  0  0  0  0  0  0  0  0  0
    1.1943   -0.9870    0.1053 C   0  0  0  0  0  0  0  0  0  0  0  0
    2.7020   -1.0020   -0.0913 C   0  0  0  0  0  0  0  0  0  0  0  0
    3.3152   -0.2058    0.8903 O   0  0  0  0  0  0  0  0  0  0  0  0
   -2.8680   -1.9285   -0.1320 H   0  0  0  0  0  0  0  0  0  0  0  0
   -1.5638   -1.6185   -1.2645 H   0  0  0  0  0  0  0  0  0  0  0  0
   -1.2282   -2.1200    0.4874 H   0  0  0  0  0  0  0  0  0  0  0  0
   -2.3432   -0.0866    1.2865 H   0  0  0  0  0  0  0  0  0  0  0  0
   -2.7869    0.3808   -0.3574 H   0  0  0  0  0  0  0  0  0  0  0  0
   -2.0654    2.4646    0.6160 H   0  0  0  0  0  0  0  0  0  0  0  0
   -0.5570    2.2445    1.6489 H   0  0  0  0  0  0  0  0  0  0  0  0
   -0.3786    2.9424    0.0296 H   0  0  0  0  0  0  0  0  0  0  0  0
   -0.3506   -0.1162   -1.9203 H   0  0  0  0  0  0  0  0  0  0  0  0
    0.0648    1.6812   -1.7943 H   0  0  0  0  0  0  0  0  0  0  0  0
    1.4144    1.1588    0.2256 H   0  0  0  0  0  0  0  0  0  0  0  0
    0.7733   -1.5908   -0.7247 H   0  0  0  0  0  0  0  0  0  0  0  0
    1.0393   -1.4622    1.0840 H   0  0  0  0  0  0  0  0  0  0  0  0
    3.1017   -2.0124   -0.0722 H   0  0  0  0  0  0  0  0  0  0  0  0
    2.8916   -0.4860   -1.0552 H   0  0  0  0  0  0  0  0  0  0  0  0
    2.6557    0.1673    1.5154 H   0  0  0  0  0  0  0  0  0  0  0  0
  1  2  1  0
  2  3  1  0
  3  4  1  0
  3  5  1  0
  5  6  1  0
  6  7  1  0
  7  8  1  0
  8  9  1  0
  6  3  1  0
  1 10  1  0
  1 11  1  0
  1 12  1  0
  2 13  1  0
  2 14  1  0
  4 15  1  0
  4 16  1  0
  4 17  1  0
  5 18  1  0
  5 19  1  0
  6 20  1  0
  7 21  1  0
  7 22  1  0
  8 23  1  0
  8 24  1  0
  9 25  1  0
M  END
