
     RDKit          3D

 21 22  0  0  0  0  0  0  0  0999 V2000
    2.0799    1.1361   -0.2690 C   0  0  0  0  0  0  0  0  0  0  0  0
    1.5301   -0.2472   -0.4519 C   0  0  0  0  0  0  0  0  0  0  0  0
    0.1722   -0.4095    0.1909 C   0  0  0  0  0  0  0  0  0  0  0  0
   -0.4517   -1.7509    0.0603 C   0  0  0  0  0  0  0  0  0  0  0  0
   -1.9035   -1.4972   -0.0257 C   0  0  0  0  0  0  0  0  0  0  0  0
   -2.1596   -0.2196   -0.2320 C   0  0  0  0  0  0  0  0  0  0  0  0
   -0.8936    0.5242   -0.3064 C   0  0  0  0  0  0  0  0  0  0  0  0
   -0.6380    1.2795    0.9644 C   0  0  0  0  0  0  0  0  0  0  0  0
    0.1186    0.2103    1.4197 O   0  0  0  0  0  0  0  0  0  0  0  0
    2.1495    1.4235    0.8011 H   0  0  0  0  0  0  0  0  0  0  0  0
    1.5766    1.8988   -0.8952 H   0  0  0  0  0  0  0  0  0  0  0  0
    3.1453    1.1180   -0.6436 H   0  0  0  0  0  0  0  0  0  0  0  0
    2.2165   -0.9433    0.0910 H   0  0  0  0  0  0  0  0  0  0  0  0
    1.5621   -0.5278   -1.5023 H   0  0  0  0  0  0  0  0  0  0  0  0
   -0.1961   -2.4557    0.8743 H   0  0  0  0  0  0  0  0  0  0  0  0
   -0.1333   -2.1961   -0.9011 H   0  0  0  0  0  0  0  0  0  0  0  0
   -2.6589   -2.2669    0.0694 H   0  0  0  0  0  0  0  0  0  0  0  0
   -3.1394    0.2026   -0.3292 H   0  0  0  0  0  0  0  0  0  0  0  0
   -0.6828    1.0551   -1.2429 H   0  0  0  0  0  0  0  0  0  0  0  0
   -0.1117    2.2211    0.7773 H   0  0  0  0  0  0  0  0  0  0  0  0
   -1.5822    1.4449    1.5510 H   0  0  0  0  0  0  0  0  0  0  0  0
  1  2  1  0
  2  3  1  0
  3  4  1  0
  4  5  1  0
  5  6  2  0
  6  7  1  0
  7  8  1  0
  8  9  1  0
  7  3  1  0
  9  3  1  0
  1 10  1  0
  1 11  1  0
  1 12  1  0
  2 13  1  0
  2 14  1  0
  4 15  1  0
  4 16  1  0
  5 17  1  0
  6 18  1  0
  7 19  1  0
  8 20  1  0
  8 21  1  0
M  END
