
     RDKit          3D

 21 21  0  0  0  0  0  0  0  0999 V2000
   -2.1426    0.8737   -0.3958 C   0  0  0  0  0  0  0  0  0  0  0  0
   -0.6992    0.5795   -0.7005 C   0  0  0  0  0  0  0  0  0  0  0  0
   -0.0767   -0.4272    0.2063 C   0  0  0  0  0  0  0  0  0  0  0  0
   -0.7039   -1.8256    0.2374 C   0  0  0  0  0  0  0  0  0  0  0  0
    0.6745   -0.0555    1.4171 C   0  0  0  0  0  0  0  0  0  0  0  0
    1.4539   -0.3934    0.1684 C   0  0  0  0  0  0  0  0  0  0  0  0
    2.1262    0.7863   -0.4851 C   0  0  0  0  0  0  0  0  0  0  0  0
   -2.4855    1.5705   -1.2179 H   0  0  0  0  0  0  0  0  0  0  0  0
   -2.7954    0.0003   -0.4536 H   0  0  0  0  0  0  0  0  0  0  0  0
   -2.2676    1.4566    0.5420 H   0  0  0  0  0  0  0  0  0  0  0  0
   -0.1426    1.5402   -0.5659 H   0  0  0  0  0  0  0  0  0  0  0  0
   -0.6168    0.2156   -1.7370 H   0  0  0  0  0  0  0  0  0  0  0  0
   -1.7061   -1.8009   -0.2236 H   0  0  0  0  0  0  0  0  0  0  0  0
   -0.0478   -2.5466   -0.2865 H   0  0  0  0  0  0  0  0  0  0  0  0
   -0.8543   -2.1163    1.2994 H   0  0  0  0  0  0  0  0  0  0  0  0
    0.7042    1.0029    1.7938 H   0  0  0  0  0  0  0  0  0  0  0  0
    0.7821   -0.7840    2.2328 H   0  0  0  0  0  0  0  0  0  0  0  0
    1.9740   -1.3835    0.1249 H   0  0  0  0  0  0  0  0  0  0  0  0
    3.1975    0.5934   -0.5141 H   0  0  0  0  0  0  0  0  0  0  0  0
    1.9297    1.7427    0.0695 H   0  0  0  0  0  0  0  0  0  0  0  0
    1.6964    0.9713   -1.5118 H   0  0  0  0  0  0  0  0  0  0  0  0
  1  2  1  0
  2  3  1  0
  3  4  1  0
  3  5  1  0
  5  6  1  0
  6  7  1  0
  6  3  1  0
  1  8  1  0
  1  9  1  0
  1 10  1  0
  2 11  1  0
  2 12  1  0
  4 13  1  0
  4 14  1  0
  4 15  1  0
  5 16  1  0
  5 17  1  0
  6 18  1  0
  7 19  1  0
  7 20  1  0
  7 21  1  0
M  END
