
     RDKit          3D

 22 22  0  0  0  0  0  0  0  0999 V2000
    2.2075    0.4880   -0.5657 C   0  0  0  0  0  0  0  0  0  0  0  0
    1.5951    0.3754    0.7879 C   0  0  0  0  0  0  0  0  0  0  0  0
    0.1491    0.0014    0.7806 C   0  0  0  0  0  0  0  0  0  0  0  0
   -0.1290   -1.3342    0.1223 C   0  0  0  0  0  0  0  0  0  0  0  0
   -1.6551   -1.3205    0.1328 C   0  0  0  0  0  0  0  0  0  0  0  0
   -2.0051    0.1342   -0.1059 C   0  0  0  0  0  0  0  0  0  0  0  0
   -0.7064    0.9088   -0.0795 C   0  0  0  0  0  0  0  0  0  0  0  0
   -0.1381    0.9117   -1.3519 O   0  0  0  0  0  0  0  0  0  0  0  0
    1.8755   -0.2627   -1.2946 H   0  0  0  0  0  0  0  0  0  0  0  0
    3.3268    0.4209   -0.4145 H   0  0  0  0  0  0  0  0  0  0  0  0
    2.0639    1.5455   -0.9218 H   0  0  0  0  0  0  0  0  0  0  0  0
    1.6728    1.3646    1.2899 H   0  0  0  0  0  0  0  0  0  0  0  0
    2.1267   -0.3384    1.4484 H   0  0  0  0  0  0  0  0  0  0  0  0
   -0.2672   -0.0759    1.8143 H   0  0  0  0  0  0  0  0  0  0  0  0
    0.1757   -1.3240   -0.9234 H   0  0  0  0  0  0  0  0  0  0  0  0
    0.2733   -2.1839    0.7044 H   0  0  0  0  0  0  0  0  0  0  0  0
   -2.0369   -1.6626    1.1271 H   0  0  0  0  0  0  0  0  0  0  0  0
   -2.0589   -1.9807   -0.6601 H   0  0  0  0  0  0  0  0  0  0  0  0
   -2.6428    0.5083    0.7421 H   0  0  0  0  0  0  0  0  0  0  0  0
   -2.5181    0.2551   -1.0808 H   0  0  0  0  0  0  0  0  0  0  0  0
   -0.8155    1.9170    0.3425 H   0  0  0  0  0  0  0  0  0  0  0  0
   -0.4933    1.6522   -1.8941 H   0  0  0  0  0  0  0  0  0  0  0  0
  1  2  1  0
  2  3  1  0
  3  4  1  0
  4  5  1  0
  5  6  1  0
  6  7  1  0
  7  8  1  0
  7  3  1  0
  1  9  1  0
  1 10  1  0
  1 11  1  0
  2 12  1  0
  2 13  1  0
  3 14  1  0
  4 15  1  0
  4 16  1  0
  5 17  1  0
  5 18  1  0
  6 19  1  0
  6 20  1  0
  7 21  1  0
  8 22  1  0
M  END
