
     RDKit          3D

 23 24  0  0  0  0  0  0  0  0999 V2000
    3.0384    0.1992   -0.6498 C   0  0  0  0  0  0  0  0  0  0  0  0
    1.8090   -0.6385   -0.2687 C   0  0  0  0  0  0  0  0  0  0  0  0
    1.1479   -0.0535    0.9461 C   0  0  0  0  0  0  0  0  0  0  0  0
    0.7049    1.3410    0.7015 O   0  0  0  0  0  0  0  0  0  0  0  0
   -0.2110    0.3399    1.0452 C   0  0  0  0  0  0  0  0  0  0  0  0
   -1.2941    0.1093    0.0192 C   0  0  0  0  0  0  0  0  0  0  0  0
   -1.0705    0.7300   -1.3299 C   0  0  0  0  0  0  0  0  0  0  0  0
   -2.0161   -1.1855    0.1013 C   0  0  0  0  0  0  0  0  0  0  0  0
   -2.7381    0.1106    0.4606 C   0  0  0  0  0  0  0  0  0  0  0  0
    2.9526    1.1590   -0.1171 H   0  0  0  0  0  0  0  0  0  0  0  0
    3.9756   -0.2833   -0.3120 H   0  0  0  0  0  0  0  0  0  0  0  0
    3.0593    0.3491   -1.7597 H   0  0  0  0  0  0  0  0  0  0  0  0
    2.1988   -1.6547   -0.1057 H   0  0  0  0  0  0  0  0  0  0  0  0
    1.1256   -0.7145   -1.1405 H   0  0  0  0  0  0  0  0  0  0  0  0
    1.7622   -0.1156    1.8631 H   0  0  0  0  0  0  0  0  0  0  0  0
   -0.6325    0.5101    2.0722 H   0  0  0  0  0  0  0  0  0  0  0  0
   -1.1179   -0.0684   -2.1073 H   0  0  0  0  0  0  0  0  0  0  0  0
   -0.1261    1.3067   -1.3846 H   0  0  0  0  0  0  0  0  0  0  0  0
   -1.9184    1.4122   -1.5410 H   0  0  0  0  0  0  0  0  0  0  0  0
   -1.8883   -1.8569    0.9472 H   0  0  0  0  0  0  0  0  0  0  0  0
   -2.2932   -1.6930   -0.8447 H   0  0  0  0  0  0  0  0  0  0  0  0
   -2.9346    0.3203    1.5354 H   0  0  0  0  0  0  0  0  0  0  0  0
   -3.5336    0.3765   -0.2392 H   0  0  0  0  0  0  0  0  0  0  0  0
  1  2  1  0
  2  3  1  0
  3  4  1  0
  4  5  1  0
  5  6  1  0
  6  7  1  0
  6  8  1  0
  8  9  1  0
  5  3  1  0
  9  6  1  0
  1 10  1  0
  1 11  1  0
  1 12  1  0
  2 13  1  0
  2 14  1  0
  3 15  1  0
  5 16  1  0
  7 17  1  0
  7 18  1  0
  7 19  1  0
  8 20  1  0
  8 21  1  0
  9 22  1  0
  9 23  1  0
M  END
