
     RDKit          3D

 19 19  0  0  0  0  0  0  0  0999 V2000
    2.4173   -0.1485    0.4774 C   0  0  0  0  0  0  0  0  0  0  0  0
    1.3651    0.3688   -0.4666 C   0  0  0  0  0  0  0  0  0  0  0  0
    0.0644   -0.3222   -0.3188 C   0  0  0  0  0  0  0  0  0  0  0  0
   -1.1067    0.1978    0.0005 C   0  0  0  0  0  0  0  0  0  0  0  0
   -1.3093    1.6603    0.2795 C   0  0  0  0  0  0  0  0  0  0  0  0
   -2.1638   -0.8401    0.0430 C   0  0  0  0  0  0  0  0  0  0  0  0
   -1.5016   -2.0253   -0.2829 O   0  0  0  0  0  0  0  0  0  0  0  0
   -0.1586   -1.7519   -0.5072 C   0  0  0  0  0  0  0  0  0  0  0  0
    0.7554   -2.5708   -0.8238 O   0  0  0  0  0  0  0  0  0  0  0  0
    2.3166    0.2192    1.5054 H   0  0  0  0  0  0  0  0  0  0  0  0
    2.5198   -1.2590    0.4085 H   0  0  0  0  0  0  0  0  0  0  0  0
    3.3969    0.2529    0.0956 H   0  0  0  0  0  0  0  0  0  0  0  0
    1.2076    1.4400   -0.2220 H   0  0  0  0  0  0  0  0  0  0  0  0
    1.7822    0.2673   -1.4976 H   0  0  0  0  0  0  0  0  0  0  0  0
   -0.7445    2.2042   -0.5047 H   0  0  0  0  0  0  0  0  0  0  0  0
   -0.8728    1.8354    1.2903 H   0  0  0  0  0  0  0  0  0  0  0  0
   -2.3725    1.9143    0.2904 H   0  0  0  0  0  0  0  0  0  0  0  0
   -2.8921   -0.5716   -0.7760 H   0  0  0  0  0  0  0  0  0  0  0  0
   -2.7035   -0.8709    1.0089 H   0  0  0  0  0  0  0  0  0  0  0  0
  1  2  1  0
  2  3  1  0
  3  4  2  0
  4  5  1  0
  4  6  1  0
  6  7  1  0
  7  8  1  0
  8  9  2  0
  8  3  1  0
  1 10  1  0
  1 11  1  0
  1 12  1  0
  2 13  1  0
  2 14  1  0
  5 15  1  0
  5 16  1  0
  5 17  1  0
  6 18  1  0
  6 19  1  0
M  END
