
     RDKit          3D

 19 19  0  0  0  0  0  0  0  0999 V2000
    2.6967    0.2319   -0.3162 C   0  0  0  0  0  0  0  0  0  0  0  0
    1.4541    1.0796   -0.1361 C   0  0  0  0  0  0  0  0  0  0  0  0
    0.2634    0.2615   -0.5611 C   0  0  0  0  0  0  0  0  0  0  0  0
    0.1767   -0.9619    0.2828 C   0  0  0  0  0  0  0  0  0  0  0  0
   -1.1191   -1.2584    0.3351 C   0  0  0  0  0  0  0  0  0  0  0  0
   -1.8373   -0.2095   -0.4826 C   0  0  0  0  0  0  0  0  0  0  0  0
   -3.1360    0.1483    0.0776 C   0  0  0  0  0  0  0  0  0  0  0  0
   -3.3277    1.2388    0.5898 O   0  0  0  0  0  0  0  0  0  0  0  0
   -0.9389    0.8721   -0.3201 O   0  0  0  0  0  0  0  0  0  0  0  0
    3.3538    0.6618   -1.0754 H   0  0  0  0  0  0  0  0  0  0  0  0
    3.2141    0.1979    0.6712 H   0  0  0  0  0  0  0  0  0  0  0  0
    2.4702   -0.8112   -0.5922 H   0  0  0  0  0  0  0  0  0  0  0  0
    1.5079    1.9532   -0.8392 H   0  0  0  0  0  0  0  0  0  0  0  0
    1.3038    1.3883    0.9056 H   0  0  0  0  0  0  0  0  0  0  0  0
    0.3073   -0.0607   -1.6101 H   0  0  0  0  0  0  0  0  0  0  0  0
    0.9521   -1.5368    0.7768 H   0  0  0  0  0  0  0  0  0  0  0  0
   -1.5526   -2.0983    0.8695 H   0  0  0  0  0  0  0  0  0  0  0  0
   -1.8461   -0.4954   -1.5493 H   0  0  0  0  0  0  0  0  0  0  0  0
   -3.9424   -0.6012    0.0232 H   0  0  0  0  0  0  0  0  0  0  0  0
  1  2  1  0
  2  3  1  0
  3  4  1  0
  4  5  2  0
  5  6  1  0
  6  7  1  0
  7  8  2  0
  6  9  1  0
  9  3  1  0
  1 10  1  0
  1 11  1  0
  1 12  1  0
  2 13  1  0
  2 14  1  0
  3 15  1  0
  4 16  1  0
  5 17  1  0
  6 18  1  0
  7 19  1  0
M  END
