
     RDKit          3D

 23 23  0  0  0  0  0  0  0  0999 V2000
    2.3898    0.3969    1.1764 C   0  0  0  0  0  0  0  0  0  0  0  0
    1.6817    0.7820   -0.1039 C   0  0  0  0  0  0  0  0  0  0  0  0
    0.8418   -0.3538   -0.5476 C   0  0  0  0  0  0  0  0  0  0  0  0
    0.1098   -0.1781   -1.7211 O   0  0  0  0  0  0  0  0  0  0  0  0
   -0.6671   -1.2530   -1.2483 C   0  0  0  0  0  0  0  0  0  0  0  0
   -0.4021   -0.6921    0.1403 C   0  0  0  0  0  0  0  0  0  0  0  0
   -0.2329   -1.6920    1.0939 O   0  0  0  0  0  0  0  0  0  0  0  0
   -1.4207    0.2803    0.5171 C   0  0  0  0  0  0  0  0  0  0  0  0
   -2.0464    1.0698   -0.5943 C   0  0  0  0  0  0  0  0  0  0  0  0
    1.7234    0.6063    2.0083 H   0  0  0  0  0  0  0  0  0  0  0  0
    2.5763   -0.7084    1.1045 H   0  0  0  0  0  0  0  0  0  0  0  0
    3.3570    0.9493    1.2929 H   0  0  0  0  0  0  0  0  0  0  0  0
    1.1480    1.7446   -0.0213 H   0  0  0  0  0  0  0  0  0  0  0  0
    2.4875    0.9557   -0.8553 H   0  0  0  0  0  0  0  0  0  0  0  0
    1.4708   -1.2728   -0.6670 H   0  0  0  0  0  0  0  0  0  0  0  0
   -1.6982   -1.2300   -1.5883 H   0  0  0  0  0  0  0  0  0  0  0  0
   -0.1319   -2.2244   -1.3470 H   0  0  0  0  0  0  0  0  0  0  0  0
   -1.1010   -1.8886    1.5242 H   0  0  0  0  0  0  0  0  0  0  0  0
   -1.0977    1.0323    1.2972 H   0  0  0  0  0  0  0  0  0  0  0  0
   -2.2539   -0.2699    1.0141 H   0  0  0  0  0  0  0  0  0  0  0  0
   -2.7622    0.4547   -1.1512 H   0  0  0  0  0  0  0  0  0  0  0  0
   -1.3164    1.6088   -1.2233 H   0  0  0  0  0  0  0  0  0  0  0  0
   -2.6554    1.8822   -0.1004 H   0  0  0  0  0  0  0  0  0  0  0  0
  1  2  1  0
  2  3  1  0
  3  4  1  0
  4  5  1  0
  5  6  1  0
  6  7  1  0
  6  8  1  0
  8  9  1  0
  6  3  1  0
  1 10  1  0
  1 11  1  0
  1 12  1  0
  2 13  1  0
  2 14  1  0
  3 15  1  0
  5 16  1  0
  5 17  1  0
  7 18  1  0
  8 19  1  0
  8 20  1  0
  9 21  1  0
  9 22  1  0
  9 23  1  0
M  END
