
     RDKit          3D

 20 21  0  0  0  0  0  0  0  0999 V2000
    2.7391    0.5242    0.0112 C   0  0  0  0  0  0  0  0  0  0  0  0
    1.6580   -0.5356    0.1951 C   0  0  0  0  0  0  0  0  0  0  0  0
    0.2924    0.0907    0.3145 C   0  0  0  0  0  0  0  0  0  0  0  0
   -0.8427   -0.8259    0.4963 C   0  0  0  0  0  0  0  0  0  0  0  0
   -2.2279   -0.3570    0.7952 C   0  0  0  0  0  0  0  0  0  0  0  0
   -2.7771    0.1029   -0.3991 O   0  0  0  0  0  0  0  0  0  0  0  0
   -1.7411    0.8116   -1.0080 C   0  0  0  0  0  0  0  0  0  0  0  0
   -0.5822   -0.1386   -0.8570 C   0  0  0  0  0  0  0  0  0  0  0  0
    3.0014    0.6448   -1.0639 H   0  0  0  0  0  0  0  0  0  0  0  0
    2.4223    1.4807    0.4470 H   0  0  0  0  0  0  0  0  0  0  0  0
    3.6677    0.1379    0.5104 H   0  0  0  0  0  0  0  0  0  0  0  0
    1.8393   -1.1267    1.1198 H   0  0  0  0  0  0  0  0  0  0  0  0
    1.7448   -1.2144   -0.6870 H   0  0  0  0  0  0  0  0  0  0  0  0
    0.3065    1.1113    0.7883 H   0  0  0  0  0  0  0  0  0  0  0  0
   -0.6316   -1.8876    0.5904 H   0  0  0  0  0  0  0  0  0  0  0  0
   -2.2756    0.4638    1.5376 H   0  0  0  0  0  0  0  0  0  0  0  0
   -2.8208   -1.2080    1.2026 H   0  0  0  0  0  0  0  0  0  0  0  0
   -1.5233    1.7717   -0.4917 H   0  0  0  0  0  0  0  0  0  0  0  0
   -1.9263    0.9912   -2.0784 H   0  0  0  0  0  0  0  0  0  0  0  0
   -0.3228   -0.8371   -1.6552 H   0  0  0  0  0  0  0  0  0  0  0  0
  1  2  1  0
  2  3  1  0
  3  4  1  0
  4  5  1  0
  5  6  1  0
  6  7  1  0
  7  8  1  0
  8  3  1  0
  8  4  1  0
  1  9  1  0
  1 10  1  0
  1 11  1  0
  2 12  1  0
  2 13  1  0
  3 14  1  0
  4 15  1  0
  5 16  1  0
  5 17  1  0
  7 18  1  0
  7 19  1  0
  8 20  1  0
M  END
