
     RDKit          3D

 25 26  0  0  0  0  0  0  0  0999 V2000
    2.3695   -0.4160    0.1674 C   0  0  0  0  0  0  0  0  0  0  0  0
    1.0855    0.0481   -0.5497 C   0  0  0  0  0  0  0  0  0  0  0  0
    0.0818    0.2300    0.5416 C   0  0  0  0  0  0  0  0  0  0  0  0
   -0.1084   -1.0696    1.2369 C   0  0  0  0  0  0  0  0  0  0  0  0
   -0.7466   -1.8513    0.0638 C   0  0  0  0  0  0  0  0  0  0  0  0
   -1.4547   -0.7751   -0.7707 C   0  0  0  0  0  0  0  0  0  0  0  0
   -1.4512    0.3379    0.1796 C   0  0  0  0  0  0  0  0  0  0  0  0
   -0.6429    1.4362    0.4666 C   0  0  0  0  0  0  0  0  0  0  0  0
   -0.3857    2.4317   -0.6707 C   0  0  0  0  0  0  0  0  0  0  0  0
    3.2315   -0.1598   -0.4847 H   0  0  0  0  0  0  0  0  0  0  0  0
    2.4330    0.0642    1.1639 H   0  0  0  0  0  0  0  0  0  0  0  0
    2.3519   -1.5225    0.2289 H   0  0  0  0  0  0  0  0  0  0  0  0
    0.8961   -0.7091   -1.2881 H   0  0  0  0  0  0  0  0  0  0  0  0
    1.3773    0.9997   -1.0405 H   0  0  0  0  0  0  0  0  0  0  0  0
    0.8122   -1.5427    1.5672 H   0  0  0  0  0  0  0  0  0  0  0  0
   -0.8138   -0.9762    2.0726 H   0  0  0  0  0  0  0  0  0  0  0  0
    0.0117   -2.3791   -0.5203 H   0  0  0  0  0  0  0  0  0  0  0  0
   -1.4723   -2.5270    0.5631 H   0  0  0  0  0  0  0  0  0  0  0  0
   -1.0627   -0.6297   -1.7580 H   0  0  0  0  0  0  0  0  0  0  0  0
   -2.4966   -1.1934   -0.9313 H   0  0  0  0  0  0  0  0  0  0  0  0
   -2.1619    0.0637    1.0300 H   0  0  0  0  0  0  0  0  0  0  0  0
   -0.7648    2.0222    1.4240 H   0  0  0  0  0  0  0  0  0  0  0  0
   -0.3287    1.9444   -1.6409 H   0  0  0  0  0  0  0  0  0  0  0  0
   -1.2597    3.1460   -0.6632 H   0  0  0  0  0  0  0  0  0  0  0  0
    0.4997    3.0274   -0.3877 H   0  0  0  0  0  0  0  0  0  0  0  0
  1  2  1  0
  2  3  1  0
  3  4  1  0
  4  5  1  0
  5  6  1  0
  6  7  1  0
  7  8  1  0
  8  9  1  0
  7  3  1  0
  8  3  1  0
  1 10  1  0
  1 11  1  0
  1 12  1  0
  2 13  1  0
  2 14  1  0
  4 15  1  0
  4 16  1  0
  5 17  1  0
  5 18  1  0
  6 19  1  0
  6 20  1  0
  7 21  1  0
  8 22  1  0
  9 23  1  0
  9 24  1  0
  9 25  1  0
M  END
