
     RDKit          3D

 19 19  0  0  0  0  0  0  0  0999 V2000
    2.2457   -0.3165   -0.5637 C   0  0  0  0  0  0  0  0  0  0  0  0
    1.1312    0.6463   -0.2121 C   0  0  0  0  0  0  0  0  0  0  0  0
    0.1439    0.0176    0.7508 C   0  0  0  0  0  0  0  0  0  0  0  0
   -0.8911    1.0143    1.0324 C   0  0  0  0  0  0  0  0  0  0  0  0
   -1.8263    0.9202    0.1068 C   0  0  0  0  0  0  0  0  0  0  0  0
   -1.4847   -0.1422   -0.8533 C   0  0  0  0  0  0  0  0  0  0  0  0
   -1.8286   -0.2753   -2.0399 O   0  0  0  0  0  0  0  0  0  0  0  0
   -0.5992   -1.0426   -0.0228 C   0  0  0  0  0  0  0  0  0  0  0  0
   -1.4747   -1.7750    0.7901 O   0  0  0  0  0  0  0  0  0  0  0  0
    3.0103    0.2898   -1.1201 H   0  0  0  0  0  0  0  0  0  0  0  0
    2.7109   -0.7432    0.3533 H   0  0  0  0  0  0  0  0  0  0  0  0
    1.8926   -1.0859   -1.2697 H   0  0  0  0  0  0  0  0  0  0  0  0
    1.5657    1.5326    0.2475 H   0  0  0  0  0  0  0  0  0  0  0  0
    0.6109    0.8837   -1.1616 H   0  0  0  0  0  0  0  0  0  0  0  0
    0.6397   -0.3807    1.6550 H   0  0  0  0  0  0  0  0  0  0  0  0
   -0.9553    1.7440    1.8421 H   0  0  0  0  0  0  0  0  0  0  0  0
   -2.7358    1.5324    0.0383 H   0  0  0  0  0  0  0  0  0  0  0  0
    0.0334   -1.6758   -0.6415 H   0  0  0  0  0  0  0  0  0  0  0  0
   -2.1884   -1.1436    1.0684 H   0  0  0  0  0  0  0  0  0  0  0  0
  1  2  1  0
  2  3  1  0
  3  4  1  0
  4  5  2  0
  5  6  1  0
  6  7  2  0
  6  8  1  0
  8  9  1  0
  8  3  1  0
  1 10  1  0
  1 11  1  0
  1 12  1  0
  2 13  1  0
  2 14  1  0
  3 15  1  0
  4 16  1  0
  5 17  1  0
  8 18  1  0
  9 19  1  0
M  END
