
     RDKit          3D

 23 24  0  0  0  0  0  0  0  0999 V2000
   -2.7580    1.0771    0.1762 C   0  0  0  0  0  0  0  0  0  0  0  0
   -2.0522   -0.1812   -0.3506 C   0  0  0  0  0  0  0  0  0  0  0  0
   -0.7137   -0.1710   -0.1064 C   0  0  0  0  0  0  0  0  0  0  0  0
   -0.0586   -0.1001    1.2768 C   0  0  0  0  0  0  0  0  0  0  0  0
    1.1038   -0.2141    0.3228 C   0  0  0  0  0  0  0  0  0  0  0  0
    2.3178   -0.2134    0.6172 O   0  0  0  0  0  0  0  0  0  0  0  0
    3.2884   -0.3226   -0.3304 C   0  0  0  0  0  0  0  0  0  0  0  0
    0.2870   -1.2684   -0.3710 C   0  0  0  0  0  0  0  0  0  0  0  0
    0.3420    0.7768   -0.5321 C   0  0  0  0  0  0  0  0  0  0  0  0
   -3.7960    1.0977   -0.2167 H   0  0  0  0  0  0  0  0  0  0  0  0
   -2.8452    0.9454    1.2756 H   0  0  0  0  0  0  0  0  0  0  0  0
   -2.1690    1.9678   -0.1042 H   0  0  0  0  0  0  0  0  0  0  0  0
   -2.3419   -0.2398   -1.4199 H   0  0  0  0  0  0  0  0  0  0  0  0
   -2.6068   -1.0268    0.1392 H   0  0  0  0  0  0  0  0  0  0  0  0
   -0.1453    0.8733    1.7739 H   0  0  0  0  0  0  0  0  0  0  0  0
   -0.2283   -0.9821    1.8994 H   0  0  0  0  0  0  0  0  0  0  0  0
    3.2590    0.5099   -1.0893 H   0  0  0  0  0  0  0  0  0  0  0  0
    4.2812   -0.2470    0.1606 H   0  0  0  0  0  0  0  0  0  0  0  0
    3.2881   -1.2811   -0.8910 H   0  0  0  0  0  0  0  0  0  0  0  0
    0.0319   -2.1571    0.2280 H   0  0  0  0  0  0  0  0  0  0  0  0
    0.5572   -1.4175   -1.4170 H   0  0  0  0  0  0  0  0  0  0  0  0
    0.6139    0.7994   -1.5951 H   0  0  0  0  0  0  0  0  0  0  0  0
    0.3447    1.7746   -0.0190 H   0  0  0  0  0  0  0  0  0  0  0  0
  1  2  1  0
  2  3  1  0
  3  4  1  0
  4  5  1  0
  5  6  1  0
  6  7  1  0
  5  8  1  0
  5  9  1  0
  8  3  1  0
  9  3  1  0
  1 10  1  0
  1 11  1  0
  1 12  1  0
  2 13  1  0
  2 14  1  0
  4 15  1  0
  4 16  1  0
  7 17  1  0
  7 18  1  0
  7 19  1  0
  8 20  1  0
  8 21  1  0
  9 22  1  0
  9 23  1  0
M  END
