
     RDKit          3D

 18 18  0  0  0  0  0  0  0  0999 V2000
    2.0389    0.4030    0.5116 C   0  0  0  0  0  0  0  0  0  0  0  0
    1.4008   -0.7972   -0.1038 C   0  0  0  0  0  0  0  0  0  0  0  0
   -0.0688   -0.6667   -0.3173 C   0  0  0  0  0  0  0  0  0  0  0  0
   -0.4761    0.4303   -1.1929 C   0  0  0  0  0  0  0  0  0  0  0  0
   -1.6458    0.9062   -0.7816 C   0  0  0  0  0  0  0  0  0  0  0  0
   -2.1204    0.1508    0.4235 C   0  0  0  0  0  0  0  0  0  0  0  0
   -0.8434   -0.4034    0.9032 C   0  0  0  0  0  0  0  0  0  0  0  0
   -0.5221   -0.5918    2.0373 O   0  0  0  0  0  0  0  0  0  0  0  0
    1.5806    0.7046    1.4692 H   0  0  0  0  0  0  0  0  0  0  0  0
    3.1033    0.1425    0.7389 H   0  0  0  0  0  0  0  0  0  0  0  0
    2.1156    1.2721   -0.2042 H   0  0  0  0  0  0  0  0  0  0  0  0
    1.6629   -1.6850    0.4806 H   0  0  0  0  0  0  0  0  0  0  0  0
    1.8679   -0.9393   -1.1125 H   0  0  0  0  0  0  0  0  0  0  0  0
   -0.5018   -1.6095   -0.7622 H   0  0  0  0  0  0  0  0  0  0  0  0
    0.0186    0.8711   -2.0693 H   0  0  0  0  0  0  0  0  0  0  0  0
   -2.2213    1.7228   -1.2166 H   0  0  0  0  0  0  0  0  0  0  0  0
   -2.7473   -0.6973    0.0518 H   0  0  0  0  0  0  0  0  0  0  0  0
   -2.6415    0.7867    1.1444 H   0  0  0  0  0  0  0  0  0  0  0  0
  1  2  1  0
  2  3  1  0
  3  4  1  0
  4  5  2  0
  5  6  1  0
  6  7  1  0
  7  8  2  0
  7  3  1  0
  1  9  1  0
  1 10  1  0
  1 11  1  0
  2 12  1  0
  2 13  1  0
  3 14  1  0
  4 15  1  0
  5 16  1  0
  6 17  1  0
  6 18  1  0
M  END
