
     RDKit          3D

 21 22  0  0  0  0  0  0  0  0999 V2000
    2.6121   -0.1026    0.7152 C   0  0  0  0  0  0  0  0  0  0  0  0
    1.3863    0.6930    0.2954 C   0  0  0  0  0  0  0  0  0  0  0  0
    0.6268   -0.1781   -0.6800 C   0  0  0  0  0  0  0  0  0  0  0  0
   -0.6323    0.3114   -1.2830 C   0  0  0  0  0  0  0  0  0  0  0  0
   -1.2261    1.3992   -0.6880 O   0  0  0  0  0  0  0  0  0  0  0  0
   -2.0408    0.9645    0.3273 C   0  0  0  0  0  0  0  0  0  0  0  0
   -1.5095   -0.3478    0.7915 C   0  0  0  0  0  0  0  0  0  0  0  0
   -0.6416   -0.8231   -0.3300 C   0  0  0  0  0  0  0  0  0  0  0  0
   -0.8818   -2.1223   -0.8163 O   0  0  0  0  0  0  0  0  0  0  0  0
    2.2437   -0.9160    1.3681 H   0  0  0  0  0  0  0  0  0  0  0  0
    3.0247   -0.5680   -0.1901 H   0  0  0  0  0  0  0  0  0  0  0  0
    3.3512    0.4946    1.2493 H   0  0  0  0  0  0  0  0  0  0  0  0
    1.7781    1.5883   -0.2601 H   0  0  0  0  0  0  0  0  0  0  0  0
    0.7892    1.0462    1.1348 H   0  0  0  0  0  0  0  0  0  0  0  0
    1.2956   -0.7615   -1.3585 H   0  0  0  0  0  0  0  0  0  0  0  0
   -0.8653    0.0445   -2.3343 H   0  0  0  0  0  0  0  0  0  0  0  0
   -3.0906    0.9367   -0.0047 H   0  0  0  0  0  0  0  0  0  0  0  0
   -2.0152    1.7251    1.1622 H   0  0  0  0  0  0  0  0  0  0  0  0
   -0.9870   -0.2743    1.7621 H   0  0  0  0  0  0  0  0  0  0  0  0
   -2.3425   -1.0627    0.9365 H   0  0  0  0  0  0  0  0  0  0  0  0
   -0.8752   -2.0470   -1.7974 H   0  0  0  0  0  0  0  0  0  0  0  0
  1  2  1  0
  2  3  1  0
  3  4  1  0
  4  5  1  0
  5  6  1  0
  6  7  1  0
  7  8  1  0
  8  9  1  0
  8  3  1  0
  8  4  1  0
  1 10  1  0
  1 11  1  0
  1 12  1  0
  2 13  1  0
  2 14  1  0
  3 15  1  0
  4 16  1  0
  6 17  1  0
  6 18  1  0
  7 19  1  0
  7 20  1  0
  9 21  1  0
M  END
