
     RDKit          3D

 21 22  0  0  0  0  0  0  0  0999 V2000
    2.7031    0.0420    0.4730 C   0  0  0  0  0  0  0  0  0  0  0  0
    1.7468   -0.3527   -0.6130 C   0  0  0  0  0  0  0  0  0  0  0  0
    0.4102    0.2834   -0.3408 C   0  0  0  0  0  0  0  0  0  0  0  0
   -0.6682   -0.0258   -1.3608 C   0  0  0  0  0  0  0  0  0  0  0  0
   -1.6107   -0.1478   -0.2273 C   0  0  0  0  0  0  0  0  0  0  0  0
   -2.7315    0.5306    0.1318 C   0  0  0  0  0  0  0  0  0  0  0  0
   -2.7385   -0.9057   -0.2534 O   0  0  0  0  0  0  0  0  0  0  0  0
   -0.4501   -0.4580    0.6698 C   0  0  0  0  0  0  0  0  0  0  0  0
   -0.4405    0.2245    1.8829 O   0  0  0  0  0  0  0  0  0  0  0  0
    3.7080    0.1782    0.0394 H   0  0  0  0  0  0  0  0  0  0  0  0
    2.7201   -0.6782    1.3194 H   0  0  0  0  0  0  0  0  0  0  0  0
    2.3698    1.0131    0.8851 H   0  0  0  0  0  0  0  0  0  0  0  0
    2.1216    0.1092   -1.5644 H   0  0  0  0  0  0  0  0  0  0  0  0
    1.6921   -1.4244   -0.7871 H   0  0  0  0  0  0  0  0  0  0  0  0
    0.4334    1.3553   -0.1401 H   0  0  0  0  0  0  0  0  0  0  0  0
   -0.9337    0.8208   -2.0218 H   0  0  0  0  0  0  0  0  0  0  0  0
   -0.4607   -0.9797   -1.9248 H   0  0  0  0  0  0  0  0  0  0  0  0
   -3.0511    0.6862    1.1857 H   0  0  0  0  0  0  0  0  0  0  0  0
   -3.3493    1.1464   -0.5721 H   0  0  0  0  0  0  0  0  0  0  0  0
   -0.2142   -1.5133    0.8032 H   0  0  0  0  0  0  0  0  0  0  0  0
   -1.2566    0.0959    2.4153 H   0  0  0  0  0  0  0  0  0  0  0  0
  1  2  1  0
  2  3  1  0
  3  4  1  0
  4  5  1  0
  5  6  1  0
  6  7  1  0
  5  8  1  0
  8  9  1  0
  8  3  1  0
  7  5  1  0
  1 10  1  0
  1 11  1  0
  1 12  1  0
  2 13  1  0
  2 14  1  0
  3 15  1  0
  4 16  1  0
  4 17  1  0
  6 18  1  0
  6 19  1  0
  8 20  1  0
  9 21  1  0
M  END
