
     RDKit          3D

 25 26  0  0  0  0  0  0  0  0999 V2000
    2.6967   -0.0368    0.3304 C   0  0  0  0  0  0  0  0  0  0  0  0
    1.4613    0.8274    0.1337 C   0  0  0  0  0  0  0  0  0  0  0  0
    0.2824    0.0081    0.5702 C   0  0  0  0  0  0  0  0  0  0  0  0
   -1.0283    0.7990    0.4095 C   0  0  0  0  0  0  0  0  0  0  0  0
   -0.8354    2.0226   -0.4352 C   0  0  0  0  0  0  0  0  0  0  0  0
   -2.0028   -0.1898   -0.2650 C   0  0  0  0  0  0  0  0  0  0  0  0
   -1.3848   -1.4479    0.2171 C   0  0  0  0  0  0  0  0  0  0  0  0
   -0.4896   -2.3816   -0.3102 C   0  0  0  0  0  0  0  0  0  0  0  0
    0.0313   -1.0842   -0.3963 C   0  0  0  0  0  0  0  0  0  0  0  0
    3.5909    0.4900   -0.0662 H   0  0  0  0  0  0  0  0  0  0  0  0
    2.5181   -0.9865   -0.2529 H   0  0  0  0  0  0  0  0  0  0  0  0
    2.7968   -0.2656    1.4115 H   0  0  0  0  0  0  0  0  0  0  0  0
    1.3835    0.9806   -0.9764 H   0  0  0  0  0  0  0  0  0  0  0  0
    1.5414    1.7615    0.6956 H   0  0  0  0  0  0  0  0  0  0  0  0
    0.3824   -0.4075    1.5792 H   0  0  0  0  0  0  0  0  0  0  0  0
   -1.4479    1.0864    1.3872 H   0  0  0  0  0  0  0  0  0  0  0  0
   -0.4176    1.8268   -1.4202 H   0  0  0  0  0  0  0  0  0  0  0  0
   -1.8197    2.5273   -0.4968 H   0  0  0  0  0  0  0  0  0  0  0  0
   -0.1754    2.7076    0.1338 H   0  0  0  0  0  0  0  0  0  0  0  0
   -1.8728   -0.1226   -1.3597 H   0  0  0  0  0  0  0  0  0  0  0  0
   -3.0292   -0.0115    0.0678 H   0  0  0  0  0  0  0  0  0  0  0  0
   -1.4331   -1.4240    1.3542 H   0  0  0  0  0  0  0  0  0  0  0  0
   -0.7754   -2.9362   -1.2479 H   0  0  0  0  0  0  0  0  0  0  0  0
    0.0284   -3.1177    0.3722 H   0  0  0  0  0  0  0  0  0  0  0  0
   -0.0014   -0.6255   -1.4356 H   0  0  0  0  0  0  0  0  0  0  0  0
  1  2  1  0
  2  3  1  0
  3  4  1  0
  4  5  1  0
  4  6  1  0
  6  7  1  0
  7  8  1  0
  8  9  1  0
  9  3  1  0
  9  7  1  0
  1 10  1  0
  1 11  1  0
  1 12  1  0
  2 13  1  0
  2 14  1  0
  3 15  1  0
  4 16  1  0
  5 17  1  0
  5 18  1  0
  5 19  1  0
  6 20  1  0
  6 21  1  0
  7 22  1  0
  8 23  1  0
  8 24  1  0
  9 25  1  0
M  END
