
     RDKit          3D

 21 22  0  0  0  0  0  0  0  0999 V2000
    2.4491   -0.2049    0.6796 C   0  0  0  0  0  0  0  0  0  0  0  0
    1.3632   -0.4970   -0.2851 C   0  0  0  0  0  0  0  0  0  0  0  0
    0.0880    0.1136   -0.0665 C   0  0  0  0  0  0  0  0  0  0  0  0
   -0.1256    1.5589   -0.0273 C   0  0  0  0  0  0  0  0  0  0  0  0
   -1.4653    1.6593    0.1803 C   0  0  0  0  0  0  0  0  0  0  0  0
   -1.8845    0.2517    0.2577 C   0  0  0  0  0  0  0  0  0  0  0  0
   -1.0917   -0.3491   -0.9133 C   0  0  0  0  0  0  0  0  0  0  0  0
   -0.7650   -0.3429    1.1251 C   0  0  0  0  0  0  0  0  0  0  0  0
   -0.8412   -1.7171    1.2449 O   0  0  0  0  0  0  0  0  0  0  0  0
    2.6742    0.8786    0.7581 H   0  0  0  0  0  0  0  0  0  0  0  0
    3.3910   -0.6824    0.2906 H   0  0  0  0  0  0  0  0  0  0  0  0
    2.3004   -0.6579    1.6868 H   0  0  0  0  0  0  0  0  0  0  0  0
    1.2343   -1.6210   -0.3052 H   0  0  0  0  0  0  0  0  0  0  0  0
    1.7371   -0.2506   -1.3093 H   0  0  0  0  0  0  0  0  0  0  0  0
    0.5994    2.3453   -0.1361 H   0  0  0  0  0  0  0  0  0  0  0  0
   -2.0762    2.5465    0.2676 H   0  0  0  0  0  0  0  0  0  0  0  0
   -2.8711   -0.0492    0.4164 H   0  0  0  0  0  0  0  0  0  0  0  0
   -1.1940   -1.4410   -1.0118 H   0  0  0  0  0  0  0  0  0  0  0  0
   -1.1608    0.2362   -1.8447 H   0  0  0  0  0  0  0  0  0  0  0  0
   -0.6302    0.2362    2.0372 H   0  0  0  0  0  0  0  0  0  0  0  0
   -1.7310   -2.0132    0.8920 H   0  0  0  0  0  0  0  0  0  0  0  0
  1  2  1  0
  2  3  1  0
  3  4  1  0
  4  5  2  0
  5  6  1  0
  6  7  1  0
  6  8  1  0
  8  9  1  0
  7  3  1  0
  8  3  1  0
  1 10  1  0
  1 11  1  0
  1 12  1  0
  2 13  1  0
  2 14  1  0
  4 15  1  0
  5 16  1  0
  6 17  1  0
  7 18  1  0
  7 19  1  0
  8 20  1  0
  9 21  1  0
M  END
