
     RDKit          3D

 25 25  0  0  0  0  0  0  0  0999 V2000
    2.9032    0.1605    0.3559 C   0  0  0  0  0  0  0  0  0  0  0  0
    1.9942    0.2103   -0.8607 C   0  0  0  0  0  0  0  0  0  0  0  0
    0.6440   -0.2542   -0.4550 C   0  0  0  0  0  0  0  0  0  0  0  0
   -0.4922    0.4041   -0.5112 C   0  0  0  0  0  0  0  0  0  0  0  0
   -0.7129    1.8000   -1.0029 C   0  0  0  0  0  0  0  0  0  0  0  0
   -1.6349   -0.4276    0.0021 C   0  0  0  0  0  0  0  0  0  0  0  0
   -2.4765    0.4420    0.8826 C   0  0  0  0  0  0  0  0  0  0  0  0
   -0.9514   -1.5310    0.7858 C   0  0  0  0  0  0  0  0  0  0  0  0
    0.3763   -1.6002    0.0975 C   0  0  0  0  0  0  0  0  0  0  0  0
    2.3163    0.1134    1.2989 H   0  0  0  0  0  0  0  0  0  0  0  0
    3.5353   -0.7668    0.3348 H   0  0  0  0  0  0  0  0  0  0  0  0
    3.5821    1.0382    0.4059 H   0  0  0  0  0  0  0  0  0  0  0  0
    2.4503   -0.4528   -1.6407 H   0  0  0  0  0  0  0  0  0  0  0  0
    1.9591    1.2507   -1.2843 H   0  0  0  0  0  0  0  0  0  0  0  0
    0.1148    2.4785   -0.6554 H   0  0  0  0  0  0  0  0  0  0  0  0
   -1.6485    2.2307   -0.6577 H   0  0  0  0  0  0  0  0  0  0  0  0
   -0.7281    1.7586   -2.1146 H   0  0  0  0  0  0  0  0  0  0  0  0
   -2.1936   -0.8624   -0.8438 H   0  0  0  0  0  0  0  0  0  0  0  0
   -3.4265    0.7011    0.3946 H   0  0  0  0  0  0  0  0  0  0  0  0
   -2.7252   -0.0696    1.8427 H   0  0  0  0  0  0  0  0  0  0  0  0
   -1.9814    1.3959    1.1738 H   0  0  0  0  0  0  0  0  0  0  0  0
   -1.5199   -2.4797    0.6138 H   0  0  0  0  0  0  0  0  0  0  0  0
   -0.8763   -1.2988    1.8564 H   0  0  0  0  0  0  0  0  0  0  0  0
    0.3098   -2.2901   -0.7956 H   0  0  0  0  0  0  0  0  0  0  0  0
    1.1818   -1.9507    0.7769 H   0  0  0  0  0  0  0  0  0  0  0  0
  1  2  1  0
  2  3  1  0
  3  4  2  0
  4  5  1  0
  4  6  1  0
  6  7  1  0
  6  8  1  0
  8  9  1  0
  9  3  1  0
  1 10  1  0
  1 11  1  0
  1 12  1  0
  2 13  1  0
  2 14  1  0
  5 15  1  0
  5 16  1  0
  5 17  1  0
  6 18  1  0
  7 19  1  0
  7 20  1  0
  7 21  1  0
  8 22  1  0
  8 23  1  0
  9 24  1  0
  9 25  1  0
M  END
