
     RDKit          3D

 20 20  0  0  0  0  0  0  0  0999 V2000
   -1.4749    1.3835    0.9474 C   0  0  0  0  0  0  0  0  0  0  0  0
   -1.5555   -0.1270    0.9472 C   0  0  0  0  0  0  0  0  0  0  0  0
   -0.6160   -0.6354   -0.1414 C   0  0  0  0  0  0  0  0  0  0  0  0
    0.8301   -0.3140   -0.0630 C   0  0  0  0  0  0  0  0  0  0  0  0
    1.1898    0.8561   -0.7212 O   0  0  0  0  0  0  0  0  0  0  0  0
    2.5863    0.9851   -0.5329 C   0  0  0  0  0  0  0  0  0  0  0  0
   -0.9451   -2.0039   -0.6992 C   0  0  0  0  0  0  0  0  0  0  0  0
   -1.2481   -0.8379   -1.3525 O   0  0  0  0  0  0  0  0  0  0  0  0
   -0.4121    1.6551    0.7817 H   0  0  0  0  0  0  0  0  0  0  0  0
   -1.8453    1.8109    1.9109 H   0  0  0  0  0  0  0  0  0  0  0  0
   -2.1252    1.7251    0.0895 H   0  0  0  0  0  0  0  0  0  0  0  0
   -1.2600   -0.5099    1.9490 H   0  0  0  0  0  0  0  0  0  0  0  0
   -2.5855   -0.4700    0.7313 H   0  0  0  0  0  0  0  0  0  0  0  0
    1.4317   -1.1254   -0.4981 H   0  0  0  0  0  0  0  0  0  0  0  0
    1.0806   -0.1555    1.0239 H   0  0  0  0  0  0  0  0  0  0  0  0
    3.1217    0.1074   -0.9621 H   0  0  0  0  0  0  0  0  0  0  0  0
    2.9593    1.9386   -0.9290 H   0  0  0  0  0  0  0  0  0  0  0  0
    2.7337    0.9065    0.5737 H   0  0  0  0  0  0  0  0  0  0  0  0
   -1.7446   -2.6006   -0.1970 H   0  0  0  0  0  0  0  0  0  0  0  0
   -0.1210   -2.5887   -1.1729 H   0  0  0  0  0  0  0  0  0  0  0  0
  1  2  1  0
  2  3  1  0
  3  4  1  0
  4  5  1  0
  5  6  1  0
  3  7  1  0
  7  8  1  0
  8  3  1  0
  1  9  1  0
  1 10  1  0
  1 11  1  0
  2 12  1  0
  2 13  1  0
  4 14  1  0
  4 15  1  0
  6 16  1  0
  6 17  1  0
  6 18  1  0
  7 19  1  0
  7 20  1  0
M  END
