
     RDKit          3D

 21 22  0  0  0  0  0  0  0  0999 V2000
    2.9882    0.0850    0.1201 C   0  0  0  0  0  0  0  0  0  0  0  0
    1.9364   -0.9398   -0.2738 C   0  0  0  0  0  0  0  0  0  0  0  0
    0.5677   -0.4077   -0.0768 C   0  0  0  0  0  0  0  0  0  0  0  0
   -0.4485   -0.8204    0.6804 C   0  0  0  0  0  0  0  0  0  0  0  0
   -1.4807    0.2222    0.3151 C   0  0  0  0  0  0  0  0  0  0  0  0
   -2.7532    0.2161    0.9812 C   0  0  0  0  0  0  0  0  0  0  0  0
   -1.3834    0.3492   -1.1817 C   0  0  0  0  0  0  0  0  0  0  0  0
   -0.0155    0.7944   -0.7309 C   0  0  0  0  0  0  0  0  0  0  0  0
   -0.6719    1.3831    0.3700 O   0  0  0  0  0  0  0  0  0  0  0  0
    3.4432   -0.1518    1.0883 H   0  0  0  0  0  0  0  0  0  0  0  0
    2.4899    1.0718    0.1382 H   0  0  0  0  0  0  0  0  0  0  0  0
    3.7960    0.1439   -0.6242 H   0  0  0  0  0  0  0  0  0  0  0  0
    2.0917   -1.1464   -1.3531 H   0  0  0  0  0  0  0  0  0  0  0  0
    2.1293   -1.8419    0.3085 H   0  0  0  0  0  0  0  0  0  0  0  0
   -0.5518   -1.6470    1.3664 H   0  0  0  0  0  0  0  0  0  0  0  0
   -3.0101   -0.8019    1.3640 H   0  0  0  0  0  0  0  0  0  0  0  0
   -2.7455    0.9219    1.8596 H   0  0  0  0  0  0  0  0  0  0  0  0
   -3.5624    0.6003    0.3105 H   0  0  0  0  0  0  0  0  0  0  0  0
   -1.4042   -0.6014   -1.7524 H   0  0  0  0  0  0  0  0  0  0  0  0
   -1.9956    1.1670   -1.5580 H   0  0  0  0  0  0  0  0  0  0  0  0
    0.5803    1.4033   -1.3514 H   0  0  0  0  0  0  0  0  0  0  0  0
  1  2  1  0
  2  3  1  0
  3  4  2  0
  4  5  1  0
  5  6  1  0
  5  7  1  0
  7  8  1  0
  8  9  1  0
  8  3  1  0
  9  5  1  0
  1 10  1  0
  1 11  1  0
  1 12  1  0
  2 13  1  0
  2 14  1  0
  4 15  1  0
  6 16  1  0
  6 17  1  0
  6 18  1  0
  7 19  1  0
  7 20  1  0
  8 21  1  0
M  END
