
     RDKit          3D

 23 25  0  0  0  0  0  0  0  0999 V2000
    2.5795    0.6673    0.1242 C   0  0  0  0  0  0  0  0  0  0  0  0
    1.4520    0.4580    1.1301 C   0  0  0  0  0  0  0  0  0  0  0  0
    0.2900   -0.1064    0.3836 C   0  0  0  0  0  0  0  0  0  0  0  0
    0.6029   -1.4554   -0.2992 C   0  0  0  0  0  0  0  0  0  0  0  0
   -0.4308   -1.3108    0.7716 C   0  0  0  0  0  0  0  0  0  0  0  0
   -1.8700   -1.0879    0.3749 C   0  0  0  0  0  0  0  0  0  0  0  0
   -1.8722    0.0994   -0.5486 C   0  0  0  0  0  0  0  0  0  0  0  0
   -1.7486    1.4888    0.1411 C   0  0  0  0  0  0  0  0  0  0  0  0
   -0.5919    0.7983   -0.4169 C   0  0  0  0  0  0  0  0  0  0  0  0
    3.5706    0.5733    0.5852 H   0  0  0  0  0  0  0  0  0  0  0  0
    2.4672    1.7050   -0.3033 H   0  0  0  0  0  0  0  0  0  0  0  0
    2.5207   -0.0498   -0.7183 H   0  0  0  0  0  0  0  0  0  0  0  0
    1.8139   -0.2601    1.8995 H   0  0  0  0  0  0  0  0  0  0  0  0
    1.1552    1.4176    1.5711 H   0  0  0  0  0  0  0  0  0  0  0  0
    0.2743   -1.5937   -1.3346 H   0  0  0  0  0  0  0  0  0  0  0  0
    1.5180   -1.9769   -0.0233 H   0  0  0  0  0  0  0  0  0  0  0  0
   -0.2363   -1.7092    1.7908 H   0  0  0  0  0  0  0  0  0  0  0  0
   -2.3264   -1.9307   -0.1444 H   0  0  0  0  0  0  0  0  0  0  0  0
   -2.4217   -0.8319    1.3099 H   0  0  0  0  0  0  0  0  0  0  0  0
   -2.4245    0.0836   -1.4920 H   0  0  0  0  0  0  0  0  0  0  0  0
   -2.1605    2.3343   -0.4289 H   0  0  0  0  0  0  0  0  0  0  0  0
   -2.0305    1.4817    1.1984 H   0  0  0  0  0  0  0  0  0  0  0  0
   -0.1308    1.2053   -1.3462 H   0  0  0  0  0  0  0  0  0  0  0  0
  1  2  1  0
  2  3  1  0
  3  4  1  0
  4  5  1  0
  5  6  1  0
  6  7  1  0
  7  8  1  0
  8  9  1  0
  5  3  1  0
  9  7  1  0
  9  3  1  0
  1 10  1  0
  1 11  1  0
  1 12  1  0
  2 13  1  0
  2 14  1  0
  4 15  1  0
  4 16  1  0
  5 17  1  0
  6 18  1  0
  6 19  1  0
  7 20  1  0
  8 21  1  0
  8 22  1  0
  9 23  1  0
M  END
