
     RDKit          3D

 23 24  0  0  0  0  0  0  0  0999 V2000
    2.3741   -0.7445    0.4748 C   0  0  0  0  0  0  0  0  0  0  0  0
    1.7675    0.3152   -0.4033 C   0  0  0  0  0  0  0  0  0  0  0  0
    0.2827    0.2846   -0.4556 C   0  0  0  0  0  0  0  0  0  0  0  0
   -0.3814    1.2985   -1.3001 C   0  0  0  0  0  0  0  0  0  0  0  0
   -0.5650    1.3035    0.1913 C   0  0  0  0  0  0  0  0  0  0  0  0
   -1.8633    0.6526    0.6204 C   0  0  0  0  0  0  0  0  0  0  0  0
   -1.8553   -0.6534   -0.1431 C   0  0  0  0  0  0  0  0  0  0  0  0
   -0.3644   -1.0056   -0.0878 C   0  0  0  0  0  0  0  0  0  0  0  0
   -0.0975   -1.2302    1.2819 O   0  0  0  0  0  0  0  0  0  0  0  0
    1.9565   -1.7484    0.2946 H   0  0  0  0  0  0  0  0  0  0  0  0
    2.2791   -0.5306    1.5564 H   0  0  0  0  0  0  0  0  0  0  0  0
    3.4689   -0.8296    0.2141 H   0  0  0  0  0  0  0  0  0  0  0  0
    2.1944    1.2916   -0.1067 H   0  0  0  0  0  0  0  0  0  0  0  0
    2.1449    0.1237   -1.4454 H   0  0  0  0  0  0  0  0  0  0  0  0
   -1.2343    1.0487   -1.9632 H   0  0  0  0  0  0  0  0  0  0  0  0
    0.2378    2.1180   -1.6819 H   0  0  0  0  0  0  0  0  0  0  0  0
   -0.1207    2.0930    0.8139 H   0  0  0  0  0  0  0  0  0  0  0  0
   -2.7104    1.2790    0.2674 H   0  0  0  0  0  0  0  0  0  0  0  0
   -1.8900    0.4670    1.7052 H   0  0  0  0  0  0  0  0  0  0  0  0
   -2.2136   -0.5586   -1.1763 H   0  0  0  0  0  0  0  0  0  0  0  0
   -2.4004   -1.4578    0.3784 H   0  0  0  0  0  0  0  0  0  0  0  0
   -0.1150   -1.8591   -0.7123 H   0  0  0  0  0  0  0  0  0  0  0  0
   -0.8946   -1.6575    1.6774 H   0  0  0  0  0  0  0  0  0  0  0  0
  1  2  1  0
  2  3  1  0
  3  4  1  0
  4  5  1  0
  5  6  1  0
  6  7  1  0
  7  8  1  0
  8  9  1  0
  5  3  1  0
  8  3  1  0
  1 10  1  0
  1 11  1  0
  1 12  1  0
  2 13  1  0
  2 14  1  0
  4 15  1  0
  4 16  1  0
  5 17  1  0
  6 18  1  0
  6 19  1  0
  7 20  1  0
  7 21  1  0
  8 22  1  0
  9 23  1  0
M  END
