
     RDKit          3D

 21 22  0  0  0  0  0  0  0  0999 V2000
    2.2884   -0.6363   -0.2959 C   0  0  0  0  0  0  0  0  0  0  0  0
    1.4371    0.4513    0.2372 C   0  0  0  0  0  0  0  0  0  0  0  0
    0.1247    0.6268   -0.5159 C   0  0  0  0  0  0  0  0  0  0  0  0
   -0.5741    1.7466    0.1625 C   0  0  0  0  0  0  0  0  0  0  0  0
   -1.3395    1.2264    1.1060 C   0  0  0  0  0  0  0  0  0  0  0  0
   -1.2213   -0.2564    1.1366 C   0  0  0  0  0  0  0  0  0  0  0  0
   -0.8092   -0.4949   -0.3145 C   0  0  0  0  0  0  0  0  0  0  0  0
   -1.2786   -1.4977   -1.0961 C   0  0  0  0  0  0  0  0  0  0  0  0
   -2.0166   -0.2401   -1.1506 O   0  0  0  0  0  0  0  0  0  0  0  0
    2.3648   -1.4858    0.4411 H   0  0  0  0  0  0  0  0  0  0  0  0
    3.3512   -0.2710   -0.3923 H   0  0  0  0  0  0  0  0  0  0  0  0
    2.0116   -0.9896   -1.3068 H   0  0  0  0  0  0  0  0  0  0  0  0
    1.2397    0.3133    1.3134 H   0  0  0  0  0  0  0  0  0  0  0  0
    1.9663    1.4301    0.1303 H   0  0  0  0  0  0  0  0  0  0  0  0
    0.3230    0.8686   -1.5873 H   0  0  0  0  0  0  0  0  0  0  0  0
   -0.4641    2.8223   -0.0879 H   0  0  0  0  0  0  0  0  0  0  0  0
   -1.9679    1.8111    1.7665 H   0  0  0  0  0  0  0  0  0  0  0  0
   -0.4766   -0.6197    1.8499 H   0  0  0  0  0  0  0  0  0  0  0  0
   -2.1839   -0.7555    1.3489 H   0  0  0  0  0  0  0  0  0  0  0  0
   -0.8923   -1.7169   -2.1126 H   0  0  0  0  0  0  0  0  0  0  0  0
   -1.8831   -2.3326   -0.6325 H   0  0  0  0  0  0  0  0  0  0  0  0
  1  2  1  0
  2  3  1  0
  3  4  1  0
  4  5  2  0
  5  6  1  0
  6  7  1  0
  7  8  1  0
  8  9  1  0
  7  3  1  0
  9  7  1  0
  1 10  1  0
  1 11  1  0
  1 12  1  0
  2 13  1  0
  2 14  1  0
  3 15  1  0
  4 16  1  0
  5 17  1  0
  6 18  1  0
  6 19  1  0
  8 20  1  0
  8 21  1  0
M  END
