
     RDKit          3D

 19 20  0  0  0  0  0  0  0  0999 V2000
    2.6058    0.5484    0.4575 C   0  0  0  0  0  0  0  0  0  0  0  0
    1.7339   -0.6514    0.2147 C   0  0  0  0  0  0  0  0  0  0  0  0
    0.2969   -0.2889    0.0856 C   0  0  0  0  0  0  0  0  0  0  0  0
   -0.2689    0.9111    0.1572 C   0  0  0  0  0  0  0  0  0  0  0  0
   -1.7299    0.8442   -0.0246 C   0  0  0  0  0  0  0  0  0  0  0  0
   -2.4438    1.4562    0.9954 O   0  0  0  0  0  0  0  0  0  0  0  0
   -1.9878   -0.6389   -0.1058 C   0  0  0  0  0  0  0  0  0  0  0  0
   -1.7110   -1.4123    1.0017 O   0  0  0  0  0  0  0  0  0  0  0  0
   -0.7700   -1.2903   -0.1570 C   0  0  0  0  0  0  0  0  0  0  0  0
    2.4291    0.8789    1.5046 H   0  0  0  0  0  0  0  0  0  0  0  0
    2.4391    1.3239   -0.2909 H   0  0  0  0  0  0  0  0  0  0  0  0
    3.6637    0.1922    0.4091 H   0  0  0  0  0  0  0  0  0  0  0  0
    2.1182   -1.1586   -0.6998 H   0  0  0  0  0  0  0  0  0  0  0  0
    1.8249   -1.3766    1.0451 H   0  0  0  0  0  0  0  0  0  0  0  0
    0.3697    1.7944    0.3355 H   0  0  0  0  0  0  0  0  0  0  0  0
   -2.0566    1.2857   -0.9897 H   0  0  0  0  0  0  0  0  0  0  0  0
   -3.0627    0.7770    1.3661 H   0  0  0  0  0  0  0  0  0  0  0  0
   -2.9531   -0.8830   -0.6031 H   0  0  0  0  0  0  0  0  0  0  0  0
   -0.4976   -2.3120   -0.4453 H   0  0  0  0  0  0  0  0  0  0  0  0
  1  2  1  0
  2  3  1  0
  3  4  2  0
  4  5  1  0
  5  6  1  0
  5  7  1  0
  7  8  1  0
  8  9  1  0
  9  3  1  0
  9  7  1  0
  1 10  1  0
  1 11  1  0
  1 12  1  0
  2 13  1  0
  2 14  1  0
  4 15  1  0
  5 16  1  0
  6 17  1  0
  7 18  1  0
  9 19  1  0
M  END
