
     RDKit          3D

 21 22  0  0  0  0  0  0  0  0999 V2000
   -2.3524   -0.6311   -0.5119 C   0  0  0  0  0  0  0  0  0  0  0  0
   -1.2830    0.4238   -0.6478 C   0  0  0  0  0  0  0  0  0  0  0  0
   -0.4241    0.3838    0.5968 C   0  0  0  0  0  0  0  0  0  0  0  0
   -1.0781    0.6224    1.7768 O   0  0  0  0  0  0  0  0  0  0  0  0
    0.5182   -0.8142    0.5931 C   0  0  0  0  0  0  0  0  0  0  0  0
    1.4957    0.0063   -0.1407 C   0  0  0  0  0  0  0  0  0  0  0  0
    2.7780   -0.1951   -0.5460 C   0  0  0  0  0  0  0  0  0  0  0  0
    1.6935   -0.2145   -1.4830 O   0  0  0  0  0  0  0  0  0  0  0  0
    0.8231    1.2458    0.3596 C   0  0  0  0  0  0  0  0  0  0  0  0
   -1.8861   -1.6385   -0.5844 H   0  0  0  0  0  0  0  0  0  0  0  0
   -2.8248   -0.5362    0.4868 H   0  0  0  0  0  0  0  0  0  0  0  0
   -3.1410   -0.5035   -1.2853 H   0  0  0  0  0  0  0  0  0  0  0  0
   -0.6856    0.3154   -1.5524 H   0  0  0  0  0  0  0  0  0  0  0  0
   -1.7984    1.4090   -0.7114 H   0  0  0  0  0  0  0  0  0  0  0  0
   -1.3971   -0.2280    2.1584 H   0  0  0  0  0  0  0  0  0  0  0  0
    0.7662   -1.1184    1.6292 H   0  0  0  0  0  0  0  0  0  0  0  0
    0.0695   -1.6841    0.0656 H   0  0  0  0  0  0  0  0  0  0  0  0
    3.3330   -1.1541   -0.4201 H   0  0  0  0  0  0  0  0  0  0  0  0
    3.4775    0.6518   -0.7460 H   0  0  0  0  0  0  0  0  0  0  0  0
    0.6738    2.0630   -0.3602 H   0  0  0  0  0  0  0  0  0  0  0  0
    1.2420    1.5963    1.3230 H   0  0  0  0  0  0  0  0  0  0  0  0
  1  2  1  0
  2  3  1  0
  3  4  1  0
  3  5  1  0
  5  6  1  0
  6  7  1  0
  7  8  1  0
  6  9  1  0
  9  3  1  0
  8  6  1  0
  1 10  1  0
  1 11  1  0
  1 12  1  0
  2 13  1  0
  2 14  1  0
  4 15  1  0
  5 16  1  0
  5 17  1  0
  7 18  1  0
  7 19  1  0
  9 20  1  0
  9 21  1  0
M  END
