
     RDKit          3D

 23 24  0  0  0  0  0  0  0  0999 V2000
    2.9903   -0.8377    0.1224 C   0  0  0  0  0  0  0  0  0  0  0  0
    2.0858    0.1005   -0.6466 C   0  0  0  0  0  0  0  0  0  0  0  0
    0.8511    0.3629    0.1769 C   0  0  0  0  0  0  0  0  0  0  0  0
   -0.1679    1.2642   -0.4030 C   0  0  0  0  0  0  0  0  0  0  0  0
   -1.2965    1.8137    0.4045 C   0  0  0  0  0  0  0  0  0  0  0  0
   -1.9530    0.8026    1.0277 O   0  0  0  0  0  0  0  0  0  0  0  0
   -1.5133   -0.4066    0.5899 C   0  0  0  0  0  0  0  0  0  0  0  0
   -2.6348   -1.2821    0.0264 C   0  0  0  0  0  0  0  0  0  0  0  0
   -0.4106   -0.2066   -0.3939 C   0  0  0  0  0  0  0  0  0  0  0  0
    3.8247   -0.2592    0.5785 H   0  0  0  0  0  0  0  0  0  0  0  0
    3.4049   -1.6452   -0.4872 H   0  0  0  0  0  0  0  0  0  0  0  0
    2.4341   -1.2871    0.9733 H   0  0  0  0  0  0  0  0  0  0  0  0
    2.5856    1.0568   -0.8842 H   0  0  0  0  0  0  0  0  0  0  0  0
    1.8348   -0.3677   -1.6409 H   0  0  0  0  0  0  0  0  0  0  0  0
    0.9804    0.3290    1.2787 H   0  0  0  0  0  0  0  0  0  0  0  0
    0.0443    1.7987   -1.3558 H   0  0  0  0  0  0  0  0  0  0  0  0
   -0.9545    2.5581    1.1775 H   0  0  0  0  0  0  0  0  0  0  0  0
   -1.9936    2.3651   -0.2539 H   0  0  0  0  0  0  0  0  0  0  0  0
   -1.0747   -0.9582    1.4698 H   0  0  0  0  0  0  0  0  0  0  0  0
   -3.5481   -0.6761   -0.1437 H   0  0  0  0  0  0  0  0  0  0  0  0
   -2.2433   -1.6953   -0.9259 H   0  0  0  0  0  0  0  0  0  0  0  0
   -2.8265   -2.1464    0.6932 H   0  0  0  0  0  0  0  0  0  0  0  0
   -0.4193   -0.6834   -1.3838 H   0  0  0  0  0  0  0  0  0  0  0  0
  1  2  1  0
  2  3  1  0
  3  4  1  0
  4  5  1  0
  5  6  1  0
  6  7  1  0
  7  8  1  0
  7  9  1  0
  9  3  1  0
  9  4  1  0
  1 10  1  0
  1 11  1  0
  1 12  1  0
  2 13  1  0
  2 14  1  0
  3 15  1  0
  4 16  1  0
  5 17  1  0
  5 18  1  0
  7 19  1  0
  8 20  1  0
  8 21  1  0
  8 22  1  0
  9 23  1  0
M  END
