
     RDKit          3D

 25 24  0  0  0  0  0  0  0  0999 V2000
   -3.0516    1.0947    0.1935 C   0  0  0  0  0  0  0  0  0  0  0  0
   -1.9936    0.0251    0.4175 C   0  0  0  0  0  0  0  0  0  0  0  0
   -1.1025    0.0468   -0.8091 C   0  0  0  0  0  0  0  0  0  0  0  0
    0.0102   -0.9752   -0.7357 C   0  0  0  0  0  0  0  0  0  0  0  0
    0.8982   -0.7033    0.4847 C   0  0  0  0  0  0  0  0  0  0  0  0
    2.0085   -1.7283    0.5502 C   0  0  0  0  0  0  0  0  0  0  0  0
    1.4022    0.6797    0.4732 C   0  0  0  0  0  0  0  0  0  0  0  0
    2.2289    1.2119   -0.6141 C   0  0  0  0  0  0  0  0  0  0  0  0
    1.1175    1.4077    1.4080 O   0  0  0  0  0  0  0  0  0  0  0  0
   -3.9897    0.6570   -0.2101 H   0  0  0  0  0  0  0  0  0  0  0  0
   -3.3243    1.5247    1.1936 H   0  0  0  0  0  0  0  0  0  0  0  0
   -2.6966    1.8908   -0.4713 H   0  0  0  0  0  0  0  0  0  0  0  0
   -2.4985   -0.9548    0.5208 H   0  0  0  0  0  0  0  0  0  0  0  0
   -1.4245    0.2543    1.3408 H   0  0  0  0  0  0  0  0  0  0  0  0
   -0.6249    1.0595   -0.8534 H   0  0  0  0  0  0  0  0  0  0  0  0
   -1.6768   -0.0631   -1.7329 H   0  0  0  0  0  0  0  0  0  0  0  0
    0.6500   -0.8021   -1.6265 H   0  0  0  0  0  0  0  0  0  0  0  0
   -0.4206   -1.9802   -0.7013 H   0  0  0  0  0  0  0  0  0  0  0  0
    0.2561   -0.8918    1.3691 H   0  0  0  0  0  0  0  0  0  0  0  0
    1.5509   -2.6808    0.8967 H   0  0  0  0  0  0  0  0  0  0  0  0
    2.7039   -1.4055    1.3515 H   0  0  0  0  0  0  0  0  0  0  0  0
    2.5193   -1.8541   -0.4235 H   0  0  0  0  0  0  0  0  0  0  0  0
    1.6364    1.5526   -1.4959 H   0  0  0  0  0  0  0  0  0  0  0  0
    2.7797    2.1280   -0.2696 H   0  0  0  0  0  0  0  0  0  0  0  0
    3.0419    0.5062   -0.9404 H   0  0  0  0  0  0  0  0  0  0  0  0
  1  2  1  0
  2  3  1  0
  3  4  1  0
  4  5  1  0
  5  6  1  0
  5  7  1  0
  7  8  1  0
  7  9  2  0
  1 10  1  0
  1 11  1  0
  1 12  1  0
  2 13  1  0
  2 14  1  0
  3 15  1  0
  3 16  1  0
  4 17  1  0
  4 18  1  0
  5 19  1  0
  6 20  1  0
  6 21  1  0
  6 22  1  0
  8 23  1  0
  8 24  1  0
  8 25  1  0
M  END
