
     RDKit          3D

 22 22  0  0  0  0  0  0  0  0999 V2000
    2.8518    0.7330    0.0908 C   0  0  0  0  0  0  0  0  0  0  0  0
    1.3650    0.8523   -0.2696 C   0  0  0  0  0  0  0  0  0  0  0  0
    0.7108   -0.4217    0.1857 C   0  0  0  0  0  0  0  0  0  0  0  0
   -0.7434   -0.5201   -0.0712 C   0  0  0  0  0  0  0  0  0  0  0  0
   -1.3459   -1.8430    0.4164 C   0  0  0  0  0  0  0  0  0  0  0  0
   -1.4651    0.1797   -1.1347 C   0  0  0  0  0  0  0  0  0  0  0  0
   -1.5154    0.7480    0.2315 C   0  0  0  0  0  0  0  0  0  0  0  0
   -2.6165    0.5562    1.0579 O   0  0  0  0  0  0  0  0  0  0  0  0
    3.1889   -0.2410   -0.3120 H   0  0  0  0  0  0  0  0  0  0  0  0
    2.9271    0.6849    1.2068 H   0  0  0  0  0  0  0  0  0  0  0  0
    3.4427    1.5565   -0.3345 H   0  0  0  0  0  0  0  0  0  0  0  0
    1.0140    1.7273    0.3153 H   0  0  0  0  0  0  0  0  0  0  0  0
    1.2302    1.0869   -1.3230 H   0  0  0  0  0  0  0  0  0  0  0  0
    1.2454   -1.3239   -0.1735 H   0  0  0  0  0  0  0  0  0  0  0  0
    0.8480   -0.4489    1.3093 H   0  0  0  0  0  0  0  0  0  0  0  0
   -0.6074   -2.6243    0.1418 H   0  0  0  0  0  0  0  0  0  0  0  0
   -2.2639   -2.0727   -0.1611 H   0  0  0  0  0  0  0  0  0  0  0  0
   -1.4967   -1.7649    1.4944 H   0  0  0  0  0  0  0  0  0  0  0  0
   -0.9529    0.7489   -1.9476 H   0  0  0  0  0  0  0  0  0  0  0  0
   -2.4103   -0.2792   -1.4934 H   0  0  0  0  0  0  0  0  0  0  0  0
   -1.0152    1.7038    0.3772 H   0  0  0  0  0  0  0  0  0  0  0  0
   -2.3911    0.9621    1.9440 H   0  0  0  0  0  0  0  0  0  0  0  0
  1  2  1  0
  2  3  1  0
  3  4  1  0
  4  5  1  0
  4  6  1  0
  6  7  1  0
  7  8  1  0
  7  4  1  0
  1  9  1  0
  1 10  1  0
  1 11  1  0
  2 12  1  0
  2 13  1  0
  3 14  1  0
  3 15  1  0
  5 16  1  0
  5 17  1  0
  5 18  1  0
  6 19  1  0
  6 20  1  0
  7 21  1  0
  8 22  1  0
M  END
