
     RDKit          3D

 24 23  0  0  0  0  0  0  0  0999 V2000
    3.0848    0.0120    0.2530 C   0  0  0  0  0  0  0  0  0  0  0  0
    1.6999   -0.6508    0.2160 C   0  0  0  0  0  0  0  0  0  0  0  0
    0.7050    0.4584    0.0165 C   0  0  0  0  0  0  0  0  0  0  0  0
   -0.7145   -0.0170   -0.0437 C   0  0  0  0  0  0  0  0  0  0  0  0
   -0.9413   -0.9798   -1.1688 C   0  0  0  0  0  0  0  0  0  0  0  0
   -1.2139   -0.6115    1.2312 C   0  0  0  0  0  0  0  0  0  0  0  0
   -1.5742    1.2182   -0.3483 C   0  0  0  0  0  0  0  0  0  0  0  0
   -2.9123    0.8993   -0.4278 O   0  0  0  0  0  0  0  0  0  0  0  0
    3.8937   -0.7199    0.2073 H   0  0  0  0  0  0  0  0  0  0  0  0
    3.1072    0.6594   -0.6666 H   0  0  0  0  0  0  0  0  0  0  0  0
    3.1478    0.7076    1.1050 H   0  0  0  0  0  0  0  0  0  0  0  0
    1.7393   -1.3729   -0.6090 H   0  0  0  0  0  0  0  0  0  0  0  0
    1.5442   -1.1382    1.1992 H   0  0  0  0  0  0  0  0  0  0  0  0
    0.9181    0.9944   -0.9313 H   0  0  0  0  0  0  0  0  0  0  0  0
    0.8334    1.1771    0.8365 H   0  0  0  0  0  0  0  0  0  0  0  0
   -2.0509   -1.0062   -1.3474 H   0  0  0  0  0  0  0  0  0  0  0  0
   -0.6232   -2.0054   -0.9656 H   0  0  0  0  0  0  0  0  0  0  0  0
   -0.4931   -0.5466   -2.0816 H   0  0  0  0  0  0  0  0  0  0  0  0
   -0.7416   -1.5922    1.4487 H   0  0  0  0  0  0  0  0  0  0  0  0
   -2.3108   -0.7720    1.1203 H   0  0  0  0  0  0  0  0  0  0  0  0
   -1.0822    0.0590    2.1014 H   0  0  0  0  0  0  0  0  0  0  0  0
   -1.3245    1.9789    0.3930 H   0  0  0  0  0  0  0  0  0  0  0  0
   -1.2314    1.5505   -1.3678 H   0  0  0  0  0  0  0  0  0  0  0  0
   -3.4596    1.6976   -0.1699 H   0  0  0  0  0  0  0  0  0  0  0  0
  1  2  1  0
  2  3  1  0
  3  4  1  0
  4  5  1  0
  4  6  1  0
  4  7  1  0
  7  8  1  0
  1  9  1  0
  1 10  1  0
  1 11  1  0
  2 12  1  0
  2 13  1  0
  3 14  1  0
  3 15  1  0
  5 16  1  0
  5 17  1  0
  5 18  1  0
  6 19  1  0
  6 20  1  0
  6 21  1  0
  7 22  1  0
  7 23  1  0
  8 24  1  0
M  END
