
     RDKit          3D

 23 24  0  0  0  0  0  0  0  0999 V2000
   -2.3600    0.6932    0.7268 C   0  0  0  0  0  0  0  0  0  0  0  0
   -2.1668    0.5158   -0.7331 C   0  0  0  0  0  0  0  0  0  0  0  0
   -0.7597    0.5644   -1.2379 C   0  0  0  0  0  0  0  0  0  0  0  0
    0.0957   -0.5124   -0.6455 C   0  0  0  0  0  0  0  0  0  0  0  0
    0.2861   -0.5211    0.8124 C   0  0  0  0  0  0  0  0  0  0  0  0
    0.5394    0.6756    1.4357 O   0  0  0  0  0  0  0  0  0  0  0  0
    1.7517    0.8282    0.7951 C   0  0  0  0  0  0  0  0  0  0  0  0
    1.4535   -0.3027   -0.1463 C   0  0  0  0  0  0  0  0  0  0  0  0
    2.4439   -1.4434   -0.1641 C   0  0  0  0  0  0  0  0  0  0  0  0
   -2.0571   -0.1747    1.3259 H   0  0  0  0  0  0  0  0  0  0  0  0
   -3.4843    0.7620    0.9145 H   0  0  0  0  0  0  0  0  0  0  0  0
   -1.9612    1.6417    1.1257 H   0  0  0  0  0  0  0  0  0  0  0  0
   -2.6259   -0.4498   -1.0662 H   0  0  0  0  0  0  0  0  0  0  0  0
   -2.7964    1.2911   -1.2600 H   0  0  0  0  0  0  0  0  0  0  0  0
   -0.7699    0.5418   -2.3502 H   0  0  0  0  0  0  0  0  0  0  0  0
   -0.3472    1.5941   -0.9967 H   0  0  0  0  0  0  0  0  0  0  0  0
   -0.0397   -1.4882   -1.1994 H   0  0  0  0  0  0  0  0  0  0  0  0
    0.2589   -1.4628    1.4024 H   0  0  0  0  0  0  0  0  0  0  0  0
    1.8763    1.7724    0.2091 H   0  0  0  0  0  0  0  0  0  0  0  0
    2.5806    0.6281    1.5230 H   0  0  0  0  0  0  0  0  0  0  0  0
    3.4781   -1.0352   -0.2090 H   0  0  0  0  0  0  0  0  0  0  0  0
    2.2287   -2.0637   -1.0412 H   0  0  0  0  0  0  0  0  0  0  0  0
    2.3753   -2.0543    0.7791 H   0  0  0  0  0  0  0  0  0  0  0  0
  1  2  1  0
  2  3  1  0
  3  4  1  0
  4  5  1  0
  5  6  1  0
  6  7  1  0
  7  8  1  0
  8  9  1  0
  8  4  1  0
  8  5  1  0
  1 10  1  0
  1 11  1  0
  1 12  1  0
  2 13  1  0
  2 14  1  0
  3 15  1  0
  3 16  1  0
  4 17  1  0
  5 18  1  0
  7 19  1  0
  7 20  1  0
  9 21  1  0
  9 22  1  0
  9 23  1  0
M  END
