
     RDKit          3D

 21 21  0  0  0  0  0  0  0  0999 V2000
   -1.6968   -1.4666    0.7455 C   0  0  0  0  0  0  0  0  0  0  0  0
   -2.1973   -0.1588    0.2618 C   0  0  0  0  0  0  0  0  0  0  0  0
   -1.1906    0.9493    0.2480 C   0  0  0  0  0  0  0  0  0  0  0  0
   -0.0007    0.6722   -0.6238 C   0  0  0  0  0  0  0  0  0  0  0  0
    1.0322    1.7719   -0.6579 C   0  0  0  0  0  0  0  0  0  0  0  0
    1.3582    0.4792    0.0172 C   0  0  0  0  0  0  0  0  0  0  0  0
    2.1945   -0.4593   -0.5889 O   0  0  0  0  0  0  0  0  0  0  0  0
    3.0552   -1.3044    0.0551 C   0  0  0  0  0  0  0  0  0  0  0  0
    3.0974   -1.2278    1.3264 O   0  0  0  0  0  0  0  0  0  0  0  0
   -2.2308   -2.2857    0.1864 H   0  0  0  0  0  0  0  0  0  0  0  0
   -1.9582   -1.6531    1.8198 H   0  0  0  0  0  0  0  0  0  0  0  0
   -0.6324   -1.6501    0.6433 H   0  0  0  0  0  0  0  0  0  0  0  0
   -3.0342    0.1626    0.9181 H   0  0  0  0  0  0  0  0  0  0  0  0
   -2.6368   -0.2608   -0.7559 H   0  0  0  0  0  0  0  0  0  0  0  0
   -0.8417    1.2024    1.2693 H   0  0  0  0  0  0  0  0  0  0  0  0
   -1.6922    1.8543   -0.1537 H   0  0  0  0  0  0  0  0  0  0  0  0
   -0.1775    0.2124   -1.6105 H   0  0  0  0  0  0  0  0  0  0  0  0
    0.8875    2.6576   -0.0060 H   0  0  0  0  0  0  0  0  0  0  0  0
    1.5347    2.0253   -1.6145 H   0  0  0  0  0  0  0  0  0  0  0  0
    1.4291    0.5101    1.1261 H   0  0  0  0  0  0  0  0  0  0  0  0
    3.7005   -2.0307   -0.4353 H   0  0  0  0  0  0  0  0  0  0  0  0
  1  2  1  0
  2  3  1  0
  3  4  1  0
  4  5  1  0
  5  6  1  0
  6  7  1  0
  7  8  1  0
  8  9  2  0
  6  4  1  0
  1 10  1  0
  1 11  1  0
  1 12  1  0
  2 13  1  0
  2 14  1  0
  3 15  1  0
  3 16  1  0
  4 17  1  0
  5 18  1  0
  5 19  1  0
  6 20  1  0
  8 21  1  0
M  END
