
     RDKit          3D

 20 19  0  0  0  0  0  0  0  0999 V2000
    2.6649    0.4103    0.4166 C   0  0  0  0  0  0  0  0  0  0  0  0
    1.3775    0.2822   -0.4030 C   0  0  0  0  0  0  0  0  0  0  0  0
    0.3325   -0.2676    0.5509 C   0  0  0  0  0  0  0  0  0  0  0  0
   -1.0075   -0.4483   -0.1302 C   0  0  0  0  0  0  0  0  0  0  0  0
   -1.4907    0.8826   -0.6483 C   0  0  0  0  0  0  0  0  0  0  0  0
   -0.9455   -1.4062   -1.1388 O   0  0  0  0  0  0  0  0  0  0  0  0
   -1.9665   -0.9027    0.9002 C   0  0  0  0  0  0  0  0  0  0  0  0
   -2.5549   -1.9532    0.7961 O   0  0  0  0  0  0  0  0  0  0  0  0
    2.7211   -0.5372    1.0127 H   0  0  0  0  0  0  0  0  0  0  0  0
    2.4927    1.2257    1.1421 H   0  0  0  0  0  0  0  0  0  0  0  0
    3.5273    0.5677   -0.2345 H   0  0  0  0  0  0  0  0  0  0  0  0
    1.1150    1.2967   -0.7524 H   0  0  0  0  0  0  0  0  0  0  0  0
    1.5309   -0.3756   -1.2727 H   0  0  0  0  0  0  0  0  0  0  0  0
    0.7230   -1.2457    0.9157 H   0  0  0  0  0  0  0  0  0  0  0  0
    0.2786    0.3911    1.4240 H   0  0  0  0  0  0  0  0  0  0  0  0
   -0.8254    1.3438   -1.3817 H   0  0  0  0  0  0  0  0  0  0  0  0
   -2.5239    0.7337   -1.0270 H   0  0  0  0  0  0  0  0  0  0  0  0
   -1.5631    1.5626    0.2370 H   0  0  0  0  0  0  0  0  0  0  0  0
   -1.7464   -1.2795   -1.6976 H   0  0  0  0  0  0  0  0  0  0  0  0
   -2.1396   -0.2804    1.7581 H   0  0  0  0  0  0  0  0  0  0  0  0
  1  2  1  0
  2  3  1  0
  3  4  1  0
  4  5  1  0
  4  6  1  0
  4  7  1  0
  7  8  2  0
  1  9  1  0
  1 10  1  0
  1 11  1  0
  2 12  1  0
  2 13  1  0
  3 14  1  0
  3 15  1  0
  5 16  1  0
  5 17  1  0
  5 18  1  0
  6 19  1  0
  7 20  1  0
M  END
