
     RDKit          3D

 25 25  0  0  0  0  0  0  0  0999 V2000
   -3.1801    0.1138    0.8721 C   0  0  0  0  0  0  0  0  0  0  0  0
   -2.5949    0.1766   -0.5451 C   0  0  0  0  0  0  0  0  0  0  0  0
   -1.2020   -0.4047   -0.4466 C   0  0  0  0  0  0  0  0  0  0  0  0
   -0.3349    0.3837    0.5131 C   0  0  0  0  0  0  0  0  0  0  0  0
    1.0161   -0.2806    0.5300 C   0  0  0  0  0  0  0  0  0  0  0  0
    1.6556   -0.2895   -0.8446 C   0  0  0  0  0  0  0  0  0  0  0  0
    3.1076   -0.3939   -0.4571 C   0  0  0  0  0  0  0  0  0  0  0  0
    3.2592    0.0963    0.8050 O   0  0  0  0  0  0  0  0  0  0  0  0
    2.0515    0.5338    1.2858 C   0  0  0  0  0  0  0  0  0  0  0  0
   -4.2847    0.2347    0.8305 H   0  0  0  0  0  0  0  0  0  0  0  0
   -2.9108   -0.8487    1.3469 H   0  0  0  0  0  0  0  0  0  0  0  0
   -2.7562    0.9852    1.4117 H   0  0  0  0  0  0  0  0  0  0  0  0
   -3.2147   -0.4752   -1.1769 H   0  0  0  0  0  0  0  0  0  0  0  0
   -2.5084    1.2063   -0.8966 H   0  0  0  0  0  0  0  0  0  0  0  0
   -1.1951   -1.4565   -0.1084 H   0  0  0  0  0  0  0  0  0  0  0  0
   -0.6746   -0.3782   -1.4303 H   0  0  0  0  0  0  0  0  0  0  0  0
   -0.7706    0.5251    1.4978 H   0  0  0  0  0  0  0  0  0  0  0  0
   -0.1866    1.3983    0.0411 H   0  0  0  0  0  0  0  0  0  0  0  0
    0.9609   -1.2799    0.9849 H   0  0  0  0  0  0  0  0  0  0  0  0
    1.3124   -1.1182   -1.4706 H   0  0  0  0  0  0  0  0  0  0  0  0
    1.4229    0.7146   -1.3011 H   0  0  0  0  0  0  0  0  0  0  0  0
    3.7804    0.0464   -1.2169 H   0  0  0  0  0  0  0  0  0  0  0  0
    3.3360   -1.4996   -0.4142 H   0  0  0  0  0  0  0  0  0  0  0  0
    1.9472    0.3857    2.3941 H   0  0  0  0  0  0  0  0  0  0  0  0
    1.9640    1.6246    1.0177 H   0  0  0  0  0  0  0  0  0  0  0  0
  1  2  1  0
  2  3  1  0
  3  4  1  0
  4  5  1  0
  5  6  1  0
  6  7  1  0
  7  8  1  0
  8  9  1  0
  9  5  1  0
  1 10  1  0
  1 11  1  0
  1 12  1  0
  2 13  1  0
  2 14  1  0
  3 15  1  0
  3 16  1  0
  4 17  1  0
  4 18  1  0
  5 19  1  0
  6 20  1  0
  6 21  1  0
  7 22  1  0
  7 23  1  0
  9 24  1  0
  9 25  1  0
M  END
