
     RDKit          3D

 23 22  0  0  0  0  0  0  0  0999 V2000
    3.1747    0.9999    0.3523 C   0  0  0  0  0  0  0  0  0  0  0  0
    2.3780   -0.2374   -0.0200 C   0  0  0  0  0  0  0  0  0  0  0  0
    0.9185    0.0853    0.3318 C   0  0  0  0  0  0  0  0  0  0  0  0
    0.1194   -1.1297   -0.0313 C   0  0  0  0  0  0  0  0  0  0  0  0
   -1.3508   -0.9428    0.2706 C   0  0  0  0  0  0  0  0  0  0  0  0
   -1.8525    0.2211   -0.5241 C   0  0  0  0  0  0  0  0  0  0  0  0
   -3.3451    0.4754   -0.2738 C   0  0  0  0  0  0  0  0  0  0  0  0
    2.9113    1.2933    1.3770 H   0  0  0  0  0  0  0  0  0  0  0  0
    2.9638    1.8379   -0.3325 H   0  0  0  0  0  0  0  0  0  0  0  0
    4.2506    0.6881    0.3236 H   0  0  0  0  0  0  0  0  0  0  0  0
    2.7448   -1.0957    0.5562 H   0  0  0  0  0  0  0  0  0  0  0  0
    2.3928   -0.4210   -1.1093 H   0  0  0  0  0  0  0  0  0  0  0  0
    0.6743    0.9667   -0.3052 H   0  0  0  0  0  0  0  0  0  0  0  0
    0.8270    0.3123    1.4095 H   0  0  0  0  0  0  0  0  0  0  0  0
    0.5208   -1.9991    0.5097 H   0  0  0  0  0  0  0  0  0  0  0  0
    0.2288   -1.2866   -1.1371 H   0  0  0  0  0  0  0  0  0  0  0  0
   -1.9402   -1.8542    0.0869 H   0  0  0  0  0  0  0  0  0  0  0  0
   -1.4259   -0.7548    1.3753 H   0  0  0  0  0  0  0  0  0  0  0  0
   -1.3467    1.1522   -0.2040 H   0  0  0  0  0  0  0  0  0  0  0  0
   -1.7651   -0.0074   -1.5877 H   0  0  0  0  0  0  0  0  0  0  0  0
   -3.5317    1.5096   -0.6354 H   0  0  0  0  0  0  0  0  0  0  0  0
   -3.6037    0.3755    0.7837 H   0  0  0  0  0  0  0  0  0  0  0  0
   -3.9431   -0.1885   -0.9360 H   0  0  0  0  0  0  0  0  0  0  0  0
  1  2  1  0
  2  3  1  0
  3  4  1  0
  4  5  1  0
  5  6  1  0
  6  7  1  0
  1  8  1  0
  1  9  1  0
  1 10  1  0
  2 11  1  0
  2 12  1  0
  3 13  1  0
  3 14  1  0
  4 15  1  0
  4 16  1  0
  5 17  1  0
  5 18  1  0
  6 19  1  0
  6 20  1  0
  7 21  1  0
  7 22  1  0
  7 23  1  0
M  END
