
     RDKit          3D

 19 20  0  0  0  0  0  0  0  0999 V2000
    1.9598   -0.7615    0.0588 C   0  0  0  0  0  0  0  0  0  0  0  0
    1.6568    0.6804   -0.1773 C   0  0  0  0  0  0  0  0  0  0  0  0
    0.3292    1.1182    0.3414 C   0  0  0  0  0  0  0  0  0  0  0  0
   -0.8254    0.3642   -0.2840 C   0  0  0  0  0  0  0  0  0  0  0  0
   -2.2254    0.7101    0.1531 C   0  0  0  0  0  0  0  0  0  0  0  0
   -1.6246   -0.5280    0.6939 C   0  0  0  0  0  0  0  0  0  0  0  0
   -1.3562   -1.6052   -0.2924 C   0  0  0  0  0  0  0  0  0  0  0  0
   -1.7292   -2.8116   -0.3104 O   0  0  0  0  0  0  0  0  0  0  0  0
   -0.5875   -0.7476   -1.0915 O   0  0  0  0  0  0  0  0  0  0  0  0
    3.0820   -0.8837    0.1092 H   0  0  0  0  0  0  0  0  0  0  0  0
    1.5938   -1.0666    1.0612 H   0  0  0  0  0  0  0  0  0  0  0  0
    1.6105   -1.4474   -0.7133 H   0  0  0  0  0  0  0  0  0  0  0  0
    2.4365    1.2786    0.3428 H   0  0  0  0  0  0  0  0  0  0  0  0
    1.7303    0.9568   -1.2490 H   0  0  0  0  0  0  0  0  0  0  0  0
    0.3241    0.9904    1.4425 H   0  0  0  0  0  0  0  0  0  0  0  0
    0.1760    2.1890    0.0954 H   0  0  0  0  0  0  0  0  0  0  0  0
   -3.0091    0.6183   -0.6297 H   0  0  0  0  0  0  0  0  0  0  0  0
   -2.3058    1.5522    0.8528 H   0  0  0  0  0  0  0  0  0  0  0  0
   -1.2359   -0.6066    1.7184 H   0  0  0  0  0  0  0  0  0  0  0  0
  1  2  1  0
  2  3  1  0
  3  4  1  0
  4  5  1  0
  5  6  1  0
  6  7  1  0
  7  8  2  0
  7  9  1  0
  6  4  1  0
  9  4  1  0
  1 10  1  0
  1 11  1  0
  1 12  1  0
  2 13  1  0
  2 14  1  0
  3 15  1  0
  3 16  1  0
  5 17  1  0
  5 18  1  0
  6 19  1  0
M  END
