
     RDKit          3D

 27 27  0  0  0  0  0  0  0  0999 V2000
    3.6147   -0.7776   -0.1354 C   0  0  0  0  0  0  0  0  0  0  0  0
    2.3518   -0.3634    0.6031 C   0  0  0  0  0  0  0  0  0  0  0  0
    1.3420    0.0303   -0.4575 C   0  0  0  0  0  0  0  0  0  0  0  0
    0.0242    0.4683    0.1475 C   0  0  0  0  0  0  0  0  0  0  0  0
   -0.8835    0.8304   -1.0220 C   0  0  0  0  0  0  0  0  0  0  0  0
   -2.1133    1.4355   -0.3802 C   0  0  0  0  0  0  0  0  0  0  0  0
   -2.8877    0.3115    0.2591 C   0  0  0  0  0  0  0  0  0  0  0  0
   -2.0653   -0.8488    0.6767 C   0  0  0  0  0  0  0  0  0  0  0  0
   -0.6261   -0.6042    0.9320 C   0  0  0  0  0  0  0  0  0  0  0  0
    3.3504   -1.2758   -1.1132 H   0  0  0  0  0  0  0  0  0  0  0  0
    4.2540    0.0796   -0.3916 H   0  0  0  0  0  0  0  0  0  0  0  0
    4.1979   -1.4744    0.4900 H   0  0  0  0  0  0  0  0  0  0  0  0
    2.6317    0.4999    1.2326 H   0  0  0  0  0  0  0  0  0  0  0  0
    2.0019   -1.1822    1.2288 H   0  0  0  0  0  0  0  0  0  0  0  0
    1.7636    0.8882   -1.0343 H   0  0  0  0  0  0  0  0  0  0  0  0
    1.1672   -0.8008   -1.1699 H   0  0  0  0  0  0  0  0  0  0  0  0
    0.2245    1.3597    0.7823 H   0  0  0  0  0  0  0  0  0  0  0  0
   -0.3905    1.5633   -1.6640 H   0  0  0  0  0  0  0  0  0  0  0  0
   -1.1309   -0.1223   -1.5248 H   0  0  0  0  0  0  0  0  0  0  0  0
   -1.8219    2.1932    0.3780 H   0  0  0  0  0  0  0  0  0  0  0  0
   -2.6950    1.9270   -1.1800 H   0  0  0  0  0  0  0  0  0  0  0  0
   -3.4573    0.7617    1.1008 H   0  0  0  0  0  0  0  0  0  0  0  0
   -3.6712    0.0090   -0.4861 H   0  0  0  0  0  0  0  0  0  0  0  0
   -2.1755   -1.6559   -0.0872 H   0  0  0  0  0  0  0  0  0  0  0  0
   -2.5153   -1.2793    1.6045 H   0  0  0  0  0  0  0  0  0  0  0  0
   -0.4314   -0.4143    2.0094 H   0  0  0  0  0  0  0  0  0  0  0  0
   -0.0590   -1.5586    0.7123 H   0  0  0  0  0  0  0  0  0  0  0  0
  1  2  1  0
  2  3  1  0
  3  4  1  0
  4  5  1  0
  5  6  1  0
  6  7  1  0
  7  8  1  0
  8  9  1  0
  9  4  1  0
  1 10  1  0
  1 11  1  0
  1 12  1  0
  2 13  1  0
  2 14  1  0
  3 15  1  0
  3 16  1  0
  4 17  1  0
  5 18  1  0
  5 19  1  0
  6 20  1  0
  6 21  1  0
  7 22  1  0
  7 23  1  0
  8 24  1  0
  8 25  1  0
  9 26  1  0
  9 27  1  0
M  END
