
     RDKit          3D

 25 25  0  0  0  0  0  0  0  0999 V2000
    3.6107    0.6323    0.1763 C   0  0  0  0  0  0  0  0  0  0  0  0
    2.1869    0.6414   -0.3656 C   0  0  0  0  0  0  0  0  0  0  0  0
    1.3862   -0.2917    0.5039 C   0  0  0  0  0  0  0  0  0  0  0  0
   -0.0456   -0.3562    0.0509 C   0  0  0  0  0  0  0  0  0  0  0  0
   -0.4101    0.3724   -0.9970 C   0  0  0  0  0  0  0  0  0  0  0  0
   -1.8593    0.2608   -1.3974 C   0  0  0  0  0  0  0  0  0  0  0  0
   -2.7511    0.3330   -0.1812 C   0  0  0  0  0  0  0  0  0  0  0  0
   -2.3762   -0.6329    0.8886 C   0  0  0  0  0  0  0  0  0  0  0  0
   -1.0109   -1.2136    0.7644 C   0  0  0  0  0  0  0  0  0  0  0  0
    3.5688    0.9543    1.2259 H   0  0  0  0  0  0  0  0  0  0  0  0
    3.9780   -0.4233    0.0738 H   0  0  0  0  0  0  0  0  0  0  0  0
    4.2048    1.3225   -0.4729 H   0  0  0  0  0  0  0  0  0  0  0  0
    2.1597    0.2437   -1.4034 H   0  0  0  0  0  0  0  0  0  0  0  0
    1.7511    1.6652   -0.2967 H   0  0  0  0  0  0  0  0  0  0  0  0
    1.8601   -1.3092    0.4767 H   0  0  0  0  0  0  0  0  0  0  0  0
    1.4170    0.0233    1.5723 H   0  0  0  0  0  0  0  0  0  0  0  0
    0.2759    1.0155   -1.5463 H   0  0  0  0  0  0  0  0  0  0  0  0
   -2.1379    1.1090   -2.0559 H   0  0  0  0  0  0  0  0  0  0  0  0
   -2.0443   -0.6757   -1.9440 H   0  0  0  0  0  0  0  0  0  0  0  0
   -3.7846    0.1115   -0.5351 H   0  0  0  0  0  0  0  0  0  0  0  0
   -2.7680    1.3938    0.1507 H   0  0  0  0  0  0  0  0  0  0  0  0
   -3.1083   -1.4591    0.9744 H   0  0  0  0  0  0  0  0  0  0  0  0
   -2.4175   -0.0695    1.8679 H   0  0  0  0  0  0  0  0  0  0  0  0
   -1.0955   -2.2079    0.2619 H   0  0  0  0  0  0  0  0  0  0  0  0
   -0.5897   -1.4395    1.7800 H   0  0  0  0  0  0  0  0  0  0  0  0
  1  2  1  0
  2  3  1  0
  3  4  1  0
  4  5  2  0
  5  6  1  0
  6  7  1  0
  7  8  1  0
  8  9  1  0
  9  4  1  0
  1 10  1  0
  1 11  1  0
  1 12  1  0
  2 13  1  0
  2 14  1  0
  3 15  1  0
  3 16  1  0
  5 17  1  0
  6 18  1  0
  6 19  1  0
  7 20  1  0
  7 21  1  0
  8 22  1  0
  8 23  1  0
  9 24  1  0
  9 25  1  0
M  END
