
     RDKit          3D

 25 25  0  0  0  0  0  0  0  0999 V2000
    2.4261   -0.4409    0.6852 C   0  0  0  0  0  0  0  0  0  0  0  0
    2.0611    0.5541   -0.3837 C   0  0  0  0  0  0  0  0  0  0  0  0
    0.7479    0.3454   -1.0391 C   0  0  0  0  0  0  0  0  0  0  0  0
   -0.4578    0.3789   -0.1893 C   0  0  0  0  0  0  0  0  0  0  0  0
   -0.7224    1.6434    0.5851 C   0  0  0  0  0  0  0  0  0  0  0  0
   -1.7002   -0.0153   -1.0382 C   0  0  0  0  0  0  0  0  0  0  0  0
   -2.2478   -0.7642    0.1881 C   0  0  0  0  0  0  0  0  0  0  0  0
   -0.7952   -0.8231    0.6524 C   0  0  0  0  0  0  0  0  0  0  0  0
   -0.1533   -2.0105    0.3198 O   0  0  0  0  0  0  0  0  0  0  0  0
    2.5157   -1.4696    0.2924 H   0  0  0  0  0  0  0  0  0  0  0  0
    1.7258   -0.4619    1.5382 H   0  0  0  0  0  0  0  0  0  0  0  0
    3.4305   -0.1632    1.1051 H   0  0  0  0  0  0  0  0  0  0  0  0
    2.1806    1.5611    0.0739 H   0  0  0  0  0  0  0  0  0  0  0  0
    2.9083    0.5046   -1.1313 H   0  0  0  0  0  0  0  0  0  0  0  0
    0.6656    1.1498   -1.8302 H   0  0  0  0  0  0  0  0  0  0  0  0
    0.7638   -0.5974   -1.6603 H   0  0  0  0  0  0  0  0  0  0  0  0
   -0.5215    2.5582   -0.0008 H   0  0  0  0  0  0  0  0  0  0  0  0
   -0.1693    1.5848    1.5287 H   0  0  0  0  0  0  0  0  0  0  0  0
   -1.8098    1.6498    0.8107 H   0  0  0  0  0  0  0  0  0  0  0  0
   -2.2992    0.8504   -1.3524 H   0  0  0  0  0  0  0  0  0  0  0  0
   -1.4688   -0.7589   -1.8214 H   0  0  0  0  0  0  0  0  0  0  0  0
   -2.8921   -0.0780    0.7488 H   0  0  0  0  0  0  0  0  0  0  0  0
   -2.6250   -1.7644   -0.0116 H   0  0  0  0  0  0  0  0  0  0  0  0
   -0.7772   -0.6823    1.7508 H   0  0  0  0  0  0  0  0  0  0  0  0
   -0.7855   -2.7510    0.1792 H   0  0  0  0  0  0  0  0  0  0  0  0
  1  2  1  0
  2  3  1  0
  3  4  1  0
  4  5  1  0
  4  6  1  0
  6  7  1  0
  7  8  1  0
  8  9  1  0
  8  4  1  0
  1 10  1  0
  1 11  1  0
  1 12  1  0
  2 13  1  0
  2 14  1  0
  3 15  1  0
  3 16  1  0
  5 17  1  0
  5 18  1  0
  5 19  1  0
  6 20  1  0
  6 21  1  0
  7 22  1  0
  7 23  1  0
  8 24  1  0
  9 25  1  0
M  END
