
     RDKit          3D

 19 19  0  0  0  0  0  0  0  0999 V2000
   -2.1311    0.9420   -0.5960 C   0  0  0  0  0  0  0  0  0  0  0  0
   -1.8544   -0.3007    0.1547 C   0  0  0  0  0  0  0  0  0  0  0  0
   -0.6140   -1.0443   -0.1403 C   0  0  0  0  0  0  0  0  0  0  0  0
    0.6586   -0.3545    0.0861 C   0  0  0  0  0  0  0  0  0  0  0  0
    1.5797   -0.7858    0.9668 C   0  0  0  0  0  0  0  0  0  0  0  0
    2.7506    0.1296    0.9588 C   0  0  0  0  0  0  0  0  0  0  0  0
    2.4354    1.0848   -0.0180 O   0  0  0  0  0  0  0  0  0  0  0  0
    1.1617    0.8242   -0.5569 C   0  0  0  0  0  0  0  0  0  0  0  0
    0.6805    1.5689   -1.4330 O   0  0  0  0  0  0  0  0  0  0  0  0
   -1.6926    1.8685   -0.1806 H   0  0  0  0  0  0  0  0  0  0  0  0
   -3.2525    1.1436   -0.5105 H   0  0  0  0  0  0  0  0  0  0  0  0
   -1.9236    0.9104   -1.6799 H   0  0  0  0  0  0  0  0  0  0  0  0
   -1.8404   -0.0177    1.2544 H   0  0  0  0  0  0  0  0  0  0  0  0
   -2.7268   -1.0181    0.1110 H   0  0  0  0  0  0  0  0  0  0  0  0
   -0.6789   -1.4276   -1.2132 H   0  0  0  0  0  0  0  0  0  0  0  0
   -0.6703   -2.0185    0.4377 H   0  0  0  0  0  0  0  0  0  0  0  0
    1.4983   -1.6644    1.5951 H   0  0  0  0  0  0  0  0  0  0  0  0
    2.9318    0.5644    1.9575 H   0  0  0  0  0  0  0  0  0  0  0  0
    3.6881   -0.4045    0.6417 H   0  0  0  0  0  0  0  0  0  0  0  0
  1  2  1  0
  2  3  1  0
  3  4  1  0
  4  5  2  0
  5  6  1  0
  6  7  1  0
  7  8  1  0
  8  9  2  0
  8  4  1  0
  1 10  1  0
  1 11  1  0
  1 12  1  0
  2 13  1  0
  2 14  1  0
  3 15  1  0
  3 16  1  0
  5 17  1  0
  6 18  1  0
  6 19  1  0
M  END
