
     RDKit          3D

 16 16  0  0  0  0  0  0  0  0999 V2000
   -2.4152   -0.1052    0.0978 C   0  0  0  0  0  0  0  0  0  0  0  0
   -1.0405   -0.5244   -0.3689 C   0  0  0  0  0  0  0  0  0  0  0  0
    0.0472    0.3034    0.3204 C   0  0  0  0  0  0  0  0  0  0  0  0
    1.3889   -0.1300   -0.1572 C   0  0  0  0  0  0  0  0  0  0  0  0
    2.6424    0.4478    0.2936 C   0  0  0  0  0  0  0  0  0  0  0  0
    2.1684   -0.7816    0.8073 O   0  0  0  0  0  0  0  0  0  0  0  0
   -3.1441   -0.6979   -0.4846 H   0  0  0  0  0  0  0  0  0  0  0  0
   -2.5037   -0.2141    1.1811 H   0  0  0  0  0  0  0  0  0  0  0  0
   -2.5200    0.9717   -0.1562 H   0  0  0  0  0  0  0  0  0  0  0  0
   -0.8653   -1.6039   -0.2704 H   0  0  0  0  0  0  0  0  0  0  0  0
   -0.9772   -0.2680   -1.4453 H   0  0  0  0  0  0  0  0  0  0  0  0
   -0.1832    1.3695    0.1119 H   0  0  0  0  0  0  0  0  0  0  0  0
   -0.1145    0.1560    1.4083 H   0  0  0  0  0  0  0  0  0  0  0  0
    1.3758   -0.5635   -1.1992 H   0  0  0  0  0  0  0  0  0  0  0  0
    2.6036    1.3312    0.9633 H   0  0  0  0  0  0  0  0  0  0  0  0
    3.5375    0.3091   -0.3335 H   0  0  0  0  0  0  0  0  0  0  0  0
  1  2  1  0
  2  3  1  0
  3  4  1  0
  4  5  1  0
  5  6  1  0
  6  4  1  0
  1  7  1  0
  1  8  1  0
  1  9  1  0
  2 10  1  0
  2 11  1  0
  3 12  1  0
  3 13  1  0
  4 14  1  0
  5 15  1  0
  5 16  1  0
M  END
