
     RDKit          3D

 27 27  0  0  0  0  0  0  0  0999 V2000
   -3.6755   -1.4720    0.2281 C   0  0  0  0  0  0  0  0  0  0  0  0
   -2.2626   -1.0623    0.5647 C   0  0  0  0  0  0  0  0  0  0  0  0
   -1.8958    0.1898   -0.1911 C   0  0  0  0  0  0  0  0  0  0  0  0
   -0.5058    0.6634    0.0875 C   0  0  0  0  0  0  0  0  0  0  0  0
   -0.1368    1.9312   -0.6789 C   0  0  0  0  0  0  0  0  0  0  0  0
    0.5441    0.6328   -0.9733 C   0  0  0  0  0  0  0  0  0  0  0  0
    1.9789    0.5587   -0.5621 C   0  0  0  0  0  0  0  0  0  0  0  0
    2.2532   -0.6876    0.2431 C   0  0  0  0  0  0  0  0  0  0  0  0
    3.7009   -0.7783    0.6673 C   0  0  0  0  0  0  0  0  0  0  0  0
   -3.7594   -2.5644    0.0330 H   0  0  0  0  0  0  0  0  0  0  0  0
   -4.0347   -0.9250   -0.6788 H   0  0  0  0  0  0  0  0  0  0  0  0
   -4.3887   -1.2422    1.0419 H   0  0  0  0  0  0  0  0  0  0  0  0
   -1.5258   -1.8629    0.4594 H   0  0  0  0  0  0  0  0  0  0  0  0
   -2.2661   -0.7792    1.6569 H   0  0  0  0  0  0  0  0  0  0  0  0
   -2.5861    1.0229    0.0030 H   0  0  0  0  0  0  0  0  0  0  0  0
   -1.9622   -0.0429   -1.2754 H   0  0  0  0  0  0  0  0  0  0  0  0
   -0.1131    0.6464    1.1308 H   0  0  0  0  0  0  0  0  0  0  0  0
    0.4229    2.7269   -0.1337 H   0  0  0  0  0  0  0  0  0  0  0  0
   -0.8349    2.3288   -1.4276 H   0  0  0  0  0  0  0  0  0  0  0  0
    0.3256    0.1500   -1.9555 H   0  0  0  0  0  0  0  0  0  0  0  0
    2.3138    1.4609    0.0054 H   0  0  0  0  0  0  0  0  0  0  0  0
    2.6170    0.5197   -1.4707 H   0  0  0  0  0  0  0  0  0  0  0  0
    2.0299   -1.5719   -0.3760 H   0  0  0  0  0  0  0  0  0  0  0  0
    1.6354   -0.6401    1.1664 H   0  0  0  0  0  0  0  0  0  0  0  0
    3.9168   -0.0205    1.4597 H   0  0  0  0  0  0  0  0  0  0  0  0
    3.8103   -1.7879    1.1586 H   0  0  0  0  0  0  0  0  0  0  0  0
    4.3984   -0.7035   -0.1827 H   0  0  0  0  0  0  0  0  0  0  0  0
  1  2  1  0
  2  3  1  0
  3  4  1  0
  4  5  1  0
  5  6  1  0
  6  7  1  0
  7  8  1  0
  8  9  1  0
  6  4  1  0
  1 10  1  0
  1 11  1  0
  1 12  1  0
  2 13  1  0
  2 14  1  0
  3 15  1  0
  3 16  1  0
  4 17  1  0
  5 18  1  0
  5 19  1  0
  6 20  1  0
  7 21  1  0
  7 22  1  0
  8 23  1  0
  8 24  1  0
  9 25  1  0
  9 26  1  0
  9 27  1  0
M  END
