
     RDKit          3D

 27 27  0  0  0  0  0  0  0  0999 V2000
   -3.7695   -0.1032    0.8341 C   0  0  0  0  0  0  0  0  0  0  0  0
   -2.6959    0.0419   -0.2240 C   0  0  0  0  0  0  0  0  0  0  0  0
   -1.4177   -0.5290    0.3526 C   0  0  0  0  0  0  0  0  0  0  0  0
   -0.2664   -0.4395   -0.6191 C   0  0  0  0  0  0  0  0  0  0  0  0
    0.2109    0.8370   -1.1461 C   0  0  0  0  0  0  0  0  0  0  0  0
    1.0712    0.0490   -0.1625 C   0  0  0  0  0  0  0  0  0  0  0  0
    1.2312    0.7288    1.1660 C   0  0  0  0  0  0  0  0  0  0  0  0
    2.2709   -0.6846   -0.6842 C   0  0  0  0  0  0  0  0  0  0  0  0
    3.5680   -0.1402   -0.1852 C   0  0  0  0  0  0  0  0  0  0  0  0
   -3.3410   -0.4038    1.8255 H   0  0  0  0  0  0  0  0  0  0  0  0
   -4.4792   -0.9123    0.5266 H   0  0  0  0  0  0  0  0  0  0  0  0
   -4.3341    0.8440    0.9860 H   0  0  0  0  0  0  0  0  0  0  0  0
   -2.6096    1.1312   -0.4401 H   0  0  0  0  0  0  0  0  0  0  0  0
   -3.0079   -0.4986   -1.1314 H   0  0  0  0  0  0  0  0  0  0  0  0
   -1.2052   -0.0142    1.3121 H   0  0  0  0  0  0  0  0  0  0  0  0
   -1.6361   -1.5853    0.6141 H   0  0  0  0  0  0  0  0  0  0  0  0
   -0.2610   -1.3014   -1.3463 H   0  0  0  0  0  0  0  0  0  0  0  0
    0.6568    0.8845   -2.1581 H   0  0  0  0  0  0  0  0  0  0  0  0
   -0.2612    1.7735   -0.8123 H   0  0  0  0  0  0  0  0  0  0  0  0
    2.0825    1.4617    1.0808 H   0  0  0  0  0  0  0  0  0  0  0  0
    1.4948    0.0369    1.9913 H   0  0  0  0  0  0  0  0  0  0  0  0
    0.3506    1.2999    1.4746 H   0  0  0  0  0  0  0  0  0  0  0  0
    2.2046   -1.7498   -0.3444 H   0  0  0  0  0  0  0  0  0  0  0  0
    2.2725   -0.6149   -1.7920 H   0  0  0  0  0  0  0  0  0  0  0  0
    3.6642    0.9495   -0.2381 H   0  0  0  0  0  0  0  0  0  0  0  0
    3.8316   -0.5121    0.8330 H   0  0  0  0  0  0  0  0  0  0  0  0
    4.3748   -0.5491   -0.8618 H   0  0  0  0  0  0  0  0  0  0  0  0
  1  2  1  0
  2  3  1  0
  3  4  1  0
  4  5  1  0
  5  6  1  0
  6  7  1  0
  6  8  1  0
  8  9  1  0
  6  4  1  0
  1 10  1  0
  1 11  1  0
  1 12  1  0
  2 13  1  0
  2 14  1  0
  3 15  1  0
  3 16  1  0
  4 17  1  0
  5 18  1  0
  5 19  1  0
  7 20  1  0
  7 21  1  0
  7 22  1  0
  8 23  1  0
  8 24  1  0
  9 25  1  0
  9 26  1  0
  9 27  1  0
M  END
