
     RDKit          3D

 24 24  0  0  0  0  0  0  0  0999 V2000
   -3.4650   -0.2815   -0.3984 C   0  0  0  0  0  0  0  0  0  0  0  0
   -2.2107    0.5582   -0.4736 C   0  0  0  0  0  0  0  0  0  0  0  0
   -0.9830   -0.2216   -0.0851 C   0  0  0  0  0  0  0  0  0  0  0  0
    0.2004    0.7151   -0.1977 C   0  0  0  0  0  0  0  0  0  0  0  0
    1.4973    0.0208    0.1753 C   0  0  0  0  0  0  0  0  0  0  0  0
    1.8563   -1.1781   -0.6726 C   0  0  0  0  0  0  0  0  0  0  0  0
    2.6719    0.8545    0.5988 C   0  0  0  0  0  0  0  0  0  0  0  0
    1.9416    0.0207    1.5913 C   0  0  0  0  0  0  0  0  0  0  0  0
   -3.9208   -0.3322   -1.3993 H   0  0  0  0  0  0  0  0  0  0  0  0
   -3.1808   -1.3045   -0.0315 H   0  0  0  0  0  0  0  0  0  0  0  0
   -4.1588    0.1261    0.3464 H   0  0  0  0  0  0  0  0  0  0  0  0
   -2.3342    1.4456    0.1859 H   0  0  0  0  0  0  0  0  0  0  0  0
   -2.0619    0.9581   -1.5045 H   0  0  0  0  0  0  0  0  0  0  0  0
   -1.0572   -0.5988    0.9498 H   0  0  0  0  0  0  0  0  0  0  0  0
   -0.8545   -1.0650   -0.7775 H   0  0  0  0  0  0  0  0  0  0  0  0
    0.2568    0.9971   -1.2909 H   0  0  0  0  0  0  0  0  0  0  0  0
    0.0526    1.6514    0.3443 H   0  0  0  0  0  0  0  0  0  0  0  0
    1.3384   -1.1447   -1.6467 H   0  0  0  0  0  0  0  0  0  0  0  0
    1.4915   -2.0755   -0.1387 H   0  0  0  0  0  0  0  0  0  0  0  0
    2.9290   -1.2669   -0.8677 H   0  0  0  0  0  0  0  0  0  0  0  0
    2.5091    1.9457    0.6135 H   0  0  0  0  0  0  0  0  0  0  0  0
    3.6923    0.5414    0.3462 H   0  0  0  0  0  0  0  0  0  0  0  0
    2.3866   -0.9335    1.9552 H   0  0  0  0  0  0  0  0  0  0  0  0
    1.4031    0.5675    2.3775 H   0  0  0  0  0  0  0  0  0  0  0  0
  1  2  1  0
  2  3  1  0
  3  4  1  0
  4  5  1  0
  5  6  1  0
  5  7  1  0
  7  8  1  0
  8  5  1  0
  1  9  1  0
  1 10  1  0
  1 11  1  0
  2 12  1  0
  2 13  1  0
  3 14  1  0
  3 15  1  0
  4 16  1  0
  4 17  1  0
  6 18  1  0
  6 19  1  0
  6 20  1  0
  7 21  1  0
  7 22  1  0
  8 23  1  0
  8 24  1  0
M  END
