
     RDKit          3D

 25 25  0  0  0  0  0  0  0  0999 V2000
   -3.2617   -0.9831   -0.2080 C   0  0  0  0  0  0  0  0  0  0  0  0
   -2.0922    0.0082   -0.2782 C   0  0  0  0  0  0  0  0  0  0  0  0
   -1.2403   -0.2687    0.9264 C   0  0  0  0  0  0  0  0  0  0  0  0
   -0.0347    0.5986    1.0566 C   0  0  0  0  0  0  0  0  0  0  0  0
    0.9392    0.5213   -0.0680 C   0  0  0  0  0  0  0  0  0  0  0  0
    0.5067    0.8604   -1.3253 O   0  0  0  0  0  0  0  0  0  0  0  0
    1.7475   -0.7847   -0.1103 C   0  0  0  0  0  0  0  0  0  0  0  0
    2.9289    0.0959   -0.5381 C   0  0  0  0  0  0  0  0  0  0  0  0
    2.2626    1.2014    0.2907 C   0  0  0  0  0  0  0  0  0  0  0  0
   -4.1585   -0.4604   -0.6442 H   0  0  0  0  0  0  0  0  0  0  0  0
   -3.4416   -1.2876    0.8360 H   0  0  0  0  0  0  0  0  0  0  0  0
   -3.0724   -1.8613   -0.8551 H   0  0  0  0  0  0  0  0  0  0  0  0
   -1.5643   -0.1855   -1.2307 H   0  0  0  0  0  0  0  0  0  0  0  0
   -2.4874    1.0228   -0.2361 H   0  0  0  0  0  0  0  0  0  0  0  0
   -0.9345   -1.3349    0.9861 H   0  0  0  0  0  0  0  0  0  0  0  0
   -1.8665   -0.0942    1.8365 H   0  0  0  0  0  0  0  0  0  0  0  0
    0.4566    0.3579    2.0107 H   0  0  0  0  0  0  0  0  0  0  0  0
   -0.4008    1.6622    1.0948 H   0  0  0  0  0  0  0  0  0  0  0  0
    0.7523    0.1933   -1.9959 H   0  0  0  0  0  0  0  0  0  0  0  0
    1.9774   -1.2029    0.8828 H   0  0  0  0  0  0  0  0  0  0  0  0
    1.4687   -1.4721   -0.9065 H   0  0  0  0  0  0  0  0  0  0  0  0
    3.9021   -0.2294   -0.1801 H   0  0  0  0  0  0  0  0  0  0  0  0
    2.8162    0.3487   -1.6009 H   0  0  0  0  0  0  0  0  0  0  0  0
    2.3549    2.2037   -0.1262 H   0  0  0  0  0  0  0  0  0  0  0  0
    2.4418    1.0905    1.3737 H   0  0  0  0  0  0  0  0  0  0  0  0
  1  2  1  0
  2  3  1  0
  3  4  1  0
  4  5  1  0
  5  6  1  0
  5  7  1  0
  7  8  1  0
  8  9  1  0
  9  5  1  0
  1 10  1  0
  1 11  1  0
  1 12  1  0
  2 13  1  0
  2 14  1  0
  3 15  1  0
  3 16  1  0
  4 17  1  0
  4 18  1  0
  6 19  1  0
  7 20  1  0
  7 21  1  0
  8 22  1  0
  8 23  1  0
  9 24  1  0
  9 25  1  0
M  END
