
     RDKit          3D

 21 21  0  0  0  0  0  0  0  0999 V2000
   -3.6517   -0.4447    1.2185 C   0  0  0  0  0  0  0  0  0  0  0  0
   -2.7385   -0.2165    0.0544 C   0  0  0  0  0  0  0  0  0  0  0  0
   -1.3094   -0.0968    0.5793 C   0  0  0  0  0  0  0  0  0  0  0  0
   -0.3992    0.1317   -0.5923 C   0  0  0  0  0  0  0  0  0  0  0  0
    0.9696    0.2457   -0.0841 C   0  0  0  0  0  0  0  0  0  0  0  0
    2.1194    0.3335    0.3268 C   0  0  0  0  0  0  0  0  0  0  0  0
    3.4975    0.4584    0.8062 C   0  0  0  0  0  0  0  0  0  0  0  0
    4.6045    0.2105   -0.1960 C   0  0  0  0  0  0  0  0  0  0  0  0
    4.2679   -0.7146    0.7660 O   0  0  0  0  0  0  0  0  0  0  0  0
   -4.0854    0.5118    1.5994 H   0  0  0  0  0  0  0  0  0  0  0  0
   -4.4382   -1.1837    0.9600 H   0  0  0  0  0  0  0  0  0  0  0  0
   -3.0720   -0.8870    2.0655 H   0  0  0  0  0  0  0  0  0  0  0  0
   -3.0191    0.6955   -0.4880 H   0  0  0  0  0  0  0  0  0  0  0  0
   -2.8160   -1.0595   -0.6509 H   0  0  0  0  0  0  0  0  0  0  0  0
   -1.2564    0.7241    1.3069 H   0  0  0  0  0  0  0  0  0  0  0  0
   -1.0111   -1.0558    1.0500 H   0  0  0  0  0  0  0  0  0  0  0  0
   -0.4594   -0.7092   -1.2946 H   0  0  0  0  0  0  0  0  0  0  0  0
   -0.6980    1.0687   -1.1430 H   0  0  0  0  0  0  0  0  0  0  0  0
    3.6977    1.1651    1.6469 H   0  0  0  0  0  0  0  0  0  0  0  0
    4.2659    0.0406   -1.2444 H   0  0  0  0  0  0  0  0  0  0  0  0
    5.5319    0.7824   -0.0901 H   0  0  0  0  0  0  0  0  0  0  0  0
  1  2  1  0
  2  3  1  0
  3  4  1  0
  4  5  1  0
  5  6  3  0
  6  7  1  0
  7  8  1  0
  8  9  1  0
  9  7  1  0
  1 10  1  0
  1 11  1  0
  1 12  1  0
  2 13  1  0
  2 14  1  0
  3 15  1  0
  3 16  1  0
  4 17  1  0
  4 18  1  0
  7 19  1  0
  8 20  1  0
  8 21  1  0
M  END
