
     RDKit          3D

 27 26  0  0  0  0  0  0  0  0999 V2000
    2.9727    0.0949    0.4915 C   0  0  0  0  0  0  0  0  0  0  0  0
    2.3746   -0.4440   -0.8034 C   0  0  0  0  0  0  0  0  0  0  0  0
    0.9686    0.0928   -1.0197 C   0  0  0  0  0  0  0  0  0  0  0  0
    0.1577   -0.3558    0.1462 C   0  0  0  0  0  0  0  0  0  0  0  0
    0.1692   -1.7479    0.1809 O   0  0  0  0  0  0  0  0  0  0  0  0
   -1.2423    0.1552    0.1830 C   0  0  0  0  0  0  0  0  0  0  0  0
   -1.8910   -0.4161    1.4421 C   0  0  0  0  0  0  0  0  0  0  0  0
   -1.2146    1.6707    0.2697 C   0  0  0  0  0  0  0  0  0  0  0  0
   -2.0877   -0.2517   -0.9771 C   0  0  0  0  0  0  0  0  0  0  0  0
    2.6400   -0.4562    1.3742 H   0  0  0  0  0  0  0  0  0  0  0  0
    4.0795    0.0777    0.4465 H   0  0  0  0  0  0  0  0  0  0  0  0
    2.6607    1.1719    0.5389 H   0  0  0  0  0  0  0  0  0  0  0  0
    3.0465   -0.1865   -1.6466 H   0  0  0  0  0  0  0  0  0  0  0  0
    2.3819   -1.5515   -0.7270 H   0  0  0  0  0  0  0  0  0  0  0  0
    1.0679    1.2101   -1.0258 H   0  0  0  0  0  0  0  0  0  0  0  0
    0.6295   -0.2887   -1.9905 H   0  0  0  0  0  0  0  0  0  0  0  0
    0.6677   -0.0145    1.0712 H   0  0  0  0  0  0  0  0  0  0  0  0
   -0.4457   -2.1698   -0.4453 H   0  0  0  0  0  0  0  0  0  0  0  0
   -1.9314    0.3784    2.2116 H   0  0  0  0  0  0  0  0  0  0  0  0
   -1.2960   -1.2639    1.8545 H   0  0  0  0  0  0  0  0  0  0  0  0
   -2.8975   -0.8185    1.2387 H   0  0  0  0  0  0  0  0  0  0  0  0
   -1.7558    2.1422   -0.5893 H   0  0  0  0  0  0  0  0  0  0  0  0
   -0.1807    2.0346    0.3611 H   0  0  0  0  0  0  0  0  0  0  0  0
   -1.8009    1.9929    1.1773 H   0  0  0  0  0  0  0  0  0  0  0  0
   -3.0988    0.1833   -0.8269 H   0  0  0  0  0  0  0  0  0  0  0  0
   -2.2441   -1.3609   -0.9853 H   0  0  0  0  0  0  0  0  0  0  0  0
   -1.7299    0.1216   -1.9506 H   0  0  0  0  0  0  0  0  0  0  0  0
  1  2  1  0
  2  3  1  0
  3  4  1  0
  4  5  1  0
  4  6  1  0
  6  7  1  0
  6  8  1  0
  6  9  1  0
  1 10  1  0
  1 11  1  0
  1 12  1  0
  2 13  1  0
  2 14  1  0
  3 15  1  0
  3 16  1  0
  4 17  1  0
  5 18  1  0
  7 19  1  0
  7 20  1  0
  7 21  1  0
  8 22  1  0
  8 23  1  0
  8 24  1  0
  9 25  1  0
  9 26  1  0
  9 27  1  0
M  END
