
     RDKit          3D

 23 23  0  0  0  0  0  0  0  0999 V2000
    2.7442   -1.2833    0.4023 C   0  0  0  0  0  0  0  0  0  0  0  0
    1.3241   -0.8785   -0.0219 C   0  0  0  0  0  0  0  0  0  0  0  0
    1.2178    0.5937    0.2097 C   0  0  0  0  0  0  0  0  0  0  0  0
   -0.0834    1.2208   -0.1418 C   0  0  0  0  0  0  0  0  0  0  0  0
   -0.1130    2.6183    0.1021 O   0  0  0  0  0  0  0  0  0  0  0  0
   -0.7709    0.8587   -1.4334 C   0  0  0  0  0  0  0  0  0  0  0  0
   -1.3866    0.5691   -0.1076 C   0  0  0  0  0  0  0  0  0  0  0  0
   -1.5995   -0.7562    0.2326 O   0  0  0  0  0  0  0  0  0  0  0  0
   -2.8600   -0.9866    0.7638 C   0  0  0  0  0  0  0  0  0  0  0  0
    2.7340   -2.2688    0.9166 H   0  0  0  0  0  0  0  0  0  0  0  0
    3.1534   -0.5405    1.1310 H   0  0  0  0  0  0  0  0  0  0  0  0
    3.4351   -1.2739   -0.4597 H   0  0  0  0  0  0  0  0  0  0  0  0
    1.2452   -1.1296   -1.0968 H   0  0  0  0  0  0  0  0  0  0  0  0
    0.5771   -1.4316    0.5878 H   0  0  0  0  0  0  0  0  0  0  0  0
    1.5562    0.8182    1.2435 H   0  0  0  0  0  0  0  0  0  0  0  0
    2.0004    1.0756   -0.4482 H   0  0  0  0  0  0  0  0  0  0  0  0
    0.3628    3.0037   -0.7003 H   0  0  0  0  0  0  0  0  0  0  0  0
   -1.1927    1.6560   -2.0825 H   0  0  0  0  0  0  0  0  0  0  0  0
   -0.4459   -0.0235   -2.0031 H   0  0  0  0  0  0  0  0  0  0  0  0
   -2.2964    1.2022    0.1202 H   0  0  0  0  0  0  0  0  0  0  0  0
   -2.9784   -2.0496    1.0165 H   0  0  0  0  0  0  0  0  0  0  0  0
   -2.9496   -0.3628    1.6840 H   0  0  0  0  0  0  0  0  0  0  0  0
   -3.6738   -0.6315    0.0852 H   0  0  0  0  0  0  0  0  0  0  0  0
  1  2  1  0
  2  3  1  0
  3  4  1  0
  4  5  1  0
  4  6  1  0
  6  7  1  0
  7  8  1  0
  8  9  1  0
  7  4  1  0
  1 10  1  0
  1 11  1  0
  1 12  1  0
  2 13  1  0
  2 14  1  0
  3 15  1  0
  3 16  1  0
  5 17  1  0
  6 18  1  0
  6 19  1  0
  7 20  1  0
  9 21  1  0
  9 22  1  0
  9 23  1  0
M  END
