
     RDKit          3D

 23 23  0  0  0  0  0  0  0  0999 V2000
    2.6316    0.0993   -0.2750 C   0  0  0  0  0  0  0  0  0  0  0  0
    2.0199    0.4321    1.0427 C   0  0  0  0  0  0  0  0  0  0  0  0
    0.5226    0.6595    0.9775 C   0  0  0  0  0  0  0  0  0  0  0  0
   -0.1123   -0.5981    0.4758 C   0  0  0  0  0  0  0  0  0  0  0  0
    0.3739   -0.9113   -0.7927 O   0  0  0  0  0  0  0  0  0  0  0  0
   -0.7171   -0.2305   -1.3316 C   0  0  0  0  0  0  0  0  0  0  0  0
   -1.4678   -0.5455   -0.0908 C   0  0  0  0  0  0  0  0  0  0  0  0
   -2.4295    0.4770    0.4089 C   0  0  0  0  0  0  0  0  0  0  0  0
   -2.0530   -1.8024   -0.1617 O   0  0  0  0  0  0  0  0  0  0  0  0
    3.6836    0.4823   -0.2891 H   0  0  0  0  0  0  0  0  0  0  0  0
    2.6810   -0.9955   -0.4685 H   0  0  0  0  0  0  0  0  0  0  0  0
    2.1394    0.5690   -1.1475 H   0  0  0  0  0  0  0  0  0  0  0  0
    2.2633   -0.4184    1.7451 H   0  0  0  0  0  0  0  0  0  0  0  0
    2.5181    1.3231    1.5216 H   0  0  0  0  0  0  0  0  0  0  0  0
    0.3717    1.5152    0.2873 H   0  0  0  0  0  0  0  0  0  0  0  0
    0.1300    0.9916    1.9563 H   0  0  0  0  0  0  0  0  0  0  0  0
   -0.0169   -1.4583    1.1919 H   0  0  0  0  0  0  0  0  0  0  0  0
   -0.4854    0.8478   -1.4347 H   0  0  0  0  0  0  0  0  0  0  0  0
   -1.0816   -0.7155   -2.2606 H   0  0  0  0  0  0  0  0  0  0  0  0
   -1.9763    1.4708    0.5651 H   0  0  0  0  0  0  0  0  0  0  0  0
   -2.8089    0.1435    1.3921 H   0  0  0  0  0  0  0  0  0  0  0  0
   -3.2890    0.5383   -0.2936 H   0  0  0  0  0  0  0  0  0  0  0  0
   -2.8973   -1.8740    0.3492 H   0  0  0  0  0  0  0  0  0  0  0  0
  1  2  1  0
  2  3  1  0
  3  4  1  0
  4  5  1  0
  5  6  1  0
  6  7  1  0
  7  8  1  0
  7  9  1  0
  7  4  1  0
  1 10  1  0
  1 11  1  0
  1 12  1  0
  2 13  1  0
  2 14  1  0
  3 15  1  0
  3 16  1  0
  4 17  1  0
  6 18  1  0
  6 19  1  0
  8 20  1  0
  8 21  1  0
  8 22  1  0
  9 23  1  0
M  END
