
     RDKit          3D

 21 22  0  0  0  0  0  0  0  0999 V2000
   -2.6192   -0.1304    0.2106 C   0  0  0  0  0  0  0  0  0  0  0  0
   -1.7402    0.3398   -0.9294 C   0  0  0  0  0  0  0  0  0  0  0  0
   -0.4279    0.9301   -0.4012 C   0  0  0  0  0  0  0  0  0  0  0  0
    0.3481   -0.0585    0.3785 C   0  0  0  0  0  0  0  0  0  0  0  0
    1.6439    0.3037    0.9856 C   0  0  0  0  0  0  0  0  0  0  0  0
    2.2620    0.2023   -0.3568 C   0  0  0  0  0  0  0  0  0  0  0  0
    1.3231   -0.9439   -0.3168 C   0  0  0  0  0  0  0  0  0  0  0  0
    1.8633   -1.1746    1.0573 C   0  0  0  0  0  0  0  0  0  0  0  0
    2.2499   -2.0448    1.7927 O   0  0  0  0  0  0  0  0  0  0  0  0
   -3.6344    0.3296    0.1724 H   0  0  0  0  0  0  0  0  0  0  0  0
   -2.7781   -1.2229    0.0952 H   0  0  0  0  0  0  0  0  0  0  0  0
   -2.2032    0.1344    1.1987 H   0  0  0  0  0  0  0  0  0  0  0  0
   -1.5483   -0.4645   -1.6684 H   0  0  0  0  0  0  0  0  0  0  0  0
   -2.2913    1.1352   -1.4736 H   0  0  0  0  0  0  0  0  0  0  0  0
   -0.6725    1.8608    0.1446 H   0  0  0  0  0  0  0  0  0  0  0  0
    0.1283    1.2364   -1.3047 H   0  0  0  0  0  0  0  0  0  0  0  0
   -0.3087   -0.6723    1.0507 H   0  0  0  0  0  0  0  0  0  0  0  0
    1.8454    0.9507    1.7257 H   0  0  0  0  0  0  0  0  0  0  0  0
    3.3500   -0.0516   -0.2619 H   0  0  0  0  0  0  0  0  0  0  0  0
    2.0593    0.9937   -1.0996 H   0  0  0  0  0  0  0  0  0  0  0  0
    1.1506   -1.6531   -0.9995 H   0  0  0  0  0  0  0  0  0  0  0  0
  1  2  1  0
  2  3  1  0
  3  4  1  0
  4  5  1  0
  5  6  1  0
  6  7  1  0
  7  8  1  0
  8  9  2  0
  7  4  1  0
  8  5  1  0
  1 10  1  0
  1 11  1  0
  1 12  1  0
  2 13  1  0
  2 14  1  0
  3 15  1  0
  3 16  1  0
  4 17  1  0
  5 18  1  0
  6 19  1  0
  6 20  1  0
  7 21  1  0
M  END
