
     RDKit          3D

 21 21  0  0  0  0  0  0  0  0999 V2000
   -2.9356    0.6958    0.3350 C   0  0  0  0  0  0  0  0  0  0  0  0
   -2.3732    0.2813   -0.9968 C   0  0  0  0  0  0  0  0  0  0  0  0
   -1.1156   -0.5276   -0.8580 C   0  0  0  0  0  0  0  0  0  0  0  0
   -0.0324    0.2138   -0.1602 C   0  0  0  0  0  0  0  0  0  0  0  0
   -0.1725    1.3562    0.2476 O   0  0  0  0  0  0  0  0  0  0  0  0
    1.2628   -0.5078    0.0277 C   0  0  0  0  0  0  0  0  0  0  0  0
    2.2861    0.3181    0.7375 C   0  0  0  0  0  0  0  0  0  0  0  0
    3.6041   -0.3017    0.9746 C   0  0  0  0  0  0  0  0  0  0  0  0
    3.4094    0.6788   -0.1467 O   0  0  0  0  0  0  0  0  0  0  0  0
   -2.7688   -0.1373    1.0577 H   0  0  0  0  0  0  0  0  0  0  0  0
   -2.4600    1.6365    0.6403 H   0  0  0  0  0  0  0  0  0  0  0  0
   -4.0291    0.8700    0.2361 H   0  0  0  0  0  0  0  0  0  0  0  0
   -3.1280   -0.3668   -1.4859 H   0  0  0  0  0  0  0  0  0  0  0  0
   -2.2111    1.1414   -1.6748 H   0  0  0  0  0  0  0  0  0  0  0  0
   -0.7835   -0.7984   -1.8862 H   0  0  0  0  0  0  0  0  0  0  0  0
   -1.3777   -1.4704   -0.3439 H   0  0  0  0  0  0  0  0  0  0  0  0
    1.5928   -0.8474   -0.9706 H   0  0  0  0  0  0  0  0  0  0  0  0
    1.0144   -1.4030    0.6623 H   0  0  0  0  0  0  0  0  0  0  0  0
    1.9985    1.1467    1.3874 H   0  0  0  0  0  0  0  0  0  0  0  0
    3.8617   -1.2955    0.5746 H   0  0  0  0  0  0  0  0  0  0  0  0
    4.3576    0.1502    1.6424 H   0  0  0  0  0  0  0  0  0  0  0  0
  1  2  1  0
  2  3  1  0
  3  4  1  0
  4  5  2  0
  4  6  1  0
  6  7  1  0
  7  8  1  0
  8  9  1  0
  9  7  1  0
  1 10  1  0
  1 11  1  0
  1 12  1  0
  2 13  1  0
  2 14  1  0
  3 15  1  0
  3 16  1  0
  6 17  1  0
  6 18  1  0
  7 19  1  0
  8 20  1  0
  8 21  1  0
M  END
