
     RDKit          3D

 23 23  0  0  0  0  0  0  0  0999 V2000
   -2.4925   -0.4978    0.7884 C   0  0  0  0  0  0  0  0  0  0  0  0
   -2.2580   -0.4154   -0.7031 C   0  0  0  0  0  0  0  0  0  0  0  0
   -1.1606    0.6036   -0.9613 C   0  0  0  0  0  0  0  0  0  0  0  0
    0.1261    0.2296   -0.2950 C   0  0  0  0  0  0  0  0  0  0  0  0
   -0.0278    0.1356    1.0767 O   0  0  0  0  0  0  0  0  0  0  0  0
    1.1237   -0.2024    1.7322 C   0  0  0  0  0  0  0  0  0  0  0  0
    2.3298   -0.2768    0.8241 C   0  0  0  0  0  0  0  0  0  0  0  0
    2.3082    0.7525   -0.2648 C   0  0  0  0  0  0  0  0  0  0  0  0
    1.0440    1.2472   -0.5407 O   0  0  0  0  0  0  0  0  0  0  0  0
   -2.3257    0.4993    1.2916 H   0  0  0  0  0  0  0  0  0  0  0  0
   -3.5559   -0.7899    1.0130 H   0  0  0  0  0  0  0  0  0  0  0  0
   -1.8735   -1.2855    1.2584 H   0  0  0  0  0  0  0  0  0  0  0  0
   -3.1863   -0.0577   -1.1908 H   0  0  0  0  0  0  0  0  0  0  0  0
   -1.9373   -1.4044   -1.0422 H   0  0  0  0  0  0  0  0  0  0  0  0
   -1.4825    1.6098   -0.6153 H   0  0  0  0  0  0  0  0  0  0  0  0
   -0.9568    0.7090   -2.0470 H   0  0  0  0  0  0  0  0  0  0  0  0
    0.5332   -0.7105   -0.7383 H   0  0  0  0  0  0  0  0  0  0  0  0
    1.3629    0.5410    2.5234 H   0  0  0  0  0  0  0  0  0  0  0  0
    1.0173   -1.1985    2.2471 H   0  0  0  0  0  0  0  0  0  0  0  0
    2.4205   -1.3250    0.4304 H   0  0  0  0  0  0  0  0  0  0  0  0
    3.2645   -0.1127    1.4133 H   0  0  0  0  0  0  0  0  0  0  0  0
    2.7919    0.2976   -1.1681 H   0  0  0  0  0  0  0  0  0  0  0  0
    2.9348    1.6512    0.0109 H   0  0  0  0  0  0  0  0  0  0  0  0
  1  2  1  0
  2  3  1  0
  3  4  1  0
  4  5  1  0
  5  6  1  0
  6  7  1  0
  7  8  1  0
  8  9  1  0
  9  4  1  0
  1 10  1  0
  1 11  1  0
  1 12  1  0
  2 13  1  0
  2 14  1  0
  3 15  1  0
  3 16  1  0
  4 17  1  0
  6 18  1  0
  6 19  1  0
  7 20  1  0
  7 21  1  0
  8 22  1  0
  8 23  1  0
M  END
