
     RDKit          3D

 22 21  0  0  0  0  0  0  0  0999 V2000
   -2.9081    0.7069   -0.1016 C   0  0  0  0  0  0  0  0  0  0  0  0
   -1.7301   -0.0139   -0.7045 C   0  0  0  0  0  0  0  0  0  0  0  0
   -0.4406    0.2871    0.0486 C   0  0  0  0  0  0  0  0  0  0  0  0
    0.6509   -0.4919   -0.6542 C   0  0  0  0  0  0  0  0  0  0  0  0
    0.2934   -1.9304   -0.5857 C   0  0  0  0  0  0  0  0  0  0  0  0
    0.6721   -2.7132   -1.4229 O   0  0  0  0  0  0  0  0  0  0  0  0
    1.9947   -0.3253    0.0199 C   0  0  0  0  0  0  0  0  0  0  0  0
    2.4435    1.1064    0.0516 C   0  0  0  0  0  0  0  0  0  0  0  0
   -3.8285    0.2482   -0.5257 H   0  0  0  0  0  0  0  0  0  0  0  0
   -2.9059    0.5839    0.9893 H   0  0  0  0  0  0  0  0  0  0  0  0
   -2.9062    1.7614   -0.4296 H   0  0  0  0  0  0  0  0  0  0  0  0
   -1.5849    0.3574   -1.7346 H   0  0  0  0  0  0  0  0  0  0  0  0
   -1.9344   -1.0846   -0.6982 H   0  0  0  0  0  0  0  0  0  0  0  0
   -0.2319    1.3521    0.0885 H   0  0  0  0  0  0  0  0  0  0  0  0
   -0.5070   -0.1515    1.0848 H   0  0  0  0  0  0  0  0  0  0  0  0
    0.7401   -0.1576   -1.7074 H   0  0  0  0  0  0  0  0  0  0  0  0
   -0.3180   -2.2863    0.2292 H   0  0  0  0  0  0  0  0  0  0  0  0
    2.7156   -0.9390   -0.5544 H   0  0  0  0  0  0  0  0  0  0  0  0
    1.9538   -0.6853    1.0682 H   0  0  0  0  0  0  0  0  0  0  0  0
    2.2420    1.5646    1.0185 H   0  0  0  0  0  0  0  0  0  0  0  0
    2.0268    1.7135   -0.7725 H   0  0  0  0  0  0  0  0  0  0  0  0
    3.5626    1.0977   -0.0877 H   0  0  0  0  0  0  0  0  0  0  0  0
  1  2  1  0
  2  3  1  0
  3  4  1  0
  4  5  1  0
  5  6  2  0
  4  7  1  0
  7  8  1  0
  1  9  1  0
  1 10  1  0
  1 11  1  0
  2 12  1  0
  2 13  1  0
  3 14  1  0
  3 15  1  0
  4 16  1  0
  5 17  1  0
  7 18  1  0
  7 19  1  0
  8 20  1  0
  8 21  1  0
  8 22  1  0
M  END
