
     RDKit          3D

 23 22  0  0  0  0  0  0  0  0999 V2000
    2.6417    0.6130   -0.1115 C   0  0  0  0  0  0  0  0  0  0  0  0
    2.0323   -0.6404    0.4280 C   0  0  0  0  0  0  0  0  0  0  0  0
    0.5366   -0.4567    0.7183 C   0  0  0  0  0  0  0  0  0  0  0  0
   -0.1017   -0.0898   -0.5990 C   0  0  0  0  0  0  0  0  0  0  0  0
    0.1328   -1.1377   -1.4871 O   0  0  0  0  0  0  0  0  0  0  0  0
   -1.5783    0.1815   -0.4804 C   0  0  0  0  0  0  0  0  0  0  0  0
   -1.8460    1.3214    0.4653 C   0  0  0  0  0  0  0  0  0  0  0  0
   -2.3643   -0.9786   -0.0610 C   0  0  0  0  0  0  0  0  0  0  0  0
   -2.3754   -1.3648    1.0883 O   0  0  0  0  0  0  0  0  0  0  0  0
    3.7517    0.5069   -0.0089 H   0  0  0  0  0  0  0  0  0  0  0  0
    2.4449    0.7775   -1.1844 H   0  0  0  0  0  0  0  0  0  0  0  0
    2.3227    1.4541    0.5324 H   0  0  0  0  0  0  0  0  0  0  0  0
    2.1875   -1.4625   -0.2864 H   0  0  0  0  0  0  0  0  0  0  0  0
    2.5405   -0.8677    1.3964 H   0  0  0  0  0  0  0  0  0  0  0  0
    0.0898   -1.4205    1.0322 H   0  0  0  0  0  0  0  0  0  0  0  0
    0.4033    0.2918    1.5014 H   0  0  0  0  0  0  0  0  0  0  0  0
    0.3738    0.8604   -0.9293 H   0  0  0  0  0  0  0  0  0  0  0  0
   -0.7192   -1.4713   -1.8392 H   0  0  0  0  0  0  0  0  0  0  0  0
   -1.9172    0.5123   -1.4935 H   0  0  0  0  0  0  0  0  0  0  0  0
   -2.5946    2.0181    0.0496 H   0  0  0  0  0  0  0  0  0  0  0  0
   -2.1099    0.9859    1.4754 H   0  0  0  0  0  0  0  0  0  0  0  0
   -0.8892    1.8950    0.5642 H   0  0  0  0  0  0  0  0  0  0  0  0
   -2.9618   -1.5278   -0.7708 H   0  0  0  0  0  0  0  0  0  0  0  0
  1  2  1  0
  2  3  1  0
  3  4  1  0
  4  5  1  0
  4  6  1  0
  6  7  1  0
  6  8  1  0
  8  9  2  0
  1 10  1  0
  1 11  1  0
  1 12  1  0
  2 13  1  0
  2 14  1  0
  3 15  1  0
  3 16  1  0
  4 17  1  0
  5 18  1  0
  6 19  1  0
  7 20  1  0
  7 21  1  0
  7 22  1  0
  8 23  1  0
M  END
