
     RDKit          3D

 25 24  0  0  0  0  0  0  0  0999 V2000
    3.3484    0.0813    0.3049 C   0  0  0  0  0  0  0  0  0  0  0  0
    1.8714   -0.0438    0.6500 C   0  0  0  0  0  0  0  0  0  0  0  0
    1.1110   -0.1022   -0.6569 C   0  0  0  0  0  0  0  0  0  0  0  0
   -0.3632   -0.2263   -0.4696 C   0  0  0  0  0  0  0  0  0  0  0  0
   -0.7370   -1.4763    0.2908 C   0  0  0  0  0  0  0  0  0  0  0  0
   -0.9488   -0.3015   -1.7346 O   0  0  0  0  0  0  0  0  0  0  0  0
   -0.9735    0.9688    0.2249 C   0  0  0  0  0  0  0  0  0  0  0  0
   -2.4670    0.7786    0.3827 C   0  0  0  0  0  0  0  0  0  0  0  0
   -3.0607    1.8446    1.0104 O   0  0  0  0  0  0  0  0  0  0  0  0
    3.6391   -0.7953   -0.3098 H   0  0  0  0  0  0  0  0  0  0  0  0
    3.9748    0.1244    1.2127 H   0  0  0  0  0  0  0  0  0  0  0  0
    3.4531    0.9807   -0.3371 H   0  0  0  0  0  0  0  0  0  0  0  0
    1.5446    0.8531    1.2244 H   0  0  0  0  0  0  0  0  0  0  0  0
    1.6579   -0.9220    1.2632 H   0  0  0  0  0  0  0  0  0  0  0  0
    1.3643    0.7481   -1.2906 H   0  0  0  0  0  0  0  0  0  0  0  0
    1.4609   -1.0174   -1.1818 H   0  0  0  0  0  0  0  0  0  0  0  0
   -0.1179   -2.3119   -0.0951 H   0  0  0  0  0  0  0  0  0  0  0  0
   -1.7916   -1.7454    0.0345 H   0  0  0  0  0  0  0  0  0  0  0  0
   -0.6385   -1.3440    1.3898 H   0  0  0  0  0  0  0  0  0  0  0  0
   -1.4769   -1.1065   -1.8637 H   0  0  0  0  0  0  0  0  0  0  0  0
   -0.8074    1.9084   -0.3110 H   0  0  0  0  0  0  0  0  0  0  0  0
   -0.5573    1.0373    1.2558 H   0  0  0  0  0  0  0  0  0  0  0  0
   -2.6303   -0.1547    0.9974 H   0  0  0  0  0  0  0  0  0  0  0  0
   -2.9481    0.5797   -0.6148 H   0  0  0  0  0  0  0  0  0  0  0  0
   -3.9072    1.6422    1.4409 H   0  0  0  0  0  0  0  0  0  0  0  0
  1  2  1  0
  2  3  1  0
  3  4  1  0
  4  5  1  0
  4  6  1  0
  4  7  1  0
  7  8  1  0
  8  9  1  0
  1 10  1  0
  1 11  1  0
  1 12  1  0
  2 13  1  0
  2 14  1  0
  3 15  1  0
  3 16  1  0
  5 17  1  0
  5 18  1  0
  5 19  1  0
  6 20  1  0
  7 21  1  0
  7 22  1  0
  8 23  1  0
  8 24  1  0
  9 25  1  0
M  END
