
     RDKit          3D

 21 22  0  0  0  0  0  0  0  0999 V2000
   -2.0235    0.8315   -0.3545 C   0  0  0  0  0  0  0  0  0  0  0  0
   -1.9527   -0.5785    0.1948 C   0  0  0  0  0  0  0  0  0  0  0  0
   -0.7942   -1.3252   -0.3805 C   0  0  0  0  0  0  0  0  0  0  0  0
    0.5320   -0.6842   -0.0856 C   0  0  0  0  0  0  0  0  0  0  0  0
    1.0051   -0.4784    1.2798 C   0  0  0  0  0  0  0  0  0  0  0  0
    1.9235    0.4760    1.2990 C   0  0  0  0  0  0  0  0  0  0  0  0
    2.1571    1.0087   -0.0715 C   0  0  0  0  0  0  0  0  0  0  0  0
    1.1426    0.2589   -0.9098 C   0  0  0  0  0  0  0  0  0  0  0  0
    1.5581   -1.1298   -1.0595 O   0  0  0  0  0  0  0  0  0  0  0  0
   -1.0438    1.3257   -0.2002 H   0  0  0  0  0  0  0  0  0  0  0  0
   -2.1905    0.8273   -1.4598 H   0  0  0  0  0  0  0  0  0  0  0  0
   -2.8631    1.3642    0.1296 H   0  0  0  0  0  0  0  0  0  0  0  0
   -2.8801   -1.1194   -0.1055 H   0  0  0  0  0  0  0  0  0  0  0  0
   -1.9092   -0.4907    1.3018 H   0  0  0  0  0  0  0  0  0  0  0  0
   -0.9243   -1.3402   -1.4871 H   0  0  0  0  0  0  0  0  0  0  0  0
   -0.8277   -2.3785   -0.0313 H   0  0  0  0  0  0  0  0  0  0  0  0
    0.6693   -1.0129    2.1531 H   0  0  0  0  0  0  0  0  0  0  0  0
    2.4582    0.8511    2.1666 H   0  0  0  0  0  0  0  0  0  0  0  0
    3.1871    0.7668   -0.4309 H   0  0  0  0  0  0  0  0  0  0  0  0
    2.0457    2.0991   -0.1386 H   0  0  0  0  0  0  0  0  0  0  0  0
    0.7304    0.7285   -1.8099 H   0  0  0  0  0  0  0  0  0  0  0  0
  1  2  1  0
  2  3  1  0
  3  4  1  0
  4  5  1  0
  5  6  2  0
  6  7  1  0
  7  8  1  0
  8  9  1  0
  8  4  1  0
  9  4  1  0
  1 10  1  0
  1 11  1  0
  1 12  1  0
  2 13  1  0
  2 14  1  0
  3 15  1  0
  3 16  1  0
  5 17  1  0
  6 18  1  0
  7 19  1  0
  7 20  1  0
  8 21  1  0
M  END
