
     RDKit          3D

 19 19  0  0  0  0  0  0  0  0999 V2000
    2.6659   -0.2211    0.2284 C   0  0  0  0  0  0  0  0  0  0  0  0
    1.2382   -0.7175    0.4641 C   0  0  0  0  0  0  0  0  0  0  0  0
    0.3379    0.4884    0.2850 C   0  0  0  0  0  0  0  0  0  0  0  0
   -1.1083    0.1799    0.4818 C   0  0  0  0  0  0  0  0  0  0  0  0
   -1.7189   -0.8376   -0.4252 C   0  0  0  0  0  0  0  0  0  0  0  0
   -2.8841   -0.0358   -0.4497 O   0  0  0  0  0  0  0  0  0  0  0  0
   -2.0064    1.0724   -0.3782 C   0  0  0  0  0  0  0  0  0  0  0  0
    3.3698   -1.0363    0.0479 H   0  0  0  0  0  0  0  0  0  0  0  0
    2.6314    0.5088   -0.6189 H   0  0  0  0  0  0  0  0  0  0  0  0
    2.9161    0.3914    1.1328 H   0  0  0  0  0  0  0  0  0  0  0  0
    1.0225   -1.5028   -0.2716 H   0  0  0  0  0  0  0  0  0  0  0  0
    1.1454   -1.1524    1.4744 H   0  0  0  0  0  0  0  0  0  0  0  0
    0.4688    0.9315   -0.7169 H   0  0  0  0  0  0  0  0  0  0  0  0
    0.6210    1.2746    1.0143 H   0  0  0  0  0  0  0  0  0  0  0  0
   -1.4928    0.1593    1.5016 H   0  0  0  0  0  0  0  0  0  0  0  0
   -1.2997   -0.8636   -1.4388 H   0  0  0  0  0  0  0  0  0  0  0  0
   -1.9825   -1.8109    0.0210 H   0  0  0  0  0  0  0  0  0  0  0  0
   -1.5147    1.2220   -1.3576 H   0  0  0  0  0  0  0  0  0  0  0  0
   -2.4095    1.9499    0.1262 H   0  0  0  0  0  0  0  0  0  0  0  0
  1  2  1  0
  2  3  1  0
  3  4  1  0
  4  5  1  0
  5  6  1  0
  6  7  1  0
  7  4  1  0
  1  8  1  0
  1  9  1  0
  1 10  1  0
  2 11  1  0
  2 12  1  0
  3 13  1  0
  3 14  1  0
  4 15  1  0
  5 16  1  0
  5 17  1  0
  7 18  1  0
  7 19  1  0
M  END
