
     RDKit          3D

 19 18  0  0  0  0  0  0  0  0999 V2000
   -2.8291    0.5978    0.2908 C   0  0  0  0  0  0  0  0  0  0  0  0
   -1.4932    0.3949   -0.3904 C   0  0  0  0  0  0  0  0  0  0  0  0
   -0.9116   -0.9049    0.1801 C   0  0  0  0  0  0  0  0  0  0  0  0
    0.4269   -1.1185   -0.4951 C   0  0  0  0  0  0  0  0  0  0  0  0
    1.3030   -0.0161   -0.2228 O   0  0  0  0  0  0  0  0  0  0  0  0
    2.5849    0.0132   -0.7350 C   0  0  0  0  0  0  0  0  0  0  0  0
    2.9149   -0.9938   -1.4503 O   0  0  0  0  0  0  0  0  0  0  0  0
    3.5122    1.1043   -0.4904 C   0  0  0  0  0  0  0  0  0  0  0  0
    3.1311    2.0648    0.2193 O   0  0  0  0  0  0  0  0  0  0  0  0
   -3.1446    1.6309    0.1267 H   0  0  0  0  0  0  0  0  0  0  0  0
   -3.5515   -0.1370   -0.1036 H   0  0  0  0  0  0  0  0  0  0  0  0
   -2.7544    0.4249    1.3811 H   0  0  0  0  0  0  0  0  0  0  0  0
   -1.6459    0.2951   -1.4803 H   0  0  0  0  0  0  0  0  0  0  0  0
   -0.8164    1.2392   -0.2128 H   0  0  0  0  0  0  0  0  0  0  0  0
   -0.8061   -0.7797    1.2546 H   0  0  0  0  0  0  0  0  0  0  0  0
   -1.6172   -1.6996   -0.1350 H   0  0  0  0  0  0  0  0  0  0  0  0
    0.2927   -1.2468   -1.5879 H   0  0  0  0  0  0  0  0  0  0  0  0
    0.8945   -2.0023   -0.0189 H   0  0  0  0  0  0  0  0  0  0  0  0
    4.5099    1.1336   -0.8854 H   0  0  0  0  0  0  0  0  0  0  0  0
  1  2  1  0
  2  3  1  0
  3  4  1  0
  4  5  1  0
  5  6  1  0
  6  7  2  0
  6  8  1  0
  8  9  2  0
  1 10  1  0
  1 11  1  0
  1 12  1  0
  2 13  1  0
  2 14  1  0
  3 15  1  0
  3 16  1  0
  4 17  1  0
  4 18  1  0
  8 19  1  0
M  END
