
     RDKit          3D

 20 19  0  0  0  0  0  0  0  0999 V2000
    2.6786    0.3324    0.3023 C   0  0  0  0  0  0  0  0  0  0  0  0
    1.4503    0.3450   -0.6015 C   0  0  0  0  0  0  0  0  0  0  0  0
    0.3985   -0.4773    0.0986 C   0  0  0  0  0  0  0  0  0  0  0  0
   -0.8869   -0.5589   -0.6795 C   0  0  0  0  0  0  0  0  0  0  0  0
   -1.8301   -1.4003    0.1324 C   0  0  0  0  0  0  0  0  0  0  0  0
   -1.9307   -1.2098    1.3285 O   0  0  0  0  0  0  0  0  0  0  0  0
   -1.5360    0.8135   -0.7804 C   0  0  0  0  0  0  0  0  0  0  0  0
   -1.7843    1.2355    0.5194 O   0  0  0  0  0  0  0  0  0  0  0  0
    2.4149    0.9736    1.1732 H   0  0  0  0  0  0  0  0  0  0  0  0
    3.5851    0.6442   -0.2142 H   0  0  0  0  0  0  0  0  0  0  0  0
    2.7377   -0.7215    0.6974 H   0  0  0  0  0  0  0  0  0  0  0  0
    1.7188   -0.1486   -1.5452 H   0  0  0  0  0  0  0  0  0  0  0  0
    1.1646    1.3954   -0.7291 H   0  0  0  0  0  0  0  0  0  0  0  0
    0.2377   -0.0990    1.1379 H   0  0  0  0  0  0  0  0  0  0  0  0
    0.7893   -1.5113    0.2023 H   0  0  0  0  0  0  0  0  0  0  0  0
   -0.6757   -0.9941   -1.6541 H   0  0  0  0  0  0  0  0  0  0  0  0
   -2.4103   -2.1687   -0.3607 H   0  0  0  0  0  0  0  0  0  0  0  0
   -0.8861    1.5368   -1.3307 H   0  0  0  0  0  0  0  0  0  0  0  0
   -2.4841    0.7221   -1.3428 H   0  0  0  0  0  0  0  0  0  0  0  0
   -2.7515    1.2908    0.7253 H   0  0  0  0  0  0  0  0  0  0  0  0
  1  2  1  0
  2  3  1  0
  3  4  1  0
  4  5  1  0
  5  6  2  0
  4  7  1  0
  7  8  1  0
  1  9  1  0
  1 10  1  0
  1 11  1  0
  2 12  1  0
  2 13  1  0
  3 14  1  0
  3 15  1  0
  4 16  1  0
  5 17  1  0
  7 18  1  0
  7 19  1  0
  8 20  1  0
M  END
