
     RDKit          3D

 19 18  0  0  0  0  0  0  0  0999 V2000
    3.0997   -0.2407   -0.3219 C   0  0  0  0  0  0  0  0  0  0  0  0
    1.7641   -0.0808    0.3177 C   0  0  0  0  0  0  0  0  0  0  0  0
    0.6213   -0.1038   -0.6391 C   0  0  0  0  0  0  0  0  0  0  0  0
   -0.6551    0.0680    0.1504 C   0  0  0  0  0  0  0  0  0  0  0  0
   -0.6229    0.1946    1.3620 O   0  0  0  0  0  0  0  0  0  0  0  0
   -1.9746    0.0881   -0.5157 C   0  0  0  0  0  0  0  0  0  0  0  0
   -3.0605    0.2714    0.5065 C   0  0  0  0  0  0  0  0  0  0  0  0
    3.5007   -1.2606   -0.0799 H   0  0  0  0  0  0  0  0  0  0  0  0
    3.0980   -0.1295   -1.4213 H   0  0  0  0  0  0  0  0  0  0  0  0
    3.8136    0.4975    0.1135 H   0  0  0  0  0  0  0  0  0  0  0  0
    1.6813    0.8726    0.9074 H   0  0  0  0  0  0  0  0  0  0  0  0
    1.5836   -0.9088    1.0635 H   0  0  0  0  0  0  0  0  0  0  0  0
    0.6862    0.7753   -1.3387 H   0  0  0  0  0  0  0  0  0  0  0  0
    0.5539   -1.0561   -1.2076 H   0  0  0  0  0  0  0  0  0  0  0  0
   -2.1043   -0.9174   -0.9954 H   0  0  0  0  0  0  0  0  0  0  0  0
   -2.0642    0.8818   -1.2788 H   0  0  0  0  0  0  0  0  0  0  0  0
   -3.0881    1.3594    0.8057 H   0  0  0  0  0  0  0  0  0  0  0  0
   -2.7735   -0.2789    1.4173 H   0  0  0  0  0  0  0  0  0  0  0  0
   -4.0595   -0.0321    0.1443 H   0  0  0  0  0  0  0  0  0  0  0  0
  1  2  1  0
  2  3  1  0
  3  4  1  0
  4  5  2  0
  4  6  1  0
  6  7  1  0
  1  8  1  0
  1  9  1  0
  1 10  1  0
  2 11  1  0
  2 12  1  0
  3 13  1  0
  3 14  1  0
  6 15  1  0
  6 16  1  0
  7 17  1  0
  7 18  1  0
  7 19  1  0
M  END
