
     RDKit          3D

 23 24  0  0  0  0  0  0  0  0999 V2000
    3.0422    0.7655    0.2046 C   0  0  0  0  0  0  0  0  0  0  0  0
    1.8641   -0.0393   -0.3179 C   0  0  0  0  0  0  0  0  0  0  0  0
    0.6601    0.2870    0.5730 C   0  0  0  0  0  0  0  0  0  0  0  0
   -0.4979   -0.4924    0.0738 C   0  0  0  0  0  0  0  0  0  0  0  0
   -0.2937   -1.8743    0.1006 O   0  0  0  0  0  0  0  0  0  0  0  0
   -1.1508   -0.1036   -1.2013 C   0  0  0  0  0  0  0  0  0  0  0  0
   -1.7928    1.0235   -0.4545 C   0  0  0  0  0  0  0  0  0  0  0  0
   -1.8749   -0.1110    0.5021 C   0  0  0  0  0  0  0  0  0  0  0  0
   -2.3147   -0.9232   -0.6989 C   0  0  0  0  0  0  0  0  0  0  0  0
    2.7450    1.8404    0.2272 H   0  0  0  0  0  0  0  0  0  0  0  0
    3.9337    0.6310   -0.4226 H   0  0  0  0  0  0  0  0  0  0  0  0
    3.2845    0.4895    1.2405 H   0  0  0  0  0  0  0  0  0  0  0  0
    2.0942   -1.1154   -0.3186 H   0  0  0  0  0  0  0  0  0  0  0  0
    1.7016    0.2771   -1.3595 H   0  0  0  0  0  0  0  0  0  0  0  0
    0.9522   -0.1073    1.5848 H   0  0  0  0  0  0  0  0  0  0  0  0
    0.5701    1.3756    0.5628 H   0  0  0  0  0  0  0  0  0  0  0  0
   -0.4728   -2.1662    1.0329 H   0  0  0  0  0  0  0  0  0  0  0  0
   -0.7817   -0.0982   -2.1290 H   0  0  0  0  0  0  0  0  0  0  0  0
   -1.2047    1.9024   -0.2073 H   0  0  0  0  0  0  0  0  0  0  0  0
   -2.8095    1.2425   -0.8996 H   0  0  0  0  0  0  0  0  0  0  0  0
   -2.2781   -0.1438    1.4131 H   0  0  0  0  0  0  0  0  0  0  0  0
   -3.3017   -0.6675   -1.0833 H   0  0  0  0  0  0  0  0  0  0  0  0
   -2.0744   -1.9923   -0.6583 H   0  0  0  0  0  0  0  0  0  0  0  0
  1  2  1  0
  2  3  1  0
  3  4  1  0
  4  5  1  0
  4  6  1  0
  6  7  1  0
  7  8  1  0
  8  9  1  0
  8  4  1  0
  9  6  1  0
  1 10  1  0
  1 11  1  0
  1 12  1  0
  2 13  1  0
  2 14  1  0
  3 15  1  0
  3 16  1  0
  5 17  1  0
  6 18  1  0
  7 19  1  0
  7 20  1  0
  8 21  1  0
  9 22  1  0
  9 23  1  0
M  END
