
     RDKit          3D

 25 25  0  0  0  0  0  0  0  0999 V2000
    3.4907    0.5013   -0.5211 C   0  0  0  0  0  0  0  0  0  0  0  0
    2.1819    0.7491    0.1927 C   0  0  0  0  0  0  0  0  0  0  0  0
    1.2095   -0.4112   -0.0578 C   0  0  0  0  0  0  0  0  0  0  0  0
   -0.0737   -0.1052    0.6788 C   0  0  0  0  0  0  0  0  0  0  0  0
   -1.1538   -1.1852    0.5219 C   0  0  0  0  0  0  0  0  0  0  0  0
   -1.8947   -1.5863    1.7768 C   0  0  0  0  0  0  0  0  0  0  0  0
   -1.3280    0.1910   -0.0462 C   0  0  0  0  0  0  0  0  0  0  0  0
   -1.3550    0.3228   -1.4234 O   0  0  0  0  0  0  0  0  0  0  0  0
   -2.3310    1.2363   -1.8183 C   0  0  0  0  0  0  0  0  0  0  0  0
    3.9000   -0.4822   -0.2327 H   0  0  0  0  0  0  0  0  0  0  0  0
    4.1887    1.2976   -0.2282 H   0  0  0  0  0  0  0  0  0  0  0  0
    3.3836    0.5116   -1.6173 H   0  0  0  0  0  0  0  0  0  0  0  0
    2.3654    0.8451    1.2654 H   0  0  0  0  0  0  0  0  0  0  0  0
    1.6820    1.6483   -0.2140 H   0  0  0  0  0  0  0  0  0  0  0  0
    1.0556   -0.5589   -1.1332 H   0  0  0  0  0  0  0  0  0  0  0  0
    1.7116   -1.3086    0.3596 H   0  0  0  0  0  0  0  0  0  0  0  0
    0.0391    0.3214    1.6961 H   0  0  0  0  0  0  0  0  0  0  0  0
   -0.9800   -1.9820   -0.2262 H   0  0  0  0  0  0  0  0  0  0  0  0
   -1.6486   -2.6621    1.9540 H   0  0  0  0  0  0  0  0  0  0  0  0
   -2.9803   -1.5240    1.6618 H   0  0  0  0  0  0  0  0  0  0  0  0
   -1.5111   -1.0450    2.6766 H   0  0  0  0  0  0  0  0  0  0  0  0
   -2.0704    0.8211    0.4843 H   0  0  0  0  0  0  0  0  0  0  0  0
   -3.3117    0.8350   -1.4468 H   0  0  0  0  0  0  0  0  0  0  0  0
   -2.1442    2.2474   -1.4018 H   0  0  0  0  0  0  0  0  0  0  0  0
   -2.4258    1.3226   -2.9010 H   0  0  0  0  0  0  0  0  0  0  0  0
  1  2  1  0
  2  3  1  0
  3  4  1  0
  4  5  1  0
  5  6  1  0
  5  7  1  0
  7  8  1  0
  8  9  1  0
  7  4  1  0
  1 10  1  0
  1 11  1  0
  1 12  1  0
  2 13  1  0
  2 14  1  0
  3 15  1  0
  3 16  1  0
  4 17  1  0
  5 18  1  0
  6 19  1  0
  6 20  1  0
  6 21  1  0
  7 22  1  0
  9 23  1  0
  9 24  1  0
  9 25  1  0
M  END
