
     RDKit          3D

 25 24  0  0  0  0  0  0  0  0999 V2000
    2.6465   -0.3874    0.0742 C   0  0  0  0  0  0  0  0  0  0  0  0
    1.7684    0.7415    0.4565 C   0  0  0  0  0  0  0  0  0  0  0  0
    0.4768    0.9351   -0.2023 C   0  0  0  0  0  0  0  0  0  0  0  0
   -0.6164   -0.0269   -0.1320 C   0  0  0  0  0  0  0  0  0  0  0  0
   -1.0823   -0.3040    1.3028 C   0  0  0  0  0  0  0  0  0  0  0  0
   -1.8463    0.7526   -0.7299 C   0  0  0  0  0  0  0  0  0  0  0  0
   -2.0754    1.8750    0.0477 O   0  0  0  0  0  0  0  0  0  0  0  0
   -0.6061   -1.2941   -0.8667 C   0  0  0  0  0  0  0  0  0  0  0  0
    0.4165   -2.1596   -0.5451 O   0  0  0  0  0  0  0  0  0  0  0  0
    2.5352   -1.2456    0.7622 H   0  0  0  0  0  0  0  0  0  0  0  0
    3.7581   -0.0890    0.1745 H   0  0  0  0  0  0  0  0  0  0  0  0
    2.5873   -0.7123   -0.9613 H   0  0  0  0  0  0  0  0  0  0  0  0
    2.3907    1.6819    0.2770 H   0  0  0  0  0  0  0  0  0  0  0  0
    1.6555    0.7949    1.5917 H   0  0  0  0  0  0  0  0  0  0  0  0
    0.0384    1.9206    0.2023 H   0  0  0  0  0  0  0  0  0  0  0  0
    0.6251    1.2000   -1.3019 H   0  0  0  0  0  0  0  0  0  0  0  0
   -1.3811    0.6145    1.8140 H   0  0  0  0  0  0  0  0  0  0  0  0
   -1.9214   -1.0339    1.2064 H   0  0  0  0  0  0  0  0  0  0  0  0
   -0.2563   -0.8501    1.7926 H   0  0  0  0  0  0  0  0  0  0  0  0
   -2.7024    0.0749   -0.7731 H   0  0  0  0  0  0  0  0  0  0  0  0
   -1.5873    1.0548   -1.7667 H   0  0  0  0  0  0  0  0  0  0  0  0
   -3.0226    2.1525   -0.0598 H   0  0  0  0  0  0  0  0  0  0  0  0
   -0.5670   -1.1896   -1.9792 H   0  0  0  0  0  0  0  0  0  0  0  0
   -1.5572   -1.9002   -0.7086 H   0  0  0  0  0  0  0  0  0  0  0  0
    0.3233   -2.6055    0.3248 H   0  0  0  0  0  0  0  0  0  0  0  0
  1  2  1  0
  2  3  1  0
  3  4  1  0
  4  5  1  0
  4  6  1  0
  6  7  1  0
  4  8  1  0
  8  9  1  0
  1 10  1  0
  1 11  1  0
  1 12  1  0
  2 13  1  0
  2 14  1  0
  3 15  1  0
  3 16  1  0
  5 17  1  0
  5 18  1  0
  5 19  1  0
  6 20  1  0
  6 21  1  0
  7 22  1  0
  8 23  1  0
  8 24  1  0
  9 25  1  0
M  END
