
     RDKit          3D

 25 26  0  0  0  0  0  0  0  0999 V2000
   -3.6404   -0.6114    0.0172 C   0  0  0  0  0  0  0  0  0  0  0  0
   -2.1823   -0.8691   -0.2739 C   0  0  0  0  0  0  0  0  0  0  0  0
   -1.4416    0.4407   -0.4465 C   0  0  0  0  0  0  0  0  0  0  0  0
    0.0098    0.1850   -0.7366 C   0  0  0  0  0  0  0  0  0  0  0  0
    0.8055    1.4411   -0.9193 C   0  0  0  0  0  0  0  0  0  0  0  0
    1.8593    0.9948    0.0353 C   0  0  0  0  0  0  0  0  0  0  0  0
    2.2663   -0.4122    0.1894 C   0  0  0  0  0  0  0  0  0  0  0  0
    3.2680   -0.6904    1.2868 C   0  0  0  0  0  0  0  0  0  0  0  0
    0.8619   -0.1118    0.4921 C   0  0  0  0  0  0  0  0  0  0  0  0
   -4.0230   -1.2732    0.8401 H   0  0  0  0  0  0  0  0  0  0  0  0
   -3.7574    0.4277    0.4104 H   0  0  0  0  0  0  0  0  0  0  0  0
   -4.2071   -0.7169   -0.9129 H   0  0  0  0  0  0  0  0  0  0  0  0
   -2.0878   -1.5203   -1.1400 H   0  0  0  0  0  0  0  0  0  0  0  0
   -1.7624   -1.3626    0.6466 H   0  0  0  0  0  0  0  0  0  0  0  0
   -1.8859    1.0441   -1.2650 H   0  0  0  0  0  0  0  0  0  0  0  0
   -1.4867    1.0434    0.4854 H   0  0  0  0  0  0  0  0  0  0  0  0
    0.2281   -0.5394   -1.5468 H   0  0  0  0  0  0  0  0  0  0  0  0
    0.2328    2.3353   -0.5383 H   0  0  0  0  0  0  0  0  0  0  0  0
    1.1740    1.6471   -1.9342 H   0  0  0  0  0  0  0  0  0  0  0  0
    2.1721    1.7233    0.7794 H   0  0  0  0  0  0  0  0  0  0  0  0
    2.4301   -1.0787   -0.7066 H   0  0  0  0  0  0  0  0  0  0  0  0
    4.0942    0.0601    1.1447 H   0  0  0  0  0  0  0  0  0  0  0  0
    3.7481   -1.6822    1.1744 H   0  0  0  0  0  0  0  0  0  0  0  0
    2.8588   -0.5331    2.2974 H   0  0  0  0  0  0  0  0  0  0  0  0
    0.4657    0.0588    1.4886 H   0  0  0  0  0  0  0  0  0  0  0  0
  1  2  1  0
  2  3  1  0
  3  4  1  0
  4  5  1  0
  5  6  1  0
  6  7  1  0
  7  8  1  0
  7  9  1  0
  9  4  1  0
  9  6  1  0
  1 10  1  0
  1 11  1  0
  1 12  1  0
  2 13  1  0
  2 14  1  0
  3 15  1  0
  3 16  1  0
  4 17  1  0
  5 18  1  0
  5 19  1  0
  6 20  1  0
  7 21  1  0
  8 22  1  0
  8 23  1  0
  8 24  1  0
  9 25  1  0
M  END
