
     RDKit          3D

 23 22  0  0  0  0  0  0  0  0999 V2000
    3.1064    0.4697   -0.4676 C   0  0  0  0  0  0  0  0  0  0  0  0
    1.6707    0.0288   -0.6708 C   0  0  0  0  0  0  0  0  0  0  0  0
    0.9908    0.0551    0.6648 C   0  0  0  0  0  0  0  0  0  0  0  0
   -0.4489   -0.3602    0.6245 C   0  0  0  0  0  0  0  0  0  0  0  0
   -0.5395   -1.7438    0.1105 C   0  0  0  0  0  0  0  0  0  0  0  0
   -0.6965   -1.9542   -1.0709 O   0  0  0  0  0  0  0  0  0  0  0  0
   -1.2772    0.6088   -0.1810 C   0  0  0  0  0  0  0  0  0  0  0  0
   -2.7124    0.2301   -0.2441 C   0  0  0  0  0  0  0  0  0  0  0  0
   -3.2971    0.1746    1.0244 O   0  0  0  0  0  0  0  0  0  0  0  0
    3.1073    1.1919    0.3734 H   0  0  0  0  0  0  0  0  0  0  0  0
    3.7598   -0.3853   -0.1815 H   0  0  0  0  0  0  0  0  0  0  0  0
    3.5350    0.9296   -1.3838 H   0  0  0  0  0  0  0  0  0  0  0  0
    1.2272    0.7079   -1.4099 H   0  0  0  0  0  0  0  0  0  0  0  0
    1.7255   -1.0242   -1.0582 H   0  0  0  0  0  0  0  0  0  0  0  0
    1.5541   -0.6251    1.3377 H   0  0  0  0  0  0  0  0  0  0  0  0
    1.1013    1.0747    1.1021 H   0  0  0  0  0  0  0  0  0  0  0  0
   -0.8241   -0.3625    1.6653 H   0  0  0  0  0  0  0  0  0  0  0  0
   -0.4662   -2.5728    0.7851 H   0  0  0  0  0  0  0  0  0  0  0  0
   -1.2002    1.5990    0.3027 H   0  0  0  0  0  0  0  0  0  0  0  0
   -0.8664    0.6061   -1.2105 H   0  0  0  0  0  0  0  0  0  0  0  0
   -2.9113   -0.7251   -0.7616 H   0  0  0  0  0  0  0  0  0  0  0  0
   -3.2651    1.0133   -0.8026 H   0  0  0  0  0  0  0  0  0  0  0  0
   -3.2732    1.0637    1.4518 H   0  0  0  0  0  0  0  0  0  0  0  0
  1  2  1  0
  2  3  1  0
  3  4  1  0
  4  5  1  0
  5  6  2  0
  4  7  1  0
  7  8  1  0
  8  9  1  0
  1 10  1  0
  1 11  1  0
  1 12  1  0
  2 13  1  0
  2 14  1  0
  3 15  1  0
  3 16  1  0
  4 17  1  0
  5 18  1  0
  7 19  1  0
  7 20  1  0
  8 21  1  0
  8 22  1  0
  9 23  1  0
M  END
