
     RDKit          3D

 29 28  0  0  0  0  0  0  0  0999 V2000
    3.9860    0.6432   -0.3437 C   0  0  0  0  0  0  0  0  0  0  0  0
    2.6062    0.1533   -0.7032 C   0  0  0  0  0  0  0  0  0  0  0  0
    1.5759    0.5501    0.3330 C   0  0  0  0  0  0  0  0  0  0  0  0
    0.2383   -0.0120   -0.1645 C   0  0  0  0  0  0  0  0  0  0  0  0
    0.4078   -1.4885   -0.2621 C   0  0  0  0  0  0  0  0  0  0  0  0
   -0.8571    0.4079    0.7589 C   0  0  0  0  0  0  0  0  0  0  0  0
   -2.1903   -0.1031    0.3349 C   0  0  0  0  0  0  0  0  0  0  0  0
   -3.2780    0.3562    1.3142 C   0  0  0  0  0  0  0  0  0  0  0  0
   -2.6129    0.3549   -1.0264 C   0  0  0  0  0  0  0  0  0  0  0  0
    4.1503    0.5237    0.7494 H   0  0  0  0  0  0  0  0  0  0  0  0
    4.7599    0.1003   -0.8860 H   0  0  0  0  0  0  0  0  0  0  0  0
    4.0470    1.7093   -0.6490 H   0  0  0  0  0  0  0  0  0  0  0  0
    2.2928    0.5844   -1.6898 H   0  0  0  0  0  0  0  0  0  0  0  0
    2.6531   -0.9531   -0.8289 H   0  0  0  0  0  0  0  0  0  0  0  0
    1.8427    0.1407    1.3174 H   0  0  0  0  0  0  0  0  0  0  0  0
    1.5299    1.6635    0.3190 H   0  0  0  0  0  0  0  0  0  0  0  0
    0.0966    0.4699   -1.1734 H   0  0  0  0  0  0  0  0  0  0  0  0
   -0.4816   -2.0950   -0.1262 H   0  0  0  0  0  0  0  0  0  0  0  0
    1.1473   -1.8241    0.5199 H   0  0  0  0  0  0  0  0  0  0  0  0
    0.8150   -1.7164   -1.2757 H   0  0  0  0  0  0  0  0  0  0  0  0
   -0.8666    1.4859    0.9074 H   0  0  0  0  0  0  0  0  0  0  0  0
   -0.6342   -0.0567    1.7608 H   0  0  0  0  0  0  0  0  0  0  0  0
   -2.2497   -1.2107    0.3486 H   0  0  0  0  0  0  0  0  0  0  0  0
   -4.2618    0.1673    0.8220 H   0  0  0  0  0  0  0  0  0  0  0  0
   -3.2764   -0.2714    2.2313 H   0  0  0  0  0  0  0  0  0  0  0  0
   -3.1601    1.4259    1.5688 H   0  0  0  0  0  0  0  0  0  0  0  0
   -1.8382    0.2897   -1.7941 H   0  0  0  0  0  0  0  0  0  0  0  0
   -2.9866    1.3993   -0.9822 H   0  0  0  0  0  0  0  0  0  0  0  0
   -3.4553   -0.3036   -1.3806 H   0  0  0  0  0  0  0  0  0  0  0  0
  1  2  1  0
  2  3  1  0
  3  4  1  0
  4  5  1  0
  4  6  1  0
  6  7  1  0
  7  8  1  0
  7  9  1  0
  1 10  1  0
  1 11  1  0
  1 12  1  0
  2 13  1  0
  2 14  1  0
  3 15  1  0
  3 16  1  0
  4 17  1  0
  5 18  1  0
  5 19  1  0
  5 20  1  0
  6 21  1  0
  6 22  1  0
  7 23  1  0
  8 24  1  0
  8 25  1  0
  8 26  1  0
  9 27  1  0
  9 28  1  0
  9 29  1  0
M  END
