
     RDKit          3D

 17 16  0  0  0  0  0  0  0  0999 V2000
   -2.2043   -0.5703   -0.1775 C   0  0  0  0  0  0  0  0  0  0  0  0
   -1.4328    0.7025   -0.2281 C   0  0  0  0  0  0  0  0  0  0  0  0
   -0.0422    0.6021    0.3207 C   0  0  0  0  0  0  0  0  0  0  0  0
    0.8046   -0.3676   -0.3794 C   0  0  0  0  0  0  0  0  0  0  0  0
    0.3634   -1.0039   -1.3138 O   0  0  0  0  0  0  0  0  0  0  0  0
    2.2070   -0.5830    0.0437 C   0  0  0  0  0  0  0  0  0  0  0  0
    2.4721    0.2543    1.1228 O   0  0  0  0  0  0  0  0  0  0  0  0
   -3.2882   -0.3089   -0.3293 H   0  0  0  0  0  0  0  0  0  0  0  0
   -2.1390   -1.1085    0.7803 H   0  0  0  0  0  0  0  0  0  0  0  0
   -1.9509   -1.2488   -1.0236 H   0  0  0  0  0  0  0  0  0  0  0  0
   -1.9656    1.4907    0.3572 H   0  0  0  0  0  0  0  0  0  0  0  0
   -1.3906    1.0497   -1.2798 H   0  0  0  0  0  0  0  0  0  0  0  0
    0.4334    1.6111    0.1912 H   0  0  0  0  0  0  0  0  0  0  0  0
   -0.0756    0.4399    1.4281 H   0  0  0  0  0  0  0  0  0  0  0  0
    2.3631   -1.6309    0.4228 H   0  0  0  0  0  0  0  0  0  0  0  0
    2.9293   -0.4082   -0.7917 H   0  0  0  0  0  0  0  0  0  0  0  0
    2.9162    1.0798    0.8565 H   0  0  0  0  0  0  0  0  0  0  0  0
  1  2  1  0
  2  3  1  0
  3  4  1  0
  4  5  2  0
  4  6  1  0
  6  7  1  0
  1  8  1  0
  1  9  1  0
  1 10  1  0
  2 11  1  0
  2 12  1  0
  3 13  1  0
  3 14  1  0
  6 15  1  0
  6 16  1  0
  7 17  1  0
M  END
