
     RDKit          3D

 25 24  0  0  0  0  0  0  0  0999 V2000
   -3.0686   -0.5958   -0.0646 C   0  0  0  0  0  0  0  0  0  0  0  0
   -1.7914   -0.0087    0.5179 C   0  0  0  0  0  0  0  0  0  0  0  0
   -1.0114    0.5592   -0.6211 C   0  0  0  0  0  0  0  0  0  0  0  0
    0.2917    1.1901   -0.2552 C   0  0  0  0  0  0  0  0  0  0  0  0
    0.1206    2.3235    0.6907 C   0  0  0  0  0  0  0  0  0  0  0  0
    0.8765    3.2705    0.7855 O   0  0  0  0  0  0  0  0  0  0  0  0
    1.3092    0.2583    0.3224 C   0  0  0  0  0  0  0  0  0  0  0  0
    1.6686   -0.8664   -0.6482 C   0  0  0  0  0  0  0  0  0  0  0  0
    2.6959   -1.7258    0.0552 C   0  0  0  0  0  0  0  0  0  0  0  0
   -2.7899   -1.3421   -0.8519 H   0  0  0  0  0  0  0  0  0  0  0  0
   -3.6912    0.1597   -0.5659 H   0  0  0  0  0  0  0  0  0  0  0  0
   -3.6435   -1.1485    0.7093 H   0  0  0  0  0  0  0  0  0  0  0  0
   -2.1242    0.7855    1.2321 H   0  0  0  0  0  0  0  0  0  0  0  0
   -1.2917   -0.8373    1.0387 H   0  0  0  0  0  0  0  0  0  0  0  0
   -0.8765   -0.2322   -1.3855 H   0  0  0  0  0  0  0  0  0  0  0  0
   -1.6352    1.3426   -1.1010 H   0  0  0  0  0  0  0  0  0  0  0  0
    0.7172    1.5983   -1.2002 H   0  0  0  0  0  0  0  0  0  0  0  0
   -0.7396    2.3071    1.3447 H   0  0  0  0  0  0  0  0  0  0  0  0
    2.2533    0.8332    0.4398 H   0  0  0  0  0  0  0  0  0  0  0  0
    1.0563   -0.1485    1.3021 H   0  0  0  0  0  0  0  0  0  0  0  0
    2.1216   -0.4388   -1.5673 H   0  0  0  0  0  0  0  0  0  0  0  0
    0.7806   -1.4487   -0.9431 H   0  0  0  0  0  0  0  0  0  0  0  0
    3.5950   -1.1353    0.2315 H   0  0  0  0  0  0  0  0  0  0  0  0
    2.8877   -2.6714   -0.5091 H   0  0  0  0  0  0  0  0  0  0  0  0
    2.2890   -2.0286    1.0433 H   0  0  0  0  0  0  0  0  0  0  0  0
  1  2  1  0
  2  3  1  0
  3  4  1  0
  4  5  1  0
  5  6  2  0
  4  7  1  0
  7  8  1  0
  8  9  1  0
  1 10  1  0
  1 11  1  0
  1 12  1  0
  2 13  1  0
  2 14  1  0
  3 15  1  0
  3 16  1  0
  4 17  1  0
  5 18  1  0
  7 19  1  0
  7 20  1  0
  8 21  1  0
  8 22  1  0
  9 23  1  0
  9 24  1  0
  9 25  1  0
M  END
