
     RDKit          3D

 23 22  0  0  0  0  0  0  0  0999 V2000
    3.2364    0.3102   -0.8086 C   0  0  0  0  0  0  0  0  0  0  0  0
    1.9265    0.2194   -0.0535 C   0  0  0  0  0  0  0  0  0  0  0  0
    0.8226   -0.0811   -1.0288 C   0  0  0  0  0  0  0  0  0  0  0  0
   -0.4880   -0.1670   -0.2406 C   0  0  0  0  0  0  0  0  0  0  0  0
   -0.3045   -1.2868    0.7576 C   0  0  0  0  0  0  0  0  0  0  0  0
   -1.5567   -0.4448   -1.0434 O   0  0  0  0  0  0  0  0  0  0  0  0
   -2.5776    0.4652   -1.0546 C   0  0  0  0  0  0  0  0  0  0  0  0
   -3.2299    0.7143    0.2426 C   0  0  0  0  0  0  0  0  0  0  0  0
   -2.8843    0.1523    1.2578 O   0  0  0  0  0  0  0  0  0  0  0  0
    3.8330   -0.6174   -0.6310 H   0  0  0  0  0  0  0  0  0  0  0  0
    3.0357    0.4047   -1.8774 H   0  0  0  0  0  0  0  0  0  0  0  0
    3.8062    1.1804   -0.4144 H   0  0  0  0  0  0  0  0  0  0  0  0
    2.0093   -0.5652    0.6936 H   0  0  0  0  0  0  0  0  0  0  0  0
    1.7036    1.2198    0.4106 H   0  0  0  0  0  0  0  0  0  0  0  0
    1.0542   -1.0564   -1.4997 H   0  0  0  0  0  0  0  0  0  0  0  0
    0.7442    0.6770   -1.8224 H   0  0  0  0  0  0  0  0  0  0  0  0
   -0.6548    0.7983    0.3039 H   0  0  0  0  0  0  0  0  0  0  0  0
   -1.1996   -1.9410    0.7543 H   0  0  0  0  0  0  0  0  0  0  0  0
   -0.1160   -0.9009    1.7658 H   0  0  0  0  0  0  0  0  0  0  0  0
    0.5511   -1.9543    0.4771 H   0  0  0  0  0  0  0  0  0  0  0  0
   -2.2901    1.4280   -1.5629 H   0  0  0  0  0  0  0  0  0  0  0  0
   -3.3772    0.0276   -1.7232 H   0  0  0  0  0  0  0  0  0  0  0  0
   -4.0439    1.4177    0.3070 H   0  0  0  0  0  0  0  0  0  0  0  0
  1  2  1  0
  2  3  1  0
  3  4  1  0
  4  5  1  0
  4  6  1  0
  6  7  1  0
  7  8  1  0
  8  9  2  0
  1 10  1  0
  1 11  1  0
  1 12  1  0
  2 13  1  0
  2 14  1  0
  3 15  1  0
  3 16  1  0
  4 17  1  0
  5 18  1  0
  5 19  1  0
  5 20  1  0
  7 21  1  0
  7 22  1  0
  8 23  1  0
M  END
