
     RDKit          3D

 25 25  0  0  0  0  0  0  0  0999 V2000
   -2.9828    1.2940    0.2406 C   0  0  0  0  0  0  0  0  0  0  0  0
   -2.6184   -0.1233   -0.0566 C   0  0  0  0  0  0  0  0  0  0  0  0
   -1.6912   -0.7509    0.9351 C   0  0  0  0  0  0  0  0  0  0  0  0
   -0.3695   -0.0496    1.0638 C   0  0  0  0  0  0  0  0  0  0  0  0
    0.4111    0.0000   -0.2057 C   0  0  0  0  0  0  0  0  0  0  0  0
    0.8521   -1.1947   -0.9337 C   0  0  0  0  0  0  0  0  0  0  0  0
    1.8812   -0.3722   -0.1994 C   0  0  0  0  0  0  0  0  0  0  0  0
    2.7784    0.4088   -0.8990 O   0  0  0  0  0  0  0  0  0  0  0  0
    3.9499    0.5522   -0.1653 C   0  0  0  0  0  0  0  0  0  0  0  0
   -2.2399    1.9491   -0.2587 H   0  0  0  0  0  0  0  0  0  0  0  0
   -3.1210    1.5192    1.3095 H   0  0  0  0  0  0  0  0  0  0  0  0
   -3.9518    1.4928   -0.2646 H   0  0  0  0  0  0  0  0  0  0  0  0
   -2.2234   -0.1609   -1.0916 H   0  0  0  0  0  0  0  0  0  0  0  0
   -3.5555   -0.7178   -0.0663 H   0  0  0  0  0  0  0  0  0  0  0  0
   -2.1875   -0.8394    1.9219 H   0  0  0  0  0  0  0  0  0  0  0  0
   -1.4798   -1.7835    0.5891 H   0  0  0  0  0  0  0  0  0  0  0  0
    0.2315   -0.6176    1.8049 H   0  0  0  0  0  0  0  0  0  0  0  0
   -0.4710    0.9782    1.4713 H   0  0  0  0  0  0  0  0  0  0  0  0
    0.2011    0.8994   -0.8349 H   0  0  0  0  0  0  0  0  0  0  0  0
    0.6434   -2.2336   -0.5676 H   0  0  0  0  0  0  0  0  0  0  0  0
    0.9544   -1.1596   -2.0415 H   0  0  0  0  0  0  0  0  0  0  0  0
    2.2245   -0.7481    0.8013 H   0  0  0  0  0  0  0  0  0  0  0  0
    4.3643   -0.4637   -0.0052 H   0  0  0  0  0  0  0  0  0  0  0  0
    4.6934    1.1815   -0.6658 H   0  0  0  0  0  0  0  0  0  0  0  0
    3.7066    0.9397    0.8584 H   0  0  0  0  0  0  0  0  0  0  0  0
  1  2  1  0
  2  3  1  0
  3  4  1  0
  4  5  1  0
  5  6  1  0
  6  7  1  0
  7  8  1  0
  8  9  1  0
  7  5  1  0
  1 10  1  0
  1 11  1  0
  1 12  1  0
  2 13  1  0
  2 14  1  0
  3 15  1  0
  3 16  1  0
  4 17  1  0
  4 18  1  0
  5 19  1  0
  6 20  1  0
  6 21  1  0
  7 22  1  0
  9 23  1  0
  9 24  1  0
  9 25  1  0
M  END
