
     RDKit          3D

 20 19  0  0  0  0  0  0  0  0999 V2000
   -2.2792    0.6973   -0.7503 C   0  0  0  0  0  0  0  0  0  0  0  0
   -2.1692   -0.4927    0.1394 C   0  0  0  0  0  0  0  0  0  0  0  0
   -0.9910   -0.4537    1.0753 C   0  0  0  0  0  0  0  0  0  0  0  0
    0.3177   -0.3785    0.3184 C   0  0  0  0  0  0  0  0  0  0  0  0
    1.4077   -0.3420    1.1606 O   0  0  0  0  0  0  0  0  0  0  0  0
    2.6081   -0.2736    0.4766 C   0  0  0  0  0  0  0  0  0  0  0  0
    2.7191    0.9378   -0.3841 C   0  0  0  0  0  0  0  0  0  0  0  0
    3.7746    1.0385   -1.0146 O   0  0  0  0  0  0  0  0  0  0  0  0
   -2.2056    0.3865   -1.8328 H   0  0  0  0  0  0  0  0  0  0  0  0
   -1.4853    1.4584   -0.5995 H   0  0  0  0  0  0  0  0  0  0  0  0
   -3.2910    1.1809   -0.6413 H   0  0  0  0  0  0  0  0  0  0  0  0
   -3.1159   -0.6340    0.6854 H   0  0  0  0  0  0  0  0  0  0  0  0
   -2.0423   -1.4157   -0.4882 H   0  0  0  0  0  0  0  0  0  0  0  0
   -0.9784   -1.4483    1.6022 H   0  0  0  0  0  0  0  0  0  0  0  0
   -1.0517    0.3045    1.8527 H   0  0  0  0  0  0  0  0  0  0  0  0
    0.2983    0.4919   -0.3794 H   0  0  0  0  0  0  0  0  0  0  0  0
    0.3919   -1.2754   -0.3644 H   0  0  0  0  0  0  0  0  0  0  0  0
    2.6838   -1.1950   -0.1364 H   0  0  0  0  0  0  0  0  0  0  0  0
    3.4590   -0.2677    1.1572 H   0  0  0  0  0  0  0  0  0  0  0  0
    1.9493    1.6808   -0.4641 H   0  0  0  0  0  0  0  0  0  0  0  0
  1  2  1  0
  2  3  1  0
  3  4  1  0
  4  5  1  0
  5  6  1  0
  6  7  1  0
  7  8  2  0
  1  9  1  0
  1 10  1  0
  1 11  1  0
  2 12  1  0
  2 13  1  0
  3 14  1  0
  3 15  1  0
  4 16  1  0
  4 17  1  0
  6 18  1  0
  6 19  1  0
  7 20  1  0
M  END
