
     RDKit          3D

 23 22  0  0  0  0  0  0  0  0999 V2000
   -3.2261    0.7163   -0.1310 C   0  0  0  0  0  0  0  0  0  0  0  0
   -2.2049   -0.3659   -0.2162 C   0  0  0  0  0  0  0  0  0  0  0  0
   -0.7882    0.1835   -0.3306 C   0  0  0  0  0  0  0  0  0  0  0  0
    0.2063   -0.9345   -0.4137 C   0  0  0  0  0  0  0  0  0  0  0  0
    0.1541   -1.7369    0.7006 O   0  0  0  0  0  0  0  0  0  0  0  0
    1.5816   -0.4440   -0.7595 C   0  0  0  0  0  0  0  0  0  0  0  0
    2.1110    0.5351    0.2690 C   0  0  0  0  0  0  0  0  0  0  0  0
    3.4680    1.0064   -0.0899 C   0  0  0  0  0  0  0  0  0  0  0  0
    3.9827    0.5881   -1.1036 O   0  0  0  0  0  0  0  0  0  0  0  0
   -2.9595    1.5177    0.5949 H   0  0  0  0  0  0  0  0  0  0  0  0
   -4.1814    0.2725    0.2198 H   0  0  0  0  0  0  0  0  0  0  0  0
   -3.4390    1.2146   -1.0923 H   0  0  0  0  0  0  0  0  0  0  0  0
   -2.3884   -0.9357   -1.1586 H   0  0  0  0  0  0  0  0  0  0  0  0
   -2.2977   -1.0281    0.6686 H   0  0  0  0  0  0  0  0  0  0  0  0
   -0.7765    0.7964   -1.2557 H   0  0  0  0  0  0  0  0  0  0  0  0
   -0.5705    0.8907    0.5022 H   0  0  0  0  0  0  0  0  0  0  0  0
   -0.1202   -1.5773   -1.2832 H   0  0  0  0  0  0  0  0  0  0  0  0
    0.1665   -2.7097    0.4978 H   0  0  0  0  0  0  0  0  0  0  0  0
    1.5142    0.0462   -1.7523 H   0  0  0  0  0  0  0  0  0  0  0  0
    2.3088   -1.2719   -0.8764 H   0  0  0  0  0  0  0  0  0  0  0  0
    2.0634    0.1275    1.2870 H   0  0  0  0  0  0  0  0  0  0  0  0
    1.3883    1.4028    0.2589 H   0  0  0  0  0  0  0  0  0  0  0  0
    4.0075    1.7063    0.5207 H   0  0  0  0  0  0  0  0  0  0  0  0
  1  2  1  0
  2  3  1  0
  3  4  1  0
  4  5  1  0
  4  6  1  0
  6  7  1  0
  7  8  1  0
  8  9  2  0
  1 10  1  0
  1 11  1  0
  1 12  1  0
  2 13  1  0
  2 14  1  0
  3 15  1  0
  3 16  1  0
  4 17  1  0
  5 18  1  0
  6 19  1  0
  6 20  1  0
  7 21  1  0
  7 22  1  0
  8 23  1  0
M  END
