
     RDKit          3D

 19 20  0  0  0  0  0  0  0  0999 V2000
    2.0596    0.8848    0.1407 C   0  0  0  0  0  0  0  0  0  0  0  0
    1.5217   -0.4430    0.5807 C   0  0  0  0  0  0  0  0  0  0  0  0
    0.3614   -0.8291   -0.2465 C   0  0  0  0  0  0  0  0  0  0  0  0
   -0.8436    0.0303   -0.2276 C   0  0  0  0  0  0  0  0  0  0  0  0
   -2.0145   -0.4158   -1.1149 C   0  0  0  0  0  0  0  0  0  0  0  0
   -2.1290   -0.4550    0.3452 C   0  0  0  0  0  0  0  0  0  0  0  0
   -2.1106    0.7061    1.1380 O   0  0  0  0  0  0  0  0  0  0  0  0
   -1.0080    1.2648    0.5063 C   0  0  0  0  0  0  0  0  0  0  0  0
   -0.4872    2.3845    0.6223 O   0  0  0  0  0  0  0  0  0  0  0  0
    1.5681    1.2947   -0.7630 H   0  0  0  0  0  0  0  0  0  0  0  0
    2.0658    1.5687    1.0125 H   0  0  0  0  0  0  0  0  0  0  0  0
    3.1433    0.8095   -0.1638 H   0  0  0  0  0  0  0  0  0  0  0  0
    2.3304   -1.2061    0.3622 H   0  0  0  0  0  0  0  0  0  0  0  0
    1.3169   -0.4575    1.6749 H   0  0  0  0  0  0  0  0  0  0  0  0
    0.0113   -1.8851   -0.0627 H   0  0  0  0  0  0  0  0  0  0  0  0
    0.7179   -0.8727   -1.3200 H   0  0  0  0  0  0  0  0  0  0  0  0
   -1.8791   -1.3786   -1.6269 H   0  0  0  0  0  0  0  0  0  0  0  0
   -2.4187    0.4345   -1.7170 H   0  0  0  0  0  0  0  0  0  0  0  0
   -2.2055   -1.4350    0.8595 H   0  0  0  0  0  0  0  0  0  0  0  0
  1  2  1  0
  2  3  1  0
  3  4  1  0
  4  5  1  0
  5  6  1  0
  6  7  1  0
  7  8  1  0
  8  9  2  0
  6  4  1  0
  8  4  1  0
  1 10  1  0
  1 11  1  0
  1 12  1  0
  2 13  1  0
  2 14  1  0
  3 15  1  0
  3 16  1  0
  5 17  1  0
  5 18  1  0
  6 19  1  0
M  END
