
     RDKit          3D

 29 28  0  0  0  0  0  0  0  0999 V2000
    2.5961   -1.0697   -0.9589 C   0  0  0  0  0  0  0  0  0  0  0  0
    2.1587   -0.6797    0.4352 C   0  0  0  0  0  0  0  0  0  0  0  0
    1.3067    0.5612    0.4141 C   0  0  0  0  0  0  0  0  0  0  0  0
    0.0702    0.3947   -0.3899 C   0  0  0  0  0  0  0  0  0  0  0  0
   -0.7467    1.6477   -0.3869 C   0  0  0  0  0  0  0  0  0  0  0  0
   -1.2027    2.1094    0.9482 C   0  0  0  0  0  0  0  0  0  0  0  0
   -0.7186   -0.8433   -0.0792 C   0  0  0  0  0  0  0  0  0  0  0  0
   -1.2018   -0.9527    1.3262 C   0  0  0  0  0  0  0  0  0  0  0  0
   -1.9172   -0.9941   -0.9972 C   0  0  0  0  0  0  0  0  0  0  0  0
    2.0973   -2.0226   -1.2232 H   0  0  0  0  0  0  0  0  0  0  0  0
    3.7133   -1.2299   -0.9945 H   0  0  0  0  0  0  0  0  0  0  0  0
    2.3496   -0.2864   -1.7146 H   0  0  0  0  0  0  0  0  0  0  0  0
    3.0511   -0.5691    1.0597 H   0  0  0  0  0  0  0  0  0  0  0  0
    1.5455   -1.4895    0.9126 H   0  0  0  0  0  0  0  0  0  0  0  0
    1.1682    0.9121    1.4410 H   0  0  0  0  0  0  0  0  0  0  0  0
    1.9298    1.3538   -0.0963 H   0  0  0  0  0  0  0  0  0  0  0  0
    0.4071    0.2735   -1.4656 H   0  0  0  0  0  0  0  0  0  0  0  0
   -0.0878    2.4598   -0.8094 H   0  0  0  0  0  0  0  0  0  0  0  0
   -1.6135    1.5995   -1.0749 H   0  0  0  0  0  0  0  0  0  0  0  0
   -2.0942    1.5782    1.3367 H   0  0  0  0  0  0  0  0  0  0  0  0
   -0.4431    2.1254    1.7249 H   0  0  0  0  0  0  0  0  0  0  0  0
   -1.5431    3.1810    0.8262 H   0  0  0  0  0  0  0  0  0  0  0  0
   -0.0909   -1.7375   -0.2878 H   0  0  0  0  0  0  0  0  0  0  0  0
   -0.7358   -0.2705    2.0399 H   0  0  0  0  0  0  0  0  0  0  0  0
   -1.0366   -1.9914    1.7423 H   0  0  0  0  0  0  0  0  0  0  0  0
   -2.3127   -0.8095    1.4240 H   0  0  0  0  0  0  0  0  0  0  0  0
   -2.7547   -0.3377   -0.7129 H   0  0  0  0  0  0  0  0  0  0  0  0
   -2.2635   -2.0501   -0.8732 H   0  0  0  0  0  0  0  0  0  0  0  0
   -1.6304   -0.8622   -2.0705 H   0  0  0  0  0  0  0  0  0  0  0  0
  1  2  1  0
  2  3  1  0
  3  4  1  0
  4  5  1  0
  5  6  1  0
  4  7  1  0
  7  8  1  0
  7  9  1  0
  1 10  1  0
  1 11  1  0
  1 12  1  0
  2 13  1  0
  2 14  1  0
  3 15  1  0
  3 16  1  0
  4 17  1  0
  5 18  1  0
  5 19  1  0
  6 20  1  0
  6 21  1  0
  6 22  1  0
  7 23  1  0
  8 24  1  0
  8 25  1  0
  8 26  1  0
  9 27  1  0
  9 28  1  0
  9 29  1  0
M  END
