
     RDKit          3D

 25 24  0  0  0  0  0  0  0  0999 V2000
   -2.8519    1.1937    0.1560 C   0  0  0  0  0  0  0  0  0  0  0  0
   -1.3184    1.0433   -0.0135 C   0  0  0  0  0  0  0  0  0  0  0  0
   -0.9932   -0.3765   -0.3139 C   0  0  0  0  0  0  0  0  0  0  0  0
    0.4021   -0.7629   -0.5478 C   0  0  0  0  0  0  0  0  0  0  0  0
    0.3359   -2.2984   -0.8524 C   0  0  0  0  0  0  0  0  0  0  0  0
    1.4197   -0.6559    0.5038 C   0  0  0  0  0  0  0  0  0  0  0  0
    1.7457    0.6463    1.1138 C   0  0  0  0  0  0  0  0  0  0  0  0
    2.1977    1.6188    0.0821 C   0  0  0  0  0  0  0  0  0  0  0  0
    2.2722    1.3350   -1.0812 O   0  0  0  0  0  0  0  0  0  0  0  0
   -3.1510    0.9975    1.1942 H   0  0  0  0  0  0  0  0  0  0  0  0
   -3.1946    2.1660   -0.2033 H   0  0  0  0  0  0  0  0  0  0  0  0
   -3.3469    0.4001   -0.4710 H   0  0  0  0  0  0  0  0  0  0  0  0
   -0.9310    1.3211    0.9719 H   0  0  0  0  0  0  0  0  0  0  0  0
   -1.0335    1.7439   -0.7977 H   0  0  0  0  0  0  0  0  0  0  0  0
   -1.5489   -0.6059   -1.2832 H   0  0  0  0  0  0  0  0  0  0  0  0
   -1.5195   -1.0605    0.4107 H   0  0  0  0  0  0  0  0  0  0  0  0
    0.7218   -0.3514   -1.5379 H   0  0  0  0  0  0  0  0  0  0  0  0
    1.2460   -2.6163   -1.3661 H   0  0  0  0  0  0  0  0  0  0  0  0
   -0.5499   -2.5010   -1.4730 H   0  0  0  0  0  0  0  0  0  0  0  0
    0.1992   -2.8485    0.1029 H   0  0  0  0  0  0  0  0  0  0  0  0
    2.3924   -1.0287    0.0364 H   0  0  0  0  0  0  0  0  0  0  0  0
    1.2169   -1.4519    1.2677 H   0  0  0  0  0  0  0  0  0  0  0  0
    1.1037    1.0477    1.8879 H   0  0  0  0  0  0  0  0  0  0  0  0
    2.7221    0.4399    1.7052 H   0  0  0  0  0  0  0  0  0  0  0  0
    2.4634    2.6047    0.4032 H   0  0  0  0  0  0  0  0  0  0  0  0
  1  2  1  0
  2  3  1  0
  3  4  1  0
  4  5  1  0
  4  6  1  0
  6  7  1  0
  7  8  1  0
  8  9  2  0
  1 10  1  0
  1 11  1  0
  1 12  1  0
  2 13  1  0
  2 14  1  0
  3 15  1  0
  3 16  1  0
  4 17  1  0
  5 18  1  0
  5 19  1  0
  5 20  1  0
  6 21  1  0
  6 22  1  0
  7 23  1  0
  7 24  1  0
  8 25  1  0
M  END
