
     RDKit          3D

 25 26  0  0  0  0  0  0  0  0999 V2000
    3.2325    0.0958   -0.4413 C   0  0  0  0  0  0  0  0  0  0  0  0
    1.8971   -0.5235   -0.0895 C   0  0  0  0  0  0  0  0  0  0  0  0
    0.7923    0.5280   -0.1125 C   0  0  0  0  0  0  0  0  0  0  0  0
   -0.4971   -0.1663    0.2465 C   0  0  0  0  0  0  0  0  0  0  0  0
   -0.6222   -0.8526    1.5747 C   0  0  0  0  0  0  0  0  0  0  0  0
   -1.8221    0.0116    1.8768 C   0  0  0  0  0  0  0  0  0  0  0  0
   -1.7402    0.5991    0.5025 C   0  0  0  0  0  0  0  0  0  0  0  0
   -1.6084   -0.3132   -0.6902 C   0  0  0  0  0  0  0  0  0  0  0  0
   -1.6456    0.3504   -2.0296 C   0  0  0  0  0  0  0  0  0  0  0  0
    4.0161   -0.5387    0.0208 H   0  0  0  0  0  0  0  0  0  0  0  0
    3.4103    0.0996   -1.5351 H   0  0  0  0  0  0  0  0  0  0  0  0
    3.2740    1.1261   -0.0110 H   0  0  0  0  0  0  0  0  0  0  0  0
    1.9935   -0.9597    0.9236 H   0  0  0  0  0  0  0  0  0  0  0  0
    1.6786   -1.2805   -0.8620 H   0  0  0  0  0  0  0  0  0  0  0  0
    0.7370    0.9592   -1.1160 H   0  0  0  0  0  0  0  0  0  0  0  0
    1.0210    1.2572    0.6884 H   0  0  0  0  0  0  0  0  0  0  0  0
   -0.8811   -1.9211    1.4401 H   0  0  0  0  0  0  0  0  0  0  0  0
    0.2056   -0.6932    2.2844 H   0  0  0  0  0  0  0  0  0  0  0  0
   -1.6351    0.7508    2.6718 H   0  0  0  0  0  0  0  0  0  0  0  0
   -2.7408   -0.5711    2.1023 H   0  0  0  0  0  0  0  0  0  0  0  0
   -1.6927    1.6965    0.3682 H   0  0  0  0  0  0  0  0  0  0  0  0
   -2.2473   -1.2337   -0.6347 H   0  0  0  0  0  0  0  0  0  0  0  0
   -1.2241   -0.2898   -2.8457 H   0  0  0  0  0  0  0  0  0  0  0  0
   -2.7159    0.5092   -2.3037 H   0  0  0  0  0  0  0  0  0  0  0  0
   -1.1853    1.3598   -2.0289 H   0  0  0  0  0  0  0  0  0  0  0  0
  1  2  1  0
  2  3  1  0
  3  4  1  0
  4  5  1  0
  5  6  1  0
  6  7  1  0
  7  8  1  0
  8  9  1  0
  7  4  1  0
  8  4  1  0
  1 10  1  0
  1 11  1  0
  1 12  1  0
  2 13  1  0
  2 14  1  0
  3 15  1  0
  3 16  1  0
  5 17  1  0
  5 18  1  0
  6 19  1  0
  6 20  1  0
  7 21  1  0
  8 22  1  0
  9 23  1  0
  9 24  1  0
  9 25  1  0
M  END
