
     RDKit          3D

 23 22  0  0  0  0  0  0  0  0999 V2000
    2.6576    0.6505    0.5709 C   0  0  0  0  0  0  0  0  0  0  0  0
    2.1312   -0.7241    0.2007 C   0  0  0  0  0  0  0  0  0  0  0  0
    1.2580   -0.5555   -1.0139 C   0  0  0  0  0  0  0  0  0  0  0  0
    0.0947    0.3740   -0.7898 C   0  0  0  0  0  0  0  0  0  0  0  0
   -0.7908   -0.1296    0.2999 C   0  0  0  0  0  0  0  0  0  0  0  0
   -1.2687   -1.3882   -0.0611 O   0  0  0  0  0  0  0  0  0  0  0  0
   -1.9221    0.7674    0.5957 C   0  0  0  0  0  0  0  0  0  0  0  0
   -3.3064    0.2572    0.4804 C   0  0  0  0  0  0  0  0  0  0  0  0
   -1.7283    1.9156    0.9314 O   0  0  0  0  0  0  0  0  0  0  0  0
    3.4147    0.5447    1.3705 H   0  0  0  0  0  0  0  0  0  0  0  0
    3.1339    1.0778   -0.3221 H   0  0  0  0  0  0  0  0  0  0  0  0
    1.7931    1.2669    0.8510 H   0  0  0  0  0  0  0  0  0  0  0  0
    1.5802   -1.2266    0.9903 H   0  0  0  0  0  0  0  0  0  0  0  0
    3.0500   -1.3250   -0.0489 H   0  0  0  0  0  0  0  0  0  0  0  0
    1.8430   -0.2633   -1.9143 H   0  0  0  0  0  0  0  0  0  0  0  0
    0.8800   -1.5911   -1.2619 H   0  0  0  0  0  0  0  0  0  0  0  0
   -0.4893    0.3799   -1.7537 H   0  0  0  0  0  0  0  0  0  0  0  0
    0.4083    1.4216   -0.6470 H   0  0  0  0  0  0  0  0  0  0  0  0
   -0.1632   -0.2758    1.2173 H   0  0  0  0  0  0  0  0  0  0  0  0
   -1.5908   -1.4022   -1.0187 H   0  0  0  0  0  0  0  0  0  0  0  0
   -3.3575   -0.6297   -0.2172 H   0  0  0  0  0  0  0  0  0  0  0  0
   -3.6119   -0.1390    1.4741 H   0  0  0  0  0  0  0  0  0  0  0  0
   -4.0156    0.9946    0.0664 H   0  0  0  0  0  0  0  0  0  0  0  0
  1  2  1  0
  2  3  1  0
  3  4  1  0
  4  5  1  0
  5  6  1  0
  5  7  1  0
  7  8  1  0
  7  9  2  0
  1 10  1  0
  1 11  1  0
  1 12  1  0
  2 13  1  0
  2 14  1  0
  3 15  1  0
  3 16  1  0
  4 17  1  0
  4 18  1  0
  5 19  1  0
  6 20  1  0
  8 21  1  0
  8 22  1  0
  8 23  1  0
M  END
