
     RDKit          3D

 27 27  0  0  0  0  0  0  0  0999 V2000
   -3.7792   -0.0910    0.6690 C   0  0  0  0  0  0  0  0  0  0  0  0
   -2.5051   -0.5651   -0.0481 C   0  0  0  0  0  0  0  0  0  0  0  0
   -1.5567    0.6001   -0.2355 C   0  0  0  0  0  0  0  0  0  0  0  0
   -0.3014    0.2116   -0.9279 C   0  0  0  0  0  0  0  0  0  0  0  0
    0.4602   -0.8392   -0.1566 C   0  0  0  0  0  0  0  0  0  0  0  0
    1.2069    0.3196    0.5192 C   0  0  0  0  0  0  0  0  0  0  0  0
    2.6144   -0.0474    0.7777 C   0  0  0  0  0  0  0  0  0  0  0  0
    3.4304   -0.3952   -0.4116 C   0  0  0  0  0  0  0  0  0  0  0  0
    0.8893    1.1414   -0.6800 C   0  0  0  0  0  0  0  0  0  0  0  0
   -3.5463    0.5603    1.5192 H   0  0  0  0  0  0  0  0  0  0  0  0
   -4.3185   -1.0174    0.9515 H   0  0  0  0  0  0  0  0  0  0  0  0
   -4.3497    0.4712   -0.1126 H   0  0  0  0  0  0  0  0  0  0  0  0
   -2.8642   -0.9616   -1.0225 H   0  0  0  0  0  0  0  0  0  0  0  0
   -2.0797   -1.3244    0.6044 H   0  0  0  0  0  0  0  0  0  0  0  0
   -2.1117    1.3243   -0.9033 H   0  0  0  0  0  0  0  0  0  0  0  0
   -1.3936    1.1339    0.7188 H   0  0  0  0  0  0  0  0  0  0  0  0
   -0.4545   -0.0191   -2.0008 H   0  0  0  0  0  0  0  0  0  0  0  0
   -0.0654   -1.3936    0.6156 H   0  0  0  0  0  0  0  0  0  0  0  0
    1.1070   -1.4210   -0.8407 H   0  0  0  0  0  0  0  0  0  0  0  0
    0.6322    0.7024    1.3933 H   0  0  0  0  0  0  0  0  0  0  0  0
    3.1016    0.7849    1.3338 H   0  0  0  0  0  0  0  0  0  0  0  0
    2.6733   -0.9263    1.4840 H   0  0  0  0  0  0  0  0  0  0  0  0
    3.1336   -1.3252   -0.9144 H   0  0  0  0  0  0  0  0  0  0  0  0
    4.4753   -0.6063   -0.0290 H   0  0  0  0  0  0  0  0  0  0  0  0
    3.4834    0.4614   -1.1141 H   0  0  0  0  0  0  0  0  0  0  0  0
    0.5382    2.1744   -0.4971 H   0  0  0  0  0  0  0  0  0  0  0  0
    1.5803    1.0472   -1.5201 H   0  0  0  0  0  0  0  0  0  0  0  0
  1  2  1  0
  2  3  1  0
  3  4  1  0
  4  5  1  0
  5  6  1  0
  6  7  1  0
  7  8  1  0
  6  9  1  0
  9  4  1  0
  1 10  1  0
  1 11  1  0
  1 12  1  0
  2 13  1  0
  2 14  1  0
  3 15  1  0
  3 16  1  0
  4 17  1  0
  5 18  1  0
  5 19  1  0
  6 20  1  0
  7 21  1  0
  7 22  1  0
  8 23  1  0
  8 24  1  0
  8 25  1  0
  9 26  1  0
  9 27  1  0
M  END
