
     RDKit          3D

 20 21  0  0  0  0  0  0  0  0999 V2000
    2.1451    0.2903    0.6576 C   0  0  0  0  0  0  0  0  0  0  0  0
    1.8219    0.0825   -0.7767 C   0  0  0  0  0  0  0  0  0  0  0  0
    0.4028    0.1691   -1.1805 C   0  0  0  0  0  0  0  0  0  0  0  0
   -0.5511   -0.7928   -0.5607 C   0  0  0  0  0  0  0  0  0  0  0  0
   -1.8347   -0.5296   -1.1114 O   0  0  0  0  0  0  0  0  0  0  0  0
   -1.9939    0.3547   -0.0487 C   0  0  0  0  0  0  0  0  0  0  0  0
   -2.4530   -0.3243    1.1791 C   0  0  0  0  0  0  0  0  0  0  0  0
   -1.0374   -0.3900    0.7777 C   0  0  0  0  0  0  0  0  0  0  0  0
    3.2661    0.4720    0.7070 H   0  0  0  0  0  0  0  0  0  0  0  0
    1.7079    1.1829    1.1062 H   0  0  0  0  0  0  0  0  0  0  0  0
    1.9297   -0.6509    1.2363 H   0  0  0  0  0  0  0  0  0  0  0  0
    2.2556   -0.8825   -1.1193 H   0  0  0  0  0  0  0  0  0  0  0  0
    2.3575    0.9038   -1.3416 H   0  0  0  0  0  0  0  0  0  0  0  0
    0.3951    0.1119   -2.3109 H   0  0  0  0  0  0  0  0  0  0  0  0
    0.0584    1.2286   -0.9915 H   0  0  0  0  0  0  0  0  0  0  0  0
   -0.2799   -1.8552   -0.5977 H   0  0  0  0  0  0  0  0  0  0  0  0
   -1.9886    1.4284   -0.1948 H   0  0  0  0  0  0  0  0  0  0  0  0
   -2.7201    0.3383    2.0277 H   0  0  0  0  0  0  0  0  0  0  0  0
   -3.1551   -1.1693    1.0640 H   0  0  0  0  0  0  0  0  0  0  0  0
   -0.3266    0.0321    1.4783 H   0  0  0  0  0  0  0  0  0  0  0  0
  1  2  1  0
  2  3  1  0
  3  4  1  0
  4  5  1  0
  5  6  1  0
  6  7  1  0
  7  8  1  0
  8  4  1  0
  8  6  1  0
  1  9  1  0
  1 10  1  0
  1 11  1  0
  2 12  1  0
  2 13  1  0
  3 14  1  0
  3 15  1  0
  4 16  1  0
  6 17  1  0
  7 18  1  0
  7 19  1  0
  8 20  1  0
M  END
