
     RDKit          3D

 25 24  0  0  0  0  0  0  0  0999 V2000
   -2.8629   -0.5191    0.1832 C   0  0  0  0  0  0  0  0  0  0  0  0
   -2.2498    0.1002   -1.0122 C   0  0  0  0  0  0  0  0  0  0  0  0
   -0.8258   -0.1575   -1.3091 C   0  0  0  0  0  0  0  0  0  0  0  0
    0.2102    0.3225   -0.3437 C   0  0  0  0  0  0  0  0  0  0  0  0
    0.1511   -0.2098    1.0349 C   0  0  0  0  0  0  0  0  0  0  0  0
    0.2831   -1.5640    1.1812 O   0  0  0  0  0  0  0  0  0  0  0  0
    1.5723    0.3115   -0.9912 C   0  0  0  0  0  0  0  0  0  0  0  0
    2.6446    0.7629   -0.0684 C   0  0  0  0  0  0  0  0  0  0  0  0
    2.8708   -0.0209    1.0408 O   0  0  0  0  0  0  0  0  0  0  0  0
   -3.1127    0.1964    1.0071 H   0  0  0  0  0  0  0  0  0  0  0  0
   -2.3820   -1.4038    0.5973 H   0  0  0  0  0  0  0  0  0  0  0  0
   -3.9142   -0.8748   -0.1376 H   0  0  0  0  0  0  0  0  0  0  0  0
   -2.3398    1.2324   -0.8544 H   0  0  0  0  0  0  0  0  0  0  0  0
   -2.9012   -0.0281   -1.9401 H   0  0  0  0  0  0  0  0  0  0  0  0
   -0.6260    0.2678   -2.3441 H   0  0  0  0  0  0  0  0  0  0  0  0
   -0.6731   -1.2869   -1.3677 H   0  0  0  0  0  0  0  0  0  0  0  0
   -0.0111    1.4465   -0.2279 H   0  0  0  0  0  0  0  0  0  0  0  0
   -0.8620    0.0979    1.4610 H   0  0  0  0  0  0  0  0  0  0  0  0
    0.8842    0.3803    1.6649 H   0  0  0  0  0  0  0  0  0  0  0  0
    0.9462   -1.9525    0.5748 H   0  0  0  0  0  0  0  0  0  0  0  0
    1.8346   -0.7232   -1.3645 H   0  0  0  0  0  0  0  0  0  0  0  0
    1.5250    0.9214   -1.9224 H   0  0  0  0  0  0  0  0  0  0  0  0
    2.4062    1.8011    0.3344 H   0  0  0  0  0  0  0  0  0  0  0  0
    3.6194    0.9418   -0.6268 H   0  0  0  0  0  0  0  0  0  0  0  0
    3.8129   -0.0422    1.3300 H   0  0  0  0  0  0  0  0  0  0  0  0
  1  2  1  0
  2  3  1  0
  3  4  1  0
  4  5  1  0
  5  6  1  0
  4  7  1  0
  7  8  1  0
  8  9  1  0
  1 10  1  0
  1 11  1  0
  1 12  1  0
  2 13  1  0
  2 14  1  0
  3 15  1  0
  3 16  1  0
  4 17  1  0
  5 18  1  0
  5 19  1  0
  6 20  1  0
  7 21  1  0
  7 22  1  0
  8 23  1  0
  8 24  1  0
  9 25  1  0
M  END
