
     RDKit          3D

 21 21  0  0  0  0  0  0  0  0999 V2000
   -2.9009   -0.9187   -0.2987 C   0  0  0  0  0  0  0  0  0  0  0  0
   -2.3243    0.4012    0.0568 C   0  0  0  0  0  0  0  0  0  0  0  0
   -0.9228    0.6216   -0.4145 C   0  0  0  0  0  0  0  0  0  0  0  0
    0.0242   -0.3818    0.1481 C   0  0  0  0  0  0  0  0  0  0  0  0
    1.4284   -0.1440   -0.3373 C   0  0  0  0  0  0  0  0  0  0  0  0
    2.2984   -1.1868    0.2721 O   0  0  0  0  0  0  0  0  0  0  0  0
    2.4608    0.2465    0.5814 C   0  0  0  0  0  0  0  0  0  0  0  0
    3.7837    0.6972    0.1328 C   0  0  0  0  0  0  0  0  0  0  0  0
    4.5008    1.3070    0.9073 O   0  0  0  0  0  0  0  0  0  0  0  0
   -3.3746   -1.3510    0.6254 H   0  0  0  0  0  0  0  0  0  0  0  0
   -2.2076   -1.6589   -0.6917 H   0  0  0  0  0  0  0  0  0  0  0  0
   -3.7371   -0.8337   -1.0491 H   0  0  0  0  0  0  0  0  0  0  0  0
   -2.9629    1.1955   -0.3991 H   0  0  0  0  0  0  0  0  0  0  0  0
   -2.3438    0.6102    1.1605 H   0  0  0  0  0  0  0  0  0  0  0  0
   -0.6055    1.6293   -0.0305 H   0  0  0  0  0  0  0  0  0  0  0  0
   -0.8292    0.6858   -1.5136 H   0  0  0  0  0  0  0  0  0  0  0  0
    0.0150   -0.3523    1.2498 H   0  0  0  0  0  0  0  0  0  0  0  0
   -0.2507   -1.4212   -0.1410 H   0  0  0  0  0  0  0  0  0  0  0  0
    1.5830   -0.1632   -1.4356 H   0  0  0  0  0  0  0  0  0  0  0  0
    2.1742    0.4871    1.6201 H   0  0  0  0  0  0  0  0  0  0  0  0
    4.1909    0.5302   -0.8565 H   0  0  0  0  0  0  0  0  0  0  0  0
  1  2  1  0
  2  3  1  0
  3  4  1  0
  4  5  1  0
  5  6  1  0
  6  7  1  0
  7  8  1  0
  8  9  2  0
  7  5  1  0
  1 10  1  0
  1 11  1  0
  1 12  1  0
  2 13  1  0
  2 14  1  0
  3 15  1  0
  3 16  1  0
  4 17  1  0
  4 18  1  0
  5 19  1  0
  7 20  1  0
  8 21  1  0
M  END
