
     RDKit          3D

 23 24  0  0  0  0  0  0  0  0999 V2000
    2.5439   -0.2667    1.1427 C   0  0  0  0  0  0  0  0  0  0  0  0
    1.5786    0.8986    1.0805 C   0  0  0  0  0  0  0  0  0  0  0  0
    0.8379    0.9238   -0.2332 C   0  0  0  0  0  0  0  0  0  0  0  0
    0.0349   -0.3206   -0.4674 C   0  0  0  0  0  0  0  0  0  0  0  0
   -0.7648   -0.4167   -1.7702 C   0  0  0  0  0  0  0  0  0  0  0  0
   -1.4261   -0.3593   -0.4582 C   0  0  0  0  0  0  0  0  0  0  0  0
   -2.3016    0.7540   -0.0174 C   0  0  0  0  0  0  0  0  0  0  0  0
   -1.2806   -1.6060    0.3948 C   0  0  0  0  0  0  0  0  0  0  0  0
    0.0959   -1.3931    0.3722 O   0  0  0  0  0  0  0  0  0  0  0  0
    2.0619   -1.1419    1.6562 H   0  0  0  0  0  0  0  0  0  0  0  0
    3.4905    0.0240    1.6812 H   0  0  0  0  0  0  0  0  0  0  0  0
    2.8321   -0.6321    0.1309 H   0  0  0  0  0  0  0  0  0  0  0  0
    0.8392    0.7774    1.9175 H   0  0  0  0  0  0  0  0  0  0  0  0
    2.1666    1.8256    1.2155 H   0  0  0  0  0  0  0  0  0  0  0  0
    0.1480    1.7907   -0.2601 H   0  0  0  0  0  0  0  0  0  0  0  0
    1.5861    1.0753   -1.0364 H   0  0  0  0  0  0  0  0  0  0  0  0
   -0.6079   -1.4016   -2.2684 H   0  0  0  0  0  0  0  0  0  0  0  0
   -0.6749    0.4331   -2.4447 H   0  0  0  0  0  0  0  0  0  0  0  0
   -1.7874    1.6445    0.3646 H   0  0  0  0  0  0  0  0  0  0  0  0
   -3.0213    1.0024   -0.8457 H   0  0  0  0  0  0  0  0  0  0  0  0
   -2.9595    0.3963    0.8196 H   0  0  0  0  0  0  0  0  0  0  0  0
   -1.6270   -2.4902   -0.1827 H   0  0  0  0  0  0  0  0  0  0  0  0
   -1.7644   -1.5175    1.3690 H   0  0  0  0  0  0  0  0  0  0  0  0
  1  2  1  0
  2  3  1  0
  3  4  1  0
  4  5  1  0
  5  6  1  0
  6  7  1  0
  6  8  1  0
  8  9  1  0
  6  4  1  0
  9  4  1  0
  1 10  1  0
  1 11  1  0
  1 12  1  0
  2 13  1  0
  2 14  1  0
  3 15  1  0
  3 16  1  0
  5 17  1  0
  5 18  1  0
  7 19  1  0
  7 20  1  0
  7 21  1  0
  8 22  1  0
  8 23  1  0
M  END
