
     RDKit          3D

 18 18  0  0  0  0  0  0  0  0999 V2000
    1.9514    0.1805    0.7349 C   0  0  0  0  0  0  0  0  0  0  0  0
    1.3811   -0.5058   -0.4983 C   0  0  0  0  0  0  0  0  0  0  0  0
    0.1438    0.0826   -1.0409 C   0  0  0  0  0  0  0  0  0  0  0  0
   -1.0156    0.0584   -0.0840 C   0  0  0  0  0  0  0  0  0  0  0  0
   -1.4109   -1.2473    0.3657 C   0  0  0  0  0  0  0  0  0  0  0  0
   -2.5796   -1.6434    0.1442 O   0  0  0  0  0  0  0  0  0  0  0  0
   -1.9227    1.2424    0.1271 C   0  0  0  0  0  0  0  0  0  0  0  0
   -0.8085    1.0397    0.9453 O   0  0  0  0  0  0  0  0  0  0  0  0
    1.8740    1.2895    0.6495 H   0  0  0  0  0  0  0  0  0  0  0  0
    2.9943   -0.1678    0.8077 H   0  0  0  0  0  0  0  0  0  0  0  0
    1.4504   -0.1614    1.6540 H   0  0  0  0  0  0  0  0  0  0  0  0
    1.2378   -1.5560   -0.2379 H   0  0  0  0  0  0  0  0  0  0  0  0
    2.1913   -0.4075   -1.2843 H   0  0  0  0  0  0  0  0  0  0  0  0
   -0.1670   -0.5016   -1.9348 H   0  0  0  0  0  0  0  0  0  0  0  0
    0.2609    1.1233   -1.4172 H   0  0  0  0  0  0  0  0  0  0  0  0
   -0.7910   -1.9687    0.9268 H   0  0  0  0  0  0  0  0  0  0  0  0
   -1.9206    2.0515   -0.5973 H   0  0  0  0  0  0  0  0  0  0  0  0
   -2.8693    1.0915    0.7393 H   0  0  0  0  0  0  0  0  0  0  0  0
  1  2  1  0
  2  3  1  0
  3  4  1  0
  4  5  1  0
  5  6  2  0
  4  7  1  0
  7  8  1  0
  8  4  1  0
  1  9  1  0
  1 10  1  0
  1 11  1  0
  2 12  1  0
  2 13  1  0
  3 14  1  0
  3 15  1  0
  5 16  1  0
  7 17  1  0
  7 18  1  0
M  END
