
     RDKit          3D

 23 24  0  0  0  0  0  0  0  0999 V2000
    3.0950    0.1850    0.4584 C   0  0  0  0  0  0  0  0  0  0  0  0
    1.6666   -0.2823    0.7355 C   0  0  0  0  0  0  0  0  0  0  0  0
    0.8315    0.0995   -0.4435 C   0  0  0  0  0  0  0  0  0  0  0  0
   -0.5973   -0.2757   -0.3554 C   0  0  0  0  0  0  0  0  0  0  0  0
   -1.0543   -1.6768   -0.2100 C   0  0  0  0  0  0  0  0  0  0  0  0
   -1.2843   -0.6867    0.8625 C   0  0  0  0  0  0  0  0  0  0  0  0
   -2.4445    0.2752    0.5881 C   0  0  0  0  0  0  0  0  0  0  0  0
   -1.6240    0.8074   -0.5748 C   0  0  0  0  0  0  0  0  0  0  0  0
   -1.1034    2.0767   -0.2818 O   0  0  0  0  0  0  0  0  0  0  0  0
    3.0514    1.2205    0.0914 H   0  0  0  0  0  0  0  0  0  0  0  0
    3.5201   -0.4331   -0.3715 H   0  0  0  0  0  0  0  0  0  0  0  0
    3.7367    0.1250    1.3408 H   0  0  0  0  0  0  0  0  0  0  0  0
    1.3420    0.2214    1.6501 H   0  0  0  0  0  0  0  0  0  0  0  0
    1.6865   -1.3668    0.9365 H   0  0  0  0  0  0  0  0  0  0  0  0
    0.9137    1.2012   -0.5700 H   0  0  0  0  0  0  0  0  0  0  0  0
    1.2714   -0.3804   -1.3592 H   0  0  0  0  0  0  0  0  0  0  0  0
   -1.9044   -1.9858   -0.8593 H   0  0  0  0  0  0  0  0  0  0  0  0
   -0.3097   -2.4557   -0.0441 H   0  0  0  0  0  0  0  0  0  0  0  0
   -0.8546   -0.7449    1.8559 H   0  0  0  0  0  0  0  0  0  0  0  0
   -2.6662    0.9795    1.3835 H   0  0  0  0  0  0  0  0  0  0  0  0
   -3.3012   -0.3089    0.1725 H   0  0  0  0  0  0  0  0  0  0  0  0
   -2.0753    0.7070   -1.5650 H   0  0  0  0  0  0  0  0  0  0  0  0
   -1.8955    2.6987   -0.3240 H   0  0  0  0  0  0  0  0  0  0  0  0
  1  2  1  0
  2  3  1  0
  3  4  1  0
  4  5  1  0
  5  6  1  0
  6  7  1  0
  7  8  1  0
  8  9  1  0
  6  4  1  0
  8  4  1  0
  1 10  1  0
  1 11  1  0
  1 12  1  0
  2 13  1  0
  2 14  1  0
  3 15  1  0
  3 16  1  0
  5 17  1  0
  5 18  1  0
  6 19  1  0
  7 20  1  0
  7 21  1  0
  8 22  1  0
  9 23  1  0
M  END
