
     RDKit          3D

 25 25  0  0  0  0  0  0  0  0999 V2000
    2.9758   -1.1160   -0.0208 C   0  0  0  0  0  0  0  0  0  0  0  0
    1.5875   -0.6944    0.4592 C   0  0  0  0  0  0  0  0  0  0  0  0
    1.3959    0.7271   -0.0209 C   0  0  0  0  0  0  0  0  0  0  0  0
    0.0815    1.3252    0.3608 C   0  0  0  0  0  0  0  0  0  0  0  0
   -1.1117    0.6085   -0.1537 C   0  0  0  0  0  0  0  0  0  0  0  0
   -1.2404    0.4784   -1.6390 C   0  0  0  0  0  0  0  0  0  0  0  0
   -1.5089   -0.6733    0.5442 C   0  0  0  0  0  0  0  0  0  0  0  0
   -2.9006   -0.0415    0.7149 C   0  0  0  0  0  0  0  0  0  0  0  0
   -2.2759    1.1750    0.4360 O   0  0  0  0  0  0  0  0  0  0  0  0
    2.9192   -1.8018   -0.8892 H   0  0  0  0  0  0  0  0  0  0  0  0
    3.4894   -1.6709    0.8040 H   0  0  0  0  0  0  0  0  0  0  0  0
    3.5876   -0.2453   -0.3341 H   0  0  0  0  0  0  0  0  0  0  0  0
    0.8078   -1.3712    0.0533 H   0  0  0  0  0  0  0  0  0  0  0  0
    1.5619   -0.7757    1.5580 H   0  0  0  0  0  0  0  0  0  0  0  0
    1.5707    0.7062   -1.1166 H   0  0  0  0  0  0  0  0  0  0  0  0
    2.2545    1.3049    0.3961 H   0  0  0  0  0  0  0  0  0  0  0  0
    0.0969    2.3873    0.0417 H   0  0  0  0  0  0  0  0  0  0  0  0
    0.0677    1.3704    1.4848 H   0  0  0  0  0  0  0  0  0  0  0  0
   -0.6927   -0.4323   -1.9658 H   0  0  0  0  0  0  0  0  0  0  0  0
   -0.9149    1.3944   -2.1692 H   0  0  0  0  0  0  0  0  0  0  0  0
   -2.3228    0.2546   -1.8514 H   0  0  0  0  0  0  0  0  0  0  0  0
   -1.0069   -0.8584    1.5154 H   0  0  0  0  0  0  0  0  0  0  0  0
   -1.5772   -1.5704   -0.0663 H   0  0  0  0  0  0  0  0  0  0  0  0
   -3.6034   -0.2866   -0.1016 H   0  0  0  0  0  0  0  0  0  0  0  0
   -3.2411   -0.1942    1.7388 H   0  0  0  0  0  0  0  0  0  0  0  0
  1  2  1  0
  2  3  1  0
  3  4  1  0
  4  5  1  0
  5  6  1  0
  5  7  1  0
  7  8  1  0
  8  9  1  0
  9  5  1  0
  1 10  1  0
  1 11  1  0
  1 12  1  0
  2 13  1  0
  2 14  1  0
  3 15  1  0
  3 16  1  0
  4 17  1  0
  4 18  1  0
  6 19  1  0
  6 20  1  0
  6 21  1  0
  7 22  1  0
  7 23  1  0
  8 24  1  0
  8 25  1  0
M  END
