
     RDKit          3D

 29 28  0  0  0  0  0  0  0  0999 V2000
    4.0789    1.1712   -0.2530 C   0  0  0  0  0  0  0  0  0  0  0  0
    2.8834    0.2370   -0.1389 C   0  0  0  0  0  0  0  0  0  0  0  0
    2.0904    0.5239    1.0980 C   0  0  0  0  0  0  0  0  0  0  0  0
    0.9072   -0.3765    1.2498 C   0  0  0  0  0  0  0  0  0  0  0  0
   -0.0792   -0.2751    0.1030 C   0  0  0  0  0  0  0  0  0  0  0  0
   -1.2029   -1.2340    0.4108 C   0  0  0  0  0  0  0  0  0  0  0  0
   -2.2667   -1.2485   -0.6398 C   0  0  0  0  0  0  0  0  0  0  0  0
   -2.9356    0.0713   -0.8568 C   0  0  0  0  0  0  0  0  0  0  0  0
   -3.6173    0.5889    0.3955 C   0  0  0  0  0  0  0  0  0  0  0  0
    3.9123    2.0059    0.4633 H   0  0  0  0  0  0  0  0  0  0  0  0
    4.2200    1.5382   -1.2914 H   0  0  0  0  0  0  0  0  0  0  0  0
    5.0014    0.6459    0.0936 H   0  0  0  0  0  0  0  0  0  0  0  0
    3.2517   -0.8052   -0.1268 H   0  0  0  0  0  0  0  0  0  0  0  0
    2.2101    0.4107   -1.0260 H   0  0  0  0  0  0  0  0  0  0  0  0
    2.7678    0.3995    1.9664 H   0  0  0  0  0  0  0  0  0  0  0  0
    1.7523    1.5818    1.1166 H   0  0  0  0  0  0  0  0  0  0  0  0
    0.3938   -0.1944    2.2318 H   0  0  0  0  0  0  0  0  0  0  0  0
    1.3049   -1.4194    1.3429 H   0  0  0  0  0  0  0  0  0  0  0  0
    0.4736   -0.6130   -0.8138 H   0  0  0  0  0  0  0  0  0  0  0  0
   -0.4994    0.7295    0.0009 H   0  0  0  0  0  0  0  0  0  0  0  0
   -1.5797   -1.0109    1.4187 H   0  0  0  0  0  0  0  0  0  0  0  0
   -0.7579   -2.2506    0.4480 H   0  0  0  0  0  0  0  0  0  0  0  0
   -3.0352   -1.9778   -0.3382 H   0  0  0  0  0  0  0  0  0  0  0  0
   -1.8332   -1.5792   -1.5878 H   0  0  0  0  0  0  0  0  0  0  0  0
   -2.2757    0.8543   -1.2579 H   0  0  0  0  0  0  0  0  0  0  0  0
   -3.7398   -0.0810   -1.6068 H   0  0  0  0  0  0  0  0  0  0  0  0
   -4.1451    1.5280    0.0951 H   0  0  0  0  0  0  0  0  0  0  0  0
   -2.8907    0.8845    1.1715 H   0  0  0  0  0  0  0  0  0  0  0  0
   -4.3896   -0.1051    0.7573 H   0  0  0  0  0  0  0  0  0  0  0  0
  1  2  1  0
  2  3  1  0
  3  4  1  0
  4  5  1  0
  5  6  1  0
  6  7  1  0
  7  8  1  0
  8  9  1  0
  1 10  1  0
  1 11  1  0
  1 12  1  0
  2 13  1  0
  2 14  1  0
  3 15  1  0
  3 16  1  0
  4 17  1  0
  4 18  1  0
  5 19  1  0
  5 20  1  0
  6 21  1  0
  6 22  1  0
  7 23  1  0
  7 24  1  0
  8 25  1  0
  8 26  1  0
  9 27  1  0
  9 28  1  0
  9 29  1  0
M  END
