
     RDKit          3D

 29 28  0  0  0  0  0  0  0  0999 V2000
    2.9905    1.2226   -0.2649 C   0  0  0  0  0  0  0  0  0  0  0  0
    2.0729    0.0382   -0.4786 C   0  0  0  0  0  0  0  0  0  0  0  0
    0.7079    0.4430   -0.0191 C   0  0  0  0  0  0  0  0  0  0  0  0
   -0.3259   -0.6296   -0.1659 C   0  0  0  0  0  0  0  0  0  0  0  0
   -0.5122   -1.0838   -1.5788 C   0  0  0  0  0  0  0  0  0  0  0  0
    0.0014   -1.8436    0.6711 C   0  0  0  0  0  0  0  0  0  0  0  0
   -1.6488   -0.0545    0.3340 C   0  0  0  0  0  0  0  0  0  0  0  0
   -2.0656    1.1530   -0.4543 C   0  0  0  0  0  0  0  0  0  0  0  0
   -1.5257    0.3681    1.7900 C   0  0  0  0  0  0  0  0  0  0  0  0
    3.5187    1.1674    0.7177 H   0  0  0  0  0  0  0  0  0  0  0  0
    3.7081    1.3216   -1.0977 H   0  0  0  0  0  0  0  0  0  0  0  0
    2.4206    2.1896   -0.2338 H   0  0  0  0  0  0  0  0  0  0  0  0
    2.1035   -0.3540   -1.5057 H   0  0  0  0  0  0  0  0  0  0  0  0
    2.4571   -0.7849    0.1803 H   0  0  0  0  0  0  0  0  0  0  0  0
    0.3908    1.3149   -0.6207 H   0  0  0  0  0  0  0  0  0  0  0  0
    0.7840    0.6818    1.0712 H   0  0  0  0  0  0  0  0  0  0  0  0
   -1.3964   -1.7580   -1.6158 H   0  0  0  0  0  0  0  0  0  0  0  0
   -0.6024   -0.2869   -2.3139 H   0  0  0  0  0  0  0  0  0  0  0  0
    0.3669   -1.7105   -1.8947 H   0  0  0  0  0  0  0  0  0  0  0  0
    0.0696   -2.7761    0.0533 H   0  0  0  0  0  0  0  0  0  0  0  0
    0.9713   -1.7397    1.2107 H   0  0  0  0  0  0  0  0  0  0  0  0
   -0.7948   -2.0500    1.4215 H   0  0  0  0  0  0  0  0  0  0  0  0
   -2.4596   -0.8119    0.2543 H   0  0  0  0  0  0  0  0  0  0  0  0
   -1.4990    1.2949   -1.3889 H   0  0  0  0  0  0  0  0  0  0  0  0
   -3.1725    1.1182   -0.6745 H   0  0  0  0  0  0  0  0  0  0  0  0
   -1.9241    2.0980    0.1444 H   0  0  0  0  0  0  0  0  0  0  0  0
   -2.5220    0.2243    2.2556 H   0  0  0  0  0  0  0  0  0  0  0  0
   -0.7866   -0.2257    2.3364 H   0  0  0  0  0  0  0  0  0  0  0  0
   -1.3275    1.4736    1.8663 H   0  0  0  0  0  0  0  0  0  0  0  0
  1  2  1  0
  2  3  1  0
  3  4  1  0
  4  5  1  0
  4  6  1  0
  4  7  1  0
  7  8  1  0
  7  9  1  0
  1 10  1  0
  1 11  1  0
  1 12  1  0
  2 13  1  0
  2 14  1  0
  3 15  1  0
  3 16  1  0
  5 17  1  0
  5 18  1  0
  5 19  1  0
  6 20  1  0
  6 21  1  0
  6 22  1  0
  7 23  1  0
  8 24  1  0
  8 25  1  0
  8 26  1  0
  9 27  1  0
  9 28  1  0
  9 29  1  0
M  END
