
     RDKit          3D

 23 24  0  0  0  0  0  0  0  0999 V2000
   -3.3420    0.2867   -0.7870 C   0  0  0  0  0  0  0  0  0  0  0  0
   -2.1499   -0.2772   -0.0468 C   0  0  0  0  0  0  0  0  0  0  0  0
   -0.9188    0.5871   -0.2375 C   0  0  0  0  0  0  0  0  0  0  0  0
    0.2727    0.0455    0.4879 C   0  0  0  0  0  0  0  0  0  0  0  0
    0.7084   -1.3346    0.0801 C   0  0  0  0  0  0  0  0  0  0  0  0
    2.0548   -0.8571   -0.3512 C   0  0  0  0  0  0  0  0  0  0  0  0
    2.8372    0.1356    0.4097 C   0  0  0  0  0  0  0  0  0  0  0  0
    3.9863    0.6067   -0.2212 O   0  0  0  0  0  0  0  0  0  0  0  0
    1.5493    0.5757   -0.1562 C   0  0  0  0  0  0  0  0  0  0  0  0
   -4.1037   -0.4664   -0.9941 H   0  0  0  0  0  0  0  0  0  0  0  0
   -2.9902    0.7376   -1.7506 H   0  0  0  0  0  0  0  0  0  0  0  0
   -3.7414    1.1566   -0.2015 H   0  0  0  0  0  0  0  0  0  0  0  0
   -1.9824   -1.3128   -0.4219 H   0  0  0  0  0  0  0  0  0  0  0  0
   -2.3926   -0.3097    1.0226 H   0  0  0  0  0  0  0  0  0  0  0  0
   -1.1693    1.5736    0.2469 H   0  0  0  0  0  0  0  0  0  0  0  0
   -0.7222    0.7715   -1.3085 H   0  0  0  0  0  0  0  0  0  0  0  0
    0.2524    0.1556    1.5706 H   0  0  0  0  0  0  0  0  0  0  0  0
    0.1045   -1.6914   -0.8023 H   0  0  0  0  0  0  0  0  0  0  0  0
    0.7094   -2.0635    0.9092 H   0  0  0  0  0  0  0  0  0  0  0  0
    2.4001   -1.1509   -1.3646 H   0  0  0  0  0  0  0  0  0  0  0  0
    2.9470    0.0751    1.5161 H   0  0  0  0  0  0  0  0  0  0  0  0
    4.1996    1.5194    0.0723 H   0  0  0  0  0  0  0  0  0  0  0  0
    1.4910    1.2371   -1.0194 H   0  0  0  0  0  0  0  0  0  0  0  0
  1  2  1  0
  2  3  1  0
  3  4  1  0
  4  5  1  0
  5  6  1  0
  6  7  1  0
  7  8  1  0
  7  9  1  0
  9  4  1  0
  9  6  1  0
  1 10  1  0
  1 11  1  0
  1 12  1  0
  2 13  1  0
  2 14  1  0
  3 15  1  0
  3 16  1  0
  4 17  1  0
  5 18  1  0
  5 19  1  0
  6 20  1  0
  7 21  1  0
  8 22  1  0
  9 23  1  0
M  END
