
     RDKit          3D

 23 23  0  0  0  0  0  0  0  0999 V2000
    2.4059    0.5619   -0.7956 C   0  0  0  0  0  0  0  0  0  0  0  0
    2.1801   -0.6562    0.0445 C   0  0  0  0  0  0  0  0  0  0  0  0
    1.1040   -0.4595    1.0946 C   0  0  0  0  0  0  0  0  0  0  0  0
   -0.2054   -0.1218    0.4773 C   0  0  0  0  0  0  0  0  0  0  0  0
   -0.7509    1.0410    0.8148 C   0  0  0  0  0  0  0  0  0  0  0  0
   -2.0709    1.4469    0.2306 C   0  0  0  0  0  0  0  0  0  0  0  0
   -2.4066    0.6965   -0.8712 O   0  0  0  0  0  0  0  0  0  0  0  0
   -2.3094   -0.6628   -0.6934 C   0  0  0  0  0  0  0  0  0  0  0  0
   -0.8537   -1.0638   -0.4734 C   0  0  0  0  0  0  0  0  0  0  0  0
    3.2373    1.1655   -0.3931 H   0  0  0  0  0  0  0  0  0  0  0  0
    2.7280    0.2481   -1.8230 H   0  0  0  0  0  0  0  0  0  0  0  0
    1.5245    1.1952   -0.9294 H   0  0  0  0  0  0  0  0  0  0  0  0
    3.1245   -0.9140    0.5475 H   0  0  0  0  0  0  0  0  0  0  0  0
    1.8840   -1.5323   -0.5566 H   0  0  0  0  0  0  0  0  0  0  0  0
    1.4176    0.2823    1.8446 H   0  0  0  0  0  0  0  0  0  0  0  0
    1.0237   -1.4425    1.6295 H   0  0  0  0  0  0  0  0  0  0  0  0
   -0.2982    1.7452    1.5058 H   0  0  0  0  0  0  0  0  0  0  0  0
   -2.8922    1.3503    0.9705 H   0  0  0  0  0  0  0  0  0  0  0  0
   -2.0311    2.5196   -0.1124 H   0  0  0  0  0  0  0  0  0  0  0  0
   -2.9449   -1.0559    0.1263 H   0  0  0  0  0  0  0  0  0  0  0  0
   -2.6752   -1.1463   -1.6278 H   0  0  0  0  0  0  0  0  0  0  0  0
   -0.3146   -1.0997   -1.4539 H   0  0  0  0  0  0  0  0  0  0  0  0
   -0.8764   -2.0977   -0.0558 H   0  0  0  0  0  0  0  0  0  0  0  0
  1  2  1  0
  2  3  1  0
  3  4  1  0
  4  5  2  0
  5  6  1  0
  6  7  1  0
  7  8  1  0
  8  9  1  0
  9  4  1  0
  1 10  1  0
  1 11  1  0
  1 12  1  0
  2 13  1  0
  2 14  1  0
  3 15  1  0
  3 16  1  0
  5 17  1  0
  6 18  1  0
  6 19  1  0
  8 20  1  0
  8 21  1  0
  9 22  1  0
  9 23  1  0
M  END
