
     RDKit          3D

 25 25  0  0  0  0  0  0  0  0999 V2000
    3.4401    0.2798   -0.3428 C   0  0  0  0  0  0  0  0  0  0  0  0
    2.1106   -0.4229   -0.5050 C   0  0  0  0  0  0  0  0  0  0  0  0
    1.1566   -0.0652    0.6060 C   0  0  0  0  0  0  0  0  0  0  0  0
   -0.1752   -0.7659    0.4481 C   0  0  0  0  0  0  0  0  0  0  0  0
   -1.2259   -0.4680    1.5352 C   0  0  0  0  0  0  0  0  0  0  0  0
   -1.3489    0.1080    0.1832 C   0  0  0  0  0  0  0  0  0  0  0  0
   -1.1170    1.5925   -0.0059 C   0  0  0  0  0  0  0  0  0  0  0  0
   -2.5009   -0.4191   -0.6592 C   0  0  0  0  0  0  0  0  0  0  0  0
   -3.0750   -1.5483   -0.0867 O   0  0  0  0  0  0  0  0  0  0  0  0
    3.3712    1.1778    0.3092 H   0  0  0  0  0  0  0  0  0  0  0  0
    4.1693   -0.4612    0.0965 H   0  0  0  0  0  0  0  0  0  0  0  0
    3.8734    0.5902   -1.3271 H   0  0  0  0  0  0  0  0  0  0  0  0
    1.6972   -0.1154   -1.4943 H   0  0  0  0  0  0  0  0  0  0  0  0
    2.2380   -1.5381   -0.5638 H   0  0  0  0  0  0  0  0  0  0  0  0
    1.6122   -0.4262    1.5577 H   0  0  0  0  0  0  0  0  0  0  0  0
    1.0237    1.0313    0.6111 H   0  0  0  0  0  0  0  0  0  0  0  0
   -0.1815   -1.8059    0.0867 H   0  0  0  0  0  0  0  0  0  0  0  0
   -0.8831    0.1411    2.3834 H   0  0  0  0  0  0  0  0  0  0  0  0
   -1.9129   -1.2894    1.8204 H   0  0  0  0  0  0  0  0  0  0  0  0
   -0.3972    1.6902   -0.8643 H   0  0  0  0  0  0  0  0  0  0  0  0
   -2.0518    2.0784   -0.3473 H   0  0  0  0  0  0  0  0  0  0  0  0
   -0.7126    2.0516    0.9182 H   0  0  0  0  0  0  0  0  0  0  0  0
   -2.1807   -0.5579   -1.6964 H   0  0  0  0  0  0  0  0  0  0  0  0
   -3.2767    0.3791   -0.6611 H   0  0  0  0  0  0  0  0  0  0  0  0
   -3.6528   -1.2365    0.6535 H   0  0  0  0  0  0  0  0  0  0  0  0
  1  2  1  0
  2  3  1  0
  3  4  1  0
  4  5  1  0
  5  6  1  0
  6  7  1  0
  6  8  1  0
  8  9  1  0
  6  4  1  0
  1 10  1  0
  1 11  1  0
  1 12  1  0
  2 13  1  0
  2 14  1  0
  3 15  1  0
  3 16  1  0
  4 17  1  0
  5 18  1  0
  5 19  1  0
  7 20  1  0
  7 21  1  0
  7 22  1  0
  8 23  1  0
  8 24  1  0
  9 25  1  0
M  END
