
     RDKit          3D

 25 25  0  0  0  0  0  0  0  0999 V2000
   -3.8672   -0.1119    0.3521 C   0  0  0  0  0  0  0  0  0  0  0  0
   -2.4772    0.3646    0.0033 C   0  0  0  0  0  0  0  0  0  0  0  0
   -1.4333   -0.6908    0.3098 C   0  0  0  0  0  0  0  0  0  0  0  0
   -0.0641   -0.2237   -0.0329 C   0  0  0  0  0  0  0  0  0  0  0  0
    0.2261    0.9612   -0.5422 C   0  0  0  0  0  0  0  0  0  0  0  0
    1.6830    1.1257   -0.7732 C   0  0  0  0  0  0  0  0  0  0  0  0
    2.2487   -0.2512   -0.5642 C   0  0  0  0  0  0  0  0  0  0  0  0
    3.4928   -0.0765    0.2924 C   0  0  0  0  0  0  0  0  0  0  0  0
    1.1727   -1.0313    0.1516 C   0  0  0  0  0  0  0  0  0  0  0  0
   -3.8633   -0.7668    1.2637 H   0  0  0  0  0  0  0  0  0  0  0  0
   -4.3350   -0.6913   -0.4975 H   0  0  0  0  0  0  0  0  0  0  0  0
   -4.5517    0.7289    0.5921 H   0  0  0  0  0  0  0  0  0  0  0  0
   -2.4557    0.6137   -1.0782 H   0  0  0  0  0  0  0  0  0  0  0  0
   -2.3023    1.3063    0.5459 H   0  0  0  0  0  0  0  0  0  0  0  0
   -1.7156   -1.5829   -0.3205 H   0  0  0  0  0  0  0  0  0  0  0  0
   -1.5270   -0.9901    1.3747 H   0  0  0  0  0  0  0  0  0  0  0  0
   -0.4690    1.7510   -0.7812 H   0  0  0  0  0  0  0  0  0  0  0  0
    2.0457    1.8541   -0.0112 H   0  0  0  0  0  0  0  0  0  0  0  0
    1.9210    1.5549   -1.7660 H   0  0  0  0  0  0  0  0  0  0  0  0
    2.5041   -0.6697   -1.5561 H   0  0  0  0  0  0  0  0  0  0  0  0
    3.9164   -1.0417    0.6174 H   0  0  0  0  0  0  0  0  0  0  0  0
    4.2056    0.5162   -0.3364 H   0  0  0  0  0  0  0  0  0  0  0  0
    3.2530    0.5669    1.1597 H   0  0  0  0  0  0  0  0  0  0  0  0
    0.9722   -2.0185   -0.3293 H   0  0  0  0  0  0  0  0  0  0  0  0
    1.4204   -1.1972    1.2115 H   0  0  0  0  0  0  0  0  0  0  0  0
  1  2  1  0
  2  3  1  0
  3  4  1  0
  4  5  2  0
  5  6  1  0
  6  7  1  0
  7  8  1  0
  7  9  1  0
  9  4  1  0
  1 10  1  0
  1 11  1  0
  1 12  1  0
  2 13  1  0
  2 14  1  0
  3 15  1  0
  3 16  1  0
  5 17  1  0
  6 18  1  0
  6 19  1  0
  7 20  1  0
  8 21  1  0
  8 22  1  0
  8 23  1  0
  9 24  1  0
  9 25  1  0
M  END
