
     RDKit          3D

 23 22  0  0  0  0  0  0  0  0999 V2000
   -2.9662   -0.2176   -1.1515 C   0  0  0  0  0  0  0  0  0  0  0  0
   -2.7052    0.7255   -0.0086 C   0  0  0  0  0  0  0  0  0  0  0  0
   -1.5789    0.1565    0.8404 C   0  0  0  0  0  0  0  0  0  0  0  0
   -0.3076   -0.0021    0.0244 C   0  0  0  0  0  0  0  0  0  0  0  0
    0.7296   -0.5644    0.9464 C   0  0  0  0  0  0  0  0  0  0  0  0
    1.9743   -0.7910    0.4091 O   0  0  0  0  0  0  0  0  0  0  0  0
    2.8077    0.1394   -0.1583 C   0  0  0  0  0  0  0  0  0  0  0  0
    4.1427   -0.1485   -0.7260 C   0  0  0  0  0  0  0  0  0  0  0  0
    2.3683    1.3097   -0.1777 O   0  0  0  0  0  0  0  0  0  0  0  0
   -2.5240   -1.2159   -0.9692 H   0  0  0  0  0  0  0  0  0  0  0  0
   -2.5852    0.1825   -2.1151 H   0  0  0  0  0  0  0  0  0  0  0  0
   -4.0662   -0.3945   -1.2930 H   0  0  0  0  0  0  0  0  0  0  0  0
   -2.4600    1.7339   -0.3540 H   0  0  0  0  0  0  0  0  0  0  0  0
   -3.6070    0.7380    0.6407 H   0  0  0  0  0  0  0  0  0  0  0  0
   -1.8347   -0.7877    1.3068 H   0  0  0  0  0  0  0  0  0  0  0  0
   -1.3231    0.8733    1.6605 H   0  0  0  0  0  0  0  0  0  0  0  0
   -0.0779    1.0070   -0.3455 H   0  0  0  0  0  0  0  0  0  0  0  0
   -0.5468   -0.6840   -0.8230 H   0  0  0  0  0  0  0  0  0  0  0  0
    0.7337    0.0944    1.8630 H   0  0  0  0  0  0  0  0  0  0  0  0
    0.3333   -1.5439    1.3195 H   0  0  0  0  0  0  0  0  0  0  0  0
    4.8516    0.5785   -0.2381 H   0  0  0  0  0  0  0  0  0  0  0  0
    4.4534   -1.1813   -0.5188 H   0  0  0  0  0  0  0  0  0  0  0  0
    4.1881   -0.0079   -1.8204 H   0  0  0  0  0  0  0  0  0  0  0  0
  1  2  1  0
  2  3  1  0
  3  4  1  0
  4  5  1  0
  5  6  1  0
  6  7  1  0
  7  8  1  0
  7  9  2  0
  1 10  1  0
  1 11  1  0
  1 12  1  0
  2 13  1  0
  2 14  1  0
  3 15  1  0
  3 16  1  0
  4 17  1  0
  4 18  1  0
  5 19  1  0
  5 20  1  0
  8 21  1  0
  8 22  1  0
  8 23  1  0
M  END
