
     RDKit          3D

 19 18  0  0  0  0  0  0  0  0999 V2000
   -3.4175    1.1028    0.3074 C   0  0  0  0  0  0  0  0  0  0  0  0
   -2.1467    0.3412    0.6882 C   0  0  0  0  0  0  0  0  0  0  0  0
   -1.1746    0.5548   -0.4579 C   0  0  0  0  0  0  0  0  0  0  0  0
    0.0713   -0.1470   -0.1772 C   0  0  0  0  0  0  0  0  0  0  0  0
    1.1282   -0.7267    0.0663 C   0  0  0  0  0  0  0  0  0  0  0  0
    2.3634   -1.3966    0.3748 C   0  0  0  0  0  0  0  0  0  0  0  0
    2.4161   -2.2860    1.2595 O   0  0  0  0  0  0  0  0  0  0  0  0
    3.6371   -1.0769   -0.3303 C   0  0  0  0  0  0  0  0  0  0  0  0
    3.3611   -0.0903   -1.2790 O   0  0  0  0  0  0  0  0  0  0  0  0
   -3.2194    2.1929    0.2324 H   0  0  0  0  0  0  0  0  0  0  0  0
   -3.6887    0.7166   -0.7160 H   0  0  0  0  0  0  0  0  0  0  0  0
   -4.2222    0.9365    1.0292 H   0  0  0  0  0  0  0  0  0  0  0  0
   -2.4311   -0.7151    0.8058 H   0  0  0  0  0  0  0  0  0  0  0  0
   -1.7586    0.7256    1.6527 H   0  0  0  0  0  0  0  0  0  0  0  0
   -0.9125    1.6217   -0.5799 H   0  0  0  0  0  0  0  0  0  0  0  0
   -1.6789    0.1848   -1.3726 H   0  0  0  0  0  0  0  0  0  0  0  0
    4.4384   -0.7382    0.3786 H   0  0  0  0  0  0  0  0  0  0  0  0
    4.0437   -1.9785   -0.8709 H   0  0  0  0  0  0  0  0  0  0  0  0
    3.1909    0.7785   -0.8015 H   0  0  0  0  0  0  0  0  0  0  0  0
  1  2  1  0
  2  3  1  0
  3  4  1  0
  4  5  3  0
  5  6  1  0
  6  7  2  0
  6  8  1  0
  8  9  1  0
  1 10  1  0
  1 11  1  0
  1 12  1  0
  2 13  1  0
  2 14  1  0
  3 15  1  0
  3 16  1  0
  8 17  1  0
  8 18  1  0
  9 19  1  0
M  END
