
     RDKit          3D

 20 19  0  0  0  0  0  0  0  0999 V2000
    2.6297    0.7436   -0.3871 C   0  0  0  0  0  0  0  0  0  0  0  0
    1.6602    0.0298    0.5353 C   0  0  0  0  0  0  0  0  0  0  0  0
    0.3409   -0.0342   -0.2165 C   0  0  0  0  0  0  0  0  0  0  0  0
   -0.7302   -0.7257    0.5880 C   0  0  0  0  0  0  0  0  0  0  0  0
   -0.4169   -2.0200    0.9175 O   0  0  0  0  0  0  0  0  0  0  0  0
   -1.9962   -0.6127   -0.1730 C   0  0  0  0  0  0  0  0  0  0  0  0
   -2.5370    0.6830   -0.6370 C   0  0  0  0  0  0  0  0  0  0  0  0
   -2.6129   -1.6236   -0.4250 O   0  0  0  0  0  0  0  0  0  0  0  0
    3.6559    0.3290   -0.2935 H   0  0  0  0  0  0  0  0  0  0  0  0
    2.6081    1.8413   -0.1454 H   0  0  0  0  0  0  0  0  0  0  0  0
    2.3299    0.5897   -1.4547 H   0  0  0  0  0  0  0  0  0  0  0  0
    2.0227   -1.0064    0.7046 H   0  0  0  0  0  0  0  0  0  0  0  0
    1.5981    0.6113    1.4589 H   0  0  0  0  0  0  0  0  0  0  0  0
    0.5531   -0.5547   -1.1736 H   0  0  0  0  0  0  0  0  0  0  0  0
    0.0455    1.0103   -0.4261 H   0  0  0  0  0  0  0  0  0  0  0  0
   -0.8647   -0.1363    1.5239 H   0  0  0  0  0  0  0  0  0  0  0  0
   -0.3665   -2.1602    1.8956 H   0  0  0  0  0  0  0  0  0  0  0  0
   -1.9556    0.9954   -1.5508 H   0  0  0  0  0  0  0  0  0  0  0  0
   -3.6013    0.5909   -0.9017 H   0  0  0  0  0  0  0  0  0  0  0  0
   -2.3627    1.4496    0.1604 H   0  0  0  0  0  0  0  0  0  0  0  0
  1  2  1  0
  2  3  1  0
  3  4  1  0
  4  5  1  0
  4  6  1  0
  6  7  1  0
  6  8  2  0
  1  9  1  0
  1 10  1  0
  1 11  1  0
  2 12  1  0
  2 13  1  0
  3 14  1  0
  3 15  1  0
  4 16  1  0
  5 17  1  0
  7 18  1  0
  7 19  1  0
  7 20  1  0
M  END
