
     RDKit          3D

 22 22  0  0  0  0  0  0  0  0999 V2000
   -3.2926    0.3278    0.1301 C   0  0  0  0  0  0  0  0  0  0  0  0
   -2.0071   -0.4908    0.1819 C   0  0  0  0  0  0  0  0  0  0  0  0
   -0.8153    0.4664    0.0381 C   0  0  0  0  0  0  0  0  0  0  0  0
    0.4230   -0.3766    0.0940 C   0  0  0  0  0  0  0  0  0  0  0  0
    0.5243   -1.3491   -0.9013 O   0  0  0  0  0  0  0  0  0  0  0  0
    1.9234   -1.2553   -0.7019 C   0  0  0  0  0  0  0  0  0  0  0  0
    1.6660    0.2433   -0.5059 C   0  0  0  0  0  0  0  0  0  0  0  0
    2.5727    0.9054    0.4818 C   0  0  0  0  0  0  0  0  0  0  0  0
   -4.0851   -0.3350   -0.2881 H   0  0  0  0  0  0  0  0  0  0  0  0
   -3.1039    1.1274   -0.6213 H   0  0  0  0  0  0  0  0  0  0  0  0
   -3.5456    0.7466    1.1136 H   0  0  0  0  0  0  0  0  0  0  0  0
   -1.9079   -1.0338    1.1369 H   0  0  0  0  0  0  0  0  0  0  0  0
   -1.9736   -1.2095   -0.6580 H   0  0  0  0  0  0  0  0  0  0  0  0
   -0.7843    1.1601    0.9022 H   0  0  0  0  0  0  0  0  0  0  0  0
   -0.8756    1.0182   -0.9013 H   0  0  0  0  0  0  0  0  0  0  0  0
    0.6687   -0.7877    1.0767 H   0  0  0  0  0  0  0  0  0  0  0  0
    2.5293   -1.5016   -1.5726 H   0  0  0  0  0  0  0  0  0  0  0  0
    2.1596   -1.7903    0.2479 H   0  0  0  0  0  0  0  0  0  0  0  0
    1.5480    0.7166   -1.4789 H   0  0  0  0  0  0  0  0  0  0  0  0
    2.7163    1.9849    0.1885 H   0  0  0  0  0  0  0  0  0  0  0  0
    2.0838    0.9619    1.4902 H   0  0  0  0  0  0  0  0  0  0  0  0
    3.5758    0.4711    0.5474 H   0  0  0  0  0  0  0  0  0  0  0  0
  1  2  1  0
  2  3  1  0
  3  4  1  0
  4  5  1  0
  5  6  1  0
  6  7  1  0
  7  8  1  0
  7  4  1  0
  1  9  1  0
  1 10  1  0
  1 11  1  0
  2 12  1  0
  2 13  1  0
  3 14  1  0
  3 15  1  0
  4 16  1  0
  6 17  1  0
  6 18  1  0
  7 19  1  0
  8 20  1  0
  8 21  1  0
  8 22  1  0
M  END
