
     RDKit          3D

 21 21  0  0  0  0  0  0  0  0999 V2000
    2.9223    0.3339   -0.4538 C   0  0  0  0  0  0  0  0  0  0  0  0
    1.6233    0.5092    0.3151 C   0  0  0  0  0  0  0  0  0  0  0  0
    0.6577   -0.5907   -0.1043 C   0  0  0  0  0  0  0  0  0  0  0  0
   -0.6240   -0.4177    0.6545 C   0  0  0  0  0  0  0  0  0  0  0  0
   -1.3293    0.9056    0.4285 C   0  0  0  0  0  0  0  0  0  0  0  0
   -2.6204    0.1028    0.6438 C   0  0  0  0  0  0  0  0  0  0  0  0
   -1.8479   -1.0461   -0.0186 C   0  0  0  0  0  0  0  0  0  0  0  0
    2.7089    0.4179   -1.5312 H   0  0  0  0  0  0  0  0  0  0  0  0
    3.6613    1.0688   -0.0892 H   0  0  0  0  0  0  0  0  0  0  0  0
    3.3221   -0.6826   -0.2358 H   0  0  0  0  0  0  0  0  0  0  0  0
    1.8217    0.4748    1.3854 H   0  0  0  0  0  0  0  0  0  0  0  0
    1.1395    1.4658    0.0426 H   0  0  0  0  0  0  0  0  0  0  0  0
    0.5455   -0.6486   -1.1847 H   0  0  0  0  0  0  0  0  0  0  0  0
    1.1175   -1.5432    0.2436 H   0  0  0  0  0  0  0  0  0  0  0  0
   -0.5465   -0.6829    1.7139 H   0  0  0  0  0  0  0  0  0  0  0  0
   -1.3000    1.2234   -0.6283 H   0  0  0  0  0  0  0  0  0  0  0  0
   -1.1395    1.6739    1.1856 H   0  0  0  0  0  0  0  0  0  0  0  0
   -2.7462   -0.1168    1.7202 H   0  0  0  0  0  0  0  0  0  0  0  0
   -3.4811    0.4553    0.0890 H   0  0  0  0  0  0  0  0  0  0  0  0
   -2.1084   -2.0388    0.3222 H   0  0  0  0  0  0  0  0  0  0  0  0
   -1.7767   -0.8639   -1.1005 H   0  0  0  0  0  0  0  0  0  0  0  0
  1  2  1  0
  2  3  1  0
  3  4  1  0
  4  5  1  0
  5  6  1  0
  6  7  1  0
  7  4  1  0
  1  8  1  0
  1  9  1  0
  1 10  1  0
  2 11  1  0
  2 12  1  0
  3 13  1  0
  3 14  1  0
  4 15  1  0
  5 16  1  0
  5 17  1  0
  6 18  1  0
  6 19  1  0
  7 20  1  0
  7 21  1  0
M  END
