
     RDKit          3D

 21 21  0  0  0  0  0  0  0  0999 V2000
    3.0914   -0.4782   -0.3504 C   0  0  0  0  0  0  0  0  0  0  0  0
    1.8128    0.3007   -0.4995 C   0  0  0  0  0  0  0  0  0  0  0  0
    0.7510   -0.1947    0.4739 C   0  0  0  0  0  0  0  0  0  0  0  0
   -0.5121    0.5844    0.3173 C   0  0  0  0  0  0  0  0  0  0  0  0
   -1.5715    0.0937    1.2849 C   0  0  0  0  0  0  0  0  0  0  0  0
   -2.5567    0.2392    0.1294 C   0  0  0  0  0  0  0  0  0  0  0  0
   -3.4330   -0.8192   -0.0125 O   0  0  0  0  0  0  0  0  0  0  0  0
   -1.3922    0.2267   -0.7938 C   0  0  0  0  0  0  0  0  0  0  0  0
   -1.2884    0.0009   -1.9828 O   0  0  0  0  0  0  0  0  0  0  0  0
    3.9315    0.2599   -0.5075 H   0  0  0  0  0  0  0  0  0  0  0  0
    3.1886   -1.2374   -1.1679 H   0  0  0  0  0  0  0  0  0  0  0  0
    3.2304   -0.8982    0.6523 H   0  0  0  0  0  0  0  0  0  0  0  0
    1.4595    0.2269   -1.5342 H   0  0  0  0  0  0  0  0  0  0  0  0
    1.9499    1.3959   -0.2861 H   0  0  0  0  0  0  0  0  0  0  0  0
    1.1128   -0.0485    1.5128 H   0  0  0  0  0  0  0  0  0  0  0  0
    0.6404   -1.2721    0.3217 H   0  0  0  0  0  0  0  0  0  0  0  0
   -0.3544    1.6615    0.4153 H   0  0  0  0  0  0  0  0  0  0  0  0
   -1.4538   -0.9584    1.5917 H   0  0  0  0  0  0  0  0  0  0  0  0
   -1.7581    0.7881    2.1096 H   0  0  0  0  0  0  0  0  0  0  0  0
   -3.0792    1.2275    0.1725 H   0  0  0  0  0  0  0  0  0  0  0  0
   -3.7686   -1.0986    0.8792 H   0  0  0  0  0  0  0  0  0  0  0  0
  1  2  1  0
  2  3  1  0
  3  4  1  0
  4  5  1  0
  5  6  1  0
  6  7  1  0
  6  8  1  0
  8  9  2  0
  8  4  1  0
  1 10  1  0
  1 11  1  0
  1 12  1  0
  2 13  1  0
  2 14  1  0
  3 15  1  0
  3 16  1  0
  4 17  1  0
  5 18  1  0
  5 19  1  0
  6 20  1  0
  7 21  1  0
M  END
