
     RDKit          3D

 25 25  0  0  0  0  0  0  0  0999 V2000
    3.2602   -0.7722   -0.0597 C   0  0  0  0  0  0  0  0  0  0  0  0
    2.0177   -0.1693   -0.7086 C   0  0  0  0  0  0  0  0  0  0  0  0
    0.9965    0.1348    0.3858 C   0  0  0  0  0  0  0  0  0  0  0  0
   -0.2051    0.7221   -0.2752 C   0  0  0  0  0  0  0  0  0  0  0  0
   -1.3555    1.1084    0.5940 C   0  0  0  0  0  0  0  0  0  0  0  0
   -2.2363    0.7713   -0.6199 C   0  0  0  0  0  0  0  0  0  0  0  0
   -2.2356    1.8388   -1.4958 O   0  0  0  0  0  0  0  0  0  0  0  0
   -1.1452   -0.2658   -0.9345 C   0  0  0  0  0  0  0  0  0  0  0  0
   -1.4291   -1.5195   -0.1762 C   0  0  0  0  0  0  0  0  0  0  0  0
    3.4892   -0.1622    0.8315 H   0  0  0  0  0  0  0  0  0  0  0  0
    3.0315   -1.8210    0.1753 H   0  0  0  0  0  0  0  0  0  0  0  0
    4.1192   -0.6474   -0.7572 H   0  0  0  0  0  0  0  0  0  0  0  0
    2.2500    0.7205   -1.3086 H   0  0  0  0  0  0  0  0  0  0  0  0
    1.6214   -0.9573   -1.3819 H   0  0  0  0  0  0  0  0  0  0  0  0
    0.7488   -0.8485    0.8364 H   0  0  0  0  0  0  0  0  0  0  0  0
    1.4312    0.7633    1.1749 H   0  0  0  0  0  0  0  0  0  0  0  0
    0.0133    1.5389   -1.0016 H   0  0  0  0  0  0  0  0  0  0  0  0
   -1.6291    0.4464    1.4158 H   0  0  0  0  0  0  0  0  0  0  0  0
   -1.4577    2.1869    0.8196 H   0  0  0  0  0  0  0  0  0  0  0  0
   -3.2036    0.3288   -0.3638 H   0  0  0  0  0  0  0  0  0  0  0  0
   -2.6566    2.6274   -1.0651 H   0  0  0  0  0  0  0  0  0  0  0  0
   -0.9135   -0.3693   -2.0016 H   0  0  0  0  0  0  0  0  0  0  0  0
   -1.1899   -1.4732    0.8881 H   0  0  0  0  0  0  0  0  0  0  0  0
   -0.8090   -2.3516   -0.6180 H   0  0  0  0  0  0  0  0  0  0  0  0
   -2.5129   -1.8302   -0.2438 H   0  0  0  0  0  0  0  0  0  0  0  0
  1  2  1  0
  2  3  1  0
  3  4  1  0
  4  5  1  0
  5  6  1  0
  6  7  1  0
  6  8  1  0
  8  9  1  0
  8  4  1  0
  1 10  1  0
  1 11  1  0
  1 12  1  0
  2 13  1  0
  2 14  1  0
  3 15  1  0
  3 16  1  0
  4 17  1  0
  5 18  1  0
  5 19  1  0
  6 20  1  0
  7 21  1  0
  8 22  1  0
  9 23  1  0
  9 24  1  0
  9 25  1  0
M  END
