
     RDKit          3D

 23 22  0  0  0  0  0  0  0  0999 V2000
    3.1846   -0.0121   -0.7424 C   0  0  0  0  0  0  0  0  0  0  0  0
    2.0483    0.5403    0.1131 C   0  0  0  0  0  0  0  0  0  0  0  0
    0.7383   -0.0723   -0.3336 C   0  0  0  0  0  0  0  0  0  0  0  0
   -0.3813    0.4571    0.4922 C   0  0  0  0  0  0  0  0  0  0  0  0
   -1.7341   -0.0882    0.1286 C   0  0  0  0  0  0  0  0  0  0  0  0
   -2.1063    0.2233   -1.3020 C   0  0  0  0  0  0  0  0  0  0  0  0
   -2.6602    0.6194    0.9326 O   0  0  0  0  0  0  0  0  0  0  0  0
   -1.8795   -1.5381    0.3312 C   0  0  0  0  0  0  0  0  0  0  0  0
   -1.1857   -2.3183   -0.2668 O   0  0  0  0  0  0  0  0  0  0  0  0
    2.8419   -0.0938   -1.8104 H   0  0  0  0  0  0  0  0  0  0  0  0
    4.0310    0.7054   -0.7557 H   0  0  0  0  0  0  0  0  0  0  0  0
    3.4914   -1.0061   -0.3775 H   0  0  0  0  0  0  0  0  0  0  0  0
    2.0626    1.6458   -0.0455 H   0  0  0  0  0  0  0  0  0  0  0  0
    2.2579    0.3725    1.1721 H   0  0  0  0  0  0  0  0  0  0  0  0
    0.8386   -1.1644   -0.2843 H   0  0  0  0  0  0  0  0  0  0  0  0
    0.6195    0.2165   -1.4125 H   0  0  0  0  0  0  0  0  0  0  0  0
   -0.4278    1.5590    0.3415 H   0  0  0  0  0  0  0  0  0  0  0  0
   -0.1515    0.2662    1.5599 H   0  0  0  0  0  0  0  0  0  0  0  0
   -3.2228    0.2292   -1.4034 H   0  0  0  0  0  0  0  0  0  0  0  0
   -1.7715    1.2349   -1.6094 H   0  0  0  0  0  0  0  0  0  0  0  0
   -1.7578   -0.5732   -2.0042 H   0  0  0  0  0  0  0  0  0  0  0  0
   -2.2232    0.7014    1.8204 H   0  0  0  0  0  0  0  0  0  0  0  0
   -2.6124   -1.9044    1.0198 H   0  0  0  0  0  0  0  0  0  0  0  0
  1  2  1  0
  2  3  1  0
  3  4  1  0
  4  5  1  0
  5  6  1  0
  5  7  1  0
  5  8  1  0
  8  9  2  0
  1 10  1  0
  1 11  1  0
  1 12  1  0
  2 13  1  0
  2 14  1  0
  3 15  1  0
  3 16  1  0
  4 17  1  0
  4 18  1  0
  6 19  1  0
  6 20  1  0
  6 21  1  0
  7 22  1  0
  8 23  1  0
M  END
