
     RDKit          3D

 21 20  0  0  0  0  0  0  0  0999 V2000
    3.5950   -0.7435   -1.0938 C   0  0  0  0  0  0  0  0  0  0  0  0
    2.4037   -0.4541   -0.2054 C   0  0  0  0  0  0  0  0  0  0  0  0
    1.2209   -0.0660   -1.0843 C   0  0  0  0  0  0  0  0  0  0  0  0
    0.0798    0.2097   -0.2063 C   0  0  0  0  0  0  0  0  0  0  0  0
   -0.8707    0.4261    0.5028 C   0  0  0  0  0  0  0  0  0  0  0  0
   -2.0222    0.7036    1.3906 C   0  0  0  0  0  0  0  0  0  0  0  0
   -2.5508    1.9546    1.0413 O   0  0  0  0  0  0  0  0  0  0  0  0
   -3.0784   -0.3254    1.0313 C   0  0  0  0  0  0  0  0  0  0  0  0
   -3.3680   -0.2883   -0.3259 O   0  0  0  0  0  0  0  0  0  0  0  0
    4.3725    0.0283   -1.0009 H   0  0  0  0  0  0  0  0  0  0  0  0
    4.0126   -1.7165   -0.7619 H   0  0  0  0  0  0  0  0  0  0  0  0
    3.2535   -0.8851   -2.1414 H   0  0  0  0  0  0  0  0  0  0  0  0
    2.6914    0.3929    0.4511 H   0  0  0  0  0  0  0  0  0  0  0  0
    2.1523   -1.3013    0.4520 H   0  0  0  0  0  0  0  0  0  0  0  0
    0.9799   -0.8680   -1.7895 H   0  0  0  0  0  0  0  0  0  0  0  0
    1.5155    0.8284   -1.6732 H   0  0  0  0  0  0  0  0  0  0  0  0
   -1.7417    0.6348    2.4429 H   0  0  0  0  0  0  0  0  0  0  0  0
   -1.7534    2.5698    0.9550 H   0  0  0  0  0  0  0  0  0  0  0  0
   -4.0067   -0.0986    1.5950 H   0  0  0  0  0  0  0  0  0  0  0  0
   -2.7701   -1.3510    1.3627 H   0  0  0  0  0  0  0  0  0  0  0  0
   -4.1150    0.3494   -0.4504 H   0  0  0  0  0  0  0  0  0  0  0  0
  1  2  1  0
  2  3  1  0
  3  4  1  0
  4  5  3  0
  5  6  1  0
  6  7  1  0
  6  8  1  0
  8  9  1  0
  1 10  1  0
  1 11  1  0
  1 12  1  0
  2 13  1  0
  2 14  1  0
  3 15  1  0
  3 16  1  0
  6 17  1  0
  7 18  1  0
  8 19  1  0
  8 20  1  0
  9 21  1  0
M  END
