
     RDKit          3D

 19 19  0  0  0  0  0  0  0  0999 V2000
   -2.7126    0.0260    0.2840 C   0  0  0  0  0  0  0  0  0  0  0  0
   -1.3913   -0.2168   -0.3799 C   0  0  0  0  0  0  0  0  0  0  0  0
   -0.2815   -0.0889    0.6378 C   0  0  0  0  0  0  0  0  0  0  0  0
    1.0695   -0.3335   -0.0239 C   0  0  0  0  0  0  0  0  0  0  0  0
    1.1872   -1.5901   -0.5954 O   0  0  0  0  0  0  0  0  0  0  0  0
    2.2250    0.3598    0.5903 C   0  0  0  0  0  0  0  0  0  0  0  0
    1.7515    0.7655   -0.7440 C   0  0  0  0  0  0  0  0  0  0  0  0
   -2.8970    1.1173    0.3874 H   0  0  0  0  0  0  0  0  0  0  0  0
   -3.5150   -0.4119   -0.3443 H   0  0  0  0  0  0  0  0  0  0  0  0
   -2.7087   -0.4163    1.2890 H   0  0  0  0  0  0  0  0  0  0  0  0
   -1.3871   -1.2446   -0.7965 H   0  0  0  0  0  0  0  0  0  0  0  0
   -1.2452    0.5230   -1.1748 H   0  0  0  0  0  0  0  0  0  0  0  0
   -0.3783   -0.8298    1.4541 H   0  0  0  0  0  0  0  0  0  0  0  0
   -0.3266    0.9100    1.1221 H   0  0  0  0  0  0  0  0  0  0  0  0
    1.9118   -1.6580   -1.2497 H   0  0  0  0  0  0  0  0  0  0  0  0
    2.0275    1.0666    1.4129 H   0  0  0  0  0  0  0  0  0  0  0  0
    3.1803   -0.1969    0.6624 H   0  0  0  0  0  0  0  0  0  0  0  0
    2.3626    0.5358   -1.6421 H   0  0  0  0  0  0  0  0  0  0  0  0
    1.1279    1.6828   -0.8894 H   0  0  0  0  0  0  0  0  0  0  0  0
  1  2  1  0
  2  3  1  0
  3  4  1  0
  4  5  1  0
  4  6  1  0
  6  7  1  0
  7  4  1  0
  1  8  1  0
  1  9  1  0
  1 10  1  0
  2 11  1  0
  2 12  1  0
  3 13  1  0
  3 14  1  0
  5 15  1  0
  6 16  1  0
  6 17  1  0
  7 18  1  0
  7 19  1  0
M  END
