
     RDKit          3D

 25 25  0  0  0  0  0  0  0  0999 V2000
   -4.0219    0.4067   -0.2856 C   0  0  0  0  0  0  0  0  0  0  0  0
   -2.7586   -0.4285   -0.1439 C   0  0  0  0  0  0  0  0  0  0  0  0
   -1.5849    0.5270   -0.1026 C   0  0  0  0  0  0  0  0  0  0  0  0
   -0.2809   -0.2404    0.0387 C   0  0  0  0  0  0  0  0  0  0  0  0
    0.7409    0.6677    0.0706 O   0  0  0  0  0  0  0  0  0  0  0  0
    2.0000    0.1285    0.1965 C   0  0  0  0  0  0  0  0  0  0  0  0
    2.3383   -0.7100    1.4103 C   0  0  0  0  0  0  0  0  0  0  0  0
    3.1067    0.9759   -0.3739 C   0  0  0  0  0  0  0  0  0  0  0  0
    2.7390   -0.2886   -1.0705 C   0  0  0  0  0  0  0  0  0  0  0  0
   -4.0239    1.2148    0.4914 H   0  0  0  0  0  0  0  0  0  0  0  0
   -4.0189    0.8824   -1.2768 H   0  0  0  0  0  0  0  0  0  0  0  0
   -4.9235   -0.2006   -0.0815 H   0  0  0  0  0  0  0  0  0  0  0  0
   -2.7639   -1.0484    0.7602 H   0  0  0  0  0  0  0  0  0  0  0  0
   -2.6517   -1.0529   -1.0587 H   0  0  0  0  0  0  0  0  0  0  0  0
   -1.6502    1.2096    0.7696 H   0  0  0  0  0  0  0  0  0  0  0  0
   -1.5358    1.1269   -1.0126 H   0  0  0  0  0  0  0  0  0  0  0  0
   -0.2187   -0.9348   -0.8167 H   0  0  0  0  0  0  0  0  0  0  0  0
   -0.3713   -0.8531    0.9587 H   0  0  0  0  0  0  0  0  0  0  0  0
    3.4254   -0.6041    1.6306 H   0  0  0  0  0  0  0  0  0  0  0  0
    1.7010   -0.4899    2.2708 H   0  0  0  0  0  0  0  0  0  0  0  0
    2.1940   -1.7715    1.1115 H   0  0  0  0  0  0  0  0  0  0  0  0
    2.8381    1.9065   -0.9307 H   0  0  0  0  0  0  0  0  0  0  0  0
    4.0614    1.0092    0.1724 H   0  0  0  0  0  0  0  0  0  0  0  0
    3.4801   -1.1308   -0.9870 H   0  0  0  0  0  0  0  0  0  0  0  0
    2.1794   -0.3015   -2.0120 H   0  0  0  0  0  0  0  0  0  0  0  0
  1  2  1  0
  2  3  1  0
  3  4  1  0
  4  5  1  0
  5  6  1  0
  6  7  1  0
  6  8  1  0
  8  9  1  0
  9  6  1  0
  1 10  1  0
  1 11  1  0
  1 12  1  0
  2 13  1  0
  2 14  1  0
  3 15  1  0
  3 16  1  0
  4 17  1  0
  4 18  1  0
  7 19  1  0
  7 20  1  0
  7 21  1  0
  8 22  1  0
  8 23  1  0
  9 24  1  0
  9 25  1  0
M  END
