
     RDKit          3D

 21 22  0  0  0  0  0  0  0  0999 V2000
    2.9401    0.3745    0.2744 C   0  0  0  0  0  0  0  0  0  0  0  0
    1.5386   -0.2287    0.3923 C   0  0  0  0  0  0  0  0  0  0  0  0
    0.5706    0.4808   -0.5238 C   0  0  0  0  0  0  0  0  0  0  0  0
   -0.7726   -0.1314   -0.3878 C   0  0  0  0  0  0  0  0  0  0  0  0
   -1.9396    0.3949   -1.1988 C   0  0  0  0  0  0  0  0  0  0  0  0
   -2.8432    0.2167   -0.0302 C   0  0  0  0  0  0  0  0  0  0  0  0
   -4.0203    0.2420    0.2648 O   0  0  0  0  0  0  0  0  0  0  0  0
   -1.6280   -0.0444    0.7862 C   0  0  0  0  0  0  0  0  0  0  0  0
   -0.9347   -1.3114    0.4561 C   0  0  0  0  0  0  0  0  0  0  0  0
    2.8257    1.3216   -0.2717 H   0  0  0  0  0  0  0  0  0  0  0  0
    3.6155   -0.2770   -0.3009 H   0  0  0  0  0  0  0  0  0  0  0  0
    3.3446    0.5279    1.3062 H   0  0  0  0  0  0  0  0  0  0  0  0
    1.1946   -0.1548    1.4660 H   0  0  0  0  0  0  0  0  0  0  0  0
    1.6382   -1.3094    0.1756 H   0  0  0  0  0  0  0  0  0  0  0  0
    0.5897    1.5657   -0.2084 H   0  0  0  0  0  0  0  0  0  0  0  0
    0.9727    0.3654   -1.5558 H   0  0  0  0  0  0  0  0  0  0  0  0
   -1.8766    1.4894   -1.4339 H   0  0  0  0  0  0  0  0  0  0  0  0
   -2.1213   -0.2627   -2.0536 H   0  0  0  0  0  0  0  0  0  0  0  0
   -1.4215    0.5294    1.6881 H   0  0  0  0  0  0  0  0  0  0  0  0
   -1.5145   -2.1594    0.0143 H   0  0  0  0  0  0  0  0  0  0  0  0
   -0.1578   -1.6290    1.1411 H   0  0  0  0  0  0  0  0  0  0  0  0
  1  2  1  0
  2  3  1  0
  3  4  1  0
  4  5  1  0
  5  6  1  0
  6  7  2  0
  6  8  1  0
  8  9  1  0
  8  4  1  0
  9  4  1  0
  1 10  1  0
  1 11  1  0
  1 12  1  0
  2 13  1  0
  2 14  1  0
  3 15  1  0
  3 16  1  0
  5 17  1  0
  5 18  1  0
  8 19  1  0
  9 20  1  0
  9 21  1  0
M  END
