
     RDKit          3D

 25 25  0  0  0  0  0  0  0  0999 V2000
   -3.5015    0.8457    0.8105 C   0  0  0  0  0  0  0  0  0  0  0  0
   -2.7418   -0.4411    0.8669 C   0  0  0  0  0  0  0  0  0  0  0  0
   -1.2379   -0.2292    0.8276 C   0  0  0  0  0  0  0  0  0  0  0  0
   -0.8017    0.4649   -0.4134 C   0  0  0  0  0  0  0  0  0  0  0  0
    0.5624    0.6572   -0.4366 O   0  0  0  0  0  0  0  0  0  0  0  0
    1.2534   -0.5169   -0.4302 C   0  0  0  0  0  0  0  0  0  0  0  0
    2.4567   -0.4998   -1.3915 C   0  0  0  0  0  0  0  0  0  0  0  0
    2.6193   -0.6535    0.1041 C   0  0  0  0  0  0  0  0  0  0  0  0
    3.2979    0.4652    0.8520 C   0  0  0  0  0  0  0  0  0  0  0  0
   -3.5182    1.2337   -0.2379 H   0  0  0  0  0  0  0  0  0  0  0  0
   -4.5643    0.6149    1.0551 H   0  0  0  0  0  0  0  0  0  0  0  0
   -3.1588    1.6082    1.5044 H   0  0  0  0  0  0  0  0  0  0  0  0
   -2.9545   -0.9910    1.8060 H   0  0  0  0  0  0  0  0  0  0  0  0
   -3.0468   -1.0871    0.0347 H   0  0  0  0  0  0  0  0  0  0  0  0
   -0.8157   -1.2459    0.8944 H   0  0  0  0  0  0  0  0  0  0  0  0
   -0.9010    0.3096    1.7361 H   0  0  0  0  0  0  0  0  0  0  0  0
   -1.0293   -0.2008   -1.2949 H   0  0  0  0  0  0  0  0  0  0  0  0
   -1.3488    1.4243   -0.5624 H   0  0  0  0  0  0  0  0  0  0  0  0
    0.6340   -1.4356   -0.4304 H   0  0  0  0  0  0  0  0  0  0  0  0
    2.7834    0.4615   -1.8058 H   0  0  0  0  0  0  0  0  0  0  0  0
    2.5227   -1.3888   -2.0352 H   0  0  0  0  0  0  0  0  0  0  0  0
    2.9514   -1.6676    0.3987 H   0  0  0  0  0  0  0  0  0  0  0  0
    2.6093    1.0789    1.4519 H   0  0  0  0  0  0  0  0  0  0  0  0
    4.0973    0.0796    1.5180 H   0  0  0  0  0  0  0  0  0  0  0  0
    3.8324    1.1137    0.0981 H   0  0  0  0  0  0  0  0  0  0  0  0
  1  2  1  0
  2  3  1  0
  3  4  1  0
  4  5  1  0
  5  6  1  0
  6  7  1  0
  7  8  1  0
  8  9  1  0
  8  6  1  0
  1 10  1  0
  1 11  1  0
  1 12  1  0
  2 13  1  0
  2 14  1  0
  3 15  1  0
  3 16  1  0
  4 17  1  0
  4 18  1  0
  6 19  1  0
  7 20  1  0
  7 21  1  0
  8 22  1  0
  9 23  1  0
  9 24  1  0
  9 25  1  0
M  END
