
     RDKit          3D

 27 27  0  0  0  0  0  0  0  0999 V2000
   -3.6135   -0.4121    0.1688 C   0  0  0  0  0  0  0  0  0  0  0  0
   -2.1402   -0.6113   -0.1216 C   0  0  0  0  0  0  0  0  0  0  0  0
   -1.4403    0.6653    0.2807 C   0  0  0  0  0  0  0  0  0  0  0  0
    0.0420    0.6103    0.0431 C   0  0  0  0  0  0  0  0  0  0  0  0
    0.4183    0.3815   -1.3933 C   0  0  0  0  0  0  0  0  0  0  0  0
    1.9217    0.1890   -1.2530 C   0  0  0  0  0  0  0  0  0  0  0  0
    2.0919   -0.5071    0.0699 C   0  0  0  0  0  0  0  0  0  0  0  0
    2.9441    0.3117    1.0209 C   0  0  0  0  0  0  0  0  0  0  0  0
    0.6989   -0.5698    0.7076 C   0  0  0  0  0  0  0  0  0  0  0  0
   -3.8816    0.6732    0.2087 H   0  0  0  0  0  0  0  0  0  0  0  0
   -3.9068   -0.8357    1.1513 H   0  0  0  0  0  0  0  0  0  0  0  0
   -4.2295   -0.9300   -0.6024 H   0  0  0  0  0  0  0  0  0  0  0  0
   -1.9425   -0.8081   -1.1742 H   0  0  0  0  0  0  0  0  0  0  0  0
   -1.7910   -1.4540    0.5255 H   0  0  0  0  0  0  0  0  0  0  0  0
   -1.5743    0.7512    1.3922 H   0  0  0  0  0  0  0  0  0  0  0  0
   -1.9131    1.5404   -0.1567 H   0  0  0  0  0  0  0  0  0  0  0  0
    0.5563    1.5099    0.3848 H   0  0  0  0  0  0  0  0  0  0  0  0
    0.1573    1.2011   -2.0612 H   0  0  0  0  0  0  0  0  0  0  0  0
    0.0147   -0.6017   -1.7076 H   0  0  0  0  0  0  0  0  0  0  0  0
    2.3430    1.2343   -1.1802 H   0  0  0  0  0  0  0  0  0  0  0  0
    2.3543   -0.3526   -2.1013 H   0  0  0  0  0  0  0  0  0  0  0  0
    2.4981   -1.5244   -0.0920 H   0  0  0  0  0  0  0  0  0  0  0  0
    2.7430   -0.0022    2.0691 H   0  0  0  0  0  0  0  0  0  0  0  0
    2.6331    1.3608    0.9020 H   0  0  0  0  0  0  0  0  0  0  0  0
    4.0040    0.1344    0.7542 H   0  0  0  0  0  0  0  0  0  0  0  0
    0.7780   -0.4603    1.7950 H   0  0  0  0  0  0  0  0  0  0  0  0
    0.2342   -1.4938    0.3696 H   0  0  0  0  0  0  0  0  0  0  0  0
  1  2  1  0
  2  3  1  0
  3  4  1  0
  4  5  1  0
  5  6  1  0
  6  7  1  0
  7  8  1  0
  7  9  1  0
  9  4  1  0
  1 10  1  0
  1 11  1  0
  1 12  1  0
  2 13  1  0
  2 14  1  0
  3 15  1  0
  3 16  1  0
  4 17  1  0
  5 18  1  0
  5 19  1  0
  6 20  1  0
  6 21  1  0
  7 22  1  0
  8 23  1  0
  8 24  1  0
  8 25  1  0
  9 26  1  0
  9 27  1  0
M  END
