
     RDKit          3D

 23 24  0  0  0  0  0  0  0  0999 V2000
   -2.6091    0.3164   -0.9932 C   0  0  0  0  0  0  0  0  0  0  0  0
   -2.5078   -0.8225   -0.0061 C   0  0  0  0  0  0  0  0  0  0  0  0
   -1.1228   -1.3312    0.1832 C   0  0  0  0  0  0  0  0  0  0  0  0
   -0.1277   -0.3302    0.7009 C   0  0  0  0  0  0  0  0  0  0  0  0
    0.2135    0.8974   -0.0002 C   0  0  0  0  0  0  0  0  0  0  0  0
    1.1591    1.7030    0.6760 O   0  0  0  0  0  0  0  0  0  0  0  0
    2.1328    0.8604    0.1749 C   0  0  0  0  0  0  0  0  0  0  0  0
    3.3098    0.5993    1.0463 C   0  0  0  0  0  0  0  0  0  0  0  0
    1.2070   -0.3134    0.0894 C   0  0  0  0  0  0  0  0  0  0  0  0
   -3.6684    0.4047   -1.3866 H   0  0  0  0  0  0  0  0  0  0  0  0
   -2.3801    1.2886   -0.5464 H   0  0  0  0  0  0  0  0  0  0  0  0
   -2.0020    0.1289   -1.8949 H   0  0  0  0  0  0  0  0  0  0  0  0
   -3.1060   -1.6664   -0.4610 H   0  0  0  0  0  0  0  0  0  0  0  0
   -3.0191   -0.5891    0.9381 H   0  0  0  0  0  0  0  0  0  0  0  0
   -0.7088   -1.7652   -0.7526 H   0  0  0  0  0  0  0  0  0  0  0  0
   -1.1204   -2.1867    0.9199 H   0  0  0  0  0  0  0  0  0  0  0  0
   -0.2285   -0.2006    1.8292 H   0  0  0  0  0  0  0  0  0  0  0  0
   -0.0537    1.1739   -1.0270 H   0  0  0  0  0  0  0  0  0  0  0  0
    2.4582    1.2508   -0.8334 H   0  0  0  0  0  0  0  0  0  0  0  0
    4.1971    0.3010    0.4216 H   0  0  0  0  0  0  0  0  0  0  0  0
    3.0881   -0.2694    1.7007 H   0  0  0  0  0  0  0  0  0  0  0  0
    3.5662    1.4408    1.7219 H   0  0  0  0  0  0  0  0  0  0  0  0
    1.3225   -0.8904   -0.8686 H   0  0  0  0  0  0  0  0  0  0  0  0
  1  2  1  0
  2  3  1  0
  3  4  1  0
  4  5  1  0
  5  6  1  0
  6  7  1  0
  7  8  1  0
  7  9  1  0
  9  4  1  0
  9  5  1  0
  1 10  1  0
  1 11  1  0
  1 12  1  0
  2 13  1  0
  2 14  1  0
  3 15  1  0
  3 16  1  0
  4 17  1  0
  5 18  1  0
  7 19  1  0
  8 20  1  0
  8 21  1  0
  8 22  1  0
  9 23  1  0
M  END
