
     RDKit          3D

 25 25  0  0  0  0  0  0  0  0999 V2000
   -3.0708    0.2095   -0.2462 C   0  0  0  0  0  0  0  0  0  0  0  0
   -2.3000   -1.0398    0.1220 C   0  0  0  0  0  0  0  0  0  0  0  0
   -1.1538   -0.7243    1.0547 C   0  0  0  0  0  0  0  0  0  0  0  0
   -0.1918    0.2365    0.4140 C   0  0  0  0  0  0  0  0  0  0  0  0
    0.4120   -0.3013   -0.8618 C   0  0  0  0  0  0  0  0  0  0  0  0
    1.5312    0.7362   -1.0406 C   0  0  0  0  0  0  0  0  0  0  0  0
    1.9368    0.9256    0.4088 C   0  0  0  0  0  0  0  0  0  0  0  0
    3.1678    0.0317    0.6166 C   0  0  0  0  0  0  0  0  0  0  0  0
    0.9086    0.4779    1.1924 O   0  0  0  0  0  0  0  0  0  0  0  0
   -2.4107    0.8418   -0.8542 H   0  0  0  0  0  0  0  0  0  0  0  0
   -3.9607   -0.1488   -0.8401 H   0  0  0  0  0  0  0  0  0  0  0  0
   -3.4619    0.7405    0.6660 H   0  0  0  0  0  0  0  0  0  0  0  0
   -2.9727   -1.7551    0.6649 H   0  0  0  0  0  0  0  0  0  0  0  0
   -1.9836   -1.5194   -0.8036 H   0  0  0  0  0  0  0  0  0  0  0  0
   -0.6751   -1.6461    1.4196 H   0  0  0  0  0  0  0  0  0  0  0  0
   -1.5856   -0.2119    1.9396 H   0  0  0  0  0  0  0  0  0  0  0  0
   -0.6908    1.1800    0.1919 H   0  0  0  0  0  0  0  0  0  0  0  0
    0.9091   -1.2627   -0.7363 H   0  0  0  0  0  0  0  0  0  0  0  0
   -0.2438   -0.2171   -1.7239 H   0  0  0  0  0  0  0  0  0  0  0  0
    1.0211    1.6388   -1.4437 H   0  0  0  0  0  0  0  0  0  0  0  0
    2.3330    0.3578   -1.6742 H   0  0  0  0  0  0  0  0  0  0  0  0
    2.2375    1.9664    0.6345 H   0  0  0  0  0  0  0  0  0  0  0  0
    3.8341    0.1648   -0.2504 H   0  0  0  0  0  0  0  0  0  0  0  0
    2.7807   -1.0124    0.6238 H   0  0  0  0  0  0  0  0  0  0  0  0
    3.6294    0.3314    1.5587 H   0  0  0  0  0  0  0  0  0  0  0  0
  1  2  1  0
  2  3  1  0
  3  4  1  0
  4  5  1  0
  5  6  1  0
  6  7  1  0
  7  8  1  0
  7  9  1  0
  9  4  1  0
  1 10  1  0
  1 11  1  0
  1 12  1  0
  2 13  1  0
  2 14  1  0
  3 15  1  0
  3 16  1  0
  4 17  1  0
  5 18  1  0
  5 19  1  0
  6 20  1  0
  6 21  1  0
  7 22  1  0
  8 23  1  0
  8 24  1  0
  8 25  1  0
M  END
