
     RDKit          3D

 23 23  0  0  0  0  0  0  0  0999 V2000
    2.7563   -0.0357    0.0623 C   0  0  0  0  0  0  0  0  0  0  0  0
    1.7127    0.2153    1.1343 C   0  0  0  0  0  0  0  0  0  0  0  0
    0.4874    0.8875    0.5848 C   0  0  0  0  0  0  0  0  0  0  0  0
   -0.2222    0.1353   -0.4714 C   0  0  0  0  0  0  0  0  0  0  0  0
   -0.7631   -1.2029   -0.1899 C   0  0  0  0  0  0  0  0  0  0  0  0
   -0.1918   -1.9795    0.7697 O   0  0  0  0  0  0  0  0  0  0  0  0
   -2.1004   -0.5808    0.1920 C   0  0  0  0  0  0  0  0  0  0  0  0
   -1.6649    0.6398   -0.6045 C   0  0  0  0  0  0  0  0  0  0  0  0
   -1.9174    1.8002    0.1081 O   0  0  0  0  0  0  0  0  0  0  0  0
    3.2582    0.9058   -0.2418 H   0  0  0  0  0  0  0  0  0  0  0  0
    3.5528   -0.6525    0.5522 H   0  0  0  0  0  0  0  0  0  0  0  0
    2.3461   -0.4982   -0.8330 H   0  0  0  0  0  0  0  0  0  0  0  0
    2.1881    0.9606    1.8392 H   0  0  0  0  0  0  0  0  0  0  0  0
    1.5283   -0.6952    1.6942 H   0  0  0  0  0  0  0  0  0  0  0  0
   -0.1498    1.1767    1.4417 H   0  0  0  0  0  0  0  0  0  0  0  0
    0.8397    1.8535    0.1368 H   0  0  0  0  0  0  0  0  0  0  0  0
    0.3282    0.1973   -1.4472 H   0  0  0  0  0  0  0  0  0  0  0  0
   -0.9197   -1.7785   -1.1488 H   0  0  0  0  0  0  0  0  0  0  0  0
   -0.9288   -2.3361    1.3542 H   0  0  0  0  0  0  0  0  0  0  0  0
   -2.9754   -1.0569   -0.2801 H   0  0  0  0  0  0  0  0  0  0  0  0
   -2.2014   -0.4054    1.2828 H   0  0  0  0  0  0  0  0  0  0  0  0
   -2.0441    0.6246   -1.6468 H   0  0  0  0  0  0  0  0  0  0  0  0
   -2.9187    1.8250    0.2411 H   0  0  0  0  0  0  0  0  0  0  0  0
  1  2  1  0
  2  3  1  0
  3  4  1  0
  4  5  1  0
  5  6  1  0
  5  7  1  0
  7  8  1  0
  8  9  1  0
  8  4  1  0
  1 10  1  0
  1 11  1  0
  1 12  1  0
  2 13  1  0
  2 14  1  0
  3 15  1  0
  3 16  1  0
  4 17  1  0
  5 18  1  0
  6 19  1  0
  7 20  1  0
  7 21  1  0
  8 22  1  0
  9 23  1  0
M  END
