
     RDKit          3D

 25 25  0  0  0  0  0  0  0  0999 V2000
    4.1191    0.0576    0.5368 C   0  0  0  0  0  0  0  0  0  0  0  0
    2.8761   -0.2393   -0.2833 C   0  0  0  0  0  0  0  0  0  0  0  0
    1.6302    0.1010    0.5416 C   0  0  0  0  0  0  0  0  0  0  0  0
    0.4335   -0.2288   -0.3617 C   0  0  0  0  0  0  0  0  0  0  0  0
   -0.7212    0.0585    0.3297 O   0  0  0  0  0  0  0  0  0  0  0  0
   -1.8569   -0.2021   -0.3922 C   0  0  0  0  0  0  0  0  0  0  0  0
   -2.7904    1.0130   -0.3323 C   0  0  0  0  0  0  0  0  0  0  0  0
   -3.3023    0.4428    0.9823 C   0  0  0  0  0  0  0  0  0  0  0  0
   -2.8794   -0.9276    0.4583 C   0  0  0  0  0  0  0  0  0  0  0  0
    4.9210    0.4938   -0.1200 H   0  0  0  0  0  0  0  0  0  0  0  0
    3.9000    0.8584    1.2837 H   0  0  0  0  0  0  0  0  0  0  0  0
    4.4860   -0.8310    1.0488 H   0  0  0  0  0  0  0  0  0  0  0  0
    2.8129   -1.3128   -0.5526 H   0  0  0  0  0  0  0  0  0  0  0  0
    2.8344    0.3957   -1.1964 H   0  0  0  0  0  0  0  0  0  0  0  0
    1.6446   -0.5672    1.4114 H   0  0  0  0  0  0  0  0  0  0  0  0
    1.6455    1.1633    0.8140 H   0  0  0  0  0  0  0  0  0  0  0  0
    0.4572   -1.3382   -0.5122 H   0  0  0  0  0  0  0  0  0  0  0  0
    0.5183    0.3015   -1.3254 H   0  0  0  0  0  0  0  0  0  0  0  0
   -1.7124   -0.5986   -1.4090 H   0  0  0  0  0  0  0  0  0  0  0  0
   -3.5637    1.0021   -1.1333 H   0  0  0  0  0  0  0  0  0  0  0  0
   -2.2633    1.9787   -0.2337 H   0  0  0  0  0  0  0  0  0  0  0  0
   -4.3822    0.5582    1.1498 H   0  0  0  0  0  0  0  0  0  0  0  0
   -2.6405    0.7907    1.8009 H   0  0  0  0  0  0  0  0  0  0  0  0
   -2.4456   -1.5951    1.2422 H   0  0  0  0  0  0  0  0  0  0  0  0
   -3.7208   -1.3746   -0.0997 H   0  0  0  0  0  0  0  0  0  0  0  0
  1  2  1  0
  2  3  1  0
  3  4  1  0
  4  5  1  0
  5  6  1  0
  6  7  1  0
  7  8  1  0
  8  9  1  0
  9  6  1  0
  1 10  1  0
  1 11  1  0
  1 12  1  0
  2 13  1  0
  2 14  1  0
  3 15  1  0
  3 16  1  0
  4 17  1  0
  4 18  1  0
  6 19  1  0
  7 20  1  0
  7 21  1  0
  8 22  1  0
  8 23  1  0
  9 24  1  0
  9 25  1  0
M  END
