
     RDKit          3D

 21 22  0  0  0  0  0  0  0  0999 V2000
    2.6101   -0.1439   -0.3603 C   0  0  0  0  0  0  0  0  0  0  0  0
    1.7966   -0.0900    0.9076 C   0  0  0  0  0  0  0  0  0  0  0  0
    0.5732    0.7772    0.7450 C   0  0  0  0  0  0  0  0  0  0  0  0
   -0.3414    0.2389   -0.3715 C   0  0  0  0  0  0  0  0  0  0  0  0
    0.3778    0.2267   -1.5910 O   0  0  0  0  0  0  0  0  0  0  0  0
   -1.3608   -0.7525   -0.1324 C   0  0  0  0  0  0  0  0  0  0  0  0
   -2.8533   -0.5934   -0.4687 C   0  0  0  0  0  0  0  0  0  0  0  0
   -2.7267    0.4640    0.4749 O   0  0  0  0  0  0  0  0  0  0  0  0
   -1.6548    0.7853   -0.3544 C   0  0  0  0  0  0  0  0  0  0  0  0
    2.2923   -0.9784   -1.0093 H   0  0  0  0  0  0  0  0  0  0  0  0
    3.6899   -0.3281   -0.1392 H   0  0  0  0  0  0  0  0  0  0  0  0
    2.5174    0.8419   -0.8841 H   0  0  0  0  0  0  0  0  0  0  0  0
    2.4341    0.4244    1.6672 H   0  0  0  0  0  0  0  0  0  0  0  0
    1.5781   -1.0814    1.3021 H   0  0  0  0  0  0  0  0  0  0  0  0
    0.8561    1.8058    0.4939 H   0  0  0  0  0  0  0  0  0  0  0  0
   -0.0061    0.7622    1.6842 H   0  0  0  0  0  0  0  0  0  0  0  0
    0.1924   -0.5847   -2.1129 H   0  0  0  0  0  0  0  0  0  0  0  0
   -1.3508   -1.0698    0.9595 H   0  0  0  0  0  0  0  0  0  0  0  0
   -3.0810   -0.2990   -1.4862 H   0  0  0  0  0  0  0  0  0  0  0  0
   -3.4576   -1.4347   -0.1282 H   0  0  0  0  0  0  0  0  0  0  0  0
   -2.0855    1.0294   -1.3747 H   0  0  0  0  0  0  0  0  0  0  0  0
  1  2  1  0
  2  3  1  0
  3  4  1  0
  4  5  1  0
  4  6  1  0
  6  7  1  0
  7  8  1  0
  8  9  1  0
  9  4  1  0
  9  6  1  0
  1 10  1  0
  1 11  1  0
  1 12  1  0
  2 13  1  0
  2 14  1  0
  3 15  1  0
  3 16  1  0
  5 17  1  0
  6 18  1  0
  7 19  1  0
  7 20  1  0
  9 21  1  0
M  END
