
     RDKit          3D

 23 23  0  0  0  0  0  0  0  0999 V2000
    2.3959    0.8867   -0.6635 C   0  0  0  0  0  0  0  0  0  0  0  0
    2.1936    0.0033    0.5129 C   0  0  0  0  0  0  0  0  0  0  0  0
    0.9518   -0.8147    0.5234 C   0  0  0  0  0  0  0  0  0  0  0  0
   -0.3346   -0.0850    0.4919 C   0  0  0  0  0  0  0  0  0  0  0  0
   -1.4466   -1.1463    0.5132 C   0  0  0  0  0  0  0  0  0  0  0  0
   -2.6623   -0.2606    0.2156 C   0  0  0  0  0  0  0  0  0  0  0  0
   -2.1399    0.8259   -0.6454 C   0  0  0  0  0  0  0  0  0  0  0  0
   -2.7991    1.6936   -1.1530 O   0  0  0  0  0  0  0  0  0  0  0  0
   -0.6734    0.6425   -0.7600 C   0  0  0  0  0  0  0  0  0  0  0  0
    3.4981    0.8802   -0.9197 H   0  0  0  0  0  0  0  0  0  0  0  0
    1.8995    0.5669   -1.5899 H   0  0  0  0  0  0  0  0  0  0  0  0
    2.1783    1.9569   -0.4726 H   0  0  0  0  0  0  0  0  0  0  0  0
    2.3311    0.6166    1.4261 H   0  0  0  0  0  0  0  0  0  0  0  0
    3.0497   -0.7347    0.5494 H   0  0  0  0  0  0  0  0  0  0  0  0
    0.9617   -1.5413   -0.3140 H   0  0  0  0  0  0  0  0  0  0  0  0
    0.9565   -1.4305    1.4641 H   0  0  0  0  0  0  0  0  0  0  0  0
   -0.5064    0.5925    1.3479 H   0  0  0  0  0  0  0  0  0  0  0  0
   -1.5184   -1.6473    1.4727 H   0  0  0  0  0  0  0  0  0  0  0  0
   -1.2539   -1.8056   -0.3531 H   0  0  0  0  0  0  0  0  0  0  0  0
   -3.4484   -0.8698   -0.2982 H   0  0  0  0  0  0  0  0  0  0  0  0
   -3.0274    0.0890    1.1898 H   0  0  0  0  0  0  0  0  0  0  0  0
   -0.4638   -0.0221   -1.6360 H   0  0  0  0  0  0  0  0  0  0  0  0
   -0.1418    1.6039   -0.9017 H   0  0  0  0  0  0  0  0  0  0  0  0
  1  2  1  0
  2  3  1  0
  3  4  1  0
  4  5  1  0
  5  6  1  0
  6  7  1  0
  7  8  2  0
  7  9  1  0
  9  4  1  0
  1 10  1  0
  1 11  1  0
  1 12  1  0
  2 13  1  0
  2 14  1  0
  3 15  1  0
  3 16  1  0
  4 17  1  0
  5 18  1  0
  5 19  1  0
  6 20  1  0
  6 21  1  0
  9 22  1  0
  9 23  1  0
M  END
