
     RDKit          3D

 23 24  0  0  0  0  0  0  0  0999 V2000
    3.2620   -0.3861    0.5374 C   0  0  0  0  0  0  0  0  0  0  0  0
    1.9766   -0.1599   -0.2107 C   0  0  0  0  0  0  0  0  0  0  0  0
    0.9617    0.6130    0.5790 C   0  0  0  0  0  0  0  0  0  0  0  0
   -0.2659    0.7715   -0.2691 C   0  0  0  0  0  0  0  0  0  0  0  0
   -0.8581   -0.5912   -0.6577 C   0  0  0  0  0  0  0  0  0  0  0  0
   -2.2902   -0.2170   -0.5294 C   0  0  0  0  0  0  0  0  0  0  0  0
   -3.2291   -0.2180    0.5081 C   0  0  0  0  0  0  0  0  0  0  0  0
   -2.0354    0.4169    0.9009 C   0  0  0  0  0  0  0  0  0  0  0  0
   -1.2984    1.4502    0.4269 O   0  0  0  0  0  0  0  0  0  0  0  0
    3.0657   -0.9612    1.4421 H   0  0  0  0  0  0  0  0  0  0  0  0
    3.8032    0.5623    0.7465 H   0  0  0  0  0  0  0  0  0  0  0  0
    3.9229   -0.9900   -0.1193 H   0  0  0  0  0  0  0  0  0  0  0  0
    1.5534   -1.1733   -0.4305 H   0  0  0  0  0  0  0  0  0  0  0  0
    2.1195    0.3414   -1.1783 H   0  0  0  0  0  0  0  0  0  0  0  0
    0.7414    0.1739    1.5641 H   0  0  0  0  0  0  0  0  0  0  0  0
    1.3555    1.6330    0.7690 H   0  0  0  0  0  0  0  0  0  0  0  0
   -0.0451    1.3454   -1.1713 H   0  0  0  0  0  0  0  0  0  0  0  0
   -0.5714   -0.8421   -1.6764 H   0  0  0  0  0  0  0  0  0  0  0  0
   -0.6041   -1.3607    0.0972 H   0  0  0  0  0  0  0  0  0  0  0  0
   -2.4941    0.5409   -1.3549 H   0  0  0  0  0  0  0  0  0  0  0  0
   -3.5340   -1.1871    0.9672 H   0  0  0  0  0  0  0  0  0  0  0  0
   -4.1503    0.4366    0.4395 H   0  0  0  0  0  0  0  0  0  0  0  0
   -1.3858   -0.1987    1.5971 H   0  0  0  0  0  0  0  0  0  0  0  0
  1  2  1  0
  2  3  1  0
  3  4  1  0
  4  5  1  0
  5  6  1  0
  6  7  1  0
  7  8  1  0
  8  9  1  0
  9  4  1  0
  8  6  1  0
  1 10  1  0
  1 11  1  0
  1 12  1  0
  2 13  1  0
  2 14  1  0
  3 15  1  0
  3 16  1  0
  4 17  1  0
  5 18  1  0
  5 19  1  0
  6 20  1  0
  7 21  1  0
  7 22  1  0
  8 23  1  0
M  END
