
     RDKit          3D

 23 22  0  0  0  0  0  0  0  0999 V2000
    3.6947   -0.6018   -0.5723 C   0  0  0  0  0  0  0  0  0  0  0  0
    2.1655   -0.6588   -0.6689 C   0  0  0  0  0  0  0  0  0  0  0  0
    1.6572    0.7277   -0.3834 C   0  0  0  0  0  0  0  0  0  0  0  0
    0.1699    0.7550   -0.4601 C   0  0  0  0  0  0  0  0  0  0  0  0
   -0.3446    0.8561   -1.5439 O   0  0  0  0  0  0  0  0  0  0  0  0
   -0.5957    0.6573    0.7879 C   0  0  0  0  0  0  0  0  0  0  0  0
   -1.9472    0.6641    0.6040 O   0  0  0  0  0  0  0  0  0  0  0  0
   -2.5003   -0.3386   -0.1262 C   0  0  0  0  0  0  0  0  0  0  0  0
   -4.0097   -0.0833   -0.1674 C   0  0  0  0  0  0  0  0  0  0  0  0
    4.0691   -0.0759   -1.4773 H   0  0  0  0  0  0  0  0  0  0  0  0
    3.9076    0.0862    0.2884 H   0  0  0  0  0  0  0  0  0  0  0  0
    4.1297   -1.5986   -0.4400 H   0  0  0  0  0  0  0  0  0  0  0  0
    1.8547   -1.3173    0.1781 H   0  0  0  0  0  0  0  0  0  0  0  0
    1.8265   -1.0261   -1.6367 H   0  0  0  0  0  0  0  0  0  0  0  0
    2.1126    1.4457   -1.0954 H   0  0  0  0  0  0  0  0  0  0  0  0
    1.9662    1.0422    0.6314 H   0  0  0  0  0  0  0  0  0  0  0  0
   -0.2405   -0.2160    1.4038 H   0  0  0  0  0  0  0  0  0  0  0  0
   -0.3605    1.5495    1.4414 H   0  0  0  0  0  0  0  0  0  0  0  0
   -2.4074   -1.3030    0.4580 H   0  0  0  0  0  0  0  0  0  0  0  0
   -2.1213   -0.5335   -1.1201 H   0  0  0  0  0  0  0  0  0  0  0  0
   -4.2774    0.1873    0.8922 H   0  0  0  0  0  0  0  0  0  0  0  0
   -4.1907    0.7776   -0.8139 H   0  0  0  0  0  0  0  0  0  0  0  0
   -4.5584   -0.9957   -0.4239 H   0  0  0  0  0  0  0  0  0  0  0  0
  1  2  1  0
  2  3  1  0
  3  4  1  0
  4  5  2  0
  4  6  1  0
  6  7  1  0
  7  8  1  0
  8  9  1  0
  1 10  1  0
  1 11  1  0
  1 12  1  0
  2 13  1  0
  2 14  1  0
  3 15  1  0
  3 16  1  0
  6 17  1  0
  6 18  1  0
  8 19  1  0
  8 20  1  0
  9 21  1  0
  9 22  1  0
  9 23  1  0
M  END
