
     RDKit          3D

 23 24  0  0  0  0  0  0  0  0999 V2000
    3.0262   -1.1056   -0.1090 C   0  0  0  0  0  0  0  0  0  0  0  0
    1.6609   -0.8207   -0.6430 C   0  0  0  0  0  0  0  0  0  0  0  0
    1.0289    0.3993   -0.0104 C   0  0  0  0  0  0  0  0  0  0  0  0
   -0.3301    0.6636   -0.5574 C   0  0  0  0  0  0  0  0  0  0  0  0
   -0.9542    1.8708    0.0692 C   0  0  0  0  0  0  0  0  0  0  0  0
   -2.2749    1.3477   -0.3866 C   0  0  0  0  0  0  0  0  0  0  0  0
   -1.5019    0.1995    0.2347 C   0  0  0  0  0  0  0  0  0  0  0  0
   -1.9646   -1.0824    0.4046 C   0  0  0  0  0  0  0  0  0  0  0  0
   -1.1238    1.1058    1.2139 O   0  0  0  0  0  0  0  0  0  0  0  0
    3.3865   -0.3565    0.6205 H   0  0  0  0  0  0  0  0  0  0  0  0
    3.7848   -1.1153   -0.9430 H   0  0  0  0  0  0  0  0  0  0  0  0
    3.0204   -2.1380    0.3079 H   0  0  0  0  0  0  0  0  0  0  0  0
    1.7179   -0.6130   -1.7388 H   0  0  0  0  0  0  0  0  0  0  0  0
    0.9650   -1.6874   -0.5337 H   0  0  0  0  0  0  0  0  0  0  0  0
    1.6844    1.2723   -0.2966 H   0  0  0  0  0  0  0  0  0  0  0  0
    0.9607    0.3288    1.0844 H   0  0  0  0  0  0  0  0  0  0  0  0
   -0.4887    0.5128   -1.6324 H   0  0  0  0  0  0  0  0  0  0  0  0
   -0.6196    2.8218    0.0233 H   0  0  0  0  0  0  0  0  0  0  0  0
   -2.4127    1.3130   -1.4649 H   0  0  0  0  0  0  0  0  0  0  0  0
   -3.1656    1.6755    0.1576 H   0  0  0  0  0  0  0  0  0  0  0  0
   -3.0430   -1.2421    0.1015 H   0  0  0  0  0  0  0  0  0  0  0  0
   -1.4163   -1.8908   -0.1654 H   0  0  0  0  0  0  0  0  0  0  0  0
   -1.9403   -1.4591    1.4708 H   0  0  0  0  0  0  0  0  0  0  0  0
  1  2  1  0
  2  3  1  0
  3  4  1  0
  4  5  1  0
  5  6  1  0
  6  7  1  0
  7  8  1  0
  7  9  1  0
  7  4  1  0
  9  5  1  0
  1 10  1  0
  1 11  1  0
  1 12  1  0
  2 13  1  0
  2 14  1  0
  3 15  1  0
  3 16  1  0
  4 17  1  0
  5 18  1  0
  6 19  1  0
  6 20  1  0
  8 21  1  0
  8 22  1  0
  8 23  1  0
M  END
