
     RDKit          3D

 24 24  0  0  0  0  0  0  0  0999 V2000
    3.1450   -0.5543   -0.3499 C   0  0  0  0  0  0  0  0  0  0  0  0
    1.6693   -0.7907   -0.0295 C   0  0  0  0  0  0  0  0  0  0  0  0
    1.0160    0.5553    0.0212 C   0  0  0  0  0  0  0  0  0  0  0  0
   -0.4581    0.4979    0.3299 C   0  0  0  0  0  0  0  0  0  0  0  0
   -1.0785    1.9009    0.3700 C   0  0  0  0  0  0  0  0  0  0  0  0
   -0.8901   -0.4937    1.3469 C   0  0  0  0  0  0  0  0  0  0  0  0
   -1.2507   -0.6490   -0.1234 C   0  0  0  0  0  0  0  0  0  0  0  0
   -2.7247   -0.5673   -0.4000 C   0  0  0  0  0  0  0  0  0  0  0  0
    3.4839    0.2784    0.2897 H   0  0  0  0  0  0  0  0  0  0  0  0
    3.1972   -0.2181   -1.3942 H   0  0  0  0  0  0  0  0  0  0  0  0
    3.6555   -1.5099   -0.1511 H   0  0  0  0  0  0  0  0  0  0  0  0
    1.6171   -1.3661    0.8971 H   0  0  0  0  0  0  0  0  0  0  0  0
    1.2758   -1.3658   -0.9157 H   0  0  0  0  0  0  0  0  0  0  0  0
    1.2153    1.0588   -0.9512 H   0  0  0  0  0  0  0  0  0  0  0  0
    1.5139    1.1449    0.8426 H   0  0  0  0  0  0  0  0  0  0  0  0
   -0.9339    2.3672   -0.6337 H   0  0  0  0  0  0  0  0  0  0  0  0
   -0.4200    2.4788    1.0830 H   0  0  0  0  0  0  0  0  0  0  0  0
   -2.1117    1.8911    0.7080 H   0  0  0  0  0  0  0  0  0  0  0  0
   -1.6778   -0.1341    2.0510 H   0  0  0  0  0  0  0  0  0  0  0  0
   -0.1970   -1.2067    1.8148 H   0  0  0  0  0  0  0  0  0  0  0  0
   -0.7469   -1.4766   -0.6797 H   0  0  0  0  0  0  0  0  0  0  0  0
   -3.1793    0.2330    0.1859 H   0  0  0  0  0  0  0  0  0  0  0  0
   -2.9513   -0.5393   -1.4811 H   0  0  0  0  0  0  0  0  0  0  0  0
   -3.1690   -1.5348   -0.0315 H   0  0  0  0  0  0  0  0  0  0  0  0
  1  2  1  0
  2  3  1  0
  3  4  1  0
  4  5  1  0
  4  6  1  0
  6  7  1  0
  7  8  1  0
  7  4  1  0
  1  9  1  0
  1 10  1  0
  1 11  1  0
  2 12  1  0
  2 13  1  0
  3 14  1  0
  3 15  1  0
  5 16  1  0
  5 17  1  0
  5 18  1  0
  6 19  1  0
  6 20  1  0
  7 21  1  0
  8 22  1  0
  8 23  1  0
  8 24  1  0
M  END
