
     RDKit          3D

 23 23  0  0  0  0  0  0  0  0999 V2000
    3.0286   -0.1677    0.0644 C   0  0  0  0  0  0  0  0  0  0  0  0
    1.5675   -0.1070   -0.4071 C   0  0  0  0  0  0  0  0  0  0  0  0
    0.7075   -0.1722    0.7878 C   0  0  0  0  0  0  0  0  0  0  0  0
   -0.7481   -0.1260    0.5731 C   0  0  0  0  0  0  0  0  0  0  0  0
   -1.5255   -0.1902    1.7534 O   0  0  0  0  0  0  0  0  0  0  0  0
   -1.2167   -1.1677   -0.4197 C   0  0  0  0  0  0  0  0  0  0  0  0
   -2.2807   -0.1535   -0.8470 C   0  0  0  0  0  0  0  0  0  0  0  0
   -1.3100    0.9207   -0.3300 C   0  0  0  0  0  0  0  0  0  0  0  0
   -2.0677    1.9196    0.2848 O   0  0  0  0  0  0  0  0  0  0  0  0
    3.6757    0.4652   -0.5413 H   0  0  0  0  0  0  0  0  0  0  0  0
    3.0833    0.1538    1.1118 H   0  0  0  0  0  0  0  0  0  0  0  0
    3.4237   -1.1995    0.0168 H   0  0  0  0  0  0  0  0  0  0  0  0
    1.4600    0.9006   -0.8774 H   0  0  0  0  0  0  0  0  0  0  0  0
    1.4737   -0.9062   -1.1395 H   0  0  0  0  0  0  0  0  0  0  0  0
    0.9441   -1.1285    1.3348 H   0  0  0  0  0  0  0  0  0  0  0  0
    0.9976    0.6541    1.4754 H   0  0  0  0  0  0  0  0  0  0  0  0
   -0.9058    0.0009    2.4888 H   0  0  0  0  0  0  0  0  0  0  0  0
   -0.5099   -1.3084   -1.2316 H   0  0  0  0  0  0  0  0  0  0  0  0
   -1.6230   -2.0669    0.0691 H   0  0  0  0  0  0  0  0  0  0  0  0
   -2.4783   -0.1135   -1.9164 H   0  0  0  0  0  0  0  0  0  0  0  0
   -3.1637   -0.2890   -0.1750 H   0  0  0  0  0  0  0  0  0  0  0  0
   -0.6698    1.2664   -1.1623 H   0  0  0  0  0  0  0  0  0  0  0  0
   -1.8625    2.8150   -0.0798 H   0  0  0  0  0  0  0  0  0  0  0  0
  1  2  1  0
  2  3  1  0
  3  4  1  0
  4  5  1  0
  4  6  1  0
  6  7  1  0
  7  8  1  0
  8  9  1  0
  8  4  1  0
  1 10  1  0
  1 11  1  0
  1 12  1  0
  2 13  1  0
  2 14  1  0
  3 15  1  0
  3 16  1  0
  5 17  1  0
  6 18  1  0
  6 19  1  0
  7 20  1  0
  7 21  1  0
  8 22  1  0
  9 23  1  0
M  END
