
     RDKit          3D

 23 24  0  0  0  0  0  0  0  0999 V2000
    2.3768    0.7086   -0.0227 C   0  0  0  0  0  0  0  0  0  0  0  0
    2.0882   -0.7558   -0.1207 C   0  0  0  0  0  0  0  0  0  0  0  0
    0.7203   -1.1585    0.3313 C   0  0  0  0  0  0  0  0  0  0  0  0
   -0.3695   -0.5901   -0.4603 C   0  0  0  0  0  0  0  0  0  0  0  0
   -0.6183    0.8682   -0.5940 C   0  0  0  0  0  0  0  0  0  0  0  0
   -1.8632    0.8502   -1.4272 C   0  0  0  0  0  0  0  0  0  0  0  0
   -2.5926   -0.1069   -0.8603 C   0  0  0  0  0  0  0  0  0  0  0  0
   -1.7347   -0.5606    0.2472 C   0  0  0  0  0  0  0  0  0  0  0  0
   -1.2459    0.7866    0.7965 C   0  0  0  0  0  0  0  0  0  0  0  0
    3.4680    0.8288    0.2646 H   0  0  0  0  0  0  0  0  0  0  0  0
    1.7844    1.2387    0.7501 H   0  0  0  0  0  0  0  0  0  0  0  0
    2.3350    1.1516   -1.0340 H   0  0  0  0  0  0  0  0  0  0  0  0
    2.2574   -1.0466   -1.2002 H   0  0  0  0  0  0  0  0  0  0  0  0
    2.8577   -1.2693    0.5189 H   0  0  0  0  0  0  0  0  0  0  0  0
    0.6469   -2.2972    0.2681 H   0  0  0  0  0  0  0  0  0  0  0  0
    0.6032   -0.9918    1.4414 H   0  0  0  0  0  0  0  0  0  0  0  0
   -0.5270   -1.0631   -1.4847 H   0  0  0  0  0  0  0  0  0  0  0  0
    0.1037    1.5970   -0.7853 H   0  0  0  0  0  0  0  0  0  0  0  0
   -2.0731    1.4803   -2.2736 H   0  0  0  0  0  0  0  0  0  0  0  0
   -3.5835   -0.4778   -1.1339 H   0  0  0  0  0  0  0  0  0  0  0  0
   -1.9907   -1.3286    0.9045 H   0  0  0  0  0  0  0  0  0  0  0  0
   -2.1076    1.4527    0.9535 H   0  0  0  0  0  0  0  0  0  0  0  0
   -0.5353    0.6837    1.6279 H   0  0  0  0  0  0  0  0  0  0  0  0
  1  2  1  0
  2  3  1  0
  3  4  1  0
  4  5  1  0
  5  6  1  0
  6  7  2  0
  7  8  1  0
  8  9  1  0
  8  4  1  0
  9  5  1  0
  1 10  1  0
  1 11  1  0
  1 12  1  0
  2 13  1  0
  2 14  1  0
  3 15  1  0
  3 16  1  0
  4 17  1  0
  5 18  1  0
  6 19  1  0
  7 20  1  0
  8 21  1  0
  9 22  1  0
  9 23  1  0
M  END
