
     RDKit          3D

 25 26  0  0  0  0  0  0  0  0999 V2000
    3.5035    0.6797   -0.4298 C   0  0  0  0  0  0  0  0  0  0  0  0
    2.5043   -0.2570    0.2088 C   0  0  0  0  0  0  0  0  0  0  0  0
    1.1133    0.1821   -0.1660 C   0  0  0  0  0  0  0  0  0  0  0  0
    0.0660   -0.7485    0.4663 C   0  0  0  0  0  0  0  0  0  0  0  0
   -1.1989   -0.3486    0.1251 C   0  0  0  0  0  0  0  0  0  0  0  0
   -1.7529   -0.2483   -1.2754 C   0  0  0  0  0  0  0  0  0  0  0  0
   -2.8687    0.2470   -0.3988 C   0  0  0  0  0  0  0  0  0  0  0  0
   -1.7971    1.0174    0.3346 C   0  0  0  0  0  0  0  0  0  0  0  0
   -2.5173   -0.8969    0.5197 C   0  0  0  0  0  0  0  0  0  0  0  0
    4.3330    0.0948   -0.8633 H   0  0  0  0  0  0  0  0  0  0  0  0
    3.8410    1.4126    0.3389 H   0  0  0  0  0  0  0  0  0  0  0  0
    2.9917    1.2903   -1.2160 H   0  0  0  0  0  0  0  0  0  0  0  0
    2.6235   -0.2669    1.2894 H   0  0  0  0  0  0  0  0  0  0  0  0
    2.6363   -1.2984   -0.1722 H   0  0  0  0  0  0  0  0  0  0  0  0
    0.8894    1.1998    0.2038 H   0  0  0  0  0  0  0  0  0  0  0  0
    0.9287    0.1643   -1.2486 H   0  0  0  0  0  0  0  0  0  0  0  0
    0.2773   -0.7419    1.5377 H   0  0  0  0  0  0  0  0  0  0  0  0
    0.3247   -1.7595    0.0623 H   0  0  0  0  0  0  0  0  0  0  0  0
   -1.3338    0.5323   -1.9074 H   0  0  0  0  0  0  0  0  0  0  0  0
   -1.9435   -1.2379   -1.7523 H   0  0  0  0  0  0  0  0  0  0  0  0
   -3.7741    0.5637   -0.6644 H   0  0  0  0  0  0  0  0  0  0  0  0
   -1.2698    1.7707   -0.3009 H   0  0  0  0  0  0  0  0  0  0  0  0
   -2.0217    1.3110    1.3591 H   0  0  0  0  0  0  0  0  0  0  0  0
   -2.7197   -1.8853    0.0646 H   0  0  0  0  0  0  0  0  0  0  0  0
   -2.8355   -0.7765    1.5694 H   0  0  0  0  0  0  0  0  0  0  0  0
  1  2  1  0
  2  3  1  0
  3  4  1  0
  4  5  1  0
  5  6  1  0
  6  7  1  0
  7  8  1  0
  7  9  1  0
  8  5  1  0
  9  5  1  0
  1 10  1  0
  1 11  1  0
  1 12  1  0
  2 13  1  0
  2 14  1  0
  3 15  1  0
  3 16  1  0
  4 17  1  0
  4 18  1  0
  6 19  1  0
  6 20  1  0
  7 21  1  0
  8 22  1  0
  8 23  1  0
  9 24  1  0
  9 25  1  0
M  END
