
     RDKit          3D

 23 24  0  0  0  0  0  0  0  0999 V2000
   -2.3373    0.7553   -0.9210 C   0  0  0  0  0  0  0  0  0  0  0  0
   -1.9745   -0.6854   -0.7329 C   0  0  0  0  0  0  0  0  0  0  0  0
   -1.0163   -0.8715    0.4207 C   0  0  0  0  0  0  0  0  0  0  0  0
    0.2294   -0.1543    0.2460 C   0  0  0  0  0  0  0  0  0  0  0  0
    1.2854   -0.2525    1.3317 C   0  0  0  0  0  0  0  0  0  0  0  0
    2.2060    0.1231    0.1718 C   0  0  0  0  0  0  0  0  0  0  0  0
    1.6435    1.4590   -0.2083 C   0  0  0  0  0  0  0  0  0  0  0  0
    0.2572    1.1707   -0.0819 O   0  0  0  0  0  0  0  0  0  0  0  0
    1.2955   -0.7921   -0.6621 C   0  0  0  0  0  0  0  0  0  0  0  0
   -3.4317    0.8481   -1.0707 H   0  0  0  0  0  0  0  0  0  0  0  0
   -2.0762    1.3274   -0.0124 H   0  0  0  0  0  0  0  0  0  0  0  0
   -1.7766    1.2084   -1.7879 H   0  0  0  0  0  0  0  0  0  0  0  0
   -2.8986   -1.2583   -0.4651 H   0  0  0  0  0  0  0  0  0  0  0  0
   -1.5444   -1.0754   -1.6802 H   0  0  0  0  0  0  0  0  0  0  0  0
   -0.7982   -1.9796    0.4508 H   0  0  0  0  0  0  0  0  0  0  0  0
   -1.5304   -0.6093    1.3464 H   0  0  0  0  0  0  0  0  0  0  0  0
    1.4215   -1.2756    1.7061 H   0  0  0  0  0  0  0  0  0  0  0  0
    1.2189    0.5376    2.1065 H   0  0  0  0  0  0  0  0  0  0  0  0
    3.2290   -0.0775    0.2236 H   0  0  0  0  0  0  0  0  0  0  0  0
    1.8955    1.6492   -1.2727 H   0  0  0  0  0  0  0  0  0  0  0  0
    1.9401    2.2766    0.4510 H   0  0  0  0  0  0  0  0  0  0  0  0
    1.5235   -1.8330   -0.4260 H   0  0  0  0  0  0  0  0  0  0  0  0
    1.2388   -0.4908   -1.7090 H   0  0  0  0  0  0  0  0  0  0  0  0
  1  2  1  0
  2  3  1  0
  3  4  1  0
  4  5  1  0
  5  6  1  0
  6  7  1  0
  7  8  1  0
  6  9  1  0
  8  4  1  0
  9  4  1  0
  1 10  1  0
  1 11  1  0
  1 12  1  0
  2 13  1  0
  2 14  1  0
  3 15  1  0
  3 16  1  0
  5 17  1  0
  5 18  1  0
  6 19  1  0
  7 20  1  0
  7 21  1  0
  9 22  1  0
  9 23  1  0
M  END
