
     RDKit          3D

 27 27  0  0  0  0  0  0  0  0999 V2000
    2.5824    0.0961   -1.4312 C   0  0  0  0  0  0  0  0  0  0  0  0
    2.1997   -1.0712   -0.5650 C   0  0  0  0  0  0  0  0  0  0  0  0
    1.0089   -0.8477    0.3173 C   0  0  0  0  0  0  0  0  0  0  0  0
   -0.2650   -0.5393   -0.3601 C   0  0  0  0  0  0  0  0  0  0  0  0
   -0.3248    0.6838   -1.2036 C   0  0  0  0  0  0  0  0  0  0  0  0
   -1.8454    0.8528   -1.4014 C   0  0  0  0  0  0  0  0  0  0  0  0
   -2.3283    0.6286    0.0307 C   0  0  0  0  0  0  0  0  0  0  0  0
   -1.3529   -0.3261    0.6717 C   0  0  0  0  0  0  0  0  0  0  0  0
   -0.8059    0.2580    1.9628 C   0  0  0  0  0  0  0  0  0  0  0  0
    2.3319   -0.0855   -2.5005 H   0  0  0  0  0  0  0  0  0  0  0  0
    3.7170    0.1377   -1.4224 H   0  0  0  0  0  0  0  0  0  0  0  0
    2.2505    1.0739   -1.0510 H   0  0  0  0  0  0  0  0  0  0  0  0
    3.1090   -1.3393    0.0524 H   0  0  0  0  0  0  0  0  0  0  0  0
    2.0680   -1.9594   -1.2280 H   0  0  0  0  0  0  0  0  0  0  0  0
    1.2303   -0.1342    1.1479 H   0  0  0  0  0  0  0  0  0  0  0  0
    0.8619   -1.8343    0.8542 H   0  0  0  0  0  0  0  0  0  0  0  0
   -0.5974   -1.3977   -1.0187 H   0  0  0  0  0  0  0  0  0  0  0  0
   -0.0224    1.6046   -0.6585 H   0  0  0  0  0  0  0  0  0  0  0  0
    0.0941    0.6183   -2.2031 H   0  0  0  0  0  0  0  0  0  0  0  0
   -2.2303    0.0596   -2.0659 H   0  0  0  0  0  0  0  0  0  0  0  0
   -2.0633    1.8772   -1.7548 H   0  0  0  0  0  0  0  0  0  0  0  0
   -3.3414    0.1631    0.0376 H   0  0  0  0  0  0  0  0  0  0  0  0
   -2.3249    1.6283    0.5223 H   0  0  0  0  0  0  0  0  0  0  0  0
   -1.8097   -1.3024    0.9037 H   0  0  0  0  0  0  0  0  0  0  0  0
   -0.2229   -0.4759    2.5376 H   0  0  0  0  0  0  0  0  0  0  0  0
   -1.7185    0.4724    2.5923 H   0  0  0  0  0  0  0  0  0  0  0  0
   -0.2006    1.1588    1.8077 H   0  0  0  0  0  0  0  0  0  0  0  0
  1  2  1  0
  2  3  1  0
  3  4  1  0
  4  5  1  0
  5  6  1  0
  6  7  1  0
  7  8  1  0
  8  9  1  0
  8  4  1  0
  1 10  1  0
  1 11  1  0
  1 12  1  0
  2 13  1  0
  2 14  1  0
  3 15  1  0
  3 16  1  0
  4 17  1  0
  5 18  1  0
  5 19  1  0
  6 20  1  0
  6 21  1  0
  7 22  1  0
  7 23  1  0
  8 24  1  0
  9 25  1  0
  9 26  1  0
  9 27  1  0
M  END
