
     RDKit          3D

 23 24  0  0  0  0  0  0  0  0999 V2000
    2.1646    0.7767    0.3783 C   0  0  0  0  0  0  0  0  0  0  0  0
    1.8021   -0.6096    0.8369 C   0  0  0  0  0  0  0  0  0  0  0  0
    0.7636   -1.2509   -0.0027 C   0  0  0  0  0  0  0  0  0  0  0  0
   -0.5597   -0.5707   -0.0825 C   0  0  0  0  0  0  0  0  0  0  0  0
   -1.4553   -1.4211   -1.0048 C   0  0  0  0  0  0  0  0  0  0  0  0
   -1.1967   -0.3300    1.1360 O   0  0  0  0  0  0  0  0  0  0  0  0
   -1.8577    0.7157    0.4483 C   0  0  0  0  0  0  0  0  0  0  0  0
   -1.0907    1.9610    0.3868 C   0  0  0  0  0  0  0  0  0  0  0  0
   -0.6061    0.8628   -0.4728 C   0  0  0  0  0  0  0  0  0  0  0  0
    3.2883    0.9101    0.3447 H   0  0  0  0  0  0  0  0  0  0  0  0
    1.8368    0.9937   -0.6659 H   0  0  0  0  0  0  0  0  0  0  0  0
    1.6929    1.4998    1.0443 H   0  0  0  0  0  0  0  0  0  0  0  0
    1.5802   -0.5917    1.9128 H   0  0  0  0  0  0  0  0  0  0  0  0
    2.7381   -1.2341    0.7430 H   0  0  0  0  0  0  0  0  0  0  0  0
    0.5688   -2.3071    0.3162 H   0  0  0  0  0  0  0  0  0  0  0  0
    1.1245   -1.3627   -1.0668 H   0  0  0  0  0  0  0  0  0  0  0  0
   -1.4163   -0.9143   -1.9918 H   0  0  0  0  0  0  0  0  0  0  0  0
   -2.5119   -1.3881   -0.6728 H   0  0  0  0  0  0  0  0  0  0  0  0
   -1.0717   -2.4322   -1.1490 H   0  0  0  0  0  0  0  0  0  0  0  0
   -2.7941    0.5333   -0.0653 H   0  0  0  0  0  0  0  0  0  0  0  0
   -0.5430    2.3062    1.2844 H   0  0  0  0  0  0  0  0  0  0  0  0
   -1.6414    2.8260   -0.0890 H   0  0  0  0  0  0  0  0  0  0  0  0
   -0.8155    1.0271   -1.5682 H   0  0  0  0  0  0  0  0  0  0  0  0
  1  2  1  0
  2  3  1  0
  3  4  1  0
  4  5  1  0
  4  6  1  0
  6  7  1  0
  7  8  1  0
  8  9  1  0
  9  4  1  0
  9  7  1  0
  1 10  1  0
  1 11  1  0
  1 12  1  0
  2 13  1  0
  2 14  1  0
  3 15  1  0
  3 16  1  0
  5 17  1  0
  5 18  1  0
  5 19  1  0
  7 20  1  0
  8 21  1  0
  8 22  1  0
  9 23  1  0
M  END
