
     RDKit          3D

 21 20  0  0  0  0  0  0  0  0999 V2000
    2.2892   -0.3274    0.7682 C   0  0  0  0  0  0  0  0  0  0  0  0
    1.8162    0.3462   -0.5000 C   0  0  0  0  0  0  0  0  0  0  0  0
    0.4819   -0.1074   -0.9730 C   0  0  0  0  0  0  0  0  0  0  0  0
   -0.6492    0.1074   -0.0331 C   0  0  0  0  0  0  0  0  0  0  0  0
   -0.8497    1.5773    0.3112 C   0  0  0  0  0  0  0  0  0  0  0  0
   -1.8264   -0.2781   -0.7085 O   0  0  0  0  0  0  0  0  0  0  0  0
   -2.4975   -1.2669    0.0056 C   0  0  0  0  0  0  0  0  0  0  0  0
    2.8760   -1.2576    0.5280 H   0  0  0  0  0  0  0  0  0  0  0  0
    1.4440   -0.6445    1.3797 H   0  0  0  0  0  0  0  0  0  0  0  0
    2.9948    0.3213    1.3301 H   0  0  0  0  0  0  0  0  0  0  0  0
    1.9142    1.4445   -0.4156 H   0  0  0  0  0  0  0  0  0  0  0  0
    2.5590    0.0486   -1.2942 H   0  0  0  0  0  0  0  0  0  0  0  0
    0.5264   -1.1819   -1.2279 H   0  0  0  0  0  0  0  0  0  0  0  0
    0.2494    0.4226   -1.9187 H   0  0  0  0  0  0  0  0  0  0  0  0
   -0.5185   -0.4450    0.8929 H   0  0  0  0  0  0  0  0  0  0  0  0
   -0.4442    1.7729    1.3349 H   0  0  0  0  0  0  0  0  0  0  0  0
   -1.9388    1.8260    0.3660 H   0  0  0  0  0  0  0  0  0  0  0  0
   -0.4143    2.2363   -0.4455 H   0  0  0  0  0  0  0  0  0  0  0  0
   -3.4073   -1.5467   -0.5425 H   0  0  0  0  0  0  0  0  0  0  0  0
   -1.7950   -2.1162    0.1276 H   0  0  0  0  0  0  0  0  0  0  0  0
   -2.8101   -0.9313    1.0150 H   0  0  0  0  0  0  0  0  0  0  0  0
  1  2  1  0
  2  3  1  0
  3  4  1  0
  4  5  1  0
  4  6  1  0
  6  7  1  0
  1  8  1  0
  1  9  1  0
  1 10  1  0
  2 11  1  0
  2 12  1  0
  3 13  1  0
  3 14  1  0
  4 15  1  0
  5 16  1  0
  5 17  1  0
  5 18  1  0
  7 19  1  0
  7 20  1  0
  7 21  1  0
M  END
