
     RDKit          3D

 23 23  0  0  0  0  0  0  0  0999 V2000
    0.7418   -2.1576    2.1988 C   0  0  0  0  0  0  0  0  0  0  0  0
    1.6846   -2.2847    1.0305 C   0  0  0  0  0  0  0  0  0  0  0  0
    1.0130   -2.1867   -0.3072 C   0  0  0  0  0  0  0  0  0  0  0  0
    0.3505   -0.9063   -0.4556 C   0  0  0  0  0  0  0  0  0  0  0  0
   -0.1958    0.1908   -0.5725 C   0  0  0  0  0  0  0  0  0  0  0  0
   -0.8636    1.5105   -0.7218 C   0  0  0  0  0  0  0  0  0  0  0  0
   -2.3730    1.4684   -0.8975 C   0  0  0  0  0  0  0  0  0  0  0  0
   -0.2004    2.6763   -0.1472 C   0  0  0  0  0  0  0  0  0  0  0  0
   -0.1242    2.5359   -1.6110 C   0  0  0  0  0  0  0  0  0  0  0  0
    0.8314   -1.1484    2.6331 H   0  0  0  0  0  0  0  0  0  0  0  0
    1.0012   -2.9574    2.9239 H   0  0  0  0  0  0  0  0  0  0  0  0
   -0.2915   -2.3602    1.8661 H   0  0  0  0  0  0  0  0  0  0  0  0
    2.4641   -1.4682    1.0496 H   0  0  0  0  0  0  0  0  0  0  0  0
    2.1938   -3.2891    1.0501 H   0  0  0  0  0  0  0  0  0  0  0  0
    1.8113   -2.3410   -1.0811 H   0  0  0  0  0  0  0  0  0  0  0  0
    0.2772   -3.0032   -0.4749 H   0  0  0  0  0  0  0  0  0  0  0  0
   -2.6063    1.1391   -1.9337 H   0  0  0  0  0  0  0  0  0  0  0  0
   -2.7330    0.6761   -0.1791 H   0  0  0  0  0  0  0  0  0  0  0  0
   -2.8342    2.4139   -0.6099 H   0  0  0  0  0  0  0  0  0  0  0  0
    0.7365    2.6525    0.4008 H   0  0  0  0  0  0  0  0  0  0  0  0
   -0.9099    3.4723    0.2270 H   0  0  0  0  0  0  0  0  0  0  0  0
    0.8129    2.2378   -2.0835 H   0  0  0  0  0  0  0  0  0  0  0  0
   -0.7863    3.1292   -2.3048 H   0  0  0  0  0  0  0  0  0  0  0  0
  1  2  1  0
  2  3  1  0
  3  4  1  0
  4  5  3  0
  5  6  1  0
  6  7  1  0
  6  8  1  0
  8  9  1  0
  9  6  1  0
  1 10  1  0
  1 11  1  0
  1 12  1  0
  2 13  1  0
  2 14  1  0
  3 15  1  0
  3 16  1  0
  7 17  1  0
  7 18  1  0
  7 19  1  0
  8 20  1  0
  8 21  1  0
  9 22  1  0
  9 23  1  0
M  END
