
     RDKit          3D

 22 22  0  0  0  0  0  0  0  0999 V2000
   -2.2973    0.9812   -0.3677 C   0  0  0  0  0  0  0  0  0  0  0  0
   -2.1221   -0.3297    0.3547 C   0  0  0  0  0  0  0  0  0  0  0  0
   -0.7432   -0.6373    0.8098 C   0  0  0  0  0  0  0  0  0  0  0  0
    0.2859   -0.7297   -0.2699 C   0  0  0  0  0  0  0  0  0  0  0  0
    1.6808   -1.0770    0.2903 C   0  0  0  0  0  0  0  0  0  0  0  0
    1.8671    0.4125    0.4893 C   0  0  0  0  0  0  0  0  0  0  0  0
    3.1928    0.7497    0.2222 O   0  0  0  0  0  0  0  0  0  0  0  0
    0.9349    0.5646   -0.7120 C   0  0  0  0  0  0  0  0  0  0  0  0
   -1.9183    0.9217   -1.3953 H   0  0  0  0  0  0  0  0  0  0  0  0
   -1.8628    1.8332    0.2180 H   0  0  0  0  0  0  0  0  0  0  0  0
   -3.4249    1.1295   -0.4218 H   0  0  0  0  0  0  0  0  0  0  0  0
   -2.3860   -1.1162   -0.4185 H   0  0  0  0  0  0  0  0  0  0  0  0
   -2.8854   -0.4504    1.1527 H   0  0  0  0  0  0  0  0  0  0  0  0
   -0.4594    0.1070    1.5926 H   0  0  0  0  0  0  0  0  0  0  0  0
   -0.7873   -1.6350    1.3354 H   0  0  0  0  0  0  0  0  0  0  0  0
    0.0289   -1.3589   -1.1287 H   0  0  0  0  0  0  0  0  0  0  0  0
    1.6675   -1.6302    1.2211 H   0  0  0  0  0  0  0  0  0  0  0  0
    2.2977   -1.4459   -0.5329 H   0  0  0  0  0  0  0  0  0  0  0  0
    1.4587    0.7863    1.4368 H   0  0  0  0  0  0  0  0  0  0  0  0
    3.6656    1.1084    1.0027 H   0  0  0  0  0  0  0  0  0  0  0  0
    0.2771    1.4147   -0.6856 H   0  0  0  0  0  0  0  0  0  0  0  0
    1.5295    0.4014   -1.6329 H   0  0  0  0  0  0  0  0  0  0  0  0
  1  2  1  0
  2  3  1  0
  3  4  1  0
  4  5  1  0
  5  6  1  0
  6  7  1  0
  6  8  1  0
  8  4  1  0
  1  9  1  0
  1 10  1  0
  1 11  1  0
  2 12  1  0
  2 13  1  0
  3 14  1  0
  3 15  1  0
  4 16  1  0
  5 17  1  0
  5 18  1  0
  6 19  1  0
  7 20  1  0
  8 21  1  0
  8 22  1  0
M  END
