
     RDKit          3D

 21 21  0  0  0  0  0  0  0  0999 V2000
   -2.6678    0.7504   -0.2811 C   0  0  0  0  0  0  0  0  0  0  0  0
   -1.9569   -0.5632   -0.3332 C   0  0  0  0  0  0  0  0  0  0  0  0
   -0.7308   -0.6444    0.5207 C   0  0  0  0  0  0  0  0  0  0  0  0
    0.3243    0.3699    0.1568 C   0  0  0  0  0  0  0  0  0  0  0  0
    1.4963    0.1536    1.1138 C   0  0  0  0  0  0  0  0  0  0  0  0
    2.7132    0.2184    0.1843 C   0  0  0  0  0  0  0  0  0  0  0  0
    2.1303   -0.4219   -1.0457 C   0  0  0  0  0  0  0  0  0  0  0  0
    2.6876   -1.2497   -1.8154 O   0  0  0  0  0  0  0  0  0  0  0  0
    0.8486    0.1070   -1.1333 O   0  0  0  0  0  0  0  0  0  0  0  0
   -2.0350    1.6142   -0.5533 H   0  0  0  0  0  0  0  0  0  0  0  0
   -3.1834    0.9069    0.6942 H   0  0  0  0  0  0  0  0  0  0  0  0
   -3.4793    0.7106   -1.0418 H   0  0  0  0  0  0  0  0  0  0  0  0
   -2.6617   -1.3412    0.0266 H   0  0  0  0  0  0  0  0  0  0  0  0
   -1.7068   -0.8163   -1.3822 H   0  0  0  0  0  0  0  0  0  0  0  0
   -0.9912   -0.5801    1.5967 H   0  0  0  0  0  0  0  0  0  0  0  0
   -0.2857   -1.6496    0.3661 H   0  0  0  0  0  0  0  0  0  0  0  0
   -0.0253    1.4017    0.1590 H   0  0  0  0  0  0  0  0  0  0  0  0
    1.5548    0.9284    1.8842 H   0  0  0  0  0  0  0  0  0  0  0  0
    1.4676   -0.8648    1.5073 H   0  0  0  0  0  0  0  0  0  0  0  0
    3.5699   -0.3251    0.5761 H   0  0  0  0  0  0  0  0  0  0  0  0
    2.9312    1.2953   -0.0305 H   0  0  0  0  0  0  0  0  0  0  0  0
  1  2  1  0
  2  3  1  0
  3  4  1  0
  4  5  1  0
  5  6  1  0
  6  7  1  0
  7  8  2  0
  7  9  1  0
  9  4  1  0
  1 10  1  0
  1 11  1  0
  1 12  1  0
  2 13  1  0
  2 14  1  0
  3 15  1  0
  3 16  1  0
  4 17  1  0
  5 18  1  0
  5 19  1  0
  6 20  1  0
  6 21  1  0
M  END
