
     RDKit          3D

 25 25  0  0  0  0  0  0  0  0999 V2000
    3.2285   -0.4324    0.5043 C   0  0  0  0  0  0  0  0  0  0  0  0
    2.6290    0.9314    0.5911 C   0  0  0  0  0  0  0  0  0  0  0  0
    1.4975    1.1152   -0.4284 C   0  0  0  0  0  0  0  0  0  0  0  0
    0.4313    0.0833   -0.1339 C   0  0  0  0  0  0  0  0  0  0  0  0
   -0.7293    0.1575   -1.0604 C   0  0  0  0  0  0  0  0  0  0  0  0
   -1.5017    1.2952   -1.1663 O   0  0  0  0  0  0  0  0  0  0  0  0
   -2.0860    0.3116   -0.3706 C   0  0  0  0  0  0  0  0  0  0  0  0
   -2.0819    0.4846    1.1288 C   0  0  0  0  0  0  0  0  0  0  0  0
   -3.2640   -0.4383   -0.9133 C   0  0  0  0  0  0  0  0  0  0  0  0
    3.5164   -0.7039   -0.5360 H   0  0  0  0  0  0  0  0  0  0  0  0
    2.5415   -1.1735    0.9523 H   0  0  0  0  0  0  0  0  0  0  0  0
    4.1560   -0.4390    1.1034 H   0  0  0  0  0  0  0  0  0  0  0  0
    2.1992    1.0475    1.6115 H   0  0  0  0  0  0  0  0  0  0  0  0
    3.3914    1.7090    0.4759 H   0  0  0  0  0  0  0  0  0  0  0  0
    1.1114    2.1391   -0.3972 H   0  0  0  0  0  0  0  0  0  0  0  0
    1.8970    0.9073   -1.4408 H   0  0  0  0  0  0  0  0  0  0  0  0
    0.8797   -0.9216   -0.2053 H   0  0  0  0  0  0  0  0  0  0  0  0
    0.1405    0.2187    0.9329 H   0  0  0  0  0  0  0  0  0  0  0  0
   -0.7876   -0.5167   -1.9573 H   0  0  0  0  0  0  0  0  0  0  0  0
   -3.1388    0.5774    1.4499 H   0  0  0  0  0  0  0  0  0  0  0  0
   -1.5527    1.3903    1.4334 H   0  0  0  0  0  0  0  0  0  0  0  0
   -1.6906   -0.4482    1.5699 H   0  0  0  0  0  0  0  0  0  0  0  0
   -3.9394   -0.8027   -0.0917 H   0  0  0  0  0  0  0  0  0  0  0  0
   -3.9086    0.1772   -1.5765 H   0  0  0  0  0  0  0  0  0  0  0  0
   -2.9387   -1.3460   -1.4758 H   0  0  0  0  0  0  0  0  0  0  0  0
  1  2  1  0
  2  3  1  0
  3  4  1  0
  4  5  1  0
  5  6  1  0
  6  7  1  0
  7  8  1  0
  7  9  1  0
  7  5  1  0
  1 10  1  0
  1 11  1  0
  1 12  1  0
  2 13  1  0
  2 14  1  0
  3 15  1  0
  3 16  1  0
  4 17  1  0
  4 18  1  0
  5 19  1  0
  8 20  1  0
  8 21  1  0
  8 22  1  0
  9 23  1  0
  9 24  1  0
  9 25  1  0
M  END
