
     RDKit          3D

 23 23  0  0  0  0  0  0  0  0999 V2000
   -2.5127    0.5310   -0.5089 C   0  0  0  0  0  0  0  0  0  0  0  0
   -2.1838   -0.6347    0.3804 C   0  0  0  0  0  0  0  0  0  0  0  0
   -1.0063   -0.5037    1.2502 C   0  0  0  0  0  0  0  0  0  0  0  0
    0.3188   -0.3291    0.6726 C   0  0  0  0  0  0  0  0  0  0  0  0
    0.6309    0.8316   -0.1848 C   0  0  0  0  0  0  0  0  0  0  0  0
    2.0098    0.4002   -0.7482 C   0  0  0  0  0  0  0  0  0  0  0  0
    3.0266    1.1087   -0.1323 O   0  0  0  0  0  0  0  0  0  0  0  0
    2.0615   -1.0369   -0.3056 C   0  0  0  0  0  0  0  0  0  0  0  0
    0.7117   -1.3792   -0.2085 O   0  0  0  0  0  0  0  0  0  0  0  0
   -3.6430    0.6872   -0.5571 H   0  0  0  0  0  0  0  0  0  0  0  0
   -2.1426    1.4433   -0.0432 H   0  0  0  0  0  0  0  0  0  0  0  0
   -2.2359    0.3912   -1.5704 H   0  0  0  0  0  0  0  0  0  0  0  0
   -3.1041   -0.8084    1.0207 H   0  0  0  0  0  0  0  0  0  0  0  0
   -2.1256   -1.5910   -0.2309 H   0  0  0  0  0  0  0  0  0  0  0  0
   -0.9551   -1.4306    1.9127 H   0  0  0  0  0  0  0  0  0  0  0  0
   -1.2012    0.3415    1.9636 H   0  0  0  0  0  0  0  0  0  0  0  0
    1.0917   -0.3512    1.4854 H   0  0  0  0  0  0  0  0  0  0  0  0
    0.8169    1.7399    0.4478 H   0  0  0  0  0  0  0  0  0  0  0  0
   -0.0609    1.0124   -1.0094 H   0  0  0  0  0  0  0  0  0  0  0  0
    2.0178    0.5085   -1.8556 H   0  0  0  0  0  0  0  0  0  0  0  0
    3.4084    1.8283   -0.6992 H   0  0  0  0  0  0  0  0  0  0  0  0
    2.4614   -1.0716    0.7332 H   0  0  0  0  0  0  0  0  0  0  0  0
    2.6158   -1.6874   -0.9989 H   0  0  0  0  0  0  0  0  0  0  0  0
  1  2  1  0
  2  3  1  0
  3  4  1  0
  4  5  1  0
  5  6  1  0
  6  7  1  0
  6  8  1  0
  8  9  1  0
  9  4  1  0
  1 10  1  0
  1 11  1  0
  1 12  1  0
  2 13  1  0
  2 14  1  0
  3 15  1  0
  3 16  1  0
  4 17  1  0
  5 18  1  0
  5 19  1  0
  6 20  1  0
  7 21  1  0
  8 22  1  0
  8 23  1  0
M  END
