
     RDKit          3D

 21 20  0  0  0  0  0  0  0  0999 V2000
    2.5777    1.8384    1.6856 C   0  0  0  0  0  0  0  0  0  0  0  0
    1.0977    1.9272    1.3490 C   0  0  0  0  0  0  0  0  0  0  0  0
    0.6754    0.7483    0.5215 C   0  0  0  0  0  0  0  0  0  0  0  0
   -0.7957    0.8025    0.1504 C   0  0  0  0  0  0  0  0  0  0  0  0
   -0.9647   -0.4546   -0.6946 C   0  0  0  0  0  0  0  0  0  0  0  0
   -1.0817   -1.4623   -1.3818 C   0  0  0  0  0  0  0  0  0  0  0  0
   -1.2372   -2.6329   -2.1630 C   0  0  0  0  0  0  0  0  0  0  0  0
   -2.5308   -2.5873   -2.9499 C   0  0  0  0  0  0  0  0  0  0  0  0
   -3.5931   -2.8252   -2.4043 O   0  0  0  0  0  0  0  0  0  0  0  0
    3.2015    2.4265    0.9833 H   0  0  0  0  0  0  0  0  0  0  0  0
    2.7506    2.2583    2.7034 H   0  0  0  0  0  0  0  0  0  0  0  0
    2.8876    0.7592    1.6575 H   0  0  0  0  0  0  0  0  0  0  0  0
    0.9713    2.8592    0.7786 H   0  0  0  0  0  0  0  0  0  0  0  0
    0.4819    2.0386    2.2808 H   0  0  0  0  0  0  0  0  0  0  0  0
    1.2577    0.7604   -0.4189 H   0  0  0  0  0  0  0  0  0  0  0  0
    0.8916   -0.2211    1.0622 H   0  0  0  0  0  0  0  0  0  0  0  0
   -1.0688    1.6653   -0.4566 H   0  0  0  0  0  0  0  0  0  0  0  0
   -1.3791    0.7168    1.0727 H   0  0  0  0  0  0  0  0  0  0  0  0
   -1.2299   -3.5886   -1.5515 H   0  0  0  0  0  0  0  0  0  0  0  0
   -0.3903   -2.6825   -2.9144 H   0  0  0  0  0  0  0  0  0  0  0  0
   -2.5216   -2.3462   -3.9864 H   0  0  0  0  0  0  0  0  0  0  0  0
  1  2  1  0
  2  3  1  0
  3  4  1  0
  4  5  1  0
  5  6  3  0
  6  7  1  0
  7  8  1  0
  8  9  2  0
  1 10  1  0
  1 11  1  0
  1 12  1  0
  2 13  1  0
  2 14  1  0
  3 15  1  0
  3 16  1  0
  4 17  1  0
  4 18  1  0
  7 19  1  0
  7 20  1  0
  8 21  1  0
M  END
