
     RDKit          3D

 27 26  0  0  0  0  0  0  0  0999 V2000
    2.6893    0.5648    0.5581 C   0  0  0  0  0  0  0  0  0  0  0  0
    2.2389    0.2771   -0.8513 C   0  0  0  0  0  0  0  0  0  0  0  0
    1.4699   -1.0264   -0.9415 C   0  0  0  0  0  0  0  0  0  0  0  0
    0.2359   -1.0110   -0.0802 C   0  0  0  0  0  0  0  0  0  0  0  0
   -0.7443    0.0518   -0.4237 C   0  0  0  0  0  0  0  0  0  0  0  0
   -1.2809   -0.0175   -1.8224 C   0  0  0  0  0  0  0  0  0  0  0  0
   -1.9396   -0.0988    0.4943 C   0  0  0  0  0  0  0  0  0  0  0  0
   -1.6071    0.0303    1.9446 C   0  0  0  0  0  0  0  0  0  0  0  0
   -2.8145   -0.1274    2.6448 O   0  0  0  0  0  0  0  0  0  0  0  0
    3.7608    0.8855    0.5736 H   0  0  0  0  0  0  0  0  0  0  0  0
    2.6011   -0.3688    1.1461 H   0  0  0  0  0  0  0  0  0  0  0  0
    2.0574    1.3478    1.0217 H   0  0  0  0  0  0  0  0  0  0  0  0
    1.6581    1.1272   -1.2658 H   0  0  0  0  0  0  0  0  0  0  0  0
    3.1463    0.1554   -1.4770 H   0  0  0  0  0  0  0  0  0  0  0  0
    2.1492   -1.8066   -0.5005 H   0  0  0  0  0  0  0  0  0  0  0  0
    1.3014   -1.3141   -1.9761 H   0  0  0  0  0  0  0  0  0  0  0  0
   -0.2229   -2.0081   -0.0751 H   0  0  0  0  0  0  0  0  0  0  0  0
    0.6133   -0.7864    0.9569 H   0  0  0  0  0  0  0  0  0  0  0  0
   -0.2854    1.0439   -0.2120 H   0  0  0  0  0  0  0  0  0  0  0  0
   -2.3237   -0.3935   -1.8796 H   0  0  0  0  0  0  0  0  0  0  0  0
   -0.6816   -0.6473   -2.5028 H   0  0  0  0  0  0  0  0  0  0  0  0
   -1.3131    1.0233   -2.2237 H   0  0  0  0  0  0  0  0  0  0  0  0
   -2.7051    0.6122    0.1466 H   0  0  0  0  0  0  0  0  0  0  0  0
   -2.3022   -1.1569    0.3383 H   0  0  0  0  0  0  0  0  0  0  0  0
   -1.1449    1.0136    2.1158 H   0  0  0  0  0  0  0  0  0  0  0  0
   -0.9519   -0.8237    2.2350 H   0  0  0  0  0  0  0  0  0  0  0  0
   -3.6048    0.0097    2.0559 H   0  0  0  0  0  0  0  0  0  0  0  0
  1  2  1  0
  2  3  1  0
  3  4  1  0
  4  5  1  0
  5  6  1  0
  5  7  1  0
  7  8  1  0
  8  9  1  0
  1 10  1  0
  1 11  1  0
  1 12  1  0
  2 13  1  0
  2 14  1  0
  3 15  1  0
  3 16  1  0
  4 17  1  0
  4 18  1  0
  5 19  1  0
  6 20  1  0
  6 21  1  0
  6 22  1  0
  7 23  1  0
  7 24  1  0
  8 25  1  0
  8 26  1  0
  9 27  1  0
M  END
