
     RDKit          3D

 25 25  0  0  0  0  0  0  0  0999 V2000
   -2.2561   -0.0948    1.1765 C   0  0  0  0  0  0  0  0  0  0  0  0
   -2.0322   -0.2901   -0.2839 C   0  0  0  0  0  0  0  0  0  0  0  0
   -0.6557   -0.6272   -0.7126 C   0  0  0  0  0  0  0  0  0  0  0  0
    0.4335    0.3248   -0.4232 C   0  0  0  0  0  0  0  0  0  0  0  0
    0.1893    1.6838   -1.0642 C   0  0  0  0  0  0  0  0  0  0  0  0
    1.6543   -0.2298   -1.1274 C   0  0  0  0  0  0  0  0  0  0  0  0
    2.3905   -0.8969   -0.2589 C   0  0  0  0  0  0  0  0  0  0  0  0
    1.7499   -0.8594    1.1023 C   0  0  0  0  0  0  0  0  0  0  0  0
    0.9166    0.4124    0.9801 C   0  0  0  0  0  0  0  0  0  0  0  0
   -1.7303   -0.8612    1.7395 H   0  0  0  0  0  0  0  0  0  0  0  0
   -3.3553   -0.3068    1.3665 H   0  0  0  0  0  0  0  0  0  0  0  0
   -2.1371    0.9473    1.5303 H   0  0  0  0  0  0  0  0  0  0  0  0
   -2.6608   -1.1889   -0.5762 H   0  0  0  0  0  0  0  0  0  0  0  0
   -2.4946    0.5324   -0.8965 H   0  0  0  0  0  0  0  0  0  0  0  0
   -0.3836   -1.6273   -0.3186 H   0  0  0  0  0  0  0  0  0  0  0  0
   -0.6965   -0.7484   -1.8359 H   0  0  0  0  0  0  0  0  0  0  0  0
   -0.3064    2.3528   -0.3452 H   0  0  0  0  0  0  0  0  0  0  0  0
    1.1739    2.1202   -1.3806 H   0  0  0  0  0  0  0  0  0  0  0  0
   -0.4048    1.5024   -1.9778 H   0  0  0  0  0  0  0  0  0  0  0  0
    1.8827   -0.0952   -2.1852 H   0  0  0  0  0  0  0  0  0  0  0  0
    3.3352   -1.4259   -0.4194 H   0  0  0  0  0  0  0  0  0  0  0  0
    2.4809   -0.7141    1.8943 H   0  0  0  0  0  0  0  0  0  0  0  0
    1.0786   -1.7112    1.2083 H   0  0  0  0  0  0  0  0  0  0  0  0
    1.6402    1.2605    1.0422 H   0  0  0  0  0  0  0  0  0  0  0  0
    0.1879    0.5407    1.7657 H   0  0  0  0  0  0  0  0  0  0  0  0
  1  2  1  0
  2  3  1  0
  3  4  1  0
  4  5  1  0
  4  6  1  0
  6  7  2  0
  7  8  1  0
  8  9  1  0
  9  4  1  0
  1 10  1  0
  1 11  1  0
  1 12  1  0
  2 13  1  0
  2 14  1  0
  3 15  1  0
  3 16  1  0
  5 17  1  0
  5 18  1  0
  5 19  1  0
  6 20  1  0
  7 21  1  0
  8 22  1  0
  8 23  1  0
  9 24  1  0
  9 25  1  0
M  END
