
     RDKit          3D

 25 25  0  0  0  0  0  0  0  0999 V2000
    2.6833    0.9264   -0.6678 C   0  0  0  0  0  0  0  0  0  0  0  0
    2.5974   -0.3154    0.1618 C   0  0  0  0  0  0  0  0  0  0  0  0
    1.2416   -0.9825    0.0781 C   0  0  0  0  0  0  0  0  0  0  0  0
    0.1585   -0.0569    0.5573 C   0  0  0  0  0  0  0  0  0  0  0  0
   -1.2124   -0.7013    0.4862 C   0  0  0  0  0  0  0  0  0  0  0  0
   -2.1657    0.3038    0.9797 C   0  0  0  0  0  0  0  0  0  0  0  0
   -2.5885    1.0197   -0.0357 C   0  0  0  0  0  0  0  0  0  0  0  0
   -1.9539    0.5577   -1.3245 C   0  0  0  0  0  0  0  0  0  0  0  0
   -1.6288   -0.8984   -0.9478 C   0  0  0  0  0  0  0  0  0  0  0  0
    1.7493    1.0432   -1.2523 H   0  0  0  0  0  0  0  0  0  0  0  0
    3.5221    0.8530   -1.3937 H   0  0  0  0  0  0  0  0  0  0  0  0
    2.8361    1.8052   -0.0043 H   0  0  0  0  0  0  0  0  0  0  0  0
    2.8385   -0.0769    1.2373 H   0  0  0  0  0  0  0  0  0  0  0  0
    3.3796   -1.0280   -0.1562 H   0  0  0  0  0  0  0  0  0  0  0  0
    1.2611   -1.9362    0.6016 H   0  0  0  0  0  0  0  0  0  0  0  0
    1.0554   -1.1880   -1.0088 H   0  0  0  0  0  0  0  0  0  0  0  0
    0.1361    0.8708   -0.0156 H   0  0  0  0  0  0  0  0  0  0  0  0
    0.4000    0.2120    1.6063 H   0  0  0  0  0  0  0  0  0  0  0  0
   -1.2450   -1.6500    1.0664 H   0  0  0  0  0  0  0  0  0  0  0  0
   -2.4556    0.4123    2.0297 H   0  0  0  0  0  0  0  0  0  0  0  0
   -3.3079    1.8569   -0.0138 H   0  0  0  0  0  0  0  0  0  0  0  0
   -2.7248    0.6010   -2.0968 H   0  0  0  0  0  0  0  0  0  0  0  0
   -1.0810    1.1322   -1.6169 H   0  0  0  0  0  0  0  0  0  0  0  0
   -0.8822   -1.3409   -1.5990 H   0  0  0  0  0  0  0  0  0  0  0  0
   -2.6132   -1.4198   -0.9773 H   0  0  0  0  0  0  0  0  0  0  0  0
  1  2  1  0
  2  3  1  0
  3  4  1  0
  4  5  1  0
  5  6  1  0
  6  7  2  0
  7  8  1  0
  8  9  1  0
  9  5  1  0
  1 10  1  0
  1 11  1  0
  1 12  1  0
  2 13  1  0
  2 14  1  0
  3 15  1  0
  3 16  1  0
  4 17  1  0
  4 18  1  0
  5 19  1  0
  6 20  1  0
  7 21  1  0
  8 22  1  0
  8 23  1  0
  9 24  1  0
  9 25  1  0
M  END
