
     RDKit          3D

 27 26  0  0  0  0  0  0  0  0999 V2000
    2.7723    1.1729   -0.1890 C   0  0  0  0  0  0  0  0  0  0  0  0
    2.5134   -0.3019   -0.4001 C   0  0  0  0  0  0  0  0  0  0  0  0
    1.1465   -0.5516   -0.9854 C   0  0  0  0  0  0  0  0  0  0  0  0
    0.0257   -0.0548   -0.1307 C   0  0  0  0  0  0  0  0  0  0  0  0
    0.0863   -0.7603    1.2186 C   0  0  0  0  0  0  0  0  0  0  0  0
   -1.2669   -0.5037   -0.7838 C   0  0  0  0  0  0  0  0  0  0  0  0
   -1.2485   -1.8940   -0.8426 O   0  0  0  0  0  0  0  0  0  0  0  0
   -2.4734   -0.0892    0.0255 C   0  0  0  0  0  0  0  0  0  0  0  0
   -2.5427    1.4184    0.1795 C   0  0  0  0  0  0  0  0  0  0  0  0
    2.5913    1.6888   -1.1509 H   0  0  0  0  0  0  0  0  0  0  0  0
    2.2060    1.6056    0.6395 H   0  0  0  0  0  0  0  0  0  0  0  0
    3.8707    1.2572    0.0540 H   0  0  0  0  0  0  0  0  0  0  0  0
    2.7439   -0.9168    0.4756 H   0  0  0  0  0  0  0  0  0  0  0  0
    3.2476   -0.6240   -1.1973 H   0  0  0  0  0  0  0  0  0  0  0  0
    1.1239   -0.0093   -1.9680 H   0  0  0  0  0  0  0  0  0  0  0  0
    1.0182   -1.6228   -1.1600 H   0  0  0  0  0  0  0  0  0  0  0  0
    0.0370    1.0468    0.0083 H   0  0  0  0  0  0  0  0  0  0  0  0
    1.1050   -0.6854    1.6671 H   0  0  0  0  0  0  0  0  0  0  0  0
   -0.6437   -0.3260    1.9417 H   0  0  0  0  0  0  0  0  0  0  0  0
   -0.1933   -1.8181    1.0125 H   0  0  0  0  0  0  0  0  0  0  0  0
   -1.3481   -0.1136   -1.8098 H   0  0  0  0  0  0  0  0  0  0  0  0
   -1.1857   -2.2498   -1.7445 H   0  0  0  0  0  0  0  0  0  0  0  0
   -3.4033   -0.4340   -0.4660 H   0  0  0  0  0  0  0  0  0  0  0  0
   -2.4555   -0.5334    1.0286 H   0  0  0  0  0  0  0  0  0  0  0  0
   -1.7660    1.7001    0.9174 H   0  0  0  0  0  0  0  0  0  0  0  0
   -2.3969    1.9297   -0.8074 H   0  0  0  0  0  0  0  0  0  0  0  0
   -3.5638    1.6693    0.5623 H   0  0  0  0  0  0  0  0  0  0  0  0
  1  2  1  0
  2  3  1  0
  3  4  1  0
  4  5  1  0
  4  6  1  0
  6  7  1  0
  6  8  1  0
  8  9  1  0
  1 10  1  0
  1 11  1  0
  1 12  1  0
  2 13  1  0
  2 14  1  0
  3 15  1  0
  3 16  1  0
  4 17  1  0
  5 18  1  0
  5 19  1  0
  5 20  1  0
  6 21  1  0
  7 22  1  0
  8 23  1  0
  8 24  1  0
  9 25  1  0
  9 26  1  0
  9 27  1  0
M  END
