
     RDKit          3D

 23 22  0  0  0  0  0  0  0  0999 V2000
    2.8937    0.4992   -0.2345 C   0  0  0  0  0  0  0  0  0  0  0  0
    2.2840   -0.8671   -0.1351 C   0  0  0  0  0  0  0  0  0  0  0  0
    0.9313   -0.8879    0.4766 C   0  0  0  0  0  0  0  0  0  0  0  0
   -0.0685   -0.0794   -0.2719 C   0  0  0  0  0  0  0  0  0  0  0  0
    0.2508    0.5248   -1.2898 O   0  0  0  0  0  0  0  0  0  0  0  0
   -1.4856    0.0385    0.1656 C   0  0  0  0  0  0  0  0  0  0  0  0
   -2.4426   -0.5344   -0.8567 C   0  0  0  0  0  0  0  0  0  0  0  0
   -1.8070    1.4856    0.3711 C   0  0  0  0  0  0  0  0  0  0  0  0
   -1.6525   -0.7180    1.3397 O   0  0  0  0  0  0  0  0  0  0  0  0
    2.6103    1.1613    0.6002 H   0  0  0  0  0  0  0  0  0  0  0  0
    2.6641    0.9647   -1.2374 H   0  0  0  0  0  0  0  0  0  0  0  0
    3.9984    0.3887   -0.2134 H   0  0  0  0  0  0  0  0  0  0  0  0
    2.2791   -1.3368   -1.1370 H   0  0  0  0  0  0  0  0  0  0  0  0
    2.9556   -1.4858    0.4938 H   0  0  0  0  0  0  0  0  0  0  0  0
    0.9437   -0.5662    1.5253 H   0  0  0  0  0  0  0  0  0  0  0  0
    0.5618   -1.9340    0.4649 H   0  0  0  0  0  0  0  0  0  0  0  0
   -3.1806   -1.2319   -0.3977 H   0  0  0  0  0  0  0  0  0  0  0  0
   -3.0407    0.2748   -1.3286 H   0  0  0  0  0  0  0  0  0  0  0  0
   -1.8934   -1.0587   -1.6755 H   0  0  0  0  0  0  0  0  0  0  0  0
   -2.7538    1.7575   -0.1305 H   0  0  0  0  0  0  0  0  0  0  0  0
   -1.8200    1.6857    1.4642 H   0  0  0  0  0  0  0  0  0  0  0  0
   -1.0287    2.1577   -0.0724 H   0  0  0  0  0  0  0  0  0  0  0  0
   -1.1994   -0.2382    2.0790 H   0  0  0  0  0  0  0  0  0  0  0  0
  1  2  1  0
  2  3  1  0
  3  4  1  0
  4  5  2  0
  4  6  1  0
  6  7  1  0
  6  8  1  0
  6  9  1  0
  1 10  1  0
  1 11  1  0
  1 12  1  0
  2 13  1  0
  2 14  1  0
  3 15  1  0
  3 16  1  0
  7 17  1  0
  7 18  1  0
  7 19  1  0
  8 20  1  0
  8 21  1  0
  8 22  1  0
  9 23  1  0
M  END
