
     RDKit          3D

 25 25  0  0  0  0  0  0  0  0999 V2000
    3.4040    0.0719    0.0265 C   0  0  0  0  0  0  0  0  0  0  0  0
    2.0264    0.3643   -0.5875 C   0  0  0  0  0  0  0  0  0  0  0  0
    1.0419   -0.3756    0.2677 C   0  0  0  0  0  0  0  0  0  0  0  0
   -0.3878   -0.2048   -0.1886 C   0  0  0  0  0  0  0  0  0  0  0  0
   -1.3184   -0.9627    0.6994 C   0  0  0  0  0  0  0  0  0  0  0  0
   -2.3541   -1.8118    0.0466 C   0  0  0  0  0  0  0  0  0  0  0  0
   -1.8982    0.2212    1.2002 O   0  0  0  0  0  0  0  0  0  0  0  0
   -1.0525    0.9922    0.4240 C   0  0  0  0  0  0  0  0  0  0  0  0
   -1.7354    1.8966   -0.5554 C   0  0  0  0  0  0  0  0  0  0  0  0
    3.4046    0.3814    1.1071 H   0  0  0  0  0  0  0  0  0  0  0  0
    3.5860   -1.0349    0.0554 H   0  0  0  0  0  0  0  0  0  0  0  0
    4.1969    0.5917   -0.5154 H   0  0  0  0  0  0  0  0  0  0  0  0
    1.9151    1.4468   -0.5785 H   0  0  0  0  0  0  0  0  0  0  0  0
    2.0612   -0.0616   -1.6037 H   0  0  0  0  0  0  0  0  0  0  0  0
    1.1079   -0.1011    1.3195 H   0  0  0  0  0  0  0  0  0  0  0  0
    1.2745   -1.4736    0.1406 H   0  0  0  0  0  0  0  0  0  0  0  0
   -0.5456   -0.2811   -1.2665 H   0  0  0  0  0  0  0  0  0  0  0  0
   -0.8505   -1.4974    1.5564 H   0  0  0  0  0  0  0  0  0  0  0  0
   -2.0740   -2.8955    0.1673 H   0  0  0  0  0  0  0  0  0  0  0  0
   -3.2951   -1.7057    0.6622 H   0  0  0  0  0  0  0  0  0  0  0  0
   -2.5408   -1.5824   -1.0117 H   0  0  0  0  0  0  0  0  0  0  0  0
   -0.3528    1.5797    1.0586 H   0  0  0  0  0  0  0  0  0  0  0  0
   -2.3074    1.3446   -1.3212 H   0  0  0  0  0  0  0  0  0  0  0  0
   -0.9395    2.4640   -1.0934 H   0  0  0  0  0  0  0  0  0  0  0  0
   -2.3665    2.6340   -0.0098 H   0  0  0  0  0  0  0  0  0  0  0  0
  1  2  1  0
  2  3  1  0
  3  4  1  0
  4  5  1  0
  5  6  1  0
  5  7  1  0
  7  8  1  0
  8  9  1  0
  8  4  1  0
  1 10  1  0
  1 11  1  0
  1 12  1  0
  2 13  1  0
  2 14  1  0
  3 15  1  0
  3 16  1  0
  4 17  1  0
  5 18  1  0
  6 19  1  0
  6 20  1  0
  6 21  1  0
  8 22  1  0
  9 23  1  0
  9 24  1  0
  9 25  1  0
M  END
