
     RDKit          3D

 25 24  0  0  0  0  0  0  0  0999 V2000
    3.3291    0.9869    0.4319 C   0  0  0  0  0  0  0  0  0  0  0  0
    3.0923   -0.4884    0.2869 C   0  0  0  0  0  0  0  0  0  0  0  0
    2.2408   -0.9234   -0.8979 C   0  0  0  0  0  0  0  0  0  0  0  0
    0.5574   -0.5713   -0.3917 C   0  0  0  0  0  0  0  0  0  0  0  0
   -0.3211   -0.3815   -0.1387 C   0  0  0  0  0  0  0  0  0  0  0  0
   -1.5964   -0.1042    0.2041 C   0  0  0  0  0  0  0  0  0  0  0  0
   -2.4946   -1.2655    0.6382 C   0  0  0  0  0  0  0  0  0  0  0  0
   -1.9891    1.1382    0.9180 C   0  0  0  0  0  0  0  0  0  0  0  0
   -2.2946    0.2407   -1.2960 C   0  0  0  0  0  0  0  0  0  0  0  0
    2.5548    1.4387    1.1120 H   0  0  0  0  0  0  0  0  0  0  0  0
    3.2235    1.4421   -0.5640 H   0  0  0  0  0  0  0  0  0  0  0  0
    4.2948    1.1785    0.9325 H   0  0  0  0  0  0  0  0  0  0  0  0
    2.7154   -0.9037    1.2589 H   0  0  0  0  0  0  0  0  0  0  0  0
    4.0442   -1.0445    0.0520 H   0  0  0  0  0  0  0  0  0  0  0  0
    2.3750   -1.7012   -1.3616 H   0  0  0  0  0  0  0  0  0  0  0  0
    2.3317    0.0713   -1.6461 H   0  0  0  0  0  0  0  0  0  0  0  0
   -2.1019   -1.6115    1.6072 H   0  0  0  0  0  0  0  0  0  0  0  0
   -3.5638   -0.9712    0.7497 H   0  0  0  0  0  0  0  0  0  0  0  0
   -2.4023   -2.0624   -0.1604 H   0  0  0  0  0  0  0  0  0  0  0  0
   -1.4943    1.4138    1.7947 H   0  0  0  0  0  0  0  0  0  0  0  0
   -3.1395    1.0292    1.0990 H   0  0  0  0  0  0  0  0  0  0  0  0
   -1.9969    1.9387    0.0647 H   0  0  0  0  0  0  0  0  0  0  0  0
   -1.4916    0.3817   -1.9864 H   0  0  0  0  0  0  0  0  0  0  0  0
   -2.8357    1.2402   -1.1801 H   0  0  0  0  0  0  0  0  0  0  0  0
   -3.0370   -0.4712   -1.5269 H   0  0  0  0  0  0  0  0  0  0  0  0
  1  2  1  0
  2  3  1  0
  3  4  1  0
  4  5  3  0
  5  6  1  0
  6  7  1  0
  6  8  1  0
  6  9  1  0
  1 10  1  0
  1 11  1  0
  1 12  1  0
  2 13  1  0
  2 14  1  0
  3 15  1  0
  3 16  1  0
  7 17  1  0
  7 18  1  0
  7 19  1  0
  8 20  1  0
  8 21  1  0
  8 22  1  0
  9 23  1  0
  9 24  1  0
  9 25  1  0
M  END
