
     RDKit          3D

 23 22  0  0  0  0  0  0  0  0999 V2000
    2.6010    1.2740    0.3376 C   0  0  0  0  0  0  0  0  0  0  0  0
    1.4954    0.3076    0.6791 C   0  0  0  0  0  0  0  0  0  0  0  0
    1.2813   -0.6926   -0.4266 C   0  0  0  0  0  0  0  0  0  0  0  0
    0.1816   -1.6431   -0.0715 C   0  0  0  0  0  0  0  0  0  0  0  0
   -1.1478   -0.9666    0.1658 C   0  0  0  0  0  0  0  0  0  0  0  0
   -1.6360   -0.2197   -1.0272 C   0  0  0  0  0  0  0  0  0  0  0  0
   -2.8685    0.3899   -0.7712 O   0  0  0  0  0  0  0  0  0  0  0  0
   -3.0216    1.3483    0.1900 C   0  0  0  0  0  0  0  0  0  0  0  0
   -2.0407    1.7182    0.8798 O   0  0  0  0  0  0  0  0  0  0  0  0
    3.5748    0.7532    0.4153 H   0  0  0  0  0  0  0  0  0  0  0  0
    2.4407    1.6368   -0.7099 H   0  0  0  0  0  0  0  0  0  0  0  0
    2.5504    2.1456    1.0029 H   0  0  0  0  0  0  0  0  0  0  0  0
    1.8247   -0.2295    1.6129 H   0  0  0  0  0  0  0  0  0  0  0  0
    0.5580    0.8281    0.9463 H   0  0  0  0  0  0  0  0  0  0  0  0
    2.1998   -1.2888   -0.5784 H   0  0  0  0  0  0  0  0  0  0  0  0
    1.0877   -0.1291   -1.3545 H   0  0  0  0  0  0  0  0  0  0  0  0
    0.4658   -2.1219    0.9036 H   0  0  0  0  0  0  0  0  0  0  0  0
    0.0410   -2.4487   -0.7857 H   0  0  0  0  0  0  0  0  0  0  0  0
   -1.8805   -1.8113    0.3355 H   0  0  0  0  0  0  0  0  0  0  0  0
   -1.1648   -0.3736    1.0776 H   0  0  0  0  0  0  0  0  0  0  0  0
   -0.8861    0.5784   -1.3030 H   0  0  0  0  0  0  0  0  0  0  0  0
   -1.6613   -0.8860   -1.9174 H   0  0  0  0  0  0  0  0  0  0  0  0
   -3.9948    1.8306    0.3990 H   0  0  0  0  0  0  0  0  0  0  0  0
  1  2  1  0
  2  3  1  0
  3  4  1  0
  4  5  1  0
  5  6  1  0
  6  7  1  0
  7  8  1  0
  8  9  2  0
  1 10  1  0
  1 11  1  0
  1 12  1  0
  2 13  1  0
  2 14  1  0
  3 15  1  0
  3 16  1  0
  4 17  1  0
  4 18  1  0
  5 19  1  0
  5 20  1  0
  6 21  1  0
  6 22  1  0
  8 23  1  0
M  END
