
     RDKit          3D

 23 24  0  0  0  0  0  0  0  0999 V2000
    3.0735    0.0812    0.4135 C   0  0  0  0  0  0  0  0  0  0  0  0
    1.7161   -0.0619   -0.2176 C   0  0  0  0  0  0  0  0  0  0  0  0
    0.6118   -0.1449    0.8220 C   0  0  0  0  0  0  0  0  0  0  0  0
   -0.6811   -0.2846    0.0648 C   0  0  0  0  0  0  0  0  0  0  0  0
   -0.8044   -1.4604   -0.8086 C   0  0  0  0  0  0  0  0  0  0  0  0
   -1.6652   -1.3396    0.3902 C   0  0  0  0  0  0  0  0  0  0  0  0
   -2.7167   -0.4324    0.2827 O   0  0  0  0  0  0  0  0  0  0  0  0
   -1.8191    0.6344    0.2952 C   0  0  0  0  0  0  0  0  0  0  0  0
   -1.9761    1.6214   -0.8332 C   0  0  0  0  0  0  0  0  0  0  0  0
    3.0086    0.5521    1.4324 H   0  0  0  0  0  0  0  0  0  0  0  0
    3.4785   -0.9393    0.5629 H   0  0  0  0  0  0  0  0  0  0  0  0
    3.7633    0.7205   -0.1911 H   0  0  0  0  0  0  0  0  0  0  0  0
    1.5071    0.8443   -0.8289 H   0  0  0  0  0  0  0  0  0  0  0  0
    1.6953   -0.9622   -0.8815 H   0  0  0  0  0  0  0  0  0  0  0  0
    0.8016   -0.9726    1.5259 H   0  0  0  0  0  0  0  0  0  0  0  0
    0.6471    0.8397    1.3708 H   0  0  0  0  0  0  0  0  0  0  0  0
   -1.3120   -1.2904   -1.7846 H   0  0  0  0  0  0  0  0  0  0  0  0
   -0.0570   -2.2622   -0.7851 H   0  0  0  0  0  0  0  0  0  0  0  0
   -1.5207   -1.9315    1.2925 H   0  0  0  0  0  0  0  0  0  0  0  0
   -1.8323    1.1287    1.3070 H   0  0  0  0  0  0  0  0  0  0  0  0
   -0.9854    1.7825   -1.3425 H   0  0  0  0  0  0  0  0  0  0  0  0
   -2.6607    1.2446   -1.6181 H   0  0  0  0  0  0  0  0  0  0  0  0
   -2.2724    2.6323   -0.4688 H   0  0  0  0  0  0  0  0  0  0  0  0
  1  2  1  0
  2  3  1  0
  3  4  1  0
  4  5  1  0
  5  6  1  0
  6  7  1  0
  7  8  1  0
  8  9  1  0
  6  4  1  0
  8  4  1  0
  1 10  1  0
  1 11  1  0
  1 12  1  0
  2 13  1  0
  2 14  1  0
  3 15  1  0
  3 16  1  0
  5 17  1  0
  5 18  1  0
  6 19  1  0
  8 20  1  0
  9 21  1  0
  9 22  1  0
  9 23  1  0
M  END
