
     RDKit          3D

 17 16  0  0  0  0  0  0  0  0999 V2000
   -2.1408   -0.2818   -0.0713 C   0  0  0  0  0  0  0  0  0  0  0  0
   -1.2496    0.8906    0.0362 C   0  0  0  0  0  0  0  0  0  0  0  0
    0.1736    0.6450   -0.3660 C   0  0  0  0  0  0  0  0  0  0  0  0
    0.8518   -0.4119    0.4533 C   0  0  0  0  0  0  0  0  0  0  0  0
    2.2679   -0.5817   -0.0270 C   0  0  0  0  0  0  0  0  0  0  0  0
   -2.5539   -0.5841    0.9298 H   0  0  0  0  0  0  0  0  0  0  0  0
   -1.7122   -1.1571   -0.5977 H   0  0  0  0  0  0  0  0  0  0  0  0
   -3.0516    0.0254   -0.6580 H   0  0  0  0  0  0  0  0  0  0  0  0
   -1.2295    1.2376    1.1056 H   0  0  0  0  0  0  0  0  0  0  0  0
   -1.5962    1.7899   -0.5399 H   0  0  0  0  0  0  0  0  0  0  0  0
    0.2384    0.3352   -1.4291 H   0  0  0  0  0  0  0  0  0  0  0  0
    0.7687    1.5764   -0.2767 H   0  0  0  0  0  0  0  0  0  0  0  0
    0.8607   -0.1628    1.5311 H   0  0  0  0  0  0  0  0  0  0  0  0
    0.3455   -1.3998    0.3464 H   0  0  0  0  0  0  0  0  0  0  0  0
    2.3741   -1.4096   -0.7587 H   0  0  0  0  0  0  0  0  0  0  0  0
    2.6800    0.3297   -0.4899 H   0  0  0  0  0  0  0  0  0  0  0  0
    2.9731   -0.8410    0.8119 H   0  0  0  0  0  0  0  0  0  0  0  0
  1  2  1  0
  2  3  1  0
  3  4  1  0
  4  5  1  0
  1  6  1  0
  1  7  1  0
  1  8  1  0
  2  9  1  0
  2 10  1  0
  3 11  1  0
  3 12  1  0
  4 13  1  0
  4 14  1  0
  5 15  1  0
  5 16  1  0
  5 17  1  0
M  END
