
     RDKit          3D

 17 16  0  0  0  0  0  0  0  0999 V2000
   -2.6047   -0.4961   -0.5428 C   0  0  0  0  0  0  0  0  0  0  0  0
   -1.1351   -0.4566   -0.3003 C   0  0  0  0  0  0  0  0  0  0  0  0
   -0.5894    0.9485   -0.2086 C   0  0  0  0  0  0  0  0  0  0  0  0
    0.8763    0.9118    0.0332 C   0  0  0  0  0  0  0  0  0  0  0  0
    1.5311    1.9707    0.1427 O   0  0  0  0  0  0  0  0  0  0  0  0
    1.5130   -0.2979    0.1365 O   0  0  0  0  0  0  0  0  0  0  0  0
    2.9031   -0.4465    0.3656 C   0  0  0  0  0  0  0  0  0  0  0  0
   -2.8748   -1.2570   -1.3109 H   0  0  0  0  0  0  0  0  0  0  0  0
   -3.0932   -0.8400    0.4047 H   0  0  0  0  0  0  0  0  0  0  0  0
   -2.9996    0.5077   -0.7900 H   0  0  0  0  0  0  0  0  0  0  0  0
   -0.6029   -0.9473   -1.1478 H   0  0  0  0  0  0  0  0  0  0  0  0
   -0.8314   -0.9804    0.6357 H   0  0  0  0  0  0  0  0  0  0  0  0
   -0.8450    1.5344   -1.1285 H   0  0  0  0  0  0  0  0  0  0  0  0
   -1.0923    1.4526    0.6463 H   0  0  0  0  0  0  0  0  0  0  0  0
    3.4920    0.3878   -0.0195 H   0  0  0  0  0  0  0  0  0  0  0  0
    3.1341   -0.6287    1.4435 H   0  0  0  0  0  0  0  0  0  0  0  0
    3.2189   -1.3630   -0.1769 H   0  0  0  0  0  0  0  0  0  0  0  0
  1  2  1  0
  2  3  1  0
  3  4  1  0
  4  5  2  0
  4  6  1  0
  6  7  1  0
  1  8  1  0
  1  9  1  0
  1 10  1  0
  2 11  1  0
  2 12  1  0
  3 13  1  0
  3 14  1  0
  7 15  1  0
  7 16  1  0
  7 17  1  0
M  END
