
     RDKit          3D

 19 19  0  0  0  0  0  0  0  0999 V2000
   -2.6299    0.7598    0.3924 C   0  0  0  0  0  0  0  0  0  0  0  0
   -1.6979   -0.4176    0.2738 C   0  0  0  0  0  0  0  0  0  0  0  0
   -0.3424    0.1138   -0.1325 C   0  0  0  0  0  0  0  0  0  0  0  0
    0.6706   -1.0215   -0.2764 C   0  0  0  0  0  0  0  0  0  0  0  0
    1.9769   -0.3761   -0.6820 C   0  0  0  0  0  0  0  0  0  0  0  0
    2.6132    0.6038    0.1639 C   0  0  0  0  0  0  0  0  0  0  0  0
    3.1577   -0.7722   -0.0916 O   0  0  0  0  0  0  0  0  0  0  0  0
   -2.1395    1.6265    0.8302 H   0  0  0  0  0  0  0  0  0  0  0  0
   -3.4671    0.4676    1.0567 H   0  0  0  0  0  0  0  0  0  0  0  0
   -3.0615    1.0294   -0.6113 H   0  0  0  0  0  0  0  0  0  0  0  0
   -1.5946   -0.8821    1.2669 H   0  0  0  0  0  0  0  0  0  0  0  0
   -2.0134   -1.1328   -0.4889 H   0  0  0  0  0  0  0  0  0  0  0  0
   -0.3654    0.6297   -1.1116 H   0  0  0  0  0  0  0  0  0  0  0  0
    0.0718    0.7898    0.6518 H   0  0  0  0  0  0  0  0  0  0  0  0
    0.3276   -1.7088   -1.0673 H   0  0  0  0  0  0  0  0  0  0  0  0
    0.7423   -1.5752    0.6639 H   0  0  0  0  0  0  0  0  0  0  0  0
    2.0394   -0.2071   -1.7892 H   0  0  0  0  0  0  0  0  0  0  0  0
    2.4690    0.6889    1.2401 H   0  0  0  0  0  0  0  0  0  0  0  0
    3.2431    1.3843   -0.2888 H   0  0  0  0  0  0  0  0  0  0  0  0
  1  2  1  0
  2  3  1  0
  3  4  1  0
  4  5  1  0
  5  6  1  0
  6  7  1  0
  7  5  1  0
  1  8  1  0
  1  9  1  0
  1 10  1  0
  2 11  1  0
  2 12  1  0
  3 13  1  0
  3 14  1  0
  4 15  1  0
  4 16  1  0
  5 17  1  0
  6 18  1  0
  6 19  1  0
M  END
