
     RDKit          3D

 23 24  0  0  0  0  0  0  0  0999 V2000
    2.4844   -0.6393   -0.4640 C   0  0  0  0  0  0  0  0  0  0  0  0
    1.7836   -0.8187    0.8246 C   0  0  0  0  0  0  0  0  0  0  0  0
    0.3078   -1.0884    0.7083 C   0  0  0  0  0  0  0  0  0  0  0  0
   -0.4263    0.0325    0.0140 C   0  0  0  0  0  0  0  0  0  0  0  0
   -0.3572    1.3838    0.6497 C   0  0  0  0  0  0  0  0  0  0  0  0
   -1.3762    2.1469    0.0872 O   0  0  0  0  0  0  0  0  0  0  0  0
   -2.4287    1.3098   -0.1675 C   0  0  0  0  0  0  0  0  0  0  0  0
   -1.8459   -0.0937   -0.3570 C   0  0  0  0  0  0  0  0  0  0  0  0
   -0.7954   -0.1580   -1.4030 C   0  0  0  0  0  0  0  0  0  0  0  0
    3.1679    0.2568   -0.4595 H   0  0  0  0  0  0  0  0  0  0  0  0
    1.8604   -0.5681   -1.3533 H   0  0  0  0  0  0  0  0  0  0  0  0
    3.1810   -1.5091   -0.6368 H   0  0  0  0  0  0  0  0  0  0  0  0
    1.9236    0.1026    1.4518 H   0  0  0  0  0  0  0  0  0  0  0  0
    2.2372   -1.6441    1.4108 H   0  0  0  0  0  0  0  0  0  0  0  0
   -0.0955   -1.3040    1.7194 H   0  0  0  0  0  0  0  0  0  0  0  0
    0.1355   -2.0077    0.1103 H   0  0  0  0  0  0  0  0  0  0  0  0
   -0.6189    1.2621    1.7377 H   0  0  0  0  0  0  0  0  0  0  0  0
    0.6131    1.8717    0.6055 H   0  0  0  0  0  0  0  0  0  0  0  0
   -3.2277    1.3183    0.5881 H   0  0  0  0  0  0  0  0  0  0  0  0
   -2.8312    1.5884   -1.1834 H   0  0  0  0  0  0  0  0  0  0  0  0
   -2.4355   -0.9616   -0.0529 H   0  0  0  0  0  0  0  0  0  0  0  0
   -0.6015   -1.1645   -1.8206 H   0  0  0  0  0  0  0  0  0  0  0  0
   -0.6546    0.6840   -2.1131 H   0  0  0  0  0  0  0  0  0  0  0  0
  1  2  1  0
  2  3  1  0
  3  4  1  0
  4  5  1  0
  5  6  1  0
  6  7  1  0
  7  8  1  0
  8  9  1  0
  8  4  1  0
  9  4  1  0
  1 10  1  0
  1 11  1  0
  1 12  1  0
  2 13  1  0
  2 14  1  0
  3 15  1  0
  3 16  1  0
  5 17  1  0
  5 18  1  0
  7 19  1  0
  7 20  1  0
  8 21  1  0
  9 22  1  0
  9 23  1  0
M  END
