
     RDKit          3D

 21 21  0  0  0  0  0  0  0  0999 V2000
    2.6849    0.3448   -0.3402 C   0  0  0  0  0  0  0  0  0  0  0  0
    1.1685    0.5389   -0.2178 C   0  0  0  0  0  0  0  0  0  0  0  0
    0.6251   -0.8091    0.1738 C   0  0  0  0  0  0  0  0  0  0  0  0
   -0.8669   -0.8268    0.3456 C   0  0  0  0  0  0  0  0  0  0  0  0
   -1.3659    0.1101    1.3976 C   0  0  0  0  0  0  0  0  0  0  0  0
   -2.1451    1.0992    0.7661 O   0  0  0  0  0  0  0  0  0  0  0  0
   -1.9916    0.9710   -0.5947 C   0  0  0  0  0  0  0  0  0  0  0  0
   -2.1390    1.8701   -1.4395 O   0  0  0  0  0  0  0  0  0  0  0  0
   -1.6214   -0.4219   -0.8738 C   0  0  0  0  0  0  0  0  0  0  0  0
    3.1167    1.0971   -1.0142 H   0  0  0  0  0  0  0  0  0  0  0  0
    2.8715   -0.6805   -0.7226 H   0  0  0  0  0  0  0  0  0  0  0  0
    3.1482    0.3719    0.6808 H   0  0  0  0  0  0  0  0  0  0  0  0
    0.8344    0.8586   -1.2262 H   0  0  0  0  0  0  0  0  0  0  0  0
    1.0218    1.3047    0.5492 H   0  0  0  0  0  0  0  0  0  0  0  0
    0.8868   -1.5341   -0.6061 H   0  0  0  0  0  0  0  0  0  0  0  0
    1.0752   -1.0832    1.1510 H   0  0  0  0  0  0  0  0  0  0  0  0
   -1.1497   -1.8641    0.6200 H   0  0  0  0  0  0  0  0  0  0  0  0
   -1.9783   -0.4273    2.1608 H   0  0  0  0  0  0  0  0  0  0  0  0
   -0.5302    0.6505    1.9106 H   0  0  0  0  0  0  0  0  0  0  0  0
   -1.0629   -0.5573   -1.8174 H   0  0  0  0  0  0  0  0  0  0  0  0
   -2.5823   -1.0124   -0.9032 H   0  0  0  0  0  0  0  0  0  0  0  0
  1  2  1  0
  2  3  1  0
  3  4  1  0
  4  5  1  0
  5  6  1  0
  6  7  1  0
  7  8  2  0
  7  9  1  0
  9  4  1  0
  1 10  1  0
  1 11  1  0
  1 12  1  0
  2 13  1  0
  2 14  1  0
  3 15  1  0
  3 16  1  0
  4 17  1  0
  5 18  1  0
  5 19  1  0
  9 20  1  0
  9 21  1  0
M  END
