
     RDKit          3D

 21 22  0  0  0  0  0  0  0  0999 V2000
    2.2905   -0.9729    0.1421 C   0  0  0  0  0  0  0  0  0  0  0  0
    1.9910    0.4519    0.4355 C   0  0  0  0  0  0  0  0  0  0  0  0
    0.9320    1.0739   -0.4003 C   0  0  0  0  0  0  0  0  0  0  0  0
   -0.4016    0.3942   -0.2761 C   0  0  0  0  0  0  0  0  0  0  0  0
   -0.7319   -0.6521    0.4635 C   0  0  0  0  0  0  0  0  0  0  0  0
   -2.1897   -0.9064    0.2102 C   0  0  0  0  0  0  0  0  0  0  0  0
   -2.5758    0.5505    0.1544 C   0  0  0  0  0  0  0  0  0  0  0  0
   -2.6851    1.4337   -0.7813 O   0  0  0  0  0  0  0  0  0  0  0  0
   -1.5770    0.7978   -1.0240 C   0  0  0  0  0  0  0  0  0  0  0  0
    1.6012   -1.4680   -0.5580 H   0  0  0  0  0  0  0  0  0  0  0  0
    3.3130   -1.1286   -0.2776 H   0  0  0  0  0  0  0  0  0  0  0  0
    2.2721   -1.5446    1.0896 H   0  0  0  0  0  0  0  0  0  0  0  0
    2.9297    1.0374    0.2480 H   0  0  0  0  0  0  0  0  0  0  0  0
    1.7941    0.6092    1.5352 H   0  0  0  0  0  0  0  0  0  0  0  0
    1.2710    1.1260   -1.4521 H   0  0  0  0  0  0  0  0  0  0  0  0
    0.7774    2.1101   -0.0599 H   0  0  0  0  0  0  0  0  0  0  0  0
   -0.1000   -1.2053    1.1088 H   0  0  0  0  0  0  0  0  0  0  0  0
   -2.2500   -1.3813   -0.7890 H   0  0  0  0  0  0  0  0  0  0  0  0
   -2.6797   -1.4503    1.0041 H   0  0  0  0  0  0  0  0  0  0  0  0
   -2.2721    1.0282    1.1409 H   0  0  0  0  0  0  0  0  0  0  0  0
   -1.7090    0.0965   -1.9141 H   0  0  0  0  0  0  0  0  0  0  0  0
  1  2  1  0
  2  3  1  0
  3  4  1  0
  4  5  2  0
  5  6  1  0
  6  7  1  0
  7  8  1  0
  8  9  1  0
  9  4  1  0
  9  7  1  0
  1 10  1  0
  1 11  1  0
  1 12  1  0
  2 13  1  0
  2 14  1  0
  3 15  1  0
  3 16  1  0
  5 17  1  0
  6 18  1  0
  6 19  1  0
  7 20  1  0
  9 21  1  0
M  END
