
     RDKit          3D

 25 25  0  0  0  0  0  0  0  0999 V2000
    3.3698    0.1838   -0.1982 C   0  0  0  0  0  0  0  0  0  0  0  0
    2.0636   -0.5872   -0.0854 C   0  0  0  0  0  0  0  0  0  0  0  0
    0.9537    0.4302   -0.0719 C   0  0  0  0  0  0  0  0  0  0  0  0
   -0.4142   -0.2086    0.0380 C   0  0  0  0  0  0  0  0  0  0  0  0
   -0.7399   -1.1520   -1.0998 C   0  0  0  0  0  0  0  0  0  0  0  0
   -0.8928   -0.5262    1.4009 C   0  0  0  0  0  0  0  0  0  0  0  0
   -1.4847    0.6294    0.6211 C   0  0  0  0  0  0  0  0  0  0  0  0
   -2.9230    0.4681    0.2537 C   0  0  0  0  0  0  0  0  0  0  0  0
   -1.1372    1.9263    1.0135 O   0  0  0  0  0  0  0  0  0  0  0  0
    3.9183   -0.2035   -1.0958 H   0  0  0  0  0  0  0  0  0  0  0  0
    3.2114    1.2613   -0.3650 H   0  0  0  0  0  0  0  0  0  0  0  0
    4.0417    0.0010    0.6630 H   0  0  0  0  0  0  0  0  0  0  0  0
    1.9586   -1.3190   -0.9104 H   0  0  0  0  0  0  0  0  0  0  0  0
    2.0764   -1.0749    0.9130 H   0  0  0  0  0  0  0  0  0  0  0  0
    1.1460    1.0892    0.8212 H   0  0  0  0  0  0  0  0  0  0  0  0
    0.9723    1.0864   -0.9755 H   0  0  0  0  0  0  0  0  0  0  0  0
   -0.8029   -0.5818   -2.0518 H   0  0  0  0  0  0  0  0  0  0  0  0
    0.0318   -1.9159   -1.2139 H   0  0  0  0  0  0  0  0  0  0  0  0
   -1.6886   -1.6801   -0.8571 H   0  0  0  0  0  0  0  0  0  0  0  0
   -1.5083   -1.4429    1.5425 H   0  0  0  0  0  0  0  0  0  0  0  0
   -0.3366   -0.2147    2.3031 H   0  0  0  0  0  0  0  0  0  0  0  0
   -3.0939   -0.1743   -0.6318 H   0  0  0  0  0  0  0  0  0  0  0  0
   -3.4578   -0.0220    1.0964 H   0  0  0  0  0  0  0  0  0  0  0  0
   -3.4420    1.4470    0.0904 H   0  0  0  0  0  0  0  0  0  0  0  0
   -1.8216    2.5803    0.7340 H   0  0  0  0  0  0  0  0  0  0  0  0
  1  2  1  0
  2  3  1  0
  3  4  1  0
  4  5  1  0
  4  6  1  0
  6  7  1  0
  7  8  1  0
  7  9  1  0
  7  4  1  0
  1 10  1  0
  1 11  1  0
  1 12  1  0
  2 13  1  0
  2 14  1  0
  3 15  1  0
  3 16  1  0
  5 17  1  0
  5 18  1  0
  5 19  1  0
  6 20  1  0
  6 21  1  0
  8 22  1  0
  8 23  1  0
  8 24  1  0
  9 25  1  0
M  END
