
     RDKit          3D

 23 24  0  0  0  0  0  0  0  0999 V2000
    2.4711   -0.3989   -0.0252 C   0  0  0  0  0  0  0  0  0  0  0  0
    1.7384    0.8533   -0.3710 C   0  0  0  0  0  0  0  0  0  0  0  0
    0.5795    1.0755    0.5703 C   0  0  0  0  0  0  0  0  0  0  0  0
   -0.3621    0.0624    0.5386 C   0  0  0  0  0  0  0  0  0  0  0  0
   -0.2231   -1.3742    0.8328 C   0  0  0  0  0  0  0  0  0  0  0  0
   -1.6683   -1.1131    0.5531 C   0  0  0  0  0  0  0  0  0  0  0  0
   -1.5321    0.0312    1.2969 O   0  0  0  0  0  0  0  0  0  0  0  0
   -1.2241   -0.3055   -0.6287 C   0  0  0  0  0  0  0  0  0  0  0  0
   -2.2198    0.7659   -0.9987 C   0  0  0  0  0  0  0  0  0  0  0  0
    2.1685   -0.8127    0.9654 H   0  0  0  0  0  0  0  0  0  0  0  0
    3.5591   -0.1610    0.0644 H   0  0  0  0  0  0  0  0  0  0  0  0
    2.3236   -1.1894   -0.8026 H   0  0  0  0  0  0  0  0  0  0  0  0
    1.3721    0.7437   -1.4357 H   0  0  0  0  0  0  0  0  0  0  0  0
    2.4374    1.7255   -0.3756 H   0  0  0  0  0  0  0  0  0  0  0  0
    0.9526    1.2695    1.6092 H   0  0  0  0  0  0  0  0  0  0  0  0
    0.1294    2.0604    0.2703 H   0  0  0  0  0  0  0  0  0  0  0  0
   -0.0828   -1.6184    1.9107 H   0  0  0  0  0  0  0  0  0  0  0  0
    0.3009   -2.0312    0.1234 H   0  0  0  0  0  0  0  0  0  0  0  0
   -2.4214   -1.7834    0.5730 H   0  0  0  0  0  0  0  0  0  0  0  0
   -0.7533   -0.8387   -1.4580 H   0  0  0  0  0  0  0  0  0  0  0  0
   -2.2295    0.9809   -2.0790 H   0  0  0  0  0  0  0  0  0  0  0  0
   -2.0607    1.6757   -0.3710 H   0  0  0  0  0  0  0  0  0  0  0  0
   -3.2557    0.3824   -0.7626 H   0  0  0  0  0  0  0  0  0  0  0  0
  1  2  1  0
  2  3  1  0
  3  4  1  0
  4  5  1  0
  5  6  1  0
  6  7  1  0
  6  8  1  0
  8  9  1  0
  7  4  1  0
  8  4  1  0
  1 10  1  0
  1 11  1  0
  1 12  1  0
  2 13  1  0
  2 14  1  0
  3 15  1  0
  3 16  1  0
  5 17  1  0
  5 18  1  0
  6 19  1  0
  8 20  1  0
  9 21  1  0
  9 22  1  0
  9 23  1  0
M  END
