
     RDKit          3D

 25 26  0  0  0  0  0  0  0  0999 V2000
   -3.3152    0.1923   -0.1137 C   0  0  0  0  0  0  0  0  0  0  0  0
   -1.9375   -0.4140    0.0408 C   0  0  0  0  0  0  0  0  0  0  0  0
   -0.8559    0.5433   -0.3728 C   0  0  0  0  0  0  0  0  0  0  0  0
    0.5136    0.0584   -0.2617 C   0  0  0  0  0  0  0  0  0  0  0  0
    1.5219    1.0899   -0.6998 C   0  0  0  0  0  0  0  0  0  0  0  0
    2.0134    1.1528    0.7495 C   0  0  0  0  0  0  0  0  0  0  0  0
    1.2181   -0.0742    1.0170 C   0  0  0  0  0  0  0  0  0  0  0  0
    1.9178   -1.3174    0.4602 C   0  0  0  0  0  0  0  0  0  0  0  0
    0.8309   -1.3581   -0.5882 C   0  0  0  0  0  0  0  0  0  0  0  0
   -3.6456    0.7193    0.8050 H   0  0  0  0  0  0  0  0  0  0  0  0
   -3.3671    0.9260   -0.9378 H   0  0  0  0  0  0  0  0  0  0  0  0
   -4.0880   -0.6087   -0.2883 H   0  0  0  0  0  0  0  0  0  0  0  0
   -1.8242   -0.7205    1.0762 H   0  0  0  0  0  0  0  0  0  0  0  0
   -1.8422   -1.3140   -0.6353 H   0  0  0  0  0  0  0  0  0  0  0  0
   -0.9841    1.4956    0.2140 H   0  0  0  0  0  0  0  0  0  0  0  0
   -1.0646    0.8306   -1.4263 H   0  0  0  0  0  0  0  0  0  0  0  0
    2.2710    0.7673   -1.4283 H   0  0  0  0  0  0  0  0  0  0  0  0
    1.0672    2.0696   -0.9539 H   0  0  0  0  0  0  0  0  0  0  0  0
    3.1216    0.9755    0.7811 H   0  0  0  0  0  0  0  0  0  0  0  0
    1.7554    2.0645    1.2888 H   0  0  0  0  0  0  0  0  0  0  0  0
    0.6977   -0.1906    1.9465 H   0  0  0  0  0  0  0  0  0  0  0  0
    2.8915   -1.1321    0.0006 H   0  0  0  0  0  0  0  0  0  0  0  0
    1.9249   -2.1474    1.1787 H   0  0  0  0  0  0  0  0  0  0  0  0
    1.1577   -1.5781   -1.6137 H   0  0  0  0  0  0  0  0  0  0  0  0
    0.0218   -2.0302   -0.2387 H   0  0  0  0  0  0  0  0  0  0  0  0
  1  2  1  0
  2  3  1  0
  3  4  1  0
  4  5  1  0
  5  6  1  0
  6  7  1  0
  7  8  1  0
  8  9  1  0
  7  4  1  0
  9  4  1  0
  1 10  1  0
  1 11  1  0
  1 12  1  0
  2 13  1  0
  2 14  1  0
  3 15  1  0
  3 16  1  0
  5 17  1  0
  5 18  1  0
  6 19  1  0
  6 20  1  0
  7 21  1  0
  8 22  1  0
  8 23  1  0
  9 24  1  0
  9 25  1  0
M  END
