
     RDKit          3D

 25 24  0  0  0  0  0  0  0  0999 V2000
   -3.4584   -0.7106    0.5218 C   0  0  0  0  0  0  0  0  0  0  0  0
   -3.0384   -0.4654   -0.9057 C   0  0  0  0  0  0  0  0  0  0  0  0
   -1.9099    0.5407   -0.9093 C   0  0  0  0  0  0  0  0  0  0  0  0
   -0.7137    0.0014   -0.1060 C   0  0  0  0  0  0  0  0  0  0  0  0
    0.2483    0.9707   -0.1651 O   0  0  0  0  0  0  0  0  0  0  0  0
    1.4260    0.7154    0.5074 C   0  0  0  0  0  0  0  0  0  0  0  0
    2.0720   -0.5071   -0.0371 C   0  0  0  0  0  0  0  0  0  0  0  0
    3.2698   -0.8350    0.5822 O   0  0  0  0  0  0  0  0  0  0  0  0
    4.2285    0.1313    0.4869 C   0  0  0  0  0  0  0  0  0  0  0  0
   -4.4832   -1.1697    0.4727 H   0  0  0  0  0  0  0  0  0  0  0  0
   -3.5175    0.2978    1.0216 H   0  0  0  0  0  0  0  0  0  0  0  0
   -2.7627   -1.3906    1.0154 H   0  0  0  0  0  0  0  0  0  0  0  0
   -2.6451   -1.4115   -1.3305 H   0  0  0  0  0  0  0  0  0  0  0  0
   -3.8865   -0.0883   -1.4955 H   0  0  0  0  0  0  0  0  0  0  0  0
   -2.2221    1.5013   -0.4558 H   0  0  0  0  0  0  0  0  0  0  0  0
   -1.5234    0.7084   -1.9355 H   0  0  0  0  0  0  0  0  0  0  0  0
   -1.0877   -0.2275    0.8915 H   0  0  0  0  0  0  0  0  0  0  0  0
   -0.4473   -0.9630   -0.5997 H   0  0  0  0  0  0  0  0  0  0  0  0
    1.1984    0.6274    1.6031 H   0  0  0  0  0  0  0  0  0  0  0  0
    2.0694    1.6216    0.3938 H   0  0  0  0  0  0  0  0  0  0  0  0
    1.3637   -1.3686    0.1437 H   0  0  0  0  0  0  0  0  0  0  0  0
    2.1670   -0.4069   -1.1346 H   0  0  0  0  0  0  0  0  0  0  0  0
    5.1363   -0.2300    1.0104 H   0  0  0  0  0  0  0  0  0  0  0  0
    4.5604    0.3278   -0.5703 H   0  0  0  0  0  0  0  0  0  0  0  0
    3.9560    1.0917    0.9946 H   0  0  0  0  0  0  0  0  0  0  0  0
  1  2  1  0
  2  3  1  0
  3  4  1  0
  4  5  1  0
  5  6  1  0
  6  7  1  0
  7  8  1  0
  8  9  1  0
  1 10  1  0
  1 11  1  0
  1 12  1  0
  2 13  1  0
  2 14  1  0
  3 15  1  0
  3 16  1  0
  4 17  1  0
  4 18  1  0
  6 19  1  0
  6 20  1  0
  7 21  1  0
  7 22  1  0
  9 23  1  0
  9 24  1  0
  9 25  1  0
M  END
