
     RDKit          3D

 27 27  0  0  0  0  0  0  0  0999 V2000
    3.5889   -0.0489   -0.5104 C   0  0  0  0  0  0  0  0  0  0  0  0
    2.2554    0.3015    0.1070 C   0  0  0  0  0  0  0  0  0  0  0  0
    1.1573   -0.5204   -0.5255 C   0  0  0  0  0  0  0  0  0  0  0  0
   -0.1874   -0.2161    0.0470 C   0  0  0  0  0  0  0  0  0  0  0  0
   -0.3626   -0.4529    1.5249 C   0  0  0  0  0  0  0  0  0  0  0  0
   -1.3300   -0.4637   -0.8719 C   0  0  0  0  0  0  0  0  0  0  0  0
   -2.5860   -1.1329   -0.3678 C   0  0  0  0  0  0  0  0  0  0  0  0
   -1.0027    0.9303   -0.4769 C   0  0  0  0  0  0  0  0  0  0  0  0
   -2.0139    1.6110    0.3866 C   0  0  0  0  0  0  0  0  0  0  0  0
    4.1721   -0.7536    0.1491 H   0  0  0  0  0  0  0  0  0  0  0  0
    3.4769   -0.5509   -1.4927 H   0  0  0  0  0  0  0  0  0  0  0  0
    4.2162    0.8786   -0.5893 H   0  0  0  0  0  0  0  0  0  0  0  0
    2.0878    1.3772    0.0046 H   0  0  0  0  0  0  0  0  0  0  0  0
    2.2928    0.0053    1.1874 H   0  0  0  0  0  0  0  0  0  0  0  0
    1.1285   -0.2438   -1.6143 H   0  0  0  0  0  0  0  0  0  0  0  0
    1.4272   -1.5959   -0.5109 H   0  0  0  0  0  0  0  0  0  0  0  0
   -1.2940    0.0129    1.9080 H   0  0  0  0  0  0  0  0  0  0  0  0
   -0.4076   -1.5170    1.7908 H   0  0  0  0  0  0  0  0  0  0  0  0
    0.4649    0.0274    2.0942 H   0  0  0  0  0  0  0  0  0  0  0  0
   -1.1265   -0.7002   -1.9384 H   0  0  0  0  0  0  0  0  0  0  0  0
   -2.5454   -2.2009   -0.6989 H   0  0  0  0  0  0  0  0  0  0  0  0
   -3.4461   -0.6808   -0.8934 H   0  0  0  0  0  0  0  0  0  0  0  0
   -2.6735   -1.1150    0.7328 H   0  0  0  0  0  0  0  0  0  0  0  0
   -0.4518    1.5976   -1.1612 H   0  0  0  0  0  0  0  0  0  0  0  0
   -1.4860    2.2122    1.1485 H   0  0  0  0  0  0  0  0  0  0  0  0
   -2.7645    0.9232    0.8262 H   0  0  0  0  0  0  0  0  0  0  0  0
   -2.5899    2.3157   -0.2555 H   0  0  0  0  0  0  0  0  0  0  0  0
  1  2  1  0
  2  3  1  0
  3  4  1  0
  4  5  1  0
  4  6  1  0
  6  7  1  0
  6  8  1  0
  8  9  1  0
  8  4  1  0
  1 10  1  0
  1 11  1  0
  1 12  1  0
  2 13  1  0
  2 14  1  0
  3 15  1  0
  3 16  1  0
  5 17  1  0
  5 18  1  0
  5 19  1  0
  6 20  1  0
  7 21  1  0
  7 22  1  0
  7 23  1  0
  8 24  1  0
  9 25  1  0
  9 26  1  0
  9 27  1  0
M  END
