
     RDKit          3D

 23 24  0  0  0  0  0  0  0  0999 V2000
   -2.6476    0.2730   -0.3334 C   0  0  0  0  0  0  0  0  0  0  0  0
   -1.9406   -0.2534    0.8995 C   0  0  0  0  0  0  0  0  0  0  0  0
   -0.7038   -1.0223    0.4805 C   0  0  0  0  0  0  0  0  0  0  0  0
    0.2469   -0.1387   -0.2828 C   0  0  0  0  0  0  0  0  0  0  0  0
    0.7062    1.0397    0.5368 C   0  0  0  0  0  0  0  0  0  0  0  0
    2.0632    1.3473   -0.0030 C   0  0  0  0  0  0  0  0  0  0  0  0
    2.0446    1.3933   -1.4580 O   0  0  0  0  0  0  0  0  0  0  0  0
    2.5022    0.2397   -0.8091 C   0  0  0  0  0  0  0  0  0  0  0  0
    1.5385   -0.8781   -0.5265 C   0  0  0  0  0  0  0  0  0  0  0  0
   -2.5779    1.3782   -0.4202 H   0  0  0  0  0  0  0  0  0  0  0  0
   -3.7188   -0.0013   -0.2843 H   0  0  0  0  0  0  0  0  0  0  0  0
   -2.1925   -0.1923   -1.2382 H   0  0  0  0  0  0  0  0  0  0  0  0
   -1.6897    0.6096    1.5425 H   0  0  0  0  0  0  0  0  0  0  0  0
   -2.6289   -0.8918    1.4897 H   0  0  0  0  0  0  0  0  0  0  0  0
   -0.1672   -1.3796    1.3852 H   0  0  0  0  0  0  0  0  0  0  0  0
   -0.9737   -1.8828   -0.1607 H   0  0  0  0  0  0  0  0  0  0  0  0
   -0.1836    0.2129   -1.2436 H   0  0  0  0  0  0  0  0  0  0  0  0
    0.0228    1.8821    0.3102 H   0  0  0  0  0  0  0  0  0  0  0  0
    0.7026    0.8257    1.6058 H   0  0  0  0  0  0  0  0  0  0  0  0
    2.7222    2.0893    0.4738 H   0  0  0  0  0  0  0  0  0  0  0  0
    3.5636    0.0235   -1.0329 H   0  0  0  0  0  0  0  0  0  0  0  0
    1.4691   -1.6076   -1.3552 H   0  0  0  0  0  0  0  0  0  0  0  0
    1.8425   -1.3877    0.4237 H   0  0  0  0  0  0  0  0  0  0  0  0
  1  2  1  0
  2  3  1  0
  3  4  1  0
  4  5  1  0
  5  6  1  0
  6  7  1  0
  7  8  1  0
  8  9  1  0
  9  4  1  0
  8  6  1  0
  1 10  1  0
  1 11  1  0
  1 12  1  0
  2 13  1  0
  2 14  1  0
  3 15  1  0
  3 16  1  0
  4 17  1  0
  5 18  1  0
  5 19  1  0
  6 20  1  0
  8 21  1  0
  9 22  1  0
  9 23  1  0
M  END
