
     RDKit          3D

 27 27  0  0  0  0  0  0  0  0999 V2000
    3.6608   -0.1252   -1.0137 C   0  0  0  0  0  0  0  0  0  0  0  0
    2.7194    0.3741    0.0450 C   0  0  0  0  0  0  0  0  0  0  0  0
    1.3393   -0.3035   -0.0886 C   0  0  0  0  0  0  0  0  0  0  0  0
    0.5097    0.2857    1.0229 C   0  0  0  0  0  0  0  0  0  0  0  0
   -0.8696   -0.2294    1.1258 C   0  0  0  0  0  0  0  0  0  0  0  0
   -1.7835   -0.0505   -0.0307 C   0  0  0  0  0  0  0  0  0  0  0  0
   -1.4596   -0.6617   -1.3796 C   0  0  0  0  0  0  0  0  0  0  0  0
   -2.7170    1.1282   -0.0824 C   0  0  0  0  0  0  0  0  0  0  0  0
   -3.2849   -0.1517    0.3528 C   0  0  0  0  0  0  0  0  0  0  0  0
    4.5096   -0.7079   -0.6167 H   0  0  0  0  0  0  0  0  0  0  0  0
    4.0564    0.7910   -1.5403 H   0  0  0  0  0  0  0  0  0  0  0  0
    3.1306   -0.7893   -1.7319 H   0  0  0  0  0  0  0  0  0  0  0  0
    2.5572    1.4680    0.0120 H   0  0  0  0  0  0  0  0  0  0  0  0
    3.0547    0.1223    1.0739 H   0  0  0  0  0  0  0  0  0  0  0  0
    0.9969   -0.0046   -1.1023 H   0  0  0  0  0  0  0  0  0  0  0  0
    1.4532   -1.3855    0.0058 H   0  0  0  0  0  0  0  0  0  0  0  0
    1.0791    0.0229    1.9678 H   0  0  0  0  0  0  0  0  0  0  0  0
    0.5775    1.3976    0.9907 H   0  0  0  0  0  0  0  0  0  0  0  0
   -1.3513    0.2827    2.0130 H   0  0  0  0  0  0  0  0  0  0  0  0
   -0.8366   -1.3034    1.4478 H   0  0  0  0  0  0  0  0  0  0  0  0
   -2.4075   -1.0875   -1.8142 H   0  0  0  0  0  0  0  0  0  0  0  0
   -0.7835   -1.5316   -1.2981 H   0  0  0  0  0  0  0  0  0  0  0  0
   -1.1200    0.0818   -2.1290 H   0  0  0  0  0  0  0  0  0  0  0  0
   -2.5830    1.9352    0.6881 H   0  0  0  0  0  0  0  0  0  0  0  0
   -2.9882    1.5067   -1.0879 H   0  0  0  0  0  0  0  0  0  0  0  0
   -3.5311   -0.3083    1.4202 H   0  0  0  0  0  0  0  0  0  0  0  0
   -3.9285   -0.7563   -0.3230 H   0  0  0  0  0  0  0  0  0  0  0  0
  1  2  1  0
  2  3  1  0
  3  4  1  0
  4  5  1  0
  5  6  1  0
  6  7  1  0
  6  8  1  0
  8  9  1  0
  9  6  1  0
  1 10  1  0
  1 11  1  0
  1 12  1  0
  2 13  1  0
  2 14  1  0
  3 15  1  0
  3 16  1  0
  4 17  1  0
  4 18  1  0
  5 19  1  0
  5 20  1  0
  7 21  1  0
  7 22  1  0
  7 23  1  0
  8 24  1  0
  8 25  1  0
  9 26  1  0
  9 27  1  0
M  END
