
     RDKit          3D

 23 22  0  0  0  0  0  0  0  0999 V2000
   -3.1434   -0.9180   -0.0952 C   0  0  0  0  0  0  0  0  0  0  0  0
   -2.8334    0.2522    0.7939 C   0  0  0  0  0  0  0  0  0  0  0  0
   -1.3199    0.4945    0.8869 C   0  0  0  0  0  0  0  0  0  0  0  0
   -0.7937    0.7719   -0.4760 C   0  0  0  0  0  0  0  0  0  0  0  0
    0.5653    1.0191   -0.5885 O   0  0  0  0  0  0  0  0  0  0  0  0
    1.5277    0.0976   -0.2217 C   0  0  0  0  0  0  0  0  0  0  0  0
    1.0921   -0.9913    0.2241 O   0  0  0  0  0  0  0  0  0  0  0  0
    2.9392    0.4510   -0.3763 C   0  0  0  0  0  0  0  0  0  0  0  0
    3.8889   -0.6158    0.0495 C   0  0  0  0  0  0  0  0  0  0  0  0
   -3.4277   -0.5682   -1.1087 H   0  0  0  0  0  0  0  0  0  0  0  0
   -4.0113   -1.5039    0.2853 H   0  0  0  0  0  0  0  0  0  0  0  0
   -2.2424   -1.5757   -0.2092 H   0  0  0  0  0  0  0  0  0  0  0  0
   -3.3588    1.1590    0.4291 H   0  0  0  0  0  0  0  0  0  0  0  0
   -3.2286    0.0567    1.8157 H   0  0  0  0  0  0  0  0  0  0  0  0
   -0.9083   -0.4605    1.2674 H   0  0  0  0  0  0  0  0  0  0  0  0
   -1.1224    1.2723    1.6268 H   0  0  0  0  0  0  0  0  0  0  0  0
   -1.1566   -0.0293   -1.1768 H   0  0  0  0  0  0  0  0  0  0  0  0
   -1.3245    1.6996   -0.8466 H   0  0  0  0  0  0  0  0  0  0  0  0
    3.1390    0.6495   -1.4694 H   0  0  0  0  0  0  0  0  0  0  0  0
    3.1694    1.3806    0.2046 H   0  0  0  0  0  0  0  0  0  0  0  0
    4.8709   -0.4063   -0.4676 H   0  0  0  0  0  0  0  0  0  0  0  0
    4.0909   -0.6101    1.1378 H   0  0  0  0  0  0  0  0  0  0  0  0
    3.5875   -1.6249   -0.2793 H   0  0  0  0  0  0  0  0  0  0  0  0
  1  2  1  0
  2  3  1  0
  3  4  1  0
  4  5  1  0
  5  6  1  0
  6  7  2  0
  6  8  1  0
  8  9  1  0
  1 10  1  0
  1 11  1  0
  1 12  1  0
  2 13  1  0
  2 14  1  0
  3 15  1  0
  3 16  1  0
  4 17  1  0
  4 18  1  0
  8 19  1  0
  8 20  1  0
  9 21  1  0
  9 22  1  0
  9 23  1  0
M  END
