
     RDKit          3D

 25 25  0  0  0  0  0  0  0  0999 V2000
   -3.0675    0.8844   -0.0813 C   0  0  0  0  0  0  0  0  0  0  0  0
   -2.5528   -0.5242   -0.2652 C   0  0  0  0  0  0  0  0  0  0  0  0
   -1.2699   -0.6608    0.5126 C   0  0  0  0  0  0  0  0  0  0  0  0
   -0.2052    0.2911    0.0648 C   0  0  0  0  0  0  0  0  0  0  0  0
    1.0515    0.0747    0.9115 C   0  0  0  0  0  0  0  0  0  0  0  0
    1.7104   -0.6899   -0.2108 C   0  0  0  0  0  0  0  0  0  0  0  0
    3.0764   -0.1725   -0.6074 C   0  0  0  0  0  0  0  0  0  0  0  0
    2.9244    1.1441   -1.0200 O   0  0  0  0  0  0  0  0  0  0  0  0
    0.6141   -0.1895   -1.1245 C   0  0  0  0  0  0  0  0  0  0  0  0
   -2.7516    1.5526   -0.9114 H   0  0  0  0  0  0  0  0  0  0  0  0
   -2.6912    1.2594    0.9063 H   0  0  0  0  0  0  0  0  0  0  0  0
   -4.1841    0.8359   -0.0053 H   0  0  0  0  0  0  0  0  0  0  0  0
   -3.2901   -1.2199    0.2330 H   0  0  0  0  0  0  0  0  0  0  0  0
   -2.4712   -0.8414   -1.3025 H   0  0  0  0  0  0  0  0  0  0  0  0
   -1.4459   -0.4876    1.5935 H   0  0  0  0  0  0  0  0  0  0  0  0
   -0.8442   -1.6967    0.3808 H   0  0  0  0  0  0  0  0  0  0  0  0
   -0.5029    1.3560   -0.0003 H   0  0  0  0  0  0  0  0  0  0  0  0
    0.9103   -0.5796    1.7831 H   0  0  0  0  0  0  0  0  0  0  0  0
    1.5297    1.0440    1.1640 H   0  0  0  0  0  0  0  0  0  0  0  0
    1.6822   -1.7939   -0.1191 H   0  0  0  0  0  0  0  0  0  0  0  0
    3.7672   -0.2223    0.2550 H   0  0  0  0  0  0  0  0  0  0  0  0
    3.4287   -0.7525   -1.4764 H   0  0  0  0  0  0  0  0  0  0  0  0
    3.5543    1.7273   -0.4911 H   0  0  0  0  0  0  0  0  0  0  0  0
    0.9476    0.6413   -1.7791 H   0  0  0  0  0  0  0  0  0  0  0  0
    0.0798   -0.9799   -1.6713 H   0  0  0  0  0  0  0  0  0  0  0  0
  1  2  1  0
  2  3  1  0
  3  4  1  0
  4  5  1  0
  5  6  1  0
  6  7  1  0
  7  8  1  0
  6  9  1  0
  9  4  1  0
  1 10  1  0
  1 11  1  0
  1 12  1  0
  2 13  1  0
  2 14  1  0
  3 15  1  0
  3 16  1  0
  4 17  1  0
  5 18  1  0
  5 19  1  0
  6 20  1  0
  7 21  1  0
  7 22  1  0
  8 23  1  0
  9 24  1  0
  9 25  1  0
M  END
