
     RDKit          3D

 21 21  0  0  0  0  0  0  0  0999 V2000
   -2.8758    0.1112    1.3144 C   0  0  0  0  0  0  0  0  0  0  0  0
   -1.6999    0.3560    0.4019 C   0  0  0  0  0  0  0  0  0  0  0  0
   -0.8227   -0.8625    0.3128 C   0  0  0  0  0  0  0  0  0  0  0  0
    0.3573   -0.6718   -0.5804 C   0  0  0  0  0  0  0  0  0  0  0  0
    1.2809    0.4323   -0.1644 C   0  0  0  0  0  0  0  0  0  0  0  0
    2.4756    0.5954   -1.1038 C   0  0  0  0  0  0  0  0  0  0  0  0
    2.6636    0.1213    0.3021 C   0  0  0  0  0  0  0  0  0  0  0  0
   -2.5167    0.1190    2.3517 H   0  0  0  0  0  0  0  0  0  0  0  0
   -3.3311   -0.8531    1.0188 H   0  0  0  0  0  0  0  0  0  0  0  0
   -3.5928    0.9568    1.1380 H   0  0  0  0  0  0  0  0  0  0  0  0
   -1.1329    1.2623    0.6942 H   0  0  0  0  0  0  0  0  0  0  0  0
   -2.1377    0.5867   -0.6123 H   0  0  0  0  0  0  0  0  0  0  0  0
   -1.4122   -1.7121   -0.0886 H   0  0  0  0  0  0  0  0  0  0  0  0
   -0.5118   -1.1520    1.3302 H   0  0  0  0  0  0  0  0  0  0  0  0
   -0.0134   -0.3997   -1.6129 H   0  0  0  0  0  0  0  0  0  0  0  0
    0.9179   -1.6206   -0.7000 H   0  0  0  0  0  0  0  0  0  0  0  0
    0.8504    1.3659    0.2478 H   0  0  0  0  0  0  0  0  0  0  0  0
    2.7337    1.6339   -1.3526 H   0  0  0  0  0  0  0  0  0  0  0  0
    2.6545   -0.1611   -1.8795 H   0  0  0  0  0  0  0  0  0  0  0  0
    2.9450   -0.9392    0.5009 H   0  0  0  0  0  0  0  0  0  0  0  0
    3.1679    0.8316    0.9740 H   0  0  0  0  0  0  0  0  0  0  0  0
  1  2  1  0
  2  3  1  0
  3  4  1  0
  4  5  1  0
  5  6  1  0
  6  7  1  0
  7  5  1  0
  1  8  1  0
  1  9  1  0
  1 10  1  0
  2 11  1  0
  2 12  1  0
  3 13  1  0
  3 14  1  0
  4 15  1  0
  4 16  1  0
  5 17  1  0
  6 18  1  0
  6 19  1  0
  7 20  1  0
  7 21  1  0
M  END
