
     RDKit          3D

 25 24  0  0  0  0  0  0  0  0999 V2000
    2.7540    0.7863    0.1934 C   0  0  0  0  0  0  0  0  0  0  0  0
    2.3106   -0.5144   -0.4193 C   0  0  0  0  0  0  0  0  0  0  0  0
    0.8675   -0.4233   -0.8924 C   0  0  0  0  0  0  0  0  0  0  0  0
    0.0167   -0.1066    0.3170 C   0  0  0  0  0  0  0  0  0  0  0  0
    0.1771   -1.1364    1.2469 O   0  0  0  0  0  0  0  0  0  0  0  0
   -1.4552   -0.0683   -0.0374 C   0  0  0  0  0  0  0  0  0  0  0  0
   -1.7941    1.0261   -0.9948 C   0  0  0  0  0  0  0  0  0  0  0  0
   -2.2131    0.1035    1.2837 C   0  0  0  0  0  0  0  0  0  0  0  0
   -1.8088   -1.2935   -0.5766 O   0  0  0  0  0  0  0  0  0  0  0  0
    2.2970    0.9635    1.1684 H   0  0  0  0  0  0  0  0  0  0  0  0
    3.8678    0.7541    0.3084 H   0  0  0  0  0  0  0  0  0  0  0  0
    2.5554    1.6168   -0.5451 H   0  0  0  0  0  0  0  0  0  0  0  0
    2.9798   -0.7043   -1.2983 H   0  0  0  0  0  0  0  0  0  0  0  0
    2.4707   -1.3241    0.2892 H   0  0  0  0  0  0  0  0  0  0  0  0
    0.5999   -1.4029   -1.3018 H   0  0  0  0  0  0  0  0  0  0  0  0
    0.7790    0.4162   -1.6023 H   0  0  0  0  0  0  0  0  0  0  0  0
    0.2944    0.8247    0.8070 H   0  0  0  0  0  0  0  0  0  0  0  0
    0.0745   -1.9847    0.7264 H   0  0  0  0  0  0  0  0  0  0  0  0
   -0.9370    1.5115   -1.4704 H   0  0  0  0  0  0  0  0  0  0  0  0
   -2.3549    1.8194   -0.4198 H   0  0  0  0  0  0  0  0  0  0  0  0
   -2.5406    0.6395   -1.7385 H   0  0  0  0  0  0  0  0  0  0  0  0
   -3.3024    0.0763    1.1181 H   0  0  0  0  0  0  0  0  0  0  0  0
   -1.8480   -0.6952    1.9607 H   0  0  0  0  0  0  0  0  0  0  0  0
   -1.8759    1.0710    1.7238 H   0  0  0  0  0  0  0  0  0  0  0  0
   -1.9142   -1.9552    0.1535 H   0  0  0  0  0  0  0  0  0  0  0  0
  1  2  1  0
  2  3  1  0
  3  4  1  0
  4  5  1  0
  4  6  1  0
  6  7  1  0
  6  8  1  0
  6  9  1  0
  1 10  1  0
  1 11  1  0
  1 12  1  0
  2 13  1  0
  2 14  1  0
  3 15  1  0
  3 16  1  0
  4 17  1  0
  5 18  1  0
  7 19  1  0
  7 20  1  0
  7 21  1  0
  8 22  1  0
  8 23  1  0
  8 24  1  0
  9 25  1  0
M  END
