
     RDKit          3D

 23 24  0  0  0  0  0  0  0  0999 V2000
    3.0393   -0.2635    0.3605 C   0  0  0  0  0  0  0  0  0  0  0  0
    1.5942   -0.4273   -0.1059 C   0  0  0  0  0  0  0  0  0  0  0  0
    0.7311    0.2618    0.9097 C   0  0  0  0  0  0  0  0  0  0  0  0
   -0.7120    0.2301    0.6608 C   0  0  0  0  0  0  0  0  0  0  0  0
   -1.4144   -1.0930    0.5748 C   0  0  0  0  0  0  0  0  0  0  0  0
   -2.3545   -0.5316   -0.4694 C   0  0  0  0  0  0  0  0  0  0  0  0
   -1.4131    0.6774   -0.5342 C   0  0  0  0  0  0  0  0  0  0  0  0
   -0.8418    1.0342   -1.7107 O   0  0  0  0  0  0  0  0  0  0  0  0
   -1.4575    1.5120    0.6709 C   0  0  0  0  0  0  0  0  0  0  0  0
    3.1906   -0.7856    1.3243 H   0  0  0  0  0  0  0  0  0  0  0  0
    3.7586   -0.5440   -0.4141 H   0  0  0  0  0  0  0  0  0  0  0  0
    3.1652    0.8208    0.5770 H   0  0  0  0  0  0  0  0  0  0  0  0
    1.3991   -1.5197   -0.1320 H   0  0  0  0  0  0  0  0  0  0  0  0
    1.5413    0.0139   -1.1095 H   0  0  0  0  0  0  0  0  0  0  0  0
    1.0859    1.3079    1.0270 H   0  0  0  0  0  0  0  0  0  0  0  0
    0.9395   -0.2403    1.8962 H   0  0  0  0  0  0  0  0  0  0  0  0
   -1.8668   -1.4663    1.4915 H   0  0  0  0  0  0  0  0  0  0  0  0
   -0.7327   -1.8330    0.0648 H   0  0  0  0  0  0  0  0  0  0  0  0
   -3.3158   -0.2500    0.0425 H   0  0  0  0  0  0  0  0  0  0  0  0
   -2.4537   -1.0933   -1.3943 H   0  0  0  0  0  0  0  0  0  0  0  0
   -0.6300    0.2156   -2.2362 H   0  0  0  0  0  0  0  0  0  0  0  0
   -0.8607    2.4200    0.6821 H   0  0  0  0  0  0  0  0  0  0  0  0
   -2.3919    1.5538    1.3020 H   0  0  0  0  0  0  0  0  0  0  0  0
  1  2  1  0
  2  3  1  0
  3  4  1  0
  4  5  1  0
  5  6  1  0
  6  7  1  0
  7  8  1  0
  7  9  1  0
  7  4  1  0
  9  4  1  0
  1 10  1  0
  1 11  1  0
  1 12  1  0
  2 13  1  0
  2 14  1  0
  3 15  1  0
  3 16  1  0
  5 17  1  0
  5 18  1  0
  6 19  1  0
  6 20  1  0
  8 21  1  0
  9 22  1  0
  9 23  1  0
M  END
