
     RDKit          3D

 23 25  0  0  0  0  0  0  0  0999 V2000
   -3.3003   -0.7781    0.8003 C   0  0  0  0  0  0  0  0  0  0  0  0
   -2.3281    0.1950    0.2410 C   0  0  0  0  0  0  0  0  0  0  0  0
   -1.0321   -0.4827   -0.2070 C   0  0  0  0  0  0  0  0  0  0  0  0
   -0.0944    0.5598   -0.7622 C   0  0  0  0  0  0  0  0  0  0  0  0
    1.2316    0.2297   -1.2753 C   0  0  0  0  0  0  0  0  0  0  0  0
    2.2240   -0.6310   -0.6019 C   0  0  0  0  0  0  0  0  0  0  0  0
    3.3717   -0.0156    0.1699 C   0  0  0  0  0  0  0  0  0  0  0  0
    1.9817    0.0079    0.7092 C   0  0  0  0  0  0  0  0  0  0  0  0
    1.0508    0.9778    0.0693 C   0  0  0  0  0  0  0  0  0  0  0  0
   -4.3282   -0.3464    0.6764 H   0  0  0  0  0  0  0  0  0  0  0  0
   -3.2121   -1.7628    0.3235 H   0  0  0  0  0  0  0  0  0  0  0  0
   -3.1509   -0.8699    1.8934 H   0  0  0  0  0  0  0  0  0  0  0  0
   -2.7370    0.7026   -0.6543 H   0  0  0  0  0  0  0  0  0  0  0  0
   -2.0360    0.9769    0.9656 H   0  0  0  0  0  0  0  0  0  0  0  0
   -0.6234   -0.9897    0.6971 H   0  0  0  0  0  0  0  0  0  0  0  0
   -1.3036   -1.2599   -0.9239 H   0  0  0  0  0  0  0  0  0  0  0  0
   -0.6260    1.3913   -1.2752 H   0  0  0  0  0  0  0  0  0  0  0  0
    1.6522    0.8474   -2.1210 H   0  0  0  0  0  0  0  0  0  0  0  0
    2.2831   -1.7135   -0.7476 H   0  0  0  0  0  0  0  0  0  0  0  0
    3.7625    0.9748   -0.1352 H   0  0  0  0  0  0  0  0  0  0  0  0
    4.1388   -0.6911    0.5541 H   0  0  0  0  0  0  0  0  0  0  0  0
    1.6654   -0.6601    1.5216 H   0  0  0  0  0  0  0  0  0  0  0  0
    1.4102    2.0349    0.0821 H   0  0  0  0  0  0  0  0  0  0  0  0
  1  2  1  0
  2  3  1  0
  3  4  1  0
  4  5  1  0
  5  6  1  0
  6  7  1  0
  7  8  1  0
  8  9  1  0
  9  4  1  0
  9  5  1  0
  8  6  1  0
  1 10  1  0
  1 11  1  0
  1 12  1  0
  2 13  1  0
  2 14  1  0
  3 15  1  0
  3 16  1  0
  4 17  1  0
  5 18  1  0
  6 19  1  0
  7 20  1  0
  7 21  1  0
  8 22  1  0
  9 23  1  0
M  END
