
     RDKit          3D

 23 23  0  0  0  0  0  0  0  0999 V2000
    2.9629   -0.1509    0.5602 C   0  0  0  0  0  0  0  0  0  0  0  0
    1.6268    0.5921    0.5404 C   0  0  0  0  0  0  0  0  0  0  0  0
    0.7218   -0.1804   -0.3946 C   0  0  0  0  0  0  0  0  0  0  0  0
   -0.6415    0.4221   -0.5271 C   0  0  0  0  0  0  0  0  0  0  0  0
   -1.3289    0.4664    0.8325 C   0  0  0  0  0  0  0  0  0  0  0  0
   -0.6368    1.7095   -1.0179 O   0  0  0  0  0  0  0  0  0  0  0  0
   -1.4166   -0.4372   -1.5024 C   0  0  0  0  0  0  0  0  0  0  0  0
   -2.4318   -1.3389   -0.9168 C   0  0  0  0  0  0  0  0  0  0  0  0
   -2.7468   -0.1294   -1.7607 O   0  0  0  0  0  0  0  0  0  0  0  0
    3.6682    0.3790   -0.1055 H   0  0  0  0  0  0  0  0  0  0  0  0
    2.8580   -1.1756    0.1576 H   0  0  0  0  0  0  0  0  0  0  0  0
    3.3589   -0.2473    1.5889 H   0  0  0  0  0  0  0  0  0  0  0  0
    1.7767    1.6364    0.2429 H   0  0  0  0  0  0  0  0  0  0  0  0
    1.2312    0.5212    1.5729 H   0  0  0  0  0  0  0  0  0  0  0  0
    1.1607   -0.3525   -1.3754 H   0  0  0  0  0  0  0  0  0  0  0  0
    0.5856   -1.1896    0.0772 H   0  0  0  0  0  0  0  0  0  0  0  0
   -2.3372    0.8788    0.7108 H   0  0  0  0  0  0  0  0  0  0  0  0
   -0.7289    1.1909    1.4458 H   0  0  0  0  0  0  0  0  0  0  0  0
   -1.3776   -0.5328    1.3066 H   0  0  0  0  0  0  0  0  0  0  0  0
    0.0785    2.2826   -0.6837 H   0  0  0  0  0  0  0  0  0  0  0  0
   -0.7980   -0.8721   -2.3061 H   0  0  0  0  0  0  0  0  0  0  0  0
   -2.8639   -1.1994    0.0751 H   0  0  0  0  0  0  0  0  0  0  0  0
   -2.7213   -2.2727   -1.4512 H   0  0  0  0  0  0  0  0  0  0  0  0
  1  2  1  0
  2  3  1  0
  3  4  1  0
  4  5  1  0
  4  6  1  0
  4  7  1  0
  7  8  1  0
  8  9  1  0
  9  7  1  0
  1 10  1  0
  1 11  1  0
  1 12  1  0
  2 13  1  0
  2 14  1  0
  3 15  1  0
  3 16  1  0
  5 17  1  0
  5 18  1  0
  5 19  1  0
  6 20  1  0
  7 21  1  0
  8 22  1  0
  8 23  1  0
M  END
