
     RDKit          3D

 27 27  0  0  0  0  0  0  0  0999 V2000
    3.7263   -0.3899    0.2967 C   0  0  0  0  0  0  0  0  0  0  0  0
    2.3066   -0.8181    0.0407 C   0  0  0  0  0  0  0  0  0  0  0  0
    1.4219    0.3853   -0.3118 C   0  0  0  0  0  0  0  0  0  0  0  0
    0.0501   -0.1540   -0.5425 C   0  0  0  0  0  0  0  0  0  0  0  0
   -0.5843   -0.8730    0.6317 C   0  0  0  0  0  0  0  0  0  0  0  0
   -1.9009   -0.3696    0.0556 C   0  0  0  0  0  0  0  0  0  0  0  0
   -2.9484   -0.0367    1.0753 C   0  0  0  0  0  0  0  0  0  0  0  0
   -1.0859    0.8347   -0.4333 C   0  0  0  0  0  0  0  0  0  0  0  0
   -1.6186    1.3542   -1.7435 C   0  0  0  0  0  0  0  0  0  0  0  0
    3.9821   -0.4457    1.3819 H   0  0  0  0  0  0  0  0  0  0  0  0
    3.8812    0.6350   -0.1045 H   0  0  0  0  0  0  0  0  0  0  0  0
    4.4512   -1.0478   -0.2171 H   0  0  0  0  0  0  0  0  0  0  0  0
    1.8394   -1.3361    0.8969 H   0  0  0  0  0  0  0  0  0  0  0  0
    2.3308   -1.5419   -0.8008 H   0  0  0  0  0  0  0  0  0  0  0  0
    1.7990    0.7841   -1.2676 H   0  0  0  0  0  0  0  0  0  0  0  0
    1.4853    1.1383    0.4807 H   0  0  0  0  0  0  0  0  0  0  0  0
   -0.0332   -0.7409   -1.4708 H   0  0  0  0  0  0  0  0  0  0  0  0
   -0.4674   -1.9737    0.6270 H   0  0  0  0  0  0  0  0  0  0  0  0
   -0.3736   -0.3831    1.6090 H   0  0  0  0  0  0  0  0  0  0  0  0
   -2.2425   -1.0453   -0.7263 H   0  0  0  0  0  0  0  0  0  0  0  0
   -3.2644   -0.9969    1.5419 H   0  0  0  0  0  0  0  0  0  0  0  0
   -3.8071    0.3967    0.5600 H   0  0  0  0  0  0  0  0  0  0  0  0
   -2.5499    0.6781    1.8248 H   0  0  0  0  0  0  0  0  0  0  0  0
   -0.9986    1.5815    0.3689 H   0  0  0  0  0  0  0  0  0  0  0  0
   -2.5664    1.9045   -1.4996 H   0  0  0  0  0  0  0  0  0  0  0  0
   -0.9237    1.9902   -2.2851 H   0  0  0  0  0  0  0  0  0  0  0  0
   -1.9090    0.4701   -2.3559 H   0  0  0  0  0  0  0  0  0  0  0  0
  1  2  1  0
  2  3  1  0
  3  4  1  0
  4  5  1  0
  5  6  1  0
  6  7  1  0
  6  8  1  0
  8  9  1  0
  8  4  1  0
  1 10  1  0
  1 11  1  0
  1 12  1  0
  2 13  1  0
  2 14  1  0
  3 15  1  0
  3 16  1  0
  4 17  1  0
  5 18  1  0
  5 19  1  0
  6 20  1  0
  7 21  1  0
  7 22  1  0
  7 23  1  0
  8 24  1  0
  9 25  1  0
  9 26  1  0
  9 27  1  0
M  END
