
     RDKit          3D

 25 25  0  0  0  0  0  0  0  0999 V2000
    3.3732    0.4421    0.0366 C   0  0  0  0  0  0  0  0  0  0  0  0
    2.4425    0.8077   -1.0993 C   0  0  0  0  0  0  0  0  0  0  0  0
    1.0110    0.8611   -0.6262 C   0  0  0  0  0  0  0  0  0  0  0  0
    0.5374   -0.4575   -0.0704 C   0  0  0  0  0  0  0  0  0  0  0  0
   -0.9029   -0.2796    0.3685 C   0  0  0  0  0  0  0  0  0  0  0  0
   -1.1306    0.6817    1.3455 O   0  0  0  0  0  0  0  0  0  0  0  0
   -1.6623   -1.6082    0.5011 C   0  0  0  0  0  0  0  0  0  0  0  0
   -2.0218   -0.5837   -0.5248 C   0  0  0  0  0  0  0  0  0  0  0  0
   -3.3486    0.1264   -0.2564 C   0  0  0  0  0  0  0  0  0  0  0  0
    3.3223   -0.6667    0.1483 H   0  0  0  0  0  0  0  0  0  0  0  0
    4.4059    0.7672   -0.2096 H   0  0  0  0  0  0  0  0  0  0  0  0
    3.0218    0.8991    0.9840 H   0  0  0  0  0  0  0  0  0  0  0  0
    2.6829    1.8219   -1.4947 H   0  0  0  0  0  0  0  0  0  0  0  0
    2.4759    0.0440   -1.9150 H   0  0  0  0  0  0  0  0  0  0  0  0
    0.8817    1.6091    0.1990 H   0  0  0  0  0  0  0  0  0  0  0  0
    0.3200    1.1875   -1.4285 H   0  0  0  0  0  0  0  0  0  0  0  0
    0.6819   -1.3073   -0.7353 H   0  0  0  0  0  0  0  0  0  0  0  0
    1.1336   -0.6709    0.8629 H   0  0  0  0  0  0  0  0  0  0  0  0
   -0.8032    0.4354    2.2270 H   0  0  0  0  0  0  0  0  0  0  0  0
   -1.1779   -2.5220    0.1043 H   0  0  0  0  0  0  0  0  0  0  0  0
   -2.2443   -1.7001    1.4343 H   0  0  0  0  0  0  0  0  0  0  0  0
   -1.9025   -0.8539   -1.5924 H   0  0  0  0  0  0  0  0  0  0  0  0
   -3.4807    0.3494    0.8190 H   0  0  0  0  0  0  0  0  0  0  0  0
   -3.4055    1.0976   -0.7885 H   0  0  0  0  0  0  0  0  0  0  0  0
   -4.2097   -0.4804   -0.5873 H   0  0  0  0  0  0  0  0  0  0  0  0
  1  2  1  0
  2  3  1  0
  3  4  1  0
  4  5  1  0
  5  6  1  0
  5  7  1  0
  7  8  1  0
  8  9  1  0
  8  5  1  0
  1 10  1  0
  1 11  1  0
  1 12  1  0
  2 13  1  0
  2 14  1  0
  3 15  1  0
  3 16  1  0
  4 17  1  0
  4 18  1  0
  6 19  1  0
  7 20  1  0
  7 21  1  0
  8 22  1  0
  9 23  1  0
  9 24  1  0
  9 25  1  0
M  END
