
     RDKit          3D

 21 22  0  0  0  0  0  0  0  0999 V2000
    2.6419    0.3505   -0.0270 C   0  0  0  0  0  0  0  0  0  0  0  0
    1.7339   -0.8439   -0.0055 C   0  0  0  0  0  0  0  0  0  0  0  0
    0.5755   -0.7332   -0.9345 C   0  0  0  0  0  0  0  0  0  0  0  0
   -0.3066    0.4396   -0.6329 C   0  0  0  0  0  0  0  0  0  0  0  0
   -1.4575    0.5721   -1.5349 C   0  0  0  0  0  0  0  0  0  0  0  0
   -1.6924    0.5560   -2.7198 O   0  0  0  0  0  0  0  0  0  0  0  0
   -2.3222    0.7519   -0.3454 C   0  0  0  0  0  0  0  0  0  0  0  0
   -2.4693   -0.4345    0.5223 C   0  0  0  0  0  0  0  0  0  0  0  0
   -1.1927    0.3068    0.5684 C   0  0  0  0  0  0  0  0  0  0  0  0
    2.1576    1.2836    0.2577 H   0  0  0  0  0  0  0  0  0  0  0  0
    3.1745    0.4142   -1.0181 H   0  0  0  0  0  0  0  0  0  0  0  0
    3.4564    0.1584    0.7202 H   0  0  0  0  0  0  0  0  0  0  0  0
    2.3491   -1.7247   -0.3407 H   0  0  0  0  0  0  0  0  0  0  0  0
    1.4370   -1.0713    1.0342 H   0  0  0  0  0  0  0  0  0  0  0  0
    0.0200   -1.6728   -0.9608 H   0  0  0  0  0  0  0  0  0  0  0  0
    0.9884   -0.5704   -1.9659 H   0  0  0  0  0  0  0  0  0  0  0  0
    0.2943    1.3782   -0.5686 H   0  0  0  0  0  0  0  0  0  0  0  0
   -2.8232    1.7082   -0.1521 H   0  0  0  0  0  0  0  0  0  0  0  0
   -3.1168   -0.3238    1.4148 H   0  0  0  0  0  0  0  0  0  0  0  0
   -2.5001   -1.4353    0.0236 H   0  0  0  0  0  0  0  0  0  0  0  0
   -0.9478    0.8904    1.4524 H   0  0  0  0  0  0  0  0  0  0  0  0
  1  2  1  0
  2  3  1  0
  3  4  1  0
  4  5  1  0
  5  6  2  0
  5  7  1  0
  7  8  1  0
  8  9  1  0
  9  4  1  0
  9  7  1  0
  1 10  1  0
  1 11  1  0
  1 12  1  0
  2 13  1  0
  2 14  1  0
  3 15  1  0
  3 16  1  0
  4 17  1  0
  7 18  1  0
  8 19  1  0
  8 20  1  0
  9 21  1  0
M  END
