
     RDKit          3D

 27 27  0  0  0  0  0  0  0  0999 V2000
   -2.6938    0.4158    1.3141 C   0  0  0  0  0  0  0  0  0  0  0  0
   -2.7176   -0.0484   -0.1198 C   0  0  0  0  0  0  0  0  0  0  0  0
   -1.4634    0.4247   -0.8670 C   0  0  0  0  0  0  0  0  0  0  0  0
   -0.2451   -0.1498   -0.1765 C   0  0  0  0  0  0  0  0  0  0  0  0
   -0.3737   -1.6555   -0.2293 C   0  0  0  0  0  0  0  0  0  0  0  0
    0.9849    0.3456   -0.8866 C   0  0  0  0  0  0  0  0  0  0  0  0
    2.2635   -0.1439   -0.3104 C   0  0  0  0  0  0  0  0  0  0  0  0
    2.6793    0.1211    1.0744 C   0  0  0  0  0  0  0  0  0  0  0  0
    3.3016    0.9557   -0.0164 C   0  0  0  0  0  0  0  0  0  0  0  0
   -2.3599   -0.4077    2.0044 H   0  0  0  0  0  0  0  0  0  0  0  0
   -3.7074    0.7175    1.6780 H   0  0  0  0  0  0  0  0  0  0  0  0
   -2.0305    1.2847    1.4559 H   0  0  0  0  0  0  0  0  0  0  0  0
   -2.7121   -1.1612   -0.2068 H   0  0  0  0  0  0  0  0  0  0  0  0
   -3.6289    0.2995   -0.6135 H   0  0  0  0  0  0  0  0  0  0  0  0
   -1.4220    1.5454   -0.8894 H   0  0  0  0  0  0  0  0  0  0  0  0
   -1.5759    0.0438   -1.9047 H   0  0  0  0  0  0  0  0  0  0  0  0
   -0.2637    0.1886    0.8725 H   0  0  0  0  0  0  0  0  0  0  0  0
    0.6357   -2.1119   -0.1588 H   0  0  0  0  0  0  0  0  0  0  0  0
   -1.0267   -1.9516    0.6275 H   0  0  0  0  0  0  0  0  0  0  0  0
   -0.8878   -1.9127   -1.1687 H   0  0  0  0  0  0  0  0  0  0  0  0
    0.9078    0.0121   -1.9448 H   0  0  0  0  0  0  0  0  0  0  0  0
    0.9383    1.4502   -0.9100 H   0  0  0  0  0  0  0  0  0  0  0  0
    2.7082   -1.0446   -0.8187 H   0  0  0  0  0  0  0  0  0  0  0  0
    2.0151    0.5992    1.8161 H   0  0  0  0  0  0  0  0  0  0  0  0
    3.3939   -0.5994    1.5325 H   0  0  0  0  0  0  0  0  0  0  0  0
    2.9446    2.0056   -0.0298 H   0  0  0  0  0  0  0  0  0  0  0  0
    4.3357    0.7773   -0.3206 H   0  0  0  0  0  0  0  0  0  0  0  0
  1  2  1  0
  2  3  1  0
  3  4  1  0
  4  5  1  0
  4  6  1  0
  6  7  1  0
  7  8  1  0
  8  9  1  0
  9  7  1  0
  1 10  1  0
  1 11  1  0
  1 12  1  0
  2 13  1  0
  2 14  1  0
  3 15  1  0
  3 16  1  0
  4 17  1  0
  5 18  1  0
  5 19  1  0
  5 20  1  0
  6 21  1  0
  6 22  1  0
  7 23  1  0
  8 24  1  0
  8 25  1  0
  9 26  1  0
  9 27  1  0
M  END
