
     RDKit          3D

 19 20  0  0  0  0  0  0  0  0999 V2000
    2.7409   -0.3085   -0.2913 C   0  0  0  0  0  0  0  0  0  0  0  0
    1.3675    0.3000   -0.5619 C   0  0  0  0  0  0  0  0  0  0  0  0
    0.4907   -0.0953    0.6085 C   0  0  0  0  0  0  0  0  0  0  0  0
   -0.8893    0.4575    0.4372 C   0  0  0  0  0  0  0  0  0  0  0  0
   -1.6301    0.0120   -0.7874 C   0  0  0  0  0  0  0  0  0  0  0  0
   -1.6649   -1.2396   -0.1849 O   0  0  0  0  0  0  0  0  0  0  0  0
   -2.0281   -0.4091    0.8703 C   0  0  0  0  0  0  0  0  0  0  0  0
   -2.8507    0.2980   -0.0813 C   0  0  0  0  0  0  0  0  0  0  0  0
   -3.9112    0.8122   -0.2052 O   0  0  0  0  0  0  0  0  0  0  0  0
    3.4364   -0.0959   -1.1416 H   0  0  0  0  0  0  0  0  0  0  0  0
    3.1416    0.2178    0.6181 H   0  0  0  0  0  0  0  0  0  0  0  0
    2.6142   -1.3791   -0.1261 H   0  0  0  0  0  0  0  0  0  0  0  0
    0.9785   -0.0695   -1.5106 H   0  0  0  0  0  0  0  0  0  0  0  0
    1.4471    1.3969   -0.5660 H   0  0  0  0  0  0  0  0  0  0  0  0
    0.9130    0.2715    1.5601 H   0  0  0  0  0  0  0  0  0  0  0  0
    0.4775   -1.1898    0.6598 H   0  0  0  0  0  0  0  0  0  0  0  0
   -1.0181    1.5314    0.6391 H   0  0  0  0  0  0  0  0  0  0  0  0
   -1.3736    0.1983   -1.7446 H   0  0  0  0  0  0  0  0  0  0  0  0
   -2.2414   -0.7090    1.8079 H   0  0  0  0  0  0  0  0  0  0  0  0
  1  2  1  0
  2  3  1  0
  3  4  1  0
  4  5  1  0
  5  6  1  0
  6  7  1  0
  7  8  1  0
  8  9  2  0
  7  4  1  0
  8  5  1  0
  1 10  1  0
  1 11  1  0
  1 12  1  0
  2 13  1  0
  2 14  1  0
  3 15  1  0
  3 16  1  0
  4 17  1  0
  5 18  1  0
  7 19  1  0
M  END
