
     RDKit          3D

 18 18  0  0  0  0  0  0  0  0999 V2000
    2.4273    0.3287    0.2488 C   0  0  0  0  0  0  0  0  0  0  0  0
    0.9653    0.0403    0.5018 C   0  0  0  0  0  0  0  0  0  0  0  0
    0.2040   -0.0443   -0.7997 C   0  0  0  0  0  0  0  0  0  0  0  0
   -1.2501   -0.3281   -0.6145 C   0  0  0  0  0  0  0  0  0  0  0  0
   -1.9509    0.7441    0.2104 C   0  0  0  0  0  0  0  0  0  0  0  0
   -2.3356   -0.3027    1.0760 O   0  0  0  0  0  0  0  0  0  0  0  0
   -1.6341   -1.2851    0.4050 C   0  0  0  0  0  0  0  0  0  0  0  0
   -1.4361   -2.4976    0.6234 O   0  0  0  0  0  0  0  0  0  0  0  0
    3.0536   -0.5893    0.2808 H   0  0  0  0  0  0  0  0  0  0  0  0
    2.5990    0.7621   -0.7718 H   0  0  0  0  0  0  0  0  0  0  0  0
    2.8524    1.0473    0.9593 H   0  0  0  0  0  0  0  0  0  0  0  0
    0.9055   -0.9479    0.9815 H   0  0  0  0  0  0  0  0  0  0  0  0
    0.5751    0.8547    1.1242 H   0  0  0  0  0  0  0  0  0  0  0  0
    0.6720   -0.8608   -1.3887 H   0  0  0  0  0  0  0  0  0  0  0  0
    0.3098    0.9068   -1.3617 H   0  0  0  0  0  0  0  0  0  0  0  0
   -1.7672   -0.4606   -1.5868 H   0  0  0  0  0  0  0  0  0  0  0  0
   -2.8802    1.1433   -0.2863 H   0  0  0  0  0  0  0  0  0  0  0  0
   -1.3099    1.4891    0.6712 H   0  0  0  0  0  0  0  0  0  0  0  0
  1  2  1  0
  2  3  1  0
  3  4  1  0
  4  5  1  0
  5  6  1  0
  6  7  1  0
  7  8  2  0
  7  4  1  0
  1  9  1  0
  1 10  1  0
  1 11  1  0
  2 12  1  0
  2 13  1  0
  3 14  1  0
  3 15  1  0
  4 16  1  0
  5 17  1  0
  5 18  1  0
M  END
