
     RDKit          3D

 25 25  0  0  0  0  0  0  0  0999 V2000
    3.4227    0.3722    0.1205 C   0  0  0  0  0  0  0  0  0  0  0  0
    2.1785   -0.5210    0.1562 C   0  0  0  0  0  0  0  0  0  0  0  0
    1.0108    0.3476   -0.2316 C   0  0  0  0  0  0  0  0  0  0  0  0
   -0.2899   -0.3762   -0.2465 C   0  0  0  0  0  0  0  0  0  0  0  0
   -1.4939    0.4448   -0.6280 C   0  0  0  0  0  0  0  0  0  0  0  0
   -1.7275    1.5978    0.2932 C   0  0  0  0  0  0  0  0  0  0  0  0
   -2.7458   -0.4377   -0.5611 C   0  0  0  0  0  0  0  0  0  0  0  0
   -0.4771   -1.7501    0.1444 C   0  0  0  0  0  0  0  0  0  0  0  0
   -0.2052   -1.5169   -1.1960 O   0  0  0  0  0  0  0  0  0  0  0  0
    3.2095    1.3198    0.6476 H   0  0  0  0  0  0  0  0  0  0  0  0
    3.6669    0.6290   -0.9200 H   0  0  0  0  0  0  0  0  0  0  0  0
    4.2931   -0.1554    0.5418 H   0  0  0  0  0  0  0  0  0  0  0  0
    2.1052   -0.8838    1.1972 H   0  0  0  0  0  0  0  0  0  0  0  0
    2.3649   -1.3578   -0.5152 H   0  0  0  0  0  0  0  0  0  0  0  0
    1.1777    0.8055   -1.2273 H   0  0  0  0  0  0  0  0  0  0  0  0
    0.9737    1.1838    0.4910 H   0  0  0  0  0  0  0  0  0  0  0  0
   -1.4330    0.8259   -1.6714 H   0  0  0  0  0  0  0  0  0  0  0  0
   -1.9508    1.2226    1.2976 H   0  0  0  0  0  0  0  0  0  0  0  0
   -0.9171    2.3518    0.2729 H   0  0  0  0  0  0  0  0  0  0  0  0
   -2.6426    2.1266   -0.0604 H   0  0  0  0  0  0  0  0  0  0  0  0
   -2.9773   -0.6887    0.5027 H   0  0  0  0  0  0  0  0  0  0  0  0
   -3.6192    0.1874   -0.8974 H   0  0  0  0  0  0  0  0  0  0  0  0
   -2.6755   -1.3078   -1.2143 H   0  0  0  0  0  0  0  0  0  0  0  0
    0.2647   -2.3210    0.7587 H   0  0  0  0  0  0  0  0  0  0  0  0
   -1.5127   -2.0985    0.3325 H   0  0  0  0  0  0  0  0  0  0  0  0
  1  2  1  0
  2  3  1  0
  3  4  1  0
  4  5  1  0
  5  6  1  0
  5  7  1  0
  4  8  1  0
  8  9  1  0
  9  4  1  0
  1 10  1  0
  1 11  1  0
  1 12  1  0
  2 13  1  0
  2 14  1  0
  3 15  1  0
  3 16  1  0
  5 17  1  0
  6 18  1  0
  6 19  1  0
  6 20  1  0
  7 21  1  0
  7 22  1  0
  7 23  1  0
  8 24  1  0
  8 25  1  0
M  END
