
     RDKit          3D

 21 21  0  0  0  0  0  0  0  0999 V2000
   -2.6185    0.2381    0.0028 C   0  0  0  0  0  0  0  0  0  0  0  0
   -1.7989   -0.9327   -0.4860 C   0  0  0  0  0  0  0  0  0  0  0  0
   -0.3404   -0.7907   -0.1202 C   0  0  0  0  0  0  0  0  0  0  0  0
    0.1889    0.4624   -0.7476 C   0  0  0  0  0  0  0  0  0  0  0  0
    1.6416    0.7062   -0.4480 C   0  0  0  0  0  0  0  0  0  0  0  0
    2.0133    0.8513    0.9882 C   0  0  0  0  0  0  0  0  0  0  0  0
    3.1950    0.1346    0.6768 O   0  0  0  0  0  0  0  0  0  0  0  0
    2.4846   -0.5029   -0.3339 C   0  0  0  0  0  0  0  0  0  0  0  0
    2.6112   -1.6377   -0.8430 O   0  0  0  0  0  0  0  0  0  0  0  0
   -2.4749    0.3697    1.1018 H   0  0  0  0  0  0  0  0  0  0  0  0
   -3.6975   -0.0475   -0.1681 H   0  0  0  0  0  0  0  0  0  0  0  0
   -2.3979    1.1692   -0.5542 H   0  0  0  0  0  0  0  0  0  0  0  0
   -2.1965   -1.8517   -0.0157 H   0  0  0  0  0  0  0  0  0  0  0  0
   -1.9282   -1.0376   -1.5746 H   0  0  0  0  0  0  0  0  0  0  0  0
   -0.2312   -0.7708    0.9771 H   0  0  0  0  0  0  0  0  0  0  0  0
    0.1805   -1.6721   -0.5773 H   0  0  0  0  0  0  0  0  0  0  0  0
    0.0931    0.3585   -1.8536 H   0  0  0  0  0  0  0  0  0  0  0  0
   -0.3747    1.3424   -0.3572 H   0  0  0  0  0  0  0  0  0  0  0  0
    2.0651    1.4516   -1.1260 H   0  0  0  0  0  0  0  0  0  0  0  0
    2.1843    1.8935    1.3218 H   0  0  0  0  0  0  0  0  0  0  0  0
    1.4011    0.2660    1.6813 H   0  0  0  0  0  0  0  0  0  0  0  0
  1  2  1  0
  2  3  1  0
  3  4  1  0
  4  5  1  0
  5  6  1  0
  6  7  1  0
  7  8  1  0
  8  9  2  0
  8  5  1  0
  1 10  1  0
  1 11  1  0
  1 12  1  0
  2 13  1  0
  2 14  1  0
  3 15  1  0
  3 16  1  0
  4 17  1  0
  4 18  1  0
  5 19  1  0
  6 20  1  0
  6 21  1  0
M  END
