
     RDKit          3D

 23 24  0  0  0  0  0  0  0  0999 V2000
    3.3311    0.2406    0.3648 C   0  0  0  0  0  0  0  0  0  0  0  0
    1.8135    0.4338    0.4536 C   0  0  0  0  0  0  0  0  0  0  0  0
    1.1986   -0.5678   -0.4652 C   0  0  0  0  0  0  0  0  0  0  0  0
   -0.2840   -0.5557   -0.5345 C   0  0  0  0  0  0  0  0  0  0  0  0
   -1.1437   -0.7966    0.6492 C   0  0  0  0  0  0  0  0  0  0  0  0
   -2.6225   -0.8520    0.4255 C   0  0  0  0  0  0  0  0  0  0  0  0
   -2.6053    0.4348   -0.3923 C   0  0  0  0  0  0  0  0  0  0  0  0
   -1.1284    0.5406   -0.0752 C   0  0  0  0  0  0  0  0  0  0  0  0
   -0.7243    1.5902    0.6936 O   0  0  0  0  0  0  0  0  0  0  0  0
    3.8657    0.8562    1.0874 H   0  0  0  0  0  0  0  0  0  0  0  0
    3.6079    0.5578   -0.6756 H   0  0  0  0  0  0  0  0  0  0  0  0
    3.5614   -0.8397    0.4319 H   0  0  0  0  0  0  0  0  0  0  0  0
    1.6228    1.4752    0.2115 H   0  0  0  0  0  0  0  0  0  0  0  0
    1.5274    0.2601    1.5112 H   0  0  0  0  0  0  0  0  0  0  0  0
    1.5574   -1.5696   -0.1838 H   0  0  0  0  0  0  0  0  0  0  0  0
    1.5936   -0.3659   -1.4950 H   0  0  0  0  0  0  0  0  0  0  0  0
   -0.6638   -1.0918   -1.4582 H   0  0  0  0  0  0  0  0  0  0  0  0
   -0.7517   -0.8601    1.6674 H   0  0  0  0  0  0  0  0  0  0  0  0
   -3.0103   -1.7157   -0.1164 H   0  0  0  0  0  0  0  0  0  0  0  0
   -3.2375   -0.6862    1.3584 H   0  0  0  0  0  0  0  0  0  0  0  0
   -3.2407    1.2315   -0.0055 H   0  0  0  0  0  0  0  0  0  0  0  0
   -2.7505    0.2723   -1.4908 H   0  0  0  0  0  0  0  0  0  0  0  0
   -1.5168    2.0080    1.1237 H   0  0  0  0  0  0  0  0  0  0  0  0
  1  2  1  0
  2  3  1  0
  3  4  1  0
  4  5  1  0
  5  6  1  0
  6  7  1  0
  7  8  1  0
  8  9  1  0
  8  4  1  0
  8  5  1  0
  1 10  1  0
  1 11  1  0
  1 12  1  0
  2 13  1  0
  2 14  1  0
  3 15  1  0
  3 16  1  0
  4 17  1  0
  5 18  1  0
  6 19  1  0
  6 20  1  0
  7 21  1  0
  7 22  1  0
  9 23  1  0
M  END
