
     RDKit          3D

 18 18  0  0  0  0  0  0  0  0999 V2000
   -2.0298    0.8568    0.3345 C   0  0  0  0  0  0  0  0  0  0  0  0
   -1.7247   -0.5632   -0.0074 C   0  0  0  0  0  0  0  0  0  0  0  0
   -0.2975   -0.6909   -0.4703 C   0  0  0  0  0  0  0  0  0  0  0  0
    0.6987   -0.2601    0.5630 C   0  0  0  0  0  0  0  0  0  0  0  0
    2.1087   -0.4279   -0.0029 C   0  0  0  0  0  0  0  0  0  0  0  0
    2.3551    0.9707    0.4401 C   0  0  0  0  0  0  0  0  0  0  0  0
    3.4254    1.6181    0.5674 O   0  0  0  0  0  0  0  0  0  0  0  0
    0.9864    1.1236    0.6021 O   0  0  0  0  0  0  0  0  0  0  0  0
   -2.2581    0.9732    1.4248 H   0  0  0  0  0  0  0  0  0  0  0  0
   -1.2389    1.5734    0.0411 H   0  0  0  0  0  0  0  0  0  0  0  0
   -2.9636    1.2246   -0.1834 H   0  0  0  0  0  0  0  0  0  0  0  0
   -1.9630   -1.2906    0.7683 H   0  0  0  0  0  0  0  0  0  0  0  0
   -2.3639   -0.8308   -0.8952 H   0  0  0  0  0  0  0  0  0  0  0  0
   -0.0763   -1.7657   -0.7040 H   0  0  0  0  0  0  0  0  0  0  0  0
   -0.1181   -0.1163   -1.3958 H   0  0  0  0  0  0  0  0  0  0  0  0
    0.6209   -0.7409    1.5465 H   0  0  0  0  0  0  0  0  0  0  0  0
    2.7069   -1.2027    0.4723 H   0  0  0  0  0  0  0  0  0  0  0  0
    2.1318   -0.4514   -1.1243 H   0  0  0  0  0  0  0  0  0  0  0  0
  1  2  1  0
  2  3  1  0
  3  4  1  0
  4  5  1  0
  5  6  1  0
  6  7  2  0
  6  8  1  0
  8  4  1  0
  1  9  1  0
  1 10  1  0
  1 11  1  0
  2 12  1  0
  2 13  1  0
  3 14  1  0
  3 15  1  0
  4 16  1  0
  5 17  1  0
  5 18  1  0
M  END
