
     RDKit          3D

 23 24  0  0  0  0  0  0  0  0999 V2000
    3.3849    0.1422   -0.0254 C   0  0  0  0  0  0  0  0  0  0  0  0
    2.0074    0.1184   -0.6983 C   0  0  0  0  0  0  0  0  0  0  0  0
    0.9191    0.3777    0.2914 C   0  0  0  0  0  0  0  0  0  0  0  0
   -0.4252    0.3558   -0.3767 C   0  0  0  0  0  0  0  0  0  0  0  0
   -0.6126   -1.0311   -0.9929 C   0  0  0  0  0  0  0  0  0  0  0  0
   -1.9291   -1.2134   -1.1155 C   0  0  0  0  0  0  0  0  0  0  0  0
   -2.5667   -0.0270   -0.6208 C   0  0  0  0  0  0  0  0  0  0  0  0
   -2.9242    0.5559    0.5945 C   0  0  0  0  0  0  0  0  0  0  0  0
   -1.5783    0.2013    0.5715 C   0  0  0  0  0  0  0  0  0  0  0  0
    3.3677   -0.3779    0.9292 H   0  0  0  0  0  0  0  0  0  0  0  0
    4.0983   -0.3265   -0.7364 H   0  0  0  0  0  0  0  0  0  0  0  0
    3.7102    1.2139    0.0550 H   0  0  0  0  0  0  0  0  0  0  0  0
    2.0211    0.9445   -1.4497 H   0  0  0  0  0  0  0  0  0  0  0  0
    1.9573   -0.8743   -1.1830 H   0  0  0  0  0  0  0  0  0  0  0  0
    1.0705    1.3679    0.7711 H   0  0  0  0  0  0  0  0  0  0  0  0
    1.0079   -0.3749    1.1009 H   0  0  0  0  0  0  0  0  0  0  0  0
   -0.5281    1.1297   -1.1320 H   0  0  0  0  0  0  0  0  0  0  0  0
    0.1372   -1.7418   -1.2809 H   0  0  0  0  0  0  0  0  0  0  0  0
   -2.4229   -2.1104   -1.5216 H   0  0  0  0  0  0  0  0  0  0  0  0
   -2.5026    0.7412   -1.4690 H   0  0  0  0  0  0  0  0  0  0  0  0
   -3.1927    1.6440    0.6673 H   0  0  0  0  0  0  0  0  0  0  0  0
   -3.6638   -0.0059    1.2380 H   0  0  0  0  0  0  0  0  0  0  0  0
   -1.3355   -0.7093    1.2078 H   0  0  0  0  0  0  0  0  0  0  0  0
  1  2  1  0
  2  3  1  0
  3  4  1  0
  4  5  1  0
  5  6  2  0
  6  7  1  0
  7  8  1  0
  8  9  1  0
  9  4  1  0
  9  7  1  0
  1 10  1  0
  1 11  1  0
  1 12  1  0
  2 13  1  0
  2 14  1  0
  3 15  1  0
  3 16  1  0
  4 17  1  0
  5 18  1  0
  6 19  1  0
  7 20  1  0
  8 21  1  0
  8 22  1  0
  9 23  1  0
M  END
