
     RDKit          3D

 21 22  0  0  0  0  0  0  0  0999 V2000
    2.1846    0.5543    0.6774 C   0  0  0  0  0  0  0  0  0  0  0  0
    1.8420   -0.2091   -0.5722 C   0  0  0  0  0  0  0  0  0  0  0  0
    0.8183   -1.2287   -0.3045 C   0  0  0  0  0  0  0  0  0  0  0  0
   -0.5154   -0.8886    0.1514 C   0  0  0  0  0  0  0  0  0  0  0  0
   -1.2678    0.0001   -0.8452 C   0  0  0  0  0  0  0  0  0  0  0  0
   -2.6162   -0.2005   -0.8731 O   0  0  0  0  0  0  0  0  0  0  0  0
   -2.7020    0.4268    0.3683 C   0  0  0  0  0  0  0  0  0  0  0  0
   -1.1727    0.3205    0.5666 C   0  0  0  0  0  0  0  0  0  0  0  0
   -0.6559    1.4409    1.1285 O   0  0  0  0  0  0  0  0  0  0  0  0
    1.6585    0.1274    1.5523 H   0  0  0  0  0  0  0  0  0  0  0  0
    3.3034    0.4583    0.8430 H   0  0  0  0  0  0  0  0  0  0  0  0
    1.9759    1.6503    0.6034 H   0  0  0  0  0  0  0  0  0  0  0  0
    2.8088   -0.6733   -0.9294 H   0  0  0  0  0  0  0  0  0  0  0  0
    1.6008    0.4820   -1.4157 H   0  0  0  0  0  0  0  0  0  0  0  0
    0.6972   -1.8133   -1.2767 H   0  0  0  0  0  0  0  0  0  0  0  0
    1.2273   -2.0426    0.3808 H   0  0  0  0  0  0  0  0  0  0  0  0
   -1.1020   -1.8347    0.4426 H   0  0  0  0  0  0  0  0  0  0  0  0
   -0.7236    0.5058   -1.6471 H   0  0  0  0  0  0  0  0  0  0  0  0
   -3.0165    1.4806    0.2302 H   0  0  0  0  0  0  0  0  0  0  0  0
   -3.2716   -0.1397    1.1349 H   0  0  0  0  0  0  0  0  0  0  0  0
   -1.0732    1.5835    2.0217 H   0  0  0  0  0  0  0  0  0  0  0  0
  1  2  1  0
  2  3  1  0
  3  4  1  0
  4  5  1  0
  5  6  1  0
  6  7  1  0
  7  8  1  0
  8  9  1  0
  8  4  1  0
  8  5  1  0
  1 10  1  0
  1 11  1  0
  1 12  1  0
  2 13  1  0
  2 14  1  0
  3 15  1  0
  3 16  1  0
  4 17  1  0
  5 18  1  0
  7 19  1  0
  7 20  1  0
  9 21  1  0
M  END
