
     RDKit          3D

 23 24  0  0  0  0  0  0  0  0999 V2000
    3.6055    0.0948   -0.1060 C   0  0  0  0  0  0  0  0  0  0  0  0
    2.2338    0.4787    0.3923 C   0  0  0  0  0  0  0  0  0  0  0  0
    1.1345   -0.0274   -0.5473 C   0  0  0  0  0  0  0  0  0  0  0  0
   -0.1722    0.4031    0.0343 C   0  0  0  0  0  0  0  0  0  0  0  0
   -1.4031    0.0120   -0.7290 C   0  0  0  0  0  0  0  0  0  0  0  0
   -1.1598   -1.2887   -0.3161 O   0  0  0  0  0  0  0  0  0  0  0  0
   -0.9212   -0.5880    0.8530 C   0  0  0  0  0  0  0  0  0  0  0  0
   -2.1568    0.2110    0.5360 C   0  0  0  0  0  0  0  0  0  0  0  0
   -3.4577   -0.4893    0.6965 C   0  0  0  0  0  0  0  0  0  0  0  0
    3.5768    0.0245   -1.2140 H   0  0  0  0  0  0  0  0  0  0  0  0
    3.8614   -0.8812    0.3634 H   0  0  0  0  0  0  0  0  0  0  0  0
    4.3162    0.8750    0.2397 H   0  0  0  0  0  0  0  0  0  0  0  0
    2.1879    1.6035    0.3888 H   0  0  0  0  0  0  0  0  0  0  0  0
    2.0385    0.1720    1.4298 H   0  0  0  0  0  0  0  0  0  0  0  0
    1.3034    0.3800   -1.5586 H   0  0  0  0  0  0  0  0  0  0  0  0
    1.1716   -1.1416   -0.5339 H   0  0  0  0  0  0  0  0  0  0  0  0
   -0.2419    1.4299    0.4223 H   0  0  0  0  0  0  0  0  0  0  0  0
   -1.6545    0.3131   -1.6582 H   0  0  0  0  0  0  0  0  0  0  0  0
   -0.6728   -0.9674    1.7516 H   0  0  0  0  0  0  0  0  0  0  0  0
   -2.1228    1.2719    0.8554 H   0  0  0  0  0  0  0  0  0  0  0  0
   -4.0063    0.0158    1.5456 H   0  0  0  0  0  0  0  0  0  0  0  0
   -3.3582   -1.5515    1.0071 H   0  0  0  0  0  0  0  0  0  0  0  0
   -4.1025   -0.3504   -0.1904 H   0  0  0  0  0  0  0  0  0  0  0  0
  1  2  1  0
  2  3  1  0
  3  4  1  0
  4  5  1  0
  5  6  1  0
  6  7  1  0
  7  8  1  0
  8  9  1  0
  7  4  1  0
  8  5  1  0
  1 10  1  0
  1 11  1  0
  1 12  1  0
  2 13  1  0
  2 14  1  0
  3 15  1  0
  3 16  1  0
  4 17  1  0
  5 18  1  0
  7 19  1  0
  8 20  1  0
  9 21  1  0
  9 22  1  0
  9 23  1  0
M  END
