
     RDKit          3D

 25 25  0  0  0  0  0  0  0  0999 V2000
   -3.0245   -1.1831    0.2176 C   0  0  0  0  0  0  0  0  0  0  0  0
   -2.6580    0.0749   -0.5144 C   0  0  0  0  0  0  0  0  0  0  0  0
   -1.5307    0.8049    0.1569 C   0  0  0  0  0  0  0  0  0  0  0  0
   -0.2671   -0.0189    0.2477 C   0  0  0  0  0  0  0  0  0  0  0  0
    0.7532    0.8591    0.9430 C   0  0  0  0  0  0  0  0  0  0  0  0
    0.9426    2.0791    0.1126 O   0  0  0  0  0  0  0  0  0  0  0  0
    1.9968    1.2139    0.3646 C   0  0  0  0  0  0  0  0  0  0  0  0
    2.5531    0.3746   -0.7713 C   0  0  0  0  0  0  0  0  0  0  0  0
    2.7451   -1.0453   -0.2780 C   0  0  0  0  0  0  0  0  0  0  0  0
   -4.1310   -1.2740    0.1915 H   0  0  0  0  0  0  0  0  0  0  0  0
   -2.5370   -2.0739   -0.2707 H   0  0  0  0  0  0  0  0  0  0  0  0
   -2.6342   -1.1976    1.2692 H   0  0  0  0  0  0  0  0  0  0  0  0
   -2.3396   -0.1956   -1.5599 H   0  0  0  0  0  0  0  0  0  0  0  0
   -3.5039    0.7876   -0.5996 H   0  0  0  0  0  0  0  0  0  0  0  0
   -1.2741    1.6999   -0.4492 H   0  0  0  0  0  0  0  0  0  0  0  0
   -1.8162    1.1227    1.1687 H   0  0  0  0  0  0  0  0  0  0  0  0
   -0.4018   -0.9703    0.7589 H   0  0  0  0  0  0  0  0  0  0  0  0
    0.1048   -0.2622   -0.7837 H   0  0  0  0  0  0  0  0  0  0  0  0
    0.5049    1.1147    1.9924 H   0  0  0  0  0  0  0  0  0  0  0  0
    2.7866    1.6497    0.9998 H   0  0  0  0  0  0  0  0  0  0  0  0
    1.8432    0.3966   -1.6230 H   0  0  0  0  0  0  0  0  0  0  0  0
    3.5061    0.7993   -1.1631 H   0  0  0  0  0  0  0  0  0  0  0  0
    2.6493   -1.0856    0.8468 H   0  0  0  0  0  0  0  0  0  0  0  0
    3.7378   -1.4530   -0.5572 H   0  0  0  0  0  0  0  0  0  0  0  0
    1.9947   -1.7392   -0.6996 H   0  0  0  0  0  0  0  0  0  0  0  0
  1  2  1  0
  2  3  1  0
  3  4  1  0
  4  5  1  0
  5  6  1  0
  6  7  1  0
  7  8  1  0
  8  9  1  0
  7  5  1  0
  1 10  1  0
  1 11  1  0
  1 12  1  0
  2 13  1  0
  2 14  1  0
  3 15  1  0
  3 16  1  0
  4 17  1  0
  4 18  1  0
  5 19  1  0
  7 20  1  0
  8 21  1  0
  8 22  1  0
  9 23  1  0
  9 24  1  0
  9 25  1  0
M  END
