
     RDKit          3D

 23 24  0  0  0  0  0  0  0  0999 V2000
    3.4448   -0.0911    0.7799 C   0  0  0  0  0  0  0  0  0  0  0  0
    2.1455   -0.5197    0.1917 C   0  0  0  0  0  0  0  0  0  0  0  0
    1.2726    0.6096   -0.2553 C   0  0  0  0  0  0  0  0  0  0  0  0
   -0.0092   -0.0102   -0.8284 C   0  0  0  0  0  0  0  0  0  0  0  0
   -0.9446    1.0479   -1.3019 O   0  0  0  0  0  0  0  0  0  0  0  0
   -1.2424    0.1658   -0.2981 C   0  0  0  0  0  0  0  0  0  0  0  0
   -1.7581    0.5640    1.0206 C   0  0  0  0  0  0  0  0  0  0  0  0
   -3.1450    0.0993    0.5531 C   0  0  0  0  0  0  0  0  0  0  0  0
   -2.3999   -0.7894   -0.4521 C   0  0  0  0  0  0  0  0  0  0  0  0
    4.1200   -0.9738    0.8406 H   0  0  0  0  0  0  0  0  0  0  0  0
    3.2870    0.3358    1.7704 H   0  0  0  0  0  0  0  0  0  0  0  0
    3.9212    0.6541    0.1096 H   0  0  0  0  0  0  0  0  0  0  0  0
    1.5695   -1.0905    0.9693 H   0  0  0  0  0  0  0  0  0  0  0  0
    2.2989   -1.1906   -0.6984 H   0  0  0  0  0  0  0  0  0  0  0  0
    1.7469    1.2879   -0.9729 H   0  0  0  0  0  0  0  0  0  0  0  0
    0.9853    1.2333    0.6269 H   0  0  0  0  0  0  0  0  0  0  0  0
    0.1906   -0.6933   -1.6812 H   0  0  0  0  0  0  0  0  0  0  0  0
   -1.4125   -0.1262    1.8276 H   0  0  0  0  0  0  0  0  0  0  0  0
   -1.7287    1.6091    1.3254 H   0  0  0  0  0  0  0  0  0  0  0  0
   -3.6842    0.8977   -0.0221 H   0  0  0  0  0  0  0  0  0  0  0  0
   -3.7263   -0.4383    1.2988 H   0  0  0  0  0  0  0  0  0  0  0  0
   -2.1261   -1.7923   -0.0306 H   0  0  0  0  0  0  0  0  0  0  0  0
   -2.8053   -0.7888   -1.4601 H   0  0  0  0  0  0  0  0  0  0  0  0
  1  2  1  0
  2  3  1  0
  3  4  1  0
  4  5  1  0
  5  6  1  0
  6  7  1  0
  7  8  1  0
  8  9  1  0
  6  4  1  0
  9  6  1  0
  1 10  1  0
  1 11  1  0
  1 12  1  0
  2 13  1  0
  2 14  1  0
  3 15  1  0
  3 16  1  0
  4 17  1  0
  7 18  1  0
  7 19  1  0
  8 20  1  0
  8 21  1  0
  9 22  1  0
  9 23  1  0
M  END
