
     RDKit          3D

 25 25  0  0  0  0  0  0  0  0999 V2000
    2.9713    0.5646    0.4114 C   0  0  0  0  0  0  0  0  0  0  0  0
    1.6580    0.4028   -0.3025 C   0  0  0  0  0  0  0  0  0  0  0  0
    0.5398   -0.0198    0.6443 C   0  0  0  0  0  0  0  0  0  0  0  0
   -0.6974   -0.1364   -0.2223 C   0  0  0  0  0  0  0  0  0  0  0  0
   -1.0060    1.0552   -0.8316 O   0  0  0  0  0  0  0  0  0  0  0  0
   -1.2601    2.0780    0.0526 C   0  0  0  0  0  0  0  0  0  0  0  0
   -0.5635   -1.3214   -1.1383 C   0  0  0  0  0  0  0  0  0  0  0  0
   -1.5279   -2.0768   -0.2520 C   0  0  0  0  0  0  0  0  0  0  0  0
   -1.8768   -0.7972    0.4468 C   0  0  0  0  0  0  0  0  0  0  0  0
    2.9113    0.4390    1.4905 H   0  0  0  0  0  0  0  0  0  0  0  0
    3.7523   -0.1457    0.0324 H   0  0  0  0  0  0  0  0  0  0  0  0
    3.3748    1.5807    0.1875 H   0  0  0  0  0  0  0  0  0  0  0  0
    1.8128   -0.3521   -1.1009 H   0  0  0  0  0  0  0  0  0  0  0  0
    1.3361    1.3450   -0.7702 H   0  0  0  0  0  0  0  0  0  0  0  0
    0.7810   -0.9853    1.1426 H   0  0  0  0  0  0  0  0  0  0  0  0
    0.4613    0.7196    1.4499 H   0  0  0  0  0  0  0  0  0  0  0  0
   -2.1260    1.8046    0.7102 H   0  0  0  0  0  0  0  0  0  0  0  0
   -0.4399    2.3742    0.7036 H   0  0  0  0  0  0  0  0  0  0  0  0
   -1.6059    2.9900   -0.5178 H   0  0  0  0  0  0  0  0  0  0  0  0
   -0.9049   -1.1703   -2.1785 H   0  0  0  0  0  0  0  0  0  0  0  0
    0.4162   -1.8354   -1.1404 H   0  0  0  0  0  0  0  0  0  0  0  0
   -1.0117   -2.7614    0.4822 H   0  0  0  0  0  0  0  0  0  0  0  0
   -2.3052   -2.5642   -0.8373 H   0  0  0  0  0  0  0  0  0  0  0  0
   -2.8275   -0.3861   -0.0046 H   0  0  0  0  0  0  0  0  0  0  0  0
   -1.8619   -0.8016    1.5422 H   0  0  0  0  0  0  0  0  0  0  0  0
  1  2  1  0
  2  3  1  0
  3  4  1  0
  4  5  1  0
  5  6  1  0
  4  7  1  0
  7  8  1  0
  8  9  1  0
  9  4  1  0
  1 10  1  0
  1 11  1  0
  1 12  1  0
  2 13  1  0
  2 14  1  0
  3 15  1  0
  3 16  1  0
  6 17  1  0
  6 18  1  0
  6 19  1  0
  7 20  1  0
  7 21  1  0
  8 22  1  0
  8 23  1  0
  9 24  1  0
  9 25  1  0
M  END
