
     RDKit          3D

 22 22  0  0  0  0  0  0  0  0999 V2000
   -2.8920    0.8432   -0.1214 C   0  0  0  0  0  0  0  0  0  0  0  0
   -1.4521    0.5645    0.2291 C   0  0  0  0  0  0  0  0  0  0  0  0
   -1.1936   -0.9302    0.3821 C   0  0  0  0  0  0  0  0  0  0  0  0
    0.2653   -1.1124    0.7309 C   0  0  0  0  0  0  0  0  0  0  0  0
    1.1336   -0.5559   -0.3481 C   0  0  0  0  0  0  0  0  0  0  0  0
    2.5992   -0.6606   -0.1491 C   0  0  0  0  0  0  0  0  0  0  0  0
    1.8757    0.6941   -0.2402 C   0  0  0  0  0  0  0  0  0  0  0  0
    1.9493    1.4489    0.9132 O   0  0  0  0  0  0  0  0  0  0  0  0
   -2.9317    1.6534   -0.8839 H   0  0  0  0  0  0  0  0  0  0  0  0
   -3.4949    1.1650    0.7565 H   0  0  0  0  0  0  0  0  0  0  0  0
   -3.4041   -0.0576   -0.5470 H   0  0  0  0  0  0  0  0  0  0  0  0
   -1.2496    1.0514    1.2020 H   0  0  0  0  0  0  0  0  0  0  0  0
   -0.7710    0.9162   -0.5761 H   0  0  0  0  0  0  0  0  0  0  0  0
   -1.3521   -1.4113   -0.6244 H   0  0  0  0  0  0  0  0  0  0  0  0
   -1.8737   -1.3469    1.1214 H   0  0  0  0  0  0  0  0  0  0  0  0
    0.4875   -0.6941    1.7225 H   0  0  0  0  0  0  0  0  0  0  0  0
    0.4351   -2.2280    0.7514 H   0  0  0  0  0  0  0  0  0  0  0  0
    0.7776   -0.8273   -1.3842 H   0  0  0  0  0  0  0  0  0  0  0  0
    3.3031   -0.8401   -0.9620 H   0  0  0  0  0  0  0  0  0  0  0  0
    2.9505   -0.9799    0.8608 H   0  0  0  0  0  0  0  0  0  0  0  0
    2.0531    1.2996   -1.1671 H   0  0  0  0  0  0  0  0  0  0  0  0
    2.7847    2.0081    0.8287 H   0  0  0  0  0  0  0  0  0  0  0  0
  1  2  1  0
  2  3  1  0
  3  4  1  0
  4  5  1  0
  5  6  1  0
  6  7  1  0
  7  8  1  0
  7  5  1  0
  1  9  1  0
  1 10  1  0
  1 11  1  0
  2 12  1  0
  2 13  1  0
  3 14  1  0
  3 15  1  0
  4 16  1  0
  4 17  1  0
  5 18  1  0
  6 19  1  0
  6 20  1  0
  7 21  1  0
  8 22  1  0
M  END
