
     RDKit          3D

 23 23  0  0  0  0  0  0  0  0999 V2000
    3.4121   -0.1261    0.3008 C   0  0  0  0  0  0  0  0  0  0  0  0
    2.2715    0.3779   -0.5862 C   0  0  0  0  0  0  0  0  0  0  0  0
    0.9903   -0.0774    0.0417 C   0  0  0  0  0  0  0  0  0  0  0  0
   -0.2151    0.3254   -0.6908 C   0  0  0  0  0  0  0  0  0  0  0  0
   -0.1744    0.9737   -1.7145 O   0  0  0  0  0  0  0  0  0  0  0  0
   -1.5401   -0.0826   -0.1492 C   0  0  0  0  0  0  0  0  0  0  0  0
   -2.7343   -0.0669   -1.0782 C   0  0  0  0  0  0  0  0  0  0  0  0
   -1.8573    0.5498    1.2321 C   0  0  0  0  0  0  0  0  0  0  0  0
   -1.5980   -0.9132    1.1047 C   0  0  0  0  0  0  0  0  0  0  0  0
    3.0355   -0.0468    1.3571 H   0  0  0  0  0  0  0  0  0  0  0  0
    4.2809    0.5527    0.1494 H   0  0  0  0  0  0  0  0  0  0  0  0
    3.6244   -1.1782    0.0522 H   0  0  0  0  0  0  0  0  0  0  0  0
    2.3279    1.5001   -0.5168 H   0  0  0  0  0  0  0  0  0  0  0  0
    2.3946    0.1142   -1.6339 H   0  0  0  0  0  0  0  0  0  0  0  0
    0.9231    0.3800    1.0603 H   0  0  0  0  0  0  0  0  0  0  0  0
    0.9733   -1.1850    0.1553 H   0  0  0  0  0  0  0  0  0  0  0  0
   -2.4267    0.3979   -2.0270 H   0  0  0  0  0  0  0  0  0  0  0  0
   -3.1065   -1.1067   -1.2844 H   0  0  0  0  0  0  0  0  0  0  0  0
   -3.5998    0.4755   -0.6490 H   0  0  0  0  0  0  0  0  0  0  0  0
   -2.9107    0.8124    1.4461 H   0  0  0  0  0  0  0  0  0  0  0  0
   -1.1081    1.2365    1.6575 H   0  0  0  0  0  0  0  0  0  0  0  0
   -0.5889   -1.2535    1.4582 H   0  0  0  0  0  0  0  0  0  0  0  0
   -2.3736   -1.6598    1.2661 H   0  0  0  0  0  0  0  0  0  0  0  0
  1  2  1  0
  2  3  1  0
  3  4  1  0
  4  5  2  0
  4  6  1  0
  6  7  1  0
  6  8  1  0
  8  9  1  0
  9  6  1  0
  1 10  1  0
  1 11  1  0
  1 12  1  0
  2 13  1  0
  2 14  1  0
  3 15  1  0
  3 16  1  0
  7 17  1  0
  7 18  1  0
  7 19  1  0
  8 20  1  0
  8 21  1  0
  9 22  1  0
  9 23  1  0
M  END
