
     RDKit          3D

 21 21  0  0  0  0  0  0  0  0999 V2000
    2.7847    0.4664   -0.0565 C   0  0  0  0  0  0  0  0  0  0  0  0
    1.3932    0.4454   -0.6562 C   0  0  0  0  0  0  0  0  0  0  0  0
    0.4605   -0.1914    0.3511 C   0  0  0  0  0  0  0  0  0  0  0  0
   -0.9606   -0.2595   -0.1561 C   0  0  0  0  0  0  0  0  0  0  0  0
   -1.6359    0.9157   -0.4898 O   0  0  0  0  0  0  0  0  0  0  0  0
   -1.8520    1.9113    0.4510 C   0  0  0  0  0  0  0  0  0  0  0  0
   -1.4097    1.6973    1.6090 O   0  0  0  0  0  0  0  0  0  0  0  0
   -1.3042   -1.4432   -1.0407 C   0  0  0  0  0  0  0  0  0  0  0  0
   -1.7480   -1.4428    0.4002 C   0  0  0  0  0  0  0  0  0  0  0  0
    3.1276   -0.5742    0.1927 H   0  0  0  0  0  0  0  0  0  0  0  0
    2.8476    1.1395    0.8223 H   0  0  0  0  0  0  0  0  0  0  0  0
    3.4671    0.8350   -0.8569 H   0  0  0  0  0  0  0  0  0  0  0  0
    1.4242   -0.0846   -1.6136 H   0  0  0  0  0  0  0  0  0  0  0  0
    1.1166    1.4961   -0.8538 H   0  0  0  0  0  0  0  0  0  0  0  0
    0.5224    0.4237    1.2677 H   0  0  0  0  0  0  0  0  0  0  0  0
    0.8458   -1.1983    0.6090 H   0  0  0  0  0  0  0  0  0  0  0  0
   -2.3779    2.8016    0.1493 H   0  0  0  0  0  0  0  0  0  0  0  0
   -2.1445   -1.3521   -1.7625 H   0  0  0  0  0  0  0  0  0  0  0  0
   -0.5084   -2.1224   -1.3790 H   0  0  0  0  0  0  0  0  0  0  0  0
   -1.2341   -2.1563    1.0600 H   0  0  0  0  0  0  0  0  0  0  0  0
   -2.8142   -1.3073    0.6324 H   0  0  0  0  0  0  0  0  0  0  0  0
  1  2  1  0
  2  3  1  0
  3  4  1  0
  4  5  1  0
  5  6  1  0
  6  7  2  0
  4  8  1  0
  8  9  1  0
  9  4  1  0
  1 10  1  0
  1 11  1  0
  1 12  1  0
  2 13  1  0
  2 14  1  0
  3 15  1  0
  3 16  1  0
  6 17  1  0
  8 18  1  0
  8 19  1  0
  9 20  1  0
  9 21  1  0
M  END
