
     RDKit          3D

 22 22  0  0  0  0  0  0  0  0999 V2000
    2.9078   -0.8303    0.1478 C   0  0  0  0  0  0  0  0  0  0  0  0
    1.5849   -0.3121   -0.3459 C   0  0  0  0  0  0  0  0  0  0  0  0
    0.9651    0.6794    0.6114 C   0  0  0  0  0  0  0  0  0  0  0  0
   -0.3602    1.1915    0.1055 C   0  0  0  0  0  0  0  0  0  0  0  0
   -1.3610    0.0544   -0.0815 C   0  0  0  0  0  0  0  0  0  0  0  0
   -1.7187   -0.7586    1.1255 C   0  0  0  0  0  0  0  0  0  0  0  0
   -2.5668    0.4716   -0.9166 C   0  0  0  0  0  0  0  0  0  0  0  0
   -1.6006   -0.4239   -1.3551 O   0  0  0  0  0  0  0  0  0  0  0  0
    2.9979   -1.9232   -0.0247 H   0  0  0  0  0  0  0  0  0  0  0  0
    3.0551   -0.6761    1.2355 H   0  0  0  0  0  0  0  0  0  0  0  0
    3.7755   -0.3777   -0.4118 H   0  0  0  0  0  0  0  0  0  0  0  0
    0.8549   -1.1570   -0.4745 H   0  0  0  0  0  0  0  0  0  0  0  0
    1.7424    0.1197   -1.3387 H   0  0  0  0  0  0  0  0  0  0  0  0
    1.6479    1.5477    0.6630 H   0  0  0  0  0  0  0  0  0  0  0  0
    0.8742    0.2540    1.6171 H   0  0  0  0  0  0  0  0  0  0  0  0
   -0.8269    1.8954    0.8191 H   0  0  0  0  0  0  0  0  0  0  0  0
   -0.2178    1.7315   -0.8508 H   0  0  0  0  0  0  0  0  0  0  0  0
   -2.0744   -0.1113    1.9443 H   0  0  0  0  0  0  0  0  0  0  0  0
   -2.5968   -1.4001    0.8448 H   0  0  0  0  0  0  0  0  0  0  0  0
   -0.9210   -1.4647    1.4273 H   0  0  0  0  0  0  0  0  0  0  0  0
   -2.6179    1.4872   -1.3241 H   0  0  0  0  0  0  0  0  0  0  0  0
   -3.5438    0.0026   -0.6998 H   0  0  0  0  0  0  0  0  0  0  0  0
  1  2  1  0
  2  3  1  0
  3  4  1  0
  4  5  1  0
  5  6  1  0
  5  7  1  0
  7  8  1  0
  8  5  1  0
  1  9  1  0
  1 10  1  0
  1 11  1  0
  2 12  1  0
  2 13  1  0
  3 14  1  0
  3 15  1  0
  4 16  1  0
  4 17  1  0
  6 18  1  0
  6 19  1  0
  6 20  1  0
  7 21  1  0
  7 22  1  0
M  END
