
     RDKit          3D

 23 23  0  0  0  0  0  0  0  0999 V2000
   -3.3014   -0.3234   -0.4598 C   0  0  0  0  0  0  0  0  0  0  0  0
   -2.7330    0.7118    0.4580 C   0  0  0  0  0  0  0  0  0  0  0  0
   -1.3339    0.3973    0.9266 C   0  0  0  0  0  0  0  0  0  0  0  0
   -0.3505    0.2791   -0.1931 C   0  0  0  0  0  0  0  0  0  0  0  0
    0.9793   -0.0303    0.4000 C   0  0  0  0  0  0  0  0  0  0  0  0
    1.1422   -0.1483    1.6019 O   0  0  0  0  0  0  0  0  0  0  0  0
    2.1746   -0.2092   -0.4672 C   0  0  0  0  0  0  0  0  0  0  0  0
    3.2663   -1.1444   -0.0169 C   0  0  0  0  0  0  0  0  0  0  0  0
    3.4488    0.3195    0.1269 C   0  0  0  0  0  0  0  0  0  0  0  0
   -3.6214   -1.2261    0.1241 H   0  0  0  0  0  0  0  0  0  0  0  0
   -4.1682    0.1219   -0.9992 H   0  0  0  0  0  0  0  0  0  0  0  0
   -2.5917   -0.6555   -1.2255 H   0  0  0  0  0  0  0  0  0  0  0  0
   -2.7217    1.6915   -0.0174 H   0  0  0  0  0  0  0  0  0  0  0  0
   -3.3754    0.7189    1.3805 H   0  0  0  0  0  0  0  0  0  0  0  0
   -1.0088    1.2347    1.5758 H   0  0  0  0  0  0  0  0  0  0  0  0
   -1.2828   -0.5451    1.5216 H   0  0  0  0  0  0  0  0  0  0  0  0
   -0.5817   -0.5424   -0.8976 H   0  0  0  0  0  0  0  0  0  0  0  0
   -0.3203    1.2688   -0.7123 H   0  0  0  0  0  0  0  0  0  0  0  0
    1.9931   -0.0966   -1.5467 H   0  0  0  0  0  0  0  0  0  0  0  0
    3.1015   -1.7431    0.9159 H   0  0  0  0  0  0  0  0  0  0  0  0
    3.7685   -1.7207   -0.8276 H   0  0  0  0  0  0  0  0  0  0  0  0
    3.4398    0.7439    1.1563 H   0  0  0  0  0  0  0  0  0  0  0  0
    4.0768    0.8976   -0.5748 H   0  0  0  0  0  0  0  0  0  0  0  0
  1  2  1  0
  2  3  1  0
  3  4  1  0
  4  5  1  0
  5  6  2  0
  5  7  1  0
  7  8  1  0
  8  9  1  0
  9  7  1  0
  1 10  1  0
  1 11  1  0
  1 12  1  0
  2 13  1  0
  2 14  1  0
  3 15  1  0
  3 16  1  0
  4 17  1  0
  4 18  1  0
  7 19  1  0
  8 20  1  0
  8 21  1  0
  9 22  1  0
  9 23  1  0
M  END
