
     RDKit          3D

 23 23  0  0  0  0  0  0  0  0999 V2000
    3.6215   -0.1870   -0.5945 C   0  0  0  0  0  0  0  0  0  0  0  0
    2.4119   -0.6149    0.2172 C   0  0  0  0  0  0  0  0  0  0  0  0
    1.2868    0.3184   -0.1230 C   0  0  0  0  0  0  0  0  0  0  0  0
    0.0157   -0.0034    0.6249 C   0  0  0  0  0  0  0  0  0  0  0  0
   -1.0754    0.9787    0.2317 C   0  0  0  0  0  0  0  0  0  0  0  0
   -1.8810   -0.3053    0.4684 C   0  0  0  0  0  0  0  0  0  0  0  0
   -3.0838   -0.3297   -0.4228 C   0  0  0  0  0  0  0  0  0  0  0  0
   -4.0858    0.4246    0.2062 O   0  0  0  0  0  0  0  0  0  0  0  0
   -0.7737   -1.0039    0.0123 O   0  0  0  0  0  0  0  0  0  0  0  0
    3.6968    0.9290   -0.4645 H   0  0  0  0  0  0  0  0  0  0  0  0
    4.5536   -0.6834   -0.2597 H   0  0  0  0  0  0  0  0  0  0  0  0
    3.4409   -0.3413   -1.6766 H   0  0  0  0  0  0  0  0  0  0  0  0
    2.1171   -1.6632   -0.0769 H   0  0  0  0  0  0  0  0  0  0  0  0
    2.6895   -0.5727    1.2913 H   0  0  0  0  0  0  0  0  0  0  0  0
    1.6013    1.3427    0.2049 H   0  0  0  0  0  0  0  0  0  0  0  0
    1.1150    0.2931   -1.2011 H   0  0  0  0  0  0  0  0  0  0  0  0
    0.1193   -0.1892    1.6928 H   0  0  0  0  0  0  0  0  0  0  0  0
   -1.0017    1.2439   -0.8416 H   0  0  0  0  0  0  0  0  0  0  0  0
   -1.2716    1.7854    0.9335 H   0  0  0  0  0  0  0  0  0  0  0  0
   -2.1261   -0.4203    1.5369 H   0  0  0  0  0  0  0  0  0  0  0  0
   -3.5015   -1.3617   -0.5478 H   0  0  0  0  0  0  0  0  0  0  0  0
   -2.8838    0.1491   -1.4034 H   0  0  0  0  0  0  0  0  0  0  0  0
   -4.9850    0.2112   -0.1183 H   0  0  0  0  0  0  0  0  0  0  0  0
  1  2  1  0
  2  3  1  0
  3  4  1  0
  4  5  1  0
  5  6  1  0
  6  7  1  0
  7  8  1  0
  6  9  1  0
  9  4  1  0
  1 10  1  0
  1 11  1  0
  1 12  1  0
  2 13  1  0
  2 14  1  0
  3 15  1  0
  3 16  1  0
  4 17  1  0
  5 18  1  0
  5 19  1  0
  6 20  1  0
  7 21  1  0
  7 22  1  0
  8 23  1  0
M  END
