
     RDKit          3D

 21 22  0  0  0  0  0  0  0  0999 V2000
   -2.8618    1.0755   -0.0660 C   0  0  0  0  0  0  0  0  0  0  0  0
   -1.9411   -0.0371    0.3339 C   0  0  0  0  0  0  0  0  0  0  0  0
   -0.7539   -0.1817   -0.5905 C   0  0  0  0  0  0  0  0  0  0  0  0
    0.1144   -1.2984   -0.1381 C   0  0  0  0  0  0  0  0  0  0  0  0
    1.2714   -1.4147   -1.0658 O   0  0  0  0  0  0  0  0  0  0  0  0
    1.4399   -1.2273    0.3625 C   0  0  0  0  0  0  0  0  0  0  0  0
    2.1990   -0.0181    0.7798 C   0  0  0  0  0  0  0  0  0  0  0  0
    2.8785    0.8268   -0.2512 C   0  0  0  0  0  0  0  0  0  0  0  0
    1.7687    1.2404    0.4492 O   0  0  0  0  0  0  0  0  0  0  0  0
   -3.5665    1.2367    0.7900 H   0  0  0  0  0  0  0  0  0  0  0  0
   -2.3222    2.0403   -0.1826 H   0  0  0  0  0  0  0  0  0  0  0  0
   -3.4808    0.8314   -0.9575 H   0  0  0  0  0  0  0  0  0  0  0  0
   -1.6088    0.1064    1.3607 H   0  0  0  0  0  0  0  0  0  0  0  0
   -2.5018   -0.9927    0.2899 H   0  0  0  0  0  0  0  0  0  0  0  0
   -0.2530    0.8060   -0.6211 H   0  0  0  0  0  0  0  0  0  0  0  0
   -1.1765   -0.3297   -1.6128 H   0  0  0  0  0  0  0  0  0  0  0  0
   -0.4380   -2.2803   -0.0474 H   0  0  0  0  0  0  0  0  0  0  0  0
    1.8927   -2.1799    0.7681 H   0  0  0  0  0  0  0  0  0  0  0  0
    2.7587   -0.0707    1.7464 H   0  0  0  0  0  0  0  0  0  0  0  0
    3.8578    1.2811   -0.0276 H   0  0  0  0  0  0  0  0  0  0  0  0
    2.7234    0.5859   -1.3199 H   0  0  0  0  0  0  0  0  0  0  0  0
  1  2  1  0
  2  3  1  0
  3  4  1  0
  4  5  1  0
  5  6  1  0
  6  7  1  0
  7  8  1  0
  8  9  1  0
  6  4  1  0
  9  7  1  0
  1 10  1  0
  1 11  1  0
  1 12  1  0
  2 13  1  0
  2 14  1  0
  3 15  1  0
  3 16  1  0
  4 17  1  0
  6 18  1  0
  7 19  1  0
  8 20  1  0
  8 21  1  0
M  END
