
     RDKit          3D

 25 26  0  0  0  0  0  0  0  0999 V2000
    2.5818    0.2241   -0.7512 C   0  0  0  0  0  0  0  0  0  0  0  0
    2.2580   -0.0448    0.7004 C   0  0  0  0  0  0  0  0  0  0  0  0
    0.9509    0.5261    1.0913 C   0  0  0  0  0  0  0  0  0  0  0  0
   -0.2604    0.0668    0.4094 C   0  0  0  0  0  0  0  0  0  0  0  0
   -1.5566    0.6997    0.8679 C   0  0  0  0  0  0  0  0  0  0  0  0
   -2.5433    0.5925   -0.2351 C   0  0  0  0  0  0  0  0  0  0  0  0
   -1.9324   -0.2684   -1.2867 C   0  0  0  0  0  0  0  0  0  0  0  0
   -0.4631   -0.4476   -0.9144 C   0  0  0  0  0  0  0  0  0  0  0  0
   -0.2942   -1.4663    0.2165 C   0  0  0  0  0  0  0  0  0  0  0  0
    2.5607   -0.7282   -1.3538 H   0  0  0  0  0  0  0  0  0  0  0  0
    1.9876    1.0196   -1.2020 H   0  0  0  0  0  0  0  0  0  0  0  0
    3.6638    0.5445   -0.8437 H   0  0  0  0  0  0  0  0  0  0  0  0
    3.0923    0.4188    1.2986 H   0  0  0  0  0  0  0  0  0  0  0  0
    2.3526   -1.1336    0.9333 H   0  0  0  0  0  0  0  0  0  0  0  0
    1.0328    1.6543    1.0649 H   0  0  0  0  0  0  0  0  0  0  0  0
    0.8197    0.3210    2.1972 H   0  0  0  0  0  0  0  0  0  0  0  0
   -1.3477    1.7511    1.0867 H   0  0  0  0  0  0  0  0  0  0  0  0
   -1.8623    0.1830    1.8019 H   0  0  0  0  0  0  0  0  0  0  0  0
   -3.5173    0.1815    0.1608 H   0  0  0  0  0  0  0  0  0  0  0  0
   -2.8065    1.5674   -0.7042 H   0  0  0  0  0  0  0  0  0  0  0  0
   -2.0561    0.1046   -2.3162 H   0  0  0  0  0  0  0  0  0  0  0  0
   -2.4016   -1.2693   -1.2333 H   0  0  0  0  0  0  0  0  0  0  0  0
    0.2283   -0.4881   -1.7565 H   0  0  0  0  0  0  0  0  0  0  0  0
    0.6640   -1.9908    0.1759 H   0  0  0  0  0  0  0  0  0  0  0  0
   -1.1512   -2.0179    0.5925 H   0  0  0  0  0  0  0  0  0  0  0  0
  1  2  1  0
  2  3  1  0
  3  4  1  0
  4  5  1  0
  5  6  1  0
  6  7  1  0
  7  8  1  0
  8  9  1  0
  8  4  1  0
  9  4  1  0
  1 10  1  0
  1 11  1  0
  1 12  1  0
  2 13  1  0
  2 14  1  0
  3 15  1  0
  3 16  1  0
  5 17  1  0
  5 18  1  0
  6 19  1  0
  6 20  1  0
  7 21  1  0
  7 22  1  0
  8 23  1  0
  9 24  1  0
  9 25  1  0
M  END
