
     RDKit          3D

 25 24  0  0  0  0  0  0  0  0999 V2000
    3.3044    0.1586    0.7936 C   0  0  0  0  0  0  0  0  0  0  0  0
    2.9049   -0.5717   -0.4482 C   0  0  0  0  0  0  0  0  0  0  0  0
    1.5876   -0.0678   -0.9768 C   0  0  0  0  0  0  0  0  0  0  0  0
    0.4665   -0.2444    0.0283 C   0  0  0  0  0  0  0  0  0  0  0  0
   -0.6699    0.2424   -0.5529 O   0  0  0  0  0  0  0  0  0  0  0  0
   -1.8150    0.1971    0.1490 C   0  0  0  0  0  0  0  0  0  0  0  0
   -2.2857    1.6170    0.4020 C   0  0  0  0  0  0  0  0  0  0  0  0
   -2.9475   -0.5691   -0.4672 C   0  0  0  0  0  0  0  0  0  0  0  0
   -2.6102   -1.9074   -0.6753 O   0  0  0  0  0  0  0  0  0  0  0  0
    3.2015    1.2593    0.6826 H   0  0  0  0  0  0  0  0  0  0  0  0
    2.6077   -0.1437    1.6042 H   0  0  0  0  0  0  0  0  0  0  0  0
    4.3221   -0.1278    1.1035 H   0  0  0  0  0  0  0  0  0  0  0  0
    2.8073   -1.6553   -0.1977 H   0  0  0  0  0  0  0  0  0  0  0  0
    3.7067   -0.4809   -1.1925 H   0  0  0  0  0  0  0  0  0  0  0  0
    1.7057    1.0363   -1.1526 H   0  0  0  0  0  0  0  0  0  0  0  0
    1.3505   -0.5055   -1.9645 H   0  0  0  0  0  0  0  0  0  0  0  0
    0.4055   -1.2748    0.3919 H   0  0  0  0  0  0  0  0  0  0  0  0
    0.7558    0.3856    0.9142 H   0  0  0  0  0  0  0  0  0  0  0  0
   -1.6219   -0.2623    1.1531 H   0  0  0  0  0  0  0  0  0  0  0  0
   -1.4574    2.3475    0.3374 H   0  0  0  0  0  0  0  0  0  0  0  0
   -2.7624    1.7333    1.3880 H   0  0  0  0  0  0  0  0  0  0  0  0
   -3.0434    1.9149   -0.3729 H   0  0  0  0  0  0  0  0  0  0  0  0
   -3.7927   -0.5800    0.2569 H   0  0  0  0  0  0  0  0  0  0  0  0
   -3.3504   -0.0918   -1.3850 H   0  0  0  0  0  0  0  0  0  0  0  0
   -2.7697   -2.4097    0.1807 H   0  0  0  0  0  0  0  0  0  0  0  0
  1  2  1  0
  2  3  1  0
  3  4  1  0
  4  5  1  0
  5  6  1  0
  6  7  1  0
  6  8  1  0
  8  9  1  0
  1 10  1  0
  1 11  1  0
  1 12  1  0
  2 13  1  0
  2 14  1  0
  3 15  1  0
  3 16  1  0
  4 17  1  0
  4 18  1  0
  6 19  1  0
  7 20  1  0
  7 21  1  0
  7 22  1  0
  8 23  1  0
  8 24  1  0
  9 25  1  0
M  END
