
     RDKit          3D

 25 25  0  0  0  0  0  0  0  0999 V2000
    2.6868   -0.0102    1.3425 C   0  0  0  0  0  0  0  0  0  0  0  0
    2.4656   -0.8184    0.0866 C   0  0  0  0  0  0  0  0  0  0  0  0
    1.6086   -0.0497   -0.9177 C   0  0  0  0  0  0  0  0  0  0  0  0
    0.2630    0.2874   -0.3639 C   0  0  0  0  0  0  0  0  0  0  0  0
   -0.6199    1.0558   -1.3409 C   0  0  0  0  0  0  0  0  0  0  0  0
   -0.9962   -0.2748   -0.8780 C   0  0  0  0  0  0  0  0  0  0  0  0
   -2.1184   -0.5328    0.0914 C   0  0  0  0  0  0  0  0  0  0  0  0
   -2.5780    0.7184    0.7982 C   0  0  0  0  0  0  0  0  0  0  0  0
   -3.2293   -1.1024   -0.5139 O   0  0  0  0  0  0  0  0  0  0  0  0
    3.5230   -0.4825    1.8976 H   0  0  0  0  0  0  0  0  0  0  0  0
    1.7911    0.0215    1.9888 H   0  0  0  0  0  0  0  0  0  0  0  0
    2.9492    1.0373    1.0137 H   0  0  0  0  0  0  0  0  0  0  0  0
    3.4334   -1.0490   -0.3612 H   0  0  0  0  0  0  0  0  0  0  0  0
    1.9300   -1.7415    0.3385 H   0  0  0  0  0  0  0  0  0  0  0  0
    2.1522    0.9315   -1.0590 H   0  0  0  0  0  0  0  0  0  0  0  0
    1.6063   -0.5294   -1.8997 H   0  0  0  0  0  0  0  0  0  0  0  0
    0.2662    0.5857    0.6975 H   0  0  0  0  0  0  0  0  0  0  0  0
   -0.2731    1.1777   -2.3894 H   0  0  0  0  0  0  0  0  0  0  0  0
   -0.9916    2.0010   -0.9126 H   0  0  0  0  0  0  0  0  0  0  0  0
   -0.8946   -1.1058   -1.6358 H   0  0  0  0  0  0  0  0  0  0  0  0
   -1.7884   -1.2505    0.8917 H   0  0  0  0  0  0  0  0  0  0  0  0
   -2.6979    1.5836    0.1171 H   0  0  0  0  0  0  0  0  0  0  0  0
   -3.5664    0.5813    1.2833 H   0  0  0  0  0  0  0  0  0  0  0  0
   -1.8700    1.0103    1.5989 H   0  0  0  0  0  0  0  0  0  0  0  0
   -3.0515   -2.0442   -0.8058 H   0  0  0  0  0  0  0  0  0  0  0  0
  1  2  1  0
  2  3  1  0
  3  4  1  0
  4  5  1  0
  5  6  1  0
  6  7  1  0
  7  8  1  0
  7  9  1  0
  6  4  1  0
  1 10  1  0
  1 11  1  0
  1 12  1  0
  2 13  1  0
  2 14  1  0
  3 15  1  0
  3 16  1  0
  4 17  1  0
  5 18  1  0
  5 19  1  0
  6 20  1  0
  7 21  1  0
  8 22  1  0
  8 23  1  0
  8 24  1  0
  9 25  1  0
M  END
