
     RDKit          3D

 19 19  0  0  0  0  0  0  0  0999 V2000
    2.7484   -0.1769    0.0707 C   0  0  0  0  0  0  0  0  0  0  0  0
    1.2950    0.1381   -0.2080 C   0  0  0  0  0  0  0  0  0  0  0  0
    0.4485   -0.0906    1.0124 C   0  0  0  0  0  0  0  0  0  0  0  0
   -0.9929    0.1991    0.8175 C   0  0  0  0  0  0  0  0  0  0  0  0
   -1.6479   -0.6393   -0.2585 C   0  0  0  0  0  0  0  0  0  0  0  0
   -2.4973    0.6249   -0.2896 C   0  0  0  0  0  0  0  0  0  0  0  0
   -1.3063    1.3147    0.0415 O   0  0  0  0  0  0  0  0  0  0  0  0
    3.4194    0.2380   -0.6909 H   0  0  0  0  0  0  0  0  0  0  0  0
    3.0544    0.2391    1.0708 H   0  0  0  0  0  0  0  0  0  0  0  0
    2.9396   -1.2664    0.1200 H   0  0  0  0  0  0  0  0  0  0  0  0
    1.1763    1.1477   -0.5960 H   0  0  0  0  0  0  0  0  0  0  0  0
    0.9524   -0.5842   -0.9918 H   0  0  0  0  0  0  0  0  0  0  0  0
    0.8495    0.5594    1.8249 H   0  0  0  0  0  0  0  0  0  0  0  0
    0.5502   -1.1306    1.3848 H   0  0  0  0  0  0  0  0  0  0  0  0
   -1.5648    0.1270    1.7659 H   0  0  0  0  0  0  0  0  0  0  0  0
   -1.0692   -0.7270   -1.1743 H   0  0  0  0  0  0  0  0  0  0  0  0
   -2.1980   -1.5224    0.0977 H   0  0  0  0  0  0  0  0  0  0  0  0
   -2.8999    0.8525   -1.2706 H   0  0  0  0  0  0  0  0  0  0  0  0
   -3.2574    0.6972    0.5025 H   0  0  0  0  0  0  0  0  0  0  0  0
  1  2  1  0
  2  3  1  0
  3  4  1  0
  4  5  1  0
  5  6  1  0
  6  7  1  0
  7  4  1  0
  1  8  1  0
  1  9  1  0
  1 10  1  0
  2 11  1  0
  2 12  1  0
  3 13  1  0
  3 14  1  0
  4 15  1  0
  5 16  1  0
  5 17  1  0
  6 18  1  0
  6 19  1  0
M  END
