
     RDKit          3D

 25 24  0  0  0  0  0  0  0  0999 V2000
    3.0101   -0.0152    0.6567 C   0  0  0  0  0  0  0  0  0  0  0  0
    2.3853   -0.2351   -0.6790 C   0  0  0  0  0  0  0  0  0  0  0  0
    0.9426   -0.6175   -0.6250 C   0  0  0  0  0  0  0  0  0  0  0  0
    0.1011    0.4476    0.0511 C   0  0  0  0  0  0  0  0  0  0  0  0
   -1.3457    0.0798    0.1134 C   0  0  0  0  0  0  0  0  0  0  0  0
   -1.9630   -0.1328   -1.2383 C   0  0  0  0  0  0  0  0  0  0  0  0
   -2.0764    1.2704    0.7452 C   0  0  0  0  0  0  0  0  0  0  0  0
   -1.5452   -1.0957    0.9943 C   0  0  0  0  0  0  0  0  0  0  0  0
   -2.3888   -1.1292    1.8616 O   0  0  0  0  0  0  0  0  0  0  0  0
    3.3773    1.0235    0.7160 H   0  0  0  0  0  0  0  0  0  0  0  0
    2.3288   -0.2189    1.5069 H   0  0  0  0  0  0  0  0  0  0  0  0
    3.9078   -0.6693    0.8313 H   0  0  0  0  0  0  0  0  0  0  0  0
    2.9328   -1.0758   -1.1715 H   0  0  0  0  0  0  0  0  0  0  0  0
    2.5175    0.6611   -1.3363 H   0  0  0  0  0  0  0  0  0  0  0  0
    0.5763   -0.6618   -1.6863 H   0  0  0  0  0  0  0  0  0  0  0  0
    0.8001   -1.6063   -0.1893 H   0  0  0  0  0  0  0  0  0  0  0  0
    0.4911    0.5613    1.0806 H   0  0  0  0  0  0  0  0  0  0  0  0
    0.2152    1.4127   -0.4697 H   0  0  0  0  0  0  0  0  0  0  0  0
   -1.4443   -0.8842   -1.8514 H   0  0  0  0  0  0  0  0  0  0  0  0
   -2.1167    0.8345   -1.7671 H   0  0  0  0  0  0  0  0  0  0  0  0
   -3.0078   -0.5177   -1.0493 H   0  0  0  0  0  0  0  0  0  0  0  0
   -1.9158    2.1799    0.1624 H   0  0  0  0  0  0  0  0  0  0  0  0
   -1.7081    1.3473    1.7858 H   0  0  0  0  0  0  0  0  0  0  0  0
   -3.1607    1.0232    0.6859 H   0  0  0  0  0  0  0  0  0  0  0  0
   -0.9134   -1.9818    0.8720 H   0  0  0  0  0  0  0  0  0  0  0  0
  1  2  1  0
  2  3  1  0
  3  4  1  0
  4  5  1  0
  5  6  1  0
  5  7  1  0
  5  8  1  0
  8  9  2  0
  1 10  1  0
  1 11  1  0
  1 12  1  0
  2 13  1  0
  2 14  1  0
  3 15  1  0
  3 16  1  0
  4 17  1  0
  4 18  1  0
  6 19  1  0
  6 20  1  0
  6 21  1  0
  7 22  1  0
  7 23  1  0
  7 24  1  0
  8 25  1  0
M  END
