
     RDKit          3D

 23 22  0  0  0  0  0  0  0  0999 V2000
    3.8897    2.0709   -0.2888 C   0  0  0  0  0  0  0  0  0  0  0  0
    2.7606    1.2696    0.3339 C   0  0  0  0  0  0  0  0  0  0  0  0
    1.6578    0.7903   -0.6195 C   0  0  0  0  0  0  0  0  0  0  0  0
    0.6987    0.2099   -0.2520 C   0  0  0  0  0  0  0  0  0  0  0  0
   -0.3766   -0.4530    0.1410 C   0  0  0  0  0  0  0  0  0  0  0  0
   -1.6736   -1.2512    0.6293 C   0  0  0  0  0  0  0  0  0  0  0  0
   -1.6115   -2.6218   -0.1950 C   0  0  0  0  0  0  0  0  0  0  0  0
   -2.7698   -0.7866    0.3583 O   0  0  0  0  0  0  0  0  0  0  0  0
   -3.9362   -0.3317    0.1418 C   0  0  0  0  0  0  0  0  0  0  0  0
    4.0563    1.6469   -1.3404 H   0  0  0  0  0  0  0  0  0  0  0  0
    4.8606    1.7949    0.2612 H   0  0  0  0  0  0  0  0  0  0  0  0
    3.7416    3.1260   -0.2393 H   0  0  0  0  0  0  0  0  0  0  0  0
    3.2899    0.2834    0.5899 H   0  0  0  0  0  0  0  0  0  0  0  0
    2.2520    1.8208    1.1085 H   0  0  0  0  0  0  0  0  0  0  0  0
    1.9953    0.9264   -1.7029 H   0  0  0  0  0  0  0  0  0  0  0  0
    1.1655    2.0811   -0.7138 H   0  0  0  0  0  0  0  0  0  0  0  0
   -1.3674   -1.5640    1.6954 H   0  0  0  0  0  0  0  0  0  0  0  0
   -2.7893   -2.9409    0.2698 H   0  0  0  0  0  0  0  0  0  0  0  0
   -1.0268   -3.2864    0.2446 H   0  0  0  0  0  0  0  0  0  0  0  0
   -1.7639   -2.3028   -1.2602 H   0  0  0  0  0  0  0  0  0  0  0  0
   -3.8233    0.4378   -0.7971 H   0  0  0  0  0  0  0  0  0  0  0  0
   -4.6884   -1.1613   -0.2112 H   0  0  0  0  0  0  0  0  0  0  0  0
   -4.5410    0.2418    0.8546 H   0  0  0  0  0  0  0  0  0  0  0  0
  1  2  1  0
  2  3  1  0
  3  4  1  0
  4  5  3  0
  5  6  1  0
  6  7  1  0
  6  8  1  0
  8  9  1  0
  1 10  1  0
  1 11  1  0
  1 12  1  0
  2 13  1  0
  2 14  1  0
  3 15  1  0
  3 16  1  0
  6 17  1  0
  7 18  1  0
  7 19  1  0
  7 20  1  0
  9 21  1  0
  9 22  1  0
  9 23  1  0
M  END
