
     RDKit          3D

 23 22  0  0  0  0  0  0  0  0999 V2000
   -3.0677   -1.3244    0.4079 C   0  0  0  0  0  0  0  0  0  0  0  0
   -2.7423   -0.4293   -0.7697 C   0  0  0  0  0  0  0  0  0  0  0  0
   -2.0709    0.8546   -0.3107 C   0  0  0  0  0  0  0  0  0  0  0  0
   -0.8312    0.5078    0.3855 C   0  0  0  0  0  0  0  0  0  0  0  0
    0.1812    0.2210    0.9779 C   0  0  0  0  0  0  0  0  0  0  0  0
    1.4125   -0.1546    1.7049 C   0  0  0  0  0  0  0  0  0  0  0  0
    2.2823   -0.6839    0.7823 O   0  0  0  0  0  0  0  0  0  0  0  0
    2.5596    0.2739   -0.1949 C   0  0  0  0  0  0  0  0  0  0  0  0
    3.5100   -0.2366   -1.2443 C   0  0  0  0  0  0  0  0  0  0  0  0
   -3.9320   -1.9628    0.0923 H   0  0  0  0  0  0  0  0  0  0  0  0
   -3.4002   -0.7547    1.2910 H   0  0  0  0  0  0  0  0  0  0  0  0
   -2.1762   -1.9413    0.6548 H   0  0  0  0  0  0  0  0  0  0  0  0
   -2.0691   -0.9889   -1.4421 H   0  0  0  0  0  0  0  0  0  0  0  0
   -3.6950   -0.1958   -1.2878 H   0  0  0  0  0  0  0  0  0  0  0  0
   -1.9295    1.5624   -1.1351 H   0  0  0  0  0  0  0  0  0  0  0  0
   -2.8100    1.3396    0.3875 H   0  0  0  0  0  0  0  0  0  0  0  0
    1.1853   -0.8816    2.5096 H   0  0  0  0  0  0  0  0  0  0  0  0
    1.8641    0.7476    2.1995 H   0  0  0  0  0  0  0  0  0  0  0  0
    2.9896    1.1998    0.2762 H   0  0  0  0  0  0  0  0  0  0  0  0
    1.6000    0.5039   -0.7172 H   0  0  0  0  0  0  0  0  0  0  0  0
    3.3809    0.3761   -2.1473 H   0  0  0  0  0  0  0  0  0  0  0  0
    3.2055   -1.2815   -1.5197 H   0  0  0  0  0  0  0  0  0  0  0  0
    4.5531   -0.2942   -0.9008 H   0  0  0  0  0  0  0  0  0  0  0  0
  1  2  1  0
  2  3  1  0
  3  4  1  0
  4  5  3  0
  5  6  1  0
  6  7  1  0
  7  8  1  0
  8  9  1  0
  1 10  1  0
  1 11  1  0
  1 12  1  0
  2 13  1  0
  2 14  1  0
  3 15  1  0
  3 16  1  0
  6 17  1  0
  6 18  1  0
  8 19  1  0
  8 20  1  0
  9 21  1  0
  9 22  1  0
  9 23  1  0
M  END
