
     RDKit          3D

 23 22  0  0  0  0  0  0  0  0999 V2000
    3.9301   -0.6539    0.0992 C   0  0  0  0  0  0  0  0  0  0  0  0
    2.7477    0.0758   -0.5058 C   0  0  0  0  0  0  0  0  0  0  0  0
    1.5149   -0.3675    0.2067 C   0  0  0  0  0  0  0  0  0  0  0  0
    0.2800    0.2652   -0.2810 C   0  0  0  0  0  0  0  0  0  0  0  0
    0.2081    1.0996   -1.1995 O   0  0  0  0  0  0  0  0  0  0  0  0
   -0.9117   -0.0993    0.3366 O   0  0  0  0  0  0  0  0  0  0  0  0
   -2.1643    0.4078   -0.0078 C   0  0  0  0  0  0  0  0  0  0  0  0
   -2.8315    1.1736    1.1094 C   0  0  0  0  0  0  0  0  0  0  0  0
   -3.0430   -0.7461   -0.4477 C   0  0  0  0  0  0  0  0  0  0  0  0
    4.8464   -0.0314    0.1289 H   0  0  0  0  0  0  0  0  0  0  0  0
    4.0878   -1.5669   -0.5466 H   0  0  0  0  0  0  0  0  0  0  0  0
    3.6589   -1.0453    1.1014 H   0  0  0  0  0  0  0  0  0  0  0  0
    2.9227    1.1643   -0.2917 H   0  0  0  0  0  0  0  0  0  0  0  0
    2.7224   -0.0541   -1.5889 H   0  0  0  0  0  0  0  0  0  0  0  0
    1.3923   -1.4772    0.0403 H   0  0  0  0  0  0  0  0  0  0  0  0
    1.6123   -0.1853    1.2769 H   0  0  0  0  0  0  0  0  0  0  0  0
   -2.0185    1.1337   -0.8440 H   0  0  0  0  0  0  0  0  0  0  0  0
   -2.4668    0.8679    2.1031 H   0  0  0  0  0  0  0  0  0  0  0  0
   -2.7655    2.2743    0.9546 H   0  0  0  0  0  0  0  0  0  0  0  0
   -3.9190    0.9321    1.0626 H   0  0  0  0  0  0  0  0  0  0  0  0
   -4.0376   -0.6326    0.0149 H   0  0  0  0  0  0  0  0  0  0  0  0
   -2.6341   -1.7255   -0.1130 H   0  0  0  0  0  0  0  0  0  0  0  0
   -3.1315   -0.8094   -1.5505 H   0  0  0  0  0  0  0  0  0  0  0  0
  1  2  1  0
  2  3  1  0
  3  4  1  0
  4  5  2  0
  4  6  1  0
  6  7  1  0
  7  8  1  0
  7  9  1  0
  1 10  1  0
  1 11  1  0
  1 12  1  0
  2 13  1  0
  2 14  1  0
  3 15  1  0
  3 16  1  0
  7 17  1  0
  8 18  1  0
  8 19  1  0
  8 20  1  0
  9 21  1  0
  9 22  1  0
  9 23  1  0
M  END
