
     RDKit          3D

 22 23  0  0  0  0  0  0  0  0999 V2000
    2.5517   -0.5700    0.6921 C   0  0  0  0  0  0  0  0  0  0  0  0
    1.9704   -0.1921   -0.6542 C   0  0  0  0  0  0  0  0  0  0  0  0
    0.7698    0.7484   -0.4179 C   0  0  0  0  0  0  0  0  0  0  0  0
   -0.2716    0.0693    0.4007 C   0  0  0  0  0  0  0  0  0  0  0  0
   -1.5121    0.7654    0.7685 C   0  0  0  0  0  0  0  0  0  0  0  0
   -1.9036    0.7202   -0.6703 C   0  0  0  0  0  0  0  0  0  0  0  0
   -1.3028   -0.6185   -0.4453 C   0  0  0  0  0  0  0  0  0  0  0  0
   -2.1305   -0.6264    0.8172 C   0  0  0  0  0  0  0  0  0  0  0  0
    1.9491   -1.4280    1.0742 H   0  0  0  0  0  0  0  0  0  0  0  0
    3.6179   -0.8793    0.5400 H   0  0  0  0  0  0  0  0  0  0  0  0
    2.4668    0.3021    1.3628 H   0  0  0  0  0  0  0  0  0  0  0  0
    2.7522    0.3642   -1.2109 H   0  0  0  0  0  0  0  0  0  0  0  0
    1.6641   -1.0875   -1.1968 H   0  0  0  0  0  0  0  0  0  0  0  0
    0.4492    1.0134   -1.4428 H   0  0  0  0  0  0  0  0  0  0  0  0
    1.1608    1.6392    0.1150 H   0  0  0  0  0  0  0  0  0  0  0  0
    0.1196   -0.5436    1.2507 H   0  0  0  0  0  0  0  0  0  0  0  0
   -1.6847    1.4913    1.4344 H   0  0  0  0  0  0  0  0  0  0  0  0
   -3.0219    0.6165   -0.7216 H   0  0  0  0  0  0  0  0  0  0  0  0
   -1.4692    1.4199   -1.3711 H   0  0  0  0  0  0  0  0  0  0  0  0
   -1.1714   -1.3780   -1.0796 H   0  0  0  0  0  0  0  0  0  0  0  0
   -1.7987   -1.2711    1.6263 H   0  0  0  0  0  0  0  0  0  0  0  0
   -3.2053   -0.5555    0.6005 H   0  0  0  0  0  0  0  0  0  0  0  0
  1  2  1  0
  2  3  1  0
  3  4  1  0
  4  5  1  0
  5  6  1  0
  6  7  1  0
  7  8  1  0
  7  4  1  0
  8  5  1  0
  1  9  1  0
  1 10  1  0
  1 11  1  0
  2 12  1  0
  2 13  1  0
  3 14  1  0
  3 15  1  0
  4 16  1  0
  5 17  1  0
  6 18  1  0
  6 19  1  0
  7 20  1  0
  8 21  1  0
  8 22  1  0
M  END
