
     RDKit          3D

 25 25  0  0  0  0  0  0  0  0999 V2000
   -2.9967    0.7507    0.9139 C   0  0  0  0  0  0  0  0  0  0  0  0
   -1.9158   -0.0774    0.2112 C   0  0  0  0  0  0  0  0  0  0  0  0
   -0.6431    0.7141    0.0843 C   0  0  0  0  0  0  0  0  0  0  0  0
    0.4076   -0.1088   -0.6072 C   0  0  0  0  0  0  0  0  0  0  0  0
    1.7224    0.6307   -0.7700 C   0  0  0  0  0  0  0  0  0  0  0  0
    2.2826    1.0206    0.4221 O   0  0  0  0  0  0  0  0  0  0  0  0
    2.5494   -0.0497    1.2415 C   0  0  0  0  0  0  0  0  0  0  0  0
    0.0671   -1.0055   -1.7335 C   0  0  0  0  0  0  0  0  0  0  0  0
    0.5195   -1.5792   -0.4066 C   0  0  0  0  0  0  0  0  0  0  0  0
   -2.9187    1.8196    0.6713 H   0  0  0  0  0  0  0  0  0  0  0  0
   -2.9529    0.5729    2.0259 H   0  0  0  0  0  0  0  0  0  0  0  0
   -3.9661    0.3195    0.5850 H   0  0  0  0  0  0  0  0  0  0  0  0
   -1.7484   -0.9929    0.7996 H   0  0  0  0  0  0  0  0  0  0  0  0
   -2.2964   -0.2639   -0.8131 H   0  0  0  0  0  0  0  0  0  0  0  0
   -0.8638    1.5936   -0.5874 H   0  0  0  0  0  0  0  0  0  0  0  0
   -0.2868    1.1267    1.0327 H   0  0  0  0  0  0  0  0  0  0  0  0
    2.4836   -0.0178   -1.2847 H   0  0  0  0  0  0  0  0  0  0  0  0
    1.5665    1.4842   -1.4663 H   0  0  0  0  0  0  0  0  0  0  0  0
    3.2514   -0.7827    0.7923 H   0  0  0  0  0  0  0  0  0  0  0  0
    3.0093    0.2906    2.1943 H   0  0  0  0  0  0  0  0  0  0  0  0
    1.6073   -0.5473    1.5329 H   0  0  0  0  0  0  0  0  0  0  0  0
   -0.9725   -1.2725   -1.9922 H   0  0  0  0  0  0  0  0  0  0  0  0
    0.7523   -1.0702   -2.6031 H   0  0  0  0  0  0  0  0  0  0  0  0
    1.5328   -2.0614   -0.4396 H   0  0  0  0  0  0  0  0  0  0  0  0
   -0.1907   -2.1558    0.1965 H   0  0  0  0  0  0  0  0  0  0  0  0
  1  2  1  0
  2  3  1  0
  3  4  1  0
  4  5  1  0
  5  6  1  0
  6  7  1  0
  4  8  1  0
  8  9  1  0
  9  4  1  0
  1 10  1  0
  1 11  1  0
  1 12  1  0
  2 13  1  0
  2 14  1  0
  3 15  1  0
  3 16  1  0
  5 17  1  0
  5 18  1  0
  7 19  1  0
  7 20  1  0
  7 21  1  0
  8 22  1  0
  8 23  1  0
  9 24  1  0
  9 25  1  0
M  END
