
     RDKit          3D

 23 24  0  0  0  0  0  0  0  0999 V2000
    3.2852    0.2322    0.1757 C   0  0  0  0  0  0  0  0  0  0  0  0
    1.9967   -0.4985   -0.2270 C   0  0  0  0  0  0  0  0  0  0  0  0
    0.9112    0.0969    0.6264 C   0  0  0  0  0  0  0  0  0  0  0  0
   -0.4362   -0.4847    0.3849 C   0  0  0  0  0  0  0  0  0  0  0  0
   -1.5469    0.0814    1.2156 C   0  0  0  0  0  0  0  0  0  0  0  0
   -2.5513    0.6053    0.2239 C   0  0  0  0  0  0  0  0  0  0  0  0
   -2.2207   -0.0274   -1.0920 C   0  0  0  0  0  0  0  0  0  0  0  0
   -0.8768   -0.6577   -0.9941 C   0  0  0  0  0  0  0  0  0  0  0  0
   -0.6204   -1.7209   -0.1704 O   0  0  0  0  0  0  0  0  0  0  0  0
    3.0784    1.3187   -0.0333 H   0  0  0  0  0  0  0  0  0  0  0  0
    4.1553   -0.1412   -0.3563 H   0  0  0  0  0  0  0  0  0  0  0  0
    3.3947    0.0944    1.2720 H   0  0  0  0  0  0  0  0  0  0  0  0
    1.8216   -0.3634   -1.3096 H   0  0  0  0  0  0  0  0  0  0  0  0
    2.1370   -1.5854   -0.0198 H   0  0  0  0  0  0  0  0  0  0  0  0
    1.2488    0.0694    1.6771 H   0  0  0  0  0  0  0  0  0  0  0  0
    0.8593    1.1870    0.3547 H   0  0  0  0  0  0  0  0  0  0  0  0
   -1.1869    0.8246    1.9259 H   0  0  0  0  0  0  0  0  0  0  0  0
   -2.0562   -0.7155    1.8134 H   0  0  0  0  0  0  0  0  0  0  0  0
   -3.5860    0.3696    0.5533 H   0  0  0  0  0  0  0  0  0  0  0  0
   -2.4855    1.7132    0.2006 H   0  0  0  0  0  0  0  0  0  0  0  0
   -3.0271   -0.7178   -1.4292 H   0  0  0  0  0  0  0  0  0  0  0  0
   -2.1416    0.8103   -1.8411 H   0  0  0  0  0  0  0  0  0  0  0  0
   -0.1528   -0.4903   -1.8077 H   0  0  0  0  0  0  0  0  0  0  0  0
  1  2  1  0
  2  3  1  0
  3  4  1  0
  4  5  1  0
  5  6  1  0
  6  7  1  0
  7  8  1  0
  8  9  1  0
  8  4  1  0
  9  4  1  0
  1 10  1  0
  1 11  1  0
  1 12  1  0
  2 13  1  0
  2 14  1  0
  3 15  1  0
  3 16  1  0
  5 17  1  0
  5 18  1  0
  6 19  1  0
  6 20  1  0
  7 21  1  0
  7 22  1  0
  8 23  1  0
M  END
