
     RDKit          3D

 22 22  0  0  0  0  0  0  0  0999 V2000
    2.9288   -0.5591    0.4110 C   0  0  0  0  0  0  0  0  0  0  0  0
    1.7074    0.1229   -0.1591 C   0  0  0  0  0  0  0  0  0  0  0  0
    0.6626    0.1946    0.9252 C   0  0  0  0  0  0  0  0  0  0  0  0
   -0.6062    0.8640    0.4528 C   0  0  0  0  0  0  0  0  0  0  0  0
   -0.3918    2.1685    0.0269 O   0  0  0  0  0  0  0  0  0  0  0  0
   -1.2908    0.1146   -0.6380 C   0  0  0  0  0  0  0  0  0  0  0  0
   -1.7584   -1.3148   -0.3749 C   0  0  0  0  0  0  0  0  0  0  0  0
   -2.7469   -0.2028   -0.4068 C   0  0  0  0  0  0  0  0  0  0  0  0
    3.0028   -0.2389    1.4740 H   0  0  0  0  0  0  0  0  0  0  0  0
    3.8500   -0.1944   -0.0832 H   0  0  0  0  0  0  0  0  0  0  0  0
    2.8825   -1.6532    0.3441 H   0  0  0  0  0  0  0  0  0  0  0  0
    1.3149   -0.5262   -0.9572 H   0  0  0  0  0  0  0  0  0  0  0  0
    2.0262    1.1223   -0.5080 H   0  0  0  0  0  0  0  0  0  0  0  0
    0.4253   -0.8231    1.2379 H   0  0  0  0  0  0  0  0  0  0  0  0
    1.0752    0.7854    1.7653 H   0  0  0  0  0  0  0  0  0  0  0  0
   -1.2769    0.9220    1.3324 H   0  0  0  0  0  0  0  0  0  0  0  0
   -0.9868    2.8254    0.4824 H   0  0  0  0  0  0  0  0  0  0  0  0
   -0.9393    0.3008   -1.6726 H   0  0  0  0  0  0  0  0  0  0  0  0
   -1.4666   -1.7628    0.6083 H   0  0  0  0  0  0  0  0  0  0  0  0
   -1.7433   -2.0220   -1.2331 H   0  0  0  0  0  0  0  0  0  0  0  0
   -3.2121    0.0963    0.5546 H   0  0  0  0  0  0  0  0  0  0  0  0
   -3.4562   -0.2195   -1.2438 H   0  0  0  0  0  0  0  0  0  0  0  0
  1  2  1  0
  2  3  1  0
  3  4  1  0
  4  5  1  0
  4  6  1  0
  6  7  1  0
  7  8  1  0
  8  6  1  0
  1  9  1  0
  1 10  1  0
  1 11  1  0
  2 12  1  0
  2 13  1  0
  3 14  1  0
  3 15  1  0
  4 16  1  0
  5 17  1  0
  6 18  1  0
  7 19  1  0
  7 20  1  0
  8 21  1  0
  8 22  1  0
M  END
