
     RDKit          3D

 17 16  0  0  0  0  0  0  0  0999 V2000
    1.2617    0.1066   -1.3899 C   0  0  0  0  0  0  0  0  0  0  0  0
    1.5493    0.4211    0.0420 C   0  0  0  0  0  0  0  0  0  0  0  0
    0.8674   -0.5700    0.9223 C   0  0  0  0  0  0  0  0  0  0  0  0
   -0.5868   -0.6112    0.8197 C   0  0  0  0  0  0  0  0  0  0  0  0
   -1.1713   -1.6269    1.2954 O   0  0  0  0  0  0  0  0  0  0  0  0
   -1.4046    0.4131    0.2213 C   0  0  0  0  0  0  0  0  0  0  0  0
   -0.9156    1.4688   -0.2528 O   0  0  0  0  0  0  0  0  0  0  0  0
   -2.8694    0.2806    0.1299 C   0  0  0  0  0  0  0  0  0  0  0  0
   -3.4961   -0.7164    0.5570 O   0  0  0  0  0  0  0  0  0  0  0  0
    0.4086   -0.5746   -1.4536 H   0  0  0  0  0  0  0  0  0  0  0  0
    2.1390   -0.4833   -1.7993 H   0  0  0  0  0  0  0  0  0  0  0  0
    1.1550    1.0551   -1.9651 H   0  0  0  0  0  0  0  0  0  0  0  0
    2.6597    0.2634    0.2085 H   0  0  0  0  0  0  0  0  0  0  0  0
    1.3006    1.4632    0.3479 H   0  0  0  0  0  0  0  0  0  0  0  0
    1.2227   -0.3850    1.9706 H   0  0  0  0  0  0  0  0  0  0  0  0
    1.3254   -1.5709    0.6671 H   0  0  0  0  0  0  0  0  0  0  0  0
   -3.4456    1.0663   -0.3211 H   0  0  0  0  0  0  0  0  0  0  0  0
  1  2  1  0
  2  3  1  0
  3  4  1  0
  4  5  2  0
  4  6  1  0
  6  7  2  0
  6  8  1  0
  8  9  2  0
  1 10  1  0
  1 11  1  0
  1 12  1  0
  2 13  1  0
  2 14  1  0
  3 15  1  0
  3 16  1  0
  8 17  1  0
M  END
