
     RDKit          3D

 19 19  0  0  0  0  0  0  0  0999 V2000
   -2.8856    0.3833    0.2211 C   0  0  0  0  0  0  0  0  0  0  0  0
   -1.4917    0.8042   -0.1652 C   0  0  0  0  0  0  0  0  0  0  0  0
   -0.5453   -0.3756   -0.2332 C   0  0  0  0  0  0  0  0  0  0  0  0
    0.8386    0.0888   -0.6230 C   0  0  0  0  0  0  0  0  0  0  0  0
    1.7594   -1.0558   -0.6896 C   0  0  0  0  0  0  0  0  0  0  0  0
    2.7642   -0.8954    0.1621 C   0  0  0  0  0  0  0  0  0  0  0  0
    2.5709    0.3834    0.8570 C   0  0  0  0  0  0  0  0  0  0  0  0
    3.3701    0.8054    1.7274 O   0  0  0  0  0  0  0  0  0  0  0  0
    1.4091    0.9295    0.3521 O   0  0  0  0  0  0  0  0  0  0  0  0
   -3.2268   -0.5189   -0.2902 H   0  0  0  0  0  0  0  0  0  0  0  0
   -2.9316    0.2501    1.3413 H   0  0  0  0  0  0  0  0  0  0  0  0
   -3.5846    1.2047   -0.0553 H   0  0  0  0  0  0  0  0  0  0  0  0
   -1.4959    1.2858   -1.1714 H   0  0  0  0  0  0  0  0  0  0  0  0
   -1.1230    1.5649    0.5491 H   0  0  0  0  0  0  0  0  0  0  0  0
   -0.8908   -1.1501   -0.9187 H   0  0  0  0  0  0  0  0  0  0  0  0
   -0.4990   -0.8169    0.7930 H   0  0  0  0  0  0  0  0  0  0  0  0
    0.7284    0.6159   -1.5997 H   0  0  0  0  0  0  0  0  0  0  0  0
    1.6500   -1.9157   -1.3348 H   0  0  0  0  0  0  0  0  0  0  0  0
    3.5835   -1.5878    0.3166 H   0  0  0  0  0  0  0  0  0  0  0  0
  1  2  1  0
  2  3  1  0
  3  4  1  0
  4  5  1  0
  5  6  2  0
  6  7  1  0
  7  8  2  0
  7  9  1  0
  9  4  1  0
  1 10  1  0
  1 11  1  0
  1 12  1  0
  2 13  1  0
  2 14  1  0
  3 15  1  0
  3 16  1  0
  4 17  1  0
  5 18  1  0
  6 19  1  0
M  END
