
     RDKit          3D

 23 24  0  0  0  0  0  0  0  0999 V2000
   -2.4557    0.5434   -0.2609 C   0  0  0  0  0  0  0  0  0  0  0  0
   -1.2109    1.1295    0.3486 C   0  0  0  0  0  0  0  0  0  0  0  0
   -0.2409    0.2215    0.9478 C   0  0  0  0  0  0  0  0  0  0  0  0
    0.5003   -0.8151    0.2932 C   0  0  0  0  0  0  0  0  0  0  0  0
   -0.2840   -1.9255   -0.3646 C   0  0  0  0  0  0  0  0  0  0  0  0
   -0.3944   -0.9340   -1.3552 O   0  0  0  0  0  0  0  0  0  0  0  0
    0.9677   -0.8297   -1.1861 C   0  0  0  0  0  0  0  0  0  0  0  0
    1.8301   -0.3979   -0.1518 C   0  0  0  0  0  0  0  0  0  0  0  0
    2.2391    1.0786   -0.1382 C   0  0  0  0  0  0  0  0  0  0  0  0
   -2.5308    0.6946   -1.3670 H   0  0  0  0  0  0  0  0  0  0  0  0
   -2.6880   -0.4857    0.0550 H   0  0  0  0  0  0  0  0  0  0  0  0
   -3.3845    1.1135    0.0962 H   0  0  0  0  0  0  0  0  0  0  0  0
   -0.7695    1.9214   -0.3281 H   0  0  0  0  0  0  0  0  0  0  0  0
   -1.5803    1.8013    1.1951 H   0  0  0  0  0  0  0  0  0  0  0  0
   -0.8152   -0.2928    1.8049 H   0  0  0  0  0  0  0  0  0  0  0  0
    0.4745    0.8531    1.5796 H   0  0  0  0  0  0  0  0  0  0  0  0
    0.3276   -2.7993   -0.6797 H   0  0  0  0  0  0  0  0  0  0  0  0
   -1.1733   -2.2575    0.1350 H   0  0  0  0  0  0  0  0  0  0  0  0
    1.3386   -1.8362   -1.5847 H   0  0  0  0  0  0  0  0  0  0  0  0
    2.6597   -1.0123    0.3127 H   0  0  0  0  0  0  0  0  0  0  0  0
    1.5765    1.6992   -0.7539 H   0  0  0  0  0  0  0  0  0  0  0  0
    3.2996    1.1072   -0.5217 H   0  0  0  0  0  0  0  0  0  0  0  0
    2.3137    1.4229    0.9135 H   0  0  0  0  0  0  0  0  0  0  0  0
  1  2  1  0
  2  3  1  0
  3  4  1  0
  4  5  1  0
  5  6  1  0
  6  7  1  0
  7  8  1  0
  8  9  1  0
  7  4  1  0
  8  4  1  0
  1 10  1  0
  1 11  1  0
  1 12  1  0
  2 13  1  0
  2 14  1  0
  3 15  1  0
  3 16  1  0
  5 17  1  0
  5 18  1  0
  7 19  1  0
  8 20  1  0
  9 21  1  0
  9 22  1  0
  9 23  1  0
M  END
