
     RDKit          3D

 23 24  0  0  0  0  0  0  0  0999 V2000
    2.9848   -0.6098   -0.4251 C   0  0  0  0  0  0  0  0  0  0  0  0
    1.4668   -0.8052   -0.4313 C   0  0  0  0  0  0  0  0  0  0  0  0
    0.8649    0.4955    0.0397 C   0  0  0  0  0  0  0  0  0  0  0  0
   -0.5650    0.4624    0.0858 C   0  0  0  0  0  0  0  0  0  0  0  0
   -1.3824    1.6244    0.5176 C   0  0  0  0  0  0  0  0  0  0  0  0
   -2.6815    1.0505    0.4456 O   0  0  0  0  0  0  0  0  0  0  0  0
   -2.4362   -0.2239   -0.0031 C   0  0  0  0  0  0  0  0  0  0  0  0
   -1.3682   -0.0447   -1.0960 C   0  0  0  0  0  0  0  0  0  0  0  0
   -1.2494   -0.6698    0.8669 C   0  0  0  0  0  0  0  0  0  0  0  0
    3.5068   -1.5275   -0.0887 H   0  0  0  0  0  0  0  0  0  0  0  0
    3.3357   -0.4232   -1.4656 H   0  0  0  0  0  0  0  0  0  0  0  0
    3.2736    0.2831    0.1642 H   0  0  0  0  0  0  0  0  0  0  0  0
    1.2774   -1.6193    0.3092 H   0  0  0  0  0  0  0  0  0  0  0  0
    1.1473   -1.0716   -1.4548 H   0  0  0  0  0  0  0  0  0  0  0  0
    1.2855    0.6788    1.0572 H   0  0  0  0  0  0  0  0  0  0  0  0
    1.2256    1.2832   -0.6290 H   0  0  0  0  0  0  0  0  0  0  0  0
   -1.2854    2.4802   -0.1598 H   0  0  0  0  0  0  0  0  0  0  0  0
   -1.1926    1.8581    1.5775 H   0  0  0  0  0  0  0  0  0  0  0  0
   -3.2096   -0.9201   -0.1783 H   0  0  0  0  0  0  0  0  0  0  0  0
   -1.0344   -0.9811   -1.5386 H   0  0  0  0  0  0  0  0  0  0  0  0
   -1.7270    0.7402   -1.7851 H   0  0  0  0  0  0  0  0  0  0  0  0
   -1.3532   -0.3924    1.9146 H   0  0  0  0  0  0  0  0  0  0  0  0
   -0.8835   -1.6677    0.6224 H   0  0  0  0  0  0  0  0  0  0  0  0
  1  2  1  0
  2  3  1  0
  3  4  1  0
  4  5  1  0
  5  6  1  0
  6  7  1  0
  7  8  1  0
  7  9  1  0
  8  4  1  0
  9  4  1  0
  1 10  1  0
  1 11  1  0
  1 12  1  0
  2 13  1  0
  2 14  1  0
  3 15  1  0
  3 16  1  0
  5 17  1  0
  5 18  1  0
  7 19  1  0
  8 20  1  0
  8 21  1  0
  9 22  1  0
  9 23  1  0
M  END
