
     RDKit          3D

 20 20  0  0  0  0  0  0  0  0999 V2000
   -2.7221    0.6403   -0.5443 C   0  0  0  0  0  0  0  0  0  0  0  0
   -1.6062    0.2825    0.4173 C   0  0  0  0  0  0  0  0  0  0  0  0
   -0.5638   -0.4724   -0.3658 C   0  0  0  0  0  0  0  0  0  0  0  0
    0.6093   -0.8898    0.4807 C   0  0  0  0  0  0  0  0  0  0  0  0
    1.2815    0.2774    1.0718 C   0  0  0  0  0  0  0  0  0  0  0  0
    2.3692    0.5247    0.3801 C   0  0  0  0  0  0  0  0  0  0  0  0
    2.4391   -0.4899   -0.6991 C   0  0  0  0  0  0  0  0  0  0  0  0
    1.5538   -1.4817   -0.3533 O   0  0  0  0  0  0  0  0  0  0  0  0
   -2.7590   -0.0725   -1.3990 H   0  0  0  0  0  0  0  0  0  0  0  0
   -3.7027    0.6777   -0.0272 H   0  0  0  0  0  0  0  0  0  0  0  0
   -2.5262    1.6454   -1.0033 H   0  0  0  0  0  0  0  0  0  0  0  0
   -1.2178    1.2303    0.8345 H   0  0  0  0  0  0  0  0  0  0  0  0
   -2.0351   -0.2908    1.2536 H   0  0  0  0  0  0  0  0  0  0  0  0
   -0.1992    0.1946   -1.1631 H   0  0  0  0  0  0  0  0  0  0  0  0
   -1.0393   -1.3405   -0.8438 H   0  0  0  0  0  0  0  0  0  0  0  0
    0.3318   -1.6210    1.2626 H   0  0  0  0  0  0  0  0  0  0  0  0
    0.9550    0.8469    1.9258 H   0  0  0  0  0  0  0  0  0  0  0  0
    3.1124    1.3215    0.5381 H   0  0  0  0  0  0  0  0  0  0  0  0
    3.4660   -0.9326   -0.6700 H   0  0  0  0  0  0  0  0  0  0  0  0
    2.2534   -0.0499   -1.7063 H   0  0  0  0  0  0  0  0  0  0  0  0
  1  2  1  0
  2  3  1  0
  3  4  1  0
  4  5  1  0
  5  6  2  0
  6  7  1  0
  7  8  1  0
  8  4  1  0
  1  9  1  0
  1 10  1  0
  1 11  1  0
  2 12  1  0
  2 13  1  0
  3 14  1  0
  3 15  1  0
  4 16  1  0
  5 17  1  0
  6 18  1  0
  7 19  1  0
  7 20  1  0
M  END
