
     RDKit          3D

 23 23  0  0  0  0  0  0  0  0999 V2000
    3.2005    1.1144    0.2970 C   0  0  0  0  0  0  0  0  0  0  0  0
    1.9393    0.7271   -0.4042 C   0  0  0  0  0  0  0  0  0  0  0  0
    1.2069   -0.4096    0.2903 C   0  0  0  0  0  0  0  0  0  0  0  0
   -0.0444   -0.7219   -0.4923 C   0  0  0  0  0  0  0  0  0  0  0  0
   -0.9842   -1.7665   -0.1013 C   0  0  0  0  0  0  0  0  0  0  0  0
   -0.8959   -2.4667    1.0791 O   0  0  0  0  0  0  0  0  0  0  0  0
   -1.3777   -0.2863    0.0848 C   0  0  0  0  0  0  0  0  0  0  0  0
   -2.3342    0.2292   -0.7808 O   0  0  0  0  0  0  0  0  0  0  0  0
   -3.1287    1.1284   -0.0968 C   0  0  0  0  0  0  0  0  0  0  0  0
    2.9907    1.9677    0.9939 H   0  0  0  0  0  0  0  0  0  0  0  0
    3.9106    1.5054   -0.4587 H   0  0  0  0  0  0  0  0  0  0  0  0
    3.6271    0.2587    0.8785 H   0  0  0  0  0  0  0  0  0  0  0  0
    1.2312    1.6004   -0.3684 H   0  0  0  0  0  0  0  0  0  0  0  0
    2.1218    0.4669   -1.4520 H   0  0  0  0  0  0  0  0  0  0  0  0
    1.8946   -1.2569    0.3849 H   0  0  0  0  0  0  0  0  0  0  0  0
    0.9315   -0.0975    1.3202 H   0  0  0  0  0  0  0  0  0  0  0  0
    0.0527   -0.5121   -1.5741 H   0  0  0  0  0  0  0  0  0  0  0  0
   -1.5765   -2.2726   -0.8997 H   0  0  0  0  0  0  0  0  0  0  0  0
   -1.3525   -3.3516    1.0226 H   0  0  0  0  0  0  0  0  0  0  0  0
   -1.4228    0.0952    1.1081 H   0  0  0  0  0  0  0  0  0  0  0  0
   -3.8842    1.5260   -0.8089 H   0  0  0  0  0  0  0  0  0  0  0  0
   -3.6279    0.5690    0.7256 H   0  0  0  0  0  0  0  0  0  0  0  0
   -2.4777    1.9530    0.2933 H   0  0  0  0  0  0  0  0  0  0  0  0
  1  2  1  0
  2  3  1  0
  3  4  1  0
  4  5  1  0
  5  6  1  0
  5  7  1  0
  7  8  1  0
  8  9  1  0
  7  4  1  0
  1 10  1  0
  1 11  1  0
  1 12  1  0
  2 13  1  0
  2 14  1  0
  3 15  1  0
  3 16  1  0
  4 17  1  0
  5 18  1  0
  6 19  1  0
  7 20  1  0
  9 21  1  0
  9 22  1  0
  9 23  1  0
M  END
