
     RDKit          3D

 25 24  0  0  0  0  0  0  0  0999 V2000
    3.9386    0.1507    0.1327 C   0  0  0  0  0  0  0  0  0  0  0  0
    2.5481    0.6557   -0.1407 C   0  0  0  0  0  0  0  0  0  0  0  0
    1.5016   -0.4259    0.1384 C   0  0  0  0  0  0  0  0  0  0  0  0
    0.1610    0.2056   -0.1732 C   0  0  0  0  0  0  0  0  0  0  0  0
   -0.9805   -0.7711    0.0636 C   0  0  0  0  0  0  0  0  0  0  0  0
   -2.2487   -0.0406   -0.2752 C   0  0  0  0  0  0  0  0  0  0  0  0
   -3.4790   -0.8900   -0.0873 C   0  0  0  0  0  0  0  0  0  0  0  0
   -2.3508    1.1421    0.6028 C   0  0  0  0  0  0  0  0  0  0  0  0
   -2.7142    2.2401    0.2235 O   0  0  0  0  0  0  0  0  0  0  0  0
    4.2905   -0.4809   -0.7033 H   0  0  0  0  0  0  0  0  0  0  0  0
    4.0467   -0.3268    1.1232 H   0  0  0  0  0  0  0  0  0  0  0  0
    4.6070    1.0504    0.1461 H   0  0  0  0  0  0  0  0  0  0  0  0
    2.3429    1.5485    0.4831 H   0  0  0  0  0  0  0  0  0  0  0  0
    2.5094    0.9527   -1.2066 H   0  0  0  0  0  0  0  0  0  0  0  0
    1.6120   -0.6998    1.1844 H   0  0  0  0  0  0  0  0  0  0  0  0
    1.7058   -1.2733   -0.5423 H   0  0  0  0  0  0  0  0  0  0  0  0
   -0.0170    1.0555    0.5176 H   0  0  0  0  0  0  0  0  0  0  0  0
    0.0973    0.5719   -1.1971 H   0  0  0  0  0  0  0  0  0  0  0  0
   -0.8286   -1.6309   -0.6162 H   0  0  0  0  0  0  0  0  0  0  0  0
   -0.9627   -1.1599    1.1009 H   0  0  0  0  0  0  0  0  0  0  0  0
   -2.1926    0.2932   -1.3121 H   0  0  0  0  0  0  0  0  0  0  0  0
   -4.3515   -0.2511   -0.3756 H   0  0  0  0  0  0  0  0  0  0  0  0
   -3.6404   -1.1881    0.9535 H   0  0  0  0  0  0  0  0  0  0  0  0
   -3.5040   -1.7637   -0.7594 H   0  0  0  0  0  0  0  0  0  0  0  0
   -2.0908    1.0359    1.6394 H   0  0  0  0  0  0  0  0  0  0  0  0
  1  2  1  0
  2  3  1  0
  3  4  1  0
  4  5  1  0
  5  6  1  0
  6  7  1  0
  6  8  1  0
  8  9  2  0
  1 10  1  0
  1 11  1  0
  1 12  1  0
  2 13  1  0
  2 14  1  0
  3 15  1  0
  3 16  1  0
  4 17  1  0
  4 18  1  0
  5 19  1  0
  5 20  1  0
  6 21  1  0
  7 22  1  0
  7 23  1  0
  7 24  1  0
  8 25  1  0
M  END
