
     RDKit          3D

 19 18  0  0  0  0  0  0  0  0999 V2000
   -2.6562   -1.2544    0.3872 C   0  0  0  0  0  0  0  0  0  0  0  0
   -2.7384    0.2653    0.5372 C   0  0  0  0  0  0  0  0  0  0  0  0
   -1.9440    0.9551   -0.5365 C   0  0  0  0  0  0  0  0  0  0  0  0
   -0.5375    0.5605   -0.4573 C   0  0  0  0  0  0  0  0  0  0  0  0
    0.6180    0.2225   -0.3874 C   0  0  0  0  0  0  0  0  0  0  0  0
    2.0072   -0.2060   -0.2890 C   0  0  0  0  0  0  0  0  0  0  0  0
    2.3343   -1.4225   -0.2565 O   0  0  0  0  0  0  0  0  0  0  0  0
    2.9946    0.7653   -0.2294 O   0  0  0  0  0  0  0  0  0  0  0  0
    4.3364    0.3493   -0.1337 C   0  0  0  0  0  0  0  0  0  0  0  0
   -2.7532   -1.5653   -0.6518 H   0  0  0  0  0  0  0  0  0  0  0  0
   -1.6855   -1.5902    0.7620 H   0  0  0  0  0  0  0  0  0  0  0  0
   -3.4479   -1.7145    1.0274 H   0  0  0  0  0  0  0  0  0  0  0  0
   -3.7997    0.5966    0.4651 H   0  0  0  0  0  0  0  0  0  0  0  0
   -2.3798    0.5865    1.5331 H   0  0  0  0  0  0  0  0  0  0  0  0
   -2.3164    0.7217   -1.5434 H   0  0  0  0  0  0  0  0  0  0  0  0
   -2.0747    2.0495   -0.3947 H   0  0  0  0  0  0  0  0  0  0  0  0
    4.4172   -0.7288   -0.3731 H   0  0  0  0  0  0  0  0  0  0  0  0
    5.0109    0.9603   -0.7666 H   0  0  0  0  0  0  0  0  0  0  0  0
    4.6147    0.4489    0.9536 H   0  0  0  0  0  0  0  0  0  0  0  0
  1  2  1  0
  2  3  1  0
  3  4  1  0
  4  5  3  0
  5  6  1  0
  6  7  2  0
  6  8  1  0
  8  9  1  0
  1 10  1  0
  1 11  1  0
  1 12  1  0
  2 13  1  0
  2 14  1  0
  3 15  1  0
  3 16  1  0
  9 17  1  0
  9 18  1  0
  9 19  1  0
M  END
