
     RDKit          3D

 23 23  0  0  0  0  0  0  0  0999 V2000
   -2.8674   -0.6320   -0.2592 C   0  0  0  0  0  0  0  0  0  0  0  0
   -1.6738    0.2929   -0.4233 C   0  0  0  0  0  0  0  0  0  0  0  0
   -0.5068   -0.3437    0.2535 C   0  0  0  0  0  0  0  0  0  0  0  0
    0.7588    0.4301    0.1919 C   0  0  0  0  0  0  0  0  0  0  0  0
    0.7720    1.8129    0.8008 C   0  0  0  0  0  0  0  0  0  0  0  0
    0.4088    2.6977   -0.2339 O   0  0  0  0  0  0  0  0  0  0  0  0
    1.6441    0.2898   -0.8670 O   0  0  0  0  0  0  0  0  0  0  0  0
    2.0177   -0.4061    0.3620 C   0  0  0  0  0  0  0  0  0  0  0  0
    1.9277   -1.8857    0.2090 C   0  0  0  0  0  0  0  0  0  0  0  0
   -3.5652   -0.5810   -1.1138 H   0  0  0  0  0  0  0  0  0  0  0  0
   -2.4833   -1.6844   -0.1367 H   0  0  0  0  0  0  0  0  0  0  0  0
   -3.4391   -0.3266    0.6429 H   0  0  0  0  0  0  0  0  0  0  0  0
   -1.4681    0.4890   -1.4873 H   0  0  0  0  0  0  0  0  0  0  0  0
   -1.9183    1.2533    0.0735 H   0  0  0  0  0  0  0  0  0  0  0  0
   -0.3396   -1.3786   -0.1263 H   0  0  0  0  0  0  0  0  0  0  0  0
   -0.7811   -0.4593    1.3415 H   0  0  0  0  0  0  0  0  0  0  0  0
    1.7869    2.0571    1.1609 H   0  0  0  0  0  0  0  0  0  0  0  0
   -0.0109    1.9433    1.5829 H   0  0  0  0  0  0  0  0  0  0  0  0
    1.1890    3.2505   -0.5017 H   0  0  0  0  0  0  0  0  0  0  0  0
    2.8283    0.0526    0.9334 H   0  0  0  0  0  0  0  0  0  0  0  0
    1.2025   -2.3556    0.9248 H   0  0  0  0  0  0  0  0  0  0  0  0
    2.9486   -2.3042    0.3158 H   0  0  0  0  0  0  0  0  0  0  0  0
    1.5690   -2.2119   -0.8028 H   0  0  0  0  0  0  0  0  0  0  0  0
  1  2  1  0
  2  3  1  0
  3  4  1  0
  4  5  1  0
  5  6  1  0
  4  7  1  0
  7  8  1  0
  8  9  1  0
  8  4  1  0
  1 10  1  0
  1 11  1  0
  1 12  1  0
  2 13  1  0
  2 14  1  0
  3 15  1  0
  3 16  1  0
  5 17  1  0
  5 18  1  0
  6 19  1  0
  8 20  1  0
  9 21  1  0
  9 22  1  0
  9 23  1  0
M  END
