
     RDKit          3D

 23 23  0  0  0  0  0  0  0  0999 V2000
   -2.5812    0.4901    0.0937 C   0  0  0  0  0  0  0  0  0  0  0  0
   -2.0999   -0.9140    0.3133 C   0  0  0  0  0  0  0  0  0  0  0  0
   -0.9404   -1.3357   -0.4992 C   0  0  0  0  0  0  0  0  0  0  0  0
    0.3231   -0.5768   -0.3444 C   0  0  0  0  0  0  0  0  0  0  0  0
    0.2976    0.8461   -0.6602 C   0  0  0  0  0  0  0  0  0  0  0  0
    1.3096    1.5933   -0.2269 C   0  0  0  0  0  0  0  0  0  0  0  0
    2.4616    1.0463    0.5614 C   0  0  0  0  0  0  0  0  0  0  0  0
    2.2489   -0.4447    0.7905 C   0  0  0  0  0  0  0  0  0  0  0  0
    0.8889   -0.7321    0.9348 O   0  0  0  0  0  0  0  0  0  0  0  0
   -3.5987    0.6463    0.5678 H   0  0  0  0  0  0  0  0  0  0  0  0
   -2.7387    0.7204   -0.9617 H   0  0  0  0  0  0  0  0  0  0  0  0
   -1.9306    1.1908    0.6496 H   0  0  0  0  0  0  0  0  0  0  0  0
   -2.9621   -1.5847    0.0220 H   0  0  0  0  0  0  0  0  0  0  0  0
   -1.9347   -1.1435    1.3914 H   0  0  0  0  0  0  0  0  0  0  0  0
   -1.2705   -1.4307   -1.5578 H   0  0  0  0  0  0  0  0  0  0  0  0
   -0.7037   -2.4010   -0.2012 H   0  0  0  0  0  0  0  0  0  0  0  0
    1.0729   -1.0568   -1.0407 H   0  0  0  0  0  0  0  0  0  0  0  0
   -0.4659    1.3809   -1.2243 H   0  0  0  0  0  0  0  0  0  0  0  0
    1.3367    2.6719   -0.4388 H   0  0  0  0  0  0  0  0  0  0  0  0
    2.4858    1.6015    1.5093 H   0  0  0  0  0  0  0  0  0  0  0  0
    3.4102    1.1574    0.0043 H   0  0  0  0  0  0  0  0  0  0  0  0
    2.5889   -0.9475   -0.1395 H   0  0  0  0  0  0  0  0  0  0  0  0
    2.8023   -0.7773    1.6754 H   0  0  0  0  0  0  0  0  0  0  0  0
  1  2  1  0
  2  3  1  0
  3  4  1  0
  4  5  1  0
  5  6  2  0
  6  7  1  0
  7  8  1  0
  8  9  1  0
  9  4  1  0
  1 10  1  0
  1 11  1  0
  1 12  1  0
  2 13  1  0
  2 14  1  0
  3 15  1  0
  3 16  1  0
  4 17  1  0
  5 18  1  0
  6 19  1  0
  7 20  1  0
  7 21  1  0
  8 22  1  0
  8 23  1  0
M  END
