
     RDKit          3D

 23 24  0  0  0  0  0  0  0  0999 V2000
    2.9047    0.5505    0.0954 C   0  0  0  0  0  0  0  0  0  0  0  0
    1.5519    0.2272   -0.5193 C   0  0  0  0  0  0  0  0  0  0  0  0
    0.7105   -0.4989    0.5117 C   0  0  0  0  0  0  0  0  0  0  0  0
   -0.6387   -0.8535   -0.0139 C   0  0  0  0  0  0  0  0  0  0  0  0
   -1.6217   -1.5836    0.8730 C   0  0  0  0  0  0  0  0  0  0  0  0
   -2.5261   -0.5598    0.6475 O   0  0  0  0  0  0  0  0  0  0  0  0
   -1.7189    0.0912   -0.2559 C   0  0  0  0  0  0  0  0  0  0  0  0
   -1.5870    1.5759   -0.1729 C   0  0  0  0  0  0  0  0  0  0  0  0
   -1.0729   -0.6137   -1.3878 C   0  0  0  0  0  0  0  0  0  0  0  0
    3.4578   -0.3993    0.2335 H   0  0  0  0  0  0  0  0  0  0  0  0
    3.4616    1.2455   -0.5654 H   0  0  0  0  0  0  0  0  0  0  0  0
    2.7320    1.0589    1.0653 H   0  0  0  0  0  0  0  0  0  0  0  0
    1.6544   -0.3580   -1.4521 H   0  0  0  0  0  0  0  0  0  0  0  0
    1.0840    1.1969   -0.7656 H   0  0  0  0  0  0  0  0  0  0  0  0
    1.2527   -1.4731    0.6943 H   0  0  0  0  0  0  0  0  0  0  0  0
    0.7242    0.0347    1.4619 H   0  0  0  0  0  0  0  0  0  0  0  0
   -1.9613   -2.5012    0.3661 H   0  0  0  0  0  0  0  0  0  0  0  0
   -1.3047   -1.7198    1.9215 H   0  0  0  0  0  0  0  0  0  0  0  0
   -1.0056    1.9320    0.6962 H   0  0  0  0  0  0  0  0  0  0  0  0
   -2.6222    2.0055   -0.0549 H   0  0  0  0  0  0  0  0  0  0  0  0
   -1.2154    1.9715   -1.1310 H   0  0  0  0  0  0  0  0  0  0  0  0
   -1.7350   -1.3531   -1.9251 H   0  0  0  0  0  0  0  0  0  0  0  0
   -0.5243    0.0239   -2.0965 H   0  0  0  0  0  0  0  0  0  0  0  0
  1  2  1  0
  2  3  1  0
  3  4  1  0
  4  5  1  0
  5  6  1  0
  6  7  1  0
  7  8  1  0
  7  9  1  0
  7  4  1  0
  9  4  1  0
  1 10  1  0
  1 11  1  0
  1 12  1  0
  2 13  1  0
  2 14  1  0
  3 15  1  0
  3 16  1  0
  5 17  1  0
  5 18  1  0
  8 19  1  0
  8 20  1  0
  8 21  1  0
  9 22  1  0
  9 23  1  0
M  END
