
     RDKit          3D

 17 16  0  0  0  0  0  0  0  0999 V2000
   -1.7106   -0.7239    0.8797 C   0  0  0  0  0  0  0  0  0  0  0  0
   -2.0125    0.2542   -0.2076 C   0  0  0  0  0  0  0  0  0  0  0  0
   -1.1571    0.0789   -1.4279 C   0  0  0  0  0  0  0  0  0  0  0  0
    0.2405    0.2549   -1.0320 C   0  0  0  0  0  0  0  0  0  0  0  0
    1.4089    0.4205   -0.7109 C   0  0  0  0  0  0  0  0  0  0  0  0
    2.8058    0.5997   -0.3098 C   0  0  0  0  0  0  0  0  0  0  0  0
    3.2879   -0.5456    0.3128 O   0  0  0  0  0  0  0  0  0  0  0  0
   -0.6186   -0.7404    1.0781 H   0  0  0  0  0  0  0  0  0  0  0  0
   -2.1969   -0.3317    1.8191 H   0  0  0  0  0  0  0  0  0  0  0  0
   -2.1370   -1.7109    0.7048 H   0  0  0  0  0  0  0  0  0  0  0  0
   -3.0759    0.0573   -0.5345 H   0  0  0  0  0  0  0  0  0  0  0  0
   -1.9978    1.2643    0.1943 H   0  0  0  0  0  0  0  0  0  0  0  0
   -1.3449   -0.9008   -1.8895 H   0  0  0  0  0  0  0  0  0  0  0  0
   -1.4816    0.8511   -2.1634 H   0  0  0  0  0  0  0  0  0  0  0  0
    2.9132    1.4346    0.4309 H   0  0  0  0  0  0  0  0  0  0  0  0
    3.4251    0.8808   -1.1795 H   0  0  0  0  0  0  0  0  0  0  0  0
    3.6516   -1.1431   -0.3578 H   0  0  0  0  0  0  0  0  0  0  0  0
  1  2  1  0
  2  3  1  0
  3  4  1  0
  4  5  3  0
  5  6  1  0
  6  7  1  0
  1  8  1  0
  1  9  1  0
  1 10  1  0
  2 11  1  0
  2 12  1  0
  3 13  1  0
  3 14  1  0
  6 15  1  0
  6 16  1  0
  7 17  1  0
M  END
