
     RDKit          3D

 21 20  0  0  0  0  0  0  0  0999 V2000
    2.6934    0.2890    0.9934 C   0  0  0  0  0  0  0  0  0  0  0  0
    1.7645    1.1311    0.1597 C   0  0  0  0  0  0  0  0  0  0  0  0
    0.7504    0.2985   -0.5972 C   0  0  0  0  0  0  0  0  0  0  0  0
   -0.0769   -0.4755    0.4159 C   0  0  0  0  0  0  0  0  0  0  0  0
   -1.1013   -1.3175   -0.2827 C   0  0  0  0  0  0  0  0  0  0  0  0
   -0.7615   -2.3675   -0.7569 O   0  0  0  0  0  0  0  0  0  0  0  0
   -2.5161   -0.8969   -0.4060 C   0  0  0  0  0  0  0  0  0  0  0  0
   -2.7716    0.4128    0.2015 C   0  0  0  0  0  0  0  0  0  0  0  0
   -2.9126    0.5204    1.4222 O   0  0  0  0  0  0  0  0  0  0  0  0
    2.2206   -0.2166    1.8386 H   0  0  0  0  0  0  0  0  0  0  0  0
    3.4714    1.0090    1.3877 H   0  0  0  0  0  0  0  0  0  0  0  0
    3.1788   -0.4593    0.3387 H   0  0  0  0  0  0  0  0  0  0  0  0
    2.4092    1.6942   -0.5652 H   0  0  0  0  0  0  0  0  0  0  0  0
    1.2592    1.9037    0.7757 H   0  0  0  0  0  0  0  0  0  0  0  0
    1.2243   -0.3938   -1.3021 H   0  0  0  0  0  0  0  0  0  0  0  0
    0.0492    0.9709   -1.1180 H   0  0  0  0  0  0  0  0  0  0  0  0
   -0.6272    0.2219    1.0664 H   0  0  0  0  0  0  0  0  0  0  0  0
    0.5657   -1.1147    1.0686 H   0  0  0  0  0  0  0  0  0  0  0  0
   -3.2112   -1.6464    0.0611 H   0  0  0  0  0  0  0  0  0  0  0  0
   -2.7712   -0.8550   -1.4781 H   0  0  0  0  0  0  0  0  0  0  0  0
   -2.8369    1.2917   -0.4264 H   0  0  0  0  0  0  0  0  0  0  0  0
  1  2  1  0
  2  3  1  0
  3  4  1  0
  4  5  1  0
  5  6  2  0
  5  7  1  0
  7  8  1  0
  8  9  2  0
  1 10  1  0
  1 11  1  0
  1 12  1  0
  2 13  1  0
  2 14  1  0
  3 15  1  0
  3 16  1  0
  4 17  1  0
  4 18  1  0
  7 19  1  0
  7 20  1  0
  8 21  1  0
M  END
