
     RDKit          3D

 23 24  0  0  0  0  0  0  0  0999 V2000
    2.9020    0.6238   -0.5489 C   0  0  0  0  0  0  0  0  0  0  0  0
    1.4947    0.0544   -0.5755 C   0  0  0  0  0  0  0  0  0  0  0  0
    1.0801   -0.1808    0.8436 C   0  0  0  0  0  0  0  0  0  0  0  0
   -0.3088   -0.7509    0.9828 C   0  0  0  0  0  0  0  0  0  0  0  0
   -0.4887   -1.9834    0.3551 O   0  0  0  0  0  0  0  0  0  0  0  0
   -1.4071   -1.4772   -0.5968 C   0  0  0  0  0  0  0  0  0  0  0  0
   -1.3859   -0.1970    0.1632 C   0  0  0  0  0  0  0  0  0  0  0  0
   -1.5144    1.1240   -0.3826 C   0  0  0  0  0  0  0  0  0  0  0  0
   -2.5498    0.5301    0.6173 C   0  0  0  0  0  0  0  0  0  0  0  0
    3.5819   -0.0311   -1.1327 H   0  0  0  0  0  0  0  0  0  0  0  0
    3.3150    0.6706    0.4764 H   0  0  0  0  0  0  0  0  0  0  0  0
    2.9224    1.6340   -1.0042 H   0  0  0  0  0  0  0  0  0  0  0  0
    1.4855   -0.8817   -1.1741 H   0  0  0  0  0  0  0  0  0  0  0  0
    0.8307    0.7896   -1.0561 H   0  0  0  0  0  0  0  0  0  0  0  0
    1.7903   -0.9546    1.2595 H   0  0  0  0  0  0  0  0  0  0  0  0
    1.2363    0.7182    1.4424 H   0  0  0  0  0  0  0  0  0  0  0  0
   -0.5795   -0.7752    2.0663 H   0  0  0  0  0  0  0  0  0  0  0  0
   -1.0016   -1.4703   -1.6224 H   0  0  0  0  0  0  0  0  0  0  0  0
   -2.4215   -1.9524   -0.5103 H   0  0  0  0  0  0  0  0  0  0  0  0
   -1.9061    1.3120   -1.4074 H   0  0  0  0  0  0  0  0  0  0  0  0
   -0.9621    1.9845    0.0258 H   0  0  0  0  0  0  0  0  0  0  0  0
   -3.5356    0.2454    0.1588 H   0  0  0  0  0  0  0  0  0  0  0  0
   -2.5777    0.9680    1.6197 H   0  0  0  0  0  0  0  0  0  0  0  0
  1  2  1  0
  2  3  1  0
  3  4  1  0
  4  5  1  0
  5  6  1  0
  6  7  1  0
  7  8  1  0
  8  9  1  0
  7  4  1  0
  9  7  1  0
  1 10  1  0
  1 11  1  0
  1 12  1  0
  2 13  1  0
  2 14  1  0
  3 15  1  0
  3 16  1  0
  4 17  1  0
  6 18  1  0
  6 19  1  0
  8 20  1  0
  8 21  1  0
  9 22  1  0
  9 23  1  0
M  END
