
     RDKit          3D

 23 23  0  0  0  0  0  0  0  0999 V2000
    3.1511    0.3942   -0.5515 C   0  0  0  0  0  0  0  0  0  0  0  0
    1.7047    0.0392   -0.7047 C   0  0  0  0  0  0  0  0  0  0  0  0
    0.9739    0.0588    0.6312 C   0  0  0  0  0  0  0  0  0  0  0  0
   -0.4718   -0.3016    0.4388 C   0  0  0  0  0  0  0  0  0  0  0  0
   -0.7497   -1.6301   -0.1384 C   0  0  0  0  0  0  0  0  0  0  0  0
   -1.8807   -2.0356   -0.3419 O   0  0  0  0  0  0  0  0  0  0  0  0
   -1.3774    0.2293    1.5274 C   0  0  0  0  0  0  0  0  0  0  0  0
   -1.4273    0.7952    0.1193 C   0  0  0  0  0  0  0  0  0  0  0  0
   -2.7054    0.5390   -0.6062 C   0  0  0  0  0  0  0  0  0  0  0  0
    3.7792   -0.5421   -0.5323 H   0  0  0  0  0  0  0  0  0  0  0  0
    3.3446    1.0391    0.3186 H   0  0  0  0  0  0  0  0  0  0  0  0
    3.5154    0.9537   -1.4558 H   0  0  0  0  0  0  0  0  0  0  0  0
    1.2171    0.7259   -1.4020 H   0  0  0  0  0  0  0  0  0  0  0  0
    1.6287   -1.0049   -1.0941 H   0  0  0  0  0  0  0  0  0  0  0  0
    1.1078    1.0218    1.1453 H   0  0  0  0  0  0  0  0  0  0  0  0
    1.4379   -0.7390    1.2556 H   0  0  0  0  0  0  0  0  0  0  0  0
    0.0770   -2.2789   -0.3951 H   0  0  0  0  0  0  0  0  0  0  0  0
   -2.1640   -0.4774    1.8435 H   0  0  0  0  0  0  0  0  0  0  0  0
   -0.9518    0.8319    2.3408 H   0  0  0  0  0  0  0  0  0  0  0  0
   -0.9826    1.7852   -0.0573 H   0  0  0  0  0  0  0  0  0  0  0  0
   -3.3418   -0.2258   -0.1091 H   0  0  0  0  0  0  0  0  0  0  0  0
   -3.3070    1.4919   -0.5568 H   0  0  0  0  0  0  0  0  0  0  0  0
   -2.5781    0.2750   -1.6754 H   0  0  0  0  0  0  0  0  0  0  0  0
  1  2  1  0
  2  3  1  0
  3  4  1  0
  4  5  1  0
  5  6  2  0
  4  7  1  0
  7  8  1  0
  8  9  1  0
  8  4  1  0
  1 10  1  0
  1 11  1  0
  1 12  1  0
  2 13  1  0
  2 14  1  0
  3 15  1  0
  3 16  1  0
  5 17  1  0
  7 18  1  0
  7 19  1  0
  8 20  1  0
  9 21  1  0
  9 22  1  0
  9 23  1  0
M  END
