
     RDKit          3D

 25 25  0  0  0  0  0  0  0  0999 V2000
    2.6169    0.3278    0.6514 C   0  0  0  0  0  0  0  0  0  0  0  0
    2.5164   -0.5848   -0.5097 C   0  0  0  0  0  0  0  0  0  0  0  0
    1.1861   -1.1374   -0.7908 C   0  0  0  0  0  0  0  0  0  0  0  0
    0.0672   -0.2349   -1.1418 C   0  0  0  0  0  0  0  0  0  0  0  0
   -0.3015    0.7077   -0.0467 C   0  0  0  0  0  0  0  0  0  0  0  0
   -0.7532    0.1500    1.2468 C   0  0  0  0  0  0  0  0  0  0  0  0
   -1.7363    0.8855    0.3279 C   0  0  0  0  0  0  0  0  0  0  0  0
   -2.7963    0.0227   -0.3098 C   0  0  0  0  0  0  0  0  0  0  0  0
   -4.0365    0.3966    0.2167 O   0  0  0  0  0  0  0  0  0  0  0  0
    2.5153    1.4067    0.4393 H   0  0  0  0  0  0  0  0  0  0  0  0
    3.6885    0.2804    1.0806 H   0  0  0  0  0  0  0  0  0  0  0  0
    2.0209   -0.0546    1.4910 H   0  0  0  0  0  0  0  0  0  0  0  0
    3.1874   -1.4738   -0.2642 H   0  0  0  0  0  0  0  0  0  0  0  0
    2.9776   -0.1422   -1.4391 H   0  0  0  0  0  0  0  0  0  0  0  0
    0.9163   -1.7979    0.1023 H   0  0  0  0  0  0  0  0  0  0  0  0
    1.2768   -1.9263   -1.6191 H   0  0  0  0  0  0  0  0  0  0  0  0
    0.2935    0.3294   -2.0973 H   0  0  0  0  0  0  0  0  0  0  0  0
   -0.8520   -0.8538   -1.4006 H   0  0  0  0  0  0  0  0  0  0  0  0
    0.2889    1.6550   -0.0652 H   0  0  0  0  0  0  0  0  0  0  0  0
   -0.8669   -0.9506    1.3297 H   0  0  0  0  0  0  0  0  0  0  0  0
   -0.5095    0.6412    2.2152 H   0  0  0  0  0  0  0  0  0  0  0  0
   -2.0396    1.8935    0.6701 H   0  0  0  0  0  0  0  0  0  0  0  0
   -2.6621   -1.0545   -0.1012 H   0  0  0  0  0  0  0  0  0  0  0  0
   -2.7571    0.1627   -1.4120 H   0  0  0  0  0  0  0  0  0  0  0  0
   -4.2406    1.3517    0.0416 H   0  0  0  0  0  0  0  0  0  0  0  0
  1  2  1  0
  2  3  1  0
  3  4  1  0
  4  5  1  0
  5  6  1  0
  6  7  1  0
  7  8  1  0
  8  9  1  0
  7  5  1  0
  1 10  1  0
  1 11  1  0
  1 12  1  0
  2 13  1  0
  2 14  1  0
  3 15  1  0
  3 16  1  0
  4 17  1  0
  4 18  1  0
  5 19  1  0
  6 20  1  0
  6 21  1  0
  7 22  1  0
  8 23  1  0
  8 24  1  0
  9 25  1  0
M  END
