
     RDKit          3D

 25 24  0  0  0  0  0  0  0  0999 V2000
    2.7408    1.1796   -0.5126 C   0  0  0  0  0  0  0  0  0  0  0  0
    2.6835   -0.2016    0.0733 C   0  0  0  0  0  0  0  0  0  0  0  0
    1.4202   -0.4998    0.7962 C   0  0  0  0  0  0  0  0  0  0  0  0
    0.1846   -0.4001   -0.0599 C   0  0  0  0  0  0  0  0  0  0  0  0
    0.3280   -1.3220   -1.0962 O   0  0  0  0  0  0  0  0  0  0  0  0
   -1.0492   -0.7030    0.7656 C   0  0  0  0  0  0  0  0  0  0  0  0
   -2.3005   -0.6128   -0.0595 C   0  0  0  0  0  0  0  0  0  0  0  0
   -2.5189    0.7369   -0.6591 C   0  0  0  0  0  0  0  0  0  0  0  0
   -2.6256    1.7397    0.3169 O   0  0  0  0  0  0  0  0  0  0  0  0
    1.8241    1.7765   -0.3353 H   0  0  0  0  0  0  0  0  0  0  0  0
    3.5850    1.7852   -0.1198 H   0  0  0  0  0  0  0  0  0  0  0  0
    2.8703    1.1041   -1.6111 H   0  0  0  0  0  0  0  0  0  0  0  0
    3.5191   -0.2844    0.7995 H   0  0  0  0  0  0  0  0  0  0  0  0
    2.9200   -0.9667   -0.7215 H   0  0  0  0  0  0  0  0  0  0  0  0
    1.4862   -1.5327    1.1946 H   0  0  0  0  0  0  0  0  0  0  0  0
    1.3621    0.1665    1.6798 H   0  0  0  0  0  0  0  0  0  0  0  0
    0.0497    0.5864   -0.5162 H   0  0  0  0  0  0  0  0  0  0  0  0
   -0.1499   -2.1360   -0.8323 H   0  0  0  0  0  0  0  0  0  0  0  0
   -1.1316   -0.0411    1.6407 H   0  0  0  0  0  0  0  0  0  0  0  0
   -0.9685   -1.7402    1.1729 H   0  0  0  0  0  0  0  0  0  0  0  0
   -2.2159   -1.3343   -0.9158 H   0  0  0  0  0  0  0  0  0  0  0  0
   -3.2023   -0.9178    0.4979 H   0  0  0  0  0  0  0  0  0  0  0  0
   -3.4852    0.7051   -1.2258 H   0  0  0  0  0  0  0  0  0  0  0  0
   -1.7438    0.9616   -1.4001 H   0  0  0  0  0  0  0  0  0  0  0  0
   -3.5819    1.9509    0.4590 H   0  0  0  0  0  0  0  0  0  0  0  0
  1  2  1  0
  2  3  1  0
  3  4  1  0
  4  5  1  0
  4  6  1  0
  6  7  1  0
  7  8  1  0
  8  9  1  0
  1 10  1  0
  1 11  1  0
  1 12  1  0
  2 13  1  0
  2 14  1  0
  3 15  1  0
  3 16  1  0
  4 17  1  0
  5 18  1  0
  6 19  1  0
  6 20  1  0
  7 21  1  0
  7 22  1  0
  8 23  1  0
  8 24  1  0
  9 25  1  0
M  END
