
     RDKit          3D

 23 24  0  0  0  0  0  0  0  0999 V2000
    3.5105   -0.0508    0.1116 C   0  0  0  0  0  0  0  0  0  0  0  0
    2.1009   -0.4493   -0.2635 C   0  0  0  0  0  0  0  0  0  0  0  0
    1.1227    0.4998    0.3939 C   0  0  0  0  0  0  0  0  0  0  0  0
   -0.2844    0.1537    0.0582 C   0  0  0  0  0  0  0  0  0  0  0  0
   -0.7678   -0.8390   -0.7114 C   0  0  0  0  0  0  0  0  0  0  0  0
   -2.2291   -0.6779   -0.5852 C   0  0  0  0  0  0  0  0  0  0  0  0
   -2.4068    0.8160   -0.7375 C   0  0  0  0  0  0  0  0  0  0  0  0
   -1.5139    0.8350    0.5015 C   0  0  0  0  0  0  0  0  0  0  0  0
   -2.3492   -0.3860    0.9219 C   0  0  0  0  0  0  0  0  0  0  0  0
    3.6327    1.0350   -0.1148 H   0  0  0  0  0  0  0  0  0  0  0  0
    3.6099   -0.1730    1.2103 H   0  0  0  0  0  0  0  0  0  0  0  0
    4.2426   -0.6854   -0.3910 H   0  0  0  0  0  0  0  0  0  0  0  0
    1.9531   -0.4885   -1.3612 H   0  0  0  0  0  0  0  0  0  0  0  0
    1.9358   -1.4873    0.1239 H   0  0  0  0  0  0  0  0  0  0  0  0
    1.3178    1.5087    0.0118 H   0  0  0  0  0  0  0  0  0  0  0  0
    1.3108    0.5124    1.4856 H   0  0  0  0  0  0  0  0  0  0  0  0
   -0.2529   -1.5898   -1.2942 H   0  0  0  0  0  0  0  0  0  0  0  0
   -2.9052   -1.3472   -1.0194 H   0  0  0  0  0  0  0  0  0  0  0  0
   -1.9633    1.2563   -1.6368 H   0  0  0  0  0  0  0  0  0  0  0  0
   -3.4192    1.1830   -0.5476 H   0  0  0  0  0  0  0  0  0  0  0  0
   -1.5031    1.6758    1.1224 H   0  0  0  0  0  0  0  0  0  0  0  0
   -1.7849   -1.1529    1.4648 H   0  0  0  0  0  0  0  0  0  0  0  0
   -3.3571   -0.1484    1.2569 H   0  0  0  0  0  0  0  0  0  0  0  0
  1  2  1  0
  2  3  1  0
  3  4  1  0
  4  5  2  0
  5  6  1  0
  6  7  1  0
  7  8  1  0
  8  9  1  0
  8  4  1  0
  9  6  1  0
  1 10  1  0
  1 11  1  0
  1 12  1  0
  2 13  1  0
  2 14  1  0
  3 15  1  0
  3 16  1  0
  5 17  1  0
  6 18  1  0
  7 19  1  0
  7 20  1  0
  8 21  1  0
  9 22  1  0
  9 23  1  0
M  END
