
     RDKit          3D

 22 22  0  0  0  0  0  0  0  0999 V2000
    2.9523    0.4426   -0.7302 C   0  0  0  0  0  0  0  0  0  0  0  0
    1.5798    0.7732   -0.1387 C   0  0  0  0  0  0  0  0  0  0  0  0
    0.8231   -0.5231   -0.0588 C   0  0  0  0  0  0  0  0  0  0  0  0
   -0.5559   -0.3691    0.5058 C   0  0  0  0  0  0  0  0  0  0  0  0
   -1.2452   -1.7281    0.5489 C   0  0  0  0  0  0  0  0  0  0  0  0
   -2.4080   -1.1100    0.1487 O   0  0  0  0  0  0  0  0  0  0  0  0
   -1.6562   -0.1171   -0.4716 C   0  0  0  0  0  0  0  0  0  0  0  0
   -2.3641    1.2106   -0.3382 C   0  0  0  0  0  0  0  0  0  0  0  0
    3.4234   -0.3409   -0.1153 H   0  0  0  0  0  0  0  0  0  0  0  0
    3.6161    1.3265   -0.7441 H   0  0  0  0  0  0  0  0  0  0  0  0
    2.7547    0.0340   -1.7478 H   0  0  0  0  0  0  0  0  0  0  0  0
    1.0847    1.4561   -0.8692 H   0  0  0  0  0  0  0  0  0  0  0  0
    1.6813    1.3016    0.8065 H   0  0  0  0  0  0  0  0  0  0  0  0
    1.3924   -1.2874    0.4860 H   0  0  0  0  0  0  0  0  0  0  0  0
    0.7130   -0.8975   -1.1035 H   0  0  0  0  0  0  0  0  0  0  0  0
   -0.6254    0.1766    1.4675 H   0  0  0  0  0  0  0  0  0  0  0  0
   -0.8209   -2.4338   -0.2111 H   0  0  0  0  0  0  0  0  0  0  0  0
   -1.2372   -2.2193    1.5267 H   0  0  0  0  0  0  0  0  0  0  0  0
   -1.3462   -0.3109   -1.5037 H   0  0  0  0  0  0  0  0  0  0  0  0
   -3.4615    1.0382   -0.4818 H   0  0  0  0  0  0  0  0  0  0  0  0
   -2.2675    1.6179    0.6988 H   0  0  0  0  0  0  0  0  0  0  0  0
   -2.0326    1.9600   -1.0577 H   0  0  0  0  0  0  0  0  0  0  0  0
  1  2  1  0
  2  3  1  0
  3  4  1  0
  4  5  1  0
  5  6  1  0
  6  7  1  0
  7  8  1  0
  7  4  1  0
  1  9  1  0
  1 10  1  0
  1 11  1  0
  2 12  1  0
  2 13  1  0
  3 14  1  0
  3 15  1  0
  4 16  1  0
  5 17  1  0
  5 18  1  0
  7 19  1  0
  8 20  1  0
  8 21  1  0
  8 22  1  0
M  END
