
     RDKit          3D

 24 24  0  0  0  0  0  0  0  0999 V2000
    2.3603    0.1893   -0.7288 C   0  0  0  0  0  0  0  0  0  0  0  0
    1.8647   -0.9350    0.1529 C   0  0  0  0  0  0  0  0  0  0  0  0
    0.6628   -0.5458    0.9572 C   0  0  0  0  0  0  0  0  0  0  0  0
   -0.5150   -0.1390    0.1299 C   0  0  0  0  0  0  0  0  0  0  0  0
   -1.0089   -1.2034   -0.7927 C   0  0  0  0  0  0  0  0  0  0  0  0
   -1.6423    0.3295    1.0625 C   0  0  0  0  0  0  0  0  0  0  0  0
   -1.9701    1.3673    0.0016 C   0  0  0  0  0  0  0  0  0  0  0  0
   -0.5197    1.2081   -0.4769 C   0  0  0  0  0  0  0  0  0  0  0  0
    1.8183    0.1411   -1.6919 H   0  0  0  0  0  0  0  0  0  0  0  0
    2.3124    1.1683   -0.2332 H   0  0  0  0  0  0  0  0  0  0  0  0
    3.4476    0.0314   -0.9794 H   0  0  0  0  0  0  0  0  0  0  0  0
    1.6464   -1.8405   -0.4168 H   0  0  0  0  0  0  0  0  0  0  0  0
    2.6808   -1.1734    0.8650 H   0  0  0  0  0  0  0  0  0  0  0  0
    0.9112    0.2207    1.7198 H   0  0  0  0  0  0  0  0  0  0  0  0
    0.3572   -1.4523    1.5391 H   0  0  0  0  0  0  0  0  0  0  0  0
   -1.3460   -2.0675   -0.1935 H   0  0  0  0  0  0  0  0  0  0  0  0
   -0.2509   -1.4485   -1.5395 H   0  0  0  0  0  0  0  0  0  0  0  0
   -1.9010   -0.8243   -1.3522 H   0  0  0  0  0  0  0  0  0  0  0  0
   -2.3936   -0.4441    1.2183 H   0  0  0  0  0  0  0  0  0  0  0  0
   -1.2622    0.8090    1.9884 H   0  0  0  0  0  0  0  0  0  0  0  0
   -2.2106    2.3678    0.3902 H   0  0  0  0  0  0  0  0  0  0  0  0
   -2.7183    0.9713   -0.6908 H   0  0  0  0  0  0  0  0  0  0  0  0
   -0.4010    1.2652   -1.5651 H   0  0  0  0  0  0  0  0  0  0  0  0
    0.0777    2.0049    0.0098 H   0  0  0  0  0  0  0  0  0  0  0  0
  1  2  1  0
  2  3  1  0
  3  4  1  0
  4  5  1  0
  4  6  1  0
  6  7  1  0
  7  8  1  0
  8  4  1  0
  1  9  1  0
  1 10  1  0
  1 11  1  0
  2 12  1  0
  2 13  1  0
  3 14  1  0
  3 15  1  0
  5 16  1  0
  5 17  1  0
  5 18  1  0
  6 19  1  0
  6 20  1  0
  7 21  1  0
  7 22  1  0
  8 23  1  0
  8 24  1  0
M  END
