
     RDKit          3D

 23 23  0  0  0  0  0  0  0  0999 V2000
   -3.7030    0.5410    0.8975 C   0  0  0  0  0  0  0  0  0  0  0  0
   -2.6204   -0.3876    0.3852 C   0  0  0  0  0  0  0  0  0  0  0  0
   -1.3253    0.3970    0.3859 C   0  0  0  0  0  0  0  0  0  0  0  0
   -0.1833   -0.3947   -0.0938 C   0  0  0  0  0  0  0  0  0  0  0  0
   -0.3184   -1.5554   -0.4431 O   0  0  0  0  0  0  0  0  0  0  0  0
    1.1653    0.1895   -0.1685 C   0  0  0  0  0  0  0  0  0  0  0  0
    1.9379   -0.1710   -1.4453 C   0  0  0  0  0  0  0  0  0  0  0  0
    2.3814   -0.6601   -0.1141 C   0  0  0  0  0  0  0  0  0  0  0  0
    3.5721   -0.0492    0.5741 C   0  0  0  0  0  0  0  0  0  0  0  0
   -4.6613    0.2167    0.4476 H   0  0  0  0  0  0  0  0  0  0  0  0
   -3.4374    1.5673    0.5780 H   0  0  0  0  0  0  0  0  0  0  0  0
   -3.7482    0.5448    2.0106 H   0  0  0  0  0  0  0  0  0  0  0  0
   -2.9045   -0.6610   -0.6625 H   0  0  0  0  0  0  0  0  0  0  0  0
   -2.5179   -1.2954    1.0164 H   0  0  0  0  0  0  0  0  0  0  0  0
   -1.4974    1.2656   -0.3118 H   0  0  0  0  0  0  0  0  0  0  0  0
   -1.1866    0.7728    1.4266 H   0  0  0  0  0  0  0  0  0  0  0  0
    1.2484    1.2350    0.1537 H   0  0  0  0  0  0  0  0  0  0  0  0
    1.4697   -0.8526   -2.1618 H   0  0  0  0  0  0  0  0  0  0  0  0
    2.4852    0.6684   -1.9460 H   0  0  0  0  0  0  0  0  0  0  0  0
    2.3020   -1.7579    0.0315 H   0  0  0  0  0  0  0  0  0  0  0  0
    3.2813    0.0927    1.6522 H   0  0  0  0  0  0  0  0  0  0  0  0
    4.4633   -0.6860    0.5794 H   0  0  0  0  0  0  0  0  0  0  0  0
    3.7971    0.9801    0.1854 H   0  0  0  0  0  0  0  0  0  0  0  0
  1  2  1  0
  2  3  1  0
  3  4  1  0
  4  5  2  0
  4  6  1  0
  6  7  1  0
  7  8  1  0
  8  9  1  0
  8  6  1  0
  1 10  1  0
  1 11  1  0
  1 12  1  0
  2 13  1  0
  2 14  1  0
  3 15  1  0
  3 16  1  0
  6 17  1  0
  7 18  1  0
  7 19  1  0
  8 20  1  0
  9 21  1  0
  9 22  1  0
  9 23  1  0
M  END
