
     RDKit          3D

 19 18  0  0  0  0  0  0  0  0999 V2000
   -2.6345    0.5318    0.2792 C   0  0  0  0  0  0  0  0  0  0  0  0
   -1.6778   -0.4546   -0.3510 C   0  0  0  0  0  0  0  0  0  0  0  0
   -0.2854   -0.0115   -0.0411 C   0  0  0  0  0  0  0  0  0  0  0  0
    0.7650   -0.9332   -0.6276 C   0  0  0  0  0  0  0  0  0  0  0  0
    2.1349   -0.4594   -0.2978 C   0  0  0  0  0  0  0  0  0  0  0  0
    2.4062    0.7587    0.5034 C   0  0  0  0  0  0  0  0  0  0  0  0
    3.0739   -1.1162   -0.7142 O   0  0  0  0  0  0  0  0  0  0  0  0
   -2.1079    1.3746    0.7738 H   0  0  0  0  0  0  0  0  0  0  0  0
   -3.2913    0.0567    1.0451 H   0  0  0  0  0  0  0  0  0  0  0  0
   -3.3131    0.9932   -0.4794 H   0  0  0  0  0  0  0  0  0  0  0  0
   -1.8503   -0.5670   -1.4405 H   0  0  0  0  0  0  0  0  0  0  0  0
   -1.8669   -1.4723    0.0962 H   0  0  0  0  0  0  0  0  0  0  0  0
   -0.1495   -0.0144    1.0567 H   0  0  0  0  0  0  0  0  0  0  0  0
   -0.1624    1.0187   -0.4201 H   0  0  0  0  0  0  0  0  0  0  0  0
    0.6806   -1.9627   -0.2254 H   0  0  0  0  0  0  0  0  0  0  0  0
    0.6559   -0.9844   -1.7159 H   0  0  0  0  0  0  0  0  0  0  0  0
    2.9088    0.4932    1.4774 H   0  0  0  0  0  0  0  0  0  0  0  0
    1.5377    1.3990    0.6401 H   0  0  0  0  0  0  0  0  0  0  0  0
    3.1761    1.3498   -0.0514 H   0  0  0  0  0  0  0  0  0  0  0  0
  1  2  1  0
  2  3  1  0
  3  4  1  0
  4  5  1  0
  5  6  1  0
  5  7  2  0
  1  8  1  0
  1  9  1  0
  1 10  1  0
  2 11  1  0
  2 12  1  0
  3 13  1  0
  3 14  1  0
  4 15  1  0
  4 16  1  0
  6 17  1  0
  6 18  1  0
  6 19  1  0
M  END
