
     RDKit          3D

 27 27  0  0  0  0  0  0  0  0999 V2000
   -3.8993   -0.7646    0.2777 C   0  0  0  0  0  0  0  0  0  0  0  0
   -2.6427   -0.8021   -0.5848 C   0  0  0  0  0  0  0  0  0  0  0  0
   -1.5941    0.0003    0.1509 C   0  0  0  0  0  0  0  0  0  0  0  0
   -0.2817    0.0379   -0.6155 C   0  0  0  0  0  0  0  0  0  0  0  0
    0.6752    0.8719    0.2338 C   0  0  0  0  0  0  0  0  0  0  0  0
    0.9884    0.4077    1.6071 C   0  0  0  0  0  0  0  0  0  0  0  0
    2.0291    0.3851    0.5232 C   0  0  0  0  0  0  0  0  0  0  0  0
    2.4963   -0.9607    0.0296 C   0  0  0  0  0  0  0  0  0  0  0  0
    3.1608    1.3892    0.7132 C   0  0  0  0  0  0  0  0  0  0  0  0
   -4.4184    0.1783    0.0496 H   0  0  0  0  0  0  0  0  0  0  0  0
   -4.5520   -1.6373    0.0848 H   0  0  0  0  0  0  0  0  0  0  0  0
   -3.5628   -0.7744    1.3327 H   0  0  0  0  0  0  0  0  0  0  0  0
   -2.8926   -0.3861   -1.5614 H   0  0  0  0  0  0  0  0  0  0  0  0
   -2.3455   -1.8484   -0.6928 H   0  0  0  0  0  0  0  0  0  0  0  0
   -1.4557   -0.3886    1.1795 H   0  0  0  0  0  0  0  0  0  0  0  0
   -1.9121    1.0572    0.2640 H   0  0  0  0  0  0  0  0  0  0  0  0
    0.1152   -0.9666   -0.8152 H   0  0  0  0  0  0  0  0  0  0  0  0
   -0.4377    0.5622   -1.5581 H   0  0  0  0  0  0  0  0  0  0  0  0
    0.5657    1.9727    0.1224 H   0  0  0  0  0  0  0  0  0  0  0  0
    1.1003    1.1223    2.4357 H   0  0  0  0  0  0  0  0  0  0  0  0
    0.6108   -0.5921    1.9479 H   0  0  0  0  0  0  0  0  0  0  0  0
    1.7610   -1.7573    0.2169 H   0  0  0  0  0  0  0  0  0  0  0  0
    3.4076   -1.2244    0.6226 H   0  0  0  0  0  0  0  0  0  0  0  0
    2.8249   -0.8932   -1.0279 H   0  0  0  0  0  0  0  0  0  0  0  0
    3.4947    1.8015   -0.2558 H   0  0  0  0  0  0  0  0  0  0  0  0
    4.0120    0.9570    1.2576 H   0  0  0  0  0  0  0  0  0  0  0  0
    2.7524    2.2526    1.3068 H   0  0  0  0  0  0  0  0  0  0  0  0
  1  2  1  0
  2  3  1  0
  3  4  1  0
  4  5  1  0
  5  6  1  0
  6  7  1  0
  7  8  1  0
  7  9  1  0
  7  5  1  0
  1 10  1  0
  1 11  1  0
  1 12  1  0
  2 13  1  0
  2 14  1  0
  3 15  1  0
  3 16  1  0
  4 17  1  0
  4 18  1  0
  5 19  1  0
  6 20  1  0
  6 21  1  0
  8 22  1  0
  8 23  1  0
  8 24  1  0
  9 25  1  0
  9 26  1  0
  9 27  1  0
M  END
