
     RDKit          3D

 25 25  0  0  0  0  0  0  0  0999 V2000
   -3.4950   -0.2112   -0.6007 C   0  0  0  0  0  0  0  0  0  0  0  0
   -2.0549   -0.6765   -0.5810 C   0  0  0  0  0  0  0  0  0  0  0  0
   -1.2377    0.2500    0.2835 C   0  0  0  0  0  0  0  0  0  0  0  0
    0.2049   -0.1329    0.3625 C   0  0  0  0  0  0  0  0  0  0  0  0
    0.9875    0.8236    1.2400 C   0  0  0  0  0  0  0  0  0  0  0  0
    2.1465    0.6299    0.2529 C   0  0  0  0  0  0  0  0  0  0  0  0
    2.9362   -0.5947    0.6342 C   0  0  0  0  0  0  0  0  0  0  0  0
    1.0544    0.3591   -0.7844 C   0  0  0  0  0  0  0  0  0  0  0  0
    1.3692   -0.5423   -1.7539 O   0  0  0  0  0  0  0  0  0  0  0  0
   -3.5837    0.8962   -0.5288 H   0  0  0  0  0  0  0  0  0  0  0  0
   -4.0199   -0.5493   -1.5352 H   0  0  0  0  0  0  0  0  0  0  0  0
   -4.0697   -0.6140    0.2763 H   0  0  0  0  0  0  0  0  0  0  0  0
   -2.0525   -1.6996   -0.1532 H   0  0  0  0  0  0  0  0  0  0  0  0
   -1.6695   -0.7526   -1.6113 H   0  0  0  0  0  0  0  0  0  0  0  0
   -1.6607    0.1773    1.3167 H   0  0  0  0  0  0  0  0  0  0  0  0
   -1.3219    1.3018   -0.0260 H   0  0  0  0  0  0  0  0  0  0  0  0
    0.4027   -1.1661    0.6859 H   0  0  0  0  0  0  0  0  0  0  0  0
    0.6469    1.8721    1.1620 H   0  0  0  0  0  0  0  0  0  0  0  0
    1.2243    0.4527    2.2470 H   0  0  0  0  0  0  0  0  0  0  0  0
    2.7096    1.5285    0.0173 H   0  0  0  0  0  0  0  0  0  0  0  0
    3.3463   -1.1318   -0.2321 H   0  0  0  0  0  0  0  0  0  0  0  0
    2.3609   -1.2562    1.3207 H   0  0  0  0  0  0  0  0  0  0  0  0
    3.8125   -0.2384    1.2255 H   0  0  0  0  0  0  0  0  0  0  0  0
    0.6646    1.3461   -1.1302 H   0  0  0  0  0  0  0  0  0  0  0  0
    1.2990   -0.0716   -2.6443 H   0  0  0  0  0  0  0  0  0  0  0  0
  1  2  1  0
  2  3  1  0
  3  4  1  0
  4  5  1  0
  5  6  1  0
  6  7  1  0
  6  8  1  0
  8  9  1  0
  8  4  1  0
  1 10  1  0
  1 11  1  0
  1 12  1  0
  2 13  1  0
  2 14  1  0
  3 15  1  0
  3 16  1  0
  4 17  1  0
  5 18  1  0
  5 19  1  0
  6 20  1  0
  7 21  1  0
  7 22  1  0
  7 23  1  0
  8 24  1  0
  9 25  1  0
M  END
