
     RDKit          3D

 20 20  0  0  0  0  0  0  0  0999 V2000
    3.0998   -0.0180   -0.0126 C   0  0  0  0  0  0  0  0  0  0  0  0
    1.7345    0.5536   -0.2761 C   0  0  0  0  0  0  0  0  0  0  0  0
    0.7462   -0.1831    0.6293 C   0  0  0  0  0  0  0  0  0  0  0  0
   -0.6489    0.3520    0.4069 C   0  0  0  0  0  0  0  0  0  0  0  0
   -1.5364   -0.3062    1.2167 O   0  0  0  0  0  0  0  0  0  0  0  0
   -2.5948   -0.7502    0.4457 C   0  0  0  0  0  0  0  0  0  0  0  0
   -2.4694    0.1481   -0.7681 C   0  0  0  0  0  0  0  0  0  0  0  0
   -1.0627    0.1478   -0.9194 O   0  0  0  0  0  0  0  0  0  0  0  0
    2.9684   -1.0870    0.2426 H   0  0  0  0  0  0  0  0  0  0  0  0
    3.5497    0.4774    0.8913 H   0  0  0  0  0  0  0  0  0  0  0  0
    3.8055    0.1456   -0.8571 H   0  0  0  0  0  0  0  0  0  0  0  0
    1.6551    1.6315   -0.1322 H   0  0  0  0  0  0  0  0  0  0  0  0
    1.4618    0.2502   -1.3241 H   0  0  0  0  0  0  0  0  0  0  0  0
    0.9909   -0.0694    1.6937 H   0  0  0  0  0  0  0  0  0  0  0  0
    0.7212   -1.2603    0.3939 H   0  0  0  0  0  0  0  0  0  0  0  0
   -0.6860    1.4435    0.5731 H   0  0  0  0  0  0  0  0  0  0  0  0
   -3.5757   -0.6357    0.9460 H   0  0  0  0  0  0  0  0  0  0  0  0
   -2.3858   -1.7938    0.1498 H   0  0  0  0  0  0  0  0  0  0  0  0
   -2.9851   -0.2287   -1.6467 H   0  0  0  0  0  0  0  0  0  0  0  0
   -2.7883    1.1826   -0.4707 H   0  0  0  0  0  0  0  0  0  0  0  0
  1  2  1  0
  2  3  1  0
  3  4  1  0
  4  5  1  0
  5  6  1  0
  6  7  1  0
  7  8  1  0
  8  4  1  0
  1  9  1  0
  1 10  1  0
  1 11  1  0
  2 12  1  0
  2 13  1  0
  3 14  1  0
  3 15  1  0
  4 16  1  0
  6 17  1  0
  6 18  1  0
  7 19  1  0
  7 20  1  0
M  END
