
     RDKit          3D

 27 26  0  0  0  0  0  0  0  0999 V2000
    2.0990   -1.3965   -0.0315 C   0  0  0  0  0  0  0  0  0  0  0  0
    1.5439   -0.4532    1.0406 C   0  0  0  0  0  0  0  0  0  0  0  0
    1.1281    0.8393    0.4806 C   0  0  0  0  0  0  0  0  0  0  0  0
    0.1540    0.9710   -0.5959 C   0  0  0  0  0  0  0  0  0  0  0  0
    0.1255    2.5548   -0.8360 C   0  0  0  0  0  0  0  0  0  0  0  0
   -1.2508    0.6235   -0.5453 C   0  0  0  0  0  0  0  0  0  0  0  0
   -1.8149   -0.7019   -0.3054 C   0  0  0  0  0  0  0  0  0  0  0  0
   -1.5709   -1.3994    0.9853 C   0  0  0  0  0  0  0  0  0  0  0  0
   -1.5019   -1.6091   -1.3633 O   0  0  0  0  0  0  0  0  0  0  0  0
    2.4844   -2.3138    0.4563 H   0  0  0  0  0  0  0  0  0  0  0  0
    2.9107   -0.8309   -0.5378 H   0  0  0  0  0  0  0  0  0  0  0  0
    1.3133   -1.5977   -0.7827 H   0  0  0  0  0  0  0  0  0  0  0  0
    2.5467   -0.2172    1.6279 H   0  0  0  0  0  0  0  0  0  0  0  0
    0.9784   -0.9354    1.8154 H   0  0  0  0  0  0  0  0  0  0  0  0
    0.8281    1.5594    1.3146 H   0  0  0  0  0  0  0  0  0  0  0  0
    2.1026    1.3576    0.1255 H   0  0  0  0  0  0  0  0  0  0  0  0
    0.6063    0.6650   -1.6153 H   0  0  0  0  0  0  0  0  0  0  0  0
   -0.5014    2.7624   -1.7008 H   0  0  0  0  0  0  0  0  0  0  0  0
    1.1663    2.8755   -0.8779 H   0  0  0  0  0  0  0  0  0  0  0  0
   -0.3586    2.9118    0.0920 H   0  0  0  0  0  0  0  0  0  0  0  0
   -1.7827    0.9975   -1.5142 H   0  0  0  0  0  0  0  0  0  0  0  0
   -1.7585    1.3591    0.1994 H   0  0  0  0  0  0  0  0  0  0  0  0
   -2.9614   -0.6606   -0.4013 H   0  0  0  0  0  0  0  0  0  0  0  0
   -2.5140   -1.9542    1.3193 H   0  0  0  0  0  0  0  0  0  0  0  0
   -1.3312   -0.7592    1.8274 H   0  0  0  0  0  0  0  0  0  0  0  0
   -0.7655   -2.1669    0.8775 H   0  0  0  0  0  0  0  0  0  0  0  0
   -1.8756   -2.4810   -1.0546 H   0  0  0  0  0  0  0  0  0  0  0  0
  1  2  1  0
  2  3  1  0
  3  4  1  0
  4  5  1  0
  4  6  1  0
  6  7  1  0
  7  8  1  0
  7  9  1  0
  1 10  1  0
  1 11  1  0
  1 12  1  0
  2 13  1  0
  2 14  1  0
  3 15  1  0
  3 16  1  0
  4 17  1  0
  5 18  1  0
  5 19  1  0
  5 20  1  0
  6 21  1  0
  6 22  1  0
  7 23  1  0
  8 24  1  0
  8 25  1  0
  8 26  1  0
  9 27  1  0
M  END
