
     RDKit          3D

 25 24  0  0  0  0  0  0  0  0999 V2000
   -3.2988   -0.1646    0.0646 C   0  0  0  0  0  0  0  0  0  0  0  0
   -1.8621    0.0467    0.5676 C   0  0  0  0  0  0  0  0  0  0  0  0
   -0.9727   -0.1451   -0.6175 C   0  0  0  0  0  0  0  0  0  0  0  0
    0.4870    0.0098   -0.3619 C   0  0  0  0  0  0  0  0  0  0  0  0
    0.7389    1.4082    0.1509 C   0  0  0  0  0  0  0  0  0  0  0  0
    0.3071    2.3182   -0.8304 O   0  0  0  0  0  0  0  0  0  0  0  0
    1.0144   -1.0014    0.6373 C   0  0  0  0  0  0  0  0  0  0  0  0
    2.3551   -0.8763    0.8881 O   0  0  0  0  0  0  0  0  0  0  0  0
    3.1879   -1.0261   -0.1899 C   0  0  0  0  0  0  0  0  0  0  0  0
   -3.4496   -1.2164   -0.2176 H   0  0  0  0  0  0  0  0  0  0  0  0
   -3.9568    0.1155    0.9077 H   0  0  0  0  0  0  0  0  0  0  0  0
   -3.4575    0.4469   -0.8412 H   0  0  0  0  0  0  0  0  0  0  0  0
   -1.7851    1.1211    0.8890 H   0  0  0  0  0  0  0  0  0  0  0  0
   -1.6909   -0.6600    1.3836 H   0  0  0  0  0  0  0  0  0  0  0  0
   -1.1628   -1.1368   -1.1042 H   0  0  0  0  0  0  0  0  0  0  0  0
   -1.2977    0.6015   -1.3887 H   0  0  0  0  0  0  0  0  0  0  0  0
    1.0240   -0.1843   -1.3183 H   0  0  0  0  0  0  0  0  0  0  0  0
    1.8242    1.6087    0.2649 H   0  0  0  0  0  0  0  0  0  0  0  0
    0.1856    1.5421    1.0876 H   0  0  0  0  0  0  0  0  0  0  0  0
    0.1397    3.2016   -0.3978 H   0  0  0  0  0  0  0  0  0  0  0  0
    0.7230   -2.0022    0.2544 H   0  0  0  0  0  0  0  0  0  0  0  0
    0.4839   -0.7752    1.6011 H   0  0  0  0  0  0  0  0  0  0  0  0
    3.0300   -0.3031   -1.0128 H   0  0  0  0  0  0  0  0  0  0  0  0
    3.2018   -2.0793   -0.5839 H   0  0  0  0  0  0  0  0  0  0  0  0
    4.2313   -0.8497    0.1673 H   0  0  0  0  0  0  0  0  0  0  0  0
  1  2  1  0
  2  3  1  0
  3  4  1  0
  4  5  1  0
  5  6  1  0
  4  7  1  0
  7  8  1  0
  8  9  1  0
  1 10  1  0
  1 11  1  0
  1 12  1  0
  2 13  1  0
  2 14  1  0
  3 15  1  0
  3 16  1  0
  4 17  1  0
  5 18  1  0
  5 19  1  0
  6 20  1  0
  7 21  1  0
  7 22  1  0
  9 23  1  0
  9 24  1  0
  9 25  1  0
M  END
