
     RDKit          3D

 23 22  0  0  0  0  0  0  0  0999 V2000
    2.9905   -0.7460    0.2517 C   0  0  0  0  0  0  0  0  0  0  0  0
    1.5688   -0.8797   -0.2966 C   0  0  0  0  0  0  0  0  0  0  0  0
    0.8813    0.4294   -0.0435 C   0  0  0  0  0  0  0  0  0  0  0  0
   -0.5289    0.4869   -0.5158 C   0  0  0  0  0  0  0  0  0  0  0  0
   -1.1048    1.8299   -0.2106 C   0  0  0  0  0  0  0  0  0  0  0  0
   -1.3464   -0.6578    0.0434 C   0  0  0  0  0  0  0  0  0  0  0  0
   -1.3864   -0.6556    1.4219 O   0  0  0  0  0  0  0  0  0  0  0  0
   -2.7041   -0.6921   -0.4985 C   0  0  0  0  0  0  0  0  0  0  0  0
   -2.9824   -0.7017   -1.6871 O   0  0  0  0  0  0  0  0  0  0  0  0
    3.3402   -1.7235    0.6441 H   0  0  0  0  0  0  0  0  0  0  0  0
    3.0160    0.0445    1.0300 H   0  0  0  0  0  0  0  0  0  0  0  0
    3.7046   -0.4523   -0.5413 H   0  0  0  0  0  0  0  0  0  0  0  0
    1.6279   -1.1040   -1.3601 H   0  0  0  0  0  0  0  0  0  0  0  0
    1.1117   -1.7159    0.3030 H   0  0  0  0  0  0  0  0  0  0  0  0
    1.4763    1.2192   -0.5390 H   0  0  0  0  0  0  0  0  0  0  0  0
    0.9062    0.6549    1.0525 H   0  0  0  0  0  0  0  0  0  0  0  0
   -0.5365    0.3614   -1.6243 H   0  0  0  0  0  0  0  0  0  0  0  0
   -1.9446    2.1138   -0.8550 H   0  0  0  0  0  0  0  0  0  0  0  0
   -0.2994    2.5888   -0.3890 H   0  0  0  0  0  0  0  0  0  0  0  0
   -1.3366    1.8974    0.8730 H   0  0  0  0  0  0  0  0  0  0  0  0
   -0.8290   -1.5968   -0.3136 H   0  0  0  0  0  0  0  0  0  0  0  0
   -2.0676    0.0107    1.7223 H   0  0  0  0  0  0  0  0  0  0  0  0
   -3.5568   -0.7113    0.1719 H   0  0  0  0  0  0  0  0  0  0  0  0
  1  2  1  0
  2  3  1  0
  3  4  1  0
  4  5  1  0
  4  6  1  0
  6  7  1  0
  6  8  1  0
  8  9  2  0
  1 10  1  0
  1 11  1  0
  1 12  1  0
  2 13  1  0
  2 14  1  0
  3 15  1  0
  3 16  1  0
  4 17  1  0
  5 18  1  0
  5 19  1  0
  5 20  1  0
  6 21  1  0
  7 22  1  0
  8 23  1  0
M  END
