
     RDKit          3D

 27 27  0  0  0  0  0  0  0  0999 V2000
    3.2986    0.8389   -0.1045 C   0  0  0  0  0  0  0  0  0  0  0  0
    1.9448    0.4698    0.5046 C   0  0  0  0  0  0  0  0  0  0  0  0
    1.2141   -0.4031   -0.4823 C   0  0  0  0  0  0  0  0  0  0  0  0
   -0.1301   -0.8370   -0.0084 C   0  0  0  0  0  0  0  0  0  0  0  0
   -0.7945   -1.7211   -1.0749 C   0  0  0  0  0  0  0  0  0  0  0  0
   -1.4988   -0.4787   -1.5694 C   0  0  0  0  0  0  0  0  0  0  0  0
   -1.2809    0.0884   -0.1598 C   0  0  0  0  0  0  0  0  0  0  0  0
   -2.4354   -0.3246    0.7130 C   0  0  0  0  0  0  0  0  0  0  0  0
   -1.0279    1.5632   -0.1766 C   0  0  0  0  0  0  0  0  0  0  0  0
    3.7995   -0.1165   -0.3290 H   0  0  0  0  0  0  0  0  0  0  0  0
    3.8671    1.5103    0.5405 H   0  0  0  0  0  0  0  0  0  0  0  0
    3.0519    1.3025   -1.0991 H   0  0  0  0  0  0  0  0  0  0  0  0
    2.0962   -0.1464    1.4277 H   0  0  0  0  0  0  0  0  0  0  0  0
    1.4424    1.4240    0.7189 H   0  0  0  0  0  0  0  0  0  0  0  0
    1.1935    0.0941   -1.4746 H   0  0  0  0  0  0  0  0  0  0  0  0
    1.8308   -1.3244   -0.6286 H   0  0  0  0  0  0  0  0  0  0  0  0
   -0.0571   -1.3894    0.9493 H   0  0  0  0  0  0  0  0  0  0  0  0
   -1.5180   -2.3876   -0.5887 H   0  0  0  0  0  0  0  0  0  0  0  0
   -0.0853   -2.1814   -1.7737 H   0  0  0  0  0  0  0  0  0  0  0  0
   -2.5692   -0.6014   -1.7945 H   0  0  0  0  0  0  0  0  0  0  0  0
   -0.9142    0.1079   -2.3209 H   0  0  0  0  0  0  0  0  0  0  0  0
   -3.2662   -0.7980    0.1372 H   0  0  0  0  0  0  0  0  0  0  0  0
   -2.1243   -1.0642    1.4953 H   0  0  0  0  0  0  0  0  0  0  0  0
   -2.8801    0.5341    1.2608 H   0  0  0  0  0  0  0  0  0  0  0  0
   -1.9906    2.0409   -0.5291 H   0  0  0  0  0  0  0  0  0  0  0  0
   -0.2706    1.8731   -0.8944 H   0  0  0  0  0  0  0  0  0  0  0  0
   -0.8958    1.9264    0.8527 H   0  0  0  0  0  0  0  0  0  0  0  0
  1  2  1  0
  2  3  1  0
  3  4  1  0
  4  5  1  0
  5  6  1  0
  6  7  1  0
  7  8  1  0
  7  9  1  0
  7  4  1  0
  1 10  1  0
  1 11  1  0
  1 12  1  0
  2 13  1  0
  2 14  1  0
  3 15  1  0
  3 16  1  0
  4 17  1  0
  5 18  1  0
  5 19  1  0
  6 20  1  0
  6 21  1  0
  8 22  1  0
  8 23  1  0
  8 24  1  0
  9 25  1  0
  9 26  1  0
  9 27  1  0
M  END
