
     RDKit          3D

 23 24  0  0  0  0  0  0  0  0999 V2000
    2.1364   -0.2363   -0.8979 C   0  0  0  0  0  0  0  0  0  0  0  0
    2.0543    0.4022    0.4667 C   0  0  0  0  0  0  0  0  0  0  0  0
    0.8306   -0.1223    1.1579 C   0  0  0  0  0  0  0  0  0  0  0  0
   -0.4453    0.2100    0.3688 C   0  0  0  0  0  0  0  0  0  0  0  0
   -0.5974    1.7331    0.2194 C   0  0  0  0  0  0  0  0  0  0  0  0
   -1.6864   -0.4931    0.5800 C   0  0  0  0  0  0  0  0  0  0  0  0
   -2.5517   -1.1038   -0.5359 C   0  0  0  0  0  0  0  0  0  0  0  0
   -1.3914   -1.9168   -0.6687 O   0  0  0  0  0  0  0  0  0  0  0  0
   -0.7687   -0.6708   -0.6988 C   0  0  0  0  0  0  0  0  0  0  0  0
    3.1795   -0.0541   -1.2884 H   0  0  0  0  0  0  0  0  0  0  0  0
    1.3779    0.1370   -1.6025 H   0  0  0  0  0  0  0  0  0  0  0  0
    1.9442   -1.3214   -0.7557 H   0  0  0  0  0  0  0  0  0  0  0  0
    2.1180    1.4956    0.4407 H   0  0  0  0  0  0  0  0  0  0  0  0
    2.9309    0.0378    1.0426 H   0  0  0  0  0  0  0  0  0  0  0  0
    0.9472   -1.2160    1.2883 H   0  0  0  0  0  0  0  0  0  0  0  0
    0.7336    0.3299    2.1501 H   0  0  0  0  0  0  0  0  0  0  0  0
   -1.6134    1.9898   -0.1492 H   0  0  0  0  0  0  0  0  0  0  0  0
   -0.4053    2.2335    1.1889 H   0  0  0  0  0  0  0  0  0  0  0  0
    0.1131    2.1245   -0.5283 H   0  0  0  0  0  0  0  0  0  0  0  0
   -1.5612   -1.3202    1.3505 H   0  0  0  0  0  0  0  0  0  0  0  0
   -3.4131   -1.6573   -0.1371 H   0  0  0  0  0  0  0  0  0  0  0  0
   -2.7735   -0.4496   -1.3717 H   0  0  0  0  0  0  0  0  0  0  0  0
   -1.1583   -0.1315   -1.6198 H   0  0  0  0  0  0  0  0  0  0  0  0
  1  2  1  0
  2  3  1  0
  3  4  1  0
  4  5  1  0
  4  6  1  0
  6  7  1  0
  7  8  1  0
  8  9  1  0
  9  4  1  0
  9  6  1  0
  1 10  1  0
  1 11  1  0
  1 12  1  0
  2 13  1  0
  2 14  1  0
  3 15  1  0
  3 16  1  0
  5 17  1  0
  5 18  1  0
  5 19  1  0
  6 20  1  0
  7 21  1  0
  7 22  1  0
  9 23  1  0
M  END
