
     RDKit          3D

 23 23  0  0  0  0  0  0  0  0999 V2000
   -2.6598    0.5029    0.6908 C   0  0  0  0  0  0  0  0  0  0  0  0
   -2.3733   -0.1584   -0.6265 C   0  0  0  0  0  0  0  0  0  0  0  0
   -0.9303   -0.0235   -1.0651 C   0  0  0  0  0  0  0  0  0  0  0  0
    0.0126   -0.6495   -0.0601 C   0  0  0  0  0  0  0  0  0  0  0  0
   -0.1012   -0.0449    1.1887 O   0  0  0  0  0  0  0  0  0  0  0  0
    1.4292   -0.6767   -0.5332 C   0  0  0  0  0  0  0  0  0  0  0  0
    2.1851    0.5294   -0.8710 C   0  0  0  0  0  0  0  0  0  0  0  0
    2.5681   -0.2899    0.3585 C   0  0  0  0  0  0  0  0  0  0  0  0
    2.3586    0.2376    1.6123 O   0  0  0  0  0  0  0  0  0  0  0  0
   -2.4016   -0.1326    1.5628 H   0  0  0  0  0  0  0  0  0  0  0  0
   -2.1206    1.4678    0.7332 H   0  0  0  0  0  0  0  0  0  0  0  0
   -3.7433    0.7510    0.7092 H   0  0  0  0  0  0  0  0  0  0  0  0
   -3.0636    0.2575   -1.3796 H   0  0  0  0  0  0  0  0  0  0  0  0
   -2.5559   -1.2662   -0.5492 H   0  0  0  0  0  0  0  0  0  0  0  0
   -0.6227    1.0363   -1.1697 H   0  0  0  0  0  0  0  0  0  0  0  0
   -0.8512   -0.5309   -2.0460 H   0  0  0  0  0  0  0  0  0  0  0  0
   -0.3693   -1.7026    0.0870 H   0  0  0  0  0  0  0  0  0  0  0  0
    0.1658    0.9092    1.1813 H   0  0  0  0  0  0  0  0  0  0  0  0
    1.6648   -1.5742   -1.1799 H   0  0  0  0  0  0  0  0  0  0  0  0
    2.8779    0.5222   -1.7439 H   0  0  0  0  0  0  0  0  0  0  0  0
    1.8463    1.5541   -0.6172 H   0  0  0  0  0  0  0  0  0  0  0  0
    3.5572   -0.8167    0.2379 H   0  0  0  0  0  0  0  0  0  0  0  0
    3.1273    0.0983    2.2021 H   0  0  0  0  0  0  0  0  0  0  0  0
  1  2  1  0
  2  3  1  0
  3  4  1  0
  4  5  1  0
  4  6  1  0
  6  7  1  0
  7  8  1  0
  8  9  1  0
  8  6  1  0
  1 10  1  0
  1 11  1  0
  1 12  1  0
  2 13  1  0
  2 14  1  0
  3 15  1  0
  3 16  1  0
  4 17  1  0
  5 18  1  0
  6 19  1  0
  7 20  1  0
  7 21  1  0
  8 22  1  0
  9 23  1  0
M  END
