
     RDKit          3D

 25 25  0  0  0  0  0  0  0  0999 V2000
   -3.0555    0.2646    0.0581 C   0  0  0  0  0  0  0  0  0  0  0  0
   -2.0231   -0.2507    1.0205 C   0  0  0  0  0  0  0  0  0  0  0  0
   -0.6533    0.2921    0.8504 C   0  0  0  0  0  0  0  0  0  0  0  0
    0.0432    0.0439   -0.4309 C   0  0  0  0  0  0  0  0  0  0  0  0
    1.3351    0.6202   -0.4902 O   0  0  0  0  0  0  0  0  0  0  0  0
    2.1943    0.1499    0.4613 C   0  0  0  0  0  0  0  0  0  0  0  0
    3.5305    0.8779    0.1830 C   0  0  0  0  0  0  0  0  0  0  0  0
   -0.5625   -0.1860   -1.7338 C   0  0  0  0  0  0  0  0  0  0  0  0
    0.0612   -1.3761   -0.9715 C   0  0  0  0  0  0  0  0  0  0  0  0
   -3.4991   -0.5472   -0.5866 H   0  0  0  0  0  0  0  0  0  0  0  0
   -2.7457    1.1119   -0.5512 H   0  0  0  0  0  0  0  0  0  0  0  0
   -3.9735    0.6290    0.6209 H   0  0  0  0  0  0  0  0  0  0  0  0
   -2.0357   -1.3618    1.0977 H   0  0  0  0  0  0  0  0  0  0  0  0
   -2.3546    0.0820    2.0511 H   0  0  0  0  0  0  0  0  0  0  0  0
   -0.6724    1.3910    1.0260 H   0  0  0  0  0  0  0  0  0  0  0  0
   -0.0154   -0.1052    1.6976 H   0  0  0  0  0  0  0  0  0  0  0  0
    2.3566   -0.9467    0.4361 H   0  0  0  0  0  0  0  0  0  0  0  0
    1.8700    0.3889    1.5045 H   0  0  0  0  0  0  0  0  0  0  0  0
    4.3566    0.3614    0.7142 H   0  0  0  0  0  0  0  0  0  0  0  0
    3.3773    1.9171    0.4951 H   0  0  0  0  0  0  0  0  0  0  0  0
    3.6540    0.8400   -0.9116 H   0  0  0  0  0  0  0  0  0  0  0  0
    0.0272    0.1042   -2.6579 H   0  0  0  0  0  0  0  0  0  0  0  0
   -1.5961   -0.3819   -1.9831 H   0  0  0  0  0  0  0  0  0  0  0  0
    0.9918   -1.8006   -1.3865 H   0  0  0  0  0  0  0  0  0  0  0  0
   -0.6108   -2.1179   -0.5131 H   0  0  0  0  0  0  0  0  0  0  0  0
  1  2  1  0
  2  3  1  0
  3  4  1  0
  4  5  1  0
  5  6  1  0
  6  7  1  0
  4  8  1  0
  8  9  1  0
  9  4  1  0
  1 10  1  0
  1 11  1  0
  1 12  1  0
  2 13  1  0
  2 14  1  0
  3 15  1  0
  3 16  1  0
  6 17  1  0
  6 18  1  0
  7 19  1  0
  7 20  1  0
  7 21  1  0
  8 22  1  0
  8 23  1  0
  9 24  1  0
  9 25  1  0
M  END
