
     RDKit          3D

 25 25  0  0  0  0  0  0  0  0999 V2000
    2.8736   -1.0071   -0.4404 C   0  0  0  0  0  0  0  0  0  0  0  0
    1.7792    0.0554   -0.6444 C   0  0  0  0  0  0  0  0  0  0  0  0
    0.6265   -0.3818    0.2018 C   0  0  0  0  0  0  0  0  0  0  0  0
   -0.5812    0.4783    0.1808 C   0  0  0  0  0  0  0  0  0  0  0  0
   -0.4010    1.9095    0.6383 C   0  0  0  0  0  0  0  0  0  0  0  0
    0.5240    2.5654   -0.1677 O   0  0  0  0  0  0  0  0  0  0  0  0
   -1.6338    0.3207   -0.8637 C   0  0  0  0  0  0  0  0  0  0  0  0
   -1.8642   -0.1719    0.5528 C   0  0  0  0  0  0  0  0  0  0  0  0
   -1.9718   -1.6744    0.6512 C   0  0  0  0  0  0  0  0  0  0  0  0
    2.3786   -1.9745   -0.6592 H   0  0  0  0  0  0  0  0  0  0  0  0
    3.7465   -0.8105   -1.0553 H   0  0  0  0  0  0  0  0  0  0  0  0
    3.0697   -1.0051    0.6575 H   0  0  0  0  0  0  0  0  0  0  0  0
    2.2387    1.0208   -0.3298 H   0  0  0  0  0  0  0  0  0  0  0  0
    1.5677    0.0782   -1.7174 H   0  0  0  0  0  0  0  0  0  0  0  0
    1.0028   -0.4031    1.2672 H   0  0  0  0  0  0  0  0  0  0  0  0
    0.4058   -1.4365   -0.0538 H   0  0  0  0  0  0  0  0  0  0  0  0
   -1.3735    2.4677    0.5195 H   0  0  0  0  0  0  0  0  0  0  0  0
   -0.0631    1.9541    1.7080 H   0  0  0  0  0  0  0  0  0  0  0  0
    0.0650    3.0352   -0.8978 H   0  0  0  0  0  0  0  0  0  0  0  0
   -2.2691    1.1602   -1.1442 H   0  0  0  0  0  0  0  0  0  0  0  0
   -1.4620   -0.4145   -1.6693 H   0  0  0  0  0  0  0  0  0  0  0  0
   -2.5218    0.3699    1.2299 H   0  0  0  0  0  0  0  0  0  0  0  0
   -3.0520   -1.9276    0.7039 H   0  0  0  0  0  0  0  0  0  0  0  0
   -1.5091   -2.0185    1.5850 H   0  0  0  0  0  0  0  0  0  0  0  0
   -1.5757   -2.1897   -0.2529 H   0  0  0  0  0  0  0  0  0  0  0  0
  1  2  1  0
  2  3  1  0
  3  4  1  0
  4  5  1  0
  5  6  1  0
  4  7  1  0
  7  8  1  0
  8  9  1  0
  8  4  1  0
  1 10  1  0
  1 11  1  0
  1 12  1  0
  2 13  1  0
  2 14  1  0
  3 15  1  0
  3 16  1  0
  5 17  1  0
  5 18  1  0
  6 19  1  0
  7 20  1  0
  7 21  1  0
  8 22  1  0
  9 23  1  0
  9 24  1  0
  9 25  1  0
M  END
