
     RDKit          3D

 26 25  0  0  0  0  0  0  0  0999 V2000
   -3.0146   -0.7637    0.2165 C   0  0  0  0  0  0  0  0  0  0  0  0
   -2.4962    0.4260    1.0014 C   0  0  0  0  0  0  0  0  0  0  0  0
   -1.9248    1.4774    0.1067 C   0  0  0  0  0  0  0  0  0  0  0  0
   -0.7942    0.9303   -0.6979 C   0  0  0  0  0  0  0  0  0  0  0  0
    0.2888    0.4424    0.1986 C   0  0  0  0  0  0  0  0  0  0  0  0
    1.4771   -0.1184   -0.6023 C   0  0  0  0  0  0  0  0  0  0  0  0
    2.4822   -0.5684    0.4336 C   0  0  0  0  0  0  0  0  0  0  0  0
    3.7239   -1.1513   -0.1888 C   0  0  0  0  0  0  0  0  0  0  0  0
   -2.3853   -1.6364    0.5141 H   0  0  0  0  0  0  0  0  0  0  0  0
   -4.0454   -1.0171    0.5147 H   0  0  0  0  0  0  0  0  0  0  0  0
   -2.9862   -0.5894   -0.8810 H   0  0  0  0  0  0  0  0  0  0  0  0
   -1.7495    0.1338    1.7569 H   0  0  0  0  0  0  0  0  0  0  0  0
   -3.3633    0.8365    1.6013 H   0  0  0  0  0  0  0  0  0  0  0  0
   -1.6232    2.3322    0.7527 H   0  0  0  0  0  0  0  0  0  0  0  0
   -2.7433    1.8650   -0.5357 H   0  0  0  0  0  0  0  0  0  0  0  0
   -0.3777    1.7733   -1.2993 H   0  0  0  0  0  0  0  0  0  0  0  0
   -1.1197    0.0956   -1.3375 H   0  0  0  0  0  0  0  0  0  0  0  0
   -0.0773   -0.4160    0.8023 H   0  0  0  0  0  0  0  0  0  0  0  0
    0.6922    1.1955    0.8892 H   0  0  0  0  0  0  0  0  0  0  0  0
    1.9227    0.6719   -1.2493 H   0  0  0  0  0  0  0  0  0  0  0  0
    1.1550   -0.9289   -1.2727 H   0  0  0  0  0  0  0  0  0  0  0  0
    2.0021   -1.3783    1.0395 H   0  0  0  0  0  0  0  0  0  0  0  0
    2.7514    0.2857    1.0546 H   0  0  0  0  0  0  0  0  0  0  0  0
    4.5522   -1.0058    0.5260 H   0  0  0  0  0  0  0  0  0  0  0  0
    3.6406   -2.2416   -0.3865 H   0  0  0  0  0  0  0  0  0  0  0  0
    4.0125   -0.6504   -1.1290 H   0  0  0  0  0  0  0  0  0  0  0  0
  1  2  1  0
  2  3  1  0
  3  4  1  0
  4  5  1  0
  5  6  1  0
  6  7  1  0
  7  8  1  0
  1  9  1  0
  1 10  1  0
  1 11  1  0
  2 12  1  0
  2 13  1  0
  3 14  1  0
  3 15  1  0
  4 16  1  0
  4 17  1  0
  5 18  1  0
  5 19  1  0
  6 20  1  0
  6 21  1  0
  7 22  1  0
  7 23  1  0
  8 24  1  0
  8 25  1  0
  8 26  1  0
M  END
