
     RDKit          3D

 25 25  0  0  0  0  0  0  0  0999 V2000
    3.0577   -0.1239   -0.4245 C   0  0  0  0  0  0  0  0  0  0  0  0
    1.6382   -0.5975   -0.6809 C   0  0  0  0  0  0  0  0  0  0  0  0
    0.7348    0.1051    0.2733 C   0  0  0  0  0  0  0  0  0  0  0  0
   -0.7034   -0.2550    0.1469 C   0  0  0  0  0  0  0  0  0  0  0  0
   -1.0178   -1.6867    0.3644 C   0  0  0  0  0  0  0  0  0  0  0  0
   -1.4758    0.6073    1.1556 C   0  0  0  0  0  0  0  0  0  0  0  0
   -1.5768    1.8950    0.3589 C   0  0  0  0  0  0  0  0  0  0  0  0
   -1.3579    1.5994   -0.9527 O   0  0  0  0  0  0  0  0  0  0  0  0
   -1.3252    0.2414   -1.1278 C   0  0  0  0  0  0  0  0  0  0  0  0
    3.2640    0.7798   -1.0293 H   0  0  0  0  0  0  0  0  0  0  0  0
    3.7771   -0.9533   -0.6251 H   0  0  0  0  0  0  0  0  0  0  0  0
    3.1223    0.1078    0.6726 H   0  0  0  0  0  0  0  0  0  0  0  0
    1.6522   -1.7047   -0.4628 H   0  0  0  0  0  0  0  0  0  0  0  0
    1.3529   -0.5051   -1.7322 H   0  0  0  0  0  0  0  0  0  0  0  0
    0.8280    1.2032    0.1029 H   0  0  0  0  0  0  0  0  0  0  0  0
    1.0818   -0.0773    1.3013 H   0  0  0  0  0  0  0  0  0  0  0  0
   -0.6256   -2.2622   -0.5150 H   0  0  0  0  0  0  0  0  0  0  0  0
   -0.5802   -2.1154    1.2639 H   0  0  0  0  0  0  0  0  0  0  0  0
   -2.1161   -1.8175    0.3348 H   0  0  0  0  0  0  0  0  0  0  0  0
   -0.8854    0.7387    2.0812 H   0  0  0  0  0  0  0  0  0  0  0  0
   -2.4847    0.1909    1.3477 H   0  0  0  0  0  0  0  0  0  0  0  0
   -2.5590    2.3480    0.5856 H   0  0  0  0  0  0  0  0  0  0  0  0
   -0.7258    2.5522    0.7053 H   0  0  0  0  0  0  0  0  0  0  0  0
   -2.3613   -0.1954   -1.1647 H   0  0  0  0  0  0  0  0  0  0  0  0
   -0.7142   -0.0748   -1.9795 H   0  0  0  0  0  0  0  0  0  0  0  0
  1  2  1  0
  2  3  1  0
  3  4  1  0
  4  5  1  0
  4  6  1  0
  6  7  1  0
  7  8  1  0
  8  9  1  0
  9  4  1  0
  1 10  1  0
  1 11  1  0
  1 12  1  0
  2 13  1  0
  2 14  1  0
  3 15  1  0
  3 16  1  0
  5 17  1  0
  5 18  1  0
  5 19  1  0
  6 20  1  0
  6 21  1  0
  7 22  1  0
  7 23  1  0
  9 24  1  0
  9 25  1  0
M  END
