
     RDKit          3D

 18 18  0  0  0  0  0  0  0  0999 V2000
   -2.3921    1.6637    1.8659 C   0  0  0  0  0  0  0  0  0  0  0  0
   -1.1499    0.8664    1.5206 C   0  0  0  0  0  0  0  0  0  0  0  0
   -0.8804    0.9961    0.0244 C   0  0  0  0  0  0  0  0  0  0  0  0
    0.2931    0.2445   -0.3688 C   0  0  0  0  0  0  0  0  0  0  0  0
    1.2851   -0.4150   -0.7112 C   0  0  0  0  0  0  0  0  0  0  0  0
    2.4571   -1.2157   -1.1379 C   0  0  0  0  0  0  0  0  0  0  0  0
    2.2717   -2.4844   -1.7501 C   0  0  0  0  0  0  0  0  0  0  0  0
    2.5691   -2.4766   -0.3655 O   0  0  0  0  0  0  0  0  0  0  0  0
   -3.2303    0.9895    2.2041 H   0  0  0  0  0  0  0  0  0  0  0  0
   -2.2231    2.3741    2.7011 H   0  0  0  0  0  0  0  0  0  0  0  0
   -2.7236    2.2328    0.9775 H   0  0  0  0  0  0  0  0  0  0  0  0
   -1.3421   -0.1911    1.7117 H   0  0  0  0  0  0  0  0  0  0  0  0
   -0.3079    1.2359    2.1365 H   0  0  0  0  0  0  0  0  0  0  0  0
   -1.7567    0.6085   -0.5045 H   0  0  0  0  0  0  0  0  0  0  0  0
   -0.7412    2.1050   -0.1535 H   0  0  0  0  0  0  0  0  0  0  0  0
    3.4244   -0.7105   -1.2130 H   0  0  0  0  0  0  0  0  0  0  0  0
    1.3062   -2.9116   -2.0740 H   0  0  0  0  0  0  0  0  0  0  0  0
    3.1406   -2.9115   -2.3333 H   0  0  0  0  0  0  0  0  0  0  0  0
  1  2  1  0
  2  3  1  0
  3  4  1  0
  4  5  3  0
  5  6  1  0
  6  7  1  0
  7  8  1  0
  8  6  1  0
  1  9  1  0
  1 10  1  0
  1 11  1  0
  2 12  1  0
  2 13  1  0
  3 14  1  0
  3 15  1  0
  6 16  1  0
  7 17  1  0
  7 18  1  0
M  END
