
     RDKit          3D

 23 25  0  0  0  0  0  0  0  0999 V2000
    2.4864   -0.2877   -0.4727 C   0  0  0  0  0  0  0  0  0  0  0  0
    1.9310    0.5379    0.6286 C   0  0  0  0  0  0  0  0  0  0  0  0
    0.6034    0.1329    1.1553 C   0  0  0  0  0  0  0  0  0  0  0  0
   -0.5357    0.1019    0.2969 C   0  0  0  0  0  0  0  0  0  0  0  0
   -1.8115   -0.3339    0.9978 C   0  0  0  0  0  0  0  0  0  0  0  0
   -2.3208   -0.7136   -0.4018 C   0  0  0  0  0  0  0  0  0  0  0  0
   -1.6031    0.0654   -1.4354 C   0  0  0  0  0  0  0  0  0  0  0  0
   -0.8193    1.1838   -0.7070 C   0  0  0  0  0  0  0  0  0  0  0  0
   -0.7988   -0.8788   -0.7424 C   0  0  0  0  0  0  0  0  0  0  0  0
    2.0918   -0.0402   -1.4756 H   0  0  0  0  0  0  0  0  0  0  0  0
    3.5867   -0.0372   -0.5380 H   0  0  0  0  0  0  0  0  0  0  0  0
    2.4590   -1.3783   -0.2744 H   0  0  0  0  0  0  0  0  0  0  0  0
    1.8997    1.6024    0.2627 H   0  0  0  0  0  0  0  0  0  0  0  0
    2.6863    0.5485    1.4439 H   0  0  0  0  0  0  0  0  0  0  0  0
    0.7365   -0.8930    1.6177 H   0  0  0  0  0  0  0  0  0  0  0  0
    0.3951    0.7841    2.0502 H   0  0  0  0  0  0  0  0  0  0  0  0
   -2.3720    0.5408    1.3483 H   0  0  0  0  0  0  0  0  0  0  0  0
   -1.7131   -1.1807    1.6802 H   0  0  0  0  0  0  0  0  0  0  0  0
   -2.9663   -1.5501   -0.5574 H   0  0  0  0  0  0  0  0  0  0  0  0
   -1.8729    0.1682   -2.4593 H   0  0  0  0  0  0  0  0  0  0  0  0
   -0.0010    1.5961   -1.2667 H   0  0  0  0  0  0  0  0  0  0  0  0
   -1.5384    1.9085   -0.2868 H   0  0  0  0  0  0  0  0  0  0  0  0
   -0.5231   -1.8771   -0.8641 H   0  0  0  0  0  0  0  0  0  0  0  0
  1  2  1  0
  2  3  1  0
  3  4  1  0
  4  5  1  0
  5  6  1  0
  6  7  1  0
  7  8  1  0
  7  9  1  0
  8  4  1  0
  9  4  1  0
  9  6  1  0
  1 10  1  0
  1 11  1  0
  1 12  1  0
  2 13  1  0
  2 14  1  0
  3 15  1  0
  3 16  1  0
  5 17  1  0
  5 18  1  0
  6 19  1  0
  7 20  1  0
  8 21  1  0
  8 22  1  0
  9 23  1  0
M  END
