
     RDKit          3D

 25 25  0  0  0  0  0  0  0  0999 V2000
    3.5006   -0.2962   -0.6673 C   0  0  0  0  0  0  0  0  0  0  0  0
    2.4510   -0.3466    0.4275 C   0  0  0  0  0  0  0  0  0  0  0  0
    1.0652   -0.0168   -0.1248 C   0  0  0  0  0  0  0  0  0  0  0  0
    0.1080   -0.0912    1.0164 C   0  0  0  0  0  0  0  0  0  0  0  0
   -1.3180    0.2138    0.6221 C   0  0  0  0  0  0  0  0  0  0  0  0
   -1.4957    1.5773    0.0483 C   0  0  0  0  0  0  0  0  0  0  0  0
   -1.9087   -0.8585   -0.2525 C   0  0  0  0  0  0  0  0  0  0  0  0
   -3.2924   -0.7011   -0.7173 C   0  0  0  0  0  0  0  0  0  0  0  0
   -2.2729   -0.3769   -1.6151 O   0  0  0  0  0  0  0  0  0  0  0  0
    3.0715    0.0540   -1.6384 H   0  0  0  0  0  0  0  0  0  0  0  0
    4.3123    0.4377   -0.4327 H   0  0  0  0  0  0  0  0  0  0  0  0
    4.0172   -1.2768   -0.7700 H   0  0  0  0  0  0  0  0  0  0  0  0
    2.4643   -1.3533    0.8924 H   0  0  0  0  0  0  0  0  0  0  0  0
    2.7408    0.4160    1.1834 H   0  0  0  0  0  0  0  0  0  0  0  0
    1.1373    1.0662   -0.4394 H   0  0  0  0  0  0  0  0  0  0  0  0
    0.8171   -0.6772   -0.9558 H   0  0  0  0  0  0  0  0  0  0  0  0
    0.4550    0.5854    1.8229 H   0  0  0  0  0  0  0  0  0  0  0  0
    0.1091   -1.1154    1.4678 H   0  0  0  0  0  0  0  0  0  0  0  0
   -1.9089    0.1859    1.5853 H   0  0  0  0  0  0  0  0  0  0  0  0
   -0.7127    1.9031   -0.6427 H   0  0  0  0  0  0  0  0  0  0  0  0
   -2.4550    1.5845   -0.5423 H   0  0  0  0  0  0  0  0  0  0  0  0
   -1.6657    2.3379    0.8597 H   0  0  0  0  0  0  0  0  0  0  0  0
   -1.4317   -1.8399   -0.3456 H   0  0  0  0  0  0  0  0  0  0  0  0
   -3.8997    0.1582   -0.3425 H   0  0  0  0  0  0  0  0  0  0  0  0
   -3.8880   -1.5700   -1.0247 H   0  0  0  0  0  0  0  0  0  0  0  0
  1  2  1  0
  2  3  1  0
  3  4  1  0
  4  5  1  0
  5  6  1  0
  5  7  1  0
  7  8  1  0
  8  9  1  0
  9  7  1  0
  1 10  1  0
  1 11  1  0
  1 12  1  0
  2 13  1  0
  2 14  1  0
  3 15  1  0
  3 16  1  0
  4 17  1  0
  4 18  1  0
  5 19  1  0
  6 20  1  0
  6 21  1  0
  6 22  1  0
  7 23  1  0
  8 24  1  0
  8 25  1  0
M  END
