
     RDKit          3D

 25 25  0  0  0  0  0  0  0  0999 V2000
    3.0638   -0.0718   -0.1923 C   0  0  0  0  0  0  0  0  0  0  0  0
    1.9957    0.7025   -0.9294 C   0  0  0  0  0  0  0  0  0  0  0  0
    0.7944   -0.1965   -1.1485 C   0  0  0  0  0  0  0  0  0  0  0  0
    0.3102   -0.6184    0.2137 C   0  0  0  0  0  0  0  0  0  0  0  0
   -0.0815    0.5513    1.0404 O   0  0  0  0  0  0  0  0  0  0  0  0
   -1.0121   -0.4791    0.7143 C   0  0  0  0  0  0  0  0  0  0  0  0
   -1.4241   -1.3762    1.8703 C   0  0  0  0  0  0  0  0  0  0  0  0
   -2.1689    0.0601   -0.0832 C   0  0  0  0  0  0  0  0  0  0  0  0
   -1.9644    1.4529   -0.5688 C   0  0  0  0  0  0  0  0  0  0  0  0
    4.0439    0.3951   -0.4607 H   0  0  0  0  0  0  0  0  0  0  0  0
    3.0192   -1.1457   -0.4416 H   0  0  0  0  0  0  0  0  0  0  0  0
    2.8597    0.0185    0.8978 H   0  0  0  0  0  0  0  0  0  0  0  0
    2.4266    1.0316   -1.8968 H   0  0  0  0  0  0  0  0  0  0  0  0
    1.7272    1.5702   -0.2827 H   0  0  0  0  0  0  0  0  0  0  0  0
    1.1762   -1.1043   -1.6600 H   0  0  0  0  0  0  0  0  0  0  0  0
    0.0324    0.2478   -1.7858 H   0  0  0  0  0  0  0  0  0  0  0  0
    1.0578   -1.1804    0.8013 H   0  0  0  0  0  0  0  0  0  0  0  0
   -2.3467   -1.9172    1.5450 H   0  0  0  0  0  0  0  0  0  0  0  0
   -0.6155   -2.1255    2.0893 H   0  0  0  0  0  0  0  0  0  0  0  0
   -1.6372   -0.7780    2.7886 H   0  0  0  0  0  0  0  0  0  0  0  0
   -2.4328   -0.6016   -0.9323 H   0  0  0  0  0  0  0  0  0  0  0  0
   -3.0971    0.0662    0.5629 H   0  0  0  0  0  0  0  0  0  0  0  0
   -0.9662    1.8713   -0.3227 H   0  0  0  0  0  0  0  0  0  0  0  0
   -2.7239    2.1706   -0.1452 H   0  0  0  0  0  0  0  0  0  0  0  0
   -2.0367    1.4563   -1.6736 H   0  0  0  0  0  0  0  0  0  0  0  0
  1  2  1  0
  2  3  1  0
  3  4  1  0
  4  5  1  0
  5  6  1  0
  6  7  1  0
  6  8  1  0
  8  9  1  0
  6  4  1  0
  1 10  1  0
  1 11  1  0
  1 12  1  0
  2 13  1  0
  2 14  1  0
  3 15  1  0
  3 16  1  0
  4 17  1  0
  7 18  1  0
  7 19  1  0
  7 20  1  0
  8 21  1  0
  8 22  1  0
  9 23  1  0
  9 24  1  0
  9 25  1  0
M  END
