
     RDKit          3D

 22 22  0  0  0  0  0  0  0  0999 V2000
    3.1812    0.1419   -0.3760 C   0  0  0  0  0  0  0  0  0  0  0  0
    1.9586   -0.3811    0.3490 C   0  0  0  0  0  0  0  0  0  0  0  0
    0.7295    0.1548   -0.3603 C   0  0  0  0  0  0  0  0  0  0  0  0
   -0.5449   -0.3108    0.2877 C   0  0  0  0  0  0  0  0  0  0  0  0
   -1.7970    0.1985   -0.3854 C   0  0  0  0  0  0  0  0  0  0  0  0
   -2.8272   -0.8531   -0.6560 C   0  0  0  0  0  0  0  0  0  0  0  0
   -1.4397    0.5715    1.0262 C   0  0  0  0  0  0  0  0  0  0  0  0
   -1.1690    1.9235    1.2133 O   0  0  0  0  0  0  0  0  0  0  0  0
    3.3505   -0.5388   -1.2367 H   0  0  0  0  0  0  0  0  0  0  0  0
    2.9065    1.1645   -0.7732 H   0  0  0  0  0  0  0  0  0  0  0  0
    4.0715    0.2052    0.2833 H   0  0  0  0  0  0  0  0  0  0  0  0
    1.9493   -0.0326    1.4079 H   0  0  0  0  0  0  0  0  0  0  0  0
    1.9451   -1.4690    0.2648 H   0  0  0  0  0  0  0  0  0  0  0  0
    0.7808    1.2415   -0.5079 H   0  0  0  0  0  0  0  0  0  0  0  0
    0.7505   -0.2995   -1.3880 H   0  0  0  0  0  0  0  0  0  0  0  0
   -0.5029   -1.3916    0.5923 H   0  0  0  0  0  0  0  0  0  0  0  0
   -1.7130    0.9653   -1.1799 H   0  0  0  0  0  0  0  0  0  0  0  0
   -3.7543   -0.4383   -1.1055 H   0  0  0  0  0  0  0  0  0  0  0  0
   -2.3875   -1.5388   -1.4382 H   0  0  0  0  0  0  0  0  0  0  0  0
   -3.0114   -1.4764    0.2309 H   0  0  0  0  0  0  0  0  0  0  0  0
   -2.0329    0.1114    1.8522 H   0  0  0  0  0  0  0  0  0  0  0  0
   -0.4437    2.0517    1.8997 H   0  0  0  0  0  0  0  0  0  0  0  0
  1  2  1  0
  2  3  1  0
  3  4  1  0
  4  5  1  0
  5  6  1  0
  5  7  1  0
  7  8  1  0
  7  4  1  0
  1  9  1  0
  1 10  1  0
  1 11  1  0
  2 12  1  0
  2 13  1  0
  3 14  1  0
  3 15  1  0
  4 16  1  0
  5 17  1  0
  6 18  1  0
  6 19  1  0
  6 20  1  0
  7 21  1  0
  8 22  1  0
M  END
