
     RDKit          3D

 21 21  0  0  0  0  0  0  0  0999 V2000
    2.8283   -0.7076    0.3406 C   0  0  0  0  0  0  0  0  0  0  0  0
    2.3523    0.6965    0.2267 C   0  0  0  0  0  0  0  0  0  0  0  0
    1.4547    0.9687   -0.9487 C   0  0  0  0  0  0  0  0  0  0  0  0
    0.2327    0.1493   -0.9304 C   0  0  0  0  0  0  0  0  0  0  0  0
    0.1161   -0.7687   -1.7831 O   0  0  0  0  0  0  0  0  0  0  0  0
   -0.8045    0.3295   -0.0263 O   0  0  0  0  0  0  0  0  0  0  0  0
   -1.9375   -0.4624   -0.0402 C   0  0  0  0  0  0  0  0  0  0  0  0
   -2.8265   -0.7073    1.1098 C   0  0  0  0  0  0  0  0  0  0  0  0
   -3.2810    0.3222    0.1133 C   0  0  0  0  0  0  0  0  0  0  0  0
    3.8717   -0.6972    0.7857 H   0  0  0  0  0  0  0  0  0  0  0  0
    2.7855   -1.2933   -0.5815 H   0  0  0  0  0  0  0  0  0  0  0  0
    2.2299   -1.2910    1.0979 H   0  0  0  0  0  0  0  0  0  0  0  0
    1.8341    1.0083    1.1710 H   0  0  0  0  0  0  0  0  0  0  0  0
    3.2051    1.4266    0.1469 H   0  0  0  0  0  0  0  0  0  0  0  0
    2.0360    0.7474   -1.8646 H   0  0  0  0  0  0  0  0  0  0  0  0
    1.1647    2.0217   -0.9178 H   0  0  0  0  0  0  0  0  0  0  0  0
   -1.9667   -1.2314   -0.8402 H   0  0  0  0  0  0  0  0  0  0  0  0
   -2.6208   -0.3959    2.1391 H   0  0  0  0  0  0  0  0  0  0  0  0
   -3.4434   -1.6379    1.0697 H   0  0  0  0  0  0  0  0  0  0  0  0
   -4.0645    0.1219   -0.6237 H   0  0  0  0  0  0  0  0  0  0  0  0
   -3.1663    1.4008    0.3557 H   0  0  0  0  0  0  0  0  0  0  0  0
  1  2  1  0
  2  3  1  0
  3  4  1  0
  4  5  2  0
  4  6  1  0
  6  7  1  0
  7  8  1  0
  8  9  1  0
  9  7  1  0
  1 10  1  0
  1 11  1  0
  1 12  1  0
  2 13  1  0
  2 14  1  0
  3 15  1  0
  3 16  1  0
  7 17  1  0
  8 18  1  0
  8 19  1  0
  9 20  1  0
  9 21  1  0
M  END
