
     RDKit          3D

 27 26  0  0  0  0  0  0  0  0999 V2000
    3.5615    0.1413    0.3055 C   0  0  0  0  0  0  0  0  0  0  0  0
    2.7937   -0.0025   -0.9631 C   0  0  0  0  0  0  0  0  0  0  0  0
    1.3941   -0.5276   -0.7724 C   0  0  0  0  0  0  0  0  0  0  0  0
    0.5629    0.3582    0.0992 C   0  0  0  0  0  0  0  0  0  0  0  0
   -0.8379   -0.2081    0.2683 C   0  0  0  0  0  0  0  0  0  0  0  0
   -1.6700    0.6856    1.1459 C   0  0  0  0  0  0  0  0  0  0  0  0
   -3.0707    0.2143    1.3913 C   0  0  0  0  0  0  0  0  0  0  0  0
   -1.5250   -0.3769   -1.0512 C   0  0  0  0  0  0  0  0  0  0  0  0
   -2.7905   -0.9023   -0.8430 O   0  0  0  0  0  0  0  0  0  0  0  0
    3.2261   -0.4890    1.1276 H   0  0  0  0  0  0  0  0  0  0  0  0
    3.5906    1.2163    0.6375 H   0  0  0  0  0  0  0  0  0  0  0  0
    4.6446   -0.1234    0.1240 H   0  0  0  0  0  0  0  0  0  0  0  0
    2.7919    0.9623   -1.5007 H   0  0  0  0  0  0  0  0  0  0  0  0
    3.3321   -0.7309   -1.6149 H   0  0  0  0  0  0  0  0  0  0  0  0
    0.9404   -0.5328   -1.8034 H   0  0  0  0  0  0  0  0  0  0  0  0
    1.4019   -1.5407   -0.3772 H   0  0  0  0  0  0  0  0  0  0  0  0
    0.4628    1.3848   -0.3031 H   0  0  0  0  0  0  0  0  0  0  0  0
    1.0323    0.4543    1.0996 H   0  0  0  0  0  0  0  0  0  0  0  0
   -0.7593   -1.1960    0.7504 H   0  0  0  0  0  0  0  0  0  0  0  0
   -1.7528    1.7215    0.7124 H   0  0  0  0  0  0  0  0  0  0  0  0
   -1.1384    0.8297    2.1102 H   0  0  0  0  0  0  0  0  0  0  0  0
   -3.7285    0.6219    0.5964 H   0  0  0  0  0  0  0  0  0  0  0  0
   -3.1214   -0.9064    1.4293 H   0  0  0  0  0  0  0  0  0  0  0  0
   -3.4154    0.6260    2.3840 H   0  0  0  0  0  0  0  0  0  0  0  0
   -1.6772    0.6029   -1.5745 H   0  0  0  0  0  0  0  0  0  0  0  0
   -1.0069   -1.1018   -1.7202 H   0  0  0  0  0  0  0  0  0  0  0  0
   -3.2408   -1.1887   -1.6578 H   0  0  0  0  0  0  0  0  0  0  0  0
  1  2  1  0
  2  3  1  0
  3  4  1  0
  4  5  1  0
  5  6  1  0
  6  7  1  0
  5  8  1  0
  8  9  1  0
  1 10  1  0
  1 11  1  0
  1 12  1  0
  2 13  1  0
  2 14  1  0
  3 15  1  0
  3 16  1  0
  4 17  1  0
  4 18  1  0
  5 19  1  0
  6 20  1  0
  6 21  1  0
  7 22  1  0
  7 23  1  0
  7 24  1  0
  8 25  1  0
  8 26  1  0
  9 27  1  0
M  END
