
     RDKit          3D

 21 22  0  0  0  0  0  0  0  0999 V2000
   -2.9848    0.6811    0.0149 C   0  0  0  0  0  0  0  0  0  0  0  0
   -1.7256    0.1113   -0.5638 C   0  0  0  0  0  0  0  0  0  0  0  0
   -0.6525    0.1145    0.5332 C   0  0  0  0  0  0  0  0  0  0  0  0
    0.5906   -0.4657   -0.0959 C   0  0  0  0  0  0  0  0  0  0  0  0
    1.7923   -0.5734    0.7708 C   0  0  0  0  0  0  0  0  0  0  0  0
    2.1157   -1.8209    1.2606 O   0  0  0  0  0  0  0  0  0  0  0  0
    2.6727    0.0109   -0.2697 C   0  0  0  0  0  0  0  0  0  0  0  0
    2.4105   -0.0115   -1.6086 O   0  0  0  0  0  0  0  0  0  0  0  0
    1.3856    0.5428   -0.9214 C   0  0  0  0  0  0  0  0  0  0  0  0
   -3.8579    0.3378   -0.5884 H   0  0  0  0  0  0  0  0  0  0  0  0
   -2.9331    1.7818   -0.0326 H   0  0  0  0  0  0  0  0  0  0  0  0
   -3.0573    0.3735    1.0663 H   0  0  0  0  0  0  0  0  0  0  0  0
   -1.8460   -0.9353   -0.9138 H   0  0  0  0  0  0  0  0  0  0  0  0
   -1.3733    0.6992   -1.4354 H   0  0  0  0  0  0  0  0  0  0  0  0
   -0.4750    1.1449    0.8851 H   0  0  0  0  0  0  0  0  0  0  0  0
   -0.9839   -0.5752    1.3330 H   0  0  0  0  0  0  0  0  0  0  0  0
    0.4080   -1.3967   -0.6580 H   0  0  0  0  0  0  0  0  0  0  0  0
    1.6903    0.1452    1.6363 H   0  0  0  0  0  0  0  0  0  0  0  0
    2.1375   -2.4898    0.5379 H   0  0  0  0  0  0  0  0  0  0  0  0
    3.4306    0.7166    0.0614 H   0  0  0  0  0  0  0  0  0  0  0  0
    1.2556    1.6091   -0.7483 H   0  0  0  0  0  0  0  0  0  0  0  0
  1  2  1  0
  2  3  1  0
  3  4  1  0
  4  5  1  0
  5  6  1  0
  5  7  1  0
  7  8  1  0
  8  9  1  0
  9  4  1  0
  9  7  1  0
  1 10  1  0
  1 11  1  0
  1 12  1  0
  2 13  1  0
  2 14  1  0
  3 15  1  0
  3 16  1  0
  4 17  1  0
  5 18  1  0
  6 19  1  0
  7 20  1  0
  9 21  1  0
M  END
