
     RDKit          3D

 21 21  0  0  0  0  0  0  0  0999 V2000
    3.0850    0.3232    0.3251 C   0  0  0  0  0  0  0  0  0  0  0  0
    1.7788   -0.2586    0.7834 C   0  0  0  0  0  0  0  0  0  0  0  0
    0.6079    0.1912   -0.0638 C   0  0  0  0  0  0  0  0  0  0  0  0
   -0.6161   -0.4857    0.5359 C   0  0  0  0  0  0  0  0  0  0  0  0
   -1.8094   -0.0601   -0.2850 C   0  0  0  0  0  0  0  0  0  0  0  0
   -2.0786    1.3765   -0.3249 C   0  0  0  0  0  0  0  0  0  0  0  0
   -3.0001    1.8854   -0.9393 O   0  0  0  0  0  0  0  0  0  0  0  0
   -2.3668   -1.0155   -1.1962 C   0  0  0  0  0  0  0  0  0  0  0  0
   -3.0369   -0.8265    0.0357 O   0  0  0  0  0  0  0  0  0  0  0  0
    3.2494    1.2505    0.9505 H   0  0  0  0  0  0  0  0  0  0  0  0
    3.1279    0.5545   -0.7362 H   0  0  0  0  0  0  0  0  0  0  0  0
    3.9369   -0.3417    0.5807 H   0  0  0  0  0  0  0  0  0  0  0  0
    1.5331   -0.0021    1.8334 H   0  0  0  0  0  0  0  0  0  0  0  0
    1.8193   -1.3572    0.7046 H   0  0  0  0  0  0  0  0  0  0  0  0
    0.7308   -0.1034   -1.1243 H   0  0  0  0  0  0  0  0  0  0  0  0
    0.4706    1.2886   -0.0550 H   0  0  0  0  0  0  0  0  0  0  0  0
   -0.7143   -0.2300    1.6103 H   0  0  0  0  0  0  0  0  0  0  0  0
   -0.4417   -1.5811    0.4942 H   0  0  0  0  0  0  0  0  0  0  0  0
   -1.4294    2.0476    0.2197 H   0  0  0  0  0  0  0  0  0  0  0  0
   -2.9369   -0.6358   -2.0892 H   0  0  0  0  0  0  0  0  0  0  0  0
   -1.9095   -2.0198   -1.2594 H   0  0  0  0  0  0  0  0  0  0  0  0
  1  2  1  0
  2  3  1  0
  3  4  1  0
  4  5  1  0
  5  6  1  0
  6  7  2  0
  5  8  1  0
  8  9  1  0
  9  5  1  0
  1 10  1  0
  1 11  1  0
  1 12  1  0
  2 13  1  0
  2 14  1  0
  3 15  1  0
  3 16  1  0
  4 17  1  0
  4 18  1  0
  6 19  1  0
  8 20  1  0
  8 21  1  0
M  END
