
     RDKit          3D

 25 25  0  0  0  0  0  0  0  0999 V2000
   -3.1316   -0.9695    0.0174 C   0  0  0  0  0  0  0  0  0  0  0  0
   -2.7319    0.3965   -0.5086 C   0  0  0  0  0  0  0  0  0  0  0  0
   -1.4208    0.8352    0.1101 C   0  0  0  0  0  0  0  0  0  0  0  0
   -0.3354   -0.1466   -0.2263 C   0  0  0  0  0  0  0  0  0  0  0  0
    0.9950    0.1901    0.3330 C   0  0  0  0  0  0  0  0  0  0  0  0
    1.6107    1.4960   -0.0783 C   0  0  0  0  0  0  0  0  0  0  0  0
    1.3799   -0.2536    1.5897 O   0  0  0  0  0  0  0  0  0  0  0  0
    1.9242   -0.9930    0.5454 C   0  0  0  0  0  0  0  0  0  0  0  0
    3.3454   -0.8068    0.1454 C   0  0  0  0  0  0  0  0  0  0  0  0
   -2.5582   -1.1446    0.9421 H   0  0  0  0  0  0  0  0  0  0  0  0
   -2.8753   -1.7744   -0.6836 H   0  0  0  0  0  0  0  0  0  0  0  0
   -4.2277   -0.9640    0.2138 H   0  0  0  0  0  0  0  0  0  0  0  0
   -3.5182    1.1486   -0.3793 H   0  0  0  0  0  0  0  0  0  0  0  0
   -2.5890    0.2800   -1.6150 H   0  0  0  0  0  0  0  0  0  0  0  0
   -1.1725    1.8181   -0.3526 H   0  0  0  0  0  0  0  0  0  0  0  0
   -1.5715    0.9882    1.1768 H   0  0  0  0  0  0  0  0  0  0  0  0
   -0.6759   -1.1524    0.1325 H   0  0  0  0  0  0  0  0  0  0  0  0
   -0.2813   -0.2360   -1.3330 H   0  0  0  0  0  0  0  0  0  0  0  0
    1.5679    1.5995   -1.1855 H   0  0  0  0  0  0  0  0  0  0  0  0
    2.6033    1.6568    0.3484 H   0  0  0  0  0  0  0  0  0  0  0  0
    0.9553    2.3218    0.3227 H   0  0  0  0  0  0  0  0  0  0  0  0
    1.4899   -2.0149    0.4610 H   0  0  0  0  0  0  0  0  0  0  0  0
    3.6868   -1.7294   -0.3897 H   0  0  0  0  0  0  0  0  0  0  0  0
    4.0297   -0.5712    1.0006 H   0  0  0  0  0  0  0  0  0  0  0  0
    3.5014    0.0255   -0.5872 H   0  0  0  0  0  0  0  0  0  0  0  0
  1  2  1  0
  2  3  1  0
  3  4  1  0
  4  5  1  0
  5  6  1  0
  5  7  1  0
  7  8  1  0
  8  9  1  0
  8  5  1  0
  1 10  1  0
  1 11  1  0
  1 12  1  0
  2 13  1  0
  2 14  1  0
  3 15  1  0
  3 16  1  0
  4 17  1  0
  4 18  1  0
  6 19  1  0
  6 20  1  0
  6 21  1  0
  8 22  1  0
  9 23  1  0
  9 24  1  0
  9 25  1  0
M  END
