
     RDKit          3D

 23 22  0  0  0  0  0  0  0  0999 V2000
   -2.6645    0.7948   -0.3071 C   0  0  0  0  0  0  0  0  0  0  0  0
   -1.5440   -0.0153    0.3149 C   0  0  0  0  0  0  0  0  0  0  0  0
   -0.3397    0.1102   -0.5903 C   0  0  0  0  0  0  0  0  0  0  0  0
    0.8449   -0.6418   -0.0976 C   0  0  0  0  0  0  0  0  0  0  0  0
    0.5970   -2.1214    0.0337 C   0  0  0  0  0  0  0  0  0  0  0  0
    1.2671   -0.1118    1.2166 C   0  0  0  0  0  0  0  0  0  0  0  0
    1.1917   -0.8561    2.1921 O   0  0  0  0  0  0  0  0  0  0  0  0
    1.7594    1.2752    1.3289 C   0  0  0  0  0  0  0  0  0  0  0  0
    1.8207    1.8378    0.0649 O   0  0  0  0  0  0  0  0  0  0  0  0
   -2.5837    1.8740   -0.0336 H   0  0  0  0  0  0  0  0  0  0  0  0
   -3.6604    0.3775   -0.0471 H   0  0  0  0  0  0  0  0  0  0  0  0
   -2.5304    0.7405   -1.4045 H   0  0  0  0  0  0  0  0  0  0  0  0
   -1.8303   -1.0874    0.3123 H   0  0  0  0  0  0  0  0  0  0  0  0
   -1.3265    0.3140    1.3502 H   0  0  0  0  0  0  0  0  0  0  0  0
   -0.1693    1.1710   -0.8142 H   0  0  0  0  0  0  0  0  0  0  0  0
   -0.6881   -0.3239   -1.5792 H   0  0  0  0  0  0  0  0  0  0  0  0
    1.6676   -0.5169   -0.8680 H   0  0  0  0  0  0  0  0  0  0  0  0
   -0.0504   -2.5246   -0.7726 H   0  0  0  0  0  0  0  0  0  0  0  0
    1.5845   -2.6275   -0.0662 H   0  0  0  0  0  0  0  0  0  0  0  0
    0.2044   -2.3411    1.0512 H   0  0  0  0  0  0  0  0  0  0  0  0
    1.0434    1.8352    1.9637 H   0  0  0  0  0  0  0  0  0  0  0  0
    2.7580    1.2626    1.8130 H   0  0  0  0  0  0  0  0  0  0  0  0
    2.6486    1.5750   -0.4159 H   0  0  0  0  0  0  0  0  0  0  0  0
  1  2  1  0
  2  3  1  0
  3  4  1  0
  4  5  1  0
  4  6  1  0
  6  7  2  0
  6  8  1  0
  8  9  1  0
  1 10  1  0
  1 11  1  0
  1 12  1  0
  2 13  1  0
  2 14  1  0
  3 15  1  0
  3 16  1  0
  4 17  1  0
  5 18  1  0
  5 19  1  0
  5 20  1  0
  8 21  1  0
  8 22  1  0
  9 23  1  0
M  END
