
     RDKit          3D

 21 22  0  0  0  0  0  0  0  0999 V2000
    3.1517   -0.1040   -0.4152 C   0  0  0  0  0  0  0  0  0  0  0  0
    1.6709    0.2274   -0.5467 C   0  0  0  0  0  0  0  0  0  0  0  0
    0.9602   -0.4684    0.5762 C   0  0  0  0  0  0  0  0  0  0  0  0
   -0.5029   -0.2294    0.5690 C   0  0  0  0  0  0  0  0  0  0  0  0
   -1.3041    0.3263    1.4815 C   0  0  0  0  0  0  0  0  0  0  0  0
   -2.6359    0.1930    0.7999 C   0  0  0  0  0  0  0  0  0  0  0  0
   -2.3711    0.6565   -0.6037 C   0  0  0  0  0  0  0  0  0  0  0  0
   -1.4962   -0.5632   -0.5046 C   0  0  0  0  0  0  0  0  0  0  0  0
   -2.5252   -1.1178    0.2850 O   0  0  0  0  0  0  0  0  0  0  0  0
    3.3956   -1.0711   -0.9016 H   0  0  0  0  0  0  0  0  0  0  0  0
    3.4563   -0.1185    0.6423 H   0  0  0  0  0  0  0  0  0  0  0  0
    3.7098    0.6816   -0.9505 H   0  0  0  0  0  0  0  0  0  0  0  0
    1.5362    1.3022   -0.4387 H   0  0  0  0  0  0  0  0  0  0  0  0
    1.3154   -0.1838   -1.5066 H   0  0  0  0  0  0  0  0  0  0  0  0
    1.4347   -0.2155    1.5275 H   0  0  0  0  0  0  0  0  0  0  0  0
    1.0937   -1.5820    0.4545 H   0  0  0  0  0  0  0  0  0  0  0  0
   -1.1035    0.7623    2.4492 H   0  0  0  0  0  0  0  0  0  0  0  0
   -3.5108    0.4680    1.3134 H   0  0  0  0  0  0  0  0  0  0  0  0
   -3.2285    0.4905   -1.2618 H   0  0  0  0  0  0  0  0  0  0  0  0
   -1.8685    1.6233   -0.6473 H   0  0  0  0  0  0  0  0  0  0  0  0
   -1.1776   -1.0773   -1.3665 H   0  0  0  0  0  0  0  0  0  0  0  0
  1  2  1  0
  2  3  1  0
  3  4  1  0
  4  5  2  0
  5  6  1  0
  6  7  1  0
  7  8  1  0
  8  9  1  0
  8  4  1  0
  9  6  1  0
  1 10  1  0
  1 11  1  0
  1 12  1  0
  2 13  1  0
  2 14  1  0
  3 15  1  0
  3 16  1  0
  5 17  1  0
  6 18  1  0
  7 19  1  0
  7 20  1  0
  8 21  1  0
M  END
