
     RDKit          3D

 21 22  0  0  0  0  0  0  0  0999 V2000
   -2.9608   -0.1967   -0.5788 C   0  0  0  0  0  0  0  0  0  0  0  0
   -1.4882   -0.6000   -0.5373 C   0  0  0  0  0  0  0  0  0  0  0  0
   -0.7204    0.6059   -0.0731 C   0  0  0  0  0  0  0  0  0  0  0  0
    0.7417    0.4089    0.0317 C   0  0  0  0  0  0  0  0  0  0  0  0
    1.5201    0.0606   -1.0432 O   0  0  0  0  0  0  0  0  0  0  0  0
    2.1321   -0.9367   -0.2718 C   0  0  0  0  0  0  0  0  0  0  0  0
    1.4093   -0.4757    0.9746 C   0  0  0  0  0  0  0  0  0  0  0  0
    1.4402    0.9612    1.2846 C   0  0  0  0  0  0  0  0  0  0  0  0
    2.5564    1.7349    1.0540 O   0  0  0  0  0  0  0  0  0  0  0  0
   -3.2973   -0.0206   -1.6253 H   0  0  0  0  0  0  0  0  0  0  0  0
   -3.5930   -0.9670   -0.0796 H   0  0  0  0  0  0  0  0  0  0  0  0
   -3.1360    0.7438   -0.0053 H   0  0  0  0  0  0  0  0  0  0  0  0
   -1.3159   -1.4526    0.1473 H   0  0  0  0  0  0  0  0  0  0  0  0
   -1.1978   -0.9324   -1.5499 H   0  0  0  0  0  0  0  0  0  0  0  0
   -1.1131    0.8681    0.9379 H   0  0  0  0  0  0  0  0  0  0  0  0
   -0.9418    1.4608   -0.7526 H   0  0  0  0  0  0  0  0  0  0  0  0
    3.2270   -0.8999   -0.2397 H   0  0  0  0  0  0  0  0  0  0  0  0
    1.8088   -1.9366   -0.6466 H   0  0  0  0  0  0  0  0  0  0  0  0
    0.7915   -1.1856    1.5395 H   0  0  0  0  0  0  0  0  0  0  0  0
    0.7515    1.3764    2.0406 H   0  0  0  0  0  0  0  0  0  0  0  0
    3.3858    1.3832    1.4839 H   0  0  0  0  0  0  0  0  0  0  0  0
  1  2  1  0
  2  3  1  0
  3  4  1  0
  4  5  1  0
  5  6  1  0
  6  7  1  0
  7  8  1  0
  8  9  1  0
  7  4  1  0
  8  4  1  0
  1 10  1  0
  1 11  1  0
  1 12  1  0
  2 13  1  0
  2 14  1  0
  3 15  1  0
  3 16  1  0
  6 17  1  0
  6 18  1  0
  7 19  1  0
  8 20  1  0
  9 21  1  0
M  END
