
     RDKit          3D

 21 21  0  0  0  0  0  0  0  0999 V2000
   -2.8295    0.3248    0.4838 C   0  0  0  0  0  0  0  0  0  0  0  0
   -2.0845   -0.9464    0.1686 C   0  0  0  0  0  0  0  0  0  0  0  0
   -0.9135   -0.7208   -0.7408 C   0  0  0  0  0  0  0  0  0  0  0  0
    0.1009    0.2134   -0.1723 C   0  0  0  0  0  0  0  0  0  0  0  0
    1.2120    0.4591   -0.9782 O   0  0  0  0  0  0  0  0  0  0  0  0
    1.8789    0.7092    0.2462 C   0  0  0  0  0  0  0  0  0  0  0  0
    3.3515    0.4644    0.2152 C   0  0  0  0  0  0  0  0  0  0  0  0
    1.0335   -0.3508    0.8154 C   0  0  0  0  0  0  0  0  0  0  0  0
    1.1051   -1.1994    1.6418 O   0  0  0  0  0  0  0  0  0  0  0  0
   -2.5740    1.1468   -0.2432 H   0  0  0  0  0  0  0  0  0  0  0  0
   -3.9276    0.1877    0.3987 H   0  0  0  0  0  0  0  0  0  0  0  0
   -2.6014    0.6376    1.5263 H   0  0  0  0  0  0  0  0  0  0  0  0
   -1.8034   -1.4554    1.1129 H   0  0  0  0  0  0  0  0  0  0  0  0
   -2.7965   -1.6189   -0.3489 H   0  0  0  0  0  0  0  0  0  0  0  0
   -0.4101   -1.7157   -0.8656 H   0  0  0  0  0  0  0  0  0  0  0  0
   -1.3014   -0.4148   -1.7314 H   0  0  0  0  0  0  0  0  0  0  0  0
   -0.3056    1.1841    0.2242 H   0  0  0  0  0  0  0  0  0  0  0  0
    1.5900    1.7566    0.5520 H   0  0  0  0  0  0  0  0  0  0  0  0
    3.8182    1.1761    0.9574 H   0  0  0  0  0  0  0  0  0  0  0  0
    3.6339   -0.5576    0.5695 H   0  0  0  0  0  0  0  0  0  0  0  0
    3.8236    0.7200   -0.7573 H   0  0  0  0  0  0  0  0  0  0  0  0
  1  2  1  0
  2  3  1  0
  3  4  1  0
  4  5  1  0
  5  6  1  0
  6  7  1  0
  6  8  1  0
  8  9  2  0
  8  4  1  0
  1 10  1  0
  1 11  1  0
  1 12  1  0
  2 13  1  0
  2 14  1  0
  3 15  1  0
  3 16  1  0
  4 17  1  0
  6 18  1  0
  7 19  1  0
  7 20  1  0
  7 21  1  0
M  END
