
     RDKit          3D

 23 23  0  0  0  0  0  0  0  0999 V2000
   -3.5118    0.3139    0.2317 C   0  0  0  0  0  0  0  0  0  0  0  0
   -2.1606   -0.3468    0.4680 C   0  0  0  0  0  0  0  0  0  0  0  0
   -1.1457    0.1882   -0.5395 C   0  0  0  0  0  0  0  0  0  0  0  0
    0.1537   -0.4970   -0.2552 C   0  0  0  0  0  0  0  0  0  0  0  0
    1.3092   -0.1068   -1.1507 C   0  0  0  0  0  0  0  0  0  0  0  0
    2.1341   -0.4007    0.1111 C   0  0  0  0  0  0  0  0  0  0  0  0
    3.3709    0.4070    0.2598 C   0  0  0  0  0  0  0  0  0  0  0  0
    0.9463    0.0332    0.8704 C   0  0  0  0  0  0  0  0  0  0  0  0
    0.7348    0.5688    1.9183 O   0  0  0  0  0  0  0  0  0  0  0  0
   -3.4731    0.8198   -0.7483 H   0  0  0  0  0  0  0  0  0  0  0  0
   -3.7821    1.0082    1.0396 H   0  0  0  0  0  0  0  0  0  0  0  0
   -4.2622   -0.5069    0.2128 H   0  0  0  0  0  0  0  0  0  0  0  0
   -1.8626   -0.0848    1.5039 H   0  0  0  0  0  0  0  0  0  0  0  0
   -2.2194   -1.4492    0.4316 H   0  0  0  0  0  0  0  0  0  0  0  0
   -1.4747   -0.1034   -1.5548 H   0  0  0  0  0  0  0  0  0  0  0  0
   -1.0318    1.2632   -0.4327 H   0  0  0  0  0  0  0  0  0  0  0  0
    0.0910   -1.6004   -0.1851 H   0  0  0  0  0  0  0  0  0  0  0  0
    1.5178   -0.7800   -1.9896 H   0  0  0  0  0  0  0  0  0  0  0  0
    1.2744    0.9773   -1.3897 H   0  0  0  0  0  0  0  0  0  0  0  0
    2.2443   -1.5032    0.1841 H   0  0  0  0  0  0  0  0  0  0  0  0
    3.2151    1.2688    0.9413 H   0  0  0  0  0  0  0  0  0  0  0  0
    4.1378   -0.2376    0.7704 H   0  0  0  0  0  0  0  0  0  0  0  0
    3.7945    0.7683   -0.6973 H   0  0  0  0  0  0  0  0  0  0  0  0
  1  2  1  0
  2  3  1  0
  3  4  1  0
  4  5  1  0
  5  6  1  0
  6  7  1  0
  6  8  1  0
  8  9  2  0
  8  4  1  0
  1 10  1  0
  1 11  1  0
  1 12  1  0
  2 13  1  0
  2 14  1  0
  3 15  1  0
  3 16  1  0
  4 17  1  0
  5 18  1  0
  5 19  1  0
  6 20  1  0
  7 21  1  0
  7 22  1  0
  7 23  1  0
M  END
