
     RDKit          3D

 23 23  0  0  0  0  0  0  0  0999 V2000
    3.3392    0.0489   -0.4580 C   0  0  0  0  0  0  0  0  0  0  0  0
    1.9287    0.4716   -0.1175 C   0  0  0  0  0  0  0  0  0  0  0  0
    0.8930   -0.2243   -0.9332 C   0  0  0  0  0  0  0  0  0  0  0  0
   -0.4659    0.2655   -0.5183 C   0  0  0  0  0  0  0  0  0  0  0  0
   -0.8058    0.0184    0.9353 C   0  0  0  0  0  0  0  0  0  0  0  0
   -0.1098   -0.8907    1.6890 O   0  0  0  0  0  0  0  0  0  0  0  0
   -1.5897   -0.6264   -0.2112 C   0  0  0  0  0  0  0  0  0  0  0  0
   -2.9851   -0.1115   -0.3528 C   0  0  0  0  0  0  0  0  0  0  0  0
   -3.2200    0.9876    0.4772 O   0  0  0  0  0  0  0  0  0  0  0  0
    3.3622   -1.0287   -0.6431 H   0  0  0  0  0  0  0  0  0  0  0  0
    3.6613    0.6541   -1.3327 H   0  0  0  0  0  0  0  0  0  0  0  0
    3.9681    0.2525    0.4336 H   0  0  0  0  0  0  0  0  0  0  0  0
    1.7729    0.2581    0.9480 H   0  0  0  0  0  0  0  0  0  0  0  0
    1.7873    1.5631   -0.2498 H   0  0  0  0  0  0  0  0  0  0  0  0
    1.0938   -0.0286   -2.0093 H   0  0  0  0  0  0  0  0  0  0  0  0
    0.9262   -1.3361   -0.8260 H   0  0  0  0  0  0  0  0  0  0  0  0
   -0.7240    1.2506   -0.9572 H   0  0  0  0  0  0  0  0  0  0  0  0
   -1.2569    0.8826    1.4498 H   0  0  0  0  0  0  0  0  0  0  0  0
    0.1700   -1.6650    1.1703 H   0  0  0  0  0  0  0  0  0  0  0  0
   -1.4899   -1.7232   -0.3733 H   0  0  0  0  0  0  0  0  0  0  0  0
   -3.6802   -0.9141    0.0205 H   0  0  0  0  0  0  0  0  0  0  0  0
   -3.2714    0.0927   -1.4037 H   0  0  0  0  0  0  0  0  0  0  0  0
   -3.3039    1.8031   -0.0766 H   0  0  0  0  0  0  0  0  0  0  0  0
  1  2  1  0
  2  3  1  0
  3  4  1  0
  4  5  1  0
  5  6  1  0
  5  7  1  0
  7  8  1  0
  8  9  1  0
  7  4  1  0
  1 10  1  0
  1 11  1  0
  1 12  1  0
  2 13  1  0
  2 14  1  0
  3 15  1  0
  3 16  1  0
  4 17  1  0
  5 18  1  0
  6 19  1  0
  7 20  1  0
  8 21  1  0
  8 22  1  0
  9 23  1  0
M  END
