
     RDKit          3D

 27 27  0  0  0  0  0  0  0  0999 V2000
    3.0412    0.9720    0.8217 C   0  0  0  0  0  0  0  0  0  0  0  0
    2.6939    0.1892   -0.4129 C   0  0  0  0  0  0  0  0  0  0  0  0
    1.4783   -0.6946   -0.1745 C   0  0  0  0  0  0  0  0  0  0  0  0
    0.2765    0.1064    0.2014 C   0  0  0  0  0  0  0  0  0  0  0  0
   -0.9045   -0.7909    0.4436 C   0  0  0  0  0  0  0  0  0  0  0  0
   -1.2686   -1.5783   -0.7822 C   0  0  0  0  0  0  0  0  0  0  0  0
   -2.2289   -0.4314   -1.1463 C   0  0  0  0  0  0  0  0  0  0  0  0
   -2.2556   -0.0841    0.3041 C   0  0  0  0  0  0  0  0  0  0  0  0
   -2.2411    1.3686    0.6585 C   0  0  0  0  0  0  0  0  0  0  0  0
    3.2282    0.2636    1.6439 H   0  0  0  0  0  0  0  0  0  0  0  0
    4.0036    1.4877    0.6234 H   0  0  0  0  0  0  0  0  0  0  0  0
    2.2855    1.7323    1.0670 H   0  0  0  0  0  0  0  0  0  0  0  0
    2.5427    0.8280   -1.2999 H   0  0  0  0  0  0  0  0  0  0  0  0
    3.5373   -0.4886   -0.6540 H   0  0  0  0  0  0  0  0  0  0  0  0
    1.7145   -1.4315    0.6155 H   0  0  0  0  0  0  0  0  0  0  0  0
    1.3335   -1.2653   -1.1085 H   0  0  0  0  0  0  0  0  0  0  0  0
    0.5147    0.6756    1.1264 H   0  0  0  0  0  0  0  0  0  0  0  0
    0.0395    0.8506   -0.5879 H   0  0  0  0  0  0  0  0  0  0  0  0
   -0.8348   -1.4045    1.3739 H   0  0  0  0  0  0  0  0  0  0  0  0
   -0.5119   -1.7394   -1.5520 H   0  0  0  0  0  0  0  0  0  0  0  0
   -1.8130   -2.5189   -0.5326 H   0  0  0  0  0  0  0  0  0  0  0  0
   -3.1566   -0.8288   -1.5698 H   0  0  0  0  0  0  0  0  0  0  0  0
   -1.6865    0.2783   -1.8072 H   0  0  0  0  0  0  0  0  0  0  0  0
   -3.0138   -0.6673    0.8446 H   0  0  0  0  0  0  0  0  0  0  0  0
   -1.6653    1.4663    1.6197 H   0  0  0  0  0  0  0  0  0  0  0  0
   -1.8273    2.0309   -0.0983 H   0  0  0  0  0  0  0  0  0  0  0  0
   -3.2815    1.6741    0.9228 H   0  0  0  0  0  0  0  0  0  0  0  0
  1  2  1  0
  2  3  1  0
  3  4  1  0
  4  5  1  0
  5  6  1  0
  6  7  1  0
  7  8  1  0
  8  9  1  0
  8  5  1  0
  1 10  1  0
  1 11  1  0
  1 12  1  0
  2 13  1  0
  2 14  1  0
  3 15  1  0
  3 16  1  0
  4 17  1  0
  4 18  1  0
  5 19  1  0
  6 20  1  0
  6 21  1  0
  7 22  1  0
  7 23  1  0
  8 24  1  0
  9 25  1  0
  9 26  1  0
  9 27  1  0
M  END
