
     RDKit          3D

 23 23  0  0  0  0  0  0  0  0999 V2000
    3.2198    0.3384   -0.2470 C   0  0  0  0  0  0  0  0  0  0  0  0
    1.8938    0.0634    0.3797 C   0  0  0  0  0  0  0  0  0  0  0  0
    0.9879   -0.7569   -0.5259 C   0  0  0  0  0  0  0  0  0  0  0  0
   -0.3451   -1.0201    0.1321 C   0  0  0  0  0  0  0  0  0  0  0  0
   -1.0994    0.2226    0.4705 C   0  0  0  0  0  0  0  0  0  0  0  0
   -1.4165    1.0795   -0.7204 C   0  0  0  0  0  0  0  0  0  0  0  0
   -2.5187    0.4286   -1.2659 O   0  0  0  0  0  0  0  0  0  0  0  0
   -3.1889   -0.1682   -0.2262 C   0  0  0  0  0  0  0  0  0  0  0  0
   -2.3826   -0.1677    0.8862 O   0  0  0  0  0  0  0  0  0  0  0  0
    3.9460    0.6083    0.5561 H   0  0  0  0  0  0  0  0  0  0  0  0
    3.6302   -0.5032   -0.8325 H   0  0  0  0  0  0  0  0  0  0  0  0
    3.1255    1.2620   -0.8779 H   0  0  0  0  0  0  0  0  0  0  0  0
    2.0624   -0.4363    1.3512 H   0  0  0  0  0  0  0  0  0  0  0  0
    1.3786    1.0423    0.5304 H   0  0  0  0  0  0  0  0  0  0  0  0
    1.4832   -1.7418   -0.6545 H   0  0  0  0  0  0  0  0  0  0  0  0
    0.9137   -0.2604   -1.4942 H   0  0  0  0  0  0  0  0  0  0  0  0
   -0.1198   -1.5413    1.0955 H   0  0  0  0  0  0  0  0  0  0  0  0
   -0.9707   -1.7092   -0.4492 H   0  0  0  0  0  0  0  0  0  0  0  0
   -0.5949    0.8434    1.2232 H   0  0  0  0  0  0  0  0  0  0  0  0
   -0.5939    1.2304   -1.4118 H   0  0  0  0  0  0  0  0  0  0  0  0
   -1.7772    2.0614   -0.3371 H   0  0  0  0  0  0  0  0  0  0  0  0
   -3.4650   -1.2064   -0.5582 H   0  0  0  0  0  0  0  0  0  0  0  0
   -4.1686    0.3313   -0.0085 H   0  0  0  0  0  0  0  0  0  0  0  0
  1  2  1  0
  2  3  1  0
  3  4  1  0
  4  5  1  0
  5  6  1  0
  6  7  1  0
  7  8  1  0
  8  9  1  0
  9  5  1  0
  1 10  1  0
  1 11  1  0
  1 12  1  0
  2 13  1  0
  2 14  1  0
  3 15  1  0
  3 16  1  0
  4 17  1  0
  4 18  1  0
  5 19  1  0
  6 20  1  0
  6 21  1  0
  8 22  1  0
  8 23  1  0
M  END
