
     RDKit          3D

 21 21  0  0  0  0  0  0  0  0999 V2000
    2.8318    0.1602    0.0172 C   0  0  0  0  0  0  0  0  0  0  0  0
    1.3946    0.5167   -0.3356 C   0  0  0  0  0  0  0  0  0  0  0  0
    0.4973   -0.3474    0.4710 C   0  0  0  0  0  0  0  0  0  0  0  0
   -0.9609   -0.1361    0.2551 C   0  0  0  0  0  0  0  0  0  0  0  0
   -1.7804   -1.0655    1.1243 C   0  0  0  0  0  0  0  0  0  0  0  0
   -1.4654   -0.0250   -1.1269 C   0  0  0  0  0  0  0  0  0  0  0  0
   -1.5925    1.4281   -0.9069 C   0  0  0  0  0  0  0  0  0  0  0  0
   -1.8571    2.4195   -1.6102 O   0  0  0  0  0  0  0  0  0  0  0  0
   -1.2923    1.2353    0.4234 O   0  0  0  0  0  0  0  0  0  0  0  0
    3.3920    1.0894    0.2888 H   0  0  0  0  0  0  0  0  0  0  0  0
    3.3359   -0.3920   -0.8012 H   0  0  0  0  0  0  0  0  0  0  0  0
    2.8706   -0.5191    0.9140 H   0  0  0  0  0  0  0  0  0  0  0  0
    1.1933    1.5775   -0.0791 H   0  0  0  0  0  0  0  0  0  0  0  0
    1.2814    0.3072   -1.4168 H   0  0  0  0  0  0  0  0  0  0  0  0
    0.7865   -1.4211    0.3362 H   0  0  0  0  0  0  0  0  0  0  0  0
    0.7085   -0.1391    1.5580 H   0  0  0  0  0  0  0  0  0  0  0  0
   -1.2168   -1.3732    2.0387 H   0  0  0  0  0  0  0  0  0  0  0  0
   -2.1056   -1.9682    0.5686 H   0  0  0  0  0  0  0  0  0  0  0  0
   -2.6967   -0.5365    1.4613 H   0  0  0  0  0  0  0  0  0  0  0  0
   -2.4987   -0.4709   -1.2222 H   0  0  0  0  0  0  0  0  0  0  0  0
   -0.8254   -0.3398   -1.9577 H   0  0  0  0  0  0  0  0  0  0  0  0
  1  2  1  0
  2  3  1  0
  3  4  1  0
  4  5  1  0
  4  6  1  0
  6  7  1  0
  7  8  2  0
  7  9  1  0
  9  4  1  0
  1 10  1  0
  1 11  1  0
  1 12  1  0
  2 13  1  0
  2 14  1  0
  3 15  1  0
  3 16  1  0
  5 17  1  0
  5 18  1  0
  5 19  1  0
  6 20  1  0
  6 21  1  0
M  END
