
     RDKit          3D

 21 22  0  0  0  0  0  0  0  0999 V2000
    2.5831    0.6817    0.5555 C   0  0  0  0  0  0  0  0  0  0  0  0
    1.9201    0.4752   -0.7732 C   0  0  0  0  0  0  0  0  0  0  0  0
    0.7553   -0.4881   -0.6942 C   0  0  0  0  0  0  0  0  0  0  0  0
   -0.2576    0.0731    0.2648 C   0  0  0  0  0  0  0  0  0  0  0  0
   -0.7496    1.3344   -0.1328 O   0  0  0  0  0  0  0  0  0  0  0  0
   -2.1049    0.9464   -0.0385 C   0  0  0  0  0  0  0  0  0  0  0  0
   -1.6397   -0.4524    0.1549 C   0  0  0  0  0  0  0  0  0  0  0  0
   -2.2823   -1.4943    0.7480 C   0  0  0  0  0  0  0  0  0  0  0  0
   -1.9865   -1.4722   -0.6874 O   0  0  0  0  0  0  0  0  0  0  0  0
    2.1274    0.0835    1.3601 H   0  0  0  0  0  0  0  0  0  0  0  0
    2.6233    1.7794    0.8215 H   0  0  0  0  0  0  0  0  0  0  0  0
    3.6699    0.3828    0.5083 H   0  0  0  0  0  0  0  0  0  0  0  0
    1.6145    1.4602   -1.1699 H   0  0  0  0  0  0  0  0  0  0  0  0
    2.6546    0.0395   -1.4755 H   0  0  0  0  0  0  0  0  0  0  0  0
    1.1102   -1.4533   -0.3324 H   0  0  0  0  0  0  0  0  0  0  0  0
    0.2987   -0.6437   -1.6885 H   0  0  0  0  0  0  0  0  0  0  0  0
    0.0875    0.1093    1.3083 H   0  0  0  0  0  0  0  0  0  0  0  0
   -2.7048    1.1470   -0.9316 H   0  0  0  0  0  0  0  0  0  0  0  0
   -2.5943    1.3231    0.9017 H   0  0  0  0  0  0  0  0  0  0  0  0
   -1.7551   -2.3364    1.2749 H   0  0  0  0  0  0  0  0  0  0  0  0
   -3.3697   -1.4952    0.9818 H   0  0  0  0  0  0  0  0  0  0  0  0
  1  2  1  0
  2  3  1  0
  3  4  1  0
  4  5  1  0
  5  6  1  0
  6  7  1  0
  7  8  1  0
  8  9  1  0
  7  4  1  0
  9  7  1  0
  1 10  1  0
  1 11  1  0
  1 12  1  0
  2 13  1  0
  2 14  1  0
  3 15  1  0
  3 16  1  0
  4 17  1  0
  6 18  1  0
  6 19  1  0
  8 20  1  0
  8 21  1  0
M  END
