
     RDKit          3D

 25 24  0  0  0  0  0  0  0  0999 V2000
    2.8980   -0.2701    0.6390 C   0  0  0  0  0  0  0  0  0  0  0  0
    2.2163    1.0688    0.3868 C   0  0  0  0  0  0  0  0  0  0  0  0
    0.7016    0.9219    0.5791 C   0  0  0  0  0  0  0  0  0  0  0  0
    0.2495   -0.1097   -0.4196 C   0  0  0  0  0  0  0  0  0  0  0  0
    0.5364    0.2999   -1.6928 O   0  0  0  0  0  0  0  0  0  0  0  0
   -1.1750   -0.5485   -0.2152 C   0  0  0  0  0  0  0  0  0  0  0  0
   -1.4258   -1.6843   -1.2097 C   0  0  0  0  0  0  0  0  0  0  0  0
   -2.0992    0.4261   -0.4756 O   0  0  0  0  0  0  0  0  0  0  0  0
   -2.8632    0.6651    0.6633 C   0  0  0  0  0  0  0  0  0  0  0  0
    2.3181   -0.8814    1.3587 H   0  0  0  0  0  0  0  0  0  0  0  0
    3.0437   -0.8343   -0.2830 H   0  0  0  0  0  0  0  0  0  0  0  0
    3.8866   -0.0817    1.1039 H   0  0  0  0  0  0  0  0  0  0  0  0
    2.5874    1.8227    1.0808 H   0  0  0  0  0  0  0  0  0  0  0  0
    2.4337    1.3514   -0.6548 H   0  0  0  0  0  0  0  0  0  0  0  0
    0.5058    0.5375    1.5985 H   0  0  0  0  0  0  0  0  0  0  0  0
    0.2764    1.9236    0.3996 H   0  0  0  0  0  0  0  0  0  0  0  0
    0.8830   -1.0257   -0.2257 H   0  0  0  0  0  0  0  0  0  0  0  0
   -0.0411    0.9897   -2.0660 H   0  0  0  0  0  0  0  0  0  0  0  0
   -1.2729   -0.8902    0.8207 H   0  0  0  0  0  0  0  0  0  0  0  0
   -2.3938   -1.5691   -1.7245 H   0  0  0  0  0  0  0  0  0  0  0  0
   -0.6467   -1.7121   -1.9989 H   0  0  0  0  0  0  0  0  0  0  0  0
   -1.3640   -2.6230   -0.6274 H   0  0  0  0  0  0  0  0  0  0  0  0
   -3.6265    1.4588    0.4752 H   0  0  0  0  0  0  0  0  0  0  0  0
   -2.2063    1.0016    1.5099 H   0  0  0  0  0  0  0  0  0  0  0  0
   -3.4219   -0.2371    0.9778 H   0  0  0  0  0  0  0  0  0  0  0  0
  1  2  1  0
  2  3  1  0
  3  4  1  0
  4  5  1  0
  4  6  1  0
  6  7  1  0
  6  8  1  0
  8  9  1  0
  1 10  1  0
  1 11  1  0
  1 12  1  0
  2 13  1  0
  2 14  1  0
  3 15  1  0
  3 16  1  0
  4 17  1  0
  5 18  1  0
  6 19  1  0
  7 20  1  0
  7 21  1  0
  7 22  1  0
  9 23  1  0
  9 24  1  0
  9 25  1  0
M  END
