
     RDKit          3D

 23 23  0  0  0  0  0  0  0  0999 V2000
   -2.3445    0.8475   -0.4396 C   0  0  0  0  0  0  0  0  0  0  0  0
   -2.2904   -0.5648    0.0645 C   0  0  0  0  0  0  0  0  0  0  0  0
   -0.9596   -0.9778    0.6244 C   0  0  0  0  0  0  0  0  0  0  0  0
    0.1874   -0.9264   -0.3102 C   0  0  0  0  0  0  0  0  0  0  0  0
    0.6318    0.3155   -0.9620 C   0  0  0  0  0  0  0  0  0  0  0  0
    1.5129   -0.3368    0.0419 C   0  0  0  0  0  0  0  0  0  0  0  0
    1.6425    0.2080    1.4326 C   0  0  0  0  0  0  0  0  0  0  0  0
    2.9842    0.7750    1.7059 C   0  0  0  0  0  0  0  0  0  0  0  0
    3.8204    0.7534    0.8327 O   0  0  0  0  0  0  0  0  0  0  0  0
   -3.4152    1.2234   -0.4476 H   0  0  0  0  0  0  0  0  0  0  0  0
   -1.8511    1.4869    0.3262 H   0  0  0  0  0  0  0  0  0  0  0  0
   -1.9669    0.9975   -1.4442 H   0  0  0  0  0  0  0  0  0  0  0  0
   -3.0394   -0.6103    0.9113 H   0  0  0  0  0  0  0  0  0  0  0  0
   -2.6871   -1.2979   -0.6730 H   0  0  0  0  0  0  0  0  0  0  0  0
   -0.8125   -0.3309    1.5426 H   0  0  0  0  0  0  0  0  0  0  0  0
   -1.0424   -2.0104    1.0807 H   0  0  0  0  0  0  0  0  0  0  0  0
    0.3172   -1.8884   -0.9086 H   0  0  0  0  0  0  0  0  0  0  0  0
    0.9207    0.2237   -2.0383 H   0  0  0  0  0  0  0  0  0  0  0  0
    0.2681    1.3145   -0.7185 H   0  0  0  0  0  0  0  0  0  0  0  0
    2.4568   -0.7618   -0.3565 H   0  0  0  0  0  0  0  0  0  0  0  0
    1.5123   -0.6599    2.1323 H   0  0  0  0  0  0  0  0  0  0  0  0
    0.9090    1.0128    1.6445 H   0  0  0  0  0  0  0  0  0  0  0  0
    3.2458    1.2074    2.6548 H   0  0  0  0  0  0  0  0  0  0  0  0
  1  2  1  0
  2  3  1  0
  3  4  1  0
  4  5  1  0
  5  6  1  0
  6  7  1  0
  7  8  1  0
  8  9  2  0
  6  4  1  0
  1 10  1  0
  1 11  1  0
  1 12  1  0
  2 13  1  0
  2 14  1  0
  3 15  1  0
  3 16  1  0
  4 17  1  0
  5 18  1  0
  5 19  1  0
  6 20  1  0
  7 21  1  0
  7 22  1  0
  8 23  1  0
M  END
