
     RDKit          3D

 23 24  0  0  0  0  0  0  0  0999 V2000
    2.3810    0.6679   -0.3739 C   0  0  0  0  0  0  0  0  0  0  0  0
    1.9977   -0.5068    0.4562 C   0  0  0  0  0  0  0  0  0  0  0  0
    0.7580   -1.2343   -0.0251 C   0  0  0  0  0  0  0  0  0  0  0  0
   -0.3645   -0.4564   -0.0491 C   0  0  0  0  0  0  0  0  0  0  0  0
   -1.0169    0.2524    1.1067 C   0  0  0  0  0  0  0  0  0  0  0  0
   -1.9333    0.5514   -0.0539 C   0  0  0  0  0  0  0  0  0  0  0  0
   -2.9618    1.2582   -0.0749 O   0  0  0  0  0  0  0  0  0  0  0  0
   -1.7692   -0.8998   -0.4106 C   0  0  0  0  0  0  0  0  0  0  0  0
   -0.6551    0.7582   -0.8555 C   0  0  0  0  0  0  0  0  0  0  0  0
    3.4870    0.6714   -0.5118 H   0  0  0  0  0  0  0  0  0  0  0  0
    1.8944    0.6423   -1.3519 H   0  0  0  0  0  0  0  0  0  0  0  0
    2.1471    1.6420    0.1003 H   0  0  0  0  0  0  0  0  0  0  0  0
    2.8573   -1.2061    0.5369 H   0  0  0  0  0  0  0  0  0  0  0  0
    1.7411   -0.1565    1.4996 H   0  0  0  0  0  0  0  0  0  0  0  0
    0.6715   -2.1338    0.6550 H   0  0  0  0  0  0  0  0  0  0  0  0
    1.0498   -1.6894   -1.0086 H   0  0  0  0  0  0  0  0  0  0  0  0
   -0.4768    1.0976    1.5381 H   0  0  0  0  0  0  0  0  0  0  0  0
   -1.5501   -0.4032    1.8325 H   0  0  0  0  0  0  0  0  0  0  0  0
   -3.2722    1.6315    0.7806 H   0  0  0  0  0  0  0  0  0  0  0  0
   -2.2182   -1.6346    0.2569 H   0  0  0  0  0  0  0  0  0  0  0  0
   -1.8854   -1.0490   -1.4886 H   0  0  0  0  0  0  0  0  0  0  0  0
   -0.7487    0.5041   -1.9312 H   0  0  0  0  0  0  0  0  0  0  0  0
   -0.1326    1.6929   -0.6278 H   0  0  0  0  0  0  0  0  0  0  0  0
  1  2  1  0
  2  3  1  0
  3  4  1  0
  4  5  1  0
  5  6  1  0
  6  7  1  0
  6  8  1  0
  6  9  1  0
  8  4  1  0
  9  4  1  0
  1 10  1  0
  1 11  1  0
  1 12  1  0
  2 13  1  0
  2 14  1  0
  3 15  1  0
  3 16  1  0
  5 17  1  0
  5 18  1  0
  7 19  1  0
  8 20  1  0
  8 21  1  0
  9 22  1  0
  9 23  1  0
M  END
