
     RDKit          3D

 21 20  0  0  0  0  0  0  0  0999 V2000
    2.7966    0.4389   -0.2392 C   0  0  0  0  0  0  0  0  0  0  0  0
    1.5006   -0.3192   -0.2980 C   0  0  0  0  0  0  0  0  0  0  0  0
    0.4381    0.3119    0.5852 C   0  0  0  0  0  0  0  0  0  0  0  0
   -0.8531   -0.4603    0.5142 C   0  0  0  0  0  0  0  0  0  0  0  0
   -1.8422    0.2439    1.4231 C   0  0  0  0  0  0  0  0  0  0  0  0
   -1.3636   -0.6410   -0.8397 C   0  0  0  0  0  0  0  0  0  0  0  0
   -1.5166   -1.8084   -1.2815 O   0  0  0  0  0  0  0  0  0  0  0  0
   -1.7161    0.4576   -1.7348 C   0  0  0  0  0  0  0  0  0  0  0  0
   -1.5975    1.6693   -1.3825 O   0  0  0  0  0  0  0  0  0  0  0  0
    3.6573   -0.2261    0.0276 H   0  0  0  0  0  0  0  0  0  0  0  0
    3.0227    0.9869   -1.1864 H   0  0  0  0  0  0  0  0  0  0  0  0
    2.6698    1.2505    0.5309 H   0  0  0  0  0  0  0  0  0  0  0  0
    1.6208   -1.3735   -0.0581 H   0  0  0  0  0  0  0  0  0  0  0  0
    1.1180   -0.2084   -1.3509 H   0  0  0  0  0  0  0  0  0  0  0  0
    0.3244    1.3885    0.3966 H   0  0  0  0  0  0  0  0  0  0  0  0
    0.8085    0.2065    1.6335 H   0  0  0  0  0  0  0  0  0  0  0  0
   -0.6596   -1.4507    0.9676 H   0  0  0  0  0  0  0  0  0  0  0  0
   -1.9554   -0.2813    2.3980 H   0  0  0  0  0  0  0  0  0  0  0  0
   -1.5179    1.2914    1.6492 H   0  0  0  0  0  0  0  0  0  0  0  0
   -2.8447    0.3133    0.9741 H   0  0  0  0  0  0  0  0  0  0  0  0
   -2.0902    0.2737   -2.7287 H   0  0  0  0  0  0  0  0  0  0  0  0
  1  2  1  0
  2  3  1  0
  3  4  1  0
  4  5  1  0
  4  6  1  0
  6  7  2  0
  6  8  1  0
  8  9  2  0
  1 10  1  0
  1 11  1  0
  1 12  1  0
  2 13  1  0
  2 14  1  0
  3 15  1  0
  3 16  1  0
  4 17  1  0
  5 18  1  0
  5 19  1  0
  5 20  1  0
  8 21  1  0
M  END
