
     RDKit          3D

 27 26  0  0  0  0  0  0  0  0999 V2000
    3.1318    1.0352   -0.4356 C   0  0  0  0  0  0  0  0  0  0  0  0
    1.7392    0.8101    0.1450 C   0  0  0  0  0  0  0  0  0  0  0  0
    1.5492   -0.5863    0.6212 C   0  0  0  0  0  0  0  0  0  0  0  0
    0.1845   -0.7776    1.1878 C   0  0  0  0  0  0  0  0  0  0  0  0
   -0.0209    0.1310    2.2234 O   0  0  0  0  0  0  0  0  0  0  0  0
   -0.9408   -1.0844    0.3123 C   0  0  0  0  0  0  0  0  0  0  0  0
   -1.3487   -0.1695   -0.7717 C   0  0  0  0  0  0  0  0  0  0  0  0
   -2.5902   -0.8029   -1.4742 C   0  0  0  0  0  0  0  0  0  0  0  0
   -1.8395    1.1744   -0.2975 C   0  0  0  0  0  0  0  0  0  0  0  0
    3.8554    1.2619    0.3743 H   0  0  0  0  0  0  0  0  0  0  0  0
    3.0512    1.9273   -1.0894 H   0  0  0  0  0  0  0  0  0  0  0  0
    3.4037    0.1822   -1.0611 H   0  0  0  0  0  0  0  0  0  0  0  0
    1.0143    1.0871   -0.6132 H   0  0  0  0  0  0  0  0  0  0  0  0
    1.7077    1.5015    1.0384 H   0  0  0  0  0  0  0  0  0  0  0  0
    1.6972   -1.3300   -0.2070 H   0  0  0  0  0  0  0  0  0  0  0  0
    2.3550   -0.8819    1.3667 H   0  0  0  0  0  0  0  0  0  0  0  0
    0.3435   -1.7911    1.8052 H   0  0  0  0  0  0  0  0  0  0  0  0
    0.6609   -0.0291    2.9219 H   0  0  0  0  0  0  0  0  0  0  0  0
   -1.8705   -1.2233    0.9685 H   0  0  0  0  0  0  0  0  0  0  0  0
   -0.8259   -2.1427   -0.1051 H   0  0  0  0  0  0  0  0  0  0  0  0
   -0.6321   -0.0480   -1.6117 H   0  0  0  0  0  0  0  0  0  0  0  0
   -3.1481    0.0024   -1.9798 H   0  0  0  0  0  0  0  0  0  0  0  0
   -2.2860   -1.6233   -2.1208 H   0  0  0  0  0  0  0  0  0  0  0  0
   -3.2223   -1.1504   -0.6304 H   0  0  0  0  0  0  0  0  0  0  0  0
   -2.0333    1.8153   -1.1829 H   0  0  0  0  0  0  0  0  0  0  0  0
   -1.1113    1.6527    0.3859 H   0  0  0  0  0  0  0  0  0  0  0  0
   -2.8239    1.0595    0.2298 H   0  0  0  0  0  0  0  0  0  0  0  0
  1  2  1  0
  2  3  1  0
  3  4  1  0
  4  5  1  0
  4  6  1  0
  6  7  1  0
  7  8  1  0
  7  9  1  0
  1 10  1  0
  1 11  1  0
  1 12  1  0
  2 13  1  0
  2 14  1  0
  3 15  1  0
  3 16  1  0
  4 17  1  0
  5 18  1  0
  6 19  1  0
  6 20  1  0
  7 21  1  0
  8 22  1  0
  8 23  1  0
  8 24  1  0
  9 25  1  0
  9 26  1  0
  9 27  1  0
M  END
