
     RDKit          3D

 24 23  0  0  0  0  0  0  0  0999 V2000
   -2.8213    0.6400    1.0879 C   0  0  0  0  0  0  0  0  0  0  0  0
   -1.7328    0.5473    0.0489 C   0  0  0  0  0  0  0  0  0  0  0  0
   -0.7802   -0.5974    0.3460 C   0  0  0  0  0  0  0  0  0  0  0  0
    0.3072   -0.7117   -0.6726 C   0  0  0  0  0  0  0  0  0  0  0  0
    1.1930   -1.8627   -0.2987 C   0  0  0  0  0  0  0  0  0  0  0  0
    1.0567    0.5725   -0.8770 C   0  0  0  0  0  0  0  0  0  0  0  0
    1.7227    1.0735    0.3714 C   0  0  0  0  0  0  0  0  0  0  0  0
    2.6516    0.1310    0.8550 O   0  0  0  0  0  0  0  0  0  0  0  0
   -3.2715    1.6449    1.1108 H   0  0  0  0  0  0  0  0  0  0  0  0
   -3.6654   -0.0656    0.8690 H   0  0  0  0  0  0  0  0  0  0  0  0
   -2.3780    0.3507    2.0757 H   0  0  0  0  0  0  0  0  0  0  0  0
   -1.1315    1.4910    0.1380 H   0  0  0  0  0  0  0  0  0  0  0  0
   -2.1487    0.4912   -0.9574 H   0  0  0  0  0  0  0  0  0  0  0  0
   -1.4074   -1.5118    0.3769 H   0  0  0  0  0  0  0  0  0  0  0  0
   -0.3483   -0.4937    1.3625 H   0  0  0  0  0  0  0  0  0  0  0  0
   -0.1634   -0.9694   -1.6541 H   0  0  0  0  0  0  0  0  0  0  0  0
    0.5858   -2.7977   -0.4615 H   0  0  0  0  0  0  0  0  0  0  0  0
    1.3692   -1.8224    0.7935 H   0  0  0  0  0  0  0  0  0  0  0  0
    2.1050   -1.9433   -0.8990 H   0  0  0  0  0  0  0  0  0  0  0  0
    0.3597    1.3511   -1.2345 H   0  0  0  0  0  0  0  0  0  0  0  0
    1.8472    0.4871   -1.6510 H   0  0  0  0  0  0  0  0  0  0  0  0
    1.0347    1.3890    1.1623 H   0  0  0  0  0  0  0  0  0  0  0  0
    2.3348    1.9623    0.0879 H   0  0  0  0  0  0  0  0  0  0  0  0
    3.2808    0.6440    1.4176 H   0  0  0  0  0  0  0  0  0  0  0  0
  1  2  1  0
  2  3  1  0
  3  4  1  0
  4  5  1  0
  4  6  1  0
  6  7  1  0
  7  8  1  0
  1  9  1  0
  1 10  1  0
  1 11  1  0
  2 12  1  0
  2 13  1  0
  3 14  1  0
  3 15  1  0
  4 16  1  0
  5 17  1  0
  5 18  1  0
  5 19  1  0
  6 20  1  0
  6 21  1  0
  7 22  1  0
  7 23  1  0
  8 24  1  0
M  END
