
     RDKit          3D

 25 25  0  0  0  0  0  0  0  0999 V2000
    3.4468    0.9597   -1.2148 C   0  0  0  0  0  0  0  0  0  0  0  0
    2.6108   -0.0401   -0.4662 C   0  0  0  0  0  0  0  0  0  0  0  0
    1.1453    0.2256   -0.8383 C   0  0  0  0  0  0  0  0  0  0  0  0
    0.3230   -0.7716   -0.0901 C   0  0  0  0  0  0  0  0  0  0  0  0
    0.4197   -0.7326    1.3825 C   0  0  0  0  0  0  0  0  0  0  0  0
   -0.8741   -0.3698    0.6847 C   0  0  0  0  0  0  0  0  0  0  0  0
   -1.8957   -1.2565    0.8948 O   0  0  0  0  0  0  0  0  0  0  0  0
   -3.1017   -0.6156    1.0654 C   0  0  0  0  0  0  0  0  0  0  0  0
   -3.4792    0.2106   -0.1437 C   0  0  0  0  0  0  0  0  0  0  0  0
    3.7325    0.5137   -2.1895 H   0  0  0  0  0  0  0  0  0  0  0  0
    2.8522    1.8945   -1.4024 H   0  0  0  0  0  0  0  0  0  0  0  0
    4.3283    1.1962   -0.6107 H   0  0  0  0  0  0  0  0  0  0  0  0
    2.8918   -1.0566   -0.8084 H   0  0  0  0  0  0  0  0  0  0  0  0
    2.7532   -0.0086    0.6266 H   0  0  0  0  0  0  0  0  0  0  0  0
    1.0979    0.0239   -1.9464 H   0  0  0  0  0  0  0  0  0  0  0  0
    0.8748    1.2781   -0.6555 H   0  0  0  0  0  0  0  0  0  0  0  0
    0.2490   -1.7628   -0.5874 H   0  0  0  0  0  0  0  0  0  0  0  0
    0.8868    0.0868    1.9282 H   0  0  0  0  0  0  0  0  0  0  0  0
    0.5031   -1.7137    1.8857 H   0  0  0  0  0  0  0  0  0  0  0  0
   -1.1776    0.6981    0.6873 H   0  0  0  0  0  0  0  0  0  0  0  0
   -3.0810    0.1028    1.9345 H   0  0  0  0  0  0  0  0  0  0  0  0
   -3.8982   -1.3640    1.2492 H   0  0  0  0  0  0  0  0  0  0  0  0
   -3.8363    1.2028    0.1238 H   0  0  0  0  0  0  0  0  0  0  0  0
   -2.5522    0.3197   -0.7681 H   0  0  0  0  0  0  0  0  0  0  0  0
   -4.2191   -0.3721   -0.7413 H   0  0  0  0  0  0  0  0  0  0  0  0
  1  2  1  0
  2  3  1  0
  3  4  1  0
  4  5  1  0
  5  6  1  0
  6  7  1  0
  7  8  1  0
  8  9  1  0
  6  4  1  0
  1 10  1  0
  1 11  1  0
  1 12  1  0
  2 13  1  0
  2 14  1  0
  3 15  1  0
  3 16  1  0
  4 17  1  0
  5 18  1  0
  5 19  1  0
  6 20  1  0
  8 21  1  0
  8 22  1  0
  9 23  1  0
  9 24  1  0
  9 25  1  0
M  END
