
     RDKit          3D

 24 24  0  0  0  0  0  0  0  0999 V2000
    3.0558    0.7110    0.3186 C   0  0  0  0  0  0  0  0  0  0  0  0
    1.9650   -0.2565   -0.1575 C   0  0  0  0  0  0  0  0  0  0  0  0
    0.6304    0.4457   -0.1987 C   0  0  0  0  0  0  0  0  0  0  0  0
   -0.4348   -0.4877   -0.6645 C   0  0  0  0  0  0  0  0  0  0  0  0
   -0.6570   -1.7183    0.1811 C   0  0  0  0  0  0  0  0  0  0  0  0
   -1.7178   -0.9030    0.9344 C   0  0  0  0  0  0  0  0  0  0  0  0
   -1.8511   -0.0824   -0.3298 C   0  0  0  0  0  0  0  0  0  0  0  0
   -2.0554    1.3889   -0.0849 C   0  0  0  0  0  0  0  0  0  0  0  0
    2.6073    1.7112    0.5629 H   0  0  0  0  0  0  0  0  0  0  0  0
    3.5699    0.3264    1.2068 H   0  0  0  0  0  0  0  0  0  0  0  0
    3.7474    0.8947   -0.5209 H   0  0  0  0  0  0  0  0  0  0  0  0
    1.8990   -1.0848    0.5776 H   0  0  0  0  0  0  0  0  0  0  0  0
    2.2352   -0.6595   -1.1377 H   0  0  0  0  0  0  0  0  0  0  0  0
    0.3900    0.9564    0.7460 H   0  0  0  0  0  0  0  0  0  0  0  0
    0.7185    1.2505   -0.9755 H   0  0  0  0  0  0  0  0  0  0  0  0
   -0.2690   -0.7593   -1.7298 H   0  0  0  0  0  0  0  0  0  0  0  0
   -1.1863   -2.4861   -0.4360 H   0  0  0  0  0  0  0  0  0  0  0  0
    0.1561   -2.0785    0.8006 H   0  0  0  0  0  0  0  0  0  0  0  0
   -1.2069   -0.3551    1.7518 H   0  0  0  0  0  0  0  0  0  0  0  0
   -2.6103   -1.4847    1.2163 H   0  0  0  0  0  0  0  0  0  0  0  0
   -2.5636   -0.5265   -1.0209 H   0  0  0  0  0  0  0  0  0  0  0  0
   -3.1369    1.5532    0.0980 H   0  0  0  0  0  0  0  0  0  0  0  0
   -1.7675    1.9348   -0.9968 H   0  0  0  0  0  0  0  0  0  0  0  0
   -1.5178    1.7095    0.8117 H   0  0  0  0  0  0  0  0  0  0  0  0
  1  2  1  0
  2  3  1  0
  3  4  1  0
  4  5  1  0
  5  6  1  0
  6  7  1  0
  7  8  1  0
  7  4  1  0
  1  9  1  0
  1 10  1  0
  1 11  1  0
  2 12  1  0
  2 13  1  0
  3 14  1  0
  3 15  1  0
  4 16  1  0
  5 17  1  0
  5 18  1  0
  6 19  1  0
  6 20  1  0
  7 21  1  0
  8 22  1  0
  8 23  1  0
  8 24  1  0
M  END
