
     RDKit          3D

 23 24  0  0  0  0  0  0  0  0999 V2000
    3.1107    0.4789   -0.5909 C   0  0  0  0  0  0  0  0  0  0  0  0
    1.7309    0.4032    0.0065 C   0  0  0  0  0  0  0  0  0  0  0  0
    0.7278   -0.2178   -0.9747 C   0  0  0  0  0  0  0  0  0  0  0  0
   -0.5734   -0.2532   -0.3212 C   0  0  0  0  0  0  0  0  0  0  0  0
   -1.2077    1.0323    0.1341 C   0  0  0  0  0  0  0  0  0  0  0  0
   -2.4739    0.4046    0.7585 C   0  0  0  0  0  0  0  0  0  0  0  0
   -2.2241   -1.0062    0.2758 C   0  0  0  0  0  0  0  0  0  0  0  0
   -0.8242   -1.2577    0.7623 C   0  0  0  0  0  0  0  0  0  0  0  0
   -1.6430   -0.8557   -1.0063 O   0  0  0  0  0  0  0  0  0  0  0  0
    3.6511    1.3425   -0.1600 H   0  0  0  0  0  0  0  0  0  0  0  0
    3.6409   -0.4548   -0.2834 H   0  0  0  0  0  0  0  0  0  0  0  0
    2.9981    0.5402   -1.6950 H   0  0  0  0  0  0  0  0  0  0  0  0
    1.4314    1.4381    0.2631 H   0  0  0  0  0  0  0  0  0  0  0  0
    1.7496   -0.2145    0.9210 H   0  0  0  0  0  0  0  0  0  0  0  0
    0.7737    0.3163   -1.9252 H   0  0  0  0  0  0  0  0  0  0  0  0
    1.0539   -1.2688   -1.1738 H   0  0  0  0  0  0  0  0  0  0  0  0
   -0.6274    1.5867    0.8712 H   0  0  0  0  0  0  0  0  0  0  0  0
   -1.5306    1.5997   -0.7403 H   0  0  0  0  0  0  0  0  0  0  0  0
   -3.3825    0.8551    0.3742 H   0  0  0  0  0  0  0  0  0  0  0  0
   -2.3251    0.4296    1.8343 H   0  0  0  0  0  0  0  0  0  0  0  0
   -2.9760   -1.7481    0.3981 H   0  0  0  0  0  0  0  0  0  0  0  0
   -0.5843   -0.8860    1.7679 H   0  0  0  0  0  0  0  0  0  0  0  0
   -0.4957   -2.2645    0.5037 H   0  0  0  0  0  0  0  0  0  0  0  0
  1  2  1  0
  2  3  1  0
  3  4  1  0
  4  5  1  0
  5  6  1  0
  6  7  1  0
  7  8  1  0
  7  9  1  0
  8  4  1  0
  9  4  1  0
  1 10  1  0
  1 11  1  0
  1 12  1  0
  2 13  1  0
  2 14  1  0
  3 15  1  0
  3 16  1  0
  5 17  1  0
  5 18  1  0
  6 19  1  0
  6 20  1  0
  7 21  1  0
  8 22  1  0
  8 23  1  0
M  END
