
     RDKit          3D

 21 21  0  0  0  0  0  0  0  0999 V2000
   -2.7397    0.2781    0.1333 C   0  0  0  0  0  0  0  0  0  0  0  0
   -1.8483   -0.4248   -0.9081 C   0  0  0  0  0  0  0  0  0  0  0  0
   -0.5502    0.2537   -1.0811 C   0  0  0  0  0  0  0  0  0  0  0  0
    0.4583    0.2102   -0.0206 C   0  0  0  0  0  0  0  0  0  0  0  0
    1.1676   -1.0076    0.3849 C   0  0  0  0  0  0  0  0  0  0  0  0
    1.8722    0.0517   -0.4387 C   0  0  0  0  0  0  0  0  0  0  0  0
    2.3633   -0.4858   -1.5985 O   0  0  0  0  0  0  0  0  0  0  0  0
    2.8190    0.9752    0.2475 C   0  0  0  0  0  0  0  0  0  0  0  0
    2.4448    2.1010    0.3976 O   0  0  0  0  0  0  0  0  0  0  0  0
   -2.8628    1.3191   -0.2807 H   0  0  0  0  0  0  0  0  0  0  0  0
   -3.7443   -0.1786    0.0039 H   0  0  0  0  0  0  0  0  0  0  0  0
   -2.3798    0.2534    1.1406 H   0  0  0  0  0  0  0  0  0  0  0  0
   -2.4162   -0.3952   -1.8530 H   0  0  0  0  0  0  0  0  0  0  0  0
   -1.7726   -1.4888   -0.5845 H   0  0  0  0  0  0  0  0  0  0  0  0
   -0.7503    1.3394   -1.2975 H   0  0  0  0  0  0  0  0  0  0  0  0
   -0.1233   -0.1163   -2.0625 H   0  0  0  0  0  0  0  0  0  0  0  0
    0.2073    0.9139    0.8517 H   0  0  0  0  0  0  0  0  0  0  0  0
    1.4145   -1.1857    1.4341 H   0  0  0  0  0  0  0  0  0  0  0  0
    0.9218   -1.9543   -0.1886 H   0  0  0  0  0  0  0  0  0  0  0  0
    1.7249   -1.1070   -2.0669 H   0  0  0  0  0  0  0  0  0  0  0  0
    3.7937    0.6484    0.5786 H   0  0  0  0  0  0  0  0  0  0  0  0
  1  2  1  0
  2  3  1  0
  3  4  1  0
  4  5  1  0
  5  6  1  0
  6  7  1  0
  6  8  1  0
  8  9  2  0
  6  4  1  0
  1 10  1  0
  1 11  1  0
  1 12  1  0
  2 13  1  0
  2 14  1  0
  3 15  1  0
  3 16  1  0
  4 17  1  0
  5 18  1  0
  5 19  1  0
  7 20  1  0
  8 21  1  0
M  END
