
     RDKit          3D

 27 27  0  0  0  0  0  0  0  0999 V2000
   -4.3860   -0.1860   -0.3865 C   0  0  0  0  0  0  0  0  0  0  0  0
   -3.1083   -0.7327    0.2138 C   0  0  0  0  0  0  0  0  0  0  0  0
   -1.9634    0.2104   -0.1620 C   0  0  0  0  0  0  0  0  0  0  0  0
   -0.6513   -0.2824    0.4107 C   0  0  0  0  0  0  0  0  0  0  0  0
    0.4132    0.7071   -0.0105 C   0  0  0  0  0  0  0  0  0  0  0  0
    1.7787    0.3537    0.4837 C   0  0  0  0  0  0  0  0  0  0  0  0
    2.3423   -0.9455    0.0550 C   0  0  0  0  0  0  0  0  0  0  0  0
    2.8700    0.3743   -0.5062 C   0  0  0  0  0  0  0  0  0  0  0  0
    4.2961    0.6473   -0.1291 C   0  0  0  0  0  0  0  0  0  0  0  0
   -4.6482    0.7178    0.2102 H   0  0  0  0  0  0  0  0  0  0  0  0
   -4.2191    0.0601   -1.4561 H   0  0  0  0  0  0  0  0  0  0  0  0
   -5.1939   -0.9420   -0.3146 H   0  0  0  0  0  0  0  0  0  0  0  0
   -2.9068   -1.7565   -0.1670 H   0  0  0  0  0  0  0  0  0  0  0  0
   -3.1348   -0.7721    1.3008 H   0  0  0  0  0  0  0  0  0  0  0  0
   -1.9490    0.2135   -1.2844 H   0  0  0  0  0  0  0  0  0  0  0  0
   -2.2336    1.2196    0.2106 H   0  0  0  0  0  0  0  0  0  0  0  0
   -0.4699   -1.2826   -0.0280 H   0  0  0  0  0  0  0  0  0  0  0  0
   -0.7663   -0.3580    1.4950 H   0  0  0  0  0  0  0  0  0  0  0  0
    0.1267    1.6854    0.4629 H   0  0  0  0  0  0  0  0  0  0  0  0
    0.3648    0.7791   -1.1184 H   0  0  0  0  0  0  0  0  0  0  0  0
    1.9693    0.6455    1.5470 H   0  0  0  0  0  0  0  0  0  0  0  0
    1.8270   -1.5757   -0.7135 H   0  0  0  0  0  0  0  0  0  0  0  0
    2.9669   -1.5157    0.7567 H   0  0  0  0  0  0  0  0  0  0  0  0
    2.6200    0.6386   -1.5505 H   0  0  0  0  0  0  0  0  0  0  0  0
    4.9212   -0.1010   -0.6864 H   0  0  0  0  0  0  0  0  0  0  0  0
    4.4867    0.5554    0.9571 H   0  0  0  0  0  0  0  0  0  0  0  0
    4.6479    1.6424   -0.4686 H   0  0  0  0  0  0  0  0  0  0  0  0
  1  2  1  0
  2  3  1  0
  3  4  1  0
  4  5  1  0
  5  6  1  0
  6  7  1  0
  7  8  1  0
  8  9  1  0
  8  6  1  0
  1 10  1  0
  1 11  1  0
  1 12  1  0
  2 13  1  0
  2 14  1  0
  3 15  1  0
  3 16  1  0
  4 17  1  0
  4 18  1  0
  5 19  1  0
  5 20  1  0
  6 21  1  0
  7 22  1  0
  7 23  1  0
  8 24  1  0
  9 25  1  0
  9 26  1  0
  9 27  1  0
M  END
