
     RDKit          3D

 21 22  0  0  0  0  0  0  0  0999 V2000
    2.8790   -0.6535   -0.2995 C   0  0  0  0  0  0  0  0  0  0  0  0
    1.5514    0.0985   -0.3845 C   0  0  0  0  0  0  0  0  0  0  0  0
    0.5817   -0.6004    0.5232 C   0  0  0  0  0  0  0  0  0  0  0  0
   -0.7727   -0.0006    0.5666 C   0  0  0  0  0  0  0  0  0  0  0  0
   -1.0347    1.3865    0.9955 C   0  0  0  0  0  0  0  0  0  0  0  0
   -1.2821    0.9730   -0.3966 C   0  0  0  0  0  0  0  0  0  0  0  0
   -2.5325    0.1240   -0.6025 C   0  0  0  0  0  0  0  0  0  0  0  0
   -1.9203   -0.8797    0.3096 C   0  0  0  0  0  0  0  0  0  0  0  0
   -2.3050   -1.9867    0.6510 O   0  0  0  0  0  0  0  0  0  0  0  0
    2.6248   -1.7253   -0.5400 H   0  0  0  0  0  0  0  0  0  0  0  0
    3.6140   -0.2966   -1.0196 H   0  0  0  0  0  0  0  0  0  0  0  0
    3.2112   -0.5960    0.7558 H   0  0  0  0  0  0  0  0  0  0  0  0
    1.2134   -0.0001   -1.4374 H   0  0  0  0  0  0  0  0  0  0  0  0
    1.6856    1.1551   -0.1735 H   0  0  0  0  0  0  0  0  0  0  0  0
    0.5089   -1.6624    0.2175 H   0  0  0  0  0  0  0  0  0  0  0  0
    0.9902   -0.6114    1.5656 H   0  0  0  0  0  0  0  0  0  0  0  0
   -1.9487    1.5159    1.6381 H   0  0  0  0  0  0  0  0  0  0  0  0
   -0.2352    2.0994    1.1845 H   0  0  0  0  0  0  0  0  0  0  0  0
   -0.6926    1.2945   -1.2513 H   0  0  0  0  0  0  0  0  0  0  0  0
   -2.7001   -0.2024   -1.6371 H   0  0  0  0  0  0  0  0  0  0  0  0
   -3.4361    0.5679   -0.0913 H   0  0  0  0  0  0  0  0  0  0  0  0
  1  2  1  0
  2  3  1  0
  3  4  1  0
  4  5  1  0
  5  6  1  0
  6  7  1  0
  7  8  1  0
  8  9  2  0
  6  4  1  0
  8  4  1  0
  1 10  1  0
  1 11  1  0
  1 12  1  0
  2 13  1  0
  2 14  1  0
  3 15  1  0
  3 16  1  0
  5 17  1  0
  5 18  1  0
  6 19  1  0
  7 20  1  0
  7 21  1  0
M  END
