
     RDKit          3D

 25 26  0  0  0  0  0  0  0  0999 V2000
    1.8303    0.8714    1.3890 C   0  0  0  0  0  0  0  0  0  0  0  0
    2.5169    0.1044    0.2920 C   0  0  0  0  0  0  0  0  0  0  0  0
    1.5994   -0.1611   -0.8799 C   0  0  0  0  0  0  0  0  0  0  0  0
    0.3851   -0.9803   -0.4319 C   0  0  0  0  0  0  0  0  0  0  0  0
   -0.5855   -1.2804   -1.5897 C   0  0  0  0  0  0  0  0  0  0  0  0
   -0.9465   -0.4218   -0.4812 C   0  0  0  0  0  0  0  0  0  0  0  0
   -1.2987    1.0068   -0.5597 C   0  0  0  0  0  0  0  0  0  0  0  0
   -2.6173    0.6794    0.1235 C   0  0  0  0  0  0  0  0  0  0  0  0
   -2.0392   -0.6945    0.4935 C   0  0  0  0  0  0  0  0  0  0  0  0
    1.5114    1.8725    1.0480 H   0  0  0  0  0  0  0  0  0  0  0  0
    2.5940    1.0479    2.1827 H   0  0  0  0  0  0  0  0  0  0  0  0
    0.9978    0.2650    1.8050 H   0  0  0  0  0  0  0  0  0  0  0  0
    3.3774    0.6763   -0.0970 H   0  0  0  0  0  0  0  0  0  0  0  0
    2.8589   -0.8532    0.7244 H   0  0  0  0  0  0  0  0  0  0  0  0
    1.2941    0.8163   -1.2986 H   0  0  0  0  0  0  0  0  0  0  0  0
    2.1348   -0.7120   -1.6753 H   0  0  0  0  0  0  0  0  0  0  0  0
    0.6034   -1.7960    0.2754 H   0  0  0  0  0  0  0  0  0  0  0  0
   -0.3446   -0.9013   -2.5851 H   0  0  0  0  0  0  0  0  0  0  0  0
   -0.9865   -2.3294   -1.6146 H   0  0  0  0  0  0  0  0  0  0  0  0
   -1.3919    1.4767   -1.5493 H   0  0  0  0  0  0  0  0  0  0  0  0
   -0.6880    1.6425    0.1158 H   0  0  0  0  0  0  0  0  0  0  0  0
   -3.4880    0.6113   -0.5701 H   0  0  0  0  0  0  0  0  0  0  0  0
   -2.8375    1.2898    1.0229 H   0  0  0  0  0  0  0  0  0  0  0  0
   -2.7530   -1.4942    0.2437 H   0  0  0  0  0  0  0  0  0  0  0  0
   -1.7267   -0.7359    1.5697 H   0  0  0  0  0  0  0  0  0  0  0  0
  1  2  1  0
  2  3  1  0
  3  4  1  0
  4  5  1  0
  5  6  1  0
  6  7  1  0
  7  8  1  0
  8  9  1  0
  6  4  1  0
  9  6  1  0
  1 10  1  0
  1 11  1  0
  1 12  1  0
  2 13  1  0
  2 14  1  0
  3 15  1  0
  3 16  1  0
  4 17  1  0
  5 18  1  0
  5 19  1  0
  7 20  1  0
  7 21  1  0
  8 22  1  0
  8 23  1  0
  9 24  1  0
  9 25  1  0
M  END
