
     RDKit          3D

 25 25  0  0  0  0  0  0  0  0999 V2000
    3.0446    0.4139   -0.4681 C   0  0  0  0  0  0  0  0  0  0  0  0
    1.8917   -0.5260   -0.0967 C   0  0  0  0  0  0  0  0  0  0  0  0
    0.6295    0.2757   -0.2745 C   0  0  0  0  0  0  0  0  0  0  0  0
   -0.6289   -0.4777    0.0343 C   0  0  0  0  0  0  0  0  0  0  0  0
   -1.9132    0.2722   -0.1309 C   0  0  0  0  0  0  0  0  0  0  0  0
   -2.0870    1.4882    0.6981 C   0  0  0  0  0  0  0  0  0  0  0  0
   -1.1289    2.4685    0.4679 O   0  0  0  0  0  0  0  0  0  0  0  0
   -0.5154   -1.6471    0.9146 C   0  0  0  0  0  0  0  0  0  0  0  0
   -0.7399   -1.9211   -0.5139 C   0  0  0  0  0  0  0  0  0  0  0  0
    3.7651   -0.1538   -1.1066 H   0  0  0  0  0  0  0  0  0  0  0  0
    3.5078    0.8560    0.4235 H   0  0  0  0  0  0  0  0  0  0  0  0
    2.6869    1.2524   -1.1043 H   0  0  0  0  0  0  0  0  0  0  0  0
    1.9458   -1.4494   -0.6634 H   0  0  0  0  0  0  0  0  0  0  0  0
    2.0583   -0.7759    0.9881 H   0  0  0  0  0  0  0  0  0  0  0  0
    0.7299    1.1031    0.4913 H   0  0  0  0  0  0  0  0  0  0  0  0
    0.6229    0.7921   -1.2495 H   0  0  0  0  0  0  0  0  0  0  0  0
   -1.9306    0.6148   -1.2102 H   0  0  0  0  0  0  0  0  0  0  0  0
   -2.7695   -0.4367   -0.0439 H   0  0  0  0  0  0  0  0  0  0  0  0
   -3.0780    1.9339    0.4079 H   0  0  0  0  0  0  0  0  0  0  0  0
   -2.1850    1.2722    1.7848 H   0  0  0  0  0  0  0  0  0  0  0  0
   -1.3713    3.0249   -0.3214 H   0  0  0  0  0  0  0  0  0  0  0  0
    0.4581   -1.9559    1.3188 H   0  0  0  0  0  0  0  0  0  0  0  0
   -1.3495   -1.8574    1.6336 H   0  0  0  0  0  0  0  0  0  0  0  0
    0.0748   -2.2495   -1.1926 H   0  0  0  0  0  0  0  0  0  0  0  0
   -1.7180   -2.3176   -0.7869 H   0  0  0  0  0  0  0  0  0  0  0  0
  1  2  1  0
  2  3  1  0
  3  4  1  0
  4  5  1  0
  5  6  1  0
  6  7  1  0
  4  8  1  0
  8  9  1  0
  9  4  1  0
  1 10  1  0
  1 11  1  0
  1 12  1  0
  2 13  1  0
  2 14  1  0
  3 15  1  0
  3 16  1  0
  5 17  1  0
  5 18  1  0
  6 19  1  0
  6 20  1  0
  7 21  1  0
  8 22  1  0
  8 23  1  0
  9 24  1  0
  9 25  1  0
M  END
