
     RDKit          3D

 23 23  0  0  0  0  0  0  0  0999 V2000
    3.1017   -0.1810    0.2986 C   0  0  0  0  0  0  0  0  0  0  0  0
    2.3883    0.5251   -0.8368 C   0  0  0  0  0  0  0  0  0  0  0  0
    1.0500    1.0639   -0.3083 C   0  0  0  0  0  0  0  0  0  0  0  0
    0.2905   -0.1302    0.1646 C   0  0  0  0  0  0  0  0  0  0  0  0
   -1.0614    0.1756    0.7260 C   0  0  0  0  0  0  0  0  0  0  0  0
   -1.6196   -1.0421    1.1128 O   0  0  0  0  0  0  0  0  0  0  0  0
   -2.6795   -1.2831    0.2165 C   0  0  0  0  0  0  0  0  0  0  0  0
   -3.1752    0.1661    0.0821 C   0  0  0  0  0  0  0  0  0  0  0  0
   -1.9220    0.7738   -0.1580 O   0  0  0  0  0  0  0  0  0  0  0  0
    4.1997   -0.0732    0.1416 H   0  0  0  0  0  0  0  0  0  0  0  0
    2.8294    0.2603    1.2931 H   0  0  0  0  0  0  0  0  0  0  0  0
    2.8764   -1.2799    0.2953 H   0  0  0  0  0  0  0  0  0  0  0  0
    2.1011   -0.2621   -1.5780 H   0  0  0  0  0  0  0  0  0  0  0  0
    2.9570    1.3493   -1.2605 H   0  0  0  0  0  0  0  0  0  0  0  0
    1.2376    1.8206    0.4536 H   0  0  0  0  0  0  0  0  0  0  0  0
    0.5615    1.5388   -1.1769 H   0  0  0  0  0  0  0  0  0  0  0  0
    0.8692   -0.6663    0.9448 H   0  0  0  0  0  0  0  0  0  0  0  0
    0.1532   -0.8164   -0.6926 H   0  0  0  0  0  0  0  0  0  0  0  0
   -1.0192    0.8130    1.6378 H   0  0  0  0  0  0  0  0  0  0  0  0
   -2.3027   -1.5903   -0.7833 H   0  0  0  0  0  0  0  0  0  0  0  0
   -3.4384   -1.9432    0.6254 H   0  0  0  0  0  0  0  0  0  0  0  0
   -3.8712    0.2910   -0.7411 H   0  0  0  0  0  0  0  0  0  0  0  0
   -3.5262    0.4901    1.0666 H   0  0  0  0  0  0  0  0  0  0  0  0
  1  2  1  0
  2  3  1  0
  3  4  1  0
  4  5  1  0
  5  6  1  0
  6  7  1  0
  7  8  1  0
  8  9  1  0
  9  5  1  0
  1 10  1  0
  1 11  1  0
  1 12  1  0
  2 13  1  0
  2 14  1  0
  3 15  1  0
  3 16  1  0
  4 17  1  0
  4 18  1  0
  5 19  1  0
  7 20  1  0
  7 21  1  0
  8 22  1  0
  8 23  1  0
M  END
