
     RDKit          3D

 23 23  0  0  0  0  0  0  0  0999 V2000
    2.9526   -0.6953   -0.8154 C   0  0  0  0  0  0  0  0  0  0  0  0
    1.8102   -0.1839    0.0227 C   0  0  0  0  0  0  0  0  0  0  0  0
    0.7318    0.4598   -0.8102 C   0  0  0  0  0  0  0  0  0  0  0  0
   -0.3759    0.9489    0.0576 C   0  0  0  0  0  0  0  0  0  0  0  0
   -1.0943   -0.0506    0.8791 C   0  0  0  0  0  0  0  0  0  0  0  0
   -1.0067   -1.5156    0.6049 C   0  0  0  0  0  0  0  0  0  0  0  0
   -1.7983    0.7099   -0.2519 C   0  0  0  0  0  0  0  0  0  0  0  0
   -2.8390    1.6342    0.2326 C   0  0  0  0  0  0  0  0  0  0  0  0
   -3.8627    1.7698   -0.3872 O   0  0  0  0  0  0  0  0  0  0  0  0
    3.1119   -1.7673   -0.6645 H   0  0  0  0  0  0  0  0  0  0  0  0
    2.7471   -0.5093   -1.8892 H   0  0  0  0  0  0  0  0  0  0  0  0
    3.8702   -0.1698   -0.5509 H   0  0  0  0  0  0  0  0  0  0  0  0
    1.4388   -1.0104    0.6367 H   0  0  0  0  0  0  0  0  0  0  0  0
    2.1831    0.6217    0.7071 H   0  0  0  0  0  0  0  0  0  0  0  0
    0.3682   -0.3464   -1.5141 H   0  0  0  0  0  0  0  0  0  0  0  0
    1.1632    1.2414   -1.4561 H   0  0  0  0  0  0  0  0  0  0  0  0
   -0.1817    1.9619    0.5099 H   0  0  0  0  0  0  0  0  0  0  0  0
   -1.3033    0.2506    1.9184 H   0  0  0  0  0  0  0  0  0  0  0  0
   -0.5847   -1.7590   -0.3828 H   0  0  0  0  0  0  0  0  0  0  0  0
   -0.5444   -2.0671    1.4428 H   0  0  0  0  0  0  0  0  0  0  0  0
   -2.0779   -1.8787    0.5448 H   0  0  0  0  0  0  0  0  0  0  0  0
   -2.0244    0.1698   -1.1966 H   0  0  0  0  0  0  0  0  0  0  0  0
   -2.6838    2.1853    1.1367 H   0  0  0  0  0  0  0  0  0  0  0  0
  1  2  1  0
  2  3  1  0
  3  4  1  0
  4  5  1  0
  5  6  1  0
  5  7  1  0
  7  8  1  0
  8  9  2  0
  7  4  1  0
  1 10  1  0
  1 11  1  0
  1 12  1  0
  2 13  1  0
  2 14  1  0
  3 15  1  0
  3 16  1  0
  4 17  1  0
  5 18  1  0
  6 19  1  0
  6 20  1  0
  6 21  1  0
  7 22  1  0
  8 23  1  0
M  END
