
     RDKit          3D

 23 22  0  0  0  0  0  0  0  0999 V2000
    3.2204    0.0406    0.5624 C   0  0  0  0  0  0  0  0  0  0  0  0
    2.4023   -0.0003   -0.7091 C   0  0  0  0  0  0  0  0  0  0  0  0
    0.9855    0.4717   -0.4956 C   0  0  0  0  0  0  0  0  0  0  0  0
    0.2759   -0.3762    0.5071 C   0  0  0  0  0  0  0  0  0  0  0  0
   -1.0158    0.0014    0.7471 O   0  0  0  0  0  0  0  0  0  0  0  0
   -1.8750   -0.0194   -0.3173 C   0  0  0  0  0  0  0  0  0  0  0  0
   -3.0329   -0.9915   -0.1149 C   0  0  0  0  0  0  0  0  0  0  0  0
   -2.4997    1.3210   -0.5098 C   0  0  0  0  0  0  0  0  0  0  0  0
   -2.2012    2.2274    0.2456 O   0  0  0  0  0  0  0  0  0  0  0  0
    2.8867   -0.7517    1.2768 H   0  0  0  0  0  0  0  0  0  0  0  0
    4.2646   -0.2231    0.2728 H   0  0  0  0  0  0  0  0  0  0  0  0
    3.1891    1.0465    1.0052 H   0  0  0  0  0  0  0  0  0  0  0  0
    2.8901    0.6922   -1.4310 H   0  0  0  0  0  0  0  0  0  0  0  0
    2.4369   -1.0017   -1.1606 H   0  0  0  0  0  0  0  0  0  0  0  0
    1.0191    1.5240   -0.1752 H   0  0  0  0  0  0  0  0  0  0  0  0
    0.4837    0.4108   -1.4820 H   0  0  0  0  0  0  0  0  0  0  0  0
    0.3193   -1.4447    0.1865 H   0  0  0  0  0  0  0  0  0  0  0  0
    0.8217   -0.3087    1.4825 H   0  0  0  0  0  0  0  0  0  0  0  0
   -1.3773   -0.3576   -1.2555 H   0  0  0  0  0  0  0  0  0  0  0  0
   -2.7469   -1.7195    0.6727 H   0  0  0  0  0  0  0  0  0  0  0  0
   -3.2941   -1.5260   -1.0508 H   0  0  0  0  0  0  0  0  0  0  0  0
   -3.9532   -0.4672    0.2078 H   0  0  0  0  0  0  0  0  0  0  0  0
   -3.1992    1.4521   -1.3129 H   0  0  0  0  0  0  0  0  0  0  0  0
  1  2  1  0
  2  3  1  0
  3  4  1  0
  4  5  1  0
  5  6  1  0
  6  7  1  0
  6  8  1  0
  8  9  2  0
  1 10  1  0
  1 11  1  0
  1 12  1  0
  2 13  1  0
  2 14  1  0
  3 15  1  0
  3 16  1  0
  4 17  1  0
  4 18  1  0
  6 19  1  0
  7 20  1  0
  7 21  1  0
  7 22  1  0
  8 23  1  0
M  END
