
     RDKit          3D

 25 25  0  0  0  0  0  0  0  0999 V2000
   -3.1727   -0.0556   -1.0570 C   0  0  0  0  0  0  0  0  0  0  0  0
   -3.2766    0.2263    0.4131 C   0  0  0  0  0  0  0  0  0  0  0  0
   -1.9915    0.8332    0.9305 C   0  0  0  0  0  0  0  0  0  0  0  0
   -0.8177   -0.1001    0.7150 C   0  0  0  0  0  0  0  0  0  0  0  0
   -0.5875   -0.4255   -0.7007 O   0  0  0  0  0  0  0  0  0  0  0  0
    0.4110    0.2975    0.0888 C   0  0  0  0  0  0  0  0  0  0  0  0
    1.6663   -0.4908    0.3958 C   0  0  0  0  0  0  0  0  0  0  0  0
    2.8095    0.1201   -0.3778 C   0  0  0  0  0  0  0  0  0  0  0  0
    4.1126   -0.5730   -0.1585 C   0  0  0  0  0  0  0  0  0  0  0  0
   -2.8831   -1.1023   -1.2882 H   0  0  0  0  0  0  0  0  0  0  0  0
   -4.1744    0.1643   -1.5067 H   0  0  0  0  0  0  0  0  0  0  0  0
   -2.4775    0.6745   -1.5541 H   0  0  0  0  0  0  0  0  0  0  0  0
   -3.5182   -0.7156    0.9831 H   0  0  0  0  0  0  0  0  0  0  0  0
   -4.0852    0.9666    0.5985 H   0  0  0  0  0  0  0  0  0  0  0  0
   -1.8213    1.7622    0.3325 H   0  0  0  0  0  0  0  0  0  0  0  0
   -2.1256    1.1122    1.9750 H   0  0  0  0  0  0  0  0  0  0  0  0
   -0.8445   -1.0435    1.2987 H   0  0  0  0  0  0  0  0  0  0  0  0
    0.5534    1.3084   -0.3376 H   0  0  0  0  0  0  0  0  0  0  0  0
    1.4797   -1.5386    0.1686 H   0  0  0  0  0  0  0  0  0  0  0  0
    1.8617   -0.4188    1.4881 H   0  0  0  0  0  0  0  0  0  0  0  0
    2.8735    1.1913   -0.0684 H   0  0  0  0  0  0  0  0  0  0  0  0
    2.5532    0.0730   -1.4632 H   0  0  0  0  0  0  0  0  0  0  0  0
    4.1655   -1.0719    0.8518 H   0  0  0  0  0  0  0  0  0  0  0  0
    4.3384   -1.3679   -0.8905 H   0  0  0  0  0  0  0  0  0  0  0  0
    4.9510    0.1738   -0.1465 H   0  0  0  0  0  0  0  0  0  0  0  0
  1  2  1  0
  2  3  1  0
  3  4  1  0
  4  5  1  0
  5  6  1  0
  6  7  1  0
  7  8  1  0
  8  9  1  0
  6  4  1  0
  1 10  1  0
  1 11  1  0
  1 12  1  0
  2 13  1  0
  2 14  1  0
  3 15  1  0
  3 16  1  0
  4 17  1  0
  6 18  1  0
  7 19  1  0
  7 20  1  0
  8 21  1  0
  8 22  1  0
  9 23  1  0
  9 24  1  0
  9 25  1  0
M  END
