
     RDKit          3D

 25 26  0  0  0  0  0  0  0  0999 V2000
    3.2894    0.2591    0.7126 C   0  0  0  0  0  0  0  0  0  0  0  0
    2.1065   -0.2859   -0.0539 C   0  0  0  0  0  0  0  0  0  0  0  0
    0.8337    0.4702    0.2779 C   0  0  0  0  0  0  0  0  0  0  0  0
   -0.3088   -0.1206   -0.5186 C   0  0  0  0  0  0  0  0  0  0  0  0
   -1.6396    0.5137   -0.3064 C   0  0  0  0  0  0  0  0  0  0  0  0
   -1.6547    1.8638    0.3506 C   0  0  0  0  0  0  0  0  0  0  0  0
   -1.9300   -0.6135    0.6718 C   0  0  0  0  0  0  0  0  0  0  0  0
   -2.1268   -1.9183    0.0150 C   0  0  0  0  0  0  0  0  0  0  0  0
   -0.7433   -1.4163    0.0795 C   0  0  0  0  0  0  0  0  0  0  0  0
    4.2413    0.0810    0.1482 H   0  0  0  0  0  0  0  0  0  0  0  0
    3.3617   -0.1468    1.7269 H   0  0  0  0  0  0  0  0  0  0  0  0
    3.1460    1.3678    0.8157 H   0  0  0  0  0  0  0  0  0  0  0  0
    2.0241   -1.3582    0.2156 H   0  0  0  0  0  0  0  0  0  0  0  0
    2.2876   -0.2637   -1.1527 H   0  0  0  0  0  0  0  0  0  0  0  0
    0.6080    0.2321    1.3553 H   0  0  0  0  0  0  0  0  0  0  0  0
    0.9405    1.5461    0.1822 H   0  0  0  0  0  0  0  0  0  0  0  0
   -0.0602   -0.2635   -1.6039 H   0  0  0  0  0  0  0  0  0  0  0  0
   -2.3086    0.4949   -1.1829 H   0  0  0  0  0  0  0  0  0  0  0  0
   -0.8546    1.9706    1.1067 H   0  0  0  0  0  0  0  0  0  0  0  0
   -1.5904    2.6500   -0.4188 H   0  0  0  0  0  0  0  0  0  0  0  0
   -2.6224    1.9549    0.8968 H   0  0  0  0  0  0  0  0  0  0  0  0
   -1.8347   -0.4621    1.7382 H   0  0  0  0  0  0  0  0  0  0  0  0
   -2.6870   -1.8870   -0.9490 H   0  0  0  0  0  0  0  0  0  0  0  0
   -2.4086   -2.7485    0.6574 H   0  0  0  0  0  0  0  0  0  0  0  0
   -0.0693   -1.9197    0.7675 H   0  0  0  0  0  0  0  0  0  0  0  0
  1  2  1  0
  2  3  1  0
  3  4  1  0
  4  5  1  0
  5  6  1  0
  5  7  1  0
  7  8  1  0
  8  9  1  0
  9  4  1  0
  9  7  1  0
  1 10  1  0
  1 11  1  0
  1 12  1  0
  2 13  1  0
  2 14  1  0
  3 15  1  0
  3 16  1  0
  4 17  1  0
  5 18  1  0
  6 19  1  0
  6 20  1  0
  6 21  1  0
  7 22  1  0
  8 23  1  0
  8 24  1  0
  9 25  1  0
M  END
