
     RDKit          3D

 25 25  0  0  0  0  0  0  0  0999 V2000
   -3.3512   -0.2471   -0.4209 C   0  0  0  0  0  0  0  0  0  0  0  0
   -2.0872   -0.0855    0.4012 C   0  0  0  0  0  0  0  0  0  0  0  0
   -0.9344   -0.0579   -0.5540 C   0  0  0  0  0  0  0  0  0  0  0  0
    0.4074    0.1013    0.1441 C   0  0  0  0  0  0  0  0  0  0  0  0
    1.5266    0.1215   -0.8739 C   0  0  0  0  0  0  0  0  0  0  0  0
    2.8828    0.2764   -0.2521 C   0  0  0  0  0  0  0  0  0  0  0  0
    1.5046   -1.1116   -1.5293 O   0  0  0  0  0  0  0  0  0  0  0  0
    0.5124    0.9773    1.3509 C   0  0  0  0  0  0  0  0  0  0  0  0
    0.6270   -0.5410    1.4655 C   0  0  0  0  0  0  0  0  0  0  0  0
   -3.2565    0.3777   -1.3544 H   0  0  0  0  0  0  0  0  0  0  0  0
   -3.4724   -1.3146   -0.7532 H   0  0  0  0  0  0  0  0  0  0  0  0
   -4.2499    0.1258    0.0977 H   0  0  0  0  0  0  0  0  0  0  0  0
   -2.1705    0.7895    1.0388 H   0  0  0  0  0  0  0  0  0  0  0  0
   -1.9744   -0.9993    1.0401 H   0  0  0  0  0  0  0  0  0  0  0  0
   -1.0083    0.7938   -1.2650 H   0  0  0  0  0  0  0  0  0  0  0  0
   -0.8600   -0.9836   -1.1547 H   0  0  0  0  0  0  0  0  0  0  0  0
    1.3861    0.9702   -1.5749 H   0  0  0  0  0  0  0  0  0  0  0  0
    3.6081    0.3381   -1.1122 H   0  0  0  0  0  0  0  0  0  0  0  0
    3.2082   -0.6427    0.3069 H   0  0  0  0  0  0  0  0  0  0  0  0
    3.0221    1.2002    0.3187 H   0  0  0  0  0  0  0  0  0  0  0  0
    2.1447   -1.1583   -2.2625 H   0  0  0  0  0  0  0  0  0  0  0  0
   -0.3887    1.4591    1.7676 H   0  0  0  0  0  0  0  0  0  0  0  0
    1.4330    1.5791    1.5380 H   0  0  0  0  0  0  0  0  0  0  0  0
    1.6745   -0.9162    1.6227 H   0  0  0  0  0  0  0  0  0  0  0  0
   -0.1840   -1.0522    2.0148 H   0  0  0  0  0  0  0  0  0  0  0  0
  1  2  1  0
  2  3  1  0
  3  4  1  0
  4  5  1  0
  5  6  1  0
  5  7  1  0
  4  8  1  0
  8  9  1  0
  9  4  1  0
  1 10  1  0
  1 11  1  0
  1 12  1  0
  2 13  1  0
  2 14  1  0
  3 15  1  0
  3 16  1  0
  5 17  1  0
  6 18  1  0
  6 19  1  0
  6 20  1  0
  7 21  1  0
  8 22  1  0
  8 23  1  0
  9 24  1  0
  9 25  1  0
M  END
