
     RDKit          3D

 27 27  0  0  0  0  0  0  0  0999 V2000
    3.5520    0.7685    0.0822 C   0  0  0  0  0  0  0  0  0  0  0  0
    2.0682    0.5528    0.4085 C   0  0  0  0  0  0  0  0  0  0  0  0
    1.5066   -0.3187   -0.6600 C   0  0  0  0  0  0  0  0  0  0  0  0
    0.0552   -0.6327   -0.4962 C   0  0  0  0  0  0  0  0  0  0  0  0
   -0.4882   -1.5320   -1.6146 C   0  0  0  0  0  0  0  0  0  0  0  0
   -0.4102   -0.8966    0.9016 C   0  0  0  0  0  0  0  0  0  0  0  0
   -0.9005    0.2830    0.1392 C   0  0  0  0  0  0  0  0  0  0  0  0
   -2.3437    0.1881   -0.3219 C   0  0  0  0  0  0  0  0  0  0  0  0
   -3.2275    1.1742    0.3997 C   0  0  0  0  0  0  0  0  0  0  0  0
    3.5809    1.0186   -0.9957 H   0  0  0  0  0  0  0  0  0  0  0  0
    3.9720    1.6088    0.6395 H   0  0  0  0  0  0  0  0  0  0  0  0
    4.0712   -0.2043    0.2960 H   0  0  0  0  0  0  0  0  0  0  0  0
    2.0403    0.1173    1.4101 H   0  0  0  0  0  0  0  0  0  0  0  0
    1.6174    1.5655    0.4122 H   0  0  0  0  0  0  0  0  0  0  0  0
    1.7171    0.1252   -1.6477 H   0  0  0  0  0  0  0  0  0  0  0  0
    2.0670   -1.2967   -0.6172 H   0  0  0  0  0  0  0  0  0  0  0  0
    0.3195   -2.1618   -2.0287 H   0  0  0  0  0  0  0  0  0  0  0  0
   -1.3633   -2.0784   -1.2625 H   0  0  0  0  0  0  0  0  0  0  0  0
   -0.8399   -0.8317   -2.4217 H   0  0  0  0  0  0  0  0  0  0  0  0
   -1.0683   -1.8034    1.0010 H   0  0  0  0  0  0  0  0  0  0  0  0
    0.2249   -0.7408    1.7701 H   0  0  0  0  0  0  0  0  0  0  0  0
   -0.5657    1.2984    0.4904 H   0  0  0  0  0  0  0  0  0  0  0  0
   -2.3594    0.4297   -1.3931 H   0  0  0  0  0  0  0  0  0  0  0  0
   -2.7669   -0.8150   -0.1825 H   0  0  0  0  0  0  0  0  0  0  0  0
   -4.2731    0.8114    0.3209 H   0  0  0  0  0  0  0  0  0  0  0  0
   -3.1890    2.1581   -0.0720 H   0  0  0  0  0  0  0  0  0  0  0  0
   -2.9965    1.2125    1.4821 H   0  0  0  0  0  0  0  0  0  0  0  0
  1  2  1  0
  2  3  1  0
  3  4  1  0
  4  5  1  0
  4  6  1  0
  6  7  1  0
  7  8  1  0
  8  9  1  0
  7  4  1  0
  1 10  1  0
  1 11  1  0
  1 12  1  0
  2 13  1  0
  2 14  1  0
  3 15  1  0
  3 16  1  0
  5 17  1  0
  5 18  1  0
  5 19  1  0
  6 20  1  0
  6 21  1  0
  7 22  1  0
  8 23  1  0
  8 24  1  0
  9 25  1  0
  9 26  1  0
  9 27  1  0
M  END
