
     RDKit          3D

 29 28  0  0  0  0  0  0  0  0999 V2000
   -3.2808   -1.1860    0.8379 C   0  0  0  0  0  0  0  0  0  0  0  0
   -1.9204   -1.1614    0.1261 C   0  0  0  0  0  0  0  0  0  0  0  0
   -1.3580    0.2134    0.2387 C   0  0  0  0  0  0  0  0  0  0  0  0
   -0.0009    0.3255   -0.4504 C   0  0  0  0  0  0  0  0  0  0  0  0
    0.5363    1.7235   -0.3186 C   0  0  0  0  0  0  0  0  0  0  0  0
   -0.4102    2.7442   -0.9390 C   0  0  0  0  0  0  0  0  0  0  0  0
    0.9836   -0.6381    0.1410 C   0  0  0  0  0  0  0  0  0  0  0  0
    2.3008   -0.5032   -0.5569 C   0  0  0  0  0  0  0  0  0  0  0  0
    3.2469   -1.5382    0.0760 C   0  0  0  0  0  0  0  0  0  0  0  0
   -3.8127   -2.1356    0.6197 H   0  0  0  0  0  0  0  0  0  0  0  0
   -3.1486   -1.0752    1.9281 H   0  0  0  0  0  0  0  0  0  0  0  0
   -3.8708   -0.3052    0.4758 H   0  0  0  0  0  0  0  0  0  0  0  0
   -1.3033   -1.8994    0.7089 H   0  0  0  0  0  0  0  0  0  0  0  0
   -2.0663   -1.5196   -0.8913 H   0  0  0  0  0  0  0  0  0  0  0  0
   -1.3161    0.5076    1.2929 H   0  0  0  0  0  0  0  0  0  0  0  0
   -2.0359    0.8983   -0.3293 H   0  0  0  0  0  0  0  0  0  0  0  0
   -0.1576    0.0816   -1.5066 H   0  0  0  0  0  0  0  0  0  0  0  0
    0.7518    2.0319    0.7074 H   0  0  0  0  0  0  0  0  0  0  0  0
    1.4775    1.8302   -0.9143 H   0  0  0  0  0  0  0  0  0  0  0  0
   -1.2413    2.9998   -0.2450 H   0  0  0  0  0  0  0  0  0  0  0  0
   -0.7307    2.3824   -1.9150 H   0  0  0  0  0  0  0  0  0  0  0  0
    0.1843    3.6681   -1.0925 H   0  0  0  0  0  0  0  0  0  0  0  0
    1.1500   -0.3689    1.2224 H   0  0  0  0  0  0  0  0  0  0  0  0
    0.6101   -1.6809    0.0805 H   0  0  0  0  0  0  0  0  0  0  0  0
    2.7457    0.4894   -0.2813 H   0  0  0  0  0  0  0  0  0  0  0  0
    2.2542   -0.6147   -1.6422 H   0  0  0  0  0  0  0  0  0  0  0  0
    4.2582   -1.4598   -0.3870 H   0  0  0  0  0  0  0  0  0  0  0  0
    3.3247   -1.2538    1.1413 H   0  0  0  0  0  0  0  0  0  0  0  0
    2.8297   -2.5559   -0.0415 H   0  0  0  0  0  0  0  0  0  0  0  0
  1  2  1  0
  2  3  1  0
  3  4  1  0
  4  5  1  0
  5  6  1  0
  4  7  1  0
  7  8  1  0
  8  9  1  0
  1 10  1  0
  1 11  1  0
  1 12  1  0
  2 13  1  0
  2 14  1  0
  3 15  1  0
  3 16  1  0
  4 17  1  0
  5 18  1  0
  5 19  1  0
  6 20  1  0
  6 21  1  0
  6 22  1  0
  7 23  1  0
  7 24  1  0
  8 25  1  0
  8 26  1  0
  9 27  1  0
  9 28  1  0
  9 29  1  0
M  END
