
     RDKit          3D

 27 27  0  0  0  0  0  0  0  0999 V2000
    2.7077   -0.5373    0.4871 C   0  0  0  0  0  0  0  0  0  0  0  0
    1.8934   -0.5448   -0.7584 C   0  0  0  0  0  0  0  0  0  0  0  0
    0.9137    0.5336   -0.9468 C   0  0  0  0  0  0  0  0  0  0  0  0
   -0.2002    0.7459   -0.0149 C   0  0  0  0  0  0  0  0  0  0  0  0
   -1.0624    1.9656   -0.4524 C   0  0  0  0  0  0  0  0  0  0  0  0
   -0.1445    0.4697    1.4171 C   0  0  0  0  0  0  0  0  0  0  0  0
   -1.0971   -0.3347    0.5210 C   0  0  0  0  0  0  0  0  0  0  0  0
   -2.5584   -0.0202    0.8136 C   0  0  0  0  0  0  0  0  0  0  0  0
   -0.7866   -1.7722    0.2762 C   0  0  0  0  0  0  0  0  0  0  0  0
    2.7017    0.3958    1.0526 H   0  0  0  0  0  0  0  0  0  0  0  0
    2.4605   -1.3649    1.2063 H   0  0  0  0  0  0  0  0  0  0  0  0
    3.7954   -0.7650    0.2320 H   0  0  0  0  0  0  0  0  0  0  0  0
    2.6604   -0.3897   -1.6122 H   0  0  0  0  0  0  0  0  0  0  0  0
    1.5493   -1.5821   -1.0007 H   0  0  0  0  0  0  0  0  0  0  0  0
    1.5298    1.4949   -1.0567 H   0  0  0  0  0  0  0  0  0  0  0  0
    0.4555    0.3923   -1.9718 H   0  0  0  0  0  0  0  0  0  0  0  0
   -1.4879    1.6640   -1.4301 H   0  0  0  0  0  0  0  0  0  0  0  0
   -1.8831    2.1101    0.2467 H   0  0  0  0  0  0  0  0  0  0  0  0
   -0.4644    2.8748   -0.5165 H   0  0  0  0  0  0  0  0  0  0  0  0
   -0.5867    1.2457    2.0889 H   0  0  0  0  0  0  0  0  0  0  0  0
    0.5902   -0.1546    1.9107 H   0  0  0  0  0  0  0  0  0  0  0  0
   -3.0985    0.3152   -0.1013 H   0  0  0  0  0  0  0  0  0  0  0  0
   -3.0032   -0.9329    1.2591 H   0  0  0  0  0  0  0  0  0  0  0  0
   -2.6738    0.7787    1.5733 H   0  0  0  0  0  0  0  0  0  0  0  0
    0.1312   -2.1444    0.7652 H   0  0  0  0  0  0  0  0  0  0  0  0
   -0.7316   -2.0554   -0.7984 H   0  0  0  0  0  0  0  0  0  0  0  0
   -1.6105   -2.3880    0.7703 H   0  0  0  0  0  0  0  0  0  0  0  0
  1  2  1  0
  2  3  1  0
  3  4  1  0
  4  5  1  0
  4  6  1  0
  6  7  1  0
  7  8  1  0
  7  9  1  0
  7  4  1  0
  1 10  1  0
  1 11  1  0
  1 12  1  0
  2 13  1  0
  2 14  1  0
  3 15  1  0
  3 16  1  0
  5 17  1  0
  5 18  1  0
  5 19  1  0
  6 20  1  0
  6 21  1  0
  8 22  1  0
  8 23  1  0
  8 24  1  0
  9 25  1  0
  9 26  1  0
  9 27  1  0
M  END
