
     RDKit          3D

 23 23  0  0  0  0  0  0  0  0999 V2000
    2.2571    0.7134    0.5438 C   0  0  0  0  0  0  0  0  0  0  0  0
    2.0165   -0.4097   -0.3864 C   0  0  0  0  0  0  0  0  0  0  0  0
    0.9537   -1.3804   -0.1035 C   0  0  0  0  0  0  0  0  0  0  0  0
   -0.4562   -0.9496   -0.0370 C   0  0  0  0  0  0  0  0  0  0  0  0
   -0.7787    0.0597    1.0215 C   0  0  0  0  0  0  0  0  0  0  0  0
   -1.2824    1.3536    0.5145 C   0  0  0  0  0  0  0  0  0  0  0  0
   -2.0263    1.3319   -0.5656 C   0  0  0  0  0  0  0  0  0  0  0  0
   -2.2568   -0.0538   -1.1378 C   0  0  0  0  0  0  0  0  0  0  0  0
   -0.9630   -0.5653   -1.2908 O   0  0  0  0  0  0  0  0  0  0  0  0
    1.5448    1.5538    0.4958 H   0  0  0  0  0  0  0  0  0  0  0  0
    3.2605    1.1930    0.2683 H   0  0  0  0  0  0  0  0  0  0  0  0
    2.3859    0.4350    1.6178 H   0  0  0  0  0  0  0  0  0  0  0  0
    1.9118    0.0290   -1.4098 H   0  0  0  0  0  0  0  0  0  0  0  0
    3.0104   -0.9658   -0.4632 H   0  0  0  0  0  0  0  0  0  0  0  0
    1.0334   -2.2074   -0.8849 H   0  0  0  0  0  0  0  0  0  0  0  0
    1.1475   -1.9747    0.8535 H   0  0  0  0  0  0  0  0  0  0  0  0
   -1.0926   -1.8696    0.2067 H   0  0  0  0  0  0  0  0  0  0  0  0
   -1.6653   -0.3226    1.6410 H   0  0  0  0  0  0  0  0  0  0  0  0
    0.0826    0.1509    1.7166 H   0  0  0  0  0  0  0  0  0  0  0  0
   -1.0484    2.2661    1.0095 H   0  0  0  0  0  0  0  0  0  0  0  0
   -2.4496    2.2123   -1.0264 H   0  0  0  0  0  0  0  0  0  0  0  0
   -2.8720   -0.6626   -0.4434 H   0  0  0  0  0  0  0  0  0  0  0  0
   -2.7128    0.0630   -2.1400 H   0  0  0  0  0  0  0  0  0  0  0  0
  1  2  1  0
  2  3  1  0
  3  4  1  0
  4  5  1  0
  5  6  1  0
  6  7  2  0
  7  8  1  0
  8  9  1  0
  9  4  1  0
  1 10  1  0
  1 11  1  0
  1 12  1  0
  2 13  1  0
  2 14  1  0
  3 15  1  0
  3 16  1  0
  4 17  1  0
  5 18  1  0
  5 19  1  0
  6 20  1  0
  7 21  1  0
  8 22  1  0
  8 23  1  0
M  END
