
     RDKit          3D

 23 22  0  0  0  0  0  0  0  0999 V2000
    2.2117    0.9378   -0.1422 C   0  0  0  0  0  0  0  0  0  0  0  0
    1.9236   -0.5024   -0.4040 C   0  0  0  0  0  0  0  0  0  0  0  0
    0.8194   -1.0306    0.4156 C   0  0  0  0  0  0  0  0  0  0  0  0
   -0.5409   -0.4911    0.2772 C   0  0  0  0  0  0  0  0  0  0  0  0
   -1.3448   -1.2291    1.2041 O   0  0  0  0  0  0  0  0  0  0  0  0
   -1.0434   -0.8558   -1.0828 C   0  0  0  0  0  0  0  0  0  0  0  0
   -0.5858   -0.4114   -2.1049 O   0  0  0  0  0  0  0  0  0  0  0  0
   -0.7984    0.9315    0.6123 C   0  0  0  0  0  0  0  0  0  0  0  0
   -2.3231    1.1214    0.3730 C   0  0  0  0  0  0  0  0  0  0  0  0
    1.8571    1.2812    0.8380 H   0  0  0  0  0  0  0  0  0  0  0  0
    1.8203    1.5353   -0.9889 H   0  0  0  0  0  0  0  0  0  0  0  0
    3.3226    1.1456   -0.1631 H   0  0  0  0  0  0  0  0  0  0  0  0
    1.7554   -0.6945   -1.5103 H   0  0  0  0  0  0  0  0  0  0  0  0
    2.8930   -1.0619   -0.2217 H   0  0  0  0  0  0  0  0  0  0  0  0
    1.0705   -0.9981    1.5154 H   0  0  0  0  0  0  0  0  0  0  0  0
    0.7430   -2.1426    0.1619 H   0  0  0  0  0  0  0  0  0  0  0  0
   -1.0250   -2.1489    1.1770 H   0  0  0  0  0  0  0  0  0  0  0  0
   -1.8594   -1.5538   -1.1562 H   0  0  0  0  0  0  0  0  0  0  0  0
   -0.2615    1.6860    0.0096 H   0  0  0  0  0  0  0  0  0  0  0  0
   -0.6457    1.1013    1.6778 H   0  0  0  0  0  0  0  0  0  0  0  0
   -2.7971    0.3807    1.0514 H   0  0  0  0  0  0  0  0  0  0  0  0
   -2.5802    0.8430   -0.6535 H   0  0  0  0  0  0  0  0  0  0  0  0
   -2.6115    2.1565    0.5632 H   0  0  0  0  0  0  0  0  0  0  0  0
  1  2  1  0
  2  3  1  0
  3  4  1  0
  4  5  1  0
  4  6  1  0
  6  7  2  0
  4  8  1  0
  8  9  1  0
  1 10  1  0
  1 11  1  0
  1 12  1  0
  2 13  1  0
  2 14  1  0
  3 15  1  0
  3 16  1  0
  5 17  1  0
  6 18  1  0
  8 19  1  0
  8 20  1  0
  9 21  1  0
  9 22  1  0
  9 23  1  0
M  END
