
     RDKit          3D

 25 24  0  0  0  0  0  0  0  0999 V2000
   -3.3319    0.9710    0.2114 C   0  0  0  0  0  0  0  0  0  0  0  0
   -2.2541    0.0509    0.7433 C   0  0  0  0  0  0  0  0  0  0  0  0
   -1.0547    0.0143   -0.1750 C   0  0  0  0  0  0  0  0  0  0  0  0
    0.0172   -0.9060    0.3619 C   0  0  0  0  0  0  0  0  0  0  0  0
    1.1979   -0.9402   -0.5512 C   0  0  0  0  0  0  0  0  0  0  0  0
    2.2756   -1.8507   -0.0341 C   0  0  0  0  0  0  0  0  0  0  0  0
    2.3568   -2.1586    1.1431 O   0  0  0  0  0  0  0  0  0  0  0  0
    1.7282    0.3935   -0.9523 C   0  0  0  0  0  0  0  0  0  0  0  0
    2.1912    1.2608    0.1639 C   0  0  0  0  0  0  0  0  0  0  0  0
   -3.1504    1.9986    0.6182 H   0  0  0  0  0  0  0  0  0  0  0  0
   -4.3361    0.6021    0.5452 H   0  0  0  0  0  0  0  0  0  0  0  0
   -3.2653    0.9803   -0.9059 H   0  0  0  0  0  0  0  0  0  0  0  0
   -2.7120   -0.9545    0.8286 H   0  0  0  0  0  0  0  0  0  0  0  0
   -1.9991    0.3823    1.7576 H   0  0  0  0  0  0  0  0  0  0  0  0
   -0.6910    1.0459   -0.3548 H   0  0  0  0  0  0  0  0  0  0  0  0
   -1.3830   -0.4026   -1.1495 H   0  0  0  0  0  0  0  0  0  0  0  0
    0.3784   -0.5573    1.3601 H   0  0  0  0  0  0  0  0  0  0  0  0
   -0.4324   -1.9163    0.4296 H   0  0  0  0  0  0  0  0  0  0  0  0
    0.8554   -1.4388   -1.5080 H   0  0  0  0  0  0  0  0  0  0  0  0
    3.0262   -2.2699   -0.6963 H   0  0  0  0  0  0  0  0  0  0  0  0
    2.6073    0.1907   -1.6276 H   0  0  0  0  0  0  0  0  0  0  0  0
    0.9606    0.9179   -1.5267 H   0  0  0  0  0  0  0  0  0  0  0  0
    2.9760    1.9358   -0.2429 H   0  0  0  0  0  0  0  0  0  0  0  0
    2.6545    0.7247    1.0105 H   0  0  0  0  0  0  0  0  0  0  0  0
    1.3847    1.9261    0.5509 H   0  0  0  0  0  0  0  0  0  0  0  0
  1  2  1  0
  2  3  1  0
  3  4  1  0
  4  5  1  0
  5  6  1  0
  6  7  2  0
  5  8  1  0
  8  9  1  0
  1 10  1  0
  1 11  1  0
  1 12  1  0
  2 13  1  0
  2 14  1  0
  3 15  1  0
  3 16  1  0
  4 17  1  0
  4 18  1  0
  5 19  1  0
  6 20  1  0
  8 21  1  0
  8 22  1  0
  9 23  1  0
  9 24  1  0
  9 25  1  0
M  END
