
     RDKit          3D

 19 18  0  0  0  0  0  0  0  0999 V2000
   -2.7116    0.2963    0.2710 C   0  0  0  0  0  0  0  0  0  0  0  0
   -1.9693    0.2702   -1.0410 C   0  0  0  0  0  0  0  0  0  0  0  0
   -0.4726    0.4056   -0.8493 C   0  0  0  0  0  0  0  0  0  0  0  0
    0.0706   -0.6905   -0.0228 C   0  0  0  0  0  0  0  0  0  0  0  0
   -0.6668   -1.5439    0.4026 O   0  0  0  0  0  0  0  0  0  0  0  0
    1.5069   -0.7384    0.2788 C   0  0  0  0  0  0  0  0  0  0  0  0
    2.2243    0.3269   -0.2907 O   0  0  0  0  0  0  0  0  0  0  0  0
    3.6008    0.3608   -0.0544 C   0  0  0  0  0  0  0  0  0  0  0  0
    4.1516   -0.5335    0.6405 O   0  0  0  0  0  0  0  0  0  0  0  0
   -2.8598   -0.7468    0.6595 H   0  0  0  0  0  0  0  0  0  0  0  0
   -3.7165    0.7599    0.1810 H   0  0  0  0  0  0  0  0  0  0  0  0
   -2.1629    0.8847    1.0566 H   0  0  0  0  0  0  0  0  0  0  0  0
   -2.3129    1.1202   -1.6668 H   0  0  0  0  0  0  0  0  0  0  0  0
   -2.2375   -0.6630   -1.5532 H   0  0  0  0  0  0  0  0  0  0  0  0
   -0.0272    0.2980   -1.8783 H   0  0  0  0  0  0  0  0  0  0  0  0
   -0.2577    1.4130   -0.4452 H   0  0  0  0  0  0  0  0  0  0  0  0
    1.9724   -1.7139   -0.0368 H   0  0  0  0  0  0  0  0  0  0  0  0
    1.7109   -0.6919    1.3868 H   0  0  0  0  0  0  0  0  0  0  0  0
    4.1573    1.1864   -0.4957 H   0  0  0  0  0  0  0  0  0  0  0  0
  1  2  1  0
  2  3  1  0
  3  4  1  0
  4  5  2  0
  4  6  1  0
  6  7  1  0
  7  8  1  0
  8  9  2  0
  1 10  1  0
  1 11  1  0
  1 12  1  0
  2 13  1  0
  2 14  1  0
  3 15  1  0
  3 16  1  0
  6 17  1  0
  6 18  1  0
  8 19  1  0
M  END
