
     RDKit          3D

 21 20  0  0  0  0  0  0  0  0999 V2000
   -3.0126   -0.1571   -0.1577 C   0  0  0  0  0  0  0  0  0  0  0  0
   -1.8028    0.6696    0.2316 C   0  0  0  0  0  0  0  0  0  0  0  0
   -0.5998   -0.0835   -0.2471 C   0  0  0  0  0  0  0  0  0  0  0  0
    0.7060    0.5897    0.0526 C   0  0  0  0  0  0  0  0  0  0  0  0
    0.9428    0.7925    1.3842 O   0  0  0  0  0  0  0  0  0  0  0  0
    1.8033   -0.2999   -0.5410 C   0  0  0  0  0  0  0  0  0  0  0  0
    1.7454   -1.5043    0.1702 O   0  0  0  0  0  0  0  0  0  0  0  0
    3.1394    0.2914   -0.3963 C   0  0  0  0  0  0  0  0  0  0  0  0
    4.0060   -0.2558    0.2641 O   0  0  0  0  0  0  0  0  0  0  0  0
   -2.7670   -0.9256   -0.9201 H   0  0  0  0  0  0  0  0  0  0  0  0
   -3.7693    0.5117   -0.6512 H   0  0  0  0  0  0  0  0  0  0  0  0
   -3.4442   -0.7044    0.7035 H   0  0  0  0  0  0  0  0  0  0  0  0
   -1.8473    1.7003   -0.1973 H   0  0  0  0  0  0  0  0  0  0  0  0
   -1.8173    0.7894    1.3414 H   0  0  0  0  0  0  0  0  0  0  0  0
   -0.6221   -1.0844    0.2316 H   0  0  0  0  0  0  0  0  0  0  0  0
   -0.7211   -0.2454   -1.3368 H   0  0  0  0  0  0  0  0  0  0  0  0
    0.8002    1.5600   -0.4688 H   0  0  0  0  0  0  0  0  0  0  0  0
    0.2534    0.4801    1.9898 H   0  0  0  0  0  0  0  0  0  0  0  0
    1.5849   -0.4491   -1.6213 H   0  0  0  0  0  0  0  0  0  0  0  0
    2.0977   -1.3212    1.0759 H   0  0  0  0  0  0  0  0  0  0  0  0
    3.3244    1.2462   -0.9075 H   0  0  0  0  0  0  0  0  0  0  0  0
  1  2  1  0
  2  3  1  0
  3  4  1  0
  4  5  1  0
  4  6  1  0
  6  7  1  0
  6  8  1  0
  8  9  2  0
  1 10  1  0
  1 11  1  0
  1 12  1  0
  2 13  1  0
  2 14  1  0
  3 15  1  0
  3 16  1  0
  4 17  1  0
  5 18  1  0
  6 19  1  0
  7 20  1  0
  8 21  1  0
M  END
