
     RDKit          3D

 23 24  0  0  0  0  0  0  0  0999 V2000
    3.4838   -0.1479    0.4762 C   0  0  0  0  0  0  0  0  0  0  0  0
    2.3023    0.5036   -0.2080 C   0  0  0  0  0  0  0  0  0  0  0  0
    0.9864   -0.0410    0.3570 C   0  0  0  0  0  0  0  0  0  0  0  0
   -0.1957    0.5871   -0.3027 C   0  0  0  0  0  0  0  0  0  0  0  0
   -1.4091    0.1325    0.1686 C   0  0  0  0  0  0  0  0  0  0  0  0
   -2.7644    0.5873   -0.3108 C   0  0  0  0  0  0  0  0  0  0  0  0
   -2.9640   -0.3685    0.8328 C   0  0  0  0  0  0  0  0  0  0  0  0
   -1.9316   -1.2421    0.1892 C   0  0  0  0  0  0  0  0  0  0  0  0
   -1.9137    0.2910    1.4461 O   0  0  0  0  0  0  0  0  0  0  0  0
    4.3791    0.4974    0.3132 H   0  0  0  0  0  0  0  0  0  0  0  0
    3.3252   -0.2903    1.5506 H   0  0  0  0  0  0  0  0  0  0  0  0
    3.6515   -1.1738    0.0453 H   0  0  0  0  0  0  0  0  0  0  0  0
    2.3284    0.3273   -1.2931 H   0  0  0  0  0  0  0  0  0  0  0  0
    2.3891    1.5897   -0.0394 H   0  0  0  0  0  0  0  0  0  0  0  0
    1.0166   -1.1447    0.2334 H   0  0  0  0  0  0  0  0  0  0  0  0
    1.0074    0.2029    1.4430 H   0  0  0  0  0  0  0  0  0  0  0  0
   -0.0846    0.4127   -1.4106 H   0  0  0  0  0  0  0  0  0  0  0  0
   -0.0773    1.6955   -0.1958 H   0  0  0  0  0  0  0  0  0  0  0  0
   -3.0728    0.2191   -1.2861 H   0  0  0  0  0  0  0  0  0  0  0  0
   -2.9749    1.6363   -0.0699 H   0  0  0  0  0  0  0  0  0  0  0  0
   -3.8392   -0.6491    1.2407 H   0  0  0  0  0  0  0  0  0  0  0  0
   -1.4206   -1.9296    0.8826 H   0  0  0  0  0  0  0  0  0  0  0  0
   -2.2220   -1.6953   -0.7874 H   0  0  0  0  0  0  0  0  0  0  0  0
  1  2  1  0
  2  3  1  0
  3  4  1  0
  4  5  1  0
  5  6  1  0
  6  7  1  0
  7  8  1  0
  7  9  1  0
  8  5  1  0
  9  5  1  0
  1 10  1  0
  1 11  1  0
  1 12  1  0
  2 13  1  0
  2 14  1  0
  3 15  1  0
  3 16  1  0
  4 17  1  0
  4 18  1  0
  6 19  1  0
  6 20  1  0
  7 21  1  0
  8 22  1  0
  8 23  1  0
M  END
