
     RDKit          3D

 23 22  0  0  0  0  0  0  0  0999 V2000
    1.5169   -1.6598   -0.2729 C   0  0  0  0  0  0  0  0  0  0  0  0
    1.8570   -0.3076    0.2546 C   0  0  0  0  0  0  0  0  0  0  0  0
    1.2431    0.8461   -0.4407 C   0  0  0  0  0  0  0  0  0  0  0  0
   -0.2367    0.9452   -0.4610 C   0  0  0  0  0  0  0  0  0  0  0  0
   -0.5506    2.2107   -1.2471 C   0  0  0  0  0  0  0  0  0  0  0  0
   -1.2054    3.1076   -0.7613 O   0  0  0  0  0  0  0  0  0  0  0  0
   -0.8331    1.1132    0.7724 O   0  0  0  0  0  0  0  0  0  0  0  0
   -1.9081    0.2706    0.9717 C   0  0  0  0  0  0  0  0  0  0  0  0
   -1.5974   -1.1857    0.9179 C   0  0  0  0  0  0  0  0  0  0  0  0
    2.3926   -2.1475   -0.7969 H   0  0  0  0  0  0  0  0  0  0  0  0
    1.2491   -2.3589    0.5328 H   0  0  0  0  0  0  0  0  0  0  0  0
    0.7354   -1.5486   -1.0502 H   0  0  0  0  0  0  0  0  0  0  0  0
    1.7051   -0.3084    1.3567 H   0  0  0  0  0  0  0  0  0  0  0  0
    2.9755   -0.1850    0.1376 H   0  0  0  0  0  0  0  0  0  0  0  0
    1.7107    1.7726   -0.0246 H   0  0  0  0  0  0  0  0  0  0  0  0
    1.5857    0.8052   -1.5122 H   0  0  0  0  0  0  0  0  0  0  0  0
   -0.7126    0.1467   -1.0321 H   0  0  0  0  0  0  0  0  0  0  0  0
   -0.1949    2.3376   -2.2597 H   0  0  0  0  0  0  0  0  0  0  0  0
   -2.6837    0.4679    0.1958 H   0  0  0  0  0  0  0  0  0  0  0  0
   -2.4090    0.4972    1.9369 H   0  0  0  0  0  0  0  0  0  0  0  0
   -0.7222   -1.4568    1.5514 H   0  0  0  0  0  0  0  0  0  0  0  0
   -2.4486   -1.7942    1.3432 H   0  0  0  0  0  0  0  0  0  0  0  0
   -1.4688   -1.5681   -0.1122 H   0  0  0  0  0  0  0  0  0  0  0  0
  1  2  1  0
  2  3  1  0
  3  4  1  0
  4  5  1  0
  5  6  2  0
  4  7  1  0
  7  8  1  0
  8  9  1  0
  1 10  1  0
  1 11  1  0
  1 12  1  0
  2 13  1  0
  2 14  1  0
  3 15  1  0
  3 16  1  0
  4 17  1  0
  5 18  1  0
  8 19  1  0
  8 20  1  0
  9 21  1  0
  9 22  1  0
  9 23  1  0
M  END
