
     RDKit          3D

 23 24  0  0  0  0  0  0  0  0999 V2000
   -2.6283    0.6360   -0.5159 C   0  0  0  0  0  0  0  0  0  0  0  0
   -2.4016   -0.7256    0.0699 C   0  0  0  0  0  0  0  0  0  0  0  0
   -1.0205   -0.9043    0.6446 C   0  0  0  0  0  0  0  0  0  0  0  0
    0.0720   -0.7214   -0.3578 C   0  0  0  0  0  0  0  0  0  0  0  0
    1.4238   -0.9219    0.3186 C   0  0  0  0  0  0  0  0  0  0  0  0
    1.6876    0.5557    0.1809 C   0  0  0  0  0  0  0  0  0  0  0  0
    3.0351    1.0610   -0.1795 C   0  0  0  0  0  0  0  0  0  0  0  0
    0.7005    1.4792    0.4136 O   0  0  0  0  0  0  0  0  0  0  0  0
    0.5011    0.6695   -0.6651 C   0  0  0  0  0  0  0  0  0  0  0  0
   -2.3896    0.6818   -1.6107 H   0  0  0  0  0  0  0  0  0  0  0  0
   -3.7088    0.9541   -0.4306 H   0  0  0  0  0  0  0  0  0  0  0  0
   -2.0230    1.3673    0.0558 H   0  0  0  0  0  0  0  0  0  0  0  0
   -2.5413   -1.4911   -0.7170 H   0  0  0  0  0  0  0  0  0  0  0  0
   -3.1777   -0.8948    0.8430 H   0  0  0  0  0  0  0  0  0  0  0  0
   -0.9665   -1.9700    0.9961 H   0  0  0  0  0  0  0  0  0  0  0  0
   -0.8556   -0.2823    1.5238 H   0  0  0  0  0  0  0  0  0  0  0  0
   -0.0481   -1.3410   -1.2688 H   0  0  0  0  0  0  0  0  0  0  0  0
    1.3771   -1.1992    1.3808 H   0  0  0  0  0  0  0  0  0  0  0  0
    2.0938   -1.5592   -0.2764 H   0  0  0  0  0  0  0  0  0  0  0  0
    3.1193    1.4710   -1.2006 H   0  0  0  0  0  0  0  0  0  0  0  0
    3.7807    0.2426   -0.0373 H   0  0  0  0  0  0  0  0  0  0  0  0
    3.3110    1.8771    0.5231 H   0  0  0  0  0  0  0  0  0  0  0  0
    0.6592    1.0155   -1.6995 H   0  0  0  0  0  0  0  0  0  0  0  0
  1  2  1  0
  2  3  1  0
  3  4  1  0
  4  5  1  0
  5  6  1  0
  6  7  1  0
  6  8  1  0
  8  9  1  0
  9  4  1  0
  9  6  1  0
  1 10  1  0
  1 11  1  0
  1 12  1  0
  2 13  1  0
  2 14  1  0
  3 15  1  0
  3 16  1  0
  4 17  1  0
  5 18  1  0
  5 19  1  0
  7 20  1  0
  7 21  1  0
  7 22  1  0
  9 23  1  0
M  END
