
     RDKit          3D

 23 22  0  0  0  0  0  0  0  0999 V2000
    3.4181    0.5351   -0.3917 C   0  0  0  0  0  0  0  0  0  0  0  0
    2.8571    0.1664    0.9647 C   0  0  0  0  0  0  0  0  0  0  0  0
    1.3208    0.1979    0.9271 C   0  0  0  0  0  0  0  0  0  0  0  0
    0.9039   -0.8053   -0.1134 C   0  0  0  0  0  0  0  0  0  0  0  0
   -0.5701   -0.7839   -0.1584 C   0  0  0  0  0  0  0  0  0  0  0  0
   -1.7771   -0.7533   -0.2119 C   0  0  0  0  0  0  0  0  0  0  0  0
   -3.2465   -0.7347   -0.2647 C   0  0  0  0  0  0  0  0  0  0  0  0
   -3.6833    0.2822    0.7948 C   0  0  0  0  0  0  0  0  0  0  0  0
   -3.1399    1.5078    0.4664 O   0  0  0  0  0  0  0  0  0  0  0  0
    2.8365    1.3942   -0.8099 H   0  0  0  0  0  0  0  0  0  0  0  0
    4.4943    0.8031   -0.2483 H   0  0  0  0  0  0  0  0  0  0  0  0
    3.4034   -0.3485   -1.0634 H   0  0  0  0  0  0  0  0  0  0  0  0
    3.2158    0.8567    1.7604 H   0  0  0  0  0  0  0  0  0  0  0  0
    3.2210   -0.8356    1.2333 H   0  0  0  0  0  0  0  0  0  0  0  0
    0.9584    1.2161    0.7431 H   0  0  0  0  0  0  0  0  0  0  0  0
    0.9092   -0.1265    1.9049 H   0  0  0  0  0  0  0  0  0  0  0  0
    1.3142   -0.4945   -1.0951 H   0  0  0  0  0  0  0  0  0  0  0  0
    1.2803   -1.7960    0.2190 H   0  0  0  0  0  0  0  0  0  0  0  0
   -3.6783   -1.7316   -0.0701 H   0  0  0  0  0  0  0  0  0  0  0  0
   -3.6180   -0.3914   -1.2513 H   0  0  0  0  0  0  0  0  0  0  0  0
   -3.4695   -0.0662    1.8032 H   0  0  0  0  0  0  0  0  0  0  0  0
   -4.7976    0.3986    0.7232 H   0  0  0  0  0  0  0  0  0  0  0  0
   -2.1526    1.5093    0.4553 H   0  0  0  0  0  0  0  0  0  0  0  0
  1  2  1  0
  2  3  1  0
  3  4  1  0
  4  5  1  0
  5  6  3  0
  6  7  1  0
  7  8  1  0
  8  9  1  0
  1 10  1  0
  1 11  1  0
  1 12  1  0
  2 13  1  0
  2 14  1  0
  3 15  1  0
  3 16  1  0
  4 17  1  0
  4 18  1  0
  7 19  1  0
  7 20  1  0
  8 21  1  0
  8 22  1  0
  9 23  1  0
M  END
