
     RDKit          3D

 24 23  0  0  0  0  0  0  0  0999 V2000
    2.5887    0.5918    0.1542 C   0  0  0  0  0  0  0  0  0  0  0  0
    1.6948   -0.2011    1.0837 C   0  0  0  0  0  0  0  0  0  0  0  0
    0.5906   -0.9088    0.3454 C   0  0  0  0  0  0  0  0  0  0  0  0
   -0.3120    0.0268   -0.4010 C   0  0  0  0  0  0  0  0  0  0  0  0
   -1.3700   -0.8445   -1.0904 C   0  0  0  0  0  0  0  0  0  0  0  0
   -2.1660   -1.6384   -0.0988 C   0  0  0  0  0  0  0  0  0  0  0  0
   -0.9809    0.9054    0.4363 O   0  0  0  0  0  0  0  0  0  0  0  0
   -0.8471    2.2253    0.0580 C   0  0  0  0  0  0  0  0  0  0  0  0
    2.4500    1.6917    0.2694 H   0  0  0  0  0  0  0  0  0  0  0  0
    2.3945    0.2797   -0.8963 H   0  0  0  0  0  0  0  0  0  0  0  0
    3.6659    0.3992    0.4086 H   0  0  0  0  0  0  0  0  0  0  0  0
    1.3191    0.4154    1.9165 H   0  0  0  0  0  0  0  0  0  0  0  0
    2.3218   -1.0001    1.5567 H   0  0  0  0  0  0  0  0  0  0  0  0
   -0.0174   -1.4424    1.1005 H   0  0  0  0  0  0  0  0  0  0  0  0
    1.0248   -1.6123   -0.3788 H   0  0  0  0  0  0  0  0  0  0  0  0
    0.2077    0.5598   -1.2227 H   0  0  0  0  0  0  0  0  0  0  0  0
   -2.0349   -0.2128   -1.7221 H   0  0  0  0  0  0  0  0  0  0  0  0
   -0.8759   -1.5606   -1.7752 H   0  0  0  0  0  0  0  0  0  0  0  0
   -2.1949   -1.0489    0.8472 H   0  0  0  0  0  0  0  0  0  0  0  0
   -1.7987   -2.6633    0.0588 H   0  0  0  0  0  0  0  0  0  0  0  0
   -3.2050   -1.7388   -0.4967 H   0  0  0  0  0  0  0  0  0  0  0  0
   -1.4189    2.8350    0.7936 H   0  0  0  0  0  0  0  0  0  0  0  0
   -1.2531    2.4071   -0.9699 H   0  0  0  0  0  0  0  0  0  0  0  0
    0.2167    2.5347    0.0229 H   0  0  0  0  0  0  0  0  0  0  0  0
  1  2  1  0
  2  3  1  0
  3  4  1  0
  4  5  1  0
  5  6  1  0
  4  7  1  0
  7  8  1  0
  1  9  1  0
  1 10  1  0
  1 11  1  0
  2 12  1  0
  2 13  1  0
  3 14  1  0
  3 15  1  0
  4 16  1  0
  5 17  1  0
  5 18  1  0
  6 19  1  0
  6 20  1  0
  6 21  1  0
  8 22  1  0
  8 23  1  0
  8 24  1  0
M  END
