
     RDKit          3D

 23 23  0  0  0  0  0  0  0  0999 V2000
    2.3769    0.1177   -0.5546 C   0  0  0  0  0  0  0  0  0  0  0  0
    1.9815   -0.9093    0.4622 C   0  0  0  0  0  0  0  0  0  0  0  0
    0.9144   -0.3793    1.3617 C   0  0  0  0  0  0  0  0  0  0  0  0
   -0.3372    0.0164    0.6563 C   0  0  0  0  0  0  0  0  0  0  0  0
   -0.9830   -1.1313   -0.0874 C   0  0  0  0  0  0  0  0  0  0  0  0
   -2.2872   -0.7816   -0.2916 O   0  0  0  0  0  0  0  0  0  0  0  0
   -2.5221    0.5157   -0.6208 C   0  0  0  0  0  0  0  0  0  0  0  0
   -1.3731    1.4090   -0.8006 C   0  0  0  0  0  0  0  0  0  0  0  0
   -0.1889    1.0437   -0.2394 O   0  0  0  0  0  0  0  0  0  0  0  0
    3.4753    0.0858   -0.7637 H   0  0  0  0  0  0  0  0  0  0  0  0
    1.8753   -0.0404   -1.5338 H   0  0  0  0  0  0  0  0  0  0  0  0
    2.1519    1.1437   -0.2124 H   0  0  0  0  0  0  0  0  0  0  0  0
    2.8871   -1.0951    1.1035 H   0  0  0  0  0  0  0  0  0  0  0  0
    1.7363   -1.8925    0.0163 H   0  0  0  0  0  0  0  0  0  0  0  0
    0.6471   -1.1124    2.1499 H   0  0  0  0  0  0  0  0  0  0  0  0
    1.3115    0.5083    1.8813 H   0  0  0  0  0  0  0  0  0  0  0  0
   -1.0642    0.3604    1.4367 H   0  0  0  0  0  0  0  0  0  0  0  0
   -0.5110   -1.2919   -1.0875 H   0  0  0  0  0  0  0  0  0  0  0  0
   -0.9174   -2.0374    0.5239 H   0  0  0  0  0  0  0  0  0  0  0  0
   -3.1773    0.5186   -1.5416 H   0  0  0  0  0  0  0  0  0  0  0  0
   -3.1923    0.9508    0.1790 H   0  0  0  0  0  0  0  0  0  0  0  0
   -1.6088    2.4559   -0.4459 H   0  0  0  0  0  0  0  0  0  0  0  0
   -1.1947    1.5452   -1.9084 H   0  0  0  0  0  0  0  0  0  0  0  0
  1  2  1  0
  2  3  1  0
  3  4  1  0
  4  5  1  0
  5  6  1  0
  6  7  1  0
  7  8  1  0
  8  9  1  0
  9  4  1  0
  1 10  1  0
  1 11  1  0
  1 12  1  0
  2 13  1  0
  2 14  1  0
  3 15  1  0
  3 16  1  0
  4 17  1  0
  5 18  1  0
  5 19  1  0
  7 20  1  0
  7 21  1  0
  8 22  1  0
  8 23  1  0
M  END
