
     RDKit          3D

 25 24  0  0  0  0  0  0  0  0999 V2000
    3.0363   -0.6387    0.1901 C   0  0  0  0  0  0  0  0  0  0  0  0
    1.8376    0.2220   -0.2341 C   0  0  0  0  0  0  0  0  0  0  0  0
    0.6208   -0.4309    0.3387 C   0  0  0  0  0  0  0  0  0  0  0  0
   -0.6517    0.3221   -0.0059 C   0  0  0  0  0  0  0  0  0  0  0  0
   -0.5502    1.5959    0.5067 O   0  0  0  0  0  0  0  0  0  0  0  0
   -0.5917    2.5855   -0.4594 C   0  0  0  0  0  0  0  0  0  0  0  0
   -1.8626   -0.3344    0.5739 C   0  0  0  0  0  0  0  0  0  0  0  0
   -2.0779   -1.7354    0.0653 C   0  0  0  0  0  0  0  0  0  0  0  0
   -1.7651   -0.4041    1.9651 O   0  0  0  0  0  0  0  0  0  0  0  0
    3.9736   -0.2027   -0.1833 H   0  0  0  0  0  0  0  0  0  0  0  0
    3.0982   -0.6726    1.2965 H   0  0  0  0  0  0  0  0  0  0  0  0
    2.8664   -1.6791   -0.1507 H   0  0  0  0  0  0  0  0  0  0  0  0
    1.7587    0.2500   -1.3394 H   0  0  0  0  0  0  0  0  0  0  0  0
    1.9903    1.2576    0.1033 H   0  0  0  0  0  0  0  0  0  0  0  0
    0.5845   -1.4730   -0.0568 H   0  0  0  0  0  0  0  0  0  0  0  0
    0.7219   -0.5168    1.4478 H   0  0  0  0  0  0  0  0  0  0  0  0
   -0.7504    0.2949   -1.1110 H   0  0  0  0  0  0  0  0  0  0  0  0
   -1.5301    2.5780   -1.0453 H   0  0  0  0  0  0  0  0  0  0  0  0
   -0.5647    3.5626    0.0834 H   0  0  0  0  0  0  0  0  0  0  0  0
    0.2537    2.5833   -1.1496 H   0  0  0  0  0  0  0  0  0  0  0  0
   -2.7626    0.2577    0.3123 H   0  0  0  0  0  0  0  0  0  0  0  0
   -1.5469   -2.4974    0.6811 H   0  0  0  0  0  0  0  0  0  0  0  0
   -1.8357   -1.8363   -1.0143 H   0  0  0  0  0  0  0  0  0  0  0  0
   -3.1596   -1.9613    0.1719 H   0  0  0  0  0  0  0  0  0  0  0  0
   -1.0928   -1.1270    2.1632 H   0  0  0  0  0  0  0  0  0  0  0  0
  1  2  1  0
  2  3  1  0
  3  4  1  0
  4  5  1  0
  5  6  1  0
  4  7  1  0
  7  8  1  0
  7  9  1  0
  1 10  1  0
  1 11  1  0
  1 12  1  0
  2 13  1  0
  2 14  1  0
  3 15  1  0
  3 16  1  0
  4 17  1  0
  6 18  1  0
  6 19  1  0
  6 20  1  0
  7 21  1  0
  8 22  1  0
  8 23  1  0
  8 24  1  0
  9 25  1  0
M  END
