
     RDKit          3D

 23 24  0  0  0  0  0  0  0  0999 V2000
    2.0496    0.9610   -0.6278 C   0  0  0  0  0  0  0  0  0  0  0  0
    1.7688   -0.5068   -0.8618 C   0  0  0  0  0  0  0  0  0  0  0  0
    0.9502   -1.1501    0.1810 C   0  0  0  0  0  0  0  0  0  0  0  0
   -0.3878   -0.6498    0.4370 C   0  0  0  0  0  0  0  0  0  0  0  0
   -1.3609   -0.6948   -0.7356 C   0  0  0  0  0  0  0  0  0  0  0  0
   -1.5340    0.8139   -0.5862 C   0  0  0  0  0  0  0  0  0  0  0  0
   -0.7686    0.7162    0.7096 C   0  0  0  0  0  0  0  0  0  0  0  0
   -1.6641    0.1869    1.8104 C   0  0  0  0  0  0  0  0  0  0  0  0
   -0.9875   -1.0412    1.6538 O   0  0  0  0  0  0  0  0  0  0  0  0
    3.0380    1.2538   -1.0930 H   0  0  0  0  0  0  0  0  0  0  0  0
    1.2512    1.6233   -1.0058 H   0  0  0  0  0  0  0  0  0  0  0  0
    2.2057    1.1097    0.4582 H   0  0  0  0  0  0  0  0  0  0  0  0
    1.3973   -0.6359   -1.8954 H   0  0  0  0  0  0  0  0  0  0  0  0
    2.7841   -1.0045   -0.8620 H   0  0  0  0  0  0  0  0  0  0  0  0
    1.5373   -1.0914    1.1468 H   0  0  0  0  0  0  0  0  0  0  0  0
    0.8913   -2.2524   -0.0145 H   0  0  0  0  0  0  0  0  0  0  0  0
   -2.2388   -1.2946   -0.4631 H   0  0  0  0  0  0  0  0  0  0  0  0
   -0.8687   -1.0106   -1.6710 H   0  0  0  0  0  0  0  0  0  0  0  0
   -2.6136    1.0374   -0.4666 H   0  0  0  0  0  0  0  0  0  0  0  0
   -1.1081    1.4235   -1.3792 H   0  0  0  0  0  0  0  0  0  0  0  0
   -0.0963    1.5101    0.9674 H   0  0  0  0  0  0  0  0  0  0  0  0
   -2.7181    0.0368    1.4981 H   0  0  0  0  0  0  0  0  0  0  0  0
   -1.5270    0.6596    2.7996 H   0  0  0  0  0  0  0  0  0  0  0  0
  1  2  1  0
  2  3  1  0
  3  4  1  0
  4  5  1  0
  5  6  1  0
  6  7  1  0
  7  8  1  0
  8  9  1  0
  7  4  1  0
  9  4  1  0
  1 10  1  0
  1 11  1  0
  1 12  1  0
  2 13  1  0
  2 14  1  0
  3 15  1  0
  3 16  1  0
  5 17  1  0
  5 18  1  0
  6 19  1  0
  6 20  1  0
  7 21  1  0
  8 22  1  0
  8 23  1  0
M  END
