
     RDKit          3D

 19 20  0  0  0  0  0  0  0  0999 V2000
   -2.7025   -0.2677    0.3772 C   0  0  0  0  0  0  0  0  0  0  0  0
   -1.3286   -0.0852   -0.2814 C   0  0  0  0  0  0  0  0  0  0  0  0
   -0.3752    0.2871    0.8218 C   0  0  0  0  0  0  0  0  0  0  0  0
    1.0197    0.5074    0.3753 C   0  0  0  0  0  0  0  0  0  0  0  0
    1.7840   -0.6339   -0.3040 C   0  0  0  0  0  0  0  0  0  0  0  0
    2.5500    0.4185   -1.0032 C   0  0  0  0  0  0  0  0  0  0  0  0
    3.5001    0.4644   -1.7300 O   0  0  0  0  0  0  0  0  0  0  0  0
    1.6304    1.4128   -0.4154 C   0  0  0  0  0  0  0  0  0  0  0  0
    1.7547    1.4771    1.0205 O   0  0  0  0  0  0  0  0  0  0  0  0
   -2.5694   -0.7298    1.3983 H   0  0  0  0  0  0  0  0  0  0  0  0
   -3.1818    0.7238    0.4935 H   0  0  0  0  0  0  0  0  0  0  0  0
   -3.3601   -0.8954   -0.2446 H   0  0  0  0  0  0  0  0  0  0  0  0
   -1.0332   -1.0064   -0.8226 H   0  0  0  0  0  0  0  0  0  0  0  0
   -1.4146    0.7132   -1.0482 H   0  0  0  0  0  0  0  0  0  0  0  0
   -0.7564    1.1682    1.3261 H   0  0  0  0  0  0  0  0  0  0  0  0
   -0.3689   -0.5893    1.5343 H   0  0  0  0  0  0  0  0  0  0  0  0
    2.3325   -1.2321    0.4373 H   0  0  0  0  0  0  0  0  0  0  0  0
    1.1389   -1.1857   -1.0121 H   0  0  0  0  0  0  0  0  0  0  0  0
    1.3804    2.3396   -0.9226 H   0  0  0  0  0  0  0  0  0  0  0  0
  1  2  1  0
  2  3  1  0
  3  4  1  0
  4  5  1  0
  5  6  1  0
  6  7  2  0
  6  8  1  0
  8  9  1  0
  8  4  1  0
  9  4  1  0
  1 10  1  0
  1 11  1  0
  1 12  1  0
  2 13  1  0
  2 14  1  0
  3 15  1  0
  3 16  1  0
  5 17  1  0
  5 18  1  0
  8 19  1  0
M  END
