
     RDKit          3D

 24 23  0  0  0  0  0  0  0  0999 V2000
   -3.0173   -0.8514    0.4850 C   0  0  0  0  0  0  0  0  0  0  0  0
   -1.7753   -0.0451    0.8036 C   0  0  0  0  0  0  0  0  0  0  0  0
   -1.3735    0.7515   -0.4108 C   0  0  0  0  0  0  0  0  0  0  0  0
   -0.1398    1.5816   -0.1660 C   0  0  0  0  0  0  0  0  0  0  0  0
    1.0564    0.7541    0.2069 C   0  0  0  0  0  0  0  0  0  0  0  0
    1.4244   -0.2450   -0.8792 C   0  0  0  0  0  0  0  0  0  0  0  0
    2.6443   -1.0149   -0.3796 C   0  0  0  0  0  0  0  0  0  0  0  0
    3.7012   -0.1698   -0.1427 O   0  0  0  0  0  0  0  0  0  0  0  0
   -3.6296   -1.0280    1.3984 H   0  0  0  0  0  0  0  0  0  0  0  0
   -2.7360   -1.7992    0.0026 H   0  0  0  0  0  0  0  0  0  0  0  0
   -3.6498   -0.2143   -0.1931 H   0  0  0  0  0  0  0  0  0  0  0  0
   -2.0702    0.6948    1.5962 H   0  0  0  0  0  0  0  0  0  0  0  0
   -0.9644   -0.7143    1.1462 H   0  0  0  0  0  0  0  0  0  0  0  0
   -1.3058    0.1355   -1.3254 H   0  0  0  0  0  0  0  0  0  0  0  0
   -2.2068    1.4774   -0.6013 H   0  0  0  0  0  0  0  0  0  0  0  0
   -0.3480    2.2594    0.6823 H   0  0  0  0  0  0  0  0  0  0  0  0
    0.1044    2.1774   -1.0565 H   0  0  0  0  0  0  0  0  0  0  0  0
    1.9203    1.4465    0.2932 H   0  0  0  0  0  0  0  0  0  0  0  0
    0.9422    0.2382    1.1789 H   0  0  0  0  0  0  0  0  0  0  0  0
    1.7682    0.3332   -1.7558 H   0  0  0  0  0  0  0  0  0  0  0  0
    0.6091   -0.9274   -1.1214 H   0  0  0  0  0  0  0  0  0  0  0  0
    2.3704   -1.4872    0.5924 H   0  0  0  0  0  0  0  0  0  0  0  0
    2.9250   -1.7693   -1.1412 H   0  0  0  0  0  0  0  0  0  0  0  0
    3.7506    0.1405    0.7873 H   0  0  0  0  0  0  0  0  0  0  0  0
  1  2  1  0
  2  3  1  0
  3  4  1  0
  4  5  1  0
  5  6  1  0
  6  7  1  0
  7  8  1  0
  1  9  1  0
  1 10  1  0
  1 11  1  0
  2 12  1  0
  2 13  1  0
  3 14  1  0
  3 15  1  0
  4 16  1  0
  4 17  1  0
  5 18  1  0
  5 19  1  0
  6 20  1  0
  6 21  1  0
  7 22  1  0
  7 23  1  0
  8 24  1  0
M  END
