
     RDKit          3D

 22 22  0  0  0  0  0  0  0  0999 V2000
   -2.6847   -1.3264    0.6378 C   0  0  0  0  0  0  0  0  0  0  0  0
   -1.8598   -0.1665    0.0612 C   0  0  0  0  0  0  0  0  0  0  0  0
   -0.4151   -0.3941    0.4295 C   0  0  0  0  0  0  0  0  0  0  0  0
    0.5304    0.6337   -0.0558 C   0  0  0  0  0  0  0  0  0  0  0  0
    2.0013    0.5397    0.2319 C   0  0  0  0  0  0  0  0  0  0  0  0
    2.6374   -0.7076   -0.3172 C   0  0  0  0  0  0  0  0  0  0  0  0
    0.0267    2.0536   -0.1565 C   0  0  0  0  0  0  0  0  0  0  0  0
    0.1845    1.2816   -1.3221 O   0  0  0  0  0  0  0  0  0  0  0  0
   -3.7599   -1.0695    0.6804 H   0  0  0  0  0  0  0  0  0  0  0  0
   -2.5111   -2.2185    0.0041 H   0  0  0  0  0  0  0  0  0  0  0  0
   -2.3071   -1.5684    1.6502 H   0  0  0  0  0  0  0  0  0  0  0  0
   -2.0124   -0.1593   -1.0363 H   0  0  0  0  0  0  0  0  0  0  0  0
   -2.2675    0.7893    0.4486 H   0  0  0  0  0  0  0  0  0  0  0  0
   -0.3447   -0.4470    1.5541 H   0  0  0  0  0  0  0  0  0  0  0  0
   -0.1599   -1.4198    0.0881 H   0  0  0  0  0  0  0  0  0  0  0  0
    2.5185    1.4522   -0.1297 H   0  0  0  0  0  0  0  0  0  0  0  0
    2.1398    0.5398    1.3441 H   0  0  0  0  0  0  0  0  0  0  0  0
    2.0634   -1.1644   -1.1486 H   0  0  0  0  0  0  0  0  0  0  0  0
    2.8635   -1.4346    0.4974 H   0  0  0  0  0  0  0  0  0  0  0  0
    3.6223   -0.4156   -0.7389 H   0  0  0  0  0  0  0  0  0  0  0  0
   -1.0102    2.3083    0.0459 H   0  0  0  0  0  0  0  0  0  0  0  0
    0.7445    2.8937   -0.0461 H   0  0  0  0  0  0  0  0  0  0  0  0
  1  2  1  0
  2  3  1  0
  3  4  1  0
  4  5  1  0
  5  6  1  0
  4  7  1  0
  7  8  1  0
  8  4  1  0
  1  9  1  0
  1 10  1  0
  1 11  1  0
  2 12  1  0
  2 13  1  0
  3 14  1  0
  3 15  1  0
  5 16  1  0
  5 17  1  0
  6 18  1  0
  6 19  1  0
  6 20  1  0
  7 21  1  0
  7 22  1  0
M  END
