
     RDKit          3D

 25 26  0  0  0  0  0  0  0  0999 V2000
    2.9451    0.9846   -0.3679 C   0  0  0  0  0  0  0  0  0  0  0  0
    2.6335   -0.4273    0.0804 C   0  0  0  0  0  0  0  0  0  0  0  0
    1.1855   -0.7920   -0.1176 C   0  0  0  0  0  0  0  0  0  0  0  0
    0.2595    0.1188    0.6585 C   0  0  0  0  0  0  0  0  0  0  0  0
   -1.1504   -0.3078    0.4091 C   0  0  0  0  0  0  0  0  0  0  0  0
   -2.1994    0.4961    1.1085 C   0  0  0  0  0  0  0  0  0  0  0  0
   -2.8777    0.7393   -0.1995 C   0  0  0  0  0  0  0  0  0  0  0  0
   -1.8255   -0.0583   -0.8932 C   0  0  0  0  0  0  0  0  0  0  0  0
   -1.4830   -1.4377   -0.4680 C   0  0  0  0  0  0  0  0  0  0  0  0
    2.3646    1.6743    0.2542 H   0  0  0  0  0  0  0  0  0  0  0  0
    2.6359    1.1172   -1.4235 H   0  0  0  0  0  0  0  0  0  0  0  0
    4.0416    1.1128   -0.2785 H   0  0  0  0  0  0  0  0  0  0  0  0
    2.9748   -0.5962    1.1084 H   0  0  0  0  0  0  0  0  0  0  0  0
    3.2279   -1.1028   -0.5711 H   0  0  0  0  0  0  0  0  0  0  0  0
    1.0541   -1.8454    0.1230 H   0  0  0  0  0  0  0  0  0  0  0  0
    0.9595   -0.6503   -1.1923 H   0  0  0  0  0  0  0  0  0  0  0  0
    0.3943    1.1527    0.3417 H   0  0  0  0  0  0  0  0  0  0  0  0
    0.4924   -0.0298    1.7361 H   0  0  0  0  0  0  0  0  0  0  0  0
   -2.8529   -0.0599    1.8097 H   0  0  0  0  0  0  0  0  0  0  0  0
   -1.8244    1.4078    1.5836 H   0  0  0  0  0  0  0  0  0  0  0  0
   -2.8410    1.8152   -0.5011 H   0  0  0  0  0  0  0  0  0  0  0  0
   -3.9068    0.3590   -0.2614 H   0  0  0  0  0  0  0  0  0  0  0  0
   -1.2940    0.3978   -1.7348 H   0  0  0  0  0  0  0  0  0  0  0  0
   -2.2725   -2.1659   -0.1946 H   0  0  0  0  0  0  0  0  0  0  0  0
   -0.6412   -1.9021   -1.0098 H   0  0  0  0  0  0  0  0  0  0  0  0
  1  2  1  0
  2  3  1  0
  3  4  1  0
  4  5  1  0
  5  6  1  0
  6  7  1  0
  7  8  1  0
  8  9  1  0
  8  5  1  0
  9  5  1  0
  1 10  1  0
  1 11  1  0
  1 12  1  0
  2 13  1  0
  2 14  1  0
  3 15  1  0
  3 16  1  0
  4 17  1  0
  4 18  1  0
  6 19  1  0
  6 20  1  0
  7 21  1  0
  7 22  1  0
  8 23  1  0
  9 24  1  0
  9 25  1  0
M  END
