
     RDKit          3D

 22 22  0  0  0  0  0  0  0  0999 V2000
    2.6316   -0.3473    0.2588 C   0  0  0  0  0  0  0  0  0  0  0  0
    1.9509    0.4229   -0.8471 C   0  0  0  0  0  0  0  0  0  0  0  0
    0.6100   -0.2179   -1.2240 C   0  0  0  0  0  0  0  0  0  0  0  0
   -0.3056   -0.2372   -0.0231 C   0  0  0  0  0  0  0  0  0  0  0  0
    0.1482   -0.9380    1.0818 O   0  0  0  0  0  0  0  0  0  0  0  0
   -1.0295    1.0665    0.2087 C   0  0  0  0  0  0  0  0  0  0  0  0
   -1.7498   -0.1943   -0.2710 C   0  0  0  0  0  0  0  0  0  0  0  0
   -2.7633   -0.7028    0.7111 C   0  0  0  0  0  0  0  0  0  0  0  0
    2.3087   -1.4063    0.3026 H   0  0  0  0  0  0  0  0  0  0  0  0
    2.3347    0.0956    1.2457 H   0  0  0  0  0  0  0  0  0  0  0  0
    3.7416   -0.2564    0.1919 H   0  0  0  0  0  0  0  0  0  0  0  0
    2.6368    0.4366   -1.7110 H   0  0  0  0  0  0  0  0  0  0  0  0
    1.8068    1.4664   -0.5085 H   0  0  0  0  0  0  0  0  0  0  0  0
    0.8252   -1.2466   -1.5746 H   0  0  0  0  0  0  0  0  0  0  0  0
    0.1796    0.4017   -2.0334 H   0  0  0  0  0  0  0  0  0  0  0  0
    0.0833   -0.4027    1.9111 H   0  0  0  0  0  0  0  0  0  0  0  0
   -0.9969    1.8561   -0.5527 H   0  0  0  0  0  0  0  0  0  0  0  0
   -1.1208    1.3589    1.2541 H   0  0  0  0  0  0  0  0  0  0  0  0
   -2.0795   -0.2455   -1.3247 H   0  0  0  0  0  0  0  0  0  0  0  0
   -2.3274   -1.1260    1.6300 H   0  0  0  0  0  0  0  0  0  0  0  0
   -3.3630    0.1981    1.0362 H   0  0  0  0  0  0  0  0  0  0  0  0
   -3.5216   -1.3821    0.2384 H   0  0  0  0  0  0  0  0  0  0  0  0
  1  2  1  0
  2  3  1  0
  3  4  1  0
  4  5  1  0
  4  6  1  0
  6  7  1  0
  7  8  1  0
  7  4  1  0
  1  9  1  0
  1 10  1  0
  1 11  1  0
  2 12  1  0
  2 13  1  0
  3 14  1  0
  3 15  1  0
  5 16  1  0
  6 17  1  0
  6 18  1  0
  7 19  1  0
  8 20  1  0
  8 21  1  0
  8 22  1  0
M  END
