
     RDKit          3D

 25 25  0  0  0  0  0  0  0  0999 V2000
    3.1823   -0.5554    0.0206 C   0  0  0  0  0  0  0  0  0  0  0  0
    1.9758    0.1527   -0.5504 C   0  0  0  0  0  0  0  0  0  0  0  0
    0.8860    0.1696    0.4912 C   0  0  0  0  0  0  0  0  0  0  0  0
   -0.3629    0.8655   -0.0067 C   0  0  0  0  0  0  0  0  0  0  0  0
   -0.9335    0.1910   -1.2258 C   0  0  0  0  0  0  0  0  0  0  0  0
   -1.4277   -1.1157   -0.6709 C   0  0  0  0  0  0  0  0  0  0  0  0
   -2.1488   -0.6658    0.5880 C   0  0  0  0  0  0  0  0  0  0  0  0
   -1.4471    0.5750    1.0325 C   0  0  0  0  0  0  0  0  0  0  0  0
   -2.2868    1.6654    1.2058 O   0  0  0  0  0  0  0  0  0  0  0  0
    3.0217   -1.6529    0.0086 H   0  0  0  0  0  0  0  0  0  0  0  0
    4.1137   -0.3111   -0.5253 H   0  0  0  0  0  0  0  0  0  0  0  0
    3.2724   -0.2798    1.1048 H   0  0  0  0  0  0  0  0  0  0  0  0
    1.6691   -0.3122   -1.4941 H   0  0  0  0  0  0  0  0  0  0  0  0
    2.2447    1.2160   -0.7604 H   0  0  0  0  0  0  0  0  0  0  0  0
    0.6462   -0.8727    0.7615 H   0  0  0  0  0  0  0  0  0  0  0  0
    1.2881    0.6606    1.3996 H   0  0  0  0  0  0  0  0  0  0  0  0
   -0.2457    1.9444   -0.0974 H   0  0  0  0  0  0  0  0  0  0  0  0
   -0.2447    0.1028   -2.0622 H   0  0  0  0  0  0  0  0  0  0  0  0
   -1.8542    0.7821   -1.5001 H   0  0  0  0  0  0  0  0  0  0  0  0
   -0.6554   -1.8589   -0.4911 H   0  0  0  0  0  0  0  0  0  0  0  0
   -2.1716   -1.5514   -1.3770 H   0  0  0  0  0  0  0  0  0  0  0  0
   -2.1900   -1.4590    1.3401 H   0  0  0  0  0  0  0  0  0  0  0  0
   -3.1988   -0.4020    0.3092 H   0  0  0  0  0  0  0  0  0  0  0  0
   -0.9661    0.3831    2.0362 H   0  0  0  0  0  0  0  0  0  0  0  0
   -2.1669    2.3287    0.4636 H   0  0  0  0  0  0  0  0  0  0  0  0
  1  2  1  0
  2  3  1  0
  3  4  1  0
  4  5  1  0
  5  6  1  0
  6  7  1  0
  7  8  1  0
  8  9  1  0
  8  4  1  0
  1 10  1  0
  1 11  1  0
  1 12  1  0
  2 13  1  0
  2 14  1  0
  3 15  1  0
  3 16  1  0
  4 17  1  0
  5 18  1  0
  5 19  1  0
  6 20  1  0
  6 21  1  0
  7 22  1  0
  7 23  1  0
  8 24  1  0
  9 25  1  0
M  END
