
     RDKit          3D

 25 25  0  0  0  0  0  0  0  0999 V2000
    2.9950   -0.1531   -0.6430 C   0  0  0  0  0  0  0  0  0  0  0  0
    1.4831    0.1221   -0.7193 C   0  0  0  0  0  0  0  0  0  0  0  0
    0.8263   -0.2009    0.5860 C   0  0  0  0  0  0  0  0  0  0  0  0
   -0.6070    0.0066    0.6929 C   0  0  0  0  0  0  0  0  0  0  0  0
   -1.0718   -0.3865    2.1080 C   0  0  0  0  0  0  0  0  0  0  0  0
   -1.1871    1.3552    0.3834 C   0  0  0  0  0  0  0  0  0  0  0  0
   -2.4099    0.6796    0.1512 O   0  0  0  0  0  0  0  0  0  0  0  0
   -1.5984   -0.4000   -0.2841 C   0  0  0  0  0  0  0  0  0  0  0  0
   -1.4167   -0.3033   -1.7435 C   0  0  0  0  0  0  0  0  0  0  0  0
    3.3698    0.2424    0.3190 H   0  0  0  0  0  0  0  0  0  0  0  0
    3.1979   -1.2357   -0.7436 H   0  0  0  0  0  0  0  0  0  0  0  0
    3.5078    0.3368   -1.4986 H   0  0  0  0  0  0  0  0  0  0  0  0
    1.1080   -0.6094   -1.4689 H   0  0  0  0  0  0  0  0  0  0  0  0
    1.3964    1.1576   -1.0333 H   0  0  0  0  0  0  0  0  0  0  0  0
    1.3386    0.4525    1.3571 H   0  0  0  0  0  0  0  0  0  0  0  0
    1.0724   -1.2357    0.9142 H   0  0  0  0  0  0  0  0  0  0  0  0
   -0.3037   -0.1369    2.8410 H   0  0  0  0  0  0  0  0  0  0  0  0
   -1.2434   -1.4865    2.1447 H   0  0  0  0  0  0  0  0  0  0  0  0
   -2.0126    0.1339    2.3743 H   0  0  0  0  0  0  0  0  0  0  0  0
   -0.7460    1.8428   -0.4795 H   0  0  0  0  0  0  0  0  0  0  0  0
   -1.2649    2.0212    1.2750 H   0  0  0  0  0  0  0  0  0  0  0  0
   -2.0553   -1.3984   -0.0249 H   0  0  0  0  0  0  0  0  0  0  0  0
   -2.4491   -0.1559   -2.1916 H   0  0  0  0  0  0  0  0  0  0  0  0
   -0.8620    0.5951   -2.0847 H   0  0  0  0  0  0  0  0  0  0  0  0
   -1.0674   -1.2435   -2.2320 H   0  0  0  0  0  0  0  0  0  0  0  0
  1  2  1  0
  2  3  1  0
  3  4  1  0
  4  5  1  0
  4  6  1  0
  6  7  1  0
  7  8  1  0
  8  9  1  0
  8  4  1  0
  1 10  1  0
  1 11  1  0
  1 12  1  0
  2 13  1  0
  2 14  1  0
  3 15  1  0
  3 16  1  0
  5 17  1  0
  5 18  1  0
  5 19  1  0
  6 20  1  0
  6 21  1  0
  8 22  1  0
  9 23  1  0
  9 24  1  0
  9 25  1  0
M  END
