
     RDKit          3D

 25 25  0  0  0  0  0  0  0  0999 V2000
    3.3582    0.7565   -0.9066 C   0  0  0  0  0  0  0  0  0  0  0  0
    1.9216    0.2659   -0.6908 C   0  0  0  0  0  0  0  0  0  0  0  0
    1.8655   -0.5461    0.5638 C   0  0  0  0  0  0  0  0  0  0  0  0
    0.4903   -1.0865    0.8742 C   0  0  0  0  0  0  0  0  0  0  0  0
   -0.5120    0.0504    1.0499 C   0  0  0  0  0  0  0  0  0  0  0  0
   -1.8874   -0.4796    1.3641 C   0  0  0  0  0  0  0  0  0  0  0  0
   -2.3778   -1.3528    0.2750 O   0  0  0  0  0  0  0  0  0  0  0  0
   -3.0619   -0.1774    0.6196 C   0  0  0  0  0  0  0  0  0  0  0  0
   -3.1175    0.8417   -0.4927 C   0  0  0  0  0  0  0  0  0  0  0  0
    3.7182    1.2074    0.0366 H   0  0  0  0  0  0  0  0  0  0  0  0
    4.0069   -0.1327   -1.0879 H   0  0  0  0  0  0  0  0  0  0  0  0
    3.3341    1.4328   -1.7611 H   0  0  0  0  0  0  0  0  0  0  0  0
    1.6884   -0.3672   -1.5849 H   0  0  0  0  0  0  0  0  0  0  0  0
    1.2685    1.1363   -0.7211 H   0  0  0  0  0  0  0  0  0  0  0  0
    2.2133    0.0806    1.4113 H   0  0  0  0  0  0  0  0  0  0  0  0
    2.5605   -1.3912    0.4878 H   0  0  0  0  0  0  0  0  0  0  0  0
    0.5177   -1.7456    1.7514 H   0  0  0  0  0  0  0  0  0  0  0  0
    0.1907   -1.6996   -0.0032 H   0  0  0  0  0  0  0  0  0  0  0  0
   -0.4976    0.6979    0.1609 H   0  0  0  0  0  0  0  0  0  0  0  0
   -0.1331    0.6570    1.8970 H   0  0  0  0  0  0  0  0  0  0  0  0
   -1.9729   -1.0219    2.3198 H   0  0  0  0  0  0  0  0  0  0  0  0
   -4.0530   -0.3737    1.0739 H   0  0  0  0  0  0  0  0  0  0  0  0
   -2.1845    0.9547   -1.0424 H   0  0  0  0  0  0  0  0  0  0  0  0
   -3.4536    1.8259   -0.1146 H   0  0  0  0  0  0  0  0  0  0  0  0
   -3.8827    0.4675   -1.2244 H   0  0  0  0  0  0  0  0  0  0  0  0
  1  2  1  0
  2  3  1  0
  3  4  1  0
  4  5  1  0
  5  6  1  0
  6  7  1  0
  7  8  1  0
  8  9  1  0
  8  6  1  0
  1 10  1  0
  1 11  1  0
  1 12  1  0
  2 13  1  0
  2 14  1  0
  3 15  1  0
  3 16  1  0
  4 17  1  0
  4 18  1  0
  5 19  1  0
  5 20  1  0
  6 21  1  0
  8 22  1  0
  9 23  1  0
  9 24  1  0
  9 25  1  0
M  END
