
     RDKit          3D

 27 26  0  0  0  0  0  0  0  0999 V2000
    3.4700    0.4862    0.2477 C   0  0  0  0  0  0  0  0  0  0  0  0
    3.0051   -0.8042   -0.3534 C   0  0  0  0  0  0  0  0  0  0  0  0
    1.6151   -0.6083   -0.9052 C   0  0  0  0  0  0  0  0  0  0  0  0
    0.6325   -0.1933    0.1709 C   0  0  0  0  0  0  0  0  0  0  0  0
   -0.6968   -0.0321   -0.4955 C   0  0  0  0  0  0  0  0  0  0  0  0
   -1.8008    0.3790    0.4209 C   0  0  0  0  0  0  0  0  0  0  0  0
   -2.0627   -0.5818    1.5344 C   0  0  0  0  0  0  0  0  0  0  0  0
   -3.0666    0.4795   -0.4384 C   0  0  0  0  0  0  0  0  0  0  0  0
   -2.7930    1.4451   -1.4145 O   0  0  0  0  0  0  0  0  0  0  0  0
    3.3994    0.4354    1.3387 H   0  0  0  0  0  0  0  0  0  0  0  0
    4.5020    0.7665   -0.1042 H   0  0  0  0  0  0  0  0  0  0  0  0
    2.8205    1.3446   -0.0727 H   0  0  0  0  0  0  0  0  0  0  0  0
    3.0828   -1.6767    0.3003 H   0  0  0  0  0  0  0  0  0  0  0  0
    3.6640   -1.0002   -1.2436 H   0  0  0  0  0  0  0  0  0  0  0  0
    1.2035   -1.5350   -1.3643 H   0  0  0  0  0  0  0  0  0  0  0  0
    1.5804    0.1670   -1.6950 H   0  0  0  0  0  0  0  0  0  0  0  0
    0.5612   -0.9927    0.9650 H   0  0  0  0  0  0  0  0  0  0  0  0
    1.0026    0.7143    0.6687 H   0  0  0  0  0  0  0  0  0  0  0  0
   -0.5903    0.7524   -1.2726 H   0  0  0  0  0  0  0  0  0  0  0  0
   -0.9611   -0.9901   -0.9712 H   0  0  0  0  0  0  0  0  0  0  0  0
   -1.6246    1.3921    0.8223 H   0  0  0  0  0  0  0  0  0  0  0  0
   -1.5294   -0.3212    2.4822 H   0  0  0  0  0  0  0  0  0  0  0  0
   -1.9203   -1.6386    1.2452 H   0  0  0  0  0  0  0  0  0  0  0  0
   -3.1609   -0.4934    1.7856 H   0  0  0  0  0  0  0  0  0  0  0  0
   -3.9562    0.6984    0.1545 H   0  0  0  0  0  0  0  0  0  0  0  0
   -3.1733   -0.4894   -0.9548 H   0  0  0  0  0  0  0  0  0  0  0  0
   -3.2030    2.2965   -1.0799 H   0  0  0  0  0  0  0  0  0  0  0  0
  1  2  1  0
  2  3  1  0
  3  4  1  0
  4  5  1  0
  5  6  1  0
  6  7  1  0
  6  8  1  0
  8  9  1  0
  1 10  1  0
  1 11  1  0
  1 12  1  0
  2 13  1  0
  2 14  1  0
  3 15  1  0
  3 16  1  0
  4 17  1  0
  4 18  1  0
  5 19  1  0
  5 20  1  0
  6 21  1  0
  7 22  1  0
  7 23  1  0
  7 24  1  0
  8 25  1  0
  8 26  1  0
  9 27  1  0
M  END
