
     RDKit          3D

 25 24  0  0  0  0  0  0  0  0999 V2000
    2.3227    1.4272    0.2213 C   0  0  0  0  0  0  0  0  0  0  0  0
    2.4382   -0.0374   -0.1225 C   0  0  0  0  0  0  0  0  0  0  0  0
    1.1008   -0.7220   -0.2040 C   0  0  0  0  0  0  0  0  0  0  0  0
    0.2103   -0.1056   -1.2574 C   0  0  0  0  0  0  0  0  0  0  0  0
   -1.1217   -0.8026   -1.3246 C   0  0  0  0  0  0  0  0  0  0  0  0
   -0.9031   -2.1599   -1.6510 O   0  0  0  0  0  0  0  0  0  0  0  0
   -1.9118   -0.7419   -0.0455 C   0  0  0  0  0  0  0  0  0  0  0  0
   -2.2457    0.6374    0.4126 C   0  0  0  0  0  0  0  0  0  0  0  0
   -1.1846    1.4600    0.6787 O   0  0  0  0  0  0  0  0  0  0  0  0
    2.0299    1.9751   -0.7065 H   0  0  0  0  0  0  0  0  0  0  0  0
    3.3038    1.8007    0.5882 H   0  0  0  0  0  0  0  0  0  0  0  0
    1.5445    1.5242    1.0050 H   0  0  0  0  0  0  0  0  0  0  0  0
    2.9374   -0.1987   -1.1128 H   0  0  0  0  0  0  0  0  0  0  0  0
    3.0134   -0.5266    0.6791 H   0  0  0  0  0  0  0  0  0  0  0  0
    0.5487   -0.7212    0.7528 H   0  0  0  0  0  0  0  0  0  0  0  0
    1.2968   -1.7849   -0.4520 H   0  0  0  0  0  0  0  0  0  0  0  0
    0.7184   -0.2912   -2.2489 H   0  0  0  0  0  0  0  0  0  0  0  0
    0.0824    0.9737   -1.1778 H   0  0  0  0  0  0  0  0  0  0  0  0
   -1.7365   -0.4055   -2.1553 H   0  0  0  0  0  0  0  0  0  0  0  0
   -1.0147   -2.6924   -0.8244 H   0  0  0  0  0  0  0  0  0  0  0  0
   -1.4152   -1.3543    0.7551 H   0  0  0  0  0  0  0  0  0  0  0  0
   -2.8927   -1.2645   -0.2111 H   0  0  0  0  0  0  0  0  0  0  0  0
   -2.8235    0.5328    1.3730 H   0  0  0  0  0  0  0  0  0  0  0  0
   -2.9621    1.0695   -0.3161 H   0  0  0  0  0  0  0  0  0  0  0  0
   -1.3357    2.4083    0.4870 H   0  0  0  0  0  0  0  0  0  0  0  0
  1  2  1  0
  2  3  1  0
  3  4  1  0
  4  5  1  0
  5  6  1  0
  5  7  1  0
  7  8  1  0
  8  9  1  0
  1 10  1  0
  1 11  1  0
  1 12  1  0
  2 13  1  0
  2 14  1  0
  3 15  1  0
  3 16  1  0
  4 17  1  0
  4 18  1  0
  5 19  1  0
  6 20  1  0
  7 21  1  0
  7 22  1  0
  8 23  1  0
  8 24  1  0
  9 25  1  0
M  END
