
     RDKit          3D

 23 23  0  0  0  0  0  0  0  0999 V2000
    4.1896    0.6002    0.3463 C   0  0  0  0  0  0  0  0  0  0  0  0
    2.7182    0.6913    0.0381 C   0  0  0  0  0  0  0  0  0  0  0  0
    2.0869   -0.6877    0.1629 C   0  0  0  0  0  0  0  0  0  0  0  0
    0.6544   -0.6390   -0.1298 C   0  0  0  0  0  0  0  0  0  0  0  0
   -0.5268   -0.6141   -0.3567 C   0  0  0  0  0  0  0  0  0  0  0  0
   -1.9650   -0.5890   -0.6078 C   0  0  0  0  0  0  0  0  0  0  0  0
   -2.8102   -0.9619    0.6188 C   0  0  0  0  0  0  0  0  0  0  0  0
   -3.7751    0.1300    0.1584 C   0  0  0  0  0  0  0  0  0  0  0  0
   -2.5638    0.7975   -0.4892 C   0  0  0  0  0  0  0  0  0  0  0  0
    4.7916    0.3213   -0.5396 H   0  0  0  0  0  0  0  0  0  0  0  0
    4.3619   -0.1635    1.1387 H   0  0  0  0  0  0  0  0  0  0  0  0
    4.5077    1.6210    0.7102 H   0  0  0  0  0  0  0  0  0  0  0  0
    2.1903    1.3565    0.7339 H   0  0  0  0  0  0  0  0  0  0  0  0
    2.6208    1.0570   -1.0028 H   0  0  0  0  0  0  0  0  0  0  0  0
    2.6379   -1.3405   -0.5504 H   0  0  0  0  0  0  0  0  0  0  0  0
    2.1859   -1.0349    1.2106 H   0  0  0  0  0  0  0  0  0  0  0  0
   -2.2862   -1.0557   -1.5432 H   0  0  0  0  0  0  0  0  0  0  0  0
   -3.2084   -1.9756    0.6114 H   0  0  0  0  0  0  0  0  0  0  0  0
   -2.2838   -0.6304    1.5202 H   0  0  0  0  0  0  0  0  0  0  0  0
   -4.2341    0.7145    0.9589 H   0  0  0  0  0  0  0  0  0  0  0  0
   -4.4951   -0.2996   -0.5815 H   0  0  0  0  0  0  0  0  0  0  0  0
   -2.0403    1.3877    0.3062 H   0  0  0  0  0  0  0  0  0  0  0  0
   -2.7564    1.3148   -1.4235 H   0  0  0  0  0  0  0  0  0  0  0  0
  1  2  1  0
  2  3  1  0
  3  4  1  0
  4  5  3  0
  5  6  1  0
  6  7  1  0
  7  8  1  0
  8  9  1  0
  9  6  1  0
  1 10  1  0
  1 11  1  0
  1 12  1  0
  2 13  1  0
  2 14  1  0
  3 15  1  0
  3 16  1  0
  6 17  1  0
  7 18  1  0
  7 19  1  0
  8 20  1  0
  8 21  1  0
  9 22  1  0
  9 23  1  0
M  END
