
     RDKit          3D

 21 22  0  0  0  0  0  0  0  0999 V2000
   -3.3370    0.2728   -0.3848 C   0  0  0  0  0  0  0  0  0  0  0  0
   -1.9730   -0.3210   -0.1737 C   0  0  0  0  0  0  0  0  0  0  0  0
   -0.9791    0.7924    0.1559 C   0  0  0  0  0  0  0  0  0  0  0  0
    0.3534    0.1534    0.3554 C   0  0  0  0  0  0  0  0  0  0  0  0
    1.3725    1.0190    0.6620 O   0  0  0  0  0  0  0  0  0  0  0  0
    2.4817    0.1552    0.7034 C   0  0  0  0  0  0  0  0  0  0  0  0
    3.2834   -0.0685   -0.5240 C   0  0  0  0  0  0  0  0  0  0  0  0
    2.0857   -0.9177   -0.3586 C   0  0  0  0  0  0  0  0  0  0  0  0
    0.8323   -0.4802   -0.7890 O   0  0  0  0  0  0  0  0  0  0  0  0
   -3.4078    0.5988   -1.4290 H   0  0  0  0  0  0  0  0  0  0  0  0
   -3.5166    1.1184    0.3208 H   0  0  0  0  0  0  0  0  0  0  0  0
   -4.1163   -0.5054   -0.2089 H   0  0  0  0  0  0  0  0  0  0  0  0
   -1.6677   -0.8859   -1.0800 H   0  0  0  0  0  0  0  0  0  0  0  0
   -2.0014   -1.0014    0.7101 H   0  0  0  0  0  0  0  0  0  0  0  0
   -1.3066    1.2187    1.1171 H   0  0  0  0  0  0  0  0  0  0  0  0
   -0.9794    1.5330   -0.6546 H   0  0  0  0  0  0  0  0  0  0  0  0
    0.2721   -0.6163    1.1532 H   0  0  0  0  0  0  0  0  0  0  0  0
    2.8130   -0.2450    1.6752 H   0  0  0  0  0  0  0  0  0  0  0  0
    4.2530   -0.5662   -0.3737 H   0  0  0  0  0  0  0  0  0  0  0  0
    3.3293    0.7167   -1.3198 H   0  0  0  0  0  0  0  0  0  0  0  0
    2.2083   -1.9707   -0.0234 H   0  0  0  0  0  0  0  0  0  0  0  0
  1  2  1  0
  2  3  1  0
  3  4  1  0
  4  5  1  0
  5  6  1  0
  6  7  1  0
  7  8  1  0
  8  9  1  0
  9  4  1  0
  8  6  1  0
  1 10  1  0
  1 11  1  0
  1 12  1  0
  2 13  1  0
  2 14  1  0
  3 15  1  0
  3 16  1  0
  4 17  1  0
  6 18  1  0
  7 19  1  0
  7 20  1  0
  8 21  1  0
M  END
