
     RDKit          3D

 23 24  0  0  0  0  0  0  0  0999 V2000
   -3.3894    0.4913   -0.3054 C   0  0  0  0  0  0  0  0  0  0  0  0
   -2.0921   -0.2814   -0.2916 C   0  0  0  0  0  0  0  0  0  0  0  0
   -1.2137    0.2807    0.8000 C   0  0  0  0  0  0  0  0  0  0  0  0
    0.1162   -0.4842    0.8409 C   0  0  0  0  0  0  0  0  0  0  0  0
    0.9435   -0.4940   -0.2887 C   0  0  0  0  0  0  0  0  0  0  0  0
    2.3674   -0.8202   -0.5423 C   0  0  0  0  0  0  0  0  0  0  0  0
    2.9764    0.5561   -0.1955 C   0  0  0  0  0  0  0  0  0  0  0  0
    1.9146    1.2795    0.4150 O   0  0  0  0  0  0  0  0  0  0  0  0
    1.2803    0.2645    1.0615 C   0  0  0  0  0  0  0  0  0  0  0  0
   -3.2433    1.3607   -0.9801 H   0  0  0  0  0  0  0  0  0  0  0  0
   -3.6507    0.8018    0.7220 H   0  0  0  0  0  0  0  0  0  0  0  0
   -4.2192   -0.1656   -0.6519 H   0  0  0  0  0  0  0  0  0  0  0  0
   -2.3366   -1.3299   -0.0973 H   0  0  0  0  0  0  0  0  0  0  0  0
   -1.6139   -0.2348   -1.2872 H   0  0  0  0  0  0  0  0  0  0  0  0
   -1.0362    1.3664    0.6654 H   0  0  0  0  0  0  0  0  0  0  0  0
   -1.7378    0.1505    1.7646 H   0  0  0  0  0  0  0  0  0  0  0  0
   -0.0410   -1.4607    1.3873 H   0  0  0  0  0  0  0  0  0  0  0  0
    0.5943    0.1767   -1.1371 H   0  0  0  0  0  0  0  0  0  0  0  0
    2.5723   -1.0960   -1.5805 H   0  0  0  0  0  0  0  0  0  0  0  0
    2.6965   -1.5789    0.1923 H   0  0  0  0  0  0  0  0  0  0  0  0
    3.7179    0.3927    0.5896 H   0  0  0  0  0  0  0  0  0  0  0  0
    3.3432    1.0673   -1.0915 H   0  0  0  0  0  0  0  0  0  0  0  0
    2.0513   -0.2427    1.7241 H   0  0  0  0  0  0  0  0  0  0  0  0
  1  2  1  0
  2  3  1  0
  3  4  1  0
  4  5  1  0
  5  6  1  0
  6  7  1  0
  7  8  1  0
  8  9  1  0
  9  4  1  0
  9  5  1  0
  1 10  1  0
  1 11  1  0
  1 12  1  0
  2 13  1  0
  2 14  1  0
  3 15  1  0
  3 16  1  0
  4 17  1  0
  5 18  1  0
  6 19  1  0
  6 20  1  0
  7 21  1  0
  7 22  1  0
  9 23  1  0
M  END
