
     RDKit          3D

 24 23  0  0  0  0  0  0  0  0999 V2000
   -2.8727    0.3578    0.6383 C   0  0  0  0  0  0  0  0  0  0  0  0
   -2.3944    0.6122   -0.7697 C   0  0  0  0  0  0  0  0  0  0  0  0
   -1.6398   -0.5341   -1.3534 C   0  0  0  0  0  0  0  0  0  0  0  0
   -0.3993   -0.8873   -0.5586 C   0  0  0  0  0  0  0  0  0  0  0  0
    0.5756    0.2481   -0.4728 C   0  0  0  0  0  0  0  0  0  0  0  0
    1.7615   -0.2122    0.3337 C   0  0  0  0  0  0  0  0  0  0  0  0
    2.7322    0.7567    0.4808 O   0  0  0  0  0  0  0  0  0  0  0  0
    3.7634    0.1999    1.2418 C   0  0  0  0  0  0  0  0  0  0  0  0
   -2.1352    0.7088    1.3986 H   0  0  0  0  0  0  0  0  0  0  0  0
   -3.0444   -0.7187    0.7567 H   0  0  0  0  0  0  0  0  0  0  0  0
   -3.7870    0.9754    0.7958 H   0  0  0  0  0  0  0  0  0  0  0  0
   -1.8208    1.5692   -0.8195 H   0  0  0  0  0  0  0  0  0  0  0  0
   -3.2962    0.7751   -1.3953 H   0  0  0  0  0  0  0  0  0  0  0  0
   -2.3069   -1.4271   -1.3195 H   0  0  0  0  0  0  0  0  0  0  0  0
   -1.4235   -0.3377   -2.4018 H   0  0  0  0  0  0  0  0  0  0  0  0
   -0.6433   -1.2393    0.4570 H   0  0  0  0  0  0  0  0  0  0  0  0
    0.1149   -1.7283   -1.0679 H   0  0  0  0  0  0  0  0  0  0  0  0
    0.0883    1.0659    0.1339 H   0  0  0  0  0  0  0  0  0  0  0  0
    0.8409    0.6811   -1.4356 H   0  0  0  0  0  0  0  0  0  0  0  0
    2.2306   -1.0537   -0.2452 H   0  0  0  0  0  0  0  0  0  0  0  0
    1.4105   -0.5508    1.3158 H   0  0  0  0  0  0  0  0  0  0  0  0
    3.4339   -0.1263    2.2367 H   0  0  0  0  0  0  0  0  0  0  0  0
    4.6350    0.9004    1.3291 H   0  0  0  0  0  0  0  0  0  0  0  0
    4.1767   -0.7107    0.7213 H   0  0  0  0  0  0  0  0  0  0  0  0
  1  2  1  0
  2  3  1  0
  3  4  1  0
  4  5  1  0
  5  6  1  0
  6  7  1  0
  7  8  1  0
  1  9  1  0
  1 10  1  0
  1 11  1  0
  2 12  1  0
  2 13  1  0
  3 14  1  0
  3 15  1  0
  4 16  1  0
  4 17  1  0
  5 18  1  0
  5 19  1  0
  6 20  1  0
  6 21  1  0
  8 22  1  0
  8 23  1  0
  8 24  1  0
M  END
