
     RDKit          3D

 25 25  0  0  0  0  0  0  0  0999 V2000
    3.4205   -0.5128    0.0803 C   0  0  0  0  0  0  0  0  0  0  0  0
    2.7183    0.7849   -0.1248 C   0  0  0  0  0  0  0  0  0  0  0  0
    1.2664    0.6419   -0.4763 C   0  0  0  0  0  0  0  0  0  0  0  0
    0.4690   -0.0741    0.5826 C   0  0  0  0  0  0  0  0  0  0  0  0
   -0.9410   -0.1428    0.1051 C   0  0  0  0  0  0  0  0  0  0  0  0
   -2.0087    0.3688    0.7036 C   0  0  0  0  0  0  0  0  0  0  0  0
   -3.2391    0.1004   -0.0685 C   0  0  0  0  0  0  0  0  0  0  0  0
   -2.6714   -0.1453   -1.4582 C   0  0  0  0  0  0  0  0  0  0  0  0
   -1.3619   -0.8177   -1.1490 C   0  0  0  0  0  0  0  0  0  0  0  0
    4.5142   -0.3141    0.1262 H   0  0  0  0  0  0  0  0  0  0  0  0
    3.1207   -0.9483    1.0545 H   0  0  0  0  0  0  0  0  0  0  0  0
    3.2038   -1.2501   -0.7133 H   0  0  0  0  0  0  0  0  0  0  0  0
    2.8307    1.4069    0.7859 H   0  0  0  0  0  0  0  0  0  0  0  0
    3.2017    1.3366   -0.9623 H   0  0  0  0  0  0  0  0  0  0  0  0
    1.0857    0.1690   -1.4398 H   0  0  0  0  0  0  0  0  0  0  0  0
    0.8450    1.6809   -0.5379 H   0  0  0  0  0  0  0  0  0  0  0  0
    0.8216   -1.1223    0.7231 H   0  0  0  0  0  0  0  0  0  0  0  0
    0.5224    0.4410    1.5696 H   0  0  0  0  0  0  0  0  0  0  0  0
   -1.9875    0.9146    1.6391 H   0  0  0  0  0  0  0  0  0  0  0  0
   -3.9351    0.9659   -0.1028 H   0  0  0  0  0  0  0  0  0  0  0  0
   -3.7811   -0.7988    0.2832 H   0  0  0  0  0  0  0  0  0  0  0  0
   -3.3298   -0.8506   -1.9625 H   0  0  0  0  0  0  0  0  0  0  0  0
   -2.5331    0.8019   -2.0150 H   0  0  0  0  0  0  0  0  0  0  0  0
   -1.5773   -1.8919   -0.9834 H   0  0  0  0  0  0  0  0  0  0  0  0
   -0.6543   -0.7439   -1.9697 H   0  0  0  0  0  0  0  0  0  0  0  0
  1  2  1  0
  2  3  1  0
  3  4  1  0
  4  5  1  0
  5  6  2  0
  6  7  1  0
  7  8  1  0
  8  9  1  0
  9  5  1  0
  1 10  1  0
  1 11  1  0
  1 12  1  0
  2 13  1  0
  2 14  1  0
  3 15  1  0
  3 16  1  0
  4 17  1  0
  4 18  1  0
  6 19  1  0
  7 20  1  0
  7 21  1  0
  8 22  1  0
  8 23  1  0
  9 24  1  0
  9 25  1  0
M  END
