
     RDKit          3D

 23 24  0  0  0  0  0  0  0  0999 V2000
    2.1623    0.6529   -0.9162 C   0  0  0  0  0  0  0  0  0  0  0  0
    2.1140   -0.7594   -0.3719 C   0  0  0  0  0  0  0  0  0  0  0  0
    1.3370   -0.7562    0.9210 C   0  0  0  0  0  0  0  0  0  0  0  0
   -0.0700   -0.2660    0.7102 C   0  0  0  0  0  0  0  0  0  0  0  0
   -0.5839    0.7830    1.2976 C   0  0  0  0  0  0  0  0  0  0  0  0
   -2.0013    1.0240    0.8921 C   0  0  0  0  0  0  0  0  0  0  0  0
   -2.3091   -0.1729    0.0516 C   0  0  0  0  0  0  0  0  0  0  0  0
   -1.6318   -0.1416   -1.3151 C   0  0  0  0  0  0  0  0  0  0  0  0
   -1.0515   -0.9016   -0.1835 C   0  0  0  0  0  0  0  0  0  0  0  0
    2.5115    0.6984   -1.9513 H   0  0  0  0  0  0  0  0  0  0  0  0
    1.1189    1.0632   -0.8650 H   0  0  0  0  0  0  0  0  0  0  0  0
    2.7758    1.2466   -0.2047 H   0  0  0  0  0  0  0  0  0  0  0  0
    3.1542   -1.0395   -0.1207 H   0  0  0  0  0  0  0  0  0  0  0  0
    1.7414   -1.4796   -1.1067 H   0  0  0  0  0  0  0  0  0  0  0  0
    1.8898   -0.1043    1.6244 H   0  0  0  0  0  0  0  0  0  0  0  0
    1.2615   -1.7500    1.3771 H   0  0  0  0  0  0  0  0  0  0  0  0
   -0.0379    1.4138    2.0065 H   0  0  0  0  0  0  0  0  0  0  0  0
   -2.0368    1.9414    0.2620 H   0  0  0  0  0  0  0  0  0  0  0  0
   -2.6610    1.1636    1.7551 H   0  0  0  0  0  0  0  0  0  0  0  0
   -3.2296   -0.7536    0.1826 H   0  0  0  0  0  0  0  0  0  0  0  0
   -1.1948    0.8171   -1.6656 H   0  0  0  0  0  0  0  0  0  0  0  0
   -2.1859   -0.6765   -2.0905 H   0  0  0  0  0  0  0  0  0  0  0  0
   -1.0730   -2.0027   -0.2890 H   0  0  0  0  0  0  0  0  0  0  0  0
  1  2  1  0
  2  3  1  0
  3  4  1  0
  4  5  2  0
  5  6  1  0
  6  7  1  0
  7  8  1  0
  8  9  1  0
  9  4  1  0
  9  7  1  0
  1 10  1  0
  1 11  1  0
  1 12  1  0
  2 13  1  0
  2 14  1  0
  3 15  1  0
  3 16  1  0
  5 17  1  0
  6 18  1  0
  6 19  1  0
  7 20  1  0
  8 21  1  0
  8 22  1  0
  9 23  1  0
M  END
