
     RDKit          3D

 25 25  0  0  0  0  0  0  0  0999 V2000
   -3.6723   -0.0539    1.1593 C   0  0  0  0  0  0  0  0  0  0  0  0
   -2.6485   -0.1578    0.0231 C   0  0  0  0  0  0  0  0  0  0  0  0
   -1.3154   -0.4330    0.6856 C   0  0  0  0  0  0  0  0  0  0  0  0
   -0.2025   -0.5608   -0.3225 C   0  0  0  0  0  0  0  0  0  0  0  0
    1.1083   -0.8351    0.3861 C   0  0  0  0  0  0  0  0  0  0  0  0
    1.7415    0.1129   -0.6294 C   0  0  0  0  0  0  0  0  0  0  0  0
    2.7947    0.8439   -0.1880 O   0  0  0  0  0  0  0  0  0  0  0  0
    3.9493    0.7392   -0.9101 C   0  0  0  0  0  0  0  0  0  0  0  0
    0.4054    0.7806   -0.7352 C   0  0  0  0  0  0  0  0  0  0  0  0
   -3.5525   -0.9264    1.8252 H   0  0  0  0  0  0  0  0  0  0  0  0
   -3.3852    0.8483    1.7640 H   0  0  0  0  0  0  0  0  0  0  0  0
   -4.6946   -0.0086    0.7811 H   0  0  0  0  0  0  0  0  0  0  0  0
   -2.9831   -1.0280   -0.5869 H   0  0  0  0  0  0  0  0  0  0  0  0
   -2.6550    0.7332   -0.6034 H   0  0  0  0  0  0  0  0  0  0  0  0
   -1.0748    0.3873    1.3658 H   0  0  0  0  0  0  0  0  0  0  0  0
   -1.4251   -1.3554    1.2887 H   0  0  0  0  0  0  0  0  0  0  0  0
   -0.4007   -1.1941   -1.1856 H   0  0  0  0  0  0  0  0  0  0  0  0
    1.0977   -0.4349    1.4280 H   0  0  0  0  0  0  0  0  0  0  0  0
    1.4729   -1.8673    0.3226 H   0  0  0  0  0  0  0  0  0  0  0  0
    1.9939   -0.4720   -1.5356 H   0  0  0  0  0  0  0  0  0  0  0  0
    3.8699    1.0467   -1.9691 H   0  0  0  0  0  0  0  0  0  0  0  0
    4.6914    1.4570   -0.4534 H   0  0  0  0  0  0  0  0  0  0  0  0
    4.4237   -0.2617   -0.7920 H   0  0  0  0  0  0  0  0  0  0  0  0
    0.2983    1.5431    0.0632 H   0  0  0  0  0  0  0  0  0  0  0  0
    0.1628    1.0967   -1.7568 H   0  0  0  0  0  0  0  0  0  0  0  0
  1  2  1  0
  2  3  1  0
  3  4  1  0
  4  5  1  0
  5  6  1  0
  6  7  1  0
  7  8  1  0
  6  9  1  0
  9  4  1  0
  1 10  1  0
  1 11  1  0
  1 12  1  0
  2 13  1  0
  2 14  1  0
  3 15  1  0
  3 16  1  0
  4 17  1  0
  5 18  1  0
  5 19  1  0
  6 20  1  0
  8 21  1  0
  8 22  1  0
  8 23  1  0
  9 24  1  0
  9 25  1  0
M  END
