
     RDKit          3D

 21 21  0  0  0  0  0  0  0  0999 V2000
    2.7205    0.5310   -0.5115 C   0  0  0  0  0  0  0  0  0  0  0  0
    1.2395    0.5520   -0.6995 C   0  0  0  0  0  0  0  0  0  0  0  0
    0.5461   -0.2980    0.3441 C   0  0  0  0  0  0  0  0  0  0  0  0
   -0.9453   -0.2997    0.1839 C   0  0  0  0  0  0  0  0  0  0  0  0
   -1.5639   -1.1773    1.2717 C   0  0  0  0  0  0  0  0  0  0  0  0
   -1.5960    1.0494    0.0672 C   0  0  0  0  0  0  0  0  0  0  0  0
   -1.7454    0.7442   -1.3128 O   0  0  0  0  0  0  0  0  0  0  0  0
   -1.4350   -0.6020   -1.1808 C   0  0  0  0  0  0  0  0  0  0  0  0
   -1.5698   -1.5631   -1.9749 O   0  0  0  0  0  0  0  0  0  0  0  0
    3.2733    0.1905   -1.4046 H   0  0  0  0  0  0  0  0  0  0  0  0
    3.1491    1.5365   -0.2533 H   0  0  0  0  0  0  0  0  0  0  0  0
    3.0359   -0.1512    0.3240 H   0  0  0  0  0  0  0  0  0  0  0  0
    0.8998    0.2826   -1.7155 H   0  0  0  0  0  0  0  0  0  0  0  0
    0.8933    1.6094   -0.5357 H   0  0  0  0  0  0  0  0  0  0  0  0
    0.7657    0.0601    1.3706 H   0  0  0  0  0  0  0  0  0  0  0  0
    0.9097   -1.3387    0.2617 H   0  0  0  0  0  0  0  0  0  0  0  0
   -2.6245   -1.3481    1.0674 H   0  0  0  0  0  0  0  0  0  0  0  0
   -1.4045   -0.6615    2.2446 H   0  0  0  0  0  0  0  0  0  0  0  0
   -0.9584   -2.1105    1.2763 H   0  0  0  0  0  0  0  0  0  0  0  0
   -0.9760    1.9277    0.2138 H   0  0  0  0  0  0  0  0  0  0  0  0
   -2.6140    1.0670    0.5428 H   0  0  0  0  0  0  0  0  0  0  0  0
  1  2  1  0
  2  3  1  0
  3  4  1  0
  4  5  1  0
  4  6  1  0
  6  7  1  0
  7  8  1  0
  8  9  2  0
  8  4  1  0
  1 10  1  0
  1 11  1  0
  1 12  1  0
  2 13  1  0
  2 14  1  0
  3 15  1  0
  3 16  1  0
  5 17  1  0
  5 18  1  0
  5 19  1  0
  6 20  1  0
  6 21  1  0
M  END
