
     RDKit          3D

 20 20  0  0  0  0  0  0  0  0999 V2000
   -2.6854    0.1935    0.0739 C   0  0  0  0  0  0  0  0  0  0  0  0
   -1.7075   -0.9138   -0.3010 C   0  0  0  0  0  0  0  0  0  0  0  0
   -0.4058   -0.6970    0.4857 C   0  0  0  0  0  0  0  0  0  0  0  0
    0.1232    0.6363    0.1012 C   0  0  0  0  0  0  0  0  0  0  0  0
    0.3820    0.6497   -1.3625 O   0  0  0  0  0  0  0  0  0  0  0  0
    1.3958    0.9057   -0.4690 C   0  0  0  0  0  0  0  0  0  0  0  0
    2.5351   -0.0578   -0.2998 C   0  0  0  0  0  0  0  0  0  0  0  0
    3.3781    0.5148    0.6830 O   0  0  0  0  0  0  0  0  0  0  0  0
   -2.7817    0.9414   -0.7616 H   0  0  0  0  0  0  0  0  0  0  0  0
   -3.7023   -0.2279    0.2355 H   0  0  0  0  0  0  0  0  0  0  0  0
   -2.3559    0.6897    1.0015 H   0  0  0  0  0  0  0  0  0  0  0  0
   -2.1609   -1.8979   -0.0515 H   0  0  0  0  0  0  0  0  0  0  0  0
   -1.5180   -0.8264   -1.3991 H   0  0  0  0  0  0  0  0  0  0  0  0
    0.2678   -1.5292    0.2406 H   0  0  0  0  0  0  0  0  0  0  0  0
   -0.6783   -0.7437    1.5568 H   0  0  0  0  0  0  0  0  0  0  0  0
   -0.5309    1.4924    0.4082 H   0  0  0  0  0  0  0  0  0  0  0  0
    1.7381    1.9747   -0.5089 H   0  0  0  0  0  0  0  0  0  0  0  0
    2.2400   -1.0498    0.0462 H   0  0  0  0  0  0  0  0  0  0  0  0
    3.1733   -0.1185   -1.2158 H   0  0  0  0  0  0  0  0  0  0  0  0
    3.2935    0.0638    1.5365 H   0  0  0  0  0  0  0  0  0  0  0  0
  1  2  1  0
  2  3  1  0
  3  4  1  0
  4  5  1  0
  5  6  1  0
  6  7  1  0
  7  8  1  0
  6  4  1  0
  1  9  1  0
  1 10  1  0
  1 11  1  0
  2 12  1  0
  2 13  1  0
  3 14  1  0
  3 15  1  0
  4 16  1  0
  6 17  1  0
  7 18  1  0
  7 19  1  0
  8 20  1  0
M  END
