
     RDKit          3D

 25 25  0  0  0  0  0  0  0  0999 V2000
    1.7301    1.4101    0.0619 C   0  0  0  0  0  0  0  0  0  0  0  0
    1.7044    0.2681    1.0211 C   0  0  0  0  0  0  0  0  0  0  0  0
    1.6329   -1.0693    0.4264 C   0  0  0  0  0  0  0  0  0  0  0  0
    0.5427   -1.4898   -0.4676 C   0  0  0  0  0  0  0  0  0  0  0  0
   -0.8573   -1.5460   -0.0599 C   0  0  0  0  0  0  0  0  0  0  0  0
   -1.6552   -0.3767    0.3047 C   0  0  0  0  0  0  0  0  0  0  0  0
   -1.7929    0.6679   -0.8013 C   0  0  0  0  0  0  0  0  0  0  0  0
   -1.8819    1.5695    0.4360 C   0  0  0  0  0  0  0  0  0  0  0  0
   -1.3059    0.5599    1.2124 O   0  0  0  0  0  0  0  0  0  0  0  0
    1.0673    2.2513    0.3443 H   0  0  0  0  0  0  0  0  0  0  0  0
    1.4443    1.1183   -0.9777 H   0  0  0  0  0  0  0  0  0  0  0  0
    2.7522    1.8811   -0.0497 H   0  0  0  0  0  0  0  0  0  0  0  0
    2.7855    0.3014    1.4856 H   0  0  0  0  0  0  0  0  0  0  0  0
    1.1065    0.5125    1.8890 H   0  0  0  0  0  0  0  0  0  0  0  0
    1.6711   -1.8408    1.2853 H   0  0  0  0  0  0  0  0  0  0  0  0
    2.6557   -1.2694   -0.0604 H   0  0  0  0  0  0  0  0  0  0  0  0
    0.6394   -0.9656   -1.4905 H   0  0  0  0  0  0  0  0  0  0  0  0
    0.8114   -2.5874   -0.7336 H   0  0  0  0  0  0  0  0  0  0  0  0
   -0.9843   -2.3192    0.7943 H   0  0  0  0  0  0  0  0  0  0  0  0
   -1.4917   -2.0929   -0.8655 H   0  0  0  0  0  0  0  0  0  0  0  0
   -2.7403   -0.7491    0.4811 H   0  0  0  0  0  0  0  0  0  0  0  0
   -0.8859    0.8479   -1.3785 H   0  0  0  0  0  0  0  0  0  0  0  0
   -2.7241    0.6587   -1.3688 H   0  0  0  0  0  0  0  0  0  0  0  0
   -1.2988    2.4893    0.4004 H   0  0  0  0  0  0  0  0  0  0  0  0
   -2.9250    1.7702    0.7561 H   0  0  0  0  0  0  0  0  0  0  0  0
  1  2  1  0
  2  3  1  0
  3  4  1  0
  4  5  1  0
  5  6  1  0
  6  7  1  0
  7  8  1  0
  8  9  1  0
  9  6  1  0
  1 10  1  0
  1 11  1  0
  1 12  1  0
  2 13  1  0
  2 14  1  0
  3 15  1  0
  3 16  1  0
  4 17  1  0
  4 18  1  0
  5 19  1  0
  5 20  1  0
  6 21  1  0
  7 22  1  0
  7 23  1  0
  8 24  1  0
  8 25  1  0
M  END
