
     RDKit          3D

 25 25  0  0  0  0  0  0  0  0999 V2000
    3.1494    0.5573   -0.1001 C   0  0  0  0  0  0  0  0  0  0  0  0
    2.4702   -0.7481   -0.3992 C   0  0  0  0  0  0  0  0  0  0  0  0
    0.9511   -0.5668   -0.5262 C   0  0  0  0  0  0  0  0  0  0  0  0
    0.4728   -0.0297    0.7791 C   0  0  0  0  0  0  0  0  0  0  0  0
   -0.9913    0.2176    0.8602 C   0  0  0  0  0  0  0  0  0  0  0  0
   -1.5255    1.1950   -0.1267 C   0  0  0  0  0  0  0  0  0  0  0  0
   -2.9983    0.8531   -0.1193 C   0  0  0  0  0  0  0  0  0  0  0  0
   -3.1535   -0.3891    0.3126 C   0  0  0  0  0  0  0  0  0  0  0  0
   -1.8352   -0.9992    0.6334 C   0  0  0  0  0  0  0  0  0  0  0  0
    4.0822    0.6239   -0.7002 H   0  0  0  0  0  0  0  0  0  0  0  0
    2.4622    1.3878   -0.3814 H   0  0  0  0  0  0  0  0  0  0  0  0
    3.4298    0.6315    0.9670 H   0  0  0  0  0  0  0  0  0  0  0  0
    2.8893   -1.1954   -1.3210 H   0  0  0  0  0  0  0  0  0  0  0  0
    2.7050   -1.4508    0.4266 H   0  0  0  0  0  0  0  0  0  0  0  0
    0.7297    0.0484   -1.3955 H   0  0  0  0  0  0  0  0  0  0  0  0
    0.5438   -1.6035   -0.6473 H   0  0  0  0  0  0  0  0  0  0  0  0
    1.0117    0.9195    0.9764 H   0  0  0  0  0  0  0  0  0  0  0  0
    0.7716   -0.7303    1.5746 H   0  0  0  0  0  0  0  0  0  0  0  0
   -1.2198    0.5959    1.8780 H   0  0  0  0  0  0  0  0  0  0  0  0
   -1.4447    2.2521    0.2161 H   0  0  0  0  0  0  0  0  0  0  0  0
   -1.1743    1.0615   -1.1579 H   0  0  0  0  0  0  0  0  0  0  0  0
   -3.8183    1.4922   -0.4118 H   0  0  0  0  0  0  0  0  0  0  0  0
   -4.1076   -0.8809    0.4139 H   0  0  0  0  0  0  0  0  0  0  0  0
   -1.8823   -1.6734    1.5048 H   0  0  0  0  0  0  0  0  0  0  0  0
   -1.5183   -1.5686   -0.2833 H   0  0  0  0  0  0  0  0  0  0  0  0
  1  2  1  0
  2  3  1  0
  3  4  1  0
  4  5  1  0
  5  6  1  0
  6  7  1  0
  7  8  2  0
  8  9  1  0
  9  5  1  0
  1 10  1  0
  1 11  1  0
  1 12  1  0
  2 13  1  0
  2 14  1  0
  3 15  1  0
  3 16  1  0
  4 17  1  0
  4 18  1  0
  5 19  1  0
  6 20  1  0
  6 21  1  0
  7 22  1  0
  8 23  1  0
  9 24  1  0
  9 25  1  0
M  END
