
     RDKit          3D

 25 25  0  0  0  0  0  0  0  0999 V2000
   -1.5690   -1.4087    1.2595 C   0  0  0  0  0  0  0  0  0  0  0  0
   -2.0255   -0.1074    0.7058 C   0  0  0  0  0  0  0  0  0  0  0  0
   -1.7150    0.0914   -0.7460 C   0  0  0  0  0  0  0  0  0  0  0  0
   -0.2518    0.0432   -1.0670 C   0  0  0  0  0  0  0  0  0  0  0  0
   -0.0856    0.2549   -2.5415 C   0  0  0  0  0  0  0  0  0  0  0  0
    0.5265    0.8479   -0.2806 O   0  0  0  0  0  0  0  0  0  0  0  0
    1.4554    0.2006    0.4993 C   0  0  0  0  0  0  0  0  0  0  0  0
    2.0951    0.7744    1.6736 C   0  0  0  0  0  0  0  0  0  0  0  0
    2.8557    0.8120    0.4080 C   0  0  0  0  0  0  0  0  0  0  0  0
   -2.3857   -1.8463    1.8998 H   0  0  0  0  0  0  0  0  0  0  0  0
   -0.7307   -1.2151    1.9739 H   0  0  0  0  0  0  0  0  0  0  0  0
   -1.3182   -2.1726    0.5182 H   0  0  0  0  0  0  0  0  0  0  0  0
   -1.5899    0.7527    1.2864 H   0  0  0  0  0  0  0  0  0  0  0  0
   -3.1240   -0.0053    0.8270 H   0  0  0  0  0  0  0  0  0  0  0  0
   -2.1358    1.0459   -1.0813 H   0  0  0  0  0  0  0  0  0  0  0  0
   -2.2102   -0.7106   -1.3340 H   0  0  0  0  0  0  0  0  0  0  0  0
    0.0788   -1.0208   -0.8717 H   0  0  0  0  0  0  0  0  0  0  0  0
   -1.0050   -0.1056   -3.0507 H   0  0  0  0  0  0  0  0  0  0  0  0
    0.7433   -0.3809   -2.9564 H   0  0  0  0  0  0  0  0  0  0  0  0
    0.0326    1.3144   -2.8247 H   0  0  0  0  0  0  0  0  0  0  0  0
    1.4469   -0.9053    0.3821 H   0  0  0  0  0  0  0  0  0  0  0  0
    2.4495    0.0597    2.4517 H   0  0  0  0  0  0  0  0  0  0  0  0
    1.7837    1.7439    2.1139 H   0  0  0  0  0  0  0  0  0  0  0  0
    2.9643    1.7961   -0.0739 H   0  0  0  0  0  0  0  0  0  0  0  0
    3.7145    0.1415    0.2396 H   0  0  0  0  0  0  0  0  0  0  0  0
  1  2  1  0
  2  3  1  0
  3  4  1  0
  4  5  1  0
  4  6  1  0
  6  7  1  0
  7  8  1  0
  8  9  1  0
  9  7  1  0
  1 10  1  0
  1 11  1  0
  1 12  1  0
  2 13  1  0
  2 14  1  0
  3 15  1  0
  3 16  1  0
  4 17  1  0
  5 18  1  0
  5 19  1  0
  5 20  1  0
  7 21  1  0
  8 22  1  0
  8 23  1  0
  9 24  1  0
  9 25  1  0
M  END
