
     RDKit          3D

 19 18  0  0  0  0  0  0  0  0999 V2000
   -1.6685   -0.9842    0.5994 C   0  0  0  0  0  0  0  0  0  0  0  0
   -1.6174    0.2652   -0.2282 C   0  0  0  0  0  0  0  0  0  0  0  0
   -0.4445    1.1466   -0.0128 C   0  0  0  0  0  0  0  0  0  0  0  0
    0.8964    0.5688   -0.2964 C   0  0  0  0  0  0  0  0  0  0  0  0
    1.9987    1.5401   -0.0475 C   0  0  0  0  0  0  0  0  0  0  0  0
    2.8690    1.2561    0.7411 O   0  0  0  0  0  0  0  0  0  0  0  0
    1.1407   -0.5607    0.5168 O   0  0  0  0  0  0  0  0  0  0  0  0
    1.3993   -1.8169   -0.0284 C   0  0  0  0  0  0  0  0  0  0  0  0
    1.4049   -1.8980   -1.2839 O   0  0  0  0  0  0  0  0  0  0  0  0
   -1.4758   -1.8934   -0.0353 H   0  0  0  0  0  0  0  0  0  0  0  0
   -2.7310   -1.1561    0.9602 H   0  0  0  0  0  0  0  0  0  0  0  0
   -0.9571   -1.0105    1.4233 H   0  0  0  0  0  0  0  0  0  0  0  0
   -2.5333    0.8775    0.0307 H   0  0  0  0  0  0  0  0  0  0  0  0
   -1.7698   -0.0253   -1.2916 H   0  0  0  0  0  0  0  0  0  0  0  0
   -0.5078    1.5985    0.9957 H   0  0  0  0  0  0  0  0  0  0  0  0
   -0.5682    2.0185   -0.7233 H   0  0  0  0  0  0  0  0  0  0  0  0
    0.9296    0.2531   -1.3655 H   0  0  0  0  0  0  0  0  0  0  0  0
    2.0499    2.4952   -0.5485 H   0  0  0  0  0  0  0  0  0  0  0  0
    1.5848   -2.6742    0.5942 H   0  0  0  0  0  0  0  0  0  0  0  0
  1  2  1  0
  2  3  1  0
  3  4  1  0
  4  5  1  0
  5  6  2  0
  4  7  1  0
  7  8  1  0
  8  9  2  0
  1 10  1  0
  1 11  1  0
  1 12  1  0
  2 13  1  0
  2 14  1  0
  3 15  1  0
  3 16  1  0
  4 17  1  0
  5 18  1  0
  8 19  1  0
M  END
