
     RDKit          3D

 20 20  0  0  0  0  0  0  0  0999 V2000
    2.3925   -0.3954   -0.3688 C   0  0  0  0  0  0  0  0  0  0  0  0
    1.4741   -0.6938    0.7935 C   0  0  0  0  0  0  0  0  0  0  0  0
    0.3490    0.3350    0.8670 C   0  0  0  0  0  0  0  0  0  0  0  0
   -0.4513    0.2946   -0.4137 C   0  0  0  0  0  0  0  0  0  0  0  0
   -1.5873    1.2986   -0.3997 C   0  0  0  0  0  0  0  0  0  0  0  0
   -2.3738    0.2802    0.3630 C   0  0  0  0  0  0  0  0  0  0  0  0
   -3.2692    0.3322    1.1902 O   0  0  0  0  0  0  0  0  0  0  0  0
   -1.5664   -0.7499   -0.3494 C   0  0  0  0  0  0  0  0  0  0  0  0
    3.2983   -1.0486   -0.2288 H   0  0  0  0  0  0  0  0  0  0  0  0
    2.7606    0.6437   -0.2825 H   0  0  0  0  0  0  0  0  0  0  0  0
    1.9527   -0.6374   -1.3385 H   0  0  0  0  0  0  0  0  0  0  0  0
    1.0472   -1.6916    0.6222 H   0  0  0  0  0  0  0  0  0  0  0  0
    2.0536   -0.6940    1.7317 H   0  0  0  0  0  0  0  0  0  0  0  0
   -0.3003    0.0575    1.7221 H   0  0  0  0  0  0  0  0  0  0  0  0
    0.7617    1.3422    1.0743 H   0  0  0  0  0  0  0  0  0  0  0  0
    0.1280    0.2748   -1.3373 H   0  0  0  0  0  0  0  0  0  0  0  0
   -2.0444    1.4184   -1.4056 H   0  0  0  0  0  0  0  0  0  0  0  0
   -1.4058    2.2189    0.1664 H   0  0  0  0  0  0  0  0  0  0  0  0
   -1.9267   -0.9591   -1.3864 H   0  0  0  0  0  0  0  0  0  0  0  0
   -1.2927   -1.6265    0.2432 H   0  0  0  0  0  0  0  0  0  0  0  0
  1  2  1  0
  2  3  1  0
  3  4  1  0
  4  5  1  0
  5  6  1  0
  6  7  2  0
  6  8  1  0
  8  4  1  0
  1  9  1  0
  1 10  1  0
  1 11  1  0
  2 12  1  0
  2 13  1  0
  3 14  1  0
  3 15  1  0
  4 16  1  0
  5 17  1  0
  5 18  1  0
  8 19  1  0
  8 20  1  0
M  END
