
     RDKit          3D

 25 24  0  0  0  0  0  0  0  0999 V2000
    3.1204    0.3322    0.3362 C   0  0  0  0  0  0  0  0  0  0  0  0
    2.3921   -0.8190   -0.3162 C   0  0  0  0  0  0  0  0  0  0  0  0
    0.9929   -0.9905    0.2283 C   0  0  0  0  0  0  0  0  0  0  0  0
    0.2015    0.2472   -0.0124 C   0  0  0  0  0  0  0  0  0  0  0  0
   -1.1915    0.2371    0.4639 C   0  0  0  0  0  0  0  0  0  0  0  0
   -1.8139    1.5893    0.1188 C   0  0  0  0  0  0  0  0  0  0  0  0
   -3.1238    1.5989    0.5588 O   0  0  0  0  0  0  0  0  0  0  0  0
   -2.0941   -0.8016   -0.0803 C   0  0  0  0  0  0  0  0  0  0  0  0
   -1.7207   -2.1078    0.1515 O   0  0  0  0  0  0  0  0  0  0  0  0
    4.2009    0.1869    0.1268 H   0  0  0  0  0  0  0  0  0  0  0  0
    3.0077    0.3366    1.4340 H   0  0  0  0  0  0  0  0  0  0  0  0
    2.8343    1.2923   -0.1336 H   0  0  0  0  0  0  0  0  0  0  0  0
    2.3918   -0.6161   -1.4086 H   0  0  0  0  0  0  0  0  0  0  0  0
    3.0138   -1.7256   -0.1583 H   0  0  0  0  0  0  0  0  0  0  0  0
    1.0911   -1.2388    1.2968 H   0  0  0  0  0  0  0  0  0  0  0  0
    0.5413   -1.8325   -0.3677 H   0  0  0  0  0  0  0  0  0  0  0  0
    0.2452    0.4570   -1.1204 H   0  0  0  0  0  0  0  0  0  0  0  0
    0.7320    1.1028    0.4563 H   0  0  0  0  0  0  0  0  0  0  0  0
   -1.1919    0.1921    1.5788 H   0  0  0  0  0  0  0  0  0  0  0  0
   -1.8518    1.6122   -1.0092 H   0  0  0  0  0  0  0  0  0  0  0  0
   -1.2175    2.4265    0.4972 H   0  0  0  0  0  0  0  0  0  0  0  0
   -3.4665    2.5206    0.5430 H   0  0  0  0  0  0  0  0  0  0  0  0
   -3.0974   -0.6653    0.3768 H   0  0  0  0  0  0  0  0  0  0  0  0
   -2.2476   -0.6789   -1.1777 H   0  0  0  0  0  0  0  0  0  0  0  0
   -1.7485   -2.6558   -0.6854 H   0  0  0  0  0  0  0  0  0  0  0  0
  1  2  1  0
  2  3  1  0
  3  4  1  0
  4  5  1  0
  5  6  1  0
  6  7  1  0
  5  8  1  0
  8  9  1  0
  1 10  1  0
  1 11  1  0
  1 12  1  0
  2 13  1  0
  2 14  1  0
  3 15  1  0
  3 16  1  0
  4 17  1  0
  4 18  1  0
  5 19  1  0
  6 20  1  0
  6 21  1  0
  7 22  1  0
  8 23  1  0
  8 24  1  0
  9 25  1  0
M  END
