
     RDKit          3D

 25 25  0  0  0  0  0  0  0  0999 V2000
    2.5239    0.9200   -0.0991 C   0  0  0  0  0  0  0  0  0  0  0  0
    2.1003   -0.5187    0.0365 C   0  0  0  0  0  0  0  0  0  0  0  0
    0.8271   -0.9078   -0.5629 C   0  0  0  0  0  0  0  0  0  0  0  0
   -0.4434   -0.3292   -0.1536 C   0  0  0  0  0  0  0  0  0  0  0  0
   -1.5239   -1.0184   -1.0243 C   0  0  0  0  0  0  0  0  0  0  0  0
   -0.6779    1.1277   -0.3381 C   0  0  0  0  0  0  0  0  0  0  0  0
   -1.8475    1.3871    0.5296 C   0  0  0  0  0  0  0  0  0  0  0  0
   -1.9671    0.4469    1.4222 C   0  0  0  0  0  0  0  0  0  0  0  0
   -0.8966   -0.5556    1.2630 C   0  0  0  0  0  0  0  0  0  0  0  0
    3.6600    0.9847   -0.1785 H   0  0  0  0  0  0  0  0  0  0  0  0
    2.3151    1.5263    0.8098 H   0  0  0  0  0  0  0  0  0  0  0  0
    2.1854    1.3954   -1.0455 H   0  0  0  0  0  0  0  0  0  0  0  0
    2.9088   -1.1169   -0.4886 H   0  0  0  0  0  0  0  0  0  0  0  0
    2.2445   -0.7940    1.1030 H   0  0  0  0  0  0  0  0  0  0  0  0
    0.7206   -2.0387   -0.5022 H   0  0  0  0  0  0  0  0  0  0  0  0
    0.9191   -0.7602   -1.6863 H   0  0  0  0  0  0  0  0  0  0  0  0
   -1.3087   -2.0803   -1.1556 H   0  0  0  0  0  0  0  0  0  0  0  0
   -1.6049   -0.5420   -2.0010 H   0  0  0  0  0  0  0  0  0  0  0  0
   -2.5214   -0.9286   -0.5275 H   0  0  0  0  0  0  0  0  0  0  0  0
   -0.9823    1.3958   -1.3757 H   0  0  0  0  0  0  0  0  0  0  0  0
    0.1157    1.8016    0.0078 H   0  0  0  0  0  0  0  0  0  0  0  0
   -2.4959    2.2680    0.3986 H   0  0  0  0  0  0  0  0  0  0  0  0
   -2.7577    0.4092    2.1866 H   0  0  0  0  0  0  0  0  0  0  0  0
   -0.1071   -0.5105    2.0065 H   0  0  0  0  0  0  0  0  0  0  0  0
   -1.3860   -1.5618    1.3749 H   0  0  0  0  0  0  0  0  0  0  0  0
  1  2  1  0
  2  3  1  0
  3  4  1  0
  4  5  1  0
  4  6  1  0
  6  7  1  0
  7  8  2  0
  8  9  1  0
  9  4  1  0
  1 10  1  0
  1 11  1  0
  1 12  1  0
  2 13  1  0
  2 14  1  0
  3 15  1  0
  3 16  1  0
  5 17  1  0
  5 18  1  0
  5 19  1  0
  6 20  1  0
  6 21  1  0
  7 22  1  0
  8 23  1  0
  9 24  1  0
  9 25  1  0
M  END
