
     RDKit          3D

 29 28  0  0  0  0  0  0  0  0999 V2000
    3.6037    0.6108   -0.6795 C   0  0  0  0  0  0  0  0  0  0  0  0
    2.5966   -0.2780   -0.0055 C   0  0  0  0  0  0  0  0  0  0  0  0
    1.1628    0.1723   -0.3368 C   0  0  0  0  0  0  0  0  0  0  0  0
    0.2026   -0.7248    0.3434 C   0  0  0  0  0  0  0  0  0  0  0  0
   -1.2416   -0.4773    0.1541 C   0  0  0  0  0  0  0  0  0  0  0  0
   -1.5632   -0.5785   -1.3212 C   0  0  0  0  0  0  0  0  0  0  0  0
   -1.9198   -1.7340    0.7575 C   0  0  0  0  0  0  0  0  0  0  0  0
   -1.8629    0.6680    0.8455 C   0  0  0  0  0  0  0  0  0  0  0  0
   -1.3483    2.0297    0.5371 C   0  0  0  0  0  0  0  0  0  0  0  0
    4.5396    0.6497   -0.0862 H   0  0  0  0  0  0  0  0  0  0  0  0
    3.9012    0.2457   -1.6897 H   0  0  0  0  0  0  0  0  0  0  0  0
    3.2074    1.6354   -0.8362 H   0  0  0  0  0  0  0  0  0  0  0  0
    2.7046   -0.2698    1.0903 H   0  0  0  0  0  0  0  0  0  0  0  0
    2.7659   -1.3135   -0.3551 H   0  0  0  0  0  0  0  0  0  0  0  0
    1.0301    1.2197   -0.0231 H   0  0  0  0  0  0  0  0  0  0  0  0
    1.0769    0.0962   -1.4303 H   0  0  0  0  0  0  0  0  0  0  0  0
    0.4738   -0.8241    1.4372 H   0  0  0  0  0  0  0  0  0  0  0  0
    0.3994   -1.7658   -0.0586 H   0  0  0  0  0  0  0  0  0  0  0  0
   -2.6186   -0.3361   -1.5006 H   0  0  0  0  0  0  0  0  0  0  0  0
   -1.2983   -1.6248   -1.6309 H   0  0  0  0  0  0  0  0  0  0  0  0
   -0.9521    0.0880   -1.9436 H   0  0  0  0  0  0  0  0  0  0  0  0
   -1.7628   -1.6455    1.8474 H   0  0  0  0  0  0  0  0  0  0  0  0
   -1.4025   -2.6336    0.4179 H   0  0  0  0  0  0  0  0  0  0  0  0
   -2.9764   -1.6767    0.5029 H   0  0  0  0  0  0  0  0  0  0  0  0
   -2.9668    0.6656    0.5894 H   0  0  0  0  0  0  0  0  0  0  0  0
   -1.8681    0.4879    1.9467 H   0  0  0  0  0  0  0  0  0  0  0  0
   -2.2079    2.7551    0.6988 H   0  0  0  0  0  0  0  0  0  0  0  0
   -1.0946    2.1587   -0.5217 H   0  0  0  0  0  0  0  0  0  0  0  0
   -0.5805    2.3996    1.2509 H   0  0  0  0  0  0  0  0  0  0  0  0
  1  2  1  0
  2  3  1  0
  3  4  1  0
  4  5  1  0
  5  6  1  0
  5  7  1  0
  5  8  1  0
  8  9  1  0
  1 10  1  0
  1 11  1  0
  1 12  1  0
  2 13  1  0
  2 14  1  0
  3 15  1  0
  3 16  1  0
  4 17  1  0
  4 18  1  0
  6 19  1  0
  6 20  1  0
  6 21  1  0
  7 22  1  0
  7 23  1  0
  7 24  1  0
  8 25  1  0
  8 26  1  0
  9 27  1  0
  9 28  1  0
  9 29  1  0
M  END
