
     RDKit          3D

 21 22  0  0  0  0  0  0  0  0999 V2000
    3.0406    0.2311    0.1229 C   0  0  0  0  0  0  0  0  0  0  0  0
    1.5673    0.6431    0.0725 C   0  0  0  0  0  0  0  0  0  0  0  0
    0.7177   -0.6159    0.0713 C   0  0  0  0  0  0  0  0  0  0  0  0
   -0.7228   -0.2836    0.0229 C   0  0  0  0  0  0  0  0  0  0  0  0
   -1.6585   -1.4940    0.0183 C   0  0  0  0  0  0  0  0  0  0  0  0
   -1.5865   -0.4837   -1.1444 C   0  0  0  0  0  0  0  0  0  0  0  0
   -2.5379    0.5078   -1.1105 O   0  0  0  0  0  0  0  0  0  0  0  0
   -2.2755    1.3253   -0.0428 C   0  0  0  0  0  0  0  0  0  0  0  0
   -1.1762    0.8633    0.6270 O   0  0  0  0  0  0  0  0  0  0  0  0
    3.2810   -0.2995    1.0590 H   0  0  0  0  0  0  0  0  0  0  0  0
    3.2971   -0.4456   -0.7140 H   0  0  0  0  0  0  0  0  0  0  0  0
    3.6270    1.1802    0.0888 H   0  0  0  0  0  0  0  0  0  0  0  0
    1.3884    1.2334    0.9791 H   0  0  0  0  0  0  0  0  0  0  0  0
    1.4331    1.2094   -0.8502 H   0  0  0  0  0  0  0  0  0  0  0  0
    1.0063   -1.3076   -0.7405 H   0  0  0  0  0  0  0  0  0  0  0  0
    0.9158   -1.1337    1.0540 H   0  0  0  0  0  0  0  0  0  0  0  0
   -2.5699   -1.4405    0.6643 H   0  0  0  0  0  0  0  0  0  0  0  0
   -1.2032   -2.4823   -0.1690 H   0  0  0  0  0  0  0  0  0  0  0  0
   -1.2395   -0.8899   -2.1030 H   0  0  0  0  0  0  0  0  0  0  0  0
   -3.1706    1.2964    0.6402 H   0  0  0  0  0  0  0  0  0  0  0  0
   -2.1339    2.3865   -0.3943 H   0  0  0  0  0  0  0  0  0  0  0  0
  1  2  1  0
  2  3  1  0
  3  4  1  0
  4  5  1  0
  5  6  1  0
  6  7  1  0
  7  8  1  0
  8  9  1  0
  6  4  1  0
  9  4  1  0
  1 10  1  0
  1 11  1  0
  1 12  1  0
  2 13  1  0
  2 14  1  0
  3 15  1  0
  3 16  1  0
  5 17  1  0
  5 18  1  0
  6 19  1  0
  8 20  1  0
  8 21  1  0
M  END
