
     RDKit          3D

 25 25  0  0  0  0  0  0  0  0999 V2000
   -3.5660    0.3305    0.5778 C   0  0  0  0  0  0  0  0  0  0  0  0
   -2.4269   -0.2724   -0.2287 C   0  0  0  0  0  0  0  0  0  0  0  0
   -1.1556    0.3840    0.2513 C   0  0  0  0  0  0  0  0  0  0  0  0
    0.0686   -0.1231   -0.4693 C   0  0  0  0  0  0  0  0  0  0  0  0
    0.2718   -1.6097   -0.2935 C   0  0  0  0  0  0  0  0  0  0  0  0
    1.2649    0.5951    0.1642 C   0  0  0  0  0  0  0  0  0  0  0  0
    2.5556    0.1682   -0.4769 C   0  0  0  0  0  0  0  0  0  0  0  0
    3.8077    0.7823    0.0358 C   0  0  0  0  0  0  0  0  0  0  0  0
    3.4213   -0.5234    0.3586 O   0  0  0  0  0  0  0  0  0  0  0  0
   -3.5277    1.4370    0.5057 H   0  0  0  0  0  0  0  0  0  0  0  0
   -3.4124    0.0724    1.6476 H   0  0  0  0  0  0  0  0  0  0  0  0
   -4.5456   -0.0540    0.2747 H   0  0  0  0  0  0  0  0  0  0  0  0
   -2.4538   -1.3535   -0.0905 H   0  0  0  0  0  0  0  0  0  0  0  0
   -2.6289   -0.0348   -1.2926 H   0  0  0  0  0  0  0  0  0  0  0  0
   -1.2335    1.4671    0.0266 H   0  0  0  0  0  0  0  0  0  0  0  0
   -1.0424    0.2076    1.3385 H   0  0  0  0  0  0  0  0  0  0  0  0
    0.0557    0.0924   -1.5353 H   0  0  0  0  0  0  0  0  0  0  0  0
   -0.5737   -2.0879    0.2027 H   0  0  0  0  0  0  0  0  0  0  0  0
    0.5298   -2.1034   -1.2735 H   0  0  0  0  0  0  0  0  0  0  0  0
    1.1707   -1.8158    0.3531 H   0  0  0  0  0  0  0  0  0  0  0  0
    1.1234    1.7002    0.0877 H   0  0  0  0  0  0  0  0  0  0  0  0
    1.3280    0.3872    1.2491 H   0  0  0  0  0  0  0  0  0  0  0  0
    2.5657   -0.0488   -1.5654 H   0  0  0  0  0  0  0  0  0  0  0  0
    3.6943    1.5880    0.7615 H   0  0  0  0  0  0  0  0  0  0  0  0
    4.7088    0.8147   -0.6091 H   0  0  0  0  0  0  0  0  0  0  0  0
  1  2  1  0
  2  3  1  0
  3  4  1  0
  4  5  1  0
  4  6  1  0
  6  7  1  0
  7  8  1  0
  8  9  1  0
  9  7  1  0
  1 10  1  0
  1 11  1  0
  1 12  1  0
  2 13  1  0
  2 14  1  0
  3 15  1  0
  3 16  1  0
  4 17  1  0
  5 18  1  0
  5 19  1  0
  5 20  1  0
  6 21  1  0
  6 22  1  0
  7 23  1  0
  8 24  1  0
  8 25  1  0
M  END
