
     RDKit          3D

 21 21  0  0  0  0  0  0  0  0999 V2000
    1.7805    0.7791   -1.0623 C   0  0  0  0  0  0  0  0  0  0  0  0
    1.9995   -0.4511   -0.1961 C   0  0  0  0  0  0  0  0  0  0  0  0
    0.9689   -0.4436    0.9061 C   0  0  0  0  0  0  0  0  0  0  0  0
   -0.4262   -0.4734    0.3865 C   0  0  0  0  0  0  0  0  0  0  0  0
   -0.7760   -1.5799   -0.3968 O   0  0  0  0  0  0  0  0  0  0  0  0
   -1.4797   -0.1282    1.4531 C   0  0  0  0  0  0  0  0  0  0  0  0
   -1.2489    0.7515    0.2302 C   0  0  0  0  0  0  0  0  0  0  0  0
   -2.3643    0.7076   -0.7379 C   0  0  0  0  0  0  0  0  0  0  0  0
   -2.9375   -0.3226   -1.0006 O   0  0  0  0  0  0  0  0  0  0  0  0
    1.5213    1.6507   -0.4276 H   0  0  0  0  0  0  0  0  0  0  0  0
    2.7263    1.0570   -1.5881 H   0  0  0  0  0  0  0  0  0  0  0  0
    1.0148    0.6190   -1.8360 H   0  0  0  0  0  0  0  0  0  0  0  0
    3.0249   -0.3572    0.2149 H   0  0  0  0  0  0  0  0  0  0  0  0
    1.9405   -1.3729   -0.7803 H   0  0  0  0  0  0  0  0  0  0  0  0
    1.1219    0.3993    1.6013 H   0  0  0  0  0  0  0  0  0  0  0  0
    1.1318   -1.3947    1.4936 H   0  0  0  0  0  0  0  0  0  0  0  0
   -1.0368   -2.2942    0.2685 H   0  0  0  0  0  0  0  0  0  0  0  0
   -1.1397    0.2668    2.4156 H   0  0  0  0  0  0  0  0  0  0  0  0
   -2.3839   -0.7524    1.5044 H   0  0  0  0  0  0  0  0  0  0  0  0
   -0.7654    1.7232    0.4278 H   0  0  0  0  0  0  0  0  0  0  0  0
   -2.6721    1.6158   -1.2196 H   0  0  0  0  0  0  0  0  0  0  0  0
  1  2  1  0
  2  3  1  0
  3  4  1  0
  4  5  1  0
  4  6  1  0
  6  7  1  0
  7  8  1  0
  8  9  2  0
  7  4  1  0
  1 10  1  0
  1 11  1  0
  1 12  1  0
  2 13  1  0
  2 14  1  0
  3 15  1  0
  3 16  1  0
  5 17  1  0
  6 18  1  0
  6 19  1  0
  7 20  1  0
  8 21  1  0
M  END
