
     RDKit          3D

 25 25  0  0  0  0  0  0  0  0999 V2000
    3.0928    0.8896    0.1000 C   0  0  0  0  0  0  0  0  0  0  0  0
    2.1360   -0.2640   -0.1141 C   0  0  0  0  0  0  0  0  0  0  0  0
    1.0515   -0.1534    0.9411 C   0  0  0  0  0  0  0  0  0  0  0  0
    0.0407   -1.2323    0.8428 C   0  0  0  0  0  0  0  0  0  0  0  0
   -0.7325   -1.3520   -0.4080 C   0  0  0  0  0  0  0  0  0  0  0  0
   -1.6838   -0.2755   -0.7828 C   0  0  0  0  0  0  0  0  0  0  0  0
   -2.8286   -0.0272    0.1529 C   0  0  0  0  0  0  0  0  0  0  0  0
   -1.8270    1.0587   -0.2605 C   0  0  0  0  0  0  0  0  0  0  0  0
   -2.3372    2.0485   -1.1535 O   0  0  0  0  0  0  0  0  0  0  0  0
    4.0525    0.7315   -0.4443 H   0  0  0  0  0  0  0  0  0  0  0  0
    3.3680    0.9202    1.1814 H   0  0  0  0  0  0  0  0  0  0  0  0
    2.6258    1.8349   -0.2005 H   0  0  0  0  0  0  0  0  0  0  0  0
    1.6887   -0.1186   -1.1186 H   0  0  0  0  0  0  0  0  0  0  0  0
    2.6430   -1.2335   -0.1151 H   0  0  0  0  0  0  0  0  0  0  0  0
    1.5660   -0.1684    1.9508 H   0  0  0  0  0  0  0  0  0  0  0  0
    0.6148    0.8339    0.8475 H   0  0  0  0  0  0  0  0  0  0  0  0
   -0.7261   -1.0401    1.6647 H   0  0  0  0  0  0  0  0  0  0  0  0
    0.4505   -2.2409    1.1071 H   0  0  0  0  0  0  0  0  0  0  0  0
   -0.0607   -1.6100   -1.2825 H   0  0  0  0  0  0  0  0  0  0  0  0
   -1.3424   -2.3204   -0.2924 H   0  0  0  0  0  0  0  0  0  0  0  0
   -1.9650   -0.3701   -1.8974 H   0  0  0  0  0  0  0  0  0  0  0  0
   -2.7429   -0.4928    1.1397 H   0  0  0  0  0  0  0  0  0  0  0  0
   -3.8369    0.1517   -0.2016 H   0  0  0  0  0  0  0  0  0  0  0  0
   -1.4210    1.5411    0.6246 H   0  0  0  0  0  0  0  0  0  0  0  0
   -1.8262    2.8892   -1.0741 H   0  0  0  0  0  0  0  0  0  0  0  0
  1  2  1  0
  2  3  1  0
  3  4  1  0
  4  5  1  0
  5  6  1  0
  6  7  1  0
  7  8  1  0
  8  9  1  0
  8  6  1  0
  1 10  1  0
  1 11  1  0
  1 12  1  0
  2 13  1  0
  2 14  1  0
  3 15  1  0
  3 16  1  0
  4 17  1  0
  4 18  1  0
  5 19  1  0
  5 20  1  0
  6 21  1  0
  7 22  1  0
  7 23  1  0
  8 24  1  0
  9 25  1  0
M  END
