
     RDKit          3D

 21 21  0  0  0  0  0  0  0  0999 V2000
    2.5166   -0.9877   -0.6133 C   0  0  0  0  0  0  0  0  0  0  0  0
    2.6282   -0.0624    0.5779 C   0  0  0  0  0  0  0  0  0  0  0  0
    1.9025    1.2229    0.2217 C   0  0  0  0  0  0  0  0  0  0  0  0
    0.5068    0.8419   -0.0542 C   0  0  0  0  0  0  0  0  0  0  0  0
   -0.6347    0.5384   -0.2875 C   0  0  0  0  0  0  0  0  0  0  0  0
   -2.0269    0.1886   -0.5823 C   0  0  0  0  0  0  0  0  0  0  0  0
   -3.0314    0.6890    0.4349 C   0  0  0  0  0  0  0  0  0  0  0  0
   -2.8925   -0.4840    1.1348 O   0  0  0  0  0  0  0  0  0  0  0  0
   -2.4706   -1.1250   -0.0290 C   0  0  0  0  0  0  0  0  0  0  0  0
    1.5810   -0.7386   -1.1589 H   0  0  0  0  0  0  0  0  0  0  0  0
    2.4960   -2.0544   -0.3146 H   0  0  0  0  0  0  0  0  0  0  0  0
    3.3476   -0.7437   -1.2942 H   0  0  0  0  0  0  0  0  0  0  0  0
    3.6805    0.1711    0.8341 H   0  0  0  0  0  0  0  0  0  0  0  0
    2.1513   -0.4804    1.4858 H   0  0  0  0  0  0  0  0  0  0  0  0
    2.2990    1.6546   -0.6980 H   0  0  0  0  0  0  0  0  0  0  0  0
    1.9737    1.8998    1.1090 H   0  0  0  0  0  0  0  0  0  0  0  0
   -2.3492    0.4155   -1.6187 H   0  0  0  0  0  0  0  0  0  0  0  0
   -4.0120    0.8883   -0.0327 H   0  0  0  0  0  0  0  0  0  0  0  0
   -2.6302    1.5468    1.0429 H   0  0  0  0  0  0  0  0  0  0  0  0
   -1.6785   -1.8845    0.1253 H   0  0  0  0  0  0  0  0  0  0  0  0
   -3.3572   -1.4960   -0.5897 H   0  0  0  0  0  0  0  0  0  0  0  0
  1  2  1  0
  2  3  1  0
  3  4  1  0
  4  5  3  0
  5  6  1  0
  6  7  1  0
  7  8  1  0
  8  9  1  0
  9  6  1  0
  1 10  1  0
  1 11  1  0
  1 12  1  0
  2 13  1  0
  2 14  1  0
  3 15  1  0
  3 16  1  0
  6 17  1  0
  7 18  1  0
  7 19  1  0
  9 20  1  0
  9 21  1  0
M  END
