
     RDKit          3D

 21 21  0  0  0  0  0  0  0  0999 V2000
    2.9944   -0.1903    0.0608 C   0  0  0  0  0  0  0  0  0  0  0  0
    1.6081    0.0632    0.6630 C   0  0  0  0  0  0  0  0  0  0  0  0
    0.6264   -0.5215   -0.3153 C   0  0  0  0  0  0  0  0  0  0  0  0
   -0.8029   -0.4013    0.0611 C   0  0  0  0  0  0  0  0  0  0  0  0
   -1.7722   -1.0007   -0.9416 C   0  0  0  0  0  0  0  0  0  0  0  0
   -1.1911   -0.3335    1.3926 O   0  0  0  0  0  0  0  0  0  0  0  0
   -1.1974    0.8943    0.7366 C   0  0  0  0  0  0  0  0  0  0  0  0
   -2.5032    1.4664    0.3128 C   0  0  0  0  0  0  0  0  0  0  0  0
   -3.4308    0.7681   -0.0697 O   0  0  0  0  0  0  0  0  0  0  0  0
    3.7657   -0.2752    0.8453 H   0  0  0  0  0  0  0  0  0  0  0  0
    3.2039    0.5939   -0.6800 H   0  0  0  0  0  0  0  0  0  0  0  0
    2.9555   -1.1751   -0.4544 H   0  0  0  0  0  0  0  0  0  0  0  0
    1.5210   -0.3420    1.6801 H   0  0  0  0  0  0  0  0  0  0  0  0
    1.4989    1.1693    0.7426 H   0  0  0  0  0  0  0  0  0  0  0  0
    0.9491   -1.5594   -0.5415 H   0  0  0  0  0  0  0  0  0  0  0  0
    0.7717    0.0412   -1.2781 H   0  0  0  0  0  0  0  0  0  0  0  0
   -1.2326   -1.7657   -1.5215 H   0  0  0  0  0  0  0  0  0  0  0  0
   -2.0179   -0.1859   -1.6665 H   0  0  0  0  0  0  0  0  0  0  0  0
   -2.6746   -1.4052   -0.4352 H   0  0  0  0  0  0  0  0  0  0  0  0
   -0.4385    1.6183    1.0635 H   0  0  0  0  0  0  0  0  0  0  0  0
   -2.6335    2.5413    0.3454 H   0  0  0  0  0  0  0  0  0  0  0  0
  1  2  1  0
  2  3  1  0
  3  4  1  0
  4  5  1  0
  4  6  1  0
  6  7  1  0
  7  8  1  0
  8  9  2  0
  7  4  1  0
  1 10  1  0
  1 11  1  0
  1 12  1  0
  2 13  1  0
  2 14  1  0
  3 15  1  0
  3 16  1  0
  5 17  1  0
  5 18  1  0
  5 19  1  0
  7 20  1  0
  8 21  1  0
M  END
