
     RDKit          3D

 23 23  0  0  0  0  0  0  0  0999 V2000
   -3.2017    0.6372   -0.1358 C   0  0  0  0  0  0  0  0  0  0  0  0
   -1.8988    0.3078   -0.8046 C   0  0  0  0  0  0  0  0  0  0  0  0
   -1.0220   -0.5795    0.0641 C   0  0  0  0  0  0  0  0  0  0  0  0
    0.2418   -0.8337   -0.7135 C   0  0  0  0  0  0  0  0  0  0  0  0
    1.2224   -1.6970    0.0026 C   0  0  0  0  0  0  0  0  0  0  0  0
    1.8901   -0.7978    0.8406 O   0  0  0  0  0  0  0  0  0  0  0  0
    1.6128    0.4692    0.4002 C   0  0  0  0  0  0  0  0  0  0  0  0
    2.9295    1.1714    0.1090 C   0  0  0  0  0  0  0  0  0  0  0  0
    0.9242    0.3853   -0.7935 O   0  0  0  0  0  0  0  0  0  0  0  0
   -3.8313   -0.2478   -0.0497 H   0  0  0  0  0  0  0  0  0  0  0  0
   -3.7218    1.3790   -0.7697 H   0  0  0  0  0  0  0  0  0  0  0  0
   -2.9582    1.1238    0.8347 H   0  0  0  0  0  0  0  0  0  0  0  0
   -2.0187   -0.2016   -1.7684 H   0  0  0  0  0  0  0  0  0  0  0  0
   -1.3388    1.2414   -0.9959 H   0  0  0  0  0  0  0  0  0  0  0  0
   -1.5877   -1.5190    0.2815 H   0  0  0  0  0  0  0  0  0  0  0  0
   -0.7875   -0.0654    1.0166 H   0  0  0  0  0  0  0  0  0  0  0  0
   -0.0252   -1.2264   -1.7137 H   0  0  0  0  0  0  0  0  0  0  0  0
    1.9911   -2.0213   -0.7541 H   0  0  0  0  0  0  0  0  0  0  0  0
    0.7892   -2.5437    0.5456 H   0  0  0  0  0  0  0  0  0  0  0  0
    1.0819    1.0455    1.1841 H   0  0  0  0  0  0  0  0  0  0  0  0
    3.5737    0.5021   -0.4797 H   0  0  0  0  0  0  0  0  0  0  0  0
    3.4234    1.3546    1.0722 H   0  0  0  0  0  0  0  0  0  0  0  0
    2.7115    2.1158   -0.4291 H   0  0  0  0  0  0  0  0  0  0  0  0
  1  2  1  0
  2  3  1  0
  3  4  1  0
  4  5  1  0
  5  6  1  0
  6  7  1  0
  7  8  1  0
  7  9  1  0
  9  4  1  0
  1 10  1  0
  1 11  1  0
  1 12  1  0
  2 13  1  0
  2 14  1  0
  3 15  1  0
  3 16  1  0
  4 17  1  0
  5 18  1  0
  5 19  1  0
  7 20  1  0
  8 21  1  0
  8 22  1  0
  8 23  1  0
M  END
