
     RDKit          3D

 24 23  0  0  0  0  0  0  0  0999 V2000
   -2.7001    0.8783   -0.0345 C   0  0  0  0  0  0  0  0  0  0  0  0
   -2.5370   -0.5883    0.1210 C   0  0  0  0  0  0  0  0  0  0  0  0
   -1.2297   -1.0953    0.6051 C   0  0  0  0  0  0  0  0  0  0  0  0
   -0.0462   -0.8376   -0.2458 C   0  0  0  0  0  0  0  0  0  0  0  0
    0.3200    0.5684   -0.5422 C   0  0  0  0  0  0  0  0  0  0  0  0
    1.4700    0.5761   -1.3291 O   0  0  0  0  0  0  0  0  0  0  0  0
    2.5793    0.0101   -0.7849 C   0  0  0  0  0  0  0  0  0  0  0  0
    2.9978    0.6642    0.5167 C   0  0  0  0  0  0  0  0  0  0  0  0
   -1.9517    1.4951    0.5114 H   0  0  0  0  0  0  0  0  0  0  0  0
   -2.7881    1.1442   -1.1075 H   0  0  0  0  0  0  0  0  0  0  0  0
   -3.7165    1.2004    0.3870 H   0  0  0  0  0  0  0  0  0  0  0  0
   -2.7673   -1.1434   -0.8315 H   0  0  0  0  0  0  0  0  0  0  0  0
   -3.3428   -0.9487    0.8208 H   0  0  0  0  0  0  0  0  0  0  0  0
   -1.0493   -0.8595    1.6881 H   0  0  0  0  0  0  0  0  0  0  0  0
   -1.3438   -2.2300    0.6291 H   0  0  0  0  0  0  0  0  0  0  0  0
   -0.1640   -1.4324   -1.1833 H   0  0  0  0  0  0  0  0  0  0  0  0
    0.8704   -1.3029    0.2464 H   0  0  0  0  0  0  0  0  0  0  0  0
   -0.4720    1.0230   -1.2178 H   0  0  0  0  0  0  0  0  0  0  0  0
    0.4204    1.1849    0.3525 H   0  0  0  0  0  0  0  0  0  0  0  0
    3.4297    0.2708   -1.5003 H   0  0  0  0  0  0  0  0  0  0  0  0
    2.6059   -1.0653   -0.6608 H   0  0  0  0  0  0  0  0  0  0  0  0
    2.9449    1.7749    0.3580 H   0  0  0  0  0  0  0  0  0  0  0  0
    2.4128    0.3294    1.3784 H   0  0  0  0  0  0  0  0  0  0  0  0
    4.0572    0.3837    0.6945 H   0  0  0  0  0  0  0  0  0  0  0  0
  1  2  1  0
  2  3  1  0
  3  4  1  0
  4  5  1  0
  5  6  1  0
  6  7  1  0
  7  8  1  0
  1  9  1  0
  1 10  1  0
  1 11  1  0
  2 12  1  0
  2 13  1  0
  3 14  1  0
  3 15  1  0
  4 16  1  0
  4 17  1  0
  5 18  1  0
  5 19  1  0
  7 20  1  0
  7 21  1  0
  8 22  1  0
  8 23  1  0
  8 24  1  0
M  END
