
     RDKit          3D

 27 26  0  0  0  0  0  0  0  0999 V2000
    3.0680   -0.4932   -0.4838 C   0  0  0  0  0  0  0  0  0  0  0  0
    2.5584    0.7970    0.1724 C   0  0  0  0  0  0  0  0  0  0  0  0
    1.2019    1.0823   -0.4074 C   0  0  0  0  0  0  0  0  0  0  0  0
    0.2193   -0.0284   -0.1464 C   0  0  0  0  0  0  0  0  0  0  0  0
    0.0954   -0.1753    1.2197 O   0  0  0  0  0  0  0  0  0  0  0  0
   -1.1054    0.2133   -0.8409 C   0  0  0  0  0  0  0  0  0  0  0  0
   -1.7539    1.4735   -0.3912 C   0  0  0  0  0  0  0  0  0  0  0  0
   -1.9886   -0.9969   -0.7902 C   0  0  0  0  0  0  0  0  0  0  0  0
   -2.3414   -1.4607    0.5760 C   0  0  0  0  0  0  0  0  0  0  0  0
    4.1721   -0.5465   -0.3744 H   0  0  0  0  0  0  0  0  0  0  0  0
    2.7315   -0.4967   -1.5375 H   0  0  0  0  0  0  0  0  0  0  0  0
    2.6084   -1.3421    0.0246 H   0  0  0  0  0  0  0  0  0  0  0  0
    3.2938    1.5749   -0.1130 H   0  0  0  0  0  0  0  0  0  0  0  0
    2.5652    0.7229    1.2593 H   0  0  0  0  0  0  0  0  0  0  0  0
    0.8044    1.9829    0.1464 H   0  0  0  0  0  0  0  0  0  0  0  0
    1.2760    1.3830   -1.4545 H   0  0  0  0  0  0  0  0  0  0  0  0
    0.6809   -0.9615   -0.5369 H   0  0  0  0  0  0  0  0  0  0  0  0
    0.2034   -1.1128    1.4987 H   0  0  0  0  0  0  0  0  0  0  0  0
   -0.8424    0.3525   -1.9325 H   0  0  0  0  0  0  0  0  0  0  0  0
   -1.6092    2.3353   -1.0799 H   0  0  0  0  0  0  0  0  0  0  0  0
   -1.2478    1.7832    0.5695 H   0  0  0  0  0  0  0  0  0  0  0  0
   -2.8439    1.3957   -0.2239 H   0  0  0  0  0  0  0  0  0  0  0  0
   -2.8632   -0.8409   -1.4551 H   0  0  0  0  0  0  0  0  0  0  0  0
   -1.4043   -1.8305   -1.2832 H   0  0  0  0  0  0  0  0  0  0  0  0
   -2.2748   -0.6924    1.3623 H   0  0  0  0  0  0  0  0  0  0  0  0
   -1.7795   -2.3435    0.9285 H   0  0  0  0  0  0  0  0  0  0  0  0
   -3.4244   -1.7751    0.5557 H   0  0  0  0  0  0  0  0  0  0  0  0
  1  2  1  0
  2  3  1  0
  3  4  1  0
  4  5  1  0
  4  6  1  0
  6  7  1  0
  6  8  1  0
  8  9  1  0
  1 10  1  0
  1 11  1  0
  1 12  1  0
  2 13  1  0
  2 14  1  0
  3 15  1  0
  3 16  1  0
  4 17  1  0
  5 18  1  0
  6 19  1  0
  7 20  1  0
  7 21  1  0
  7 22  1  0
  8 23  1  0
  8 24  1  0
  9 25  1  0
  9 26  1  0
  9 27  1  0
M  END
