
     RDKit          3D

 25 24  0  0  0  0  0  0  0  0999 V2000
    2.9622   -0.7599    0.6345 C   0  0  0  0  0  0  0  0  0  0  0  0
    1.8429   -0.3628   -0.3346 C   0  0  0  0  0  0  0  0  0  0  0  0
    0.7397    0.2222    0.5217 C   0  0  0  0  0  0  0  0  0  0  0  0
   -0.4511    0.6712   -0.2696 C   0  0  0  0  0  0  0  0  0  0  0  0
   -0.0710    1.6525   -1.1821 O   0  0  0  0  0  0  0  0  0  0  0  0
   -1.0456   -0.4731   -1.0203 C   0  0  0  0  0  0  0  0  0  0  0  0
   -1.5110   -1.5943   -0.1354 C   0  0  0  0  0  0  0  0  0  0  0  0
   -1.4347    1.2925    0.6977 C   0  0  0  0  0  0  0  0  0  0  0  0
   -2.5571    1.7647    0.0210 O   0  0  0  0  0  0  0  0  0  0  0  0
    3.9604   -0.6582    0.1467 H   0  0  0  0  0  0  0  0  0  0  0  0
    2.7684   -1.8087    0.9358 H   0  0  0  0  0  0  0  0  0  0  0  0
    2.9003   -0.1357    1.5496 H   0  0  0  0  0  0  0  0  0  0  0  0
    1.5168   -1.2511   -0.9094 H   0  0  0  0  0  0  0  0  0  0  0  0
    2.2471    0.4251   -0.9888 H   0  0  0  0  0  0  0  0  0  0  0  0
    0.5004   -0.5221    1.2893 H   0  0  0  0  0  0  0  0  0  0  0  0
    1.2112    1.0928    1.0598 H   0  0  0  0  0  0  0  0  0  0  0  0
   -0.8837    1.8314   -1.7472 H   0  0  0  0  0  0  0  0  0  0  0  0
   -0.3017   -0.8614   -1.7387 H   0  0  0  0  0  0  0  0  0  0  0  0
   -1.9161   -0.1432   -1.6485 H   0  0  0  0  0  0  0  0  0  0  0  0
   -2.4272   -1.3577    0.4278 H   0  0  0  0  0  0  0  0  0  0  0  0
   -1.7954   -2.4464   -0.8194 H   0  0  0  0  0  0  0  0  0  0  0  0
   -0.6835   -1.9750    0.4816 H   0  0  0  0  0  0  0  0  0  0  0  0
   -1.7858    0.5847    1.4622 H   0  0  0  0  0  0  0  0  0  0  0  0
   -0.9765    2.1458    1.2260 H   0  0  0  0  0  0  0  0  0  0  0  0
   -2.8089    2.6666    0.3403 H   0  0  0  0  0  0  0  0  0  0  0  0
  1  2  1  0
  2  3  1  0
  3  4  1  0
  4  5  1  0
  4  6  1  0
  6  7  1  0
  4  8  1  0
  8  9  1  0
  1 10  1  0
  1 11  1  0
  1 12  1  0
  2 13  1  0
  2 14  1  0
  3 15  1  0
  3 16  1  0
  5 17  1  0
  6 18  1  0
  6 19  1  0
  7 20  1  0
  7 21  1  0
  7 22  1  0
  8 23  1  0
  8 24  1  0
  9 25  1  0
M  END
