
     RDKit          3D

 25 25  0  0  0  0  0  0  0  0999 V2000
    3.1491    0.9251   -0.1515 C   0  0  0  0  0  0  0  0  0  0  0  0
    2.4832    0.1287    0.9330 C   0  0  0  0  0  0  0  0  0  0  0  0
    1.3060   -0.6587    0.4554 C   0  0  0  0  0  0  0  0  0  0  0  0
    0.2741    0.2663   -0.1145 C   0  0  0  0  0  0  0  0  0  0  0  0
   -0.9493   -0.4573   -0.6199 C   0  0  0  0  0  0  0  0  0  0  0  0
   -1.6810   -1.2591    0.4399 C   0  0  0  0  0  0  0  0  0  0  0  0
   -2.9364   -0.4344    0.2604 C   0  0  0  0  0  0  0  0  0  0  0  0
   -2.1392    0.5002   -0.6239 C   0  0  0  0  0  0  0  0  0  0  0  0
   -2.7294    0.6641   -1.8587 O   0  0  0  0  0  0  0  0  0  0  0  0
    2.9383    1.9999    0.0329 H   0  0  0  0  0  0  0  0  0  0  0  0
    2.7951    0.6092   -1.1688 H   0  0  0  0  0  0  0  0  0  0  0  0
    4.2515    0.7729   -0.1699 H   0  0  0  0  0  0  0  0  0  0  0  0
    3.2429   -0.6165    1.3037 H   0  0  0  0  0  0  0  0  0  0  0  0
    2.2602    0.7700    1.8073 H   0  0  0  0  0  0  0  0  0  0  0  0
    0.8532   -1.1546    1.3427 H   0  0  0  0  0  0  0  0  0  0  0  0
    1.6431   -1.4456   -0.2231 H   0  0  0  0  0  0  0  0  0  0  0  0
   -0.0658    0.9384    0.7005 H   0  0  0  0  0  0  0  0  0  0  0  0
    0.6427    0.8885   -0.9464 H   0  0  0  0  0  0  0  0  0  0  0  0
   -0.8265   -0.9887   -1.5799 H   0  0  0  0  0  0  0  0  0  0  0  0
   -1.7868   -2.3134    0.1055 H   0  0  0  0  0  0  0  0  0  0  0  0
   -1.2595   -1.2187    1.4458 H   0  0  0  0  0  0  0  0  0  0  0  0
   -3.7520   -0.9851   -0.2518 H   0  0  0  0  0  0  0  0  0  0  0  0
   -3.2770    0.0309    1.2047 H   0  0  0  0  0  0  0  0  0  0  0  0
   -1.9449    1.4722   -0.1271 H   0  0  0  0  0  0  0  0  0  0  0  0
   -2.4918    1.5657   -2.1961 H   0  0  0  0  0  0  0  0  0  0  0  0
  1  2  1  0
  2  3  1  0
  3  4  1  0
  4  5  1  0
  5  6  1  0
  6  7  1  0
  7  8  1  0
  8  9  1  0
  8  5  1  0
  1 10  1  0
  1 11  1  0
  1 12  1  0
  2 13  1  0
  2 14  1  0
  3 15  1  0
  3 16  1  0
  4 17  1  0
  4 18  1  0
  5 19  1  0
  6 20  1  0
  6 21  1  0
  7 22  1  0
  7 23  1  0
  8 24  1  0
  9 25  1  0
M  END
