
     RDKit          3D

 25 24  0  0  0  0  0  0  0  0999 V2000
   -3.4089   -0.2332    0.4017 C   0  0  0  0  0  0  0  0  0  0  0  0
   -2.2276   -0.3992   -0.5340 C   0  0  0  0  0  0  0  0  0  0  0  0
   -0.9939   -0.0035    0.2172 C   0  0  0  0  0  0  0  0  0  0  0  0
    0.2632   -0.1198   -0.5954 C   0  0  0  0  0  0  0  0  0  0  0  0
    0.1832    0.6961   -1.7075 O   0  0  0  0  0  0  0  0  0  0  0  0
    1.4198    0.3030    0.3189 C   0  0  0  0  0  0  0  0  0  0  0  0
    1.4495   -0.6218    1.5096 C   0  0  0  0  0  0  0  0  0  0  0  0
    2.7225    0.3219   -0.4373 C   0  0  0  0  0  0  0  0  0  0  0  0
    2.5909    1.2340   -1.4805 O   0  0  0  0  0  0  0  0  0  0  0  0
   -3.7221    0.8264    0.3615 H   0  0  0  0  0  0  0  0  0  0  0  0
   -4.2247   -0.9435    0.1691 H   0  0  0  0  0  0  0  0  0  0  0  0
   -3.0461   -0.4427    1.4286 H   0  0  0  0  0  0  0  0  0  0  0  0
   -2.3545    0.2576   -1.4159 H   0  0  0  0  0  0  0  0  0  0  0  0
   -2.1249   -1.4620   -0.8211 H   0  0  0  0  0  0  0  0  0  0  0  0
   -0.8881   -0.7388    1.0677 H   0  0  0  0  0  0  0  0  0  0  0  0
   -1.1207    1.0065    0.6008 H   0  0  0  0  0  0  0  0  0  0  0  0
    0.4317   -1.1540   -0.9435 H   0  0  0  0  0  0  0  0  0  0  0  0
    0.1334    1.6429   -1.4141 H   0  0  0  0  0  0  0  0  0  0  0  0
    1.2408    1.3252    0.7122 H   0  0  0  0  0  0  0  0  0  0  0  0
    2.4410   -0.5000    1.9950 H   0  0  0  0  0  0  0  0  0  0  0  0
    1.2119   -1.6684    1.2582 H   0  0  0  0  0  0  0  0  0  0  0  0
    0.7044   -0.2527    2.2460 H   0  0  0  0  0  0  0  0  0  0  0  0
    3.0139   -0.6598   -0.8287 H   0  0  0  0  0  0  0  0  0  0  0  0
    3.4865    0.7387    0.2500 H   0  0  0  0  0  0  0  0  0  0  0  0
    2.8187    0.8473   -2.3583 H   0  0  0  0  0  0  0  0  0  0  0  0
  1  2  1  0
  2  3  1  0
  3  4  1  0
  4  5  1  0
  4  6  1  0
  6  7  1  0
  6  8  1  0
  8  9  1  0
  1 10  1  0
  1 11  1  0
  1 12  1  0
  2 13  1  0
  2 14  1  0
  3 15  1  0
  3 16  1  0
  4 17  1  0
  5 18  1  0
  6 19  1  0
  7 20  1  0
  7 21  1  0
  7 22  1  0
  8 23  1  0
  8 24  1  0
  9 25  1  0
M  END
