
     RDKit          3D

 18 17  0  0  0  0  0  0  0  0999 V2000
   -2.7563    0.1302   -0.3719 C   0  0  0  0  0  0  0  0  0  0  0  0
   -1.3519   -0.3400   -0.0215 C   0  0  0  0  0  0  0  0  0  0  0  0
   -0.4444    0.8773    0.0386 C   0  0  0  0  0  0  0  0  0  0  0  0
    0.9606    0.4978    0.3792 C   0  0  0  0  0  0  0  0  0  0  0  0
    1.5304   -0.3691   -0.5364 O   0  0  0  0  0  0  0  0  0  0  0  0
    2.8362   -0.6295   -0.0835 C   0  0  0  0  0  0  0  0  0  0  0  0
   -2.7969    1.2388   -0.4130 H   0  0  0  0  0  0  0  0  0  0  0  0
   -3.4954   -0.1658    0.4185 H   0  0  0  0  0  0  0  0  0  0  0  0
   -3.0176   -0.2367   -1.3688 H   0  0  0  0  0  0  0  0  0  0  0  0
   -0.9820   -1.0344   -0.8082 H   0  0  0  0  0  0  0  0  0  0  0  0
   -1.3493   -0.9046    0.9214 H   0  0  0  0  0  0  0  0  0  0  0  0
   -0.8146    1.5494    0.8458 H   0  0  0  0  0  0  0  0  0  0  0  0
   -0.5279    1.4406   -0.9056 H   0  0  0  0  0  0  0  0  0  0  0  0
    0.9681    0.0947    1.4136 H   0  0  0  0  0  0  0  0  0  0  0  0
    1.5685    1.4241    0.4071 H   0  0  0  0  0  0  0  0  0  0  0  0
    3.4310    0.3169   -0.0224 H   0  0  0  0  0  0  0  0  0  0  0  0
    3.3950   -1.2666   -0.8218 H   0  0  0  0  0  0  0  0  0  0  0  0
    2.8467   -1.0683    0.9288 H   0  0  0  0  0  0  0  0  0  0  0  0
  1  2  1  0
  2  3  1  0
  3  4  1  0
  4  5  1  0
  5  6  1  0
  1  7  1  0
  1  8  1  0
  1  9  1  0
  2 10  1  0
  2 11  1  0
  3 12  1  0
  3 13  1  0
  4 14  1  0
  4 15  1  0
  6 16  1  0
  6 17  1  0
  6 18  1  0
M  END
