
     RDKit          3D

 20 19  0  0  0  0  0  0  0  0999 V2000
    2.9784    0.2292   -0.0525 C   0  0  0  0  0  0  0  0  0  0  0  0
    1.8059   -0.5912    0.4680 C   0  0  0  0  0  0  0  0  0  0  0  0
    0.5754    0.3145    0.3285 C   0  0  0  0  0  0  0  0  0  0  0  0
   -0.6650   -0.3325    0.7986 C   0  0  0  0  0  0  0  0  0  0  0  0
   -0.7455   -0.7816    1.9225 O   0  0  0  0  0  0  0  0  0  0  0  0
   -1.8545   -0.4607   -0.0868 C   0  0  0  0  0  0  0  0  0  0  0  0
   -2.3176    0.9056   -0.5666 C   0  0  0  0  0  0  0  0  0  0  0  0
   -2.8937   -1.0408    0.6060 O   0  0  0  0  0  0  0  0  0  0  0  0
    3.2364    0.9728    0.7248 H   0  0  0  0  0  0  0  0  0  0  0  0
    3.8129   -0.4201   -0.3737 H   0  0  0  0  0  0  0  0  0  0  0  0
    2.5674    0.8336   -0.9100 H   0  0  0  0  0  0  0  0  0  0  0  0
    1.7364   -1.4682   -0.2160 H   0  0  0  0  0  0  0  0  0  0  0  0
    1.9689   -0.8643    1.5077 H   0  0  0  0  0  0  0  0  0  0  0  0
    0.5119    0.6525   -0.7292 H   0  0  0  0  0  0  0  0  0  0  0  0
    0.8153    1.2032    0.9927 H   0  0  0  0  0  0  0  0  0  0  0  0
   -1.5630   -1.0607   -0.9806 H   0  0  0  0  0  0  0  0  0  0  0  0
   -2.5416    1.4991    0.3263 H   0  0  0  0  0  0  0  0  0  0  0  0
   -1.5765    1.3747   -1.2298 H   0  0  0  0  0  0  0  0  0  0  0  0
   -3.2596    0.7835   -1.1326 H   0  0  0  0  0  0  0  0  0  0  0  0
   -2.5919   -1.7486    1.1948 H   0  0  0  0  0  0  0  0  0  0  0  0
  1  2  1  0
  2  3  1  0
  3  4  1  0
  4  5  2  0
  4  6  1  0
  6  7  1  0
  6  8  1  0
  1  9  1  0
  1 10  1  0
  1 11  1  0
  2 12  1  0
  2 13  1  0
  3 14  1  0
  3 15  1  0
  6 16  1  0
  7 17  1  0
  7 18  1  0
  7 19  1  0
  8 20  1  0
M  END
