
     RDKit          3D

 25 25  0  0  0  0  0  0  0  0999 V2000
    3.2636    0.3749   -0.0098 C   0  0  0  0  0  0  0  0  0  0  0  0
    2.3315   -0.7566   -0.3252 C   0  0  0  0  0  0  0  0  0  0  0  0
    1.1396   -0.7932    0.6039 C   0  0  0  0  0  0  0  0  0  0  0  0
    0.3320    0.4612    0.5281 C   0  0  0  0  0  0  0  0  0  0  0  0
   -0.2990    0.9134   -0.7306 C   0  0  0  0  0  0  0  0  0  0  0  0
   -1.1534    0.2529    0.2616 C   0  0  0  0  0  0  0  0  0  0  0  0
   -2.0654    1.0223    1.1859 C   0  0  0  0  0  0  0  0  0  0  0  0
   -1.5569   -1.0599   -0.0625 O   0  0  0  0  0  0  0  0  0  0  0  0
   -2.9103   -1.1332   -0.2821 C   0  0  0  0  0  0  0  0  0  0  0  0
    2.9830    1.3219   -0.5056 H   0  0  0  0  0  0  0  0  0  0  0  0
    4.2746    0.1134   -0.3996 H   0  0  0  0  0  0  0  0  0  0  0  0
    3.3929    0.5421    1.0767 H   0  0  0  0  0  0  0  0  0  0  0  0
    2.8413   -1.7407   -0.2979 H   0  0  0  0  0  0  0  0  0  0  0  0
    1.9652   -0.6123   -1.3685 H   0  0  0  0  0  0  0  0  0  0  0  0
    0.5538   -1.7032    0.3699 H   0  0  0  0  0  0  0  0  0  0  0  0
    1.5199   -0.9202    1.6391 H   0  0  0  0  0  0  0  0  0  0  0  0
    0.6176    1.2408    1.2683 H   0  0  0  0  0  0  0  0  0  0  0  0
   -0.0916    0.3814   -1.7004 H   0  0  0  0  0  0  0  0  0  0  0  0
   -0.3485    2.0168   -0.8875 H   0  0  0  0  0  0  0  0  0  0  0  0
   -1.5223    1.8225    1.7298 H   0  0  0  0  0  0  0  0  0  0  0  0
   -2.4236    0.3201    1.9921 H   0  0  0  0  0  0  0  0  0  0  0  0
   -2.9463    1.4554    0.6574 H   0  0  0  0  0  0  0  0  0  0  0  0
   -3.1972   -2.1696   -0.5332 H   0  0  0  0  0  0  0  0  0  0  0  0
   -3.2722   -0.4879   -1.1117 H   0  0  0  0  0  0  0  0  0  0  0  0
   -3.4282   -0.8624    0.6682 H   0  0  0  0  0  0  0  0  0  0  0  0
  1  2  1  0
  2  3  1  0
  3  4  1  0
  4  5  1  0
  5  6  1  0
  6  7  1  0
  6  8  1  0
  8  9  1  0
  6  4  1  0
  1 10  1  0
  1 11  1  0
  1 12  1  0
  2 13  1  0
  2 14  1  0
  3 15  1  0
  3 16  1  0
  4 17  1  0
  5 18  1  0
  5 19  1  0
  7 20  1  0
  7 21  1  0
  7 22  1  0
  9 23  1  0
  9 24  1  0
  9 25  1  0
M  END
