
     RDKit          3D

 25 25  0  0  0  0  0  0  0  0999 V2000
    2.9897   -0.2444    0.0407 C   0  0  0  0  0  0  0  0  0  0  0  0
    1.9593   -0.1082    1.1129 C   0  0  0  0  0  0  0  0  0  0  0  0
    0.7266    0.6459    0.6100 C   0  0  0  0  0  0  0  0  0  0  0  0
    0.1398   -0.1208   -0.5401 C   0  0  0  0  0  0  0  0  0  0  0  0
   -1.0804    0.3802   -1.2363 C   0  0  0  0  0  0  0  0  0  0  0  0
   -1.6032    1.7140   -0.7683 C   0  0  0  0  0  0  0  0  0  0  0  0
   -1.1529   -0.8312   -0.4199 C   0  0  0  0  0  0  0  0  0  0  0  0
   -1.8827   -0.8772    0.9032 C   0  0  0  0  0  0  0  0  0  0  0  0
   -1.2988   -2.0363   -1.1471 O   0  0  0  0  0  0  0  0  0  0  0  0
    2.9420   -1.2483   -0.4666 H   0  0  0  0  0  0  0  0  0  0  0  0
    2.9041    0.5555   -0.7275 H   0  0  0  0  0  0  0  0  0  0  0  0
    4.0379   -0.1834    0.4327 H   0  0  0  0  0  0  0  0  0  0  0  0
    1.5858   -1.1252    1.4104 H   0  0  0  0  0  0  0  0  0  0  0  0
    2.3592    0.3493    2.0313 H   0  0  0  0  0  0  0  0  0  0  0  0
    0.0341    0.8585    1.4223 H   0  0  0  0  0  0  0  0  0  0  0  0
    1.1145    1.6095    0.2012 H   0  0  0  0  0  0  0  0  0  0  0  0
    0.9139   -0.5407   -1.2270 H   0  0  0  0  0  0  0  0  0  0  0  0
   -1.1403    0.2880   -2.3599 H   0  0  0  0  0  0  0  0  0  0  0  0
   -0.7866    2.4556   -0.9527 H   0  0  0  0  0  0  0  0  0  0  0  0
   -1.9209    1.7321    0.2695 H   0  0  0  0  0  0  0  0  0  0  0  0
   -2.4600    2.0434   -1.3924 H   0  0  0  0  0  0  0  0  0  0  0  0
   -2.9155   -1.2602    0.6725 H   0  0  0  0  0  0  0  0  0  0  0  0
   -1.8844    0.0655    1.4452 H   0  0  0  0  0  0  0  0  0  0  0  0
   -1.4423   -1.6446    1.5966 H   0  0  0  0  0  0  0  0  0  0  0  0
   -2.1390   -2.4769   -0.9111 H   0  0  0  0  0  0  0  0  0  0  0  0
  1  2  1  0
  2  3  1  0
  3  4  1  0
  4  5  1  0
  5  6  1  0
  5  7  1  0
  7  8  1  0
  7  9  1  0
  7  4  1  0
  1 10  1  0
  1 11  1  0
  1 12  1  0
  2 13  1  0
  2 14  1  0
  3 15  1  0
  3 16  1  0
  4 17  1  0
  5 18  1  0
  6 19  1  0
  6 20  1  0
  6 21  1  0
  8 22  1  0
  8 23  1  0
  8 24  1  0
  9 25  1  0
M  END
