
     RDKit          3D

 27 26  0  0  0  0  0  0  0  0999 V2000
    3.7767   -0.4014    0.2514 C   0  0  0  0  0  0  0  0  0  0  0  0
    2.8248    0.2166   -0.7409 C   0  0  0  0  0  0  0  0  0  0  0  0
    1.4200    0.3399   -0.1750 C   0  0  0  0  0  0  0  0  0  0  0  0
    0.8709   -1.0158    0.1992 C   0  0  0  0  0  0  0  0  0  0  0  0
   -0.3885   -0.8935    0.7106 O   0  0  0  0  0  0  0  0  0  0  0  0
   -1.3434   -0.3629   -0.1132 C   0  0  0  0  0  0  0  0  0  0  0  0
   -2.5800   -1.2536   -0.1925 C   0  0  0  0  0  0  0  0  0  0  0  0
   -1.8306    0.9382    0.5344 C   0  0  0  0  0  0  0  0  0  0  0  0
   -2.8947    1.5734   -0.3381 C   0  0  0  0  0  0  0  0  0  0  0  0
    3.8416    0.2077    1.1633 H   0  0  0  0  0  0  0  0  0  0  0  0
    3.5073   -1.4540    0.4935 H   0  0  0  0  0  0  0  0  0  0  0  0
    4.7834   -0.3819   -0.2167 H   0  0  0  0  0  0  0  0  0  0  0  0
    2.8188   -0.3549   -1.6849 H   0  0  0  0  0  0  0  0  0  0  0  0
    3.2032    1.2342   -0.9687 H   0  0  0  0  0  0  0  0  0  0  0  0
    0.8059    0.7399   -1.0052 H   0  0  0  0  0  0  0  0  0  0  0  0
    1.4085    0.9966    0.7155 H   0  0  0  0  0  0  0  0  0  0  0  0
    1.5213   -1.5102    0.9562 H   0  0  0  0  0  0  0  0  0  0  0  0
    0.8216   -1.6497   -0.7265 H   0  0  0  0  0  0  0  0  0  0  0  0
   -1.0100   -0.0894   -1.1308 H   0  0  0  0  0  0  0  0  0  0  0  0
   -3.1337   -1.0860   -1.1518 H   0  0  0  0  0  0  0  0  0  0  0  0
   -3.3091   -1.0067    0.6200 H   0  0  0  0  0  0  0  0  0  0  0  0
   -2.3394   -2.3143   -0.0937 H   0  0  0  0  0  0  0  0  0  0  0  0
   -1.0137    1.6357    0.7107 H   0  0  0  0  0  0  0  0  0  0  0  0
   -2.3168    0.7167    1.5105 H   0  0  0  0  0  0  0  0  0  0  0  0
   -3.1698    2.5378    0.1479 H   0  0  0  0  0  0  0  0  0  0  0  0
   -2.4815    1.7231   -1.3441 H   0  0  0  0  0  0  0  0  0  0  0  0
   -3.7928    0.9145   -0.3681 H   0  0  0  0  0  0  0  0  0  0  0  0
  1  2  1  0
  2  3  1  0
  3  4  1  0
  4  5  1  0
  5  6  1  0
  6  7  1  0
  6  8  1  0
  8  9  1  0
  1 10  1  0
  1 11  1  0
  1 12  1  0
  2 13  1  0
  2 14  1  0
  3 15  1  0
  3 16  1  0
  4 17  1  0
  4 18  1  0
  6 19  1  0
  7 20  1  0
  7 21  1  0
  7 22  1  0
  8 23  1  0
  8 24  1  0
  9 25  1  0
  9 26  1  0
  9 27  1  0
M  END
