
     RDKit          3D

 22 22  0  0  0  0  0  0  0  0999 V2000
    2.8411    0.0606   -0.7738 C   0  0  0  0  0  0  0  0  0  0  0  0
    1.3301    0.3162   -0.8268 C   0  0  0  0  0  0  0  0  0  0  0  0
    0.6695   -0.3167    0.3446 C   0  0  0  0  0  0  0  0  0  0  0  0
   -0.8020   -0.1532    0.4591 C   0  0  0  0  0  0  0  0  0  0  0  0
   -1.6520   -0.6945   -0.6696 C   0  0  0  0  0  0  0  0  0  0  0  0
   -1.2740   -0.0276   -1.8298 O   0  0  0  0  0  0  0  0  0  0  0  0
   -1.4031    0.9988    1.1770 C   0  0  0  0  0  0  0  0  0  0  0  0
   -1.3342   -0.2939    1.8770 C   0  0  0  0  0  0  0  0  0  0  0  0
    3.2660   -0.0477   -1.7948 H   0  0  0  0  0  0  0  0  0  0  0  0
    3.0810   -0.7951   -0.1110 H   0  0  0  0  0  0  0  0  0  0  0  0
    3.3365    0.9633   -0.3399 H   0  0  0  0  0  0  0  0  0  0  0  0
    1.1224    1.3956   -0.9363 H   0  0  0  0  0  0  0  0  0  0  0  0
    1.0112   -0.1560   -1.8034 H   0  0  0  0  0  0  0  0  0  0  0  0
    1.1923    0.0295    1.2698 H   0  0  0  0  0  0  0  0  0  0  0  0
    0.8860   -1.4246    0.3126 H   0  0  0  0  0  0  0  0  0  0  0  0
   -1.5244   -1.7902   -0.7960 H   0  0  0  0  0  0  0  0  0  0  0  0
   -2.7286   -0.4741   -0.4379 H   0  0  0  0  0  0  0  0  0  0  0  0
   -1.9695    0.5832   -2.1715 H   0  0  0  0  0  0  0  0  0  0  0  0
   -2.4147    1.3434    0.8934 H   0  0  0  0  0  0  0  0  0  0  0  0
   -0.7609    1.8460    1.5301 H   0  0  0  0  0  0  0  0  0  0  0  0
   -2.2602   -0.9211    1.9336 H   0  0  0  0  0  0  0  0  0  0  0  0
   -0.6125   -0.4420    2.6937 H   0  0  0  0  0  0  0  0  0  0  0  0
  1  2  1  0
  2  3  1  0
  3  4  1  0
  4  5  1  0
  5  6  1  0
  4  7  1  0
  7  8  1  0
  8  4  1  0
  1  9  1  0
  1 10  1  0
  1 11  1  0
  2 12  1  0
  2 13  1  0
  3 14  1  0
  3 15  1  0
  5 16  1  0
  5 17  1  0
  6 18  1  0
  7 19  1  0
  7 20  1  0
  8 21  1  0
  8 22  1  0
M  END
