
     RDKit          3D

 18 17  0  0  0  0  0  0  0  0999 V2000
   -2.5900    0.3267    0.1807 C   0  0  0  0  0  0  0  0  0  0  0  0
   -1.4900   -0.5346   -0.4386 C   0  0  0  0  0  0  0  0  0  0  0  0
   -0.1746    0.1011   -0.0225 C   0  0  0  0  0  0  0  0  0  0  0  0
    1.0049   -0.6761   -0.5849 C   0  0  0  0  0  0  0  0  0  0  0  0
    2.2666    0.0268   -0.1212 C   0  0  0  0  0  0  0  0  0  0  0  0
    2.3159    1.3388   -0.5719 O   0  0  0  0  0  0  0  0  0  0  0  0
   -3.6023   -0.0676   -0.0852 H   0  0  0  0  0  0  0  0  0  0  0  0
   -2.4213    1.3478   -0.1624 H   0  0  0  0  0  0  0  0  0  0  0  0
   -2.4385    0.2863    1.2680 H   0  0  0  0  0  0  0  0  0  0  0  0
   -1.5836   -0.6086   -1.5307 H   0  0  0  0  0  0  0  0  0  0  0  0
   -1.6090   -1.5391    0.0026 H   0  0  0  0  0  0  0  0  0  0  0  0
   -0.1374    0.1163    1.0814 H   0  0  0  0  0  0  0  0  0  0  0  0
   -0.1382    1.1198   -0.4719 H   0  0  0  0  0  0  0  0  0  0  0  0
    0.9408   -0.7528   -1.6712 H   0  0  0  0  0  0  0  0  0  0  0  0
    0.9889   -1.6719   -0.0944 H   0  0  0  0  0  0  0  0  0  0  0  0
    3.1194   -0.5479   -0.5660 H   0  0  0  0  0  0  0  0  0  0  0  0
    2.3103    0.0560    0.9861 H   0  0  0  0  0  0  0  0  0  0  0  0
    3.2381    1.6789   -0.4635 H   0  0  0  0  0  0  0  0  0  0  0  0
  1  2  1  0
  2  3  1  0
  3  4  1  0
  4  5  1  0
  5  6  1  0
  1  7  1  0
  1  8  1  0
  1  9  1  0
  2 10  1  0
  2 11  1  0
  3 12  1  0
  3 13  1  0
  4 14  1  0
  4 15  1  0
  5 16  1  0
  5 17  1  0
  6 18  1  0
M  END
