
     RDKit          3D

 22 22  0  0  0  0  0  0  0  0999 V2000
   -2.2203    1.0490   -0.9469 C   0  0  0  0  0  0  0  0  0  0  0  0
   -2.3712   -0.3794   -0.5056 C   0  0  0  0  0  0  0  0  0  0  0  0
   -1.4874   -0.7234    0.6609 C   0  0  0  0  0  0  0  0  0  0  0  0
   -0.0237   -0.5235    0.3266 C   0  0  0  0  0  0  0  0  0  0  0  0
    0.8697   -0.8558    1.4603 O   0  0  0  0  0  0  0  0  0  0  0  0
    0.8189    0.4735    0.9037 C   0  0  0  0  0  0  0  0  0  0  0  0
    2.0617    0.8897    0.1277 C   0  0  0  0  0  0  0  0  0  0  0  0
    2.9796   -0.3063   -0.0912 C   0  0  0  0  0  0  0  0  0  0  0  0
   -2.8205    1.1682   -1.8770 H   0  0  0  0  0  0  0  0  0  0  0  0
   -1.1814    1.2595   -1.2076 H   0  0  0  0  0  0  0  0  0  0  0  0
   -2.5640    1.7242   -0.1397 H   0  0  0  0  0  0  0  0  0  0  0  0
   -3.4258   -0.5862   -0.2398 H   0  0  0  0  0  0  0  0  0  0  0  0
   -2.1305   -1.0686   -1.3486 H   0  0  0  0  0  0  0  0  0  0  0  0
   -1.6634   -1.8035    0.8912 H   0  0  0  0  0  0  0  0  0  0  0  0
   -1.7814   -0.1619    1.5667 H   0  0  0  0  0  0  0  0  0  0  0  0
    0.3317   -1.0873   -0.5579 H   0  0  0  0  0  0  0  0  0  0  0  0
    0.5198    1.1960    1.6653 H   0  0  0  0  0  0  0  0  0  0  0  0
    1.8072    1.2742   -0.8798 H   0  0  0  0  0  0  0  0  0  0  0  0
    2.6081    1.6844    0.6560 H   0  0  0  0  0  0  0  0  0  0  0  0
    2.6655   -0.8947   -0.9646 H   0  0  0  0  0  0  0  0  0  0  0  0
    3.0211   -0.9190    0.8302 H   0  0  0  0  0  0  0  0  0  0  0  0
    3.9864    0.1223   -0.3299 H   0  0  0  0  0  0  0  0  0  0  0  0
  1  2  1  0
  2  3  1  0
  3  4  1  0
  4  5  1  0
  5  6  1  0
  6  7  1  0
  7  8  1  0
  6  4  1  0
  1  9  1  0
  1 10  1  0
  1 11  1  0
  2 12  1  0
  2 13  1  0
  3 14  1  0
  3 15  1  0
  4 16  1  0
  6 17  1  0
  7 18  1  0
  7 19  1  0
  8 20  1  0
  8 21  1  0
  8 22  1  0
M  END
