
     RDKit          3D

 21 22  0  0  0  0  0  0  0  0999 V2000
    3.0644   -0.5755   -0.4034 C   0  0  0  0  0  0  0  0  0  0  0  0
    1.7307   -0.3139    0.2957 C   0  0  0  0  0  0  0  0  0  0  0  0
    0.6645    0.0328   -0.7470 C   0  0  0  0  0  0  0  0  0  0  0  0
   -0.6167    0.2814   -0.0513 C   0  0  0  0  0  0  0  0  0  0  0  0
   -1.2792   -0.7777    0.7908 C   0  0  0  0  0  0  0  0  0  0  0  0
   -2.5765   -0.7932    0.2276 O   0  0  0  0  0  0  0  0  0  0  0  0
   -2.9148    0.5737    0.2363 C   0  0  0  0  0  0  0  0  0  0  0  0
   -1.6731    1.1657   -0.4465 C   0  0  0  0  0  0  0  0  0  0  0  0
   -0.7150    1.6170    0.4495 O   0  0  0  0  0  0  0  0  0  0  0  0
    3.0901   -1.6071   -0.8078 H   0  0  0  0  0  0  0  0  0  0  0  0
    3.1609    0.1073   -1.2665 H   0  0  0  0  0  0  0  0  0  0  0  0
    3.8496   -0.4357    0.3577 H   0  0  0  0  0  0  0  0  0  0  0  0
    1.9125    0.5373    0.9749 H   0  0  0  0  0  0  0  0  0  0  0  0
    1.4459   -1.2009    0.8921 H   0  0  0  0  0  0  0  0  0  0  0  0
    1.0023    0.9711   -1.2305 H   0  0  0  0  0  0  0  0  0  0  0  0
    0.6268   -0.7282   -1.5429 H   0  0  0  0  0  0  0  0  0  0  0  0
   -1.4213   -0.3781    1.8174 H   0  0  0  0  0  0  0  0  0  0  0  0
   -0.8013   -1.7498    0.7574 H   0  0  0  0  0  0  0  0  0  0  0  0
   -2.9711    0.9256    1.2874 H   0  0  0  0  0  0  0  0  0  0  0  0
   -3.8234    0.7847   -0.3296 H   0  0  0  0  0  0  0  0  0  0  0  0
   -1.7551    1.5634   -1.4530 H   0  0  0  0  0  0  0  0  0  0  0  0
  1  2  1  0
  2  3  1  0
  3  4  1  0
  4  5  1  0
  5  6  1  0
  6  7  1  0
  7  8  1  0
  8  9  1  0
  8  4  1  0
  9  4  1  0
  1 10  1  0
  1 11  1  0
  1 12  1  0
  2 13  1  0
  2 14  1  0
  3 15  1  0
  3 16  1  0
  5 17  1  0
  5 18  1  0
  7 19  1  0
  7 20  1  0
  8 21  1  0
M  END
