
     RDKit          3D

 24 24  0  0  0  0  0  0  0  0999 V2000
    2.7164   -0.1391   -0.2491 C   0  0  0  0  0  0  0  0  0  0  0  0
    1.7925    0.2393    0.8799 C   0  0  0  0  0  0  0  0  0  0  0  0
    0.4892    0.7708    0.4254 C   0  0  0  0  0  0  0  0  0  0  0  0
   -0.3864   -0.1022   -0.3780 C   0  0  0  0  0  0  0  0  0  0  0  0
   -1.7045    0.6003   -0.7804 C   0  0  0  0  0  0  0  0  0  0  0  0
   -2.4810    1.0158    0.4298 C   0  0  0  0  0  0  0  0  0  0  0  0
   -0.6423   -1.4892    0.2996 C   0  0  0  0  0  0  0  0  0  0  0  0
   -0.0497   -1.3215   -1.0835 C   0  0  0  0  0  0  0  0  0  0  0  0
    2.9829   -1.2062   -0.2463 H   0  0  0  0  0  0  0  0  0  0  0  0
    2.2525    0.1995   -1.2044 H   0  0  0  0  0  0  0  0  0  0  0  0
    3.6481    0.4849   -0.1539 H   0  0  0  0  0  0  0  0  0  0  0  0
    2.3278    0.9919    1.5283 H   0  0  0  0  0  0  0  0  0  0  0  0
    1.7175   -0.6642    1.5249 H   0  0  0  0  0  0  0  0  0  0  0  0
   -0.0677    1.1030    1.3533 H   0  0  0  0  0  0  0  0  0  0  0  0
    0.7057    1.7528   -0.0923 H   0  0  0  0  0  0  0  0  0  0  0  0
   -1.4763    1.4319   -1.4635 H   0  0  0  0  0  0  0  0  0  0  0  0
   -2.3040   -0.1405   -1.3460 H   0  0  0  0  0  0  0  0  0  0  0  0
   -3.5556    0.7207    0.3196 H   0  0  0  0  0  0  0  0  0  0  0  0
   -2.1075    0.6155    1.3773 H   0  0  0  0  0  0  0  0  0  0  0  0
   -2.3993    2.1368    0.5022 H   0  0  0  0  0  0  0  0  0  0  0  0
   -1.6790   -1.7912    0.4398 H   0  0  0  0  0  0  0  0  0  0  0  0
    0.0903   -1.8044    1.0661 H   0  0  0  0  0  0  0  0  0  0  0  0
    0.9248   -1.7578   -1.2733 H   0  0  0  0  0  0  0  0  0  0  0  0
   -0.7945   -1.6471   -1.8754 H   0  0  0  0  0  0  0  0  0  0  0  0
  1  2  1  0
  2  3  1  0
  3  4  1  0
  4  5  1  0
  5  6  1  0
  4  7  1  0
  7  8  1  0
  8  4  1  0
  1  9  1  0
  1 10  1  0
  1 11  1  0
  2 12  1  0
  2 13  1  0
  3 14  1  0
  3 15  1  0
  5 16  1  0
  5 17  1  0
  6 18  1  0
  6 19  1  0
  6 20  1  0
  7 21  1  0
  7 22  1  0
  8 23  1  0
  8 24  1  0
M  END
