
     RDKit          3D

 29 28  0  0  0  0  0  0  0  0999 V2000
    3.1585   -0.3917   -0.3297 C   0  0  0  0  0  0  0  0  0  0  0  0
    2.3891    0.8698   -0.0885 C   0  0  0  0  0  0  0  0  0  0  0  0
    0.9248    0.8328   -0.2738 C   0  0  0  0  0  0  0  0  0  0  0  0
    0.1011   -0.0489    0.5587 C   0  0  0  0  0  0  0  0  0  0  0  0
    0.4465   -1.4955    0.3836 C   0  0  0  0  0  0  0  0  0  0  0  0
   -1.3897    0.1152    0.2186 C   0  0  0  0  0  0  0  0  0  0  0  0
   -1.6643   -0.2206   -1.2197 C   0  0  0  0  0  0  0  0  0  0  0  0
   -2.2194   -0.7348    1.1429 C   0  0  0  0  0  0  0  0  0  0  0  0
   -1.8178    1.5547    0.4454 C   0  0  0  0  0  0  0  0  0  0  0  0
    3.4832   -0.8059    0.6646 H   0  0  0  0  0  0  0  0  0  0  0  0
    2.6744   -1.1164   -0.9840 H   0  0  0  0  0  0  0  0  0  0  0  0
    4.1730   -0.1563   -0.8132 H   0  0  0  0  0  0  0  0  0  0  0  0
    2.6590    1.3150    0.9292 H   0  0  0  0  0  0  0  0  0  0  0  0
    2.8448    1.6462   -0.7856 H   0  0  0  0  0  0  0  0  0  0  0  0
    0.5481    1.8959   -0.2197 H   0  0  0  0  0  0  0  0  0  0  0  0
    0.7526    0.5816   -1.3707 H   0  0  0  0  0  0  0  0  0  0  0  0
    0.1978    0.1519    1.6585 H   0  0  0  0  0  0  0  0  0  0  0  0
    1.3831   -1.7965    0.8903 H   0  0  0  0  0  0  0  0  0  0  0  0
    0.4773   -1.8192   -0.6902 H   0  0  0  0  0  0  0  0  0  0  0  0
   -0.3908   -2.1487    0.7972 H   0  0  0  0  0  0  0  0  0  0  0  0
   -2.0749    0.6528   -1.7759 H   0  0  0  0  0  0  0  0  0  0  0  0
   -0.8104   -0.6622   -1.7365 H   0  0  0  0  0  0  0  0  0  0  0  0
   -2.4937   -0.9792   -1.2278 H   0  0  0  0  0  0  0  0  0  0  0  0
   -2.6978   -1.5757    0.5610 H   0  0  0  0  0  0  0  0  0  0  0  0
   -3.0918   -0.1636    1.5764 H   0  0  0  0  0  0  0  0  0  0  0  0
   -1.6599   -1.1157    2.0151 H   0  0  0  0  0  0  0  0  0  0  0  0
   -2.9218    1.5356    0.6166 H   0  0  0  0  0  0  0  0  0  0  0  0
   -1.6492    2.1806   -0.4361 H   0  0  0  0  0  0  0  0  0  0  0  0
   -1.3319    1.8986    1.3646 H   0  0  0  0  0  0  0  0  0  0  0  0
  1  2  1  0
  2  3  1  0
  3  4  1  0
  4  5  1  0
  4  6  1  0
  6  7  1  0
  6  8  1  0
  6  9  1  0
  1 10  1  0
  1 11  1  0
  1 12  1  0
  2 13  1  0
  2 14  1  0
  3 15  1  0
  3 16  1  0
  4 17  1  0
  5 18  1  0
  5 19  1  0
  5 20  1  0
  7 21  1  0
  7 22  1  0
  7 23  1  0
  8 24  1  0
  8 25  1  0
  8 26  1  0
  9 27  1  0
  9 28  1  0
  9 29  1  0
M  END
