
     RDKit          3D

 23 23  0  0  0  0  0  0  0  0999 V2000
    3.0506    0.8144    0.7015 C   0  0  0  0  0  0  0  0  0  0  0  0
    3.2051    0.0140   -0.7194 C   0  0  0  0  0  0  0  0  0  0  0  0
    1.8289   -0.3821   -0.8544 C   0  0  0  0  0  0  0  0  0  0  0  0
    0.9128   -1.0647   -1.7788 C   0  0  0  0  0  0  0  0  0  0  0  0
   -0.4538   -0.7568   -0.7407 C   0  0  0  0  0  0  0  0  0  0  0  0
   -1.5184   -0.4951    0.0583 C   0  0  0  0  0  0  0  0  0  0  0  0
   -2.5130   -0.2687    0.7906 C   0  0  0  0  0  0  0  0  0  0  0  0
   -3.9053   -0.3420    0.4391 C   0  0  0  0  0  0  0  0  0  0  0  0
   -3.2588    1.0158    0.8343 C   0  0  0  0  0  0  0  0  0  0  0  0
    2.0697    1.2616    0.7166 H   0  0  0  0  0  0  0  0  0  0  0  0
    3.8396    1.5826    0.7203 H   0  0  0  0  0  0  0  0  0  0  0  0
    3.1850    0.0597    1.4845 H   0  0  0  0  0  0  0  0  0  0  0  0
    3.9756   -0.7342   -0.3973 H   0  0  0  0  0  0  0  0  0  0  0  0
    3.5919    0.8214   -1.3540 H   0  0  0  0  0  0  0  0  0  0  0  0
    1.6040   -1.0078    0.2187 H   0  0  0  0  0  0  0  0  0  0  0  0
    1.1822    0.5644   -0.4112 H   0  0  0  0  0  0  0  0  0  0  0  0
    0.5456   -0.4897   -2.5793 H   0  0  0  0  0  0  0  0  0  0  0  0
    0.8099   -2.1224   -1.7165 H   0  0  0  0  0  0  0  0  0  0  0  0
   -2.3630   -0.6026    1.9687 H   0  0  0  0  0  0  0  0  0  0  0  0
   -4.6302   -0.8151    1.1758 H   0  0  0  0  0  0  0  0  0  0  0  0
   -4.3068   -0.3050   -0.5591 H   0  0  0  0  0  0  0  0  0  0  0  0
   -3.6607    1.4678    1.7581 H   0  0  0  0  0  0  0  0  0  0  0  0
   -3.1910    1.7844    0.0223 H   0  0  0  0  0  0  0  0  0  0  0  0
  1  2  1  0
  2  3  1  0
  3  4  1  0
  4  5  1  0
  5  6  3  0
  6  7  1  0
  7  8  1  0
  8  9  1  0
  9  7  1  0
  1 10  1  0
  1 11  1  0
  1 12  1  0
  2 13  1  0
  2 14  1  0
  3 15  1  0
  3 16  1  0
  4 17  1  0
  4 18  1  0
  7 19  1  0
  8 20  1  0
  8 21  1  0
  9 22  1  0
  9 23  1  0
M  END
