
     RDKit          3D

 23 22  0  0  0  0  0  0  0  0999 V2000
   -2.9572    0.5480   -0.3417 C   0  0  0  0  0  0  0  0  0  0  0  0
   -2.1580   -0.0488    0.7449 C   0  0  0  0  0  0  0  0  0  0  0  0
   -0.8895   -0.7511    0.3880 C   0  0  0  0  0  0  0  0  0  0  0  0
    0.1651    0.0677   -0.2478 C   0  0  0  0  0  0  0  0  0  0  0  0
   -0.2003    0.6881   -1.5575 C   0  0  0  0  0  0  0  0  0  0  0  0
    1.4194   -0.5845   -0.2923 O   0  0  0  0  0  0  0  0  0  0  0  0
    2.4917   -0.1097    0.4206 C   0  0  0  0  0  0  0  0  0  0  0  0
    3.8077   -0.8331    0.3454 C   0  0  0  0  0  0  0  0  0  0  0  0
    2.3338    0.9157    1.1122 O   0  0  0  0  0  0  0  0  0  0  0  0
   -2.9237    1.6785   -0.3317 H   0  0  0  0  0  0  0  0  0  0  0  0
   -4.0384    0.2934   -0.1378 H   0  0  0  0  0  0  0  0  0  0  0  0
   -2.7667    0.1705   -1.3626 H   0  0  0  0  0  0  0  0  0  0  0  0
   -2.7967   -0.6987    1.4142 H   0  0  0  0  0  0  0  0  0  0  0  0
   -1.8881    0.8082    1.4518 H   0  0  0  0  0  0  0  0  0  0  0  0
   -0.4553   -1.2080    1.3277 H   0  0  0  0  0  0  0  0  0  0  0  0
   -1.1510   -1.6503   -0.2614 H   0  0  0  0  0  0  0  0  0  0  0  0
    0.3206    0.9549    0.4509 H   0  0  0  0  0  0  0  0  0  0  0  0
    0.7514    1.1289   -1.9852 H   0  0  0  0  0  0  0  0  0  0  0  0
   -0.6444   -0.0081   -2.2981 H   0  0  0  0  0  0  0  0  0  0  0  0
   -0.8420    1.5606   -1.3654 H   0  0  0  0  0  0  0  0  0  0  0  0
    4.5789   -0.0682    0.5611 H   0  0  0  0  0  0  0  0  0  0  0  0
    3.8579   -1.5724    1.1847 H   0  0  0  0  0  0  0  0  0  0  0  0
    3.9850   -1.2817   -0.6307 H   0  0  0  0  0  0  0  0  0  0  0  0
  1  2  1  0
  2  3  1  0
  3  4  1  0
  4  5  1  0
  4  6  1  0
  6  7  1  0
  7  8  1  0
  7  9  2  0
  1 10  1  0
  1 11  1  0
  1 12  1  0
  2 13  1  0
  2 14  1  0
  3 15  1  0
  3 16  1  0
  4 17  1  0
  5 18  1  0
  5 19  1  0
  5 20  1  0
  8 21  1  0
  8 22  1  0
  8 23  1  0
M  END
