
     RDKit          3D

 25 25  0  0  0  0  0  0  0  0999 V2000
    3.0974    0.5728   -0.8837 C   0  0  0  0  0  0  0  0  0  0  0  0
    2.0437    0.3858    0.1626 C   0  0  0  0  0  0  0  0  0  0  0  0
    1.0893   -0.7564   -0.1729 C   0  0  0  0  0  0  0  0  0  0  0  0
    0.1018   -0.8251    0.9484 C   0  0  0  0  0  0  0  0  0  0  0  0
   -0.9552   -1.8669    0.8711 C   0  0  0  0  0  0  0  0  0  0  0  0
   -1.8288   -0.9627    1.4711 O   0  0  0  0  0  0  0  0  0  0  0  0
   -1.0774    0.0597    0.8981 C   0  0  0  0  0  0  0  0  0  0  0  0
   -1.6077    0.4551   -0.4417 C   0  0  0  0  0  0  0  0  0  0  0  0
   -2.8086    1.3575   -0.3568 C   0  0  0  0  0  0  0  0  0  0  0  0
    2.8320    1.3186   -1.6530 H   0  0  0  0  0  0  0  0  0  0  0  0
    3.4300   -0.3935   -1.3274 H   0  0  0  0  0  0  0  0  0  0  0  0
    4.0094    0.9754   -0.3602 H   0  0  0  0  0  0  0  0  0  0  0  0
    1.4413    1.3029    0.2256 H   0  0  0  0  0  0  0  0  0  0  0  0
    2.5278    0.1371    1.1203 H   0  0  0  0  0  0  0  0  0  0  0  0
    1.6857   -1.6916   -0.1825 H   0  0  0  0  0  0  0  0  0  0  0  0
    0.6548   -0.6219   -1.1594 H   0  0  0  0  0  0  0  0  0  0  0  0
    0.5922   -0.8197    1.9336 H   0  0  0  0  0  0  0  0  0  0  0  0
   -0.7024   -2.7318    1.5258 H   0  0  0  0  0  0  0  0  0  0  0  0
   -1.3073   -2.1656   -0.1373 H   0  0  0  0  0  0  0  0  0  0  0  0
   -0.9838    0.8909    1.6377 H   0  0  0  0  0  0  0  0  0  0  0  0
   -0.8608    0.9692   -1.0808 H   0  0  0  0  0  0  0  0  0  0  0  0
   -1.9271   -0.4432   -1.0087 H   0  0  0  0  0  0  0  0  0  0  0  0
   -3.7270    0.9033   -0.7888 H   0  0  0  0  0  0  0  0  0  0  0  0
   -2.6525    2.3262   -0.8843 H   0  0  0  0  0  0  0  0  0  0  0  0
   -3.0669    1.6238    0.6911 H   0  0  0  0  0  0  0  0  0  0  0  0
  1  2  1  0
  2  3  1  0
  3  4  1  0
  4  5  1  0
  5  6  1  0
  6  7  1  0
  7  8  1  0
  8  9  1  0
  7  4  1  0
  1 10  1  0
  1 11  1  0
  1 12  1  0
  2 13  1  0
  2 14  1  0
  3 15  1  0
  3 16  1  0
  4 17  1  0
  5 18  1  0
  5 19  1  0
  7 20  1  0
  8 21  1  0
  8 22  1  0
  9 23  1  0
  9 24  1  0
  9 25  1  0
M  END
