
     RDKit          3D

 18 17  0  0  0  0  0  0  0  0999 V2000
   -2.2477   -0.0959   -0.4807 C   0  0  0  0  0  0  0  0  0  0  0  0
   -1.4606   -0.0168    0.7993 C   0  0  0  0  0  0  0  0  0  0  0  0
   -0.2010   -0.8758    0.7085 C   0  0  0  0  0  0  0  0  0  0  0  0
    0.6610   -0.4250   -0.4157 C   0  0  0  0  0  0  0  0  0  0  0  0
    0.7215   -1.0450   -1.4269 O   0  0  0  0  0  0  0  0  0  0  0  0
    1.4515    0.8200   -0.2448 C   0  0  0  0  0  0  0  0  0  0  0  0
    2.7522    0.5378    0.3758 C   0  0  0  0  0  0  0  0  0  0  0  0
    3.7332    0.1562   -0.2426 O   0  0  0  0  0  0  0  0  0  0  0  0
   -3.3181    0.0762   -0.2236 H   0  0  0  0  0  0  0  0  0  0  0  0
   -1.8405    0.6849   -1.1573 H   0  0  0  0  0  0  0  0  0  0  0  0
   -2.0939   -1.0613   -1.0044 H   0  0  0  0  0  0  0  0  0  0  0  0
   -2.0507   -0.4607    1.6313 H   0  0  0  0  0  0  0  0  0  0  0  0
   -1.2429    1.0125    1.0711 H   0  0  0  0  0  0  0  0  0  0  0  0
    0.3269   -0.8406    1.6684 H   0  0  0  0  0  0  0  0  0  0  0  0
   -0.5794   -1.9107    0.4954 H   0  0  0  0  0  0  0  0  0  0  0  0
    0.9117    1.5328    0.4077 H   0  0  0  0  0  0  0  0  0  0  0  0
    1.5900    1.2451   -1.2684 H   0  0  0  0  0  0  0  0  0  0  0  0
    2.8867    0.6663    1.4598 H   0  0  0  0  0  0  0  0  0  0  0  0
  1  2  1  0
  2  3  1  0
  3  4  1  0
  4  5  2  0
  4  6  1  0
  6  7  1  0
  7  8  2  0
  1  9  1  0
  1 10  1  0
  1 11  1  0
  2 12  1  0
  2 13  1  0
  3 14  1  0
  3 15  1  0
  6 16  1  0
  6 17  1  0
  7 18  1  0
M  END
