
     RDKit          3D

 27 26  0  0  0  0  0  0  0  0999 V2000
   -3.0772   -1.1970   -0.0532 C   0  0  0  0  0  0  0  0  0  0  0  0
   -1.7818   -0.6279    0.4916 C   0  0  0  0  0  0  0  0  0  0  0  0
   -0.9570   -0.1672   -0.6537 C   0  0  0  0  0  0  0  0  0  0  0  0
    0.3623    0.4258   -0.3024 C   0  0  0  0  0  0  0  0  0  0  0  0
    0.3057    1.6329    0.5714 C   0  0  0  0  0  0  0  0  0  0  0  0
   -0.4703    2.7735   -0.0538 C   0  0  0  0  0  0  0  0  0  0  0  0
    1.1572   -0.5243    0.3324 O   0  0  0  0  0  0  0  0  0  0  0  0
    2.3087   -0.8098   -0.3962 C   0  0  0  0  0  0  0  0  0  0  0  0
    3.0860   -1.8467    0.3875 C   0  0  0  0  0  0  0  0  0  0  0  0
   -2.9233   -1.7413   -1.0060 H   0  0  0  0  0  0  0  0  0  0  0  0
   -3.4814   -1.9619    0.6651 H   0  0  0  0  0  0  0  0  0  0  0  0
   -3.8678   -0.4294   -0.1396 H   0  0  0  0  0  0  0  0  0  0  0  0
   -1.3119   -1.3613    1.1465 H   0  0  0  0  0  0  0  0  0  0  0  0
   -2.0822    0.2882    1.0783 H   0  0  0  0  0  0  0  0  0  0  0  0
   -1.5563    0.5664   -1.2384 H   0  0  0  0  0  0  0  0  0  0  0  0
   -0.7752   -1.0207   -1.3388 H   0  0  0  0  0  0  0  0  0  0  0  0
    0.8752    0.7058   -1.2424 H   0  0  0  0  0  0  0  0  0  0  0  0
    1.3460    2.0020    0.7020 H   0  0  0  0  0  0  0  0  0  0  0  0
   -0.0588    1.3969    1.6015 H   0  0  0  0  0  0  0  0  0  0  0  0
    0.1117    3.1160   -0.9307 H   0  0  0  0  0  0  0  0  0  0  0  0
   -1.4601    2.4325   -0.3880 H   0  0  0  0  0  0  0  0  0  0  0  0
   -0.5210    3.5905    0.7050 H   0  0  0  0  0  0  0  0  0  0  0  0
    2.0899   -1.1433   -1.4336 H   0  0  0  0  0  0  0  0  0  0  0  0
    2.8967    0.1284   -0.4410 H   0  0  0  0  0  0  0  0  0  0  0  0
    4.1484   -1.7364    0.0959 H   0  0  0  0  0  0  0  0  0  0  0  0
    2.9252   -1.6180    1.4598 H   0  0  0  0  0  0  0  0  0  0  0  0
    2.7112   -2.8738    0.1153 H   0  0  0  0  0  0  0  0  0  0  0  0
  1  2  1  0
  2  3  1  0
  3  4  1  0
  4  5  1  0
  5  6  1  0
  4  7  1  0
  7  8  1  0
  8  9  1  0
  1 10  1  0
  1 11  1  0
  1 12  1  0
  2 13  1  0
  2 14  1  0
  3 15  1  0
  3 16  1  0
  4 17  1  0
  5 18  1  0
  5 19  1  0
  6 20  1  0
  6 21  1  0
  6 22  1  0
  8 23  1  0
  8 24  1  0
  9 25  1  0
  9 26  1  0
  9 27  1  0
M  END
