
     RDKit          3D

 25 25  0  0  0  0  0  0  0  0999 V2000
   -3.2108    0.3943    0.4559 C   0  0  0  0  0  0  0  0  0  0  0  0
   -2.5625   -0.2240   -0.7701 C   0  0  0  0  0  0  0  0  0  0  0  0
   -1.1584   -0.6327   -0.3621 C   0  0  0  0  0  0  0  0  0  0  0  0
   -0.3881    0.6112    0.0993 C   0  0  0  0  0  0  0  0  0  0  0  0
    0.9905    0.1270    0.4865 C   0  0  0  0  0  0  0  0  0  0  0  0
    1.9454    1.1587    0.9762 C   0  0  0  0  0  0  0  0  0  0  0  0
    2.5431    1.2524   -0.2882 O   0  0  0  0  0  0  0  0  0  0  0  0
    1.9742    0.0518   -0.6443 C   0  0  0  0  0  0  0  0  0  0  0  0
    2.8594   -1.1653   -0.5191 C   0  0  0  0  0  0  0  0  0  0  0  0
   -4.3119    0.3846    0.3179 H   0  0  0  0  0  0  0  0  0  0  0  0
   -3.0058   -0.3013    1.3025 H   0  0  0  0  0  0  0  0  0  0  0  0
   -2.8404    1.4074    0.6399 H   0  0  0  0  0  0  0  0  0  0  0  0
   -3.1361   -1.1415   -1.0090 H   0  0  0  0  0  0  0  0  0  0  0  0
   -2.5482    0.4710   -1.6260 H   0  0  0  0  0  0  0  0  0  0  0  0
   -0.6145   -1.0620   -1.2270 H   0  0  0  0  0  0  0  0  0  0  0  0
   -1.1690   -1.3389    0.4874 H   0  0  0  0  0  0  0  0  0  0  0  0
   -0.8607    1.0527    0.9815 H   0  0  0  0  0  0  0  0  0  0  0  0
   -0.3590    1.2766   -0.7875 H   0  0  0  0  0  0  0  0  0  0  0  0
    0.9778   -0.7713    1.1347 H   0  0  0  0  0  0  0  0  0  0  0  0
    2.7014    0.7783    1.6917 H   0  0  0  0  0  0  0  0  0  0  0  0
    1.5239    2.0983    1.3589 H   0  0  0  0  0  0  0  0  0  0  0  0
    1.4555    0.0798   -1.6408 H   0  0  0  0  0  0  0  0  0  0  0  0
    2.9932   -1.6397   -1.5151 H   0  0  0  0  0  0  0  0  0  0  0  0
    3.8306   -0.9357   -0.0510 H   0  0  0  0  0  0  0  0  0  0  0  0
    2.3702   -1.9316    0.1349 H   0  0  0  0  0  0  0  0  0  0  0  0
  1  2  1  0
  2  3  1  0
  3  4  1  0
  4  5  1  0
  5  6  1  0
  6  7  1  0
  7  8  1  0
  8  9  1  0
  8  5  1  0
  1 10  1  0
  1 11  1  0
  1 12  1  0
  2 13  1  0
  2 14  1  0
  3 15  1  0
  3 16  1  0
  4 17  1  0
  4 18  1  0
  5 19  1  0
  6 20  1  0
  6 21  1  0
  8 22  1  0
  9 23  1  0
  9 24  1  0
  9 25  1  0
M  END
