
     RDKit          3D

 22 21  0  0  0  0  0  0  0  0999 V2000
    3.3039    0.5066   -0.1466 C   0  0  0  0  0  0  0  0  0  0  0  0
    2.2664   -0.5850   -0.0382 C   0  0  0  0  0  0  0  0  0  0  0  0
    0.8740   -0.0023    0.1603 C   0  0  0  0  0  0  0  0  0  0  0  0
   -0.1665   -1.0705    0.2700 C   0  0  0  0  0  0  0  0  0  0  0  0
   -1.5444   -0.5232    0.4659 C   0  0  0  0  0  0  0  0  0  0  0  0
   -2.0068    0.3490   -0.6234 C   0  0  0  0  0  0  0  0  0  0  0  0
   -3.3876    0.9322   -0.4789 C   0  0  0  0  0  0  0  0  0  0  0  0
   -1.3946    0.6446   -1.6187 O   0  0  0  0  0  0  0  0  0  0  0  0
    4.3101    0.1634    0.1673 H   0  0  0  0  0  0  0  0  0  0  0  0
    3.0043    1.4107    0.4331 H   0  0  0  0  0  0  0  0  0  0  0  0
    3.3113    0.8341   -1.2258 H   0  0  0  0  0  0  0  0  0  0  0  0
    2.2650   -1.1476   -0.9849 H   0  0  0  0  0  0  0  0  0  0  0  0
    2.5654   -1.2208    0.8408 H   0  0  0  0  0  0  0  0  0  0  0  0
    0.9162    0.5084    1.1674 H   0  0  0  0  0  0  0  0  0  0  0  0
    0.7203    0.7251   -0.6364 H   0  0  0  0  0  0  0  0  0  0  0  0
   -0.1120   -1.8162   -0.5607 H   0  0  0  0  0  0  0  0  0  0  0  0
    0.0768   -1.6635    1.1939 H   0  0  0  0  0  0  0  0  0  0  0  0
   -1.5398    0.0336    1.4427 H   0  0  0  0  0  0  0  0  0  0  0  0
   -2.2854   -1.3279    0.5939 H   0  0  0  0  0  0  0  0  0  0  0  0
   -3.3267    1.6860    0.3324 H   0  0  0  0  0  0  0  0  0  0  0  0
   -3.7318    1.4121   -1.3923 H   0  0  0  0  0  0  0  0  0  0  0  0
   -4.1182    0.1510   -0.1858 H   0  0  0  0  0  0  0  0  0  0  0  0
  1  2  1  0
  2  3  1  0
  3  4  1  0
  4  5  1  0
  5  6  1  0
  6  7  1  0
  6  8  2  0
  1  9  1  0
  1 10  1  0
  1 11  1  0
  2 12  1  0
  2 13  1  0
  3 14  1  0
  3 15  1  0
  4 16  1  0
  4 17  1  0
  5 18  1  0
  5 19  1  0
  7 20  1  0
  7 21  1  0
  7 22  1  0
M  END
