
     RDKit          3D

 23 23  0  0  0  0  0  0  0  0999 V2000
    2.5061   -0.6869   -0.1785 C   0  0  0  0  0  0  0  0  0  0  0  0
    1.9373    0.4712    0.6064 C   0  0  0  0  0  0  0  0  0  0  0  0
    0.8692    1.1878   -0.2129 C   0  0  0  0  0  0  0  0  0  0  0  0
   -0.2607    0.2439   -0.5619 C   0  0  0  0  0  0  0  0  0  0  0  0
   -1.2889    0.9676   -1.3609 C   0  0  0  0  0  0  0  0  0  0  0  0
   -1.3556    1.7761   -2.2729 O   0  0  0  0  0  0  0  0  0  0  0  0
   -2.3277    0.2827   -0.5691 C   0  0  0  0  0  0  0  0  0  0  0  0
   -1.2768    0.0291    0.5155 C   0  0  0  0  0  0  0  0  0  0  0  0
   -1.4200   -1.3817    1.0208 C   0  0  0  0  0  0  0  0  0  0  0  0
    2.3975   -0.5593   -1.2741 H   0  0  0  0  0  0  0  0  0  0  0  0
    2.1167   -1.6719    0.1689 H   0  0  0  0  0  0  0  0  0  0  0  0
    3.6118   -0.7086    0.0498 H   0  0  0  0  0  0  0  0  0  0  0  0
    1.5022    0.0836    1.5385 H   0  0  0  0  0  0  0  0  0  0  0  0
    2.7195    1.2214    0.8241 H   0  0  0  0  0  0  0  0  0  0  0  0
    0.4445    2.0192    0.3625 H   0  0  0  0  0  0  0  0  0  0  0  0
    1.3018    1.5955   -1.1304 H   0  0  0  0  0  0  0  0  0  0  0  0
    0.0551   -0.6668   -1.0987 H   0  0  0  0  0  0  0  0  0  0  0  0
   -3.1189    0.9173   -0.1403 H   0  0  0  0  0  0  0  0  0  0  0  0
   -2.6592   -0.6519   -1.0565 H   0  0  0  0  0  0  0  0  0  0  0  0
   -1.2783    0.7655    1.3240 H   0  0  0  0  0  0  0  0  0  0  0  0
   -2.3406   -1.4189    1.6389 H   0  0  0  0  0  0  0  0  0  0  0  0
   -0.5932   -1.7129    1.6593 H   0  0  0  0  0  0  0  0  0  0  0  0
   -1.5418   -2.1021    0.1973 H   0  0  0  0  0  0  0  0  0  0  0  0
  1  2  1  0
  2  3  1  0
  3  4  1  0
  4  5  1  0
  5  6  2  0
  5  7  1  0
  7  8  1  0
  8  9  1  0
  8  4  1  0
  1 10  1  0
  1 11  1  0
  1 12  1  0
  2 13  1  0
  2 14  1  0
  3 15  1  0
  3 16  1  0
  4 17  1  0
  7 18  1  0
  7 19  1  0
  8 20  1  0
  9 21  1  0
  9 22  1  0
  9 23  1  0
M  END
