
     RDKit          3D

 22 21  0  0  0  0  0  0  0  0999 V2000
    3.3096    0.0835    0.5544 C   0  0  0  0  0  0  0  0  0  0  0  0
    1.9951   -0.6309    0.3693 C   0  0  0  0  0  0  0  0  0  0  0  0
    0.9061    0.4484    0.3344 C   0  0  0  0  0  0  0  0  0  0  0  0
   -0.4020   -0.2789    0.1490 C   0  0  0  0  0  0  0  0  0  0  0  0
   -0.4394   -1.0156   -1.0229 O   0  0  0  0  0  0  0  0  0  0  0  0
   -1.5226    0.7375    0.2074 C   0  0  0  0  0  0  0  0  0  0  0  0
   -2.8188   -0.0139    0.0196 C   0  0  0  0  0  0  0  0  0  0  0  0
   -3.8509    0.9020    0.0708 O   0  0  0  0  0  0  0  0  0  0  0  0
    3.6763    0.5597   -0.3535 H   0  0  0  0  0  0  0  0  0  0  0  0
    4.0497   -0.6292    0.9979 H   0  0  0  0  0  0  0  0  0  0  0  0
    3.1812    0.8842    1.3169 H   0  0  0  0  0  0  0  0  0  0  0  0
    1.8050   -1.3160    1.2080 H   0  0  0  0  0  0  0  0  0  0  0  0
    1.9554   -1.2182   -0.5632 H   0  0  0  0  0  0  0  0  0  0  0  0
    0.8733    0.9706    1.3042 H   0  0  0  0  0  0  0  0  0  0  0  0
    1.1040    1.1773   -0.4505 H   0  0  0  0  0  0  0  0  0  0  0  0
   -0.5144   -0.9828    0.9945 H   0  0  0  0  0  0  0  0  0  0  0  0
   -0.4034   -1.9966   -0.8400 H   0  0  0  0  0  0  0  0  0  0  0  0
   -1.3869    1.5185   -0.5682 H   0  0  0  0  0  0  0  0  0  0  0  0
   -1.5130    1.2002    1.2161 H   0  0  0  0  0  0  0  0  0  0  0  0
   -2.8020   -0.5989   -0.9074 H   0  0  0  0  0  0  0  0  0  0  0  0
   -2.9164   -0.7037    0.9041 H   0  0  0  0  0  0  0  0  0  0  0  0
   -4.2861    0.9027    0.9555 H   0  0  0  0  0  0  0  0  0  0  0  0
  1  2  1  0
  2  3  1  0
  3  4  1  0
  4  5  1  0
  4  6  1  0
  6  7  1  0
  7  8  1  0
  1  9  1  0
  1 10  1  0
  1 11  1  0
  2 12  1  0
  2 13  1  0
  3 14  1  0
  3 15  1  0
  4 16  1  0
  5 17  1  0
  6 18  1  0
  6 19  1  0
  7 20  1  0
  7 21  1  0
  8 22  1  0
M  END
