
     RDKit          3D

 21 20  0  0  0  0  0  0  0  0999 V2000
    2.8209    0.1653   -0.0842 C   0  0  0  0  0  0  0  0  0  0  0  0
    1.3807    0.2406    0.4387 C   0  0  0  0  0  0  0  0  0  0  0  0
    0.4733   -0.5122   -0.4924 C   0  0  0  0  0  0  0  0  0  0  0  0
   -0.9336   -0.4813   -0.0153 C   0  0  0  0  0  0  0  0  0  0  0  0
   -1.0473   -1.0552    1.2518 O   0  0  0  0  0  0  0  0  0  0  0  0
   -1.7476   -1.3862   -0.9192 C   0  0  0  0  0  0  0  0  0  0  0  0
   -2.3307   -2.3721   -0.5156 O   0  0  0  0  0  0  0  0  0  0  0  0
   -1.6172    0.8355   -0.0112 C   0  0  0  0  0  0  0  0  0  0  0  0
   -1.1292    1.7458    0.9118 O   0  0  0  0  0  0  0  0  0  0  0  0
    3.1584   -0.8672    0.0635 H   0  0  0  0  0  0  0  0  0  0  0  0
    2.7813    0.4311   -1.1504 H   0  0  0  0  0  0  0  0  0  0  0  0
    3.4338    0.9074    0.4514 H   0  0  0  0  0  0  0  0  0  0  0  0
    1.0581    1.3084    0.4605 H   0  0  0  0  0  0  0  0  0  0  0  0
    1.2851   -0.1846    1.4501 H   0  0  0  0  0  0  0  0  0  0  0  0
    0.6095   -0.0986   -1.5130 H   0  0  0  0  0  0  0  0  0  0  0  0
    0.8805   -1.5523   -0.5514 H   0  0  0  0  0  0  0  0  0  0  0  0
   -1.1134   -0.3922    1.9705 H   0  0  0  0  0  0  0  0  0  0  0  0
   -1.8353   -1.1712   -1.9903 H   0  0  0  0  0  0  0  0  0  0  0  0
   -2.7071    0.6252    0.2058 H   0  0  0  0  0  0  0  0  0  0  0  0
   -1.6295    1.3439   -0.9938 H   0  0  0  0  0  0  0  0  0  0  0  0
   -1.7906    2.4701    1.0327 H   0  0  0  0  0  0  0  0  0  0  0  0
  1  2  1  0
  2  3  1  0
  3  4  1  0
  4  5  1  0
  4  6  1  0
  6  7  2  0
  4  8  1  0
  8  9  1  0
  1 10  1  0
  1 11  1  0
  1 12  1  0
  2 13  1  0
  2 14  1  0
  3 15  1  0
  3 16  1  0
  5 17  1  0
  6 18  1  0
  8 19  1  0
  8 20  1  0
  9 21  1  0
M  END
