
     RDKit          3D

 24 23  0  0  0  0  0  0  0  0999 V2000
    2.8562    0.6804    0.2598 C   0  0  0  0  0  0  0  0  0  0  0  0
    2.3258   -0.7129    0.0729 C   0  0  0  0  0  0  0  0  0  0  0  0
    0.8771   -0.7948    0.5529 C   0  0  0  0  0  0  0  0  0  0  0  0
    0.0942    0.1777   -0.2704 C   0  0  0  0  0  0  0  0  0  0  0  0
   -1.3713    0.2121    0.0903 C   0  0  0  0  0  0  0  0  0  0  0  0
   -2.0242    1.2342   -0.8210 C   0  0  0  0  0  0  0  0  0  0  0  0
   -2.0501   -1.1139   -0.1855 C   0  0  0  0  0  0  0  0  0  0  0  0
   -1.5928    0.6197    1.3900 O   0  0  0  0  0  0  0  0  0  0  0  0
    2.2335    1.2441    0.9861 H   0  0  0  0  0  0  0  0  0  0  0  0
    3.9240    0.5978    0.5932 H   0  0  0  0  0  0  0  0  0  0  0  0
    2.8201    1.2317   -0.6891 H   0  0  0  0  0  0  0  0  0  0  0  0
    2.3823   -0.9571   -1.0063 H   0  0  0  0  0  0  0  0  0  0  0  0
    2.9525   -1.4636    0.5964 H   0  0  0  0  0  0  0  0  0  0  0  0
    0.8934   -0.5331    1.6282 H   0  0  0  0  0  0  0  0  0  0  0  0
    0.5643   -1.8437    0.4049 H   0  0  0  0  0  0  0  0  0  0  0  0
    0.4951    1.1844   -0.1206 H   0  0  0  0  0  0  0  0  0  0  0  0
    0.1518   -0.1729   -1.3335 H   0  0  0  0  0  0  0  0  0  0  0  0
   -1.7418    2.2716   -0.4867 H   0  0  0  0  0  0  0  0  0  0  0  0
   -1.6156    1.0929   -1.8257 H   0  0  0  0  0  0  0  0  0  0  0  0
   -3.1183    1.1004   -0.8836 H   0  0  0  0  0  0  0  0  0  0  0  0
   -1.8120   -1.8355    0.6270 H   0  0  0  0  0  0  0  0  0  0  0  0
   -1.6871   -1.4805   -1.1703 H   0  0  0  0  0  0  0  0  0  0  0  0
   -3.1467   -0.9460   -0.1699 H   0  0  0  0  0  0  0  0  0  0  0  0
   -2.4106    0.2069    1.7608 H   0  0  0  0  0  0  0  0  0  0  0  0
  1  2  1  0
  2  3  1  0
  3  4  1  0
  4  5  1  0
  5  6  1  0
  5  7  1  0
  5  8  1  0
  1  9  1  0
  1 10  1  0
  1 11  1  0
  2 12  1  0
  2 13  1  0
  3 14  1  0
  3 15  1  0
  4 16  1  0
  4 17  1  0
  6 18  1  0
  6 19  1  0
  6 20  1  0
  7 21  1  0
  7 22  1  0
  7 23  1  0
  8 24  1  0
M  END
