
     RDKit          3D

 22 21  0  0  0  0  0  0  0  0999 V2000
    2.6274   -1.0166   -0.1502 C   0  0  0  0  0  0  0  0  0  0  0  0
    1.3030   -0.3568   -0.5609 C   0  0  0  0  0  0  0  0  0  0  0  0
    0.4200   -0.3940    0.6657 C   0  0  0  0  0  0  0  0  0  0  0  0
   -0.9295    0.2232    0.4206 C   0  0  0  0  0  0  0  0  0  0  0  0
   -1.6948   -0.4792   -0.6752 C   0  0  0  0  0  0  0  0  0  0  0  0
   -1.9001   -1.8170   -0.3401 O   0  0  0  0  0  0  0  0  0  0  0  0
   -0.7884    1.7022    0.1615 C   0  0  0  0  0  0  0  0  0  0  0  0
   -2.0199    2.2904   -0.0668 O   0  0  0  0  0  0  0  0  0  0  0  0
    3.3853   -0.9304   -0.9465 H   0  0  0  0  0  0  0  0  0  0  0  0
    2.3981   -2.0925    0.1035 H   0  0  0  0  0  0  0  0  0  0  0  0
    3.0152   -0.5092    0.7563 H   0  0  0  0  0  0  0  0  0  0  0  0
    1.5457    0.6873   -0.8304 H   0  0  0  0  0  0  0  0  0  0  0  0
    0.8492   -0.9166   -1.4037 H   0  0  0  0  0  0  0  0  0  0  0  0
    0.3256   -1.4399    1.0156 H   0  0  0  0  0  0  0  0  0  0  0  0
    0.9527    0.1725    1.4563 H   0  0  0  0  0  0  0  0  0  0  0  0
   -1.5164    0.1033    1.3546 H   0  0  0  0  0  0  0  0  0  0  0  0
   -2.6667    0.0108   -0.8420 H   0  0  0  0  0  0  0  0  0  0  0  0
   -1.1602   -0.4741   -1.6395 H   0  0  0  0  0  0  0  0  0  0  0  0
   -1.6116   -1.9530    0.6077 H   0  0  0  0  0  0  0  0  0  0  0  0
   -0.0657    1.9271   -0.6523 H   0  0  0  0  0  0  0  0  0  0  0  0
   -0.3681    2.1406    1.1141 H   0  0  0  0  0  0  0  0  0  0  0  0
   -2.1006    3.1218    0.4516 H   0  0  0  0  0  0  0  0  0  0  0  0
  1  2  1  0
  2  3  1  0
  3  4  1  0
  4  5  1  0
  5  6  1  0
  4  7  1  0
  7  8  1  0
  1  9  1  0
  1 10  1  0
  1 11  1  0
  2 12  1  0
  2 13  1  0
  3 14  1  0
  3 15  1  0
  4 16  1  0
  5 17  1  0
  5 18  1  0
  6 19  1  0
  7 20  1  0
  7 21  1  0
  8 22  1  0
M  END
