
     RDKit          3D

 19 19  0  0  0  0  0  0  0  0999 V2000
    2.8394    0.3760    0.1718 C   0  0  0  0  0  0  0  0  0  0  0  0
    1.3560    0.7483    0.0665 C   0  0  0  0  0  0  0  0  0  0  0  0
    0.6006   -0.5693    0.0582 C   0  0  0  0  0  0  0  0  0  0  0  0
   -0.8627   -0.3162   -0.0423 C   0  0  0  0  0  0  0  0  0  0  0  0
   -1.4505    0.8506   -0.1147 C   0  0  0  0  0  0  0  0  0  0  0  0
   -2.8808    0.6036   -0.1981 C   0  0  0  0  0  0  0  0  0  0  0  0
   -3.7616    1.5284   -0.2817 O   0  0  0  0  0  0  0  0  0  0  0  0
   -3.0903   -0.7543   -0.1705 O   0  0  0  0  0  0  0  0  0  0  0  0
   -1.8565   -1.3900   -0.0731 C   0  0  0  0  0  0  0  0  0  0  0  0
    3.4750    1.2577    0.0152 H   0  0  0  0  0  0  0  0  0  0  0  0
    3.0479   -0.0380    1.1591 H   0  0  0  0  0  0  0  0  0  0  0  0
    2.9897   -0.4229   -0.5911 H   0  0  0  0  0  0  0  0  0  0  0  0
    1.1692    1.2133   -0.9286 H   0  0  0  0  0  0  0  0  0  0  0  0
    1.0404    1.4222    0.8702 H   0  0  0  0  0  0  0  0  0  0  0  0
    0.7712   -1.1714    0.9538 H   0  0  0  0  0  0  0  0  0  0  0  0
    0.9755   -1.1406   -0.8260 H   0  0  0  0  0  0  0  0  0  0  0  0
   -0.9674    1.8474   -0.1140 H   0  0  0  0  0  0  0  0  0  0  0  0
   -1.7867   -2.0749    0.8051 H   0  0  0  0  0  0  0  0  0  0  0  0
   -1.6085   -1.9700   -1.0206 H   0  0  0  0  0  0  0  0  0  0  0  0
  1  2  1  0
  2  3  1  0
  3  4  1  0
  4  5  2  0
  5  6  1  0
  6  7  2  0
  6  8  1  0
  8  9  1  0
  9  4  1  0
  1 10  1  0
  1 11  1  0
  1 12  1  0
  2 13  1  0
  2 14  1  0
  3 15  1  0
  3 16  1  0
  5 17  1  0
  9 18  1  0
  9 19  1  0
M  END
