
     RDKit          3D

 18 17  0  0  0  0  0  0  0  0999 V2000
   -2.0772   -0.2714    0.7869 C   0  0  0  0  0  0  0  0  0  0  0  0
   -1.4309   -0.2521   -0.5452 C   0  0  0  0  0  0  0  0  0  0  0  0
    0.0284   -0.5332   -0.5785 C   0  0  0  0  0  0  0  0  0  0  0  0
    0.8915    0.4021    0.1960 C   0  0  0  0  0  0  0  0  0  0  0  0
    2.3380   -0.0262    0.0551 C   0  0  0  0  0  0  0  0  0  0  0  0
    0.7837    1.7179   -0.1328 O   0  0  0  0  0  0  0  0  0  0  0  0
   -3.1656   -0.5086    0.6359 H   0  0  0  0  0  0  0  0  0  0  0  0
   -2.0927    0.7385    1.2844 H   0  0  0  0  0  0  0  0  0  0  0  0
   -1.7022   -1.0561    1.4720 H   0  0  0  0  0  0  0  0  0  0  0  0
   -1.6569    0.7398   -1.0142 H   0  0  0  0  0  0  0  0  0  0  0  0
   -1.9348   -1.0000   -1.1927 H   0  0  0  0  0  0  0  0  0  0  0  0
    0.3539   -0.5189   -1.6405 H   0  0  0  0  0  0  0  0  0  0  0  0
    0.2253   -1.5642   -0.2157 H   0  0  0  0  0  0  0  0  0  0  0  0
    0.6552    0.3016    1.2943 H   0  0  0  0  0  0  0  0  0  0  0  0
    3.0210    0.5074    0.7156 H   0  0  0  0  0  0  0  0  0  0  0  0
    2.6996    0.1068   -0.9881 H   0  0  0  0  0  0  0  0  0  0  0  0
    2.4608   -1.1165    0.2758 H   0  0  0  0  0  0  0  0  0  0  0  0
    0.6029    2.3331    0.6087 H   0  0  0  0  0  0  0  0  0  0  0  0
  1  2  1  0
  2  3  1  0
  3  4  1  0
  4  5  1  0
  4  6  1  0
  1  7  1  0
  1  8  1  0
  1  9  1  0
  2 10  1  0
  2 11  1  0
  3 12  1  0
  3 13  1  0
  4 14  1  0
  5 15  1  0
  5 16  1  0
  5 17  1  0
  6 18  1  0
M  END
