
     RDKit          3D

 23 24  0  0  0  0  0  0  0  0999 V2000
    3.0521   -0.3843    0.2330 C   0  0  0  0  0  0  0  0  0  0  0  0
    1.6467   -0.1072   -0.2613 C   0  0  0  0  0  0  0  0  0  0  0  0
    0.8016    0.3074    0.9047 C   0  0  0  0  0  0  0  0  0  0  0  0
   -0.6124    0.6154    0.5792 C   0  0  0  0  0  0  0  0  0  0  0  0
   -0.8969    1.7079   -0.3880 C   0  0  0  0  0  0  0  0  0  0  0  0
   -0.8567    0.7389   -1.4199 O   0  0  0  0  0  0  0  0  0  0  0  0
   -1.2779   -0.1485   -0.4924 C   0  0  0  0  0  0  0  0  0  0  0  0
   -1.5694   -1.5268   -0.5718 C   0  0  0  0  0  0  0  0  0  0  0  0
   -2.6997   -0.5475   -0.3826 C   0  0  0  0  0  0  0  0  0  0  0  0
    3.4194    0.5968    0.6557 H   0  0  0  0  0  0  0  0  0  0  0  0
    3.1109   -1.1764    0.9747 H   0  0  0  0  0  0  0  0  0  0  0  0
    3.6742   -0.5538   -0.6721 H   0  0  0  0  0  0  0  0  0  0  0  0
    1.2567   -1.0741   -0.6467 H   0  0  0  0  0  0  0  0  0  0  0  0
    1.7164    0.6282   -1.0581 H   0  0  0  0  0  0  0  0  0  0  0  0
    0.8153   -0.5169    1.6487 H   0  0  0  0  0  0  0  0  0  0  0  0
    1.2535    1.1928    1.4030 H   0  0  0  0  0  0  0  0  0  0  0  0
   -1.2345    0.6071    1.5139 H   0  0  0  0  0  0  0  0  0  0  0  0
   -0.1707    2.5121   -0.4930 H   0  0  0  0  0  0  0  0  0  0  0  0
   -1.9379    2.0681   -0.3037 H   0  0  0  0  0  0  0  0  0  0  0  0
   -1.4106   -2.1948    0.3016 H   0  0  0  0  0  0  0  0  0  0  0  0
   -1.5776   -2.0774   -1.5338 H   0  0  0  0  0  0  0  0  0  0  0  0
   -3.3396   -0.2673   -1.2371 H   0  0  0  0  0  0  0  0  0  0  0  0
   -3.1630   -0.3996    0.5965 H   0  0  0  0  0  0  0  0  0  0  0  0
  1  2  1  0
  2  3  1  0
  3  4  1  0
  4  5  1  0
  5  6  1  0
  6  7  1  0
  7  8  1  0
  8  9  1  0
  7  4  1  0
  9  7  1  0
  1 10  1  0
  1 11  1  0
  1 12  1  0
  2 13  1  0
  2 14  1  0
  3 15  1  0
  3 16  1  0
  4 17  1  0
  5 18  1  0
  5 19  1  0
  8 20  1  0
  8 21  1  0
  9 22  1  0
  9 23  1  0
M  END
