
     RDKit          3D

 23 23  0  0  0  0  0  0  0  0999 V2000
   -3.7476    0.4094   -0.2236 C   0  0  0  0  0  0  0  0  0  0  0  0
   -2.2638    0.3684   -0.5231 C   0  0  0  0  0  0  0  0  0  0  0  0
   -1.4549    0.1388    0.7358 C   0  0  0  0  0  0  0  0  0  0  0  0
    0.0150    0.0941    0.4666 C   0  0  0  0  0  0  0  0  0  0  0  0
    0.7179   -0.1336    1.7539 O   0  0  0  0  0  0  0  0  0  0  0  0
    0.8617   -1.0422    0.6804 C   0  0  0  0  0  0  0  0  0  0  0  0
    2.2327   -1.0447    0.0506 C   0  0  0  0  0  0  0  0  0  0  0  0
    3.0557    0.1449    0.5644 C   0  0  0  0  0  0  0  0  0  0  0  0
    4.3201    0.1440   -0.0154 O   0  0  0  0  0  0  0  0  0  0  0  0
   -4.1277   -0.5756    0.1187 H   0  0  0  0  0  0  0  0  0  0  0  0
   -4.2805    0.7896   -1.1110 H   0  0  0  0  0  0  0  0  0  0  0  0
   -3.8695    1.1795    0.5927 H   0  0  0  0  0  0  0  0  0  0  0  0
   -2.0495   -0.3926   -1.3023 H   0  0  0  0  0  0  0  0  0  0  0  0
   -1.9921    1.3918   -0.8836 H   0  0  0  0  0  0  0  0  0  0  0  0
   -1.7898   -0.7686    1.2870 H   0  0  0  0  0  0  0  0  0  0  0  0
   -1.6831    1.0029    1.4107 H   0  0  0  0  0  0  0  0  0  0  0  0
    0.4134    0.9770   -0.0620 H   0  0  0  0  0  0  0  0  0  0  0  0
    0.4523   -2.0633    0.8941 H   0  0  0  0  0  0  0  0  0  0  0  0
    2.8237   -1.9467    0.3541 H   0  0  0  0  0  0  0  0  0  0  0  0
    2.1806   -0.9336   -1.0411 H   0  0  0  0  0  0  0  0  0  0  0  0
    2.4831    1.0738    0.3395 H   0  0  0  0  0  0  0  0  0  0  0  0
    3.1654    0.1044    1.6674 H   0  0  0  0  0  0  0  0  0  0  0  0
    4.5369    1.0825   -0.2480 H   0  0  0  0  0  0  0  0  0  0  0  0
  1  2  1  0
  2  3  1  0
  3  4  1  0
  4  5  1  0
  5  6  1  0
  6  7  1  0
  7  8  1  0
  8  9  1  0
  6  4  1  0
  1 10  1  0
  1 11  1  0
  1 12  1  0
  2 13  1  0
  2 14  1  0
  3 15  1  0
  3 16  1  0
  4 17  1  0
  6 18  1  0
  7 19  1  0
  7 20  1  0
  8 21  1  0
  8 22  1  0
  9 23  1  0
M  END
