
     RDKit          3D

 22 21  0  0  0  0  0  0  0  0999 V2000
   -2.4000    0.7987   -0.3587 C   0  0  0  0  0  0  0  0  0  0  0  0
   -2.2127   -0.2626    0.7128 C   0  0  0  0  0  0  0  0  0  0  0  0
   -0.6958   -0.2725    0.9931 C   0  0  0  0  0  0  0  0  0  0  0  0
   -0.0668   -0.6261   -0.3316 C   0  0  0  0  0  0  0  0  0  0  0  0
    1.4171   -0.6848   -0.2064 C   0  0  0  0  0  0  0  0  0  0  0  0
    1.9081   -1.0245   -1.4790 O   0  0  0  0  0  0  0  0  0  0  0  0
    1.9094    0.7391    0.0342 C   0  0  0  0  0  0  0  0  0  0  0  0
    3.3101    0.6896   -0.0364 O   0  0  0  0  0  0  0  0  0  0  0  0
   -3.3477    1.3379   -0.0923 H   0  0  0  0  0  0  0  0  0  0  0  0
   -2.4467    0.3453   -1.3704 H   0  0  0  0  0  0  0  0  0  0  0  0
   -1.5946    1.5710   -0.2918 H   0  0  0  0  0  0  0  0  0  0  0  0
   -2.5165   -1.2581    0.3457 H   0  0  0  0  0  0  0  0  0  0  0  0
   -2.7595    0.0047    1.6281 H   0  0  0  0  0  0  0  0  0  0  0  0
   -0.3738    0.7304    1.3049 H   0  0  0  0  0  0  0  0  0  0  0  0
   -0.4496   -1.0212    1.7681 H   0  0  0  0  0  0  0  0  0  0  0  0
   -0.4643   -1.6221   -0.6821 H   0  0  0  0  0  0  0  0  0  0  0  0
   -0.4194    0.1003   -1.0906 H   0  0  0  0  0  0  0  0  0  0  0  0
    1.7514   -1.3691    0.5733 H   0  0  0  0  0  0  0  0  0  0  0  0
    2.8721   -1.2565   -1.3271 H   0  0  0  0  0  0  0  0  0  0  0  0
    1.5722    1.0498    1.0301 H   0  0  0  0  0  0  0  0  0  0  0  0
    1.4632    1.3780   -0.7553 H   0  0  0  0  0  0  0  0  0  0  0  0
    3.5441    0.6525   -0.9990 H   0  0  0  0  0  0  0  0  0  0  0  0
  1  2  1  0
  2  3  1  0
  3  4  1  0
  4  5  1  0
  5  6  1  0
  5  7  1  0
  7  8  1  0
  1  9  1  0
  1 10  1  0
  1 11  1  0
  2 12  1  0
  2 13  1  0
  3 14  1  0
  3 15  1  0
  4 16  1  0
  4 17  1  0
  5 18  1  0
  6 19  1  0
  7 20  1  0
  7 21  1  0
  8 22  1  0
M  END
