
     RDKit          3D

 25 25  0  0  0  0  0  0  0  0999 V2000
    2.9158   -0.3940    0.4381 C   0  0  0  0  0  0  0  0  0  0  0  0
    2.0801    0.8483    0.7303 C   0  0  0  0  0  0  0  0  0  0  0  0
    1.2264    1.2061   -0.4471 C   0  0  0  0  0  0  0  0  0  0  0  0
    0.3054    0.0877   -0.7814 C   0  0  0  0  0  0  0  0  0  0  0  0
   -0.4651    0.4784   -1.8912 O   0  0  0  0  0  0  0  0  0  0  0  0
   -0.6384   -0.3271    0.2932 C   0  0  0  0  0  0  0  0  0  0  0  0
   -1.5512   -1.4988   -0.1676 C   0  0  0  0  0  0  0  0  0  0  0  0
   -2.0991   -0.1195    0.1795 C   0  0  0  0  0  0  0  0  0  0  0  0
   -2.8998   -0.0933    1.4618 C   0  0  0  0  0  0  0  0  0  0  0  0
    3.4909   -0.6030    1.3787 H   0  0  0  0  0  0  0  0  0  0  0  0
    2.3048   -1.2770    0.2480 H   0  0  0  0  0  0  0  0  0  0  0  0
    3.5770   -0.2316   -0.4303 H   0  0  0  0  0  0  0  0  0  0  0  0
    2.8221    1.6607    0.9697 H   0  0  0  0  0  0  0  0  0  0  0  0
    1.4309    0.6331    1.5970 H   0  0  0  0  0  0  0  0  0  0  0  0
    1.9445    1.3759   -1.3036 H   0  0  0  0  0  0  0  0  0  0  0  0
    0.7381    2.1725   -0.2944 H   0  0  0  0  0  0  0  0  0  0  0  0
    0.8505   -0.8258   -1.1131 H   0  0  0  0  0  0  0  0  0  0  0  0
   -0.6792    1.4328   -1.7417 H   0  0  0  0  0  0  0  0  0  0  0  0
   -0.2421   -0.4497    1.3167 H   0  0  0  0  0  0  0  0  0  0  0  0
   -1.6999   -2.3213    0.5519 H   0  0  0  0  0  0  0  0  0  0  0  0
   -1.5345   -1.8073   -1.2084 H   0  0  0  0  0  0  0  0  0  0  0  0
   -2.5479    0.4346   -0.6666 H   0  0  0  0  0  0  0  0  0  0  0  0
   -3.7581   -0.7810    1.3279 H   0  0  0  0  0  0  0  0  0  0  0  0
   -3.2716    0.9178    1.6992 H   0  0  0  0  0  0  0  0  0  0  0  0
   -2.2996   -0.5186    2.3027 H   0  0  0  0  0  0  0  0  0  0  0  0
  1  2  1  0
  2  3  1  0
  3  4  1  0
  4  5  1  0
  4  6  1  0
  6  7  1  0
  7  8  1  0
  8  9  1  0
  8  6  1  0
  1 10  1  0
  1 11  1  0
  1 12  1  0
  2 13  1  0
  2 14  1  0
  3 15  1  0
  3 16  1  0
  4 17  1  0
  5 18  1  0
  6 19  1  0
  7 20  1  0
  7 21  1  0
  8 22  1  0
  9 23  1  0
  9 24  1  0
  9 25  1  0
M  END
