
     RDKit          3D

 23 22  0  0  0  0  0  0  0  0999 V2000
    3.8783   -0.0095    0.0763 C   0  0  0  0  0  0  0  0  0  0  0  0
    2.6156   -0.5550   -0.5867 C   0  0  0  0  0  0  0  0  0  0  0  0
    1.4521    0.0746    0.1239 C   0  0  0  0  0  0  0  0  0  0  0  0
    0.1467   -0.3495   -0.3985 C   0  0  0  0  0  0  0  0  0  0  0  0
    0.0642   -1.1359   -1.3180 O   0  0  0  0  0  0  0  0  0  0  0  0
   -1.0995    0.1854    0.1999 C   0  0  0  0  0  0  0  0  0  0  0  0
   -2.2992   -0.3924   -0.4995 C   0  0  0  0  0  0  0  0  0  0  0  0
   -3.5718    0.1554    0.1135 C   0  0  0  0  0  0  0  0  0  0  0  0
   -3.5529    1.5398   -0.0359 O   0  0  0  0  0  0  0  0  0  0  0  0
    4.0000    1.0321   -0.2954 H   0  0  0  0  0  0  0  0  0  0  0  0
    4.7731   -0.6113   -0.2033 H   0  0  0  0  0  0  0  0  0  0  0  0
    3.6806    0.0196    1.1496 H   0  0  0  0  0  0  0  0  0  0  0  0
    2.5879   -1.6404   -0.4585 H   0  0  0  0  0  0  0  0  0  0  0  0
    2.6352   -0.3447   -1.6668 H   0  0  0  0  0  0  0  0  0  0  0  0
    1.4870    1.1844    0.0813 H   0  0  0  0  0  0  0  0  0  0  0  0
    1.5785   -0.1769    1.2166 H   0  0  0  0  0  0  0  0  0  0  0  0
   -1.0430    1.3028    0.0743 H   0  0  0  0  0  0  0  0  0  0  0  0
   -1.1492   -0.0370    1.2981 H   0  0  0  0  0  0  0  0  0  0  0  0
   -2.3160   -0.1324   -1.5627 H   0  0  0  0  0  0  0  0  0  0  0  0
   -2.2612   -1.4829   -0.4174 H   0  0  0  0  0  0  0  0  0  0  0  0
   -4.4275   -0.2943   -0.4367 H   0  0  0  0  0  0  0  0  0  0  0  0
   -3.6409   -0.0523    1.1991 H   0  0  0  0  0  0  0  0  0  0  0  0
   -3.5378    1.7203   -1.0045 H   0  0  0  0  0  0  0  0  0  0  0  0
  1  2  1  0
  2  3  1  0
  3  4  1  0
  4  5  2  0
  4  6  1  0
  6  7  1  0
  7  8  1  0
  8  9  1  0
  1 10  1  0
  1 11  1  0
  1 12  1  0
  2 13  1  0
  2 14  1  0
  3 15  1  0
  3 16  1  0
  6 17  1  0
  6 18  1  0
  7 19  1  0
  7 20  1  0
  8 21  1  0
  8 22  1  0
  9 23  1  0
M  END
