
     RDKit          3D

 23 23  0  0  0  0  0  0  0  0999 V2000
    3.2542    0.0679   -0.6667 C   0  0  0  0  0  0  0  0  0  0  0  0
    1.8451   -0.4174   -0.2865 C   0  0  0  0  0  0  0  0  0  0  0  0
    1.1654    0.7332    0.3599 C   0  0  0  0  0  0  0  0  0  0  0  0
   -0.2236    0.5226    0.8415 C   0  0  0  0  0  0  0  0  0  0  0  0
   -1.1230    0.1485   -0.2705 C   0  0  0  0  0  0  0  0  0  0  0  0
   -0.8418   -1.0106   -0.9752 O   0  0  0  0  0  0  0  0  0  0  0  0
   -2.2198   -1.1101   -1.2399 C   0  0  0  0  0  0  0  0  0  0  0  0
   -2.4502   -0.4618    0.1052 C   0  0  0  0  0  0  0  0  0  0  0  0
   -3.5363    0.4116    0.0285 O   0  0  0  0  0  0  0  0  0  0  0  0
    3.2376    1.1552   -0.8896 H   0  0  0  0  0  0  0  0  0  0  0  0
    3.6190   -0.4387   -1.5792 H   0  0  0  0  0  0  0  0  0  0  0  0
    3.9317   -0.0600    0.2062 H   0  0  0  0  0  0  0  0  0  0  0  0
    1.4054   -0.7342   -1.2698 H   0  0  0  0  0  0  0  0  0  0  0  0
    1.8877   -1.3161    0.3466 H   0  0  0  0  0  0  0  0  0  0  0  0
    1.1982    1.5832   -0.3862 H   0  0  0  0  0  0  0  0  0  0  0  0
    1.8552    1.0836    1.1862 H   0  0  0  0  0  0  0  0  0  0  0  0
   -0.2851   -0.1471    1.7257 H   0  0  0  0  0  0  0  0  0  0  0  0
   -0.5843    1.5246    1.2175 H   0  0  0  0  0  0  0  0  0  0  0  0
   -1.2664    0.9873   -0.9853 H   0  0  0  0  0  0  0  0  0  0  0  0
   -2.5956   -2.1313   -1.3601 H   0  0  0  0  0  0  0  0  0  0  0  0
   -2.4965   -0.4365   -2.0615 H   0  0  0  0  0  0  0  0  0  0  0  0
   -2.4287   -1.1326    0.9693 H   0  0  0  0  0  0  0  0  0  0  0  0
   -3.3482    1.1785    0.6255 H   0  0  0  0  0  0  0  0  0  0  0  0
  1  2  1  0
  2  3  1  0
  3  4  1  0
  4  5  1  0
  5  6  1  0
  6  7  1  0
  7  8  1  0
  8  9  1  0
  8  5  1  0
  1 10  1  0
  1 11  1  0
  1 12  1  0
  2 13  1  0
  2 14  1  0
  3 15  1  0
  3 16  1  0
  4 17  1  0
  4 18  1  0
  5 19  1  0
  7 20  1  0
  7 21  1  0
  8 22  1  0
  9 23  1  0
M  END
