
     RDKit          3D

 27 27  0  0  0  0  0  0  0  0999 V2000
    3.2936    0.4951    0.4028 C   0  0  0  0  0  0  0  0  0  0  0  0
    1.9222    0.5938   -0.2712 C   0  0  0  0  0  0  0  0  0  0  0  0
    1.0354   -0.4075    0.3976 C   0  0  0  0  0  0  0  0  0  0  0  0
   -0.3589   -0.4533   -0.1361 C   0  0  0  0  0  0  0  0  0  0  0  0
   -0.4278   -0.7998   -1.5970 C   0  0  0  0  0  0  0  0  0  0  0  0
   -1.0591   -1.5810    0.6220 C   0  0  0  0  0  0  0  0  0  0  0  0
   -1.0469    0.8624    0.0781 C   0  0  0  0  0  0  0  0  0  0  0  0
   -2.4589    0.9379   -0.4190 C   0  0  0  0  0  0  0  0  0  0  0  0
   -2.1344    1.0419    1.0437 C   0  0  0  0  0  0  0  0  0  0  0  0
    3.7155    1.4919    0.6175 H   0  0  0  0  0  0  0  0  0  0  0  0
    3.2028   -0.0121    1.4016 H   0  0  0  0  0  0  0  0  0  0  0  0
    3.9840   -0.1388   -0.1905 H   0  0  0  0  0  0  0  0  0  0  0  0
    1.6090    1.6304   -0.1838 H   0  0  0  0  0  0  0  0  0  0  0  0
    2.0646    0.3517   -1.3503 H   0  0  0  0  0  0  0  0  0  0  0  0
    0.9729   -0.1322    1.4736 H   0  0  0  0  0  0  0  0  0  0  0  0
    1.5398   -1.3881    0.3599 H   0  0  0  0  0  0  0  0  0  0  0  0
   -1.4861   -1.0234   -1.8437 H   0  0  0  0  0  0  0  0  0  0  0  0
   -0.0813   -0.0086   -2.2623 H   0  0  0  0  0  0  0  0  0  0  0  0
    0.1423   -1.7259   -1.8449 H   0  0  0  0  0  0  0  0  0  0  0  0
   -0.7133   -1.5995    1.6748 H   0  0  0  0  0  0  0  0  0  0  0  0
   -2.1401   -1.4944    0.6147 H   0  0  0  0  0  0  0  0  0  0  0  0
   -0.7365   -2.5496    0.1498 H   0  0  0  0  0  0  0  0  0  0  0  0
   -0.4273    1.7393   -0.2017 H   0  0  0  0  0  0  0  0  0  0  0  0
   -2.9120    0.0270   -0.8284 H   0  0  0  0  0  0  0  0  0  0  0  0
   -2.8108    1.8643   -0.8974 H   0  0  0  0  0  0  0  0  0  0  0  0
   -2.2047    2.0706    1.5054 H   0  0  0  0  0  0  0  0  0  0  0  0
   -2.4840    0.2079    1.6847 H   0  0  0  0  0  0  0  0  0  0  0  0
  1  2  1  0
  2  3  1  0
  3  4  1  0
  4  5  1  0
  4  6  1  0
  4  7  1  0
  7  8  1  0
  8  9  1  0
  9  7  1  0
  1 10  1  0
  1 11  1  0
  1 12  1  0
  2 13  1  0
  2 14  1  0
  3 15  1  0
  3 16  1  0
  5 17  1  0
  5 18  1  0
  5 19  1  0
  6 20  1  0
  6 21  1  0
  6 22  1  0
  7 23  1  0
  8 24  1  0
  8 25  1  0
  9 26  1  0
  9 27  1  0
M  END
