
     RDKit          3D

 27 27  0  0  0  0  0  0  0  0999 V2000
    3.3989    0.6176   -0.1087 C   0  0  0  0  0  0  0  0  0  0  0  0
    2.0574   -0.0226    0.1002 C   0  0  0  0  0  0  0  0  0  0  0  0
    0.9475    0.7021   -0.6256 C   0  0  0  0  0  0  0  0  0  0  0  0
   -0.3388   -0.0350   -0.3369 C   0  0  0  0  0  0  0  0  0  0  0  0
   -0.2774   -1.4608   -0.8104 C   0  0  0  0  0  0  0  0  0  0  0  0
   -0.6552    0.0384    1.1213 C   0  0  0  0  0  0  0  0  0  0  0  0
   -2.1501   -0.1597    1.2007 C   0  0  0  0  0  0  0  0  0  0  0  0
   -2.6805    0.0293   -0.2068 C   0  0  0  0  0  0  0  0  0  0  0  0
   -1.5288    0.6161   -1.0043 C   0  0  0  0  0  0  0  0  0  0  0  0
    4.1719   -0.1132    0.2323 H   0  0  0  0  0  0  0  0  0  0  0  0
    3.6292    0.8182   -1.1742 H   0  0  0  0  0  0  0  0  0  0  0  0
    3.5438    1.5385    0.4511 H   0  0  0  0  0  0  0  0  0  0  0  0
    2.0923   -1.0793   -0.2381 H   0  0  0  0  0  0  0  0  0  0  0  0
    1.8239   -0.0222    1.1687 H   0  0  0  0  0  0  0  0  0  0  0  0
    0.8607    1.7116   -0.1749 H   0  0  0  0  0  0  0  0  0  0  0  0
    1.0965    0.7340   -1.7216 H   0  0  0  0  0  0  0  0  0  0  0  0
   -1.2960   -1.8083   -1.0305 H   0  0  0  0  0  0  0  0  0  0  0  0
    0.2996   -1.4904   -1.7596 H   0  0  0  0  0  0  0  0  0  0  0  0
    0.1993   -2.1476   -0.0840 H   0  0  0  0  0  0  0  0  0  0  0  0
   -0.4039    0.9999    1.5883 H   0  0  0  0  0  0  0  0  0  0  0  0
   -0.0871   -0.7530    1.6501 H   0  0  0  0  0  0  0  0  0  0  0  0
   -2.4409   -1.1729    1.5188 H   0  0  0  0  0  0  0  0  0  0  0  0
   -2.6016    0.5841    1.9063 H   0  0  0  0  0  0  0  0  0  0  0  0
   -3.0788   -0.8953   -0.6430 H   0  0  0  0  0  0  0  0  0  0  0  0
   -3.5128    0.7754   -0.2397 H   0  0  0  0  0  0  0  0  0  0  0  0
   -1.5402    1.7088   -0.8932 H   0  0  0  0  0  0  0  0  0  0  0  0
   -1.5289    0.2863   -2.0573 H   0  0  0  0  0  0  0  0  0  0  0  0
  1  2  1  0
  2  3  1  0
  3  4  1  0
  4  5  1  0
  4  6  1  0
  6  7  1  0
  7  8  1  0
  8  9  1  0
  9  4  1  0
  1 10  1  0
  1 11  1  0
  1 12  1  0
  2 13  1  0
  2 14  1  0
  3 15  1  0
  3 16  1  0
  5 17  1  0
  5 18  1  0
  5 19  1  0
  6 20  1  0
  6 21  1  0
  7 22  1  0
  7 23  1  0
  8 24  1  0
  8 25  1  0
  9 26  1  0
  9 27  1  0
M  END
