
     RDKit          3D

 20 19  0  0  0  0  0  0  0  0999 V2000
   -1.8541    0.9214    0.4215 C   0  0  0  0  0  0  0  0  0  0  0  0
   -1.4789    0.1547   -0.8294 C   0  0  0  0  0  0  0  0  0  0  0  0
   -0.5976   -1.0074   -0.4757 C   0  0  0  0  0  0  0  0  0  0  0  0
    0.6845   -0.6488    0.1888 C   0  0  0  0  0  0  0  0  0  0  0  0
    1.4057   -1.9482    0.4535 C   0  0  0  0  0  0  0  0  0  0  0  0
    2.5115   -2.1429   -0.0162 O   0  0  0  0  0  0  0  0  0  0  0  0
    1.4363    0.1881   -0.6030 O   0  0  0  0  0  0  0  0  0  0  0  0
    1.7424    1.4021   -0.0400 C   0  0  0  0  0  0  0  0  0  0  0  0
   -1.4649    0.4496    1.3478 H   0  0  0  0  0  0  0  0  0  0  0  0
   -2.9614    0.9912    0.5433 H   0  0  0  0  0  0  0  0  0  0  0  0
   -1.5001    1.9899    0.3489 H   0  0  0  0  0  0  0  0  0  0  0  0
   -1.0009    0.8501   -1.5499 H   0  0  0  0  0  0  0  0  0  0  0  0
   -2.4204   -0.2640   -1.2457 H   0  0  0  0  0  0  0  0  0  0  0  0
   -1.1788   -1.6398    0.2594 H   0  0  0  0  0  0  0  0  0  0  0  0
   -0.4413   -1.6853   -1.3475 H   0  0  0  0  0  0  0  0  0  0  0  0
    0.4719   -0.1475    1.1542 H   0  0  0  0  0  0  0  0  0  0  0  0
    0.9724   -2.7302    1.0558 H   0  0  0  0  0  0  0  0  0  0  0  0
    0.8936    2.0283    0.2354 H   0  0  0  0  0  0  0  0  0  0  0  0
    2.4006    1.2861    0.8699 H   0  0  0  0  0  0  0  0  0  0  0  0
    2.3796    1.9527   -0.7713 H   0  0  0  0  0  0  0  0  0  0  0  0
  1  2  1  0
  2  3  1  0
  3  4  1  0
  4  5  1  0
  5  6  2  0
  4  7  1  0
  7  8  1  0
  1  9  1  0
  1 10  1  0
  1 11  1  0
  2 12  1  0
  2 13  1  0
  3 14  1  0
  3 15  1  0
  4 16  1  0
  5 17  1  0
  8 18  1  0
  8 19  1  0
  8 20  1  0
M  END
