
     RDKit          3D

 25 25  0  0  0  0  0  0  0  0999 V2000
    3.0081    0.3741    0.6632 C   0  0  0  0  0  0  0  0  0  0  0  0
    2.5155   -0.6967   -0.2922 C   0  0  0  0  0  0  0  0  0  0  0  0
    1.0658   -0.3533   -0.6139 C   0  0  0  0  0  0  0  0  0  0  0  0
    0.2268   -0.3402    0.6265 C   0  0  0  0  0  0  0  0  0  0  0  0
   -1.1962   -0.0055    0.2524 C   0  0  0  0  0  0  0  0  0  0  0  0
   -1.3873    1.3237   -0.4080 C   0  0  0  0  0  0  0  0  0  0  0  0
   -2.7766    1.4375   -0.6673 O   0  0  0  0  0  0  0  0  0  0  0  0
   -2.3155   -0.4609    1.1112 C   0  0  0  0  0  0  0  0  0  0  0  0
   -2.0260   -1.1774   -0.1355 C   0  0  0  0  0  0  0  0  0  0  0  0
    4.1129    0.4474    0.6347 H   0  0  0  0  0  0  0  0  0  0  0  0
    2.5610    1.3414    0.2923 H   0  0  0  0  0  0  0  0  0  0  0  0
    2.6420    0.2094    1.6996 H   0  0  0  0  0  0  0  0  0  0  0  0
    3.1444   -0.6283   -1.1935 H   0  0  0  0  0  0  0  0  0  0  0  0
    2.6000   -1.7149    0.1356 H   0  0  0  0  0  0  0  0  0  0  0  0
    0.9969    0.6549   -1.0735 H   0  0  0  0  0  0  0  0  0  0  0  0
    0.7203   -1.0701   -1.3701 H   0  0  0  0  0  0  0  0  0  0  0  0
    0.2016   -1.3600    1.1037 H   0  0  0  0  0  0  0  0  0  0  0  0
    0.6264    0.3318    1.4104 H   0  0  0  0  0  0  0  0  0  0  0  0
   -0.8003    1.5079   -1.3057 H   0  0  0  0  0  0  0  0  0  0  0  0
   -1.1458    2.1147    0.3471 H   0  0  0  0  0  0  0  0  0  0  0  0
   -3.2081    2.0633   -0.0391 H   0  0  0  0  0  0  0  0  0  0  0  0
   -3.2412    0.1413    1.1295 H   0  0  0  0  0  0  0  0  0  0  0  0
   -2.0126   -0.8481    2.1076 H   0  0  0  0  0  0  0  0  0  0  0  0
   -1.6048   -2.2032   -0.0191 H   0  0  0  0  0  0  0  0  0  0  0  0
   -2.7074   -1.0888   -0.9922 H   0  0  0  0  0  0  0  0  0  0  0  0
  1  2  1  0
  2  3  1  0
  3  4  1  0
  4  5  1  0
  5  6  1  0
  6  7  1  0
  5  8  1  0
  8  9  1  0
  9  5  1  0
  1 10  1  0
  1 11  1  0
  1 12  1  0
  2 13  1  0
  2 14  1  0
  3 15  1  0
  3 16  1  0
  4 17  1  0
  4 18  1  0
  6 19  1  0
  6 20  1  0
  7 21  1  0
  8 22  1  0
  8 23  1  0
  9 24  1  0
  9 25  1  0
M  END
