
     RDKit          3D

 23 24  0  0  0  0  0  0  0  0999 V2000
    3.1581    0.1848   -0.7710 C   0  0  0  0  0  0  0  0  0  0  0  0
    1.8985   -0.4821   -0.2602 C   0  0  0  0  0  0  0  0  0  0  0  0
    0.7230    0.4003   -0.5913 C   0  0  0  0  0  0  0  0  0  0  0  0
   -0.5187   -0.2783   -0.0763 C   0  0  0  0  0  0  0  0  0  0  0  0
   -0.6332   -0.5658    1.3707 C   0  0  0  0  0  0  0  0  0  0  0  0
   -1.6958   -0.0173    1.8993 C   0  0  0  0  0  0  0  0  0  0  0  0
   -2.4240    0.7109    0.8494 C   0  0  0  0  0  0  0  0  0  0  0  0
   -1.8079    0.4158   -0.4663 C   0  0  0  0  0  0  0  0  0  0  0  0
   -1.4930   -0.9331   -0.9516 C   0  0  0  0  0  0  0  0  0  0  0  0
    2.9077    0.9544   -1.5391 H   0  0  0  0  0  0  0  0  0  0  0  0
    3.8761   -0.5591   -1.1165 H   0  0  0  0  0  0  0  0  0  0  0  0
    3.5976    0.7225    0.1154 H   0  0  0  0  0  0  0  0  0  0  0  0
    1.7332   -1.4835   -0.7000 H   0  0  0  0  0  0  0  0  0  0  0  0
    1.9183   -0.5956    0.8466 H   0  0  0  0  0  0  0  0  0  0  0  0
    0.6537    0.6967   -1.6351 H   0  0  0  0  0  0  0  0  0  0  0  0
    0.8492    1.3334    0.0278 H   0  0  0  0  0  0  0  0  0  0  0  0
    0.0854   -1.1608    1.9116 H   0  0  0  0  0  0  0  0  0  0  0  0
   -1.9994   -0.0785    2.9232 H   0  0  0  0  0  0  0  0  0  0  0  0
   -3.5210    0.5527    0.8846 H   0  0  0  0  0  0  0  0  0  0  0  0
   -2.2477    1.8045    1.0575 H   0  0  0  0  0  0  0  0  0  0  0  0
   -1.7715    1.2521   -1.1950 H   0  0  0  0  0  0  0  0  0  0  0  0
   -1.9975   -1.8401   -0.5439 H   0  0  0  0  0  0  0  0  0  0  0  0
   -1.2912   -1.0339   -2.0396 H   0  0  0  0  0  0  0  0  0  0  0  0
  1  2  1  0
  2  3  1  0
  3  4  1  0
  4  5  1  0
  5  6  2  0
  6  7  1  0
  7  8  1  0
  8  9  1  0
  8  4  1  0
  9  4  1  0
  1 10  1  0
  1 11  1  0
  1 12  1  0
  2 13  1  0
  2 14  1  0
  3 15  1  0
  3 16  1  0
  5 17  1  0
  6 18  1  0
  7 19  1  0
  7 20  1  0
  8 21  1  0
  9 22  1  0
  9 23  1  0
M  END
