
     RDKit          3D

 25 24  0  0  0  0  0  0  0  0999 V2000
    2.3910    1.2251   -0.8801 C   0  0  0  0  0  0  0  0  0  0  0  0
    2.4661    0.2759    0.3054 C   0  0  0  0  0  0  0  0  0  0  0  0
    1.0500   -0.1812    0.6821 C   0  0  0  0  0  0  0  0  0  0  0  0
    0.4870   -0.8783   -0.5346 C   0  0  0  0  0  0  0  0  0  0  0  0
    1.3618   -1.9609   -0.7877 O   0  0  0  0  0  0  0  0  0  0  0  0
   -0.8671   -1.4717   -0.2936 C   0  0  0  0  0  0  0  0  0  0  0  0
   -1.8981   -0.4518    0.1027 C   0  0  0  0  0  0  0  0  0  0  0  0
   -2.0771    0.5306   -0.8739 O   0  0  0  0  0  0  0  0  0  0  0  0
   -3.0645    1.3937   -0.3462 C   0  0  0  0  0  0  0  0  0  0  0  0
    3.3144    1.8462   -0.8925 H   0  0  0  0  0  0  0  0  0  0  0  0
    1.4740    1.8406   -0.7555 H   0  0  0  0  0  0  0  0  0  0  0  0
    2.3139    0.6981   -1.8352 H   0  0  0  0  0  0  0  0  0  0  0  0
    2.9122    0.7876    1.1825 H   0  0  0  0  0  0  0  0  0  0  0  0
    3.1182   -0.5953    0.0951 H   0  0  0  0  0  0  0  0  0  0  0  0
    1.0742   -0.7972    1.5798 H   0  0  0  0  0  0  0  0  0  0  0  0
    0.4610    0.7573    0.8548 H   0  0  0  0  0  0  0  0  0  0  0  0
    0.5172   -0.1765   -1.3804 H   0  0  0  0  0  0  0  0  0  0  0  0
    1.4083   -2.4637    0.0801 H   0  0  0  0  0  0  0  0  0  0  0  0
   -1.1950   -1.9456   -1.2405 H   0  0  0  0  0  0  0  0  0  0  0  0
   -0.7822   -2.1916    0.5457 H   0  0  0  0  0  0  0  0  0  0  0  0
   -2.8779   -0.9610    0.2106 H   0  0  0  0  0  0  0  0  0  0  0  0
   -1.6329    0.0805    1.0372 H   0  0  0  0  0  0  0  0  0  0  0  0
   -2.6524    1.7871    0.5909 H   0  0  0  0  0  0  0  0  0  0  0  0
   -3.3908    2.1441   -1.0635 H   0  0  0  0  0  0  0  0  0  0  0  0
   -3.9113    0.7081   -0.0648 H   0  0  0  0  0  0  0  0  0  0  0  0
  1  2  1  0
  2  3  1  0
  3  4  1  0
  4  5  1  0
  4  6  1  0
  6  7  1  0
  7  8  1  0
  8  9  1  0
  1 10  1  0
  1 11  1  0
  1 12  1  0
  2 13  1  0
  2 14  1  0
  3 15  1  0
  3 16  1  0
  4 17  1  0
  5 18  1  0
  6 19  1  0
  6 20  1  0
  7 21  1  0
  7 22  1  0
  9 23  1  0
  9 24  1  0
  9 25  1  0
M  END
