
     RDKit          3D

 19 18  0  0  0  0  0  0  0  0999 V2000
    1.9448   -0.9141   -0.0759 C   0  0  0  0  0  0  0  0  0  0  0  0
    1.5615    0.4204    0.4950 C   0  0  0  0  0  0  0  0  0  0  0  0
    0.2374    0.9363    0.0207 C   0  0  0  0  0  0  0  0  0  0  0  0
   -0.9318    0.0616    0.3460 C   0  0  0  0  0  0  0  0  0  0  0  0
   -2.1864    0.7537   -0.2122 C   0  0  0  0  0  0  0  0  0  0  0  0
   -0.8792   -1.2461   -0.3338 C   0  0  0  0  0  0  0  0  0  0  0  0
   -1.2762   -2.2343    0.2285 O   0  0  0  0  0  0  0  0  0  0  0  0
    3.0368   -1.0806    0.1652 H   0  0  0  0  0  0  0  0  0  0  0  0
    1.8754   -0.9513   -1.1868 H   0  0  0  0  0  0  0  0  0  0  0  0
    1.4224   -1.7713    0.3679 H   0  0  0  0  0  0  0  0  0  0  0  0
    1.6493    0.3601    1.5818 H   0  0  0  0  0  0  0  0  0  0  0  0
    2.3635    1.1439    0.1671 H   0  0  0  0  0  0  0  0  0  0  0  0
    0.0398    1.9293    0.5092 H   0  0  0  0  0  0  0  0  0  0  0  0
    0.2170    1.1277   -1.0706 H   0  0  0  0  0  0  0  0  0  0  0  0
   -1.0919   -0.0422    1.4478 H   0  0  0  0  0  0  0  0  0  0  0  0
   -1.9825    1.8465   -0.3741 H   0  0  0  0  0  0  0  0  0  0  0  0
   -3.0546    0.6099    0.4536 H   0  0  0  0  0  0  0  0  0  0  0  0
   -2.4595    0.3489   -1.2038 H   0  0  0  0  0  0  0  0  0  0  0  0
   -0.4857   -1.2985   -1.3256 H   0  0  0  0  0  0  0  0  0  0  0  0
  1  2  1  0
  2  3  1  0
  3  4  1  0
  4  5  1  0
  4  6  1  0
  6  7  2  0
  1  8  1  0
  1  9  1  0
  1 10  1  0
  2 11  1  0
  2 12  1  0
  3 13  1  0
  3 14  1  0
  4 15  1  0
  5 16  1  0
  5 17  1  0
  5 18  1  0
  6 19  1  0
M  END
