
     RDKit          3D

 27 26  0  0  0  0  0  0  0  0999 V2000
    3.5030    0.3898    0.2261 C   0  0  0  0  0  0  0  0  0  0  0  0
    2.2849   -0.4058   -0.2596 C   0  0  0  0  0  0  0  0  0  0  0  0
    1.0726    0.3260    0.2810 C   0  0  0  0  0  0  0  0  0  0  0  0
   -0.1418   -0.4063   -0.1620 C   0  0  0  0  0  0  0  0  0  0  0  0
   -0.0530   -1.8190    0.4105 C   0  0  0  0  0  0  0  0  0  0  0  0
   -1.4397    0.1661    0.2185 C   0  0  0  0  0  0  0  0  0  0  0  0
   -2.5586   -0.6979   -0.3162 C   0  0  0  0  0  0  0  0  0  0  0  0
   -1.6925    1.5760   -0.1995 C   0  0  0  0  0  0  0  0  0  0  0  0
   -2.9474    2.0252    0.2079 O   0  0  0  0  0  0  0  0  0  0  0  0
    3.3856    1.4078   -0.2128 H   0  0  0  0  0  0  0  0  0  0  0  0
    4.4451   -0.0963   -0.0826 H   0  0  0  0  0  0  0  0  0  0  0  0
    3.3978    0.5101    1.3187 H   0  0  0  0  0  0  0  0  0  0  0  0
    2.2752   -0.2421   -1.3754 H   0  0  0  0  0  0  0  0  0  0  0  0
    2.3512   -1.4559    0.0075 H   0  0  0  0  0  0  0  0  0  0  0  0
    1.1734    0.3097    1.3999 H   0  0  0  0  0  0  0  0  0  0  0  0
    1.1558    1.3579   -0.1123 H   0  0  0  0  0  0  0  0  0  0  0  0
   -0.0893   -0.5248   -1.2776 H   0  0  0  0  0  0  0  0  0  0  0  0
    0.7619   -1.8939    1.1862 H   0  0  0  0  0  0  0  0  0  0  0  0
    0.1339   -2.5811   -0.3436 H   0  0  0  0  0  0  0  0  0  0  0  0
   -1.0002   -2.0998    0.9524 H   0  0  0  0  0  0  0  0  0  0  0  0
   -1.5294    0.1148    1.3452 H   0  0  0  0  0  0  0  0  0  0  0  0
   -2.2317   -1.7147   -0.6086 H   0  0  0  0  0  0  0  0  0  0  0  0
   -3.0135   -0.1527   -1.1775 H   0  0  0  0  0  0  0  0  0  0  0  0
   -3.3832   -0.7721    0.4369 H   0  0  0  0  0  0  0  0  0  0  0  0
   -0.9453    2.2369    0.3275 H   0  0  0  0  0  0  0  0  0  0  0  0
   -1.5946    1.7734   -1.2604 H   0  0  0  0  0  0  0  0  0  0  0  0
   -3.3204    2.6687   -0.4291 H   0  0  0  0  0  0  0  0  0  0  0  0
  1  2  1  0
  2  3  1  0
  3  4  1  0
  4  5  1  0
  4  6  1  0
  6  7  1  0
  6  8  1  0
  8  9  1  0
  1 10  1  0
  1 11  1  0
  1 12  1  0
  2 13  1  0
  2 14  1  0
  3 15  1  0
  3 16  1  0
  4 17  1  0
  5 18  1  0
  5 19  1  0
  5 20  1  0
  6 21  1  0
  7 22  1  0
  7 23  1  0
  7 24  1  0
  8 25  1  0
  8 26  1  0
  9 27  1  0
M  END
