
     RDKit          3D

 23 23  0  0  0  0  0  0  0  0999 V2000
   -2.6146   -0.6854    0.7190 C   0  0  0  0  0  0  0  0  0  0  0  0
   -2.3919    0.7289    0.2529 C   0  0  0  0  0  0  0  0  0  0  0  0
   -0.9710    1.1998    0.3690 C   0  0  0  0  0  0  0  0  0  0  0  0
   -0.0648    0.3273   -0.4595 C   0  0  0  0  0  0  0  0  0  0  0  0
   -0.1577   -0.9586    0.0008 O   0  0  0  0  0  0  0  0  0  0  0  0
    1.3369    0.8603   -0.5624 C   0  0  0  0  0  0  0  0  0  0  0  0
    2.1131    0.9174    0.6099 O   0  0  0  0  0  0  0  0  0  0  0  0
    2.5341    0.0900   -0.5542 C   0  0  0  0  0  0  0  0  0  0  0  0
    2.7276   -1.3080   -0.1252 C   0  0  0  0  0  0  0  0  0  0  0  0
   -3.7088   -0.7601    0.9952 H   0  0  0  0  0  0  0  0  0  0  0  0
   -2.0454   -0.9560    1.6188 H   0  0  0  0  0  0  0  0  0  0  0  0
   -2.4393   -1.4070   -0.1172 H   0  0  0  0  0  0  0  0  0  0  0  0
   -2.6320    0.7303   -0.8501 H   0  0  0  0  0  0  0  0  0  0  0  0
   -3.0906    1.3826    0.8100 H   0  0  0  0  0  0  0  0  0  0  0  0
   -0.9620    2.2614    0.0309 H   0  0  0  0  0  0  0  0  0  0  0  0
   -0.6821    1.2138    1.4394 H   0  0  0  0  0  0  0  0  0  0  0  0
   -0.4548    0.3065   -1.5218 H   0  0  0  0  0  0  0  0  0  0  0  0
    0.2327   -1.1025    0.8949 H   0  0  0  0  0  0  0  0  0  0  0  0
    1.3637    1.8441   -1.0943 H   0  0  0  0  0  0  0  0  0  0  0  0
    3.4539    0.5347   -1.0366 H   0  0  0  0  0  0  0  0  0  0  0  0
    2.7900   -1.4497    0.9747 H   0  0  0  0  0  0  0  0  0  0  0  0
    3.6993   -1.7430   -0.5095 H   0  0  0  0  0  0  0  0  0  0  0  0
    1.9637   -2.0267   -0.4778 H   0  0  0  0  0  0  0  0  0  0  0  0
  1  2  1  0
  2  3  1  0
  3  4  1  0
  4  5  1  0
  4  6  1  0
  6  7  1  0
  7  8  1  0
  8  9  1  0
  8  6  1  0
  1 10  1  0
  1 11  1  0
  1 12  1  0
  2 13  1  0
  2 14  1  0
  3 15  1  0
  3 16  1  0
  4 17  1  0
  5 18  1  0
  6 19  1  0
  8 20  1  0
  9 21  1  0
  9 22  1  0
  9 23  1  0
M  END
