
     RDKit          3D

 21 20  0  0  0  0  0  0  0  0999 V2000
   -1.5383    0.8258   -0.8023 C   0  0  0  0  0  0  0  0  0  0  0  0
   -1.8045   -0.2138    0.2291 C   0  0  0  0  0  0  0  0  0  0  0  0
   -0.7300   -0.3518    1.2372 C   0  0  0  0  0  0  0  0  0  0  0  0
    0.6196   -0.7274    0.7701 C   0  0  0  0  0  0  0  0  0  0  0  0
    0.6817   -2.0459    0.0505 C   0  0  0  0  0  0  0  0  0  0  0  0
    1.2194    0.3121   -0.0551 C   0  0  0  0  0  0  0  0  0  0  0  0
    1.7193    1.1785   -0.7666 C   0  0  0  0  0  0  0  0  0  0  0  0
    2.3238    2.1893   -1.5888 C   0  0  0  0  0  0  0  0  0  0  0  0
    3.5426    2.1059   -1.9010 O   0  0  0  0  0  0  0  0  0  0  0  0
   -2.5435    1.0798   -1.2666 H   0  0  0  0  0  0  0  0  0  0  0  0
   -0.9279    0.4906   -1.6458 H   0  0  0  0  0  0  0  0  0  0  0  0
   -1.0725    1.7159   -0.3625 H   0  0  0  0  0  0  0  0  0  0  0  0
   -2.7222    0.1353    0.7926 H   0  0  0  0  0  0  0  0  0  0  0  0
   -2.1246   -1.1821   -0.2115 H   0  0  0  0  0  0  0  0  0  0  0  0
   -0.7168    0.5944    1.8517 H   0  0  0  0  0  0  0  0  0  0  0  0
   -1.0357   -1.1255    2.0073 H   0  0  0  0  0  0  0  0  0  0  0  0
    1.2458   -0.8757    1.7151 H   0  0  0  0  0  0  0  0  0  0  0  0
    0.7450   -2.9090    0.7164 H   0  0  0  0  0  0  0  0  0  0  0  0
    1.5594   -2.0610   -0.6598 H   0  0  0  0  0  0  0  0  0  0  0  0
   -0.2141   -2.1776   -0.5897 H   0  0  0  0  0  0  0  0  0  0  0  0
    1.7735    3.0422   -1.9648 H   0  0  0  0  0  0  0  0  0  0  0  0
  1  2  1  0
  2  3  1  0
  3  4  1  0
  4  5  1  0
  4  6  1  0
  6  7  3  0
  7  8  1  0
  8  9  2  0
  1 10  1  0
  1 11  1  0
  1 12  1  0
  2 13  1  0
  2 14  1  0
  3 15  1  0
  3 16  1  0
  4 17  1  0
  5 18  1  0
  5 19  1  0
  5 20  1  0
  8 21  1  0
M  END
