
     RDKit          3D

 23 24  0  0  0  0  0  0  0  0999 V2000
    2.4574    0.4039   -0.8625 C   0  0  0  0  0  0  0  0  0  0  0  0
    2.1600    0.5067    0.5874 C   0  0  0  0  0  0  0  0  0  0  0  0
    0.7122    0.7289    0.9160 C   0  0  0  0  0  0  0  0  0  0  0  0
   -0.2022   -0.3358    0.4444 C   0  0  0  0  0  0  0  0  0  0  0  0
   -0.0704   -1.6473    0.8654 O   0  0  0  0  0  0  0  0  0  0  0  0
   -1.1332   -1.0192    1.4559 C   0  0  0  0  0  0  0  0  0  0  0  0
   -2.3118   -0.7619    0.5745 C   0  0  0  0  0  0  0  0  0  0  0  0
   -1.4232    0.1063   -0.2947 C   0  0  0  0  0  0  0  0  0  0  0  0
   -1.4161   -0.2824   -1.7557 C   0  0  0  0  0  0  0  0  0  0  0  0
    3.4706   -0.0862   -0.9626 H   0  0  0  0  0  0  0  0  0  0  0  0
    2.5958    1.4062   -1.3537 H   0  0  0  0  0  0  0  0  0  0  0  0
    1.7355   -0.1436   -1.4658 H   0  0  0  0  0  0  0  0  0  0  0  0
    2.7258    1.3771    1.0071 H   0  0  0  0  0  0  0  0  0  0  0  0
    2.5041   -0.3822    1.1472 H   0  0  0  0  0  0  0  0  0  0  0  0
    0.6510    0.7485    2.0449 H   0  0  0  0  0  0  0  0  0  0  0  0
    0.3505    1.7150    0.5931 H   0  0  0  0  0  0  0  0  0  0  0  0
   -1.0616   -0.5774    2.4615 H   0  0  0  0  0  0  0  0  0  0  0  0
   -3.1545   -0.2335    1.0566 H   0  0  0  0  0  0  0  0  0  0  0  0
   -2.6290   -1.7176    0.0632 H   0  0  0  0  0  0  0  0  0  0  0  0
   -1.6971    1.1686   -0.1367 H   0  0  0  0  0  0  0  0  0  0  0  0
   -0.5151    0.1291   -2.2522 H   0  0  0  0  0  0  0  0  0  0  0  0
   -2.2827    0.2588   -2.2223 H   0  0  0  0  0  0  0  0  0  0  0  0
   -1.4658   -1.3620   -1.9109 H   0  0  0  0  0  0  0  0  0  0  0  0
  1  2  1  0
  2  3  1  0
  3  4  1  0
  4  5  1  0
  5  6  1  0
  6  7  1  0
  7  8  1  0
  8  9  1  0
  6  4  1  0
  8  4  1  0
  1 10  1  0
  1 11  1  0
  1 12  1  0
  2 13  1  0
  2 14  1  0
  3 15  1  0
  3 16  1  0
  6 17  1  0
  7 18  1  0
  7 19  1  0
  8 20  1  0
  9 21  1  0
  9 22  1  0
  9 23  1  0
M  END
