
     RDKit          3D

 25 25  0  0  0  0  0  0  0  0999 V2000
    2.5650    0.9835    0.6373 C   0  0  0  0  0  0  0  0  0  0  0  0
    2.5837   -0.4722    0.2380 C   0  0  0  0  0  0  0  0  0  0  0  0
    1.3730   -0.7686   -0.6078 C   0  0  0  0  0  0  0  0  0  0  0  0
    0.0788   -0.5062    0.1006 C   0  0  0  0  0  0  0  0  0  0  0  0
   -1.0336   -0.8576   -0.8965 C   0  0  0  0  0  0  0  0  0  0  0  0
   -2.3959   -0.6739   -0.2458 C   0  0  0  0  0  0  0  0  0  0  0  0
   -2.4731    0.7709    0.2082 C   0  0  0  0  0  0  0  0  0  0  0  0
   -1.2669    1.0036    1.1055 C   0  0  0  0  0  0  0  0  0  0  0  0
   -0.1010    0.8585    0.3882 O   0  0  0  0  0  0  0  0  0  0  0  0
    2.1954    1.5846   -0.2188 H   0  0  0  0  0  0  0  0  0  0  0  0
    3.5737    1.3530    0.9198 H   0  0  0  0  0  0  0  0  0  0  0  0
    1.9282    1.1526    1.5525 H   0  0  0  0  0  0  0  0  0  0  0  0
    2.6794   -1.1358    1.1037 H   0  0  0  0  0  0  0  0  0  0  0  0
    3.4787   -0.6295   -0.3963 H   0  0  0  0  0  0  0  0  0  0  0  0
    1.3514   -1.8116   -0.9724 H   0  0  0  0  0  0  0  0  0  0  0  0
    1.4015   -0.1147   -1.5026 H   0  0  0  0  0  0  0  0  0  0  0  0
   -0.0386   -1.1071    1.0259 H   0  0  0  0  0  0  0  0  0  0  0  0
   -0.9631   -0.0901   -1.6959 H   0  0  0  0  0  0  0  0  0  0  0  0
   -0.8479   -1.8782   -1.2314 H   0  0  0  0  0  0  0  0  0  0  0  0
   -3.1445   -0.9080   -1.0263 H   0  0  0  0  0  0  0  0  0  0  0  0
   -2.4591   -1.3855    0.5827 H   0  0  0  0  0  0  0  0  0  0  0  0
   -3.4071    0.9813    0.7681 H   0  0  0  0  0  0  0  0  0  0  0  0
   -2.3927    1.3976   -0.7205 H   0  0  0  0  0  0  0  0  0  0  0  0
   -1.3607    0.2567    1.9380 H   0  0  0  0  0  0  0  0  0  0  0  0
   -1.3245    1.9969    1.6063 H   0  0  0  0  0  0  0  0  0  0  0  0
  1  2  1  0
  2  3  1  0
  3  4  1  0
  4  5  1  0
  5  6  1  0
  6  7  1  0
  7  8  1  0
  8  9  1  0
  9  4  1  0
  1 10  1  0
  1 11  1  0
  1 12  1  0
  2 13  1  0
  2 14  1  0
  3 15  1  0
  3 16  1  0
  4 17  1  0
  5 18  1  0
  5 19  1  0
  6 20  1  0
  6 21  1  0
  7 22  1  0
  7 23  1  0
  8 24  1  0
  8 25  1  0
M  END
