
     RDKit          3D

 25 24  0  0  0  0  0  0  0  0999 V2000
   -3.0397    0.6915    0.0045 C   0  0  0  0  0  0  0  0  0  0  0  0
   -2.4589   -0.2740   -1.0088 C   0  0  0  0  0  0  0  0  0  0  0  0
   -1.3688   -1.1469   -0.3740 C   0  0  0  0  0  0  0  0  0  0  0  0
   -0.2985   -0.1402    0.0941 C   0  0  0  0  0  0  0  0  0  0  0  0
    0.8550   -0.8336    0.7245 C   0  0  0  0  0  0  0  0  0  0  0  0
    1.8789    0.1977    1.1545 C   0  0  0  0  0  0  0  0  0  0  0  0
    2.3826    1.0101   -0.0210 C   0  0  0  0  0  0  0  0  0  0  0  0
    3.0040    0.1577   -1.0554 C   0  0  0  0  0  0  0  0  0  0  0  0
    3.9099   -0.5788   -0.6902 O   0  0  0  0  0  0  0  0  0  0  0  0
   -4.0388    1.0127   -0.3683 H   0  0  0  0  0  0  0  0  0  0  0  0
   -3.1692    0.2138    0.9999 H   0  0  0  0  0  0  0  0  0  0  0  0
   -2.3691    1.5600    0.1402 H   0  0  0  0  0  0  0  0  0  0  0  0
   -1.9442    0.3853   -1.7728 H   0  0  0  0  0  0  0  0  0  0  0  0
   -3.2121   -0.8638   -1.5213 H   0  0  0  0  0  0  0  0  0  0  0  0
   -0.9654   -1.8088   -1.1784 H   0  0  0  0  0  0  0  0  0  0  0  0
   -1.7274   -1.6955    0.5170 H   0  0  0  0  0  0  0  0  0  0  0  0
   -0.0025    0.4879   -0.7384 H   0  0  0  0  0  0  0  0  0  0  0  0
   -0.8302    0.4602    0.8786 H   0  0  0  0  0  0  0  0  0  0  0  0
    0.5325   -1.4563    1.6049 H   0  0  0  0  0  0  0  0  0  0  0  0
    1.2991   -1.5317   -0.0059 H   0  0  0  0  0  0  0  0  0  0  0  0
    1.4020    0.9473    1.8531 H   0  0  0  0  0  0  0  0  0  0  0  0
    2.6957   -0.2525    1.7537 H   0  0  0  0  0  0  0  0  0  0  0  0
    3.1887    1.6773    0.4299 H   0  0  0  0  0  0  0  0  0  0  0  0
    1.5655    1.6431   -0.3758 H   0  0  0  0  0  0  0  0  0  0  0  0
    2.7111    0.1375   -2.1142 H   0  0  0  0  0  0  0  0  0  0  0  0
  1  2  1  0
  2  3  1  0
  3  4  1  0
  4  5  1  0
  5  6  1  0
  6  7  1  0
  7  8  1  0
  8  9  2  0
  1 10  1  0
  1 11  1  0
  1 12  1  0
  2 13  1  0
  2 14  1  0
  3 15  1  0
  3 16  1  0
  4 17  1  0
  4 18  1  0
  5 19  1  0
  5 20  1  0
  6 21  1  0
  6 22  1  0
  7 23  1  0
  7 24  1  0
  8 25  1  0
M  END
