
     RDKit          3D

 25 24  0  0  0  0  0  0  0  0999 V2000
    3.0323   -0.5622    0.1110 C   0  0  0  0  0  0  0  0  0  0  0  0
    1.9112    0.4618    0.1162 C   0  0  0  0  0  0  0  0  0  0  0  0
    0.6425   -0.3279   -0.2323 C   0  0  0  0  0  0  0  0  0  0  0  0
   -0.5590    0.5907   -0.2592 C   0  0  0  0  0  0  0  0  0  0  0  0
   -0.7871    1.2583    1.0642 C   0  0  0  0  0  0  0  0  0  0  0  0
   -0.3179    1.5272   -1.2780 O   0  0  0  0  0  0  0  0  0  0  0  0
   -1.7631   -0.2607   -0.5900 C   0  0  0  0  0  0  0  0  0  0  0  0
   -1.9518   -1.2931    0.4744 C   0  0  0  0  0  0  0  0  0  0  0  0
   -1.4945   -0.9221   -1.7856 O   0  0  0  0  0  0  0  0  0  0  0  0
    2.8874   -1.2019    1.0048 H   0  0  0  0  0  0  0  0  0  0  0  0
    4.0310   -0.0852    0.0887 H   0  0  0  0  0  0  0  0  0  0  0  0
    2.8466   -1.2135   -0.7746 H   0  0  0  0  0  0  0  0  0  0  0  0
    1.7327    0.8895    1.1207 H   0  0  0  0  0  0  0  0  0  0  0  0
    2.0353    1.2312   -0.6495 H   0  0  0  0  0  0  0  0  0  0  0  0
    0.5473   -1.1391    0.5155 H   0  0  0  0  0  0  0  0  0  0  0  0
    0.8097   -0.7013   -1.2645 H   0  0  0  0  0  0  0  0  0  0  0  0
   -0.5681    0.5316    1.8715 H   0  0  0  0  0  0  0  0  0  0  0  0
   -0.1478    2.1626    1.1845 H   0  0  0  0  0  0  0  0  0  0  0  0
   -1.8485    1.5597    1.1225 H   0  0  0  0  0  0  0  0  0  0  0  0
   -0.2685    2.4363   -0.8526 H   0  0  0  0  0  0  0  0  0  0  0  0
   -2.6843    0.3498   -0.6470 H   0  0  0  0  0  0  0  0  0  0  0  0
   -2.9683   -1.7509    0.3037 H   0  0  0  0  0  0  0  0  0  0  0  0
   -1.2321   -2.1317    0.4208 H   0  0  0  0  0  0  0  0  0  0  0  0
   -1.9650   -0.9061    1.4953 H   0  0  0  0  0  0  0  0  0  0  0  0
   -1.9200   -0.5029   -2.5604 H   0  0  0  0  0  0  0  0  0  0  0  0
  1  2  1  0
  2  3  1  0
  3  4  1  0
  4  5  1  0
  4  6  1  0
  4  7  1  0
  7  8  1  0
  7  9  1  0
  1 10  1  0
  1 11  1  0
  1 12  1  0
  2 13  1  0
  2 14  1  0
  3 15  1  0
  3 16  1  0
  5 17  1  0
  5 18  1  0
  5 19  1  0
  6 20  1  0
  7 21  1  0
  8 22  1  0
  8 23  1  0
  8 24  1  0
  9 25  1  0
M  END
