
     RDKit          3D

 20 21  0  0  0  0  0  0  0  0999 V2000
    2.8434    0.1592    0.1268 C   0  0  0  0  0  0  0  0  0  0  0  0
    1.4071    0.2811   -0.4094 C   0  0  0  0  0  0  0  0  0  0  0  0
    0.5448   -0.4770    0.5460 C   0  0  0  0  0  0  0  0  0  0  0  0
   -0.9005   -0.5037    0.2246 C   0  0  0  0  0  0  0  0  0  0  0  0
   -1.6390    0.7772    0.1461 C   0  0  0  0  0  0  0  0  0  0  0  0
   -2.6879    0.0482   -0.6378 C   0  0  0  0  0  0  0  0  0  0  0  0
   -1.3399   -0.3281   -1.1857 C   0  0  0  0  0  0  0  0  0  0  0  0
   -1.0143    1.0098   -1.0673 O   0  0  0  0  0  0  0  0  0  0  0  0
    2.9798   -0.8620    0.5748 H   0  0  0  0  0  0  0  0  0  0  0  0
    3.5612    0.3347   -0.6803 H   0  0  0  0  0  0  0  0  0  0  0  0
    2.9188    0.9075    0.9365 H   0  0  0  0  0  0  0  0  0  0  0  0
    1.4027   -0.1439   -1.4183 H   0  0  0  0  0  0  0  0  0  0  0  0
    1.1869    1.3671   -0.4332 H   0  0  0  0  0  0  0  0  0  0  0  0
    0.9127   -1.5384    0.5437 H   0  0  0  0  0  0  0  0  0  0  0  0
    0.7391   -0.1100    1.5862 H   0  0  0  0  0  0  0  0  0  0  0  0
   -1.4955   -1.3192    0.6982 H   0  0  0  0  0  0  0  0  0  0  0  0
   -1.7983    1.4515    0.8790 H   0  0  0  0  0  0  0  0  0  0  0  0
   -3.3245    0.6392   -1.2912 H   0  0  0  0  0  0  0  0  0  0  0  0
   -3.1338   -0.7598   -0.0560 H   0  0  0  0  0  0  0  0  0  0  0  0
   -1.1629   -0.9335   -1.9726 H   0  0  0  0  0  0  0  0  0  0  0  0
  1  2  1  0
  2  3  1  0
  3  4  1  0
  4  5  1  0
  5  6  1  0
  6  7  1  0
  7  8  1  0
  7  4  1  0
  8  5  1  0
  1  9  1  0
  1 10  1  0
  1 11  1  0
  2 12  1  0
  2 13  1  0
  3 14  1  0
  3 15  1  0
  4 16  1  0
  5 17  1  0
  6 18  1  0
  6 19  1  0
  7 20  1  0
M  END
