
     RDKit          3D

 23 23  0  0  0  0  0  0  0  0999 V2000
    2.7720    0.2203   -1.0988 C   0  0  0  0  0  0  0  0  0  0  0  0
    1.2840   -0.1692   -1.0933 C   0  0  0  0  0  0  0  0  0  0  0  0
    0.8074    0.0211    0.3009 C   0  0  0  0  0  0  0  0  0  0  0  0
   -0.6204   -0.2874    0.5722 C   0  0  0  0  0  0  0  0  0  0  0  0
   -1.0293   -1.7023    0.2867 C   0  0  0  0  0  0  0  0  0  0  0  0
   -0.8472   -2.0753   -1.0350 O   0  0  0  0  0  0  0  0  0  0  0  0
   -1.5871    0.6446   -0.0787 C   0  0  0  0  0  0  0  0  0  0  0  0
   -1.6681    2.0549    0.1307 C   0  0  0  0  0  0  0  0  0  0  0  0
   -2.6719    1.1566    0.8015 O   0  0  0  0  0  0  0  0  0  0  0  0
    2.7972    1.2786   -0.7397 H   0  0  0  0  0  0  0  0  0  0  0  0
    3.3307   -0.4234   -0.3819 H   0  0  0  0  0  0  0  0  0  0  0  0
    3.2060    0.1538   -2.0992 H   0  0  0  0  0  0  0  0  0  0  0  0
    1.2886   -1.2496   -1.4190 H   0  0  0  0  0  0  0  0  0  0  0  0
    0.7780    0.4662   -1.8321 H   0  0  0  0  0  0  0  0  0  0  0  0
    0.9764    1.0875    0.5683 H   0  0  0  0  0  0  0  0  0  0  0  0
    1.4676   -0.5602    0.9835 H   0  0  0  0  0  0  0  0  0  0  0  0
   -0.7494   -0.1558    1.6893 H   0  0  0  0  0  0  0  0  0  0  0  0
   -0.4922   -2.4382    0.9300 H   0  0  0  0  0  0  0  0  0  0  0  0
   -2.1059   -1.8465    0.5125 H   0  0  0  0  0  0  0  0  0  0  0  0
   -1.5384   -1.6846   -1.6286 H   0  0  0  0  0  0  0  0  0  0  0  0
   -2.1047    0.2177   -0.9741 H   0  0  0  0  0  0  0  0  0  0  0  0
   -2.1472    2.6902   -0.6320 H   0  0  0  0  0  0  0  0  0  0  0  0
   -1.1459    2.6011    0.9183 H   0  0  0  0  0  0  0  0  0  0  0  0
  1  2  1  0
  2  3  1  0
  3  4  1  0
  4  5  1  0
  5  6  1  0
  4  7  1  0
  7  8  1  0
  8  9  1  0
  9  7  1  0
  1 10  1  0
  1 11  1  0
  1 12  1  0
  2 13  1  0
  2 14  1  0
  3 15  1  0
  3 16  1  0
  4 17  1  0
  5 18  1  0
  5 19  1  0
  6 20  1  0
  7 21  1  0
  8 22  1  0
  8 23  1  0
M  END
