
     RDKit          3D

 23 22  0  0  0  0  0  0  0  0999 V2000
    3.0122    0.1602   -0.5304 C   0  0  0  0  0  0  0  0  0  0  0  0
    1.7719   -0.5246    0.0187 C   0  0  0  0  0  0  0  0  0  0  0  0
    0.5782    0.4145   -0.0507 C   0  0  0  0  0  0  0  0  0  0  0  0
   -0.6034   -0.3376    0.5097 C   0  0  0  0  0  0  0  0  0  0  0  0
   -0.9064   -1.5780   -0.2584 C   0  0  0  0  0  0  0  0  0  0  0  0
   -1.7891    0.5733    0.6832 C   0  0  0  0  0  0  0  0  0  0  0  0
   -2.2535    1.2038   -0.5874 C   0  0  0  0  0  0  0  0  0  0  0  0
    3.4113    0.8974    0.2017 H   0  0  0  0  0  0  0  0  0  0  0  0
    2.6912    0.7739   -1.4127 H   0  0  0  0  0  0  0  0  0  0  0  0
    3.7589   -0.5794   -0.8325 H   0  0  0  0  0  0  0  0  0  0  0  0
    1.6033   -1.4579   -0.5536 H   0  0  0  0  0  0  0  0  0  0  0  0
    1.9636   -0.7996    1.0714 H   0  0  0  0  0  0  0  0  0  0  0  0
    0.4255    0.8049   -1.0542 H   0  0  0  0  0  0  0  0  0  0  0  0
    0.7927    1.2425    0.6749 H   0  0  0  0  0  0  0  0  0  0  0  0
   -0.3059   -0.6593    1.5498 H   0  0  0  0  0  0  0  0  0  0  0  0
   -1.9827   -1.8040   -0.3569 H   0  0  0  0  0  0  0  0  0  0  0  0
   -0.4387   -2.4939    0.1975 H   0  0  0  0  0  0  0  0  0  0  0  0
   -0.4320   -1.5105   -1.2765 H   0  0  0  0  0  0  0  0  0  0  0  0
   -1.4598    1.4012    1.3686 H   0  0  0  0  0  0  0  0  0  0  0  0
   -2.6068    0.0544    1.1952 H   0  0  0  0  0  0  0  0  0  0  0  0
   -2.9478    2.0453   -0.2982 H   0  0  0  0  0  0  0  0  0  0  0  0
   -1.4254    1.6566   -1.1465 H   0  0  0  0  0  0  0  0  0  0  0  0
   -2.8575    0.5167   -1.2125 H   0  0  0  0  0  0  0  0  0  0  0  0
  1  2  1  0
  2  3  1  0
  3  4  1  0
  4  5  1  0
  4  6  1  0
  6  7  1  0
  1  8  1  0
  1  9  1  0
  1 10  1  0
  2 11  1  0
  2 12  1  0
  3 13  1  0
  3 14  1  0
  4 15  1  0
  5 16  1  0
  5 17  1  0
  5 18  1  0
  6 19  1  0
  6 20  1  0
  7 21  1  0
  7 22  1  0
  7 23  1  0
M  END
