
     RDKit          3D

 23 24  0  0  0  0  0  0  0  0999 V2000
    3.1068   -0.2850   -0.3864 C   0  0  0  0  0  0  0  0  0  0  0  0
    2.2090    0.8545   -0.0155 C   0  0  0  0  0  0  0  0  0  0  0  0
    1.0657    0.4707    0.8588 C   0  0  0  0  0  0  0  0  0  0  0  0
    0.1568   -0.5580    0.2195 C   0  0  0  0  0  0  0  0  0  0  0  0
   -0.9073   -0.9064    1.0495 O   0  0  0  0  0  0  0  0  0  0  0  0
   -1.9043   -0.5093    0.1824 C   0  0  0  0  0  0  0  0  0  0  0  0
   -3.0649    0.2933    0.6701 C   0  0  0  0  0  0  0  0  0  0  0  0
   -1.8742   -0.8966   -1.2540 C   0  0  0  0  0  0  0  0  0  0  0  0
   -0.8709    0.0502   -0.7192 C   0  0  0  0  0  0  0  0  0  0  0  0
    4.1657   -0.0512   -0.1414 H   0  0  0  0  0  0  0  0  0  0  0  0
    2.8709   -1.2230    0.1707 H   0  0  0  0  0  0  0  0  0  0  0  0
    3.0975   -0.4938   -1.4878 H   0  0  0  0  0  0  0  0  0  0  0  0
    2.7994    1.6283    0.5154 H   0  0  0  0  0  0  0  0  0  0  0  0
    1.8459    1.3316   -0.9487 H   0  0  0  0  0  0  0  0  0  0  0  0
    1.4273    0.1143    1.8432 H   0  0  0  0  0  0  0  0  0  0  0  0
    0.4541    1.3779    1.0406 H   0  0  0  0  0  0  0  0  0  0  0  0
    0.6635   -1.3992   -0.2732 H   0  0  0  0  0  0  0  0  0  0  0  0
   -4.0370   -0.2747    0.6187 H   0  0  0  0  0  0  0  0  0  0  0  0
   -2.9337    0.5330    1.7493 H   0  0  0  0  0  0  0  0  0  0  0  0
   -3.1965    1.2464    0.1197 H   0  0  0  0  0  0  0  0  0  0  0  0
   -2.6613   -0.4531   -1.8812 H   0  0  0  0  0  0  0  0  0  0  0  0
   -1.5882   -1.9514   -1.4495 H   0  0  0  0  0  0  0  0  0  0  0  0
   -0.8243    1.1011   -0.9867 H   0  0  0  0  0  0  0  0  0  0  0  0
  1  2  1  0
  2  3  1  0
  3  4  1  0
  4  5  1  0
  5  6  1  0
  6  7  1  0
  6  8  1  0
  8  9  1  0
  9  4  1  0
  9  6  1  0
  1 10  1  0
  1 11  1  0
  1 12  1  0
  2 13  1  0
  2 14  1  0
  3 15  1  0
  3 16  1  0
  4 17  1  0
  7 18  1  0
  7 19  1  0
  7 20  1  0
  8 21  1  0
  8 22  1  0
  9 23  1  0
M  END
