
     RDKit          3D

 22 22  0  0  0  0  0  0  0  0999 V2000
   -2.4930   -0.1346   -0.7201 C   0  0  0  0  0  0  0  0  0  0  0  0
   -2.1271   -0.7176    0.6320 C   0  0  0  0  0  0  0  0  0  0  0  0
   -0.6240   -0.9095    0.6779 C   0  0  0  0  0  0  0  0  0  0  0  0
    0.0485    0.4284    0.4862 C   0  0  0  0  0  0  0  0  0  0  0  0
    1.5313    0.3632    0.5130 C   0  0  0  0  0  0  0  0  0  0  0  0
    2.1951   -0.4948   -0.5177 C   0  0  0  0  0  0  0  0  0  0  0  0
    3.1808    0.4863   -0.6479 O   0  0  0  0  0  0  0  0  0  0  0  0
    2.1740    1.4280   -0.3569 C   0  0  0  0  0  0  0  0  0  0  0  0
   -1.6625   -0.2995   -1.4341 H   0  0  0  0  0  0  0  0  0  0  0  0
   -2.7468    0.9584   -0.6250 H   0  0  0  0  0  0  0  0  0  0  0  0
   -3.4369   -0.6128   -1.1103 H   0  0  0  0  0  0  0  0  0  0  0  0
   -2.5671   -1.7495    0.6767 H   0  0  0  0  0  0  0  0  0  0  0  0
   -2.4986   -0.0856    1.4581 H   0  0  0  0  0  0  0  0  0  0  0  0
   -0.3009   -1.4315    1.5769 H   0  0  0  0  0  0  0  0  0  0  0  0
   -0.3843   -1.5699   -0.2061 H   0  0  0  0  0  0  0  0  0  0  0  0
   -0.3115    0.8770   -0.4582 H   0  0  0  0  0  0  0  0  0  0  0  0
   -0.2849    1.1056    1.2998 H   0  0  0  0  0  0  0  0  0  0  0  0
    2.0121    0.3773    1.5150 H   0  0  0  0  0  0  0  0  0  0  0  0
    1.5762   -0.5262   -1.4396 H   0  0  0  0  0  0  0  0  0  0  0  0
    2.6222   -1.4405   -0.1830 H   0  0  0  0  0  0  0  0  0  0  0  0
    2.5615    2.3084    0.1839 H   0  0  0  0  0  0  0  0  0  0  0  0
    1.5361    1.6394   -1.2151 H   0  0  0  0  0  0  0  0  0  0  0  0
  1  2  1  0
  2  3  1  0
  3  4  1  0
  4  5  1  0
  5  6  1  0
  6  7  1  0
  7  8  1  0
  8  5  1  0
  1  9  1  0
  1 10  1  0
  1 11  1  0
  2 12  1  0
  2 13  1  0
  3 14  1  0
  3 15  1  0
  4 16  1  0
  4 17  1  0
  5 18  1  0
  6 19  1  0
  6 20  1  0
  8 21  1  0
  8 22  1  0
M  END
