
     RDKit          3D

 22 22  0  0  0  0  0  0  0  0999 V2000
   -3.0072    0.0978   -1.0292 C   0  0  0  0  0  0  0  0  0  0  0  0
   -1.8988    0.0453   -0.0033 C   0  0  0  0  0  0  0  0  0  0  0  0
   -0.6339   -0.3770   -0.7221 C   0  0  0  0  0  0  0  0  0  0  0  0
    0.5451   -0.4672    0.1897 C   0  0  0  0  0  0  0  0  0  0  0  0
    0.9353    0.7955    0.8994 C   0  0  0  0  0  0  0  0  0  0  0  0
    2.2496    0.7639    0.1463 C   0  0  0  0  0  0  0  0  0  0  0  0
    1.8307   -0.4560   -0.6118 C   0  0  0  0  0  0  0  0  0  0  0  0
    2.5520   -1.6108   -0.3792 O   0  0  0  0  0  0  0  0  0  0  0  0
   -2.7757   -0.6512   -1.8141 H   0  0  0  0  0  0  0  0  0  0  0  0
   -4.0043   -0.1231   -0.5572 H   0  0  0  0  0  0  0  0  0  0  0  0
   -3.0075    1.1335   -1.4394 H   0  0  0  0  0  0  0  0  0  0  0  0
   -2.1757   -0.7362    0.7269 H   0  0  0  0  0  0  0  0  0  0  0  0
   -1.7339    1.0356    0.4583 H   0  0  0  0  0  0  0  0  0  0  0  0
   -0.7766   -1.3804   -1.1856 H   0  0  0  0  0  0  0  0  0  0  0  0
   -0.3832    0.3077   -1.5534 H   0  0  0  0  0  0  0  0  0  0  0  0
    0.4593   -1.3323    0.8958 H   0  0  0  0  0  0  0  0  0  0  0  0
    0.2600    1.6334    0.6377 H   0  0  0  0  0  0  0  0  0  0  0  0
    1.1305    0.6832    1.9964 H   0  0  0  0  0  0  0  0  0  0  0  0
    2.3556    1.6893   -0.4465 H   0  0  0  0  0  0  0  0  0  0  0  0
    3.1488    0.5974    0.7868 H   0  0  0  0  0  0  0  0  0  0  0  0
    1.6988   -0.2358   -1.6999 H   0  0  0  0  0  0  0  0  0  0  0  0
    3.2310   -1.4124    0.3089 H   0  0  0  0  0  0  0  0  0  0  0  0
  1  2  1  0
  2  3  1  0
  3  4  1  0
  4  5  1  0
  5  6  1  0
  6  7  1  0
  7  8  1  0
  7  4  1  0
  1  9  1  0
  1 10  1  0
  1 11  1  0
  2 12  1  0
  2 13  1  0
  3 14  1  0
  3 15  1  0
  4 16  1  0
  5 17  1  0
  5 18  1  0
  6 19  1  0
  6 20  1  0
  7 21  1  0
  8 22  1  0
M  END
