
     RDKit          3D

 22 21  0  0  0  0  0  0  0  0999 V2000
    2.3286   -0.3414   -0.0513 C   0  0  0  0  0  0  0  0  0  0  0  0
    1.5708    0.1532   -1.2599 C   0  0  0  0  0  0  0  0  0  0  0  0
    0.1567   -0.3769   -1.2985 C   0  0  0  0  0  0  0  0  0  0  0  0
   -0.5644    0.0710   -0.0757 C   0  0  0  0  0  0  0  0  0  0  0  0
   -0.6588    1.5595    0.0880 C   0  0  0  0  0  0  0  0  0  0  0  0
   -1.1730    1.7834    1.3875 O   0  0  0  0  0  0  0  0  0  0  0  0
   -1.8267   -0.4817    0.0675 O   0  0  0  0  0  0  0  0  0  0  0  0
   -1.9529   -1.2783    1.1960 C   0  0  0  0  0  0  0  0  0  0  0  0
    3.4095   -0.2068   -0.2789 H   0  0  0  0  0  0  0  0  0  0  0  0
    2.1284    0.2995    0.8423 H   0  0  0  0  0  0  0  0  0  0  0  0
    2.1397   -1.4178    0.1527 H   0  0  0  0  0  0  0  0  0  0  0  0
    1.6229    1.2610   -1.2435 H   0  0  0  0  0  0  0  0  0  0  0  0
    2.1550   -0.2048   -2.1522 H   0  0  0  0  0  0  0  0  0  0  0  0
   -0.3334   -0.1242   -2.2394 H   0  0  0  0  0  0  0  0  0  0  0  0
    0.2450   -1.4905   -1.2385 H   0  0  0  0  0  0  0  0  0  0  0  0
    0.0321   -0.3020    0.8098 H   0  0  0  0  0  0  0  0  0  0  0  0
    0.2917    2.0908    0.0522 H   0  0  0  0  0  0  0  0  0  0  0  0
   -1.3285    2.0330   -0.6618 H   0  0  0  0  0  0  0  0  0  0  0  0
   -2.1398    1.5230    1.3813 H   0  0  0  0  0  0  0  0  0  0  0  0
   -1.7641   -0.7388    2.1395 H   0  0  0  0  0  0  0  0  0  0  0  0
   -1.3276   -2.1980    1.1487 H   0  0  0  0  0  0  0  0  0  0  0  0
   -3.0112   -1.6132    1.2340 H   0  0  0  0  0  0  0  0  0  0  0  0
  1  2  1  0
  2  3  1  0
  3  4  1  0
  4  5  1  0
  5  6  1  0
  4  7  1  0
  7  8  1  0
  1  9  1  0
  1 10  1  0
  1 11  1  0
  2 12  1  0
  2 13  1  0
  3 14  1  0
  3 15  1  0
  4 16  1  0
  5 17  1  0
  5 18  1  0
  6 19  1  0
  8 20  1  0
  8 21  1  0
  8 22  1  0
M  END
