
     RDKit          3D

 21 22  0  0  0  0  0  0  0  0999 V2000
    2.0968    0.6510   -0.5948 C   0  0  0  0  0  0  0  0  0  0  0  0
    1.8980   -0.4957    0.3722 C   0  0  0  0  0  0  0  0  0  0  0  0
    0.4552   -0.9749    0.3978 C   0  0  0  0  0  0  0  0  0  0  0  0
   -0.4093    0.1626    0.8184 C   0  0  0  0  0  0  0  0  0  0  0  0
   -1.8753   -0.0745    0.9161 C   0  0  0  0  0  0  0  0  0  0  0  0
   -2.2916   -0.6709   -0.4115 C   0  0  0  0  0  0  0  0  0  0  0  0
   -1.6111    0.1254   -1.2395 C   0  0  0  0  0  0  0  0  0  0  0  0
   -0.9437    1.0478   -0.2799 C   0  0  0  0  0  0  0  0  0  0  0  0
   -2.0231    1.3009    0.6009 O   0  0  0  0  0  0  0  0  0  0  0  0
    3.1736    0.6316   -0.8905 H   0  0  0  0  0  0  0  0  0  0  0  0
    1.4333    0.5527   -1.4848 H   0  0  0  0  0  0  0  0  0  0  0  0
    1.9209    1.5883   -0.0282 H   0  0  0  0  0  0  0  0  0  0  0  0
    2.5641   -1.3585    0.1215 H   0  0  0  0  0  0  0  0  0  0  0  0
    2.2316   -0.1491    1.3704 H   0  0  0  0  0  0  0  0  0  0  0  0
    0.4091   -1.8516    1.0553 H   0  0  0  0  0  0  0  0  0  0  0  0
    0.2040   -1.3263   -0.6240 H   0  0  0  0  0  0  0  0  0  0  0  0
   -0.0416    0.7608    1.6551 H   0  0  0  0  0  0  0  0  0  0  0  0
   -2.3342   -0.4377    1.7942 H   0  0  0  0  0  0  0  0  0  0  0  0
   -2.9523   -1.5034   -0.6035 H   0  0  0  0  0  0  0  0  0  0  0  0
   -1.5206    0.1544   -2.3132 H   0  0  0  0  0  0  0  0  0  0  0  0
   -0.3838    1.8671   -0.6318 H   0  0  0  0  0  0  0  0  0  0  0  0
  1  2  1  0
  2  3  1  0
  3  4  1  0
  4  5  1  0
  5  6  1  0
  6  7  2  0
  7  8  1  0
  8  9  1  0
  8  4  1  0
  9  5  1  0
  1 10  1  0
  1 11  1  0
  1 12  1  0
  2 13  1  0
  2 14  1  0
  3 15  1  0
  3 16  1  0
  4 17  1  0
  5 18  1  0
  6 19  1  0
  7 20  1  0
  8 21  1  0
M  END
