
     RDKit          3D

 22 22  0  0  0  0  0  0  0  0999 V2000
   -3.3403    0.6329    0.0304 C   0  0  0  0  0  0  0  0  0  0  0  0
   -2.0147    0.4137   -0.6563 C   0  0  0  0  0  0  0  0  0  0  0  0
   -1.1088   -0.4949    0.1661 C   0  0  0  0  0  0  0  0  0  0  0  0
    0.2079   -0.7239   -0.4964 C   0  0  0  0  0  0  0  0  0  0  0  0
    1.1449   -1.6327    0.3014 C   0  0  0  0  0  0  0  0  0  0  0  0
    1.4690   -0.1648    0.0137 C   0  0  0  0  0  0  0  0  0  0  0  0
    2.5228   -0.0028   -0.8527 O   0  0  0  0  0  0  0  0  0  0  0  0
    3.4090    0.9894   -0.4931 C   0  0  0  0  0  0  0  0  0  0  0  0
   -3.2165    0.9671    1.0820 H   0  0  0  0  0  0  0  0  0  0  0  0
   -3.9284   -0.3104    0.0697 H   0  0  0  0  0  0  0  0  0  0  0  0
   -3.8935    1.4020   -0.5192 H   0  0  0  0  0  0  0  0  0  0  0  0
   -2.2220   -0.0057   -1.6460 H   0  0  0  0  0  0  0  0  0  0  0  0
   -1.5133    1.3967   -0.7434 H   0  0  0  0  0  0  0  0  0  0  0  0
   -1.6635   -1.4637    0.2629 H   0  0  0  0  0  0  0  0  0  0  0  0
   -1.0263   -0.1014    1.2002 H   0  0  0  0  0  0  0  0  0  0  0  0
    0.1519   -0.8800   -1.5942 H   0  0  0  0  0  0  0  0  0  0  0  0
    1.6531   -2.4125   -0.2854 H   0  0  0  0  0  0  0  0  0  0  0  0
    0.8698   -1.9114    1.3257 H   0  0  0  0  0  0  0  0  0  0  0  0
    1.4120    0.5022    0.9196 H   0  0  0  0  0  0  0  0  0  0  0  0
    4.2066    1.0188   -1.2674 H   0  0  0  0  0  0  0  0  0  0  0  0
    3.9281    0.7936    0.4751 H   0  0  0  0  0  0  0  0  0  0  0  0
    2.9521    1.9877   -0.4064 H   0  0  0  0  0  0  0  0  0  0  0  0
  1  2  1  0
  2  3  1  0
  3  4  1  0
  4  5  1  0
  5  6  1  0
  6  7  1  0
  7  8  1  0
  6  4  1  0
  1  9  1  0
  1 10  1  0
  1 11  1  0
  2 12  1  0
  2 13  1  0
  3 14  1  0
  3 15  1  0
  4 16  1  0
  5 17  1  0
  5 18  1  0
  6 19  1  0
  8 20  1  0
  8 21  1  0
  8 22  1  0
M  END
