
     RDKit          3D

 21 20  0  0  0  0  0  0  0  0999 V2000
   -3.2342    0.0935    1.6596 C   0  0  0  0  0  0  0  0  0  0  0  0
   -1.7509    0.0635    1.8676 C   0  0  0  0  0  0  0  0  0  0  0  0
   -0.9885    0.1447    0.5543 C   0  0  0  0  0  0  0  0  0  0  0  0
    0.4998    0.1501    0.8805 C   0  0  0  0  0  0  0  0  0  0  0  0
    0.8688    1.2717    1.6475 O   0  0  0  0  0  0  0  0  0  0  0  0
    1.2634   -0.1645   -0.1512 C   0  0  0  0  0  0  0  0  0  0  0  0
    2.0341   -0.5053   -1.1899 C   0  0  0  0  0  0  0  0  0  0  0  0
    2.8868   -0.8764   -2.3580 C   0  0  0  0  0  0  0  0  0  0  0  0
    2.4578   -0.1016   -3.4381 O   0  0  0  0  0  0  0  0  0  0  0  0
   -3.6523   -0.8970    1.4984 H   0  0  0  0  0  0  0  0  0  0  0  0
   -3.4771    0.7344    0.7617 H   0  0  0  0  0  0  0  0  0  0  0  0
   -3.7340    0.5435    2.5713 H   0  0  0  0  0  0  0  0  0  0  0  0
   -1.4219    0.9314    2.4615 H   0  0  0  0  0  0  0  0  0  0  0  0
   -1.4436   -0.8402    2.4248 H   0  0  0  0  0  0  0  0  0  0  0  0
   -1.2430   -0.6162   -0.1670 H   0  0  0  0  0  0  0  0  0  0  0  0
   -1.1895    1.1480    0.0822 H   0  0  0  0  0  0  0  0  0  0  0  0
    0.5385   -0.6927    1.7334 H   0  0  0  0  0  0  0  0  0  0  0  0
    1.8593    1.2160    1.7400 H   0  0  0  0  0  0  0  0  0  0  0  0
    2.8790   -1.9360   -2.4708 H   0  0  0  0  0  0  0  0  0  0  0  0
    3.9398   -0.4781   -2.1180 H   0  0  0  0  0  0  0  0  0  0  0  0
    2.9078    0.8114   -3.3323 H   0  0  0  0  0  0  0  0  0  0  0  0
  1  2  1  0
  2  3  1  0
  3  4  1  0
  4  5  1  0
  4  6  1  0
  6  7  3  0
  7  8  1  0
  8  9  1  0
  1 10  1  0
  1 11  1  0
  1 12  1  0
  2 13  1  0
  2 14  1  0
  3 15  1  0
  3 16  1  0
  4 17  1  0
  5 18  1  0
  8 19  1  0
  8 20  1  0
  9 21  1  0
M  END
