
     RDKit          3D

 22 22  0  0  0  0  0  0  0  0999 V2000
    3.0858   -0.1240   -0.4834 C   0  0  0  0  0  0  0  0  0  0  0  0
    1.7691   -0.5494    0.1538 C   0  0  0  0  0  0  0  0  0  0  0  0
    0.7320    0.4919   -0.2254 C   0  0  0  0  0  0  0  0  0  0  0  0
   -0.5858    0.0963    0.3931 C   0  0  0  0  0  0  0  0  0  0  0  0
   -1.6343    1.1503    0.0090 C   0  0  0  0  0  0  0  0  0  0  0  0
   -2.8766    0.2511   -0.0240 C   0  0  0  0  0  0  0  0  0  0  0  0
   -2.3823   -0.8191   -0.7729 O   0  0  0  0  0  0  0  0  0  0  0  0
   -1.1688   -1.1378   -0.2203 C   0  0  0  0  0  0  0  0  0  0  0  0
    2.9950   -0.3070   -1.5734 H   0  0  0  0  0  0  0  0  0  0  0  0
    3.2462    0.9700   -0.3186 H   0  0  0  0  0  0  0  0  0  0  0  0
    3.9432   -0.7122   -0.0744 H   0  0  0  0  0  0  0  0  0  0  0  0
    1.8516   -0.5061    1.2702 H   0  0  0  0  0  0  0  0  0  0  0  0
    1.5073   -1.5565   -0.1999 H   0  0  0  0  0  0  0  0  0  0  0  0
    1.0522    1.4492    0.2297 H   0  0  0  0  0  0  0  0  0  0  0  0
    0.6463    0.6468   -1.3026 H   0  0  0  0  0  0  0  0  0  0  0  0
   -0.5296    0.0886    1.4839 H   0  0  0  0  0  0  0  0  0  0  0  0
   -1.7165    1.9426    0.7494 H   0  0  0  0  0  0  0  0  0  0  0  0
   -1.3700    1.4746   -1.0087 H   0  0  0  0  0  0  0  0  0  0  0  0
   -3.7327    0.7390   -0.4863 H   0  0  0  0  0  0  0  0  0  0  0  0
   -3.0605   -0.1047    1.0112 H   0  0  0  0  0  0  0  0  0  0  0  0
   -1.2665   -1.9559    0.5473 H   0  0  0  0  0  0  0  0  0  0  0  0
   -0.5053   -1.5277   -1.0363 H   0  0  0  0  0  0  0  0  0  0  0  0
  1  2  1  0
  2  3  1  0
  3  4  1  0
  4  5  1  0
  5  6  1  0
  6  7  1  0
  7  8  1  0
  8  4  1  0
  1  9  1  0
  1 10  1  0
  1 11  1  0
  2 12  1  0
  2 13  1  0
  3 14  1  0
  3 15  1  0
  4 16  1  0
  5 17  1  0
  5 18  1  0
  6 19  1  0
  6 20  1  0
  8 21  1  0
  8 22  1  0
M  END
