
     RDKit          3D

 21 21  0  0  0  0  0  0  0  0999 V2000
   -2.5566    0.6713   -0.5321 C   0  0  0  0  0  0  0  0  0  0  0  0
   -1.3885   -0.1669   -0.1530 C   0  0  0  0  0  0  0  0  0  0  0  0
   -0.3541    0.6843    0.6162 C   0  0  0  0  0  0  0  0  0  0  0  0
    0.8470   -0.2608    0.9038 C   0  0  0  0  0  0  0  0  0  0  0  0
    0.5603   -1.4122    1.7722 C   0  0  0  0  0  0  0  0  0  0  0  0
    0.7593   -2.5933    1.5126 O   0  0  0  0  0  0  0  0  0  0  0  0
    2.0868    0.3440    1.0471 O   0  0  0  0  0  0  0  0  0  0  0  0
    1.7935   -0.4696   -0.1547 C   0  0  0  0  0  0  0  0  0  0  0  0
    1.8929    0.3694   -1.3685 C   0  0  0  0  0  0  0  0  0  0  0  0
   -2.2092    1.6802   -0.8968 H   0  0  0  0  0  0  0  0  0  0  0  0
   -3.0325    0.2169   -1.4356 H   0  0  0  0  0  0  0  0  0  0  0  0
   -3.2351    0.8173    0.2863 H   0  0  0  0  0  0  0  0  0  0  0  0
   -0.7972   -0.4494   -1.0978 H   0  0  0  0  0  0  0  0  0  0  0  0
   -1.6657   -1.1081    0.3080 H   0  0  0  0  0  0  0  0  0  0  0  0
   -0.1372    1.6133    0.1676 H   0  0  0  0  0  0  0  0  0  0  0  0
   -0.8881    0.7920    1.6179 H   0  0  0  0  0  0  0  0  0  0  0  0
    0.1276   -1.1459    2.7698 H   0  0  0  0  0  0  0  0  0  0  0  0
    2.3740   -1.3768   -0.1919 H   0  0  0  0  0  0  0  0  0  0  0  0
    1.8767   -0.2489   -2.3194 H   0  0  0  0  0  0  0  0  0  0  0  0
    2.8531    0.9081   -1.3919 H   0  0  0  0  0  0  0  0  0  0  0  0
    1.0928    1.1352   -1.4597 H   0  0  0  0  0  0  0  0  0  0  0  0
  1  2  1  0
  2  3  1  0
  3  4  1  0
  4  5  1  0
  5  6  2  0
  4  7  1  0
  7  8  1  0
  8  9  1  0
  8  4  1  0
  1 10  1  0
  1 11  1  0
  1 12  1  0
  2 13  1  0
  2 14  1  0
  3 15  1  0
  3 16  1  0
  5 17  1  0
  8 18  1  0
  9 19  1  0
  9 20  1  0
  9 21  1  0
M  END
