
     RDKit          3D

 25 25  0  0  0  0  0  0  0  0999 V2000
    2.7747   -0.0205    0.8360 C   0  0  0  0  0  0  0  0  0  0  0  0
    2.2028   -0.6301   -0.3989 C   0  0  0  0  0  0  0  0  0  0  0  0
    1.0765    0.1593   -0.9991 C   0  0  0  0  0  0  0  0  0  0  0  0
   -0.0895    0.3219   -0.0553 C   0  0  0  0  0  0  0  0  0  0  0  0
   -1.1411    1.1425   -0.8150 C   0  0  0  0  0  0  0  0  0  0  0  0
   -2.5205    0.8704   -0.3160 C   0  0  0  0  0  0  0  0  0  0  0  0
   -2.5943    0.4104    0.9708 O   0  0  0  0  0  0  0  0  0  0  0  0
   -1.8534   -0.6993    1.2506 C   0  0  0  0  0  0  0  0  0  0  0  0
   -0.7674   -0.9926    0.2441 C   0  0  0  0  0  0  0  0  0  0  0  0
    3.8772   -0.2538    0.8706 H   0  0  0  0  0  0  0  0  0  0  0  0
    2.7339    1.1036    0.8077 H   0  0  0  0  0  0  0  0  0  0  0  0
    2.3446   -0.4224    1.7740 H   0  0  0  0  0  0  0  0  0  0  0  0
    3.0058   -0.6905   -1.1625 H   0  0  0  0  0  0  0  0  0  0  0  0
    1.9004   -1.6721   -0.1860 H   0  0  0  0  0  0  0  0  0  0  0  0
    1.4167    1.1269   -1.3658 H   0  0  0  0  0  0  0  0  0  0  0  0
    0.6934   -0.4310   -1.8698 H   0  0  0  0  0  0  0  0  0  0  0  0
    0.2010    0.8419    0.8864 H   0  0  0  0  0  0  0  0  0  0  0  0
   -1.0996    0.8142   -1.8830 H   0  0  0  0  0  0  0  0  0  0  0  0
   -0.8545    2.2097   -0.7920 H   0  0  0  0  0  0  0  0  0  0  0  0
   -3.0790    1.8483   -0.3473 H   0  0  0  0  0  0  0  0  0  0  0  0
   -3.0958    0.2025   -1.0061 H   0  0  0  0  0  0  0  0  0  0  0  0
   -2.4503   -1.6317    1.3853 H   0  0  0  0  0  0  0  0  0  0  0  0
   -1.3187   -0.5049    2.2270 H   0  0  0  0  0  0  0  0  0  0  0  0
   -0.0989   -1.7590    0.6286 H   0  0  0  0  0  0  0  0  0  0  0  0
   -1.2641   -1.3439   -0.6841 H   0  0  0  0  0  0  0  0  0  0  0  0
  1  2  1  0
  2  3  1  0
  3  4  1  0
  4  5  1  0
  5  6  1  0
  6  7  1  0
  7  8  1  0
  8  9  1  0
  9  4  1  0
  1 10  1  0
  1 11  1  0
  1 12  1  0
  2 13  1  0
  2 14  1  0
  3 15  1  0
  3 16  1  0
  4 17  1  0
  5 18  1  0
  5 19  1  0
  6 20  1  0
  6 21  1  0
  8 22  1  0
  8 23  1  0
  9 24  1  0
  9 25  1  0
M  END
