
     RDKit          3D

 23 23  0  0  0  0  0  0  0  0999 V2000
    2.8305    0.0903    0.4158 C   0  0  0  0  0  0  0  0  0  0  0  0
    2.0703   -0.2605   -0.8414 C   0  0  0  0  0  0  0  0  0  0  0  0
    0.8079   -1.0459   -0.4922 C   0  0  0  0  0  0  0  0  0  0  0  0
   -0.0233   -0.1444    0.4025 C   0  0  0  0  0  0  0  0  0  0  0  0
   -0.3088    1.0749   -0.4107 O   0  0  0  0  0  0  0  0  0  0  0  0
   -1.3515    0.2505   -0.0405 C   0  0  0  0  0  0  0  0  0  0  0  0
   -1.9977   -0.6547   -1.0750 C   0  0  0  0  0  0  0  0  0  0  0  0
   -2.2827    0.8890    0.9681 C   0  0  0  0  0  0  0  0  0  0  0  0
   -1.6507    1.2365    2.1369 O   0  0  0  0  0  0  0  0  0  0  0  0
    2.5779    1.1250    0.7022 H   0  0  0  0  0  0  0  0  0  0  0  0
    3.9164   -0.0796    0.2726 H   0  0  0  0  0  0  0  0  0  0  0  0
    2.4266   -0.5619    1.2403 H   0  0  0  0  0  0  0  0  0  0  0  0
    2.7239   -0.8526   -1.5267 H   0  0  0  0  0  0  0  0  0  0  0  0
    1.8371    0.6769   -1.3795 H   0  0  0  0  0  0  0  0  0  0  0  0
    0.2725   -1.2083   -1.4461 H   0  0  0  0  0  0  0  0  0  0  0  0
    1.1018   -1.9719    0.0002 H   0  0  0  0  0  0  0  0  0  0  0  0
    0.3976    0.1099    1.3887 H   0  0  0  0  0  0  0  0  0  0  0  0
   -1.5807   -0.4832   -2.0779 H   0  0  0  0  0  0  0  0  0  0  0  0
   -1.6963   -1.7028   -0.7827 H   0  0  0  0  0  0  0  0  0  0  0  0
   -3.0873   -0.6327   -1.0536 H   0  0  0  0  0  0  0  0  0  0  0  0
   -3.1628    0.2400    1.1112 H   0  0  0  0  0  0  0  0  0  0  0  0
   -2.6610    1.8304    0.4975 H   0  0  0  0  0  0  0  0  0  0  0  0
   -1.1595    2.0754    1.9902 H   0  0  0  0  0  0  0  0  0  0  0  0
  1  2  1  0
  2  3  1  0
  3  4  1  0
  4  5  1  0
  5  6  1  0
  6  7  1  0
  6  8  1  0
  8  9  1  0
  6  4  1  0
  1 10  1  0
  1 11  1  0
  1 12  1  0
  2 13  1  0
  2 14  1  0
  3 15  1  0
  3 16  1  0
  4 17  1  0
  7 18  1  0
  7 19  1  0
  7 20  1  0
  8 21  1  0
  8 22  1  0
  9 23  1  0
M  END
