
     RDKit          3D

 18 18  0  0  0  0  0  0  0  0999 V2000
    2.4455    0.3614    0.0312 C   0  0  0  0  0  0  0  0  0  0  0  0
    0.9683    0.3244    0.4228 C   0  0  0  0  0  0  0  0  0  0  0  0
    0.3132   -0.5813   -0.5757 C   0  0  0  0  0  0  0  0  0  0  0  0
   -1.1514   -0.7648   -0.3812 C   0  0  0  0  0  0  0  0  0  0  0  0
   -1.9614    0.5473   -0.4674 C   0  0  0  0  0  0  0  0  0  0  0  0
   -1.8869   -0.2672    0.7891 C   0  0  0  0  0  0  0  0  0  0  0  0
    2.6278    1.0561   -0.8070 H   0  0  0  0  0  0  0  0  0  0  0  0
    3.0933    0.6431    0.8611 H   0  0  0  0  0  0  0  0  0  0  0  0
    2.7273   -0.6809   -0.2675 H   0  0  0  0  0  0  0  0  0  0  0  0
    0.6040    1.3714    0.3749 H   0  0  0  0  0  0  0  0  0  0  0  0
    0.9512   -0.0902    1.4577 H   0  0  0  0  0  0  0  0  0  0  0  0
    0.8416   -1.5566   -0.5256 H   0  0  0  0  0  0  0  0  0  0  0  0
    0.5378   -0.1690   -1.5893 H   0  0  0  0  0  0  0  0  0  0  0  0
   -1.5884   -1.6118   -0.9483 H   0  0  0  0  0  0  0  0  0  0  0  0
   -2.8734    0.5371   -1.0965 H   0  0  0  0  0  0  0  0  0  0  0  0
   -1.4204    1.4926   -0.4591 H   0  0  0  0  0  0  0  0  0  0  0  0
   -1.3857    0.1652    1.6748 H   0  0  0  0  0  0  0  0  0  0  0  0
   -2.8424   -0.7767    1.0558 H   0  0  0  0  0  0  0  0  0  0  0  0
  1  2  1  0
  2  3  1  0
  3  4  1  0
  4  5  1  0
  5  6  1  0
  6  4  1  0
  1  7  1  0
  1  8  1  0
  1  9  1  0
  2 10  1  0
  2 11  1  0
  3 12  1  0
  3 13  1  0
  4 14  1  0
  5 15  1  0
  5 16  1  0
  6 17  1  0
  6 18  1  0
M  END
