
     RDKit          3D

 27 26  0  0  0  0  0  0  0  0999 V2000
   -3.0396   -0.4138    0.5719 C   0  0  0  0  0  0  0  0  0  0  0  0
   -2.0545   -1.4904    0.1812 C   0  0  0  0  0  0  0  0  0  0  0  0
   -0.8504   -0.8836   -0.5042 C   0  0  0  0  0  0  0  0  0  0  0  0
   -0.1492    0.0890    0.4071 C   0  0  0  0  0  0  0  0  0  0  0  0
    1.0647    0.7112   -0.2553 C   0  0  0  0  0  0  0  0  0  0  0  0
    1.6525    1.6521    0.7508 C   0  0  0  0  0  0  0  0  0  0  0  0
    0.6554    1.5155   -1.4739 C   0  0  0  0  0  0  0  0  0  0  0  0
    1.8793   -0.2946   -0.6773 O   0  0  0  0  0  0  0  0  0  0  0  0
    2.3896   -1.1464    0.2247 C   0  0  0  0  0  0  0  0  0  0  0  0
   -4.0888   -0.6857    0.3540 H   0  0  0  0  0  0  0  0  0  0  0  0
   -2.7988    0.4844   -0.0683 H   0  0  0  0  0  0  0  0  0  0  0  0
   -2.9620   -0.1562    1.6427 H   0  0  0  0  0  0  0  0  0  0  0  0
   -2.5608   -2.1901   -0.4968 H   0  0  0  0  0  0  0  0  0  0  0  0
   -1.7583   -2.0846    1.0798 H   0  0  0  0  0  0  0  0  0  0  0  0
   -1.2406   -0.3793   -1.4184 H   0  0  0  0  0  0  0  0  0  0  0  0
   -0.1860   -1.7156   -0.8037 H   0  0  0  0  0  0  0  0  0  0  0  0
    0.2243   -0.4640    1.2939 H   0  0  0  0  0  0  0  0  0  0  0  0
   -0.8582    0.8490    0.7843 H   0  0  0  0  0  0  0  0  0  0  0  0
    1.7018    1.2066    1.7740 H   0  0  0  0  0  0  0  0  0  0  0  0
    2.5801    2.1316    0.4618 H   0  0  0  0  0  0  0  0  0  0  0  0
    0.9017    2.4906    0.8580 H   0  0  0  0  0  0  0  0  0  0  0  0
   -0.3137    2.0104   -1.2915 H   0  0  0  0  0  0  0  0  0  0  0  0
    1.4556    2.2746   -1.6880 H   0  0  0  0  0  0  0  0  0  0  0  0
    0.6149    0.8550   -2.3689 H   0  0  0  0  0  0  0  0  0  0  0  0
    3.0251   -0.7093    1.0161 H   0  0  0  0  0  0  0  0  0  0  0  0
    3.0723   -1.8579   -0.3290 H   0  0  0  0  0  0  0  0  0  0  0  0
    1.6436   -1.7986    0.7141 H   0  0  0  0  0  0  0  0  0  0  0  0
  1  2  1  0
  2  3  1  0
  3  4  1  0
  4  5  1  0
  5  6  1  0
  5  7  1  0
  5  8  1  0
  8  9  1  0
  1 10  1  0
  1 11  1  0
  1 12  1  0
  2 13  1  0
  2 14  1  0
  3 15  1  0
  3 16  1  0
  4 17  1  0
  4 18  1  0
  6 19  1  0
  6 20  1  0
  6 21  1  0
  7 22  1  0
  7 23  1  0
  7 24  1  0
  9 25  1  0
  9 26  1  0
  9 27  1  0
M  END
