
     RDKit          3D

 22 22  0  0  0  0  0  0  0  0999 V2000
   -3.1548    0.0419    0.2372 C   0  0  0  0  0  0  0  0  0  0  0  0
   -1.8322   -0.3952   -0.3174 C   0  0  0  0  0  0  0  0  0  0  0  0
   -0.7811    0.6807   -0.1479 C   0  0  0  0  0  0  0  0  0  0  0  0
    0.5486    0.2662   -0.6948 C   0  0  0  0  0  0  0  0  0  0  0  0
    1.0964   -0.9722   -0.0208 C   0  0  0  0  0  0  0  0  0  0  0  0
    2.5724   -0.5691    0.1130 C   0  0  0  0  0  0  0  0  0  0  0  0
    2.3905    0.8986    0.4079 C   0  0  0  0  0  0  0  0  0  0  0  0
    1.4598    1.2767   -0.5270 O   0  0  0  0  0  0  0  0  0  0  0  0
   -3.6356    0.8269   -0.3832 H   0  0  0  0  0  0  0  0  0  0  0  0
   -3.0555    0.4391    1.2690 H   0  0  0  0  0  0  0  0  0  0  0  0
   -3.8426   -0.8301    0.2571 H   0  0  0  0  0  0  0  0  0  0  0  0
   -1.9310   -0.6145   -1.3918 H   0  0  0  0  0  0  0  0  0  0  0  0
   -1.5437   -1.3487    0.1854 H   0  0  0  0  0  0  0  0  0  0  0  0
   -1.1226    1.5623   -0.7125 H   0  0  0  0  0  0  0  0  0  0  0  0
   -0.7512    0.9599    0.9136 H   0  0  0  0  0  0  0  0  0  0  0  0
    0.3879    0.0111   -1.7806 H   0  0  0  0  0  0  0  0  0  0  0  0
    1.0340   -1.8718   -0.6261 H   0  0  0  0  0  0  0  0  0  0  0  0
    0.7020   -1.0706    1.0041 H   0  0  0  0  0  0  0  0  0  0  0  0
    3.0850   -1.1261    0.8942 H   0  0  0  0  0  0  0  0  0  0  0  0
    3.0481   -0.6425   -0.8868 H   0  0  0  0  0  0  0  0  0  0  0  0
    2.0035    0.9973    1.4379 H   0  0  0  0  0  0  0  0  0  0  0  0
    3.3222    1.4801    0.2455 H   0  0  0  0  0  0  0  0  0  0  0  0
  1  2  1  0
  2  3  1  0
  3  4  1  0
  4  5  1  0
  5  6  1  0
  6  7  1  0
  7  8  1  0
  8  4  1  0
  1  9  1  0
  1 10  1  0
  1 11  1  0
  2 12  1  0
  2 13  1  0
  3 14  1  0
  3 15  1  0
  4 16  1  0
  5 17  1  0
  5 18  1  0
  6 19  1  0
  6 20  1  0
  7 21  1  0
  7 22  1  0
M  END
