
     RDKit          3D

 24 24  0  0  0  0  0  0  0  0999 V2000
   -3.0830   -0.1320    0.4158 C   0  0  0  0  0  0  0  0  0  0  0  0
   -2.1776   -1.2605    0.0004 C   0  0  0  0  0  0  0  0  0  0  0  0
   -1.0510   -0.7570   -0.8832 C   0  0  0  0  0  0  0  0  0  0  0  0
   -0.2021    0.2698   -0.1736 C   0  0  0  0  0  0  0  0  0  0  0  0
    0.8862    0.7280   -1.0875 C   0  0  0  0  0  0  0  0  0  0  0  0
    1.8222    1.7778   -0.4796 C   0  0  0  0  0  0  0  0  0  0  0  0
    2.3026    0.3758   -0.8809 C   0  0  0  0  0  0  0  0  0  0  0  0
    2.7457   -0.4910    0.2677 C   0  0  0  0  0  0  0  0  0  0  0  0
   -3.9503   -0.5873    0.9390 H   0  0  0  0  0  0  0  0  0  0  0  0
   -2.5769    0.6289    1.0339 H   0  0  0  0  0  0  0  0  0  0  0  0
   -3.4628    0.3555   -0.5228 H   0  0  0  0  0  0  0  0  0  0  0  0
   -1.8254   -1.8636    0.8386 H   0  0  0  0  0  0  0  0  0  0  0  0
   -2.7942   -1.9400   -0.6429 H   0  0  0  0  0  0  0  0  0  0  0  0
   -1.5245   -0.2739   -1.7692 H   0  0  0  0  0  0  0  0  0  0  0  0
   -0.4083   -1.6051   -1.1700 H   0  0  0  0  0  0  0  0  0  0  0  0
   -0.8681    1.1521    0.0499 H   0  0  0  0  0  0  0  0  0  0  0  0
    0.1331   -0.1184    0.7917 H   0  0  0  0  0  0  0  0  0  0  0  0
    0.5555    0.9809   -2.1077 H   0  0  0  0  0  0  0  0  0  0  0  0
    2.1555    2.6148   -1.1297 H   0  0  0  0  0  0  0  0  0  0  0  0
    1.7259    2.0071    0.5953 H   0  0  0  0  0  0  0  0  0  0  0  0
    2.9381    0.3158   -1.7815 H   0  0  0  0  0  0  0  0  0  0  0  0
    2.0564   -1.3532    0.4198 H   0  0  0  0  0  0  0  0  0  0  0  0
    2.8552    0.1032    1.2115 H   0  0  0  0  0  0  0  0  0  0  0  0
    3.7479   -0.9278    0.0746 H   0  0  0  0  0  0  0  0  0  0  0  0
  1  2  1  0
  2  3  1  0
  3  4  1  0
  4  5  1  0
  5  6  1  0
  6  7  1  0
  7  8  1  0
  7  5  1  0
  1  9  1  0
  1 10  1  0
  1 11  1  0
  2 12  1  0
  2 13  1  0
  3 14  1  0
  3 15  1  0
  4 16  1  0
  4 17  1  0
  5 18  1  0
  6 19  1  0
  6 20  1  0
  7 21  1  0
  8 22  1  0
  8 23  1  0
  8 24  1  0
M  END
