
     RDKit          3D

 21 22  0  0  0  0  0  0  0  0999 V2000
    2.0194    0.8867    0.2714 C   0  0  0  0  0  0  0  0  0  0  0  0
    1.8105   -0.5899    0.0898 C   0  0  0  0  0  0  0  0  0  0  0  0
    0.7659   -0.9553   -0.8872 C   0  0  0  0  0  0  0  0  0  0  0  0
   -0.6257   -0.5499   -0.6534 C   0  0  0  0  0  0  0  0  0  0  0  0
   -1.5078   -0.9784   -1.6676 O   0  0  0  0  0  0  0  0  0  0  0  0
   -1.7655   -1.1918   -0.3230 C   0  0  0  0  0  0  0  0  0  0  0  0
   -2.3061   -0.0023    0.4313 C   0  0  0  0  0  0  0  0  0  0  0  0
   -1.0044    0.7177    0.0714 C   0  0  0  0  0  0  0  0  0  0  0  0
   -1.1982    1.7618   -0.8334 O   0  0  0  0  0  0  0  0  0  0  0  0
    1.8797    1.1845    1.3363 H   0  0  0  0  0  0  0  0  0  0  0  0
    3.1133    1.1613    0.0824 H   0  0  0  0  0  0  0  0  0  0  0  0
    1.4372    1.5151   -0.4225 H   0  0  0  0  0  0  0  0  0  0  0  0
    2.7894   -1.0109   -0.3030 H   0  0  0  0  0  0  0  0  0  0  0  0
    1.6546   -1.0307    1.1052 H   0  0  0  0  0  0  0  0  0  0  0  0
    1.0717   -0.4659   -1.8691 H   0  0  0  0  0  0  0  0  0  0  0  0
    0.7710   -2.0421   -1.1577 H   0  0  0  0  0  0  0  0  0  0  0  0
   -2.0393   -2.2063    0.0015 H   0  0  0  0  0  0  0  0  0  0  0  0
   -3.1464    0.4882   -0.0554 H   0  0  0  0  0  0  0  0  0  0  0  0
   -2.4202   -0.2031    1.5154 H   0  0  0  0  0  0  0  0  0  0  0  0
   -0.4251    0.9038    0.9624 H   0  0  0  0  0  0  0  0  0  0  0  0
   -0.8742    2.6075   -0.3914 H   0  0  0  0  0  0  0  0  0  0  0  0
  1  2  1  0
  2  3  1  0
  3  4  1  0
  4  5  1  0
  5  6  1  0
  6  7  1  0
  7  8  1  0
  8  9  1  0
  6  4  1  0
  8  4  1  0
  1 10  1  0
  1 11  1  0
  1 12  1  0
  2 13  1  0
  2 14  1  0
  3 15  1  0
  3 16  1  0
  6 17  1  0
  7 18  1  0
  7 19  1  0
  8 20  1  0
  9 21  1  0
M  END
