
     RDKit          3D

 23 23  0  0  0  0  0  0  0  0999 V2000
    3.0573   -0.5604   -0.6589 C   0  0  0  0  0  0  0  0  0  0  0  0
    1.8937    0.0151    0.1339 C   0  0  0  0  0  0  0  0  0  0  0  0
    0.5723   -0.4878   -0.3604 C   0  0  0  0  0  0  0  0  0  0  0  0
   -0.5326    0.1316    0.4682 C   0  0  0  0  0  0  0  0  0  0  0  0
   -1.9634   -0.2424    0.1346 C   0  0  0  0  0  0  0  0  0  0  0  0
   -2.5483    0.6669   -0.9176 C   0  0  0  0  0  0  0  0  0  0  0  0
   -1.9672   -1.5807   -0.2774 O   0  0  0  0  0  0  0  0  0  0  0  0
   -0.2976    0.4990    1.9031 C   0  0  0  0  0  0  0  0  0  0  0  0
   -0.3051    1.4412    0.9046 O   0  0  0  0  0  0  0  0  0  0  0  0
    3.9699   -0.5107   -0.0204 H   0  0  0  0  0  0  0  0  0  0  0  0
    2.8264   -1.5818   -0.9575 H   0  0  0  0  0  0  0  0  0  0  0  0
    3.2463    0.1278   -1.5119 H   0  0  0  0  0  0  0  0  0  0  0  0
    2.0662   -0.3513    1.1796 H   0  0  0  0  0  0  0  0  0  0  0  0
    1.8901    1.1216    0.1382 H   0  0  0  0  0  0  0  0  0  0  0  0
    0.4835   -1.5905   -0.2437 H   0  0  0  0  0  0  0  0  0  0  0  0
    0.4031   -0.1667   -1.4049 H   0  0  0  0  0  0  0  0  0  0  0  0
   -2.5524   -0.2135    1.0683 H   0  0  0  0  0  0  0  0  0  0  0  0
   -2.7523    0.0403   -1.8098 H   0  0  0  0  0  0  0  0  0  0  0  0
   -3.5235    1.0323   -0.5340 H   0  0  0  0  0  0  0  0  0  0  0  0
   -1.8977    1.5354   -1.1516 H   0  0  0  0  0  0  0  0  0  0  0  0
   -1.4942   -1.7183   -1.1268 H   0  0  0  0  0  0  0  0  0  0  0  0
    0.6136    0.2519    2.4427 H   0  0  0  0  0  0  0  0  0  0  0  0
   -1.1880    0.4917    2.6017 H   0  0  0  0  0  0  0  0  0  0  0  0
  1  2  1  0
  2  3  1  0
  3  4  1  0
  4  5  1  0
  5  6  1  0
  5  7  1  0
  4  8  1  0
  8  9  1  0
  9  4  1  0
  1 10  1  0
  1 11  1  0
  1 12  1  0
  2 13  1  0
  2 14  1  0
  3 15  1  0
  3 16  1  0
  5 17  1  0
  6 18  1  0
  6 19  1  0
  6 20  1  0
  7 21  1  0
  8 22  1  0
  8 23  1  0
M  END
