
     RDKit          3D

 23 23  0  0  0  0  0  0  0  0999 V2000
    2.7101    0.2054   -0.1865 C   0  0  0  0  0  0  0  0  0  0  0  0
    1.8556   -0.9981   -0.4897 C   0  0  0  0  0  0  0  0  0  0  0  0
    0.7617   -1.1660    0.5165 C   0  0  0  0  0  0  0  0  0  0  0  0
   -0.1659    0.0056    0.5774 C   0  0  0  0  0  0  0  0  0  0  0  0
   -0.8540    0.2614   -0.7599 C   0  0  0  0  0  0  0  0  0  0  0  0
   -1.9611    1.1983   -0.3218 C   0  0  0  0  0  0  0  0  0  0  0  0
   -2.4079    0.6336    1.0325 C   0  0  0  0  0  0  0  0  0  0  0  0
   -1.3414   -0.3251    1.4249 C   0  0  0  0  0  0  0  0  0  0  0  0
   -1.4593   -1.1869    2.2743 O   0  0  0  0  0  0  0  0  0  0  0  0
    2.2750    0.8706    0.5597 H   0  0  0  0  0  0  0  0  0  0  0  0
    3.7249   -0.0764    0.1844 H   0  0  0  0  0  0  0  0  0  0  0  0
    2.8662    0.8355   -1.1109 H   0  0  0  0  0  0  0  0  0  0  0  0
    1.4924   -0.9903   -1.5358 H   0  0  0  0  0  0  0  0  0  0  0  0
    2.5223   -1.8903   -0.4087 H   0  0  0  0  0  0  0  0  0  0  0  0
    0.1598   -2.0576    0.2357 H   0  0  0  0  0  0  0  0  0  0  0  0
    1.2045   -1.3152    1.4995 H   0  0  0  0  0  0  0  0  0  0  0  0
    0.2780    0.9240    0.9734 H   0  0  0  0  0  0  0  0  0  0  0  0
   -1.3241   -0.6897   -1.0752 H   0  0  0  0  0  0  0  0  0  0  0  0
   -0.1796    0.7043   -1.4935 H   0  0  0  0  0  0  0  0  0  0  0  0
   -1.5232    2.1989   -0.1357 H   0  0  0  0  0  0  0  0  0  0  0  0
   -2.8044    1.2329   -1.0222 H   0  0  0  0  0  0  0  0  0  0  0  0
   -2.4358    1.4538    1.7888 H   0  0  0  0  0  0  0  0  0  0  0  0
   -3.3938    0.1712    0.9141 H   0  0  0  0  0  0  0  0  0  0  0  0
  1  2  1  0
  2  3  1  0
  3  4  1  0
  4  5  1  0
  5  6  1  0
  6  7  1  0
  7  8  1  0
  8  9  2  0
  8  4  1  0
  1 10  1  0
  1 11  1  0
  1 12  1  0
  2 13  1  0
  2 14  1  0
  3 15  1  0
  3 16  1  0
  4 17  1  0
  5 18  1  0
  5 19  1  0
  6 20  1  0
  6 21  1  0
  7 22  1  0
  7 23  1  0
M  END
