
     RDKit          3D

 23 24  0  0  0  0  0  0  0  0999 V2000
    2.5504    0.3794    0.8388 C   0  0  0  0  0  0  0  0  0  0  0  0
    1.9126   -0.9199    0.4271 C   0  0  0  0  0  0  0  0  0  0  0  0
    0.9291   -0.7512   -0.7020 C   0  0  0  0  0  0  0  0  0  0  0  0
   -0.1438    0.1859   -0.2413 C   0  0  0  0  0  0  0  0  0  0  0  0
   -1.2001    0.4230   -1.3286 C   0  0  0  0  0  0  0  0  0  0  0  0
   -2.4842    0.6787   -0.5156 C   0  0  0  0  0  0  0  0  0  0  0  0
   -1.9205    0.9300    0.8315 C   0  0  0  0  0  0  0  0  0  0  0  0
   -1.6311    0.1721    1.8544 O   0  0  0  0  0  0  0  0  0  0  0  0
   -1.0242   -0.3512    0.8247 C   0  0  0  0  0  0  0  0  0  0  0  0
    2.7647    1.0522    0.0075 H   0  0  0  0  0  0  0  0  0  0  0  0
    3.4711    0.1339    1.4078 H   0  0  0  0  0  0  0  0  0  0  0  0
    1.8854    0.9072    1.5775 H   0  0  0  0  0  0  0  0  0  0  0  0
    2.7179   -1.6347    0.2002 H   0  0  0  0  0  0  0  0  0  0  0  0
    1.3201   -1.2813    1.3130 H   0  0  0  0  0  0  0  0  0  0  0  0
    0.5169   -1.7572   -0.9310 H   0  0  0  0  0  0  0  0  0  0  0  0
    1.4288   -0.3783   -1.5972 H   0  0  0  0  0  0  0  0  0  0  0  0
    0.2987    1.1471    0.0427 H   0  0  0  0  0  0  0  0  0  0  0  0
   -0.9454    1.2767   -1.9583 H   0  0  0  0  0  0  0  0  0  0  0  0
   -1.3854   -0.5195   -1.9036 H   0  0  0  0  0  0  0  0  0  0  0  0
   -2.9726    1.6146   -0.8707 H   0  0  0  0  0  0  0  0  0  0  0  0
   -3.1844   -0.1524   -0.5874 H   0  0  0  0  0  0  0  0  0  0  0  0
   -1.3613    1.9150    0.8540 H   0  0  0  0  0  0  0  0  0  0  0  0
   -1.5428   -1.2932    0.4566 H   0  0  0  0  0  0  0  0  0  0  0  0
  1  2  1  0
  2  3  1  0
  3  4  1  0
  4  5  1  0
  5  6  1  0
  6  7  1  0
  7  8  1  0
  8  9  1  0
  9  4  1  0
  9  7  1  0
  1 10  1  0
  1 11  1  0
  1 12  1  0
  2 13  1  0
  2 14  1  0
  3 15  1  0
  3 16  1  0
  4 17  1  0
  5 18  1  0
  5 19  1  0
  6 20  1  0
  6 21  1  0
  7 22  1  0
  9 23  1  0
M  END
