
     RDKit          3D

 29 28  0  0  0  0  0  0  0  0999 V2000
    2.9823    0.5583   -0.1973 C   0  0  0  0  0  0  0  0  0  0  0  0
    2.8131   -0.9188   -0.3821 C   0  0  0  0  0  0  0  0  0  0  0  0
    1.6898   -1.5615    0.3242 C   0  0  0  0  0  0  0  0  0  0  0  0
    0.3025   -1.1720    0.0043 C   0  0  0  0  0  0  0  0  0  0  0  0
   -0.0934    0.2356    0.2144 C   0  0  0  0  0  0  0  0  0  0  0  0
   -1.5591    0.4913   -0.1152 C   0  0  0  0  0  0  0  0  0  0  0  0
   -1.8170    1.9616    0.1454 C   0  0  0  0  0  0  0  0  0  0  0  0
   -1.8980    0.1989   -1.5343 C   0  0  0  0  0  0  0  0  0  0  0  0
   -2.4377   -0.3044    0.8101 C   0  0  0  0  0  0  0  0  0  0  0  0
    2.5212    0.9524    0.7260 H   0  0  0  0  0  0  0  0  0  0  0  0
    4.0909    0.8219   -0.0822 H   0  0  0  0  0  0  0  0  0  0  0  0
    2.6938    1.1537   -1.0921 H   0  0  0  0  0  0  0  0  0  0  0  0
    2.8738   -1.2017   -1.4725 H   0  0  0  0  0  0  0  0  0  0  0  0
    3.7587   -1.3888    0.0359 H   0  0  0  0  0  0  0  0  0  0  0  0
    1.8545   -1.3817    1.4413 H   0  0  0  0  0  0  0  0  0  0  0  0
    1.7752   -2.6911    0.2781 H   0  0  0  0  0  0  0  0  0  0  0  0
    0.1132   -1.4402   -1.0803 H   0  0  0  0  0  0  0  0  0  0  0  0
   -0.4168   -1.8332    0.5589 H   0  0  0  0  0  0  0  0  0  0  0  0
    0.4832    0.9797   -0.3915 H   0  0  0  0  0  0  0  0  0  0  0  0
    0.0294    0.5082    1.2766 H   0  0  0  0  0  0  0  0  0  0  0  0
   -2.3717    2.4338   -0.7109 H   0  0  0  0  0  0  0  0  0  0  0  0
   -0.8547    2.5406    0.2082 H   0  0  0  0  0  0  0  0  0  0  0  0
   -2.4403    2.1125    1.0524 H   0  0  0  0  0  0  0  0  0  0  0  0
   -1.0203   -0.1136   -2.1552 H   0  0  0  0  0  0  0  0  0  0  0  0
   -2.7136   -0.5815   -1.5866 H   0  0  0  0  0  0  0  0  0  0  0  0
   -2.3288    1.0832   -2.0618 H   0  0  0  0  0  0  0  0  0  0  0  0
   -2.6089   -1.3379    0.4899 H   0  0  0  0  0  0  0  0  0  0  0  0
   -3.4228    0.2059    0.8511 H   0  0  0  0  0  0  0  0  0  0  0  0
   -1.9983   -0.3111    1.8469 H   0  0  0  0  0  0  0  0  0  0  0  0
  1  2  1  0
  2  3  1  0
  3  4  1  0
  4  5  1  0
  5  6  1  0
  6  7  1  0
  6  8  1  0
  6  9  1  0
  1 10  1  0
  1 11  1  0
  1 12  1  0
  2 13  1  0
  2 14  1  0
  3 15  1  0
  3 16  1  0
  4 17  1  0
  4 18  1  0
  5 19  1  0
  5 20  1  0
  7 21  1  0
  7 22  1  0
  7 23  1  0
  8 24  1  0
  8 25  1  0
  8 26  1  0
  9 27  1  0
  9 28  1  0
  9 29  1  0
M  END
