
     RDKit          3D

 23 23  0  0  0  0  0  0  0  0999 V2000
   -3.4271   -0.6025    0.6213 C   0  0  0  0  0  0  0  0  0  0  0  0
   -1.9507   -0.3881    0.5003 C   0  0  0  0  0  0  0  0  0  0  0  0
   -1.5982    0.6374   -0.5549 C   0  0  0  0  0  0  0  0  0  0  0  0
   -0.1082    0.8392   -0.6613 C   0  0  0  0  0  0  0  0  0  0  0  0
    0.5145   -0.3552   -1.0005 O   0  0  0  0  0  0  0  0  0  0  0  0
    1.8924   -0.2147   -1.1095 C   0  0  0  0  0  0  0  0  0  0  0  0
    2.4144    0.2482    0.2204 C   0  0  0  0  0  0  0  0  0  0  0  0
    3.4926   -0.5274    0.9231 C   0  0  0  0  0  0  0  0  0  0  0  0
    2.1236   -0.6777    1.2603 O   0  0  0  0  0  0  0  0  0  0  0  0
   -3.9518    0.2199    1.1361 H   0  0  0  0  0  0  0  0  0  0  0  0
   -3.5775   -1.5179    1.2455 H   0  0  0  0  0  0  0  0  0  0  0  0
   -3.8984   -0.7249   -0.3858 H   0  0  0  0  0  0  0  0  0  0  0  0
   -1.5543   -0.0266    1.4786 H   0  0  0  0  0  0  0  0  0  0  0  0
   -1.4843   -1.3555    0.2616 H   0  0  0  0  0  0  0  0  0  0  0  0
   -2.1116    1.6010   -0.3776 H   0  0  0  0  0  0  0  0  0  0  0  0
   -1.9747    0.2588   -1.5344 H   0  0  0  0  0  0  0  0  0  0  0  0
    0.0541    1.5817   -1.4796 H   0  0  0  0  0  0  0  0  0  0  0  0
    0.2983    1.2984    0.2570 H   0  0  0  0  0  0  0  0  0  0  0  0
    2.1094    0.4705   -1.9320 H   0  0  0  0  0  0  0  0  0  0  0  0
    2.3433   -1.1932   -1.3646 H   0  0  0  0  0  0  0  0  0  0  0  0
    2.3662    1.3215    0.4677 H   0  0  0  0  0  0  0  0  0  0  0  0
    4.0657   -0.0146    1.6990 H   0  0  0  0  0  0  0  0  0  0  0  0
    3.9623   -1.3356    0.3293 H   0  0  0  0  0  0  0  0  0  0  0  0
  1  2  1  0
  2  3  1  0
  3  4  1  0
  4  5  1  0
  5  6  1  0
  6  7  1  0
  7  8  1  0
  8  9  1  0
  9  7  1  0
  1 10  1  0
  1 11  1  0
  1 12  1  0
  2 13  1  0
  2 14  1  0
  3 15  1  0
  3 16  1  0
  4 17  1  0
  4 18  1  0
  6 19  1  0
  6 20  1  0
  7 21  1  0
  8 22  1  0
  8 23  1  0
M  END
