
     RDKit          3D

 25 25  0  0  0  0  0  0  0  0999 V2000
   -3.5931    0.7824    0.4554 C   0  0  0  0  0  0  0  0  0  0  0  0
   -2.6161   -0.2662   -0.0667 C   0  0  0  0  0  0  0  0  0  0  0  0
   -1.2342    0.2656    0.1763 C   0  0  0  0  0  0  0  0  0  0  0  0
   -0.1446   -0.6612   -0.2878 C   0  0  0  0  0  0  0  0  0  0  0  0
   -0.1069   -1.9076    0.2840 O   0  0  0  0  0  0  0  0  0  0  0  0
    1.3037   -1.8109    0.2688 C   0  0  0  0  0  0  0  0  0  0  0  0
    1.1503   -0.3294    0.4224 C   0  0  0  0  0  0  0  0  0  0  0  0
    2.0183    0.5263   -0.4599 C   0  0  0  0  0  0  0  0  0  0  0  0
    3.3270    0.8902    0.1977 C   0  0  0  0  0  0  0  0  0  0  0  0
   -3.7125    0.6016    1.5526 H   0  0  0  0  0  0  0  0  0  0  0  0
   -3.2627    1.8005    0.2462 H   0  0  0  0  0  0  0  0  0  0  0  0
   -4.5710    0.6144   -0.0340 H   0  0  0  0  0  0  0  0  0  0  0  0
   -2.7521   -0.3985   -1.1515 H   0  0  0  0  0  0  0  0  0  0  0  0
   -2.7092   -1.2144    0.5010 H   0  0  0  0  0  0  0  0  0  0  0  0
   -1.1242    0.5535    1.2309 H   0  0  0  0  0  0  0  0  0  0  0  0
   -1.1405    1.2052   -0.4240 H   0  0  0  0  0  0  0  0  0  0  0  0
   -0.0279   -0.7064   -1.3812 H   0  0  0  0  0  0  0  0  0  0  0  0
    1.6929   -2.3513    1.1604 H   0  0  0  0  0  0  0  0  0  0  0  0
    1.7647   -2.1179   -0.6832 H   0  0  0  0  0  0  0  0  0  0  0  0
    1.0543   -0.0206    1.4594 H   0  0  0  0  0  0  0  0  0  0  0  0
    1.4383    1.4348   -0.7224 H   0  0  0  0  0  0  0  0  0  0  0  0
    2.2617    0.0187   -1.4153 H   0  0  0  0  0  0  0  0  0  0  0  0
    4.0873    1.1595   -0.5651 H   0  0  0  0  0  0  0  0  0  0  0  0
    3.7323    0.0900    0.8196 H   0  0  0  0  0  0  0  0  0  0  0  0
    3.1640    1.8415    0.7847 H   0  0  0  0  0  0  0  0  0  0  0  0
  1  2  1  0
  2  3  1  0
  3  4  1  0
  4  5  1  0
  5  6  1  0
  6  7  1  0
  7  8  1  0
  8  9  1  0
  7  4  1  0
  1 10  1  0
  1 11  1  0
  1 12  1  0
  2 13  1  0
  2 14  1  0
  3 15  1  0
  3 16  1  0
  4 17  1  0
  6 18  1  0
  6 19  1  0
  7 20  1  0
  8 21  1  0
  8 22  1  0
  9 23  1  0
  9 24  1  0
  9 25  1  0
M  END
