
     RDKit          3D

 23 23  0  0  0  0  0  0  0  0999 V2000
    3.2191    0.5532    0.1097 C   0  0  0  0  0  0  0  0  0  0  0  0
    1.8530    0.3408   -0.5554 C   0  0  0  0  0  0  0  0  0  0  0  0
    0.9562   -0.2439    0.5118 C   0  0  0  0  0  0  0  0  0  0  0  0
   -0.4040   -0.5178    0.0604 C   0  0  0  0  0  0  0  0  0  0  0  0
   -0.9838   -1.7138    0.0621 C   0  0  0  0  0  0  0  0  0  0  0  0
   -2.3655   -1.6186   -0.4634 C   0  0  0  0  0  0  0  0  0  0  0  0
   -2.5241   -0.3097   -0.8247 O   0  0  0  0  0  0  0  0  0  0  0  0
   -1.4205    0.4145   -0.4812 C   0  0  0  0  0  0  0  0  0  0  0  0
   -1.8219    1.4833    0.5049 C   0  0  0  0  0  0  0  0  0  0  0  0
    3.0868    0.8777    1.1633 H   0  0  0  0  0  0  0  0  0  0  0  0
    3.7778   -0.4051    0.1518 H   0  0  0  0  0  0  0  0  0  0  0  0
    3.8100    1.3255   -0.4296 H   0  0  0  0  0  0  0  0  0  0  0  0
    1.9522   -0.2992   -1.4409 H   0  0  0  0  0  0  0  0  0  0  0  0
    1.5095    1.3507   -0.8580 H   0  0  0  0  0  0  0  0  0  0  0  0
    0.9108    0.5353    1.3279 H   0  0  0  0  0  0  0  0  0  0  0  0
    1.4524   -1.1617    0.8857 H   0  0  0  0  0  0  0  0  0  0  0  0
   -0.5555   -2.6683    0.3914 H   0  0  0  0  0  0  0  0  0  0  0  0
   -2.4759   -2.3222   -1.3161 H   0  0  0  0  0  0  0  0  0  0  0  0
   -3.1357   -1.8614    0.3104 H   0  0  0  0  0  0  0  0  0  0  0  0
   -1.0071    0.8833   -1.3877 H   0  0  0  0  0  0  0  0  0  0  0  0
   -1.5447    2.4875    0.1180 H   0  0  0  0  0  0  0  0  0  0  0  0
   -2.9249    1.5138    0.6612 H   0  0  0  0  0  0  0  0  0  0  0  0
   -1.3641    1.3561    1.4982 H   0  0  0  0  0  0  0  0  0  0  0  0
  1  2  1  0
  2  3  1  0
  3  4  1  0
  4  5  2  0
  5  6  1  0
  6  7  1  0
  7  8  1  0
  8  9  1  0
  8  4  1  0
  1 10  1  0
  1 11  1  0
  1 12  1  0
  2 13  1  0
  2 14  1  0
  3 15  1  0
  3 16  1  0
  5 17  1  0
  6 18  1  0
  6 19  1  0
  8 20  1  0
  9 21  1  0
  9 22  1  0
  9 23  1  0
M  END
