
     RDKit          3D

 25 25  0  0  0  0  0  0  0  0999 V2000
    2.8982    0.3836   -0.7478 C   0  0  0  0  0  0  0  0  0  0  0  0
    1.8804    1.3136   -0.0897 C   0  0  0  0  0  0  0  0  0  0  0  0
    0.9390    0.5287    0.7733 C   0  0  0  0  0  0  0  0  0  0  0  0
    0.1610   -0.5156   -0.0072 C   0  0  0  0  0  0  0  0  0  0  0  0
   -0.7537   -1.2500    0.9393 C   0  0  0  0  0  0  0  0  0  0  0  0
   -2.1960   -1.1035    0.6140 C   0  0  0  0  0  0  0  0  0  0  0  0
   -2.6038    0.2089    0.0472 C   0  0  0  0  0  0  0  0  0  0  0  0
   -1.5524    1.0301   -0.3377 O   0  0  0  0  0  0  0  0  0  0  0  0
   -0.6541    0.2392   -1.0529 C   0  0  0  0  0  0  0  0  0  0  0  0
    2.4508   -0.1331   -1.6210 H   0  0  0  0  0  0  0  0  0  0  0  0
    3.2323   -0.3079    0.0386 H   0  0  0  0  0  0  0  0  0  0  0  0
    3.7560    0.9919   -1.0894 H   0  0  0  0  0  0  0  0  0  0  0  0
    1.4030    1.9912   -0.7941 H   0  0  0  0  0  0  0  0  0  0  0  0
    2.4848    1.9522    0.6041 H   0  0  0  0  0  0  0  0  0  0  0  0
    1.5644   -0.0241    1.5261 H   0  0  0  0  0  0  0  0  0  0  0  0
    0.2895    1.1924    1.3438 H   0  0  0  0  0  0  0  0  0  0  0  0
    0.8572   -1.2228   -0.5004 H   0  0  0  0  0  0  0  0  0  0  0  0
   -0.5134   -2.3520    0.9024 H   0  0  0  0  0  0  0  0  0  0  0  0
   -0.5585   -0.9408    1.9731 H   0  0  0  0  0  0  0  0  0  0  0  0
   -2.5503   -1.9204   -0.0653 H   0  0  0  0  0  0  0  0  0  0  0  0
   -2.7743   -1.2506    1.5730 H   0  0  0  0  0  0  0  0  0  0  0  0
   -3.2879    0.0666   -0.8340 H   0  0  0  0  0  0  0  0  0  0  0  0
   -3.2187    0.8205    0.7680 H   0  0  0  0  0  0  0  0  0  0  0  0
   -0.0111    0.8355   -1.6960 H   0  0  0  0  0  0  0  0  0  0  0  0
   -1.2423   -0.5335   -1.5885 H   0  0  0  0  0  0  0  0  0  0  0  0
  1  2  1  0
  2  3  1  0
  3  4  1  0
  4  5  1  0
  5  6  1  0
  6  7  1  0
  7  8  1  0
  8  9  1  0
  9  4  1  0
  1 10  1  0
  1 11  1  0
  1 12  1  0
  2 13  1  0
  2 14  1  0
  3 15  1  0
  3 16  1  0
  4 17  1  0
  5 18  1  0
  5 19  1  0
  6 20  1  0
  6 21  1  0
  7 22  1  0
  7 23  1  0
  9 24  1  0
  9 25  1  0
M  END
