
     RDKit          3D

 27 26  0  0  0  0  0  0  0  0999 V2000
    3.4458    0.1327   -1.2788 C   0  0  0  0  0  0  0  0  0  0  0  0
    2.7310    0.2198    0.0543 C   0  0  0  0  0  0  0  0  0  0  0  0
    1.2274    0.3088   -0.2271 C   0  0  0  0  0  0  0  0  0  0  0  0
    0.4414    0.3983    1.0314 C   0  0  0  0  0  0  0  0  0  0  0  0
   -1.0235    0.5231    0.9256 C   0  0  0  0  0  0  0  0  0  0  0  0
   -1.5249    0.5876    2.2541 O   0  0  0  0  0  0  0  0  0  0  0  0
   -1.7767   -0.5285    0.2000 C   0  0  0  0  0  0  0  0  0  0  0  0
   -1.4552   -0.7283   -1.2344 C   0  0  0  0  0  0  0  0  0  0  0  0
   -3.2706   -0.1655    0.2952 C   0  0  0  0  0  0  0  0  0  0  0  0
    2.8247    0.5676   -2.0776 H   0  0  0  0  0  0  0  0  0  0  0  0
    3.6638   -0.9408   -1.5330 H   0  0  0  0  0  0  0  0  0  0  0  0
    4.3970    0.7251   -1.1998 H   0  0  0  0  0  0  0  0  0  0  0  0
    3.0576    1.1167    0.5993 H   0  0  0  0  0  0  0  0  0  0  0  0
    2.9739   -0.7108    0.6049 H   0  0  0  0  0  0  0  0  0  0  0  0
    0.9987   -0.6917   -0.6958 H   0  0  0  0  0  0  0  0  0  0  0  0
    1.0886    1.1574   -0.9034 H   0  0  0  0  0  0  0  0  0  0  0  0
    0.7062   -0.4446    1.7431 H   0  0  0  0  0  0  0  0  0  0  0  0
    0.8296    1.3040    1.5843 H   0  0  0  0  0  0  0  0  0  0  0  0
   -1.2375    1.5559    0.5320 H   0  0  0  0  0  0  0  0  0  0  0  0
   -1.3100   -0.2912    2.6622 H   0  0  0  0  0  0  0  0  0  0  0  0
   -1.6707   -1.5195    0.7457 H   0  0  0  0  0  0  0  0  0  0  0  0
   -0.9642   -1.6913   -1.4855 H   0  0  0  0  0  0  0  0  0  0  0  0
   -0.9627    0.1648   -1.6723 H   0  0  0  0  0  0  0  0  0  0  0  0
   -2.4347   -0.7815   -1.8087 H   0  0  0  0  0  0  0  0  0  0  0  0
   -3.3442    0.8649   -0.1149 H   0  0  0  0  0  0  0  0  0  0  0  0
   -3.6194   -0.2261    1.3463 H   0  0  0  0  0  0  0  0  0  0  0  0
   -3.7914   -0.9069   -0.3471 H   0  0  0  0  0  0  0  0  0  0  0  0
  1  2  1  0
  2  3  1  0
  3  4  1  0
  4  5  1  0
  5  6  1  0
  5  7  1  0
  7  8  1  0
  7  9  1  0
  1 10  1  0
  1 11  1  0
  1 12  1  0
  2 13  1  0
  2 14  1  0
  3 15  1  0
  3 16  1  0
  4 17  1  0
  4 18  1  0
  5 19  1  0
  6 20  1  0
  7 21  1  0
  8 22  1  0
  8 23  1  0
  8 24  1  0
  9 25  1  0
  9 26  1  0
  9 27  1  0
M  END
