
     RDKit          3D

 25 25  0  0  0  0  0  0  0  0999 V2000
    2.3581    1.0701   -0.6826 C   0  0  0  0  0  0  0  0  0  0  0  0
    1.7285    0.9867    0.7002 C   0  0  0  0  0  0  0  0  0  0  0  0
    1.2549   -0.3841    1.0274 C   0  0  0  0  0  0  0  0  0  0  0  0
    0.2895   -1.0944    0.2083 C   0  0  0  0  0  0  0  0  0  0  0  0
   -1.0794   -0.6775   -0.0646 C   0  0  0  0  0  0  0  0  0  0  0  0
   -1.8620   -1.7377   -0.9197 C   0  0  0  0  0  0  0  0  0  0  0  0
   -1.8290    0.1565    0.8648 C   0  0  0  0  0  0  0  0  0  0  0  0
   -1.5776    0.6836   -0.4742 C   0  0  0  0  0  0  0  0  0  0  0  0
   -0.7649    1.6897   -0.8556 O   0  0  0  0  0  0  0  0  0  0  0  0
    3.3910    0.6763   -0.5856 H   0  0  0  0  0  0  0  0  0  0  0  0
    2.3896    2.1087   -1.0525 H   0  0  0  0  0  0  0  0  0  0  0  0
    1.7391    0.4652   -1.3837 H   0  0  0  0  0  0  0  0  0  0  0  0
    1.0400    1.7977    0.8323 H   0  0  0  0  0  0  0  0  0  0  0  0
    2.5647    1.2261    1.4686 H   0  0  0  0  0  0  0  0  0  0  0  0
    0.9441   -0.3766    2.1447 H   0  0  0  0  0  0  0  0  0  0  0  0
    2.2369   -0.9936    1.1360 H   0  0  0  0  0  0  0  0  0  0  0  0
    0.8448   -1.3496   -0.7870 H   0  0  0  0  0  0  0  0  0  0  0  0
    0.2497   -2.1697    0.6551 H   0  0  0  0  0  0  0  0  0  0  0  0
   -1.4240   -2.7289   -0.7790 H   0  0  0  0  0  0  0  0  0  0  0  0
   -1.6561   -1.4270   -1.9652 H   0  0  0  0  0  0  0  0  0  0  0  0
   -2.9294   -1.6585   -0.7194 H   0  0  0  0  0  0  0  0  0  0  0  0
   -1.3757    0.6938    1.7091 H   0  0  0  0  0  0  0  0  0  0  0  0
   -2.8498   -0.2310    1.1452 H   0  0  0  0  0  0  0  0  0  0  0  0
   -2.5497    0.7154   -1.1036 H   0  0  0  0  0  0  0  0  0  0  0  0
   -1.1336    2.5587   -0.5192 H   0  0  0  0  0  0  0  0  0  0  0  0
  1  2  1  0
  2  3  1  0
  3  4  1  0
  4  5  1  0
  5  6  1  0
  5  7  1  0
  7  8  1  0
  8  9  1  0
  8  5  1  0
  1 10  1  0
  1 11  1  0
  1 12  1  0
  2 13  1  0
  2 14  1  0
  3 15  1  0
  3 16  1  0
  4 17  1  0
  4 18  1  0
  6 19  1  0
  6 20  1  0
  6 21  1  0
  7 22  1  0
  7 23  1  0
  8 24  1  0
  9 25  1  0
M  END
