
     RDKit          3D

 23 23  0  0  0  0  0  0  0  0999 V2000
    2.7867    0.5406   -0.2170 C   0  0  0  0  0  0  0  0  0  0  0  0
    1.8597   -0.0995    0.8256 C   0  0  0  0  0  0  0  0  0  0  0  0
    0.7235   -0.7924    0.1448 C   0  0  0  0  0  0  0  0  0  0  0  0
   -0.1576    0.0330   -0.6997 C   0  0  0  0  0  0  0  0  0  0  0  0
   -0.8850    1.1560   -0.0938 C   0  0  0  0  0  0  0  0  0  0  0  0
   -2.2087    0.6875    0.4873 C   0  0  0  0  0  0  0  0  0  0  0  0
   -2.0947   -0.6673    0.7841 O   0  0  0  0  0  0  0  0  0  0  0  0
   -1.9815   -1.3614   -0.3986 C   0  0  0  0  0  0  0  0  0  0  0  0
   -1.0975   -0.8161   -1.3008 O   0  0  0  0  0  0  0  0  0  0  0  0
    2.5165    0.1321   -1.2203 H   0  0  0  0  0  0  0  0  0  0  0  0
    2.6635    1.6494   -0.2276 H   0  0  0  0  0  0  0  0  0  0  0  0
    3.8388    0.2931   -0.0408 H   0  0  0  0  0  0  0  0  0  0  0  0
    2.4918   -0.8279    1.3765 H   0  0  0  0  0  0  0  0  0  0  0  0
    1.5847    0.6734    1.5331 H   0  0  0  0  0  0  0  0  0  0  0  0
    1.1592   -1.5974   -0.4878 H   0  0  0  0  0  0  0  0  0  0  0  0
    0.1492   -1.3370    0.9260 H   0  0  0  0  0  0  0  0  0  0  0  0
    0.4450    0.4368   -1.5693 H   0  0  0  0  0  0  0  0  0  0  0  0
   -1.1721    1.8759   -0.9129 H   0  0  0  0  0  0  0  0  0  0  0  0
   -0.3216    1.7841    0.6178 H   0  0  0  0  0  0  0  0  0  0  0  0
   -3.0284    0.7771   -0.2573 H   0  0  0  0  0  0  0  0  0  0  0  0
   -2.5055    1.2860    1.3767 H   0  0  0  0  0  0  0  0  0  0  0  0
   -2.9941   -1.3752   -0.8932 H   0  0  0  0  0  0  0  0  0  0  0  0
   -1.7718   -2.4510   -0.1991 H   0  0  0  0  0  0  0  0  0  0  0  0
  1  2  1  0
  2  3  1  0
  3  4  1  0
  4  5  1  0
  5  6  1  0
  6  7  1  0
  7  8  1  0
  8  9  1  0
  9  4  1  0
  1 10  1  0
  1 11  1  0
  1 12  1  0
  2 13  1  0
  2 14  1  0
  3 15  1  0
  3 16  1  0
  4 17  1  0
  5 18  1  0
  5 19  1  0
  6 20  1  0
  6 21  1  0
  8 22  1  0
  8 23  1  0
M  END
