
     RDKit          3D

 23 22  0  0  0  0  0  0  0  0999 V2000
    3.4919    0.1223    0.2782 C   0  0  0  0  0  0  0  0  0  0  0  0
    1.9835    0.0173    0.3577 C   0  0  0  0  0  0  0  0  0  0  0  0
    1.3662   -0.3117   -0.9661 C   0  0  0  0  0  0  0  0  0  0  0  0
   -0.1365   -0.4137   -0.8305 C   0  0  0  0  0  0  0  0  0  0  0  0
   -0.7589    0.8553   -0.3532 C   0  0  0  0  0  0  0  0  0  0  0  0
   -2.1408    0.8119   -0.2292 O   0  0  0  0  0  0  0  0  0  0  0  0
   -2.6169   -0.1217    0.6473 C   0  0  0  0  0  0  0  0  0  0  0  0
   -4.0931   -0.1311    0.7644 C   0  0  0  0  0  0  0  0  0  0  0  0
   -4.6090   -0.9238    1.5170 O   0  0  0  0  0  0  0  0  0  0  0  0
    3.9321   -0.5730   -0.4612 H   0  0  0  0  0  0  0  0  0  0  0  0
    3.9093   -0.1004    1.2776 H   0  0  0  0  0  0  0  0  0  0  0  0
    3.8260    1.1453    0.0110 H   0  0  0  0  0  0  0  0  0  0  0  0
    1.6947   -0.7384    1.1143 H   0  0  0  0  0  0  0  0  0  0  0  0
    1.6309    1.0124    0.7438 H   0  0  0  0  0  0  0  0  0  0  0  0
    1.6683    0.3919   -1.7570 H   0  0  0  0  0  0  0  0  0  0  0  0
    1.8070   -1.3059   -1.2715 H   0  0  0  0  0  0  0  0  0  0  0  0
   -0.3862   -1.2407   -0.1007 H   0  0  0  0  0  0  0  0  0  0  0  0
   -0.5115   -0.7311   -1.8306 H   0  0  0  0  0  0  0  0  0  0  0  0
   -0.3752    1.1106    0.6801 H   0  0  0  0  0  0  0  0  0  0  0  0
   -0.4241    1.6661   -1.0294 H   0  0  0  0  0  0  0  0  0  0  0  0
   -2.3485   -1.1731    0.3320 H   0  0  0  0  0  0  0  0  0  0  0  0
   -2.2178    0.0926    1.6641 H   0  0  0  0  0  0  0  0  0  0  0  0
   -4.6918    0.5388    0.2045 H   0  0  0  0  0  0  0  0  0  0  0  0
  1  2  1  0
  2  3  1  0
  3  4  1  0
  4  5  1  0
  5  6  1  0
  6  7  1  0
  7  8  1  0
  8  9  2  0
  1 10  1  0
  1 11  1  0
  1 12  1  0
  2 13  1  0
  2 14  1  0
  3 15  1  0
  3 16  1  0
  4 17  1  0
  4 18  1  0
  5 19  1  0
  5 20  1  0
  7 21  1  0
  7 22  1  0
  8 23  1  0
M  END
