
     RDKit          3D

 22 22  0  0  0  0  0  0  0  0999 V2000
    3.0603   -0.3676   -0.3943 C   0  0  0  0  0  0  0  0  0  0  0  0
    1.8485    0.3601    0.1473 C   0  0  0  0  0  0  0  0  0  0  0  0
    0.6935   -0.6110    0.3918 C   0  0  0  0  0  0  0  0  0  0  0  0
   -0.4740    0.1649    0.9259 C   0  0  0  0  0  0  0  0  0  0  0  0
   -0.9596    1.2536   -0.0335 C   0  0  0  0  0  0  0  0  0  0  0  0
   -1.8233    0.0765    0.3889 C   0  0  0  0  0  0  0  0  0  0  0  0
   -2.2534   -0.9293   -0.6333 C   0  0  0  0  0  0  0  0  0  0  0  0
   -2.8663    0.4626    1.2605 O   0  0  0  0  0  0  0  0  0  0  0  0
    3.6312   -0.7399    0.4940 H   0  0  0  0  0  0  0  0  0  0  0  0
    2.8010   -1.1805   -1.0759 H   0  0  0  0  0  0  0  0  0  0  0  0
    3.7162    0.3833   -0.8918 H   0  0  0  0  0  0  0  0  0  0  0  0
    2.0627    0.8365    1.1264 H   0  0  0  0  0  0  0  0  0  0  0  0
    1.5056    1.1742   -0.5230 H   0  0  0  0  0  0  0  0  0  0  0  0
    1.0425   -1.3880    1.1058 H   0  0  0  0  0  0  0  0  0  0  0  0
    0.4856   -1.0914   -0.5800 H   0  0  0  0  0  0  0  0  0  0  0  0
   -0.3387    0.4691    2.0005 H   0  0  0  0  0  0  0  0  0  0  0  0
   -0.6171    1.2276   -1.0721 H   0  0  0  0  0  0  0  0  0  0  0  0
   -1.1289    2.2362    0.4124 H   0  0  0  0  0  0  0  0  0  0  0  0
   -2.2446   -0.5067   -1.6701 H   0  0  0  0  0  0  0  0  0  0  0  0
   -3.2951   -1.3034   -0.4723 H   0  0  0  0  0  0  0  0  0  0  0  0
   -1.6095   -1.8455   -0.5711 H   0  0  0  0  0  0  0  0  0  0  0  0
   -3.2366    1.3188    0.8772 H   0  0  0  0  0  0  0  0  0  0  0  0
  1  2  1  0
  2  3  1  0
  3  4  1  0
  4  5  1  0
  5  6  1  0
  6  7  1  0
  6  8  1  0
  6  4  1  0
  1  9  1  0
  1 10  1  0
  1 11  1  0
  2 12  1  0
  2 13  1  0
  3 14  1  0
  3 15  1  0
  4 16  1  0
  5 17  1  0
  5 18  1  0
  7 19  1  0
  7 20  1  0
  7 21  1  0
  8 22  1  0
M  END
