
     RDKit          3D

 21 22  0  0  0  0  0  0  0  0999 V2000
    3.1634   -0.2023    0.2244 C   0  0  0  0  0  0  0  0  0  0  0  0
    1.8523    0.3553   -0.3354 C   0  0  0  0  0  0  0  0  0  0  0  0
    0.7643   -0.6031    0.0831 C   0  0  0  0  0  0  0  0  0  0  0  0
   -0.5957   -0.2001   -0.3885 C   0  0  0  0  0  0  0  0  0  0  0  0
   -1.1743    1.1275    0.0448 C   0  0  0  0  0  0  0  0  0  0  0  0
   -2.4567    0.3811    0.3954 C   0  0  0  0  0  0  0  0  0  0  0  0
   -3.5104    0.6357   -0.4802 O   0  0  0  0  0  0  0  0  0  0  0  0
   -1.7470   -0.8918   -0.0506 C   0  0  0  0  0  0  0  0  0  0  0  0
   -1.2644   -0.9389   -1.3512 O   0  0  0  0  0  0  0  0  0  0  0  0
    3.7879    0.6172    0.6250 H   0  0  0  0  0  0  0  0  0  0  0  0
    3.7538   -0.7199   -0.5487 H   0  0  0  0  0  0  0  0  0  0  0  0
    2.9832   -0.9333    1.0333 H   0  0  0  0  0  0  0  0  0  0  0  0
    1.9655    0.3314   -1.4345 H   0  0  0  0  0  0  0  0  0  0  0  0
    1.6681    1.3873    0.0183 H   0  0  0  0  0  0  0  0  0  0  0  0
    0.7157   -0.7165    1.1844 H   0  0  0  0  0  0  0  0  0  0  0  0
    1.0029   -1.5958   -0.3267 H   0  0  0  0  0  0  0  0  0  0  0  0
   -1.3603    1.8367   -0.7862 H   0  0  0  0  0  0  0  0  0  0  0  0
   -0.6495    1.5576    0.8965 H   0  0  0  0  0  0  0  0  0  0  0  0
   -2.7004    0.3436    1.4570 H   0  0  0  0  0  0  0  0  0  0  0  0
   -4.2603    0.0613   -0.1834 H   0  0  0  0  0  0  0  0  0  0  0  0
   -1.9381   -1.8329    0.4501 H   0  0  0  0  0  0  0  0  0  0  0  0
  1  2  1  0
  2  3  1  0
  3  4  1  0
  4  5  1  0
  5  6  1  0
  6  7  1  0
  6  8  1  0
  8  9  1  0
  8  4  1  0
  9  4  1  0
  1 10  1  0
  1 11  1  0
  1 12  1  0
  2 13  1  0
  2 14  1  0
  3 15  1  0
  3 16  1  0
  5 17  1  0
  5 18  1  0
  6 19  1  0
  7 20  1  0
  8 21  1  0
M  END
