
     RDKit          3D

 25 25  0  0  0  0  0  0  0  0999 V2000
    3.0483    0.4354    0.6185 C   0  0  0  0  0  0  0  0  0  0  0  0
    1.9704   -0.2756   -0.2052 C   0  0  0  0  0  0  0  0  0  0  0  0
    0.7196    0.5814   -0.0444 C   0  0  0  0  0  0  0  0  0  0  0  0
   -0.4438    0.0004   -0.8098 C   0  0  0  0  0  0  0  0  0  0  0  0
   -0.1464   -0.0775   -2.1630 O   0  0  0  0  0  0  0  0  0  0  0  0
   -0.9173   -1.3060   -0.2294 C   0  0  0  0  0  0  0  0  0  0  0  0
   -1.6925   -0.8490    0.9746 C   0  0  0  0  0  0  0  0  0  0  0  0
   -2.0086    0.6020    0.7955 C   0  0  0  0  0  0  0  0  0  0  0  0
   -1.6821    0.8479   -0.6569 C   0  0  0  0  0  0  0  0  0  0  0  0
    2.8560    0.1474    1.6719 H   0  0  0  0  0  0  0  0  0  0  0  0
    4.0547    0.2001    0.2664 H   0  0  0  0  0  0  0  0  0  0  0  0
    2.8731    1.5464    0.5393 H   0  0  0  0  0  0  0  0  0  0  0  0
    1.8308   -1.2850    0.2531 H   0  0  0  0  0  0  0  0  0  0  0  0
    2.2669   -0.3796   -1.2546 H   0  0  0  0  0  0  0  0  0  0  0  0
    0.5324    0.6237    1.0433 H   0  0  0  0  0  0  0  0  0  0  0  0
    0.9723    1.5797   -0.4449 H   0  0  0  0  0  0  0  0  0  0  0  0
   -0.3830   -0.9466   -2.5636 H   0  0  0  0  0  0  0  0  0  0  0  0
   -1.6042   -1.7583   -0.9969 H   0  0  0  0  0  0  0  0  0  0  0  0
   -0.0918   -1.9978    0.0220 H   0  0  0  0  0  0  0  0  0  0  0  0
   -1.1010   -1.0633    1.8957 H   0  0  0  0  0  0  0  0  0  0  0  0
   -2.6291   -1.4594    1.0614 H   0  0  0  0  0  0  0  0  0  0  0  0
   -3.0825    0.8355    0.9907 H   0  0  0  0  0  0  0  0  0  0  0  0
   -1.3500    1.2825    1.4044 H   0  0  0  0  0  0  0  0  0  0  0  0
   -1.5142    1.9093   -0.8918 H   0  0  0  0  0  0  0  0  0  0  0  0
   -2.4780    0.3911   -1.2762 H   0  0  0  0  0  0  0  0  0  0  0  0
  1  2  1  0
  2  3  1  0
  3  4  1  0
  4  5  1  0
  4  6  1  0
  6  7  1  0
  7  8  1  0
  8  9  1  0
  9  4  1  0
  1 10  1  0
  1 11  1  0
  1 12  1  0
  2 13  1  0
  2 14  1  0
  3 15  1  0
  3 16  1  0
  5 17  1  0
  6 18  1  0
  6 19  1  0
  7 20  1  0
  7 21  1  0
  8 22  1  0
  8 23  1  0
  9 24  1  0
  9 25  1  0
M  END
