
     RDKit          3D

 23 23  0  0  0  0  0  0  0  0999 V2000
    3.2772    0.2595   -0.0305 C   0  0  0  0  0  0  0  0  0  0  0  0
    2.3707   -0.6076   -0.8651 C   0  0  0  0  0  0  0  0  0  0  0  0
    0.9390   -0.1619   -0.8491 C   0  0  0  0  0  0  0  0  0  0  0  0
    0.3160   -0.1526    0.5026 C   0  0  0  0  0  0  0  0  0  0  0  0
   -1.1260    0.3226    0.3362 C   0  0  0  0  0  0  0  0  0  0  0  0
   -1.9227   -0.5403   -0.5420 C   0  0  0  0  0  0  0  0  0  0  0  0
   -3.1227   -0.6762   -0.0033 C   0  0  0  0  0  0  0  0  0  0  0  0
   -3.1377    0.1004    1.2488 C   0  0  0  0  0  0  0  0  0  0  0  0
   -1.7940    0.3762    1.5324 O   0  0  0  0  0  0  0  0  0  0  0  0
    2.9552    0.3788    1.0056 H   0  0  0  0  0  0  0  0  0  0  0  0
    3.4886    1.2138   -0.5547 H   0  0  0  0  0  0  0  0  0  0  0  0
    4.2668   -0.2781    0.0116 H   0  0  0  0  0  0  0  0  0  0  0  0
    2.7302   -0.5227   -1.9186 H   0  0  0  0  0  0  0  0  0  0  0  0
    2.4513   -1.6820   -0.6000 H   0  0  0  0  0  0  0  0  0  0  0  0
    0.8718    0.8728   -1.2626 H   0  0  0  0  0  0  0  0  0  0  0  0
    0.3718   -0.8626   -1.4887 H   0  0  0  0  0  0  0  0  0  0  0  0
    0.7880    0.5885    1.1947 H   0  0  0  0  0  0  0  0  0  0  0  0
    0.3002   -1.1479    0.9826 H   0  0  0  0  0  0  0  0  0  0  0  0
   -1.1524    1.3494   -0.0997 H   0  0  0  0  0  0  0  0  0  0  0  0
   -1.6557   -1.0258   -1.4869 H   0  0  0  0  0  0  0  0  0  0  0  0
   -3.9796   -1.2420   -0.3685 H   0  0  0  0  0  0  0  0  0  0  0  0
   -3.4995   -0.5543    2.0705 H   0  0  0  0  0  0  0  0  0  0  0  0
   -3.7366    1.0298    1.1848 H   0  0  0  0  0  0  0  0  0  0  0  0
  1  2  1  0
  2  3  1  0
  3  4  1  0
  4  5  1  0
  5  6  1  0
  6  7  2  0
  7  8  1  0
  8  9  1  0
  9  5  1  0
  1 10  1  0
  1 11  1  0
  1 12  1  0
  2 13  1  0
  2 14  1  0
  3 15  1  0
  3 16  1  0
  4 17  1  0
  4 18  1  0
  5 19  1  0
  6 20  1  0
  7 21  1  0
  8 22  1  0
  8 23  1  0
M  END
