
     RDKit          3D

 23 22  0  0  0  0  0  0  0  0999 V2000
   -3.1960   -0.6904    0.4917 C   0  0  0  0  0  0  0  0  0  0  0  0
   -1.7248   -0.7356    0.1561 C   0  0  0  0  0  0  0  0  0  0  0  0
   -1.3064    0.6292   -0.3681 C   0  0  0  0  0  0  0  0  0  0  0  0
    0.1328    0.6327   -0.7120 C   0  0  0  0  0  0  0  0  0  0  0  0
    0.4675    0.1826   -1.7953 O   0  0  0  0  0  0  0  0  0  0  0  0
    1.1953    1.1517    0.1842 C   0  0  0  0  0  0  0  0  0  0  0  0
    0.5768    1.6173    1.3428 O   0  0  0  0  0  0  0  0  0  0  0  0
    2.1496    0.0476    0.6075 C   0  0  0  0  0  0  0  0  0  0  0  0
    2.8409   -0.5971   -0.5649 C   0  0  0  0  0  0  0  0  0  0  0  0
   -3.4706   -1.5355    1.1595 H   0  0  0  0  0  0  0  0  0  0  0  0
   -3.8146   -0.8216   -0.4334 H   0  0  0  0  0  0  0  0  0  0  0  0
   -3.3941    0.2956    0.9697 H   0  0  0  0  0  0  0  0  0  0  0  0
   -1.1602   -0.9858    1.0970 H   0  0  0  0  0  0  0  0  0  0  0  0
   -1.5895   -1.5303   -0.5942 H   0  0  0  0  0  0  0  0  0  0  0  0
   -1.5981    1.3837    0.3809 H   0  0  0  0  0  0  0  0  0  0  0  0
   -1.9533    0.8202   -1.2704 H   0  0  0  0  0  0  0  0  0  0  0  0
    1.7817    1.9596   -0.3117 H   0  0  0  0  0  0  0  0  0  0  0  0
    0.5817    0.9035    2.0195 H   0  0  0  0  0  0  0  0  0  0  0  0
    1.4836   -0.7476    1.0588 H   0  0  0  0  0  0  0  0  0  0  0  0
    2.8176    0.3572    1.4158 H   0  0  0  0  0  0  0  0  0  0  0  0
    2.4850   -1.6301   -0.7453 H   0  0  0  0  0  0  0  0  0  0  0  0
    3.9192   -0.7176   -0.2554 H   0  0  0  0  0  0  0  0  0  0  0  0
    2.7760    0.0107   -1.4876 H   0  0  0  0  0  0  0  0  0  0  0  0
  1  2  1  0
  2  3  1  0
  3  4  1  0
  4  5  2  0
  4  6  1  0
  6  7  1  0
  6  8  1  0
  8  9  1  0
  1 10  1  0
  1 11  1  0
  1 12  1  0
  2 13  1  0
  2 14  1  0
  3 15  1  0
  3 16  1  0
  6 17  1  0
  7 18  1  0
  8 19  1  0
  8 20  1  0
  9 21  1  0
  9 22  1  0
  9 23  1  0
M  END
