
     RDKit          3D

 23 23  0  0  0  0  0  0  0  0999 V2000
    2.6658    0.7759   -0.0954 C   0  0  0  0  0  0  0  0  0  0  0  0
    1.9404   -0.4714   -0.5488 C   0  0  0  0  0  0  0  0  0  0  0  0
    1.0000   -1.0006    0.4913 C   0  0  0  0  0  0  0  0  0  0  0  0
   -0.0714   -0.0036    0.8666 C   0  0  0  0  0  0  0  0  0  0  0  0
   -0.9243    0.3926   -0.3156 C   0  0  0  0  0  0  0  0  0  0  0  0
   -1.6610   -0.7309   -0.9795 C   0  0  0  0  0  0  0  0  0  0  0  0
   -2.8825    0.1202   -0.9610 C   0  0  0  0  0  0  0  0  0  0  0  0
   -3.9327    0.2257   -1.5626 O   0  0  0  0  0  0  0  0  0  0  0  0
   -2.2792    0.8652    0.1790 C   0  0  0  0  0  0  0  0  0  0  0  0
    3.7844    0.6279   -0.0909 H   0  0  0  0  0  0  0  0  0  0  0  0
    2.4611    1.5762   -0.8387 H   0  0  0  0  0  0  0  0  0  0  0  0
    2.3977    1.0933    0.9211 H   0  0  0  0  0  0  0  0  0  0  0  0
    2.6932   -1.2505   -0.7547 H   0  0  0  0  0  0  0  0  0  0  0  0
    1.3708   -0.3112   -1.4787 H   0  0  0  0  0  0  0  0  0  0  0  0
    1.5516   -1.2654    1.4011 H   0  0  0  0  0  0  0  0  0  0  0  0
    0.5324   -1.9160    0.0852 H   0  0  0  0  0  0  0  0  0  0  0  0
    0.3935    0.9210    1.2601 H   0  0  0  0  0  0  0  0  0  0  0  0
   -0.6710   -0.4412    1.6900 H   0  0  0  0  0  0  0  0  0  0  0  0
   -0.3862    1.0941   -0.9708 H   0  0  0  0  0  0  0  0  0  0  0  0
   -1.3002   -1.0060   -2.0044 H   0  0  0  0  0  0  0  0  0  0  0  0
   -1.7269   -1.6330   -0.3089 H   0  0  0  0  0  0  0  0  0  0  0  0
   -2.5549    0.3748    1.1244 H   0  0  0  0  0  0  0  0  0  0  0  0
   -2.4006    1.9629    0.1402 H   0  0  0  0  0  0  0  0  0  0  0  0
  1  2  1  0
  2  3  1  0
  3  4  1  0
  4  5  1  0
  5  6  1  0
  6  7  1  0
  7  8  2  0
  7  9  1  0
  9  5  1  0
  1 10  1  0
  1 11  1  0
  1 12  1  0
  2 13  1  0
  2 14  1  0
  3 15  1  0
  3 16  1  0
  4 17  1  0
  4 18  1  0
  5 19  1  0
  6 20  1  0
  6 21  1  0
  9 22  1  0
  9 23  1  0
M  END
