
     RDKit          3D

 19 20  0  0  0  0  0  0  0  0999 V2000
   -2.8061    0.3072   -0.5020 C   0  0  0  0  0  0  0  0  0  0  0  0
   -1.3702    0.6940   -0.3930 C   0  0  0  0  0  0  0  0  0  0  0  0
   -0.4680   -0.5269   -0.1636 C   0  0  0  0  0  0  0  0  0  0  0  0
    0.8558   -0.1736   -0.0627 C   0  0  0  0  0  0  0  0  0  0  0  0
    2.0275   -1.0806    0.1602 C   0  0  0  0  0  0  0  0  0  0  0  0
    2.5314    0.3320    0.1432 C   0  0  0  0  0  0  0  0  0  0  0  0
    1.4241    0.6318    0.9247 O   0  0  0  0  0  0  0  0  0  0  0  0
    1.6938    0.5432   -1.0076 C   0  0  0  0  0  0  0  0  0  0  0  0
    1.6619    1.0100   -2.0877 O   0  0  0  0  0  0  0  0  0  0  0  0
   -2.8789   -0.6545   -1.0651 H   0  0  0  0  0  0  0  0  0  0  0  0
   -3.3795    1.0501   -1.0929 H   0  0  0  0  0  0  0  0  0  0  0  0
   -3.3089    0.1685    0.4688 H   0  0  0  0  0  0  0  0  0  0  0  0
   -1.0293    1.1799   -1.3271 H   0  0  0  0  0  0  0  0  0  0  0  0
   -1.1954    1.4049    0.4275 H   0  0  0  0  0  0  0  0  0  0  0  0
   -0.8834   -1.0049    0.7596 H   0  0  0  0  0  0  0  0  0  0  0  0
   -0.7160   -1.2266   -0.9866 H   0  0  0  0  0  0  0  0  0  0  0  0
    2.0889   -1.5989    1.1130 H   0  0  0  0  0  0  0  0  0  0  0  0
    2.2732   -1.6831   -0.7240 H   0  0  0  0  0  0  0  0  0  0  0  0
    3.4791    0.6276    0.3219 H   0  0  0  0  0  0  0  0  0  0  0  0
  1  2  1  0
  2  3  1  0
  3  4  1  0
  4  5  1  0
  5  6  1  0
  6  7  1  0
  6  8  1  0
  8  9  2  0
  7  4  1  0
  8  4  1  0
  1 10  1  0
  1 11  1  0
  1 12  1  0
  2 13  1  0
  2 14  1  0
  3 15  1  0
  3 16  1  0
  5 17  1  0
  5 18  1  0
  6 19  1  0
M  END
