
     RDKit          3D

 22 21  0  0  0  0  0  0  0  0999 V2000
   -2.0029   -0.8099    0.4102 C   0  0  0  0  0  0  0  0  0  0  0  0
   -2.2992    0.5633   -0.0741 C   0  0  0  0  0  0  0  0  0  0  0  0
   -1.2274    1.5710    0.2069 C   0  0  0  0  0  0  0  0  0  0  0  0
    0.0921    1.2335   -0.4153 C   0  0  0  0  0  0  0  0  0  0  0  0
    0.5431    0.0053    0.0711 O   0  0  0  0  0  0  0  0  0  0  0  0
    1.7639   -0.2468   -0.5423 C   0  0  0  0  0  0  0  0  0  0  0  0
    2.3766   -1.5523   -0.1097 C   0  0  0  0  0  0  0  0  0  0  0  0
    2.6167   -1.6044    1.2541 O   0  0  0  0  0  0  0  0  0  0  0  0
   -1.6035   -0.8128    1.4517 H   0  0  0  0  0  0  0  0  0  0  0  0
   -2.9804   -1.3755    0.4252 H   0  0  0  0  0  0  0  0  0  0  0  0
   -1.3090   -1.3895   -0.2254 H   0  0  0  0  0  0  0  0  0  0  0  0
   -3.2227    0.9171    0.4501 H   0  0  0  0  0  0  0  0  0  0  0  0
   -2.5730    0.5067   -1.1462 H   0  0  0  0  0  0  0  0  0  0  0  0
   -1.1077    1.6513    1.3059 H   0  0  0  0  0  0  0  0  0  0  0  0
   -1.5855    2.5571   -0.1538 H   0  0  0  0  0  0  0  0  0  0  0  0
    0.0985    1.2928   -1.5022 H   0  0  0  0  0  0  0  0  0  0  0  0
    0.8304    1.9927   -0.0257 H   0  0  0  0  0  0  0  0  0  0  0  0
    2.4536    0.5828   -0.3602 H   0  0  0  0  0  0  0  0  0  0  0  0
    1.5579   -0.3360   -1.6354 H   0  0  0  0  0  0  0  0  0  0  0  0
    3.3538   -1.6378   -0.6302 H   0  0  0  0  0  0  0  0  0  0  0  0
    1.7604   -2.4004   -0.4211 H   0  0  0  0  0  0  0  0  0  0  0  0
    2.4643   -0.7079    1.6541 H   0  0  0  0  0  0  0  0  0  0  0  0
  1  2  1  0
  2  3  1  0
  3  4  1  0
  4  5  1  0
  5  6  1  0
  6  7  1  0
  7  8  1  0
  1  9  1  0
  1 10  1  0
  1 11  1  0
  2 12  1  0
  2 13  1  0
  3 14  1  0
  3 15  1  0
  4 16  1  0
  4 17  1  0
  6 18  1  0
  6 19  1  0
  7 20  1  0
  7 21  1  0
  8 22  1  0
M  END
