
     RDKit          3D

 25 25  0  0  0  0  0  0  0  0999 V2000
    2.8547    0.2776   -0.0049 C   0  0  0  0  0  0  0  0  0  0  0  0
    1.7726    0.7610   -0.9103 C   0  0  0  0  0  0  0  0  0  0  0  0
    0.4512    0.0877   -0.8161 C   0  0  0  0  0  0  0  0  0  0  0  0
   -0.2449    0.1877    0.4879 C   0  0  0  0  0  0  0  0  0  0  0  0
    0.4651   -0.4096    1.6727 C   0  0  0  0  0  0  0  0  0  0  0  0
   -1.6939   -0.2227    0.4248 C   0  0  0  0  0  0  0  0  0  0  0  0
   -2.5152    0.6020   -0.5199 C   0  0  0  0  0  0  0  0  0  0  0  0
   -2.5160   -0.4377   -1.4735 O   0  0  0  0  0  0  0  0  0  0  0  0
   -2.0531   -1.3339   -0.4829 C   0  0  0  0  0  0  0  0  0  0  0  0
    2.7445   -0.7191    0.4147 H   0  0  0  0  0  0  0  0  0  0  0  0
    3.0990    1.0364    0.7982 H   0  0  0  0  0  0  0  0  0  0  0  0
    3.8590    0.2289   -0.5566 H   0  0  0  0  0  0  0  0  0  0  0  0
    1.6559    1.8913   -0.8312 H   0  0  0  0  0  0  0  0  0  0  0  0
    2.1959    0.6718   -1.9647 H   0  0  0  0  0  0  0  0  0  0  0  0
   -0.2290    0.6562   -1.5341 H   0  0  0  0  0  0  0  0  0  0  0  0
    0.5193   -0.9755   -1.1596 H   0  0  0  0  0  0  0  0  0  0  0  0
   -0.3060    1.3037    0.7179 H   0  0  0  0  0  0  0  0  0  0  0  0
    0.7695   -1.4501    1.4161 H   0  0  0  0  0  0  0  0  0  0  0  0
    1.2763    0.2342    2.0200 H   0  0  0  0  0  0  0  0  0  0  0  0
   -0.2337   -0.4545    2.5654 H   0  0  0  0  0  0  0  0  0  0  0  0
   -2.1359   -0.2809    1.4307 H   0  0  0  0  0  0  0  0  0  0  0  0
   -3.5482    0.8054   -0.1705 H   0  0  0  0  0  0  0  0  0  0  0  0
   -2.0117    1.4765   -0.9792 H   0  0  0  0  0  0  0  0  0  0  0  0
   -2.9153   -1.9578   -0.1624 H   0  0  0  0  0  0  0  0  0  0  0  0
   -1.2601   -1.9788   -0.8674 H   0  0  0  0  0  0  0  0  0  0  0  0
  1  2  1  0
  2  3  1  0
  3  4  1  0
  4  5  1  0
  4  6  1  0
  6  7  1  0
  7  8  1  0
  8  9  1  0
  9  6  1  0
  1 10  1  0
  1 11  1  0
  1 12  1  0
  2 13  1  0
  2 14  1  0
  3 15  1  0
  3 16  1  0
  4 17  1  0
  5 18  1  0
  5 19  1  0
  5 20  1  0
  6 21  1  0
  7 22  1  0
  7 23  1  0
  9 24  1  0
  9 25  1  0
M  END
