
     RDKit          3D

 21 21  0  0  0  0  0  0  0  0999 V2000
    3.1692    0.0650    0.0705 C   0  0  0  0  0  0  0  0  0  0  0  0
    1.7447    0.4927    0.4083 C   0  0  0  0  0  0  0  0  0  0  0  0
    0.8352   -0.6539    0.0501 C   0  0  0  0  0  0  0  0  0  0  0  0
   -0.6018   -0.3342    0.3457 C   0  0  0  0  0  0  0  0  0  0  0  0
   -1.5464   -1.4829   -0.0093 C   0  0  0  0  0  0  0  0  0  0  0  0
   -1.6006   -0.1293   -0.7034 C   0  0  0  0  0  0  0  0  0  0  0  0
   -2.8519    0.6569   -0.3261 C   0  0  0  0  0  0  0  0  0  0  0  0
    3.5673    0.6984   -0.7414 H   0  0  0  0  0  0  0  0  0  0  0  0
    3.8279    0.1359    0.9600 H   0  0  0  0  0  0  0  0  0  0  0  0
    3.2110   -1.0027   -0.2495 H   0  0  0  0  0  0  0  0  0  0  0  0
    1.6319    0.6639    1.5007 H   0  0  0  0  0  0  0  0  0  0  0  0
    1.5015    1.4075   -0.1791 H   0  0  0  0  0  0  0  0  0  0  0  0
    1.1174   -1.5024    0.7395 H   0  0  0  0  0  0  0  0  0  0  0  0
    0.9956   -1.0348   -0.9661 H   0  0  0  0  0  0  0  0  0  0  0  0
   -0.7548    0.1813    1.3121 H   0  0  0  0  0  0  0  0  0  0  0  0
   -1.1736   -2.3000   -0.6450 H   0  0  0  0  0  0  0  0  0  0  0  0
   -2.2609   -1.7232    0.7764 H   0  0  0  0  0  0  0  0  0  0  0  0
   -1.2614   -0.0396   -1.7383 H   0  0  0  0  0  0  0  0  0  0  0  0
   -2.6413    1.2074    0.6181 H   0  0  0  0  0  0  0  0  0  0  0  0
   -3.2178    1.2903   -1.1366 H   0  0  0  0  0  0  0  0  0  0  0  0
   -3.6911   -0.0583   -0.0867 H   0  0  0  0  0  0  0  0  0  0  0  0
  1  2  1  0
  2  3  1  0
  3  4  1  0
  4  5  1  0
  5  6  1  0
  6  7  1  0
  6  4  1  0
  1  8  1  0
  1  9  1  0
  1 10  1  0
  2 11  1  0
  2 12  1  0
  3 13  1  0
  3 14  1  0
  4 15  1  0
  5 16  1  0
  5 17  1  0
  6 18  1  0
  7 19  1  0
  7 20  1  0
  7 21  1  0
M  END
