
     RDKit          3D

 25 24  0  0  0  0  0  0  0  0999 V2000
    2.9502    0.7171   -1.1769 C   0  0  0  0  0  0  0  0  0  0  0  0
    2.1120   -0.3214   -0.4756 C   0  0  0  0  0  0  0  0  0  0  0  0
    1.6225    0.2902    0.8178 C   0  0  0  0  0  0  0  0  0  0  0  0
    0.7690   -0.6825    1.5932 C   0  0  0  0  0  0  0  0  0  0  0  0
   -0.4521   -1.1304    0.8375 C   0  0  0  0  0  0  0  0  0  0  0  0
   -1.3468   -0.0072    0.4853 C   0  0  0  0  0  0  0  0  0  0  0  0
   -1.1533    1.1469    0.7633 O   0  0  0  0  0  0  0  0  0  0  0  0
   -2.5931   -0.3243   -0.2772 C   0  0  0  0  0  0  0  0  0  0  0  0
   -3.4018    0.9016   -0.5650 C   0  0  0  0  0  0  0  0  0  0  0  0
    2.8134    0.6809   -2.2869 H   0  0  0  0  0  0  0  0  0  0  0  0
    2.6290    1.7583   -0.8874 H   0  0  0  0  0  0  0  0  0  0  0  0
    4.0333    0.6183   -0.9698 H   0  0  0  0  0  0  0  0  0  0  0  0
    2.7939   -1.1732   -0.2094 H   0  0  0  0  0  0  0  0  0  0  0  0
    1.2533   -0.6643   -1.0638 H   0  0  0  0  0  0  0  0  0  0  0  0
    1.1659    1.2820    0.6700 H   0  0  0  0  0  0  0  0  0  0  0  0
    2.5342    0.4687    1.4324 H   0  0  0  0  0  0  0  0  0  0  0  0
    1.4244   -1.5344    1.8631 H   0  0  0  0  0  0  0  0  0  0  0  0
    0.4519   -0.2303    2.5563 H   0  0  0  0  0  0  0  0  0  0  0  0
   -0.9998   -1.8321    1.5063 H   0  0  0  0  0  0  0  0  0  0  0  0
   -0.1860   -1.7100   -0.0657 H   0  0  0  0  0  0  0  0  0  0  0  0
   -2.3363   -0.8209   -1.2513 H   0  0  0  0  0  0  0  0  0  0  0  0
   -3.1800   -1.0107    0.3676 H   0  0  0  0  0  0  0  0  0  0  0  0
   -3.0463    1.4580   -1.4524 H   0  0  0  0  0  0  0  0  0  0  0  0
   -4.4553    0.5651   -0.7729 H   0  0  0  0  0  0  0  0  0  0  0  0
   -3.4022    1.5546    0.3510 H   0  0  0  0  0  0  0  0  0  0  0  0
  1  2  1  0
  2  3  1  0
  3  4  1  0
  4  5  1  0
  5  6  1  0
  6  7  2  0
  6  8  1  0
  8  9  1  0
  1 10  1  0
  1 11  1  0
  1 12  1  0
  2 13  1  0
  2 14  1  0
  3 15  1  0
  3 16  1  0
  4 17  1  0
  4 18  1  0
  5 19  1  0
  5 20  1  0
  8 21  1  0
  8 22  1  0
  9 23  1  0
  9 24  1  0
  9 25  1  0
M  END
