
     RDKit          3D

 25 25  0  0  0  0  0  0  0  0999 V2000
   -1.6961    1.2514   -0.6770 C   0  0  0  0  0  0  0  0  0  0  0  0
   -2.2799   -0.0606   -0.1813 C   0  0  0  0  0  0  0  0  0  0  0  0
   -1.2328   -1.1263   -0.4023 C   0  0  0  0  0  0  0  0  0  0  0  0
    0.0387   -0.8645    0.3237 C   0  0  0  0  0  0  0  0  0  0  0  0
   -0.0555   -0.7661    1.8262 C   0  0  0  0  0  0  0  0  0  0  0  0
    1.2434   -1.6047   -0.2659 C   0  0  0  0  0  0  0  0  0  0  0  0
    1.1289   -0.0818   -0.3106 C   0  0  0  0  0  0  0  0  0  0  0  0
    2.0919    0.5494    0.4346 O   0  0  0  0  0  0  0  0  0  0  0  0
    2.5164    1.6861   -0.2434 C   0  0  0  0  0  0  0  0  0  0  0  0
   -1.3824    1.0809   -1.7277 H   0  0  0  0  0  0  0  0  0  0  0  0
   -0.8490    1.4904   -0.0013 H   0  0  0  0  0  0  0  0  0  0  0  0
   -2.4516    2.0636   -0.6575 H   0  0  0  0  0  0  0  0  0  0  0  0
   -3.2099   -0.3091   -0.7314 H   0  0  0  0  0  0  0  0  0  0  0  0
   -2.5430    0.0755    0.8632 H   0  0  0  0  0  0  0  0  0  0  0  0
   -1.0347   -1.2852   -1.4708 H   0  0  0  0  0  0  0  0  0  0  0  0
   -1.6791   -2.0952   -0.0323 H   0  0  0  0  0  0  0  0  0  0  0  0
    0.7470   -1.2782    2.3536 H   0  0  0  0  0  0  0  0  0  0  0  0
   -0.0954    0.3159    2.0801 H   0  0  0  0  0  0  0  0  0  0  0  0
   -1.0206   -1.2053    2.2033 H   0  0  0  0  0  0  0  0  0  0  0  0
    1.8893   -2.0660    0.4927 H   0  0  0  0  0  0  0  0  0  0  0  0
    1.1344   -2.0957   -1.2347 H   0  0  0  0  0  0  0  0  0  0  0  0
    0.8669    0.3864   -1.2639 H   0  0  0  0  0  0  0  0  0  0  0  0
    1.6238    2.3354   -0.3727 H   0  0  0  0  0  0  0  0  0  0  0  0
    2.8941    1.4064   -1.2687 H   0  0  0  0  0  0  0  0  0  0  0  0
    3.3553    2.1972    0.2638 H   0  0  0  0  0  0  0  0  0  0  0  0
  1  2  1  0
  2  3  1  0
  3  4  1  0
  4  5  1  0
  4  6  1  0
  6  7  1  0
  7  8  1  0
  8  9  1  0
  7  4  1  0
  1 10  1  0
  1 11  1  0
  1 12  1  0
  2 13  1  0
  2 14  1  0
  3 15  1  0
  3 16  1  0
  5 17  1  0
  5 18  1  0
  5 19  1  0
  6 20  1  0
  6 21  1  0
  7 22  1  0
  9 23  1  0
  9 24  1  0
  9 25  1  0
M  END
