
     RDKit          3D

 23 22  0  0  0  0  0  0  0  0999 V2000
   -3.0854    1.0589   -0.4034 C   0  0  0  0  0  0  0  0  0  0  0  0
   -3.1905    0.2706    0.8628 C   0  0  0  0  0  0  0  0  0  0  0  0
   -1.9586    0.3568    1.7322 C   0  0  0  0  0  0  0  0  0  0  0  0
   -0.8038   -0.1521    0.9999 C   0  0  0  0  0  0  0  0  0  0  0  0
    0.1492   -0.5836    0.3715 C   0  0  0  0  0  0  0  0  0  0  0  0
    1.3010   -1.0882   -0.4051 C   0  0  0  0  0  0  0  0  0  0  0  0
    2.1515    0.1384   -0.7228 C   0  0  0  0  0  0  0  0  0  0  0  0
    3.3475   -0.3849   -1.5265 C   0  0  0  0  0  0  0  0  0  0  0  0
    4.0720   -1.3090   -0.7824 O   0  0  0  0  0  0  0  0  0  0  0  0
   -3.7953    1.9080   -0.3792 H   0  0  0  0  0  0  0  0  0  0  0  0
   -3.2433    0.4554   -1.3226 H   0  0  0  0  0  0  0  0  0  0  0  0
   -2.0736    1.5308   -0.5459 H   0  0  0  0  0  0  0  0  0  0  0  0
   -3.3582   -0.8272    0.6664 H   0  0  0  0  0  0  0  0  0  0  0  0
   -4.0257    0.6803    1.4679 H   0  0  0  0  0  0  0  0  0  0  0  0
   -2.1666   -0.2095    2.6546 H   0  0  0  0  0  0  0  0  0  0  0  0
   -1.8067    1.4183    2.0248 H   0  0  0  0  0  0  0  0  0  0  0  0
    1.9419   -1.7482    0.2168 H   0  0  0  0  0  0  0  0  0  0  0  0
    0.9818   -1.5553   -1.3395 H   0  0  0  0  0  0  0  0  0  0  0  0
    1.5750    0.8364   -1.3489 H   0  0  0  0  0  0  0  0  0  0  0  0
    2.5061    0.5727    0.2164 H   0  0  0  0  0  0  0  0  0  0  0  0
    2.9946   -0.9245   -2.4353 H   0  0  0  0  0  0  0  0  0  0  0  0
    4.0352    0.4228   -1.8189 H   0  0  0  0  0  0  0  0  0  0  0  0
    4.4520   -0.8668    0.0173 H   0  0  0  0  0  0  0  0  0  0  0  0
  1  2  1  0
  2  3  1  0
  3  4  1  0
  4  5  3  0
  5  6  1  0
  6  7  1  0
  7  8  1  0
  8  9  1  0
  1 10  1  0
  1 11  1  0
  1 12  1  0
  2 13  1  0
  2 14  1  0
  3 15  1  0
  3 16  1  0
  6 17  1  0
  6 18  1  0
  7 19  1  0
  7 20  1  0
  8 21  1  0
  8 22  1  0
  9 23  1  0
M  END
