
     RDKit          3D

 25 25  0  0  0  0  0  0  0  0999 V2000
    2.8823    0.1763   -0.8418 C   0  0  0  0  0  0  0  0  0  0  0  0
    1.5668    0.4624   -0.1891 C   0  0  0  0  0  0  0  0  0  0  0  0
    0.8618   -0.8152    0.2488 C   0  0  0  0  0  0  0  0  0  0  0  0
   -0.4664   -0.4431    0.9026 C   0  0  0  0  0  0  0  0  0  0  0  0
   -1.2075   -1.6776    1.3562 C   0  0  0  0  0  0  0  0  0  0  0  0
   -1.2699    0.4590    0.0347 C   0  0  0  0  0  0  0  0  0  0  0  0
   -1.7112    0.0446   -1.3337 C   0  0  0  0  0  0  0  0  0  0  0  0
   -1.1971    1.9617    0.3058 C   0  0  0  0  0  0  0  0  0  0  0  0
   -2.2635    1.2001    0.7295 O   0  0  0  0  0  0  0  0  0  0  0  0
    3.2580   -0.8583   -0.6011 H   0  0  0  0  0  0  0  0  0  0  0  0
    3.6248    0.8900   -0.4850 H   0  0  0  0  0  0  0  0  0  0  0  0
    2.8328    0.2675   -1.9481 H   0  0  0  0  0  0  0  0  0  0  0  0
    0.9050    0.9206   -0.9668 H   0  0  0  0  0  0  0  0  0  0  0  0
    1.7111    1.1182    0.6852 H   0  0  0  0  0  0  0  0  0  0  0  0
    1.5286   -1.3203    0.9638 H   0  0  0  0  0  0  0  0  0  0  0  0
    0.6948   -1.4636   -0.6365 H   0  0  0  0  0  0  0  0  0  0  0  0
   -0.2060    0.1233    1.8311 H   0  0  0  0  0  0  0  0  0  0  0  0
   -2.0835   -1.3172    1.9516 H   0  0  0  0  0  0  0  0  0  0  0  0
   -1.5062   -2.3317    0.5191 H   0  0  0  0  0  0  0  0  0  0  0  0
   -0.5335   -2.2069    2.0773 H   0  0  0  0  0  0  0  0  0  0  0  0
   -0.8814   -0.3368   -1.9603 H   0  0  0  0  0  0  0  0  0  0  0  0
   -2.5590   -0.6933   -1.2961 H   0  0  0  0  0  0  0  0  0  0  0  0
   -2.1268    0.9285   -1.8631 H   0  0  0  0  0  0  0  0  0  0  0  0
   -0.4243    2.2671    1.0505 H   0  0  0  0  0  0  0  0  0  0  0  0
   -1.4297    2.6450   -0.5347 H   0  0  0  0  0  0  0  0  0  0  0  0
  1  2  1  0
  2  3  1  0
  3  4  1  0
  4  5  1  0
  4  6  1  0
  6  7  1  0
  6  8  1  0
  8  9  1  0
  9  6  1  0
  1 10  1  0
  1 11  1  0
  1 12  1  0
  2 13  1  0
  2 14  1  0
  3 15  1  0
  3 16  1  0
  4 17  1  0
  5 18  1  0
  5 19  1  0
  5 20  1  0
  7 21  1  0
  7 22  1  0
  7 23  1  0
  8 24  1  0
  8 25  1  0
M  END
