
     RDKit          3D

 24 23  0  0  0  0  0  0  0  0999 V2000
   -2.7784    0.4634    0.8553 C   0  0  0  0  0  0  0  0  0  0  0  0
   -2.3880   -0.7578    0.0892 C   0  0  0  0  0  0  0  0  0  0  0  0
   -1.2372   -0.4645   -0.8637 C   0  0  0  0  0  0  0  0  0  0  0  0
   -0.0697    0.0089   -0.0242 C   0  0  0  0  0  0  0  0  0  0  0  0
    1.0953    0.3084   -0.9694 C   0  0  0  0  0  0  0  0  0  0  0  0
    1.4607   -0.8196   -1.6755 O   0  0  0  0  0  0  0  0  0  0  0  0
    2.2192    0.8952   -0.1621 C   0  0  0  0  0  0  0  0  0  0  0  0
    2.7060   -0.0356    0.9155 C   0  0  0  0  0  0  0  0  0  0  0  0
   -2.8242    1.3428    0.1610 H   0  0  0  0  0  0  0  0  0  0  0  0
   -2.0738    0.7141    1.6513 H   0  0  0  0  0  0  0  0  0  0  0  0
   -3.8222    0.3209    1.2148 H   0  0  0  0  0  0  0  0  0  0  0  0
   -3.2543   -1.1717   -0.4601 H   0  0  0  0  0  0  0  0  0  0  0  0
   -2.0179   -1.5308    0.7953 H   0  0  0  0  0  0  0  0  0  0  0  0
   -1.5122    0.2601   -1.6485 H   0  0  0  0  0  0  0  0  0  0  0  0
   -1.0073   -1.4231   -1.3703 H   0  0  0  0  0  0  0  0  0  0  0  0
   -0.3275    0.9038    0.5690 H   0  0  0  0  0  0  0  0  0  0  0  0
    0.2596   -0.8150    0.6319 H   0  0  0  0  0  0  0  0  0  0  0  0
    0.7947    1.0834   -1.7152 H   0  0  0  0  0  0  0  0  0  0  0  0
    1.2872   -1.6367   -1.1776 H   0  0  0  0  0  0  0  0  0  0  0  0
    1.8128    1.7996    0.3499 H   0  0  0  0  0  0  0  0  0  0  0  0
    3.0434    1.2356   -0.8180 H   0  0  0  0  0  0  0  0  0  0  0  0
    2.7147   -1.0951    0.6154 H   0  0  0  0  0  0  0  0  0  0  0  0
    3.7633    0.2822    1.1519 H   0  0  0  0  0  0  0  0  0  0  0  0
    2.1559    0.1313    1.8839 H   0  0  0  0  0  0  0  0  0  0  0  0
  1  2  1  0
  2  3  1  0
  3  4  1  0
  4  5  1  0
  5  6  1  0
  5  7  1  0
  7  8  1  0
  1  9  1  0
  1 10  1  0
  1 11  1  0
  2 12  1  0
  2 13  1  0
  3 14  1  0
  3 15  1  0
  4 16  1  0
  4 17  1  0
  5 18  1  0
  6 19  1  0
  7 20  1  0
  7 21  1  0
  8 22  1  0
  8 23  1  0
  8 24  1  0
M  END
