
     RDKit          3D

 23 22  0  0  0  0  0  0  0  0999 V2000
    2.7684   -0.0574    0.1568 C   0  0  0  0  0  0  0  0  0  0  0  0
    1.3784    0.0262   -0.5121 C   0  0  0  0  0  0  0  0  0  0  0  0
    0.3955    0.1899    0.5807 C   0  0  0  0  0  0  0  0  0  0  0  0
   -1.0370    0.2984    0.2527 C   0  0  0  0  0  0  0  0  0  0  0  0
   -1.2820    1.5098   -0.6119 C   0  0  0  0  0  0  0  0  0  0  0  0
   -0.6221    1.4792   -1.8094 O   0  0  0  0  0  0  0  0  0  0  0  0
   -1.5831   -0.9565   -0.4241 C   0  0  0  0  0  0  0  0  0  0  0  0
   -1.4428   -2.1650    0.4226 C   0  0  0  0  0  0  0  0  0  0  0  0
   -2.3784   -2.6496    1.0703 O   0  0  0  0  0  0  0  0  0  0  0  0
    2.9955   -1.1320    0.3735 H   0  0  0  0  0  0  0  0  0  0  0  0
    3.5686    0.3106   -0.4981 H   0  0  0  0  0  0  0  0  0  0  0  0
    2.8041    0.5800    1.0749 H   0  0  0  0  0  0  0  0  0  0  0  0
    1.2629   -0.9220   -1.0848 H   0  0  0  0  0  0  0  0  0  0  0  0
    1.4721    0.8474   -1.2271 H   0  0  0  0  0  0  0  0  0  0  0  0
    0.5773   -0.6790    1.2897 H   0  0  0  0  0  0  0  0  0  0  0  0
    0.7576    1.0628    1.2086 H   0  0  0  0  0  0  0  0  0  0  0  0
   -1.6163    0.3929    1.1868 H   0  0  0  0  0  0  0  0  0  0  0  0
   -0.9306    2.4229   -0.0624 H   0  0  0  0  0  0  0  0  0  0  0  0
   -2.3744    1.5736   -0.7968 H   0  0  0  0  0  0  0  0  0  0  0  0
   -0.4477    2.4097   -2.1058 H   0  0  0  0  0  0  0  0  0  0  0  0
   -1.1371   -1.1776   -1.3888 H   0  0  0  0  0  0  0  0  0  0  0  0
   -2.6925   -0.7426   -0.5361 H   0  0  0  0  0  0  0  0  0  0  0  0
   -0.4362   -2.6217    0.4495 H   0  0  0  0  0  0  0  0  0  0  0  0
  1  2  1  0
  2  3  1  0
  3  4  1  0
  4  5  1  0
  5  6  1  0
  4  7  1  0
  7  8  1  0
  8  9  2  0
  1 10  1  0
  1 11  1  0
  1 12  1  0
  2 13  1  0
  2 14  1  0
  3 15  1  0
  3 16  1  0
  4 17  1  0
  5 18  1  0
  5 19  1  0
  6 20  1  0
  7 21  1  0
  7 22  1  0
  8 23  1  0
M  END
