
     RDKit          3D

 21 20  0  0  0  0  0  0  0  0999 V2000
    2.3942   -0.5192    0.2424 C   0  0  0  0  0  0  0  0  0  0  0  0
    1.3229   -0.7613   -0.7744 C   0  0  0  0  0  0  0  0  0  0  0  0
    0.2745    0.2967   -0.8152 C   0  0  0  0  0  0  0  0  0  0  0  0
   -0.4688    0.4803    0.4676 C   0  0  0  0  0  0  0  0  0  0  0  0
   -1.4958    1.5743    0.2944 C   0  0  0  0  0  0  0  0  0  0  0  0
   -1.2372   -0.7954    0.8135 C   0  0  0  0  0  0  0  0  0  0  0  0
   -2.1529   -1.1320   -0.1597 O   0  0  0  0  0  0  0  0  0  0  0  0
    3.0452    0.3360   -0.0381 H   0  0  0  0  0  0  0  0  0  0  0  0
    3.0421   -1.4365    0.2630 H   0  0  0  0  0  0  0  0  0  0  0  0
    2.0322   -0.3398    1.2590 H   0  0  0  0  0  0  0  0  0  0  0  0
    1.8103   -0.7968   -1.7710 H   0  0  0  0  0  0  0  0  0  0  0  0
    0.8822   -1.7649   -0.6133 H   0  0  0  0  0  0  0  0  0  0  0  0
   -0.4550    0.0273   -1.6046 H   0  0  0  0  0  0  0  0  0  0  0  0
    0.7254    1.2562   -1.1200 H   0  0  0  0  0  0  0  0  0  0  0  0
    0.1621    0.7489    1.3216 H   0  0  0  0  0  0  0  0  0  0  0  0
   -2.5422    1.1852    0.3165 H   0  0  0  0  0  0  0  0  0  0  0  0
   -1.4123    2.3490    1.1119 H   0  0  0  0  0  0  0  0  0  0  0  0
   -1.3837    2.0557   -0.7124 H   0  0  0  0  0  0  0  0  0  0  0  0
   -1.7614   -0.6703    1.7826 H   0  0  0  0  0  0  0  0  0  0  0  0
   -0.4936   -1.6295    0.9000 H   0  0  0  0  0  0  0  0  0  0  0  0
   -2.2881   -0.4641   -0.8568 H   0  0  0  0  0  0  0  0  0  0  0  0
  1  2  1  0
  2  3  1  0
  3  4  1  0
  4  5  1  0
  4  6  1  0
  6  7  1  0
  1  8  1  0
  1  9  1  0
  1 10  1  0
  2 11  1  0
  2 12  1  0
  3 13  1  0
  3 14  1  0
  4 15  1  0
  5 16  1  0
  5 17  1  0
  5 18  1  0
  6 19  1  0
  6 20  1  0
  7 21  1  0
M  END
