
     RDKit          3D

 23 23  0  0  0  0  0  0  0  0999 V2000
    3.1075    0.2628    0.2748 C   0  0  0  0  0  0  0  0  0  0  0  0
    1.6806    0.3950   -0.2731 C   0  0  0  0  0  0  0  0  0  0  0  0
    0.8142   -0.4817    0.5872 C   0  0  0  0  0  0  0  0  0  0  0  0
   -0.6307   -0.4771    0.1928 C   0  0  0  0  0  0  0  0  0  0  0  0
   -0.9618   -0.9335   -1.1824 C   0  0  0  0  0  0  0  0  0  0  0  0
   -1.3799   -1.1927    1.1333 O   0  0  0  0  0  0  0  0  0  0  0  0
   -2.4117   -0.2888    0.9265 C   0  0  0  0  0  0  0  0  0  0  0  0
   -1.3409    0.7671    0.6790 C   0  0  0  0  0  0  0  0  0  0  0  0
   -1.6415    1.7058   -0.2715 O   0  0  0  0  0  0  0  0  0  0  0  0
    3.3746   -0.8009    0.2526 H   0  0  0  0  0  0  0  0  0  0  0  0
    3.0388    0.5618    1.3423 H   0  0  0  0  0  0  0  0  0  0  0  0
    3.8048    0.9164   -0.2738 H   0  0  0  0  0  0  0  0  0  0  0  0
    1.4260    1.4682   -0.1569 H   0  0  0  0  0  0  0  0  0  0  0  0
    1.6665    0.1577   -1.3312 H   0  0  0  0  0  0  0  0  0  0  0  0
    0.9075   -0.1146    1.6300 H   0  0  0  0  0  0  0  0  0  0  0  0
    1.1689   -1.5319    0.5796 H   0  0  0  0  0  0  0  0  0  0  0  0
   -1.7100   -1.7714   -1.2007 H   0  0  0  0  0  0  0  0  0  0  0  0
   -1.4316   -0.1231   -1.7920 H   0  0  0  0  0  0  0  0  0  0  0  0
   -0.0610   -1.3490   -1.6922 H   0  0  0  0  0  0  0  0  0  0  0  0
   -2.9809   -0.4247   -0.0205 H   0  0  0  0  0  0  0  0  0  0  0  0
   -3.0863   -0.0991    1.7566 H   0  0  0  0  0  0  0  0  0  0  0  0
   -0.9393    1.1105    1.6312 H   0  0  0  0  0  0  0  0  0  0  0  0
   -2.4141    2.2433    0.0645 H   0  0  0  0  0  0  0  0  0  0  0  0
  1  2  1  0
  2  3  1  0
  3  4  1  0
  4  5  1  0
  4  6  1  0
  6  7  1  0
  7  8  1  0
  8  9  1  0
  8  4  1  0
  1 10  1  0
  1 11  1  0
  1 12  1  0
  2 13  1  0
  2 14  1  0
  3 15  1  0
  3 16  1  0
  5 17  1  0
  5 18  1  0
  5 19  1  0
  7 20  1  0
  7 21  1  0
  8 22  1  0
  9 23  1  0
M  END
