
     RDKit          3D

 23 23  0  0  0  0  0  0  0  0999 V2000
    2.6407    0.0298    0.0487 C   0  0  0  0  0  0  0  0  0  0  0  0
    1.7475   -1.0150   -0.5496 C   0  0  0  0  0  0  0  0  0  0  0  0
    0.5887   -0.4158   -1.2910 C   0  0  0  0  0  0  0  0  0  0  0  0
   -0.2677    0.4239   -0.3862 C   0  0  0  0  0  0  0  0  0  0  0  0
   -1.3455    0.9910   -1.0640 O   0  0  0  0  0  0  0  0  0  0  0  0
   -2.3678    1.2171   -0.1811 C   0  0  0  0  0  0  0  0  0  0  0  0
   -1.9863    0.6234    1.1400 C   0  0  0  0  0  0  0  0  0  0  0  0
   -0.9481   -0.4101    0.6791 C   0  0  0  0  0  0  0  0  0  0  0  0
   -0.0201   -0.6525    1.6832 O   0  0  0  0  0  0  0  0  0  0  0  0
    2.1380    0.7289    0.7169 H   0  0  0  0  0  0  0  0  0  0  0  0
    3.1882    0.5594   -0.7597 H   0  0  0  0  0  0  0  0  0  0  0  0
    3.4096   -0.5056    0.6663 H   0  0  0  0  0  0  0  0  0  0  0  0
    2.3992   -1.6068   -1.2563 H   0  0  0  0  0  0  0  0  0  0  0  0
    1.4398   -1.7302    0.2457 H   0  0  0  0  0  0  0  0  0  0  0  0
    0.9508    0.1252   -2.1744 H   0  0  0  0  0  0  0  0  0  0  0  0
   -0.0627   -1.2849   -1.6031 H   0  0  0  0  0  0  0  0  0  0  0  0
    0.2712    1.2541    0.1112 H   0  0  0  0  0  0  0  0  0  0  0  0
   -2.6253    2.2948   -0.1081 H   0  0  0  0  0  0  0  0  0  0  0  0
   -3.2908    0.7175   -0.5925 H   0  0  0  0  0  0  0  0  0  0  0  0
   -2.8221    0.1397    1.6706 H   0  0  0  0  0  0  0  0  0  0  0  0
   -1.4428    1.3730    1.7250 H   0  0  0  0  0  0  0  0  0  0  0  0
   -1.4160   -1.3127    0.2778 H   0  0  0  0  0  0  0  0  0  0  0  0
   -0.1786   -1.5441    2.0783 H   0  0  0  0  0  0  0  0  0  0  0  0
  1  2  1  0
  2  3  1  0
  3  4  1  0
  4  5  1  0
  5  6  1  0
  6  7  1  0
  7  8  1  0
  8  9  1  0
  8  4  1  0
  1 10  1  0
  1 11  1  0
  1 12  1  0
  2 13  1  0
  2 14  1  0
  3 15  1  0
  3 16  1  0
  4 17  1  0
  6 18  1  0
  6 19  1  0
  7 20  1  0
  7 21  1  0
  8 22  1  0
  9 23  1  0
M  END
