
     RDKit          3D

 21 20  0  0  0  0  0  0  0  0999 V2000
   -3.6948    0.0954   -0.6279 C   0  0  0  0  0  0  0  0  0  0  0  0
   -2.4026   -0.1836    0.0646 C   0  0  0  0  0  0  0  0  0  0  0  0
   -1.1916    0.1965   -0.7146 C   0  0  0  0  0  0  0  0  0  0  0  0
    0.0230   -0.1268    0.0721 C   0  0  0  0  0  0  0  0  0  0  0  0
   -0.1261   -0.6488    1.2254 O   0  0  0  0  0  0  0  0  0  0  0  0
    1.3663    0.1189   -0.4000 C   0  0  0  0  0  0  0  0  0  0  0  0
    1.5420    0.6284   -1.5240 O   0  0  0  0  0  0  0  0  0  0  0  0
    2.5338   -0.2245    0.4285 C   0  0  0  0  0  0  0  0  0  0  0  0
    3.8421    0.1143   -0.2520 C   0  0  0  0  0  0  0  0  0  0  0  0
   -3.5883    0.6128   -1.5946 H   0  0  0  0  0  0  0  0  0  0  0  0
   -4.4079    0.7036   -0.0200 H   0  0  0  0  0  0  0  0  0  0  0  0
   -4.2149   -0.8835   -0.7837 H   0  0  0  0  0  0  0  0  0  0  0  0
   -2.3973    0.4421    1.0051 H   0  0  0  0  0  0  0  0  0  0  0  0
   -2.3120   -1.2390    0.3806 H   0  0  0  0  0  0  0  0  0  0  0  0
   -1.2018    1.2520   -1.0505 H   0  0  0  0  0  0  0  0  0  0  0  0
   -1.1821   -0.4130   -1.6541 H   0  0  0  0  0  0  0  0  0  0  0  0
    2.4437    0.2829    1.4163 H   0  0  0  0  0  0  0  0  0  0  0  0
    2.5473   -1.3451    0.5712 H   0  0  0  0  0  0  0  0  0  0  0  0
    4.0402   -0.6905   -0.9865 H   0  0  0  0  0  0  0  0  0  0  0  0
    4.6033    0.2029    0.5278 H   0  0  0  0  0  0  0  0  0  0  0  0
    3.7777    1.1050   -0.7630 H   0  0  0  0  0  0  0  0  0  0  0  0
  1  2  1  0
  2  3  1  0
  3  4  1  0
  4  5  2  0
  4  6  1  0
  6  7  2  0
  6  8  1  0
  8  9  1  0
  1 10  1  0
  1 11  1  0
  1 12  1  0
  2 13  1  0
  2 14  1  0
  3 15  1  0
  3 16  1  0
  8 17  1  0
  8 18  1  0
  9 19  1  0
  9 20  1  0
  9 21  1  0
M  END
