
     RDKit          3D

 25 26  0  0  0  0  0  0  0  0999 V2000
    2.9761    0.0087   -0.1545 C   0  0  0  0  0  0  0  0  0  0  0  0
    1.9495    1.0872   -0.0533 C   0  0  0  0  0  0  0  0  0  0  0  0
    0.6772    0.7626   -0.8059 C   0  0  0  0  0  0  0  0  0  0  0  0
    0.0979   -0.4784   -0.2461 C   0  0  0  0  0  0  0  0  0  0  0  0
   -1.1806   -0.9788   -0.8584 C   0  0  0  0  0  0  0  0  0  0  0  0
   -2.1078    0.2024   -0.8102 C   0  0  0  0  0  0  0  0  0  0  0  0
   -1.8153    0.6817    0.6262 C   0  0  0  0  0  0  0  0  0  0  0  0
   -0.7719   -0.3115    1.0024 C   0  0  0  0  0  0  0  0  0  0  0  0
   -1.4339   -1.6132    0.5201 C   0  0  0  0  0  0  0  0  0  0  0  0
    3.1540   -0.2015   -1.2197 H   0  0  0  0  0  0  0  0  0  0  0  0
    2.7502   -0.8854    0.4511 H   0  0  0  0  0  0  0  0  0  0  0  0
    3.9334    0.4183    0.2460 H   0  0  0  0  0  0  0  0  0  0  0  0
    2.3824    1.9984   -0.5546 H   0  0  0  0  0  0  0  0  0  0  0  0
    1.7371    1.4018    0.9894 H   0  0  0  0  0  0  0  0  0  0  0  0
    0.8970    0.6304   -1.8735 H   0  0  0  0  0  0  0  0  0  0  0  0
    0.0020    1.6138   -0.6872 H   0  0  0  0  0  0  0  0  0  0  0  0
    0.8078   -1.3184   -0.1441 H   0  0  0  0  0  0  0  0  0  0  0  0
   -1.1619   -1.6213   -1.6978 H   0  0  0  0  0  0  0  0  0  0  0  0
   -3.1396   -0.1496   -0.9118 H   0  0  0  0  0  0  0  0  0  0  0  0
   -1.8899    0.9824   -1.5375 H   0  0  0  0  0  0  0  0  0  0  0  0
   -2.7420    0.5147    1.2069 H   0  0  0  0  0  0  0  0  0  0  0  0
   -1.5227    1.7248    0.6616 H   0  0  0  0  0  0  0  0  0  0  0  0
   -0.3065   -0.3144    1.9471 H   0  0  0  0  0  0  0  0  0  0  0  0
   -2.4918   -1.6751    0.7944 H   0  0  0  0  0  0  0  0  0  0  0  0
   -0.8008   -2.4798    0.7007 H   0  0  0  0  0  0  0  0  0  0  0  0
  1  2  1  0
  2  3  1  0
  3  4  1  0
  4  5  1  0
  5  6  1  0
  6  7  1  0
  7  8  1  0
  8  9  1  0
  8  4  1  0
  9  5  1  0
  1 10  1  0
  1 11  1  0
  1 12  1  0
  2 13  1  0
  2 14  1  0
  3 15  1  0
  3 16  1  0
  4 17  1  0
  5 18  1  0
  6 19  1  0
  6 20  1  0
  7 21  1  0
  7 22  1  0
  8 23  1  0
  9 24  1  0
  9 25  1  0
M  END
