
     RDKit          3D

 20 21  0  0  0  0  0  0  0  0999 V2000
   -2.8766   -0.3779    0.0549 C   0  0  0  0  0  0  0  0  0  0  0  0
   -1.4322   -0.4200    0.5452 C   0  0  0  0  0  0  0  0  0  0  0  0
   -0.5886    0.6069   -0.2007 C   0  0  0  0  0  0  0  0  0  0  0  0
    0.8184    0.5218    0.3202 C   0  0  0  0  0  0  0  0  0  0  0  0
    1.5194   -0.7812    0.1731 C   0  0  0  0  0  0  0  0  0  0  0  0
    2.7428   -0.1157   -0.4000 C   0  0  0  0  0  0  0  0  0  0  0  0
    3.1315    1.1364   -0.0244 O   0  0  0  0  0  0  0  0  0  0  0  0
    1.8751    1.1269   -0.5715 C   0  0  0  0  0  0  0  0  0  0  0  0
   -3.3906   -1.3197    0.3119 H   0  0  0  0  0  0  0  0  0  0  0  0
   -2.8084   -0.2811   -1.0688 H   0  0  0  0  0  0  0  0  0  0  0  0
   -3.4179    0.4873    0.4936 H   0  0  0  0  0  0  0  0  0  0  0  0
   -1.0252   -1.4441    0.4464 H   0  0  0  0  0  0  0  0  0  0  0  0
   -1.4713   -0.1765    1.6226 H   0  0  0  0  0  0  0  0  0  0  0  0
   -0.9884    1.6004    0.0818 H   0  0  0  0  0  0  0  0  0  0  0  0
   -0.6744    0.4670   -1.2792 H   0  0  0  0  0  0  0  0  0  0  0  0
    0.9202    0.9423    1.3423 H   0  0  0  0  0  0  0  0  0  0  0  0
    1.6727   -1.3828    1.0804 H   0  0  0  0  0  0  0  0  0  0  0  0
    1.0664   -1.4173   -0.6336 H   0  0  0  0  0  0  0  0  0  0  0  0
    3.2552   -0.5425   -1.2684 H   0  0  0  0  0  0  0  0  0  0  0  0
    1.6720    1.3698   -1.6107 H   0  0  0  0  0  0  0  0  0  0  0  0
  1  2  1  0
  2  3  1  0
  3  4  1  0
  4  5  1  0
  5  6  1  0
  6  7  1  0
  7  8  1  0
  8  4  1  0
  8  6  1  0
  1  9  1  0
  1 10  1  0
  1 11  1  0
  2 12  1  0
  2 13  1  0
  3 14  1  0
  3 15  1  0
  4 16  1  0
  5 17  1  0
  5 18  1  0
  6 19  1  0
  8 20  1  0
M  END
