
     RDKit          3D

 25 26  0  0  0  0  0  0  0  0999 V2000
   -3.4676   -0.3488    0.2234 C   0  0  0  0  0  0  0  0  0  0  0  0
   -2.2925    0.5764    0.2494 C   0  0  0  0  0  0  0  0  0  0  0  0
   -1.0086   -0.1158    0.6799 C   0  0  0  0  0  0  0  0  0  0  0  0
    0.0817    0.9217    0.6617 C   0  0  0  0  0  0  0  0  0  0  0  0
    1.4732    0.5888    1.0295 C   0  0  0  0  0  0  0  0  0  0  0  0
    2.0216   -0.7999    0.9172 C   0  0  0  0  0  0  0  0  0  0  0  0
    2.6075   -0.7987   -0.4928 C   0  0  0  0  0  0  0  0  0  0  0  0
    1.4474   -0.1648   -1.2653 C   0  0  0  0  0  0  0  0  0  0  0  0
    1.0957    0.9939   -0.3907 C   0  0  0  0  0  0  0  0  0  0  0  0
   -3.2538   -1.3615    0.5646 H   0  0  0  0  0  0  0  0  0  0  0  0
   -4.3220    0.0285    0.8465 H   0  0  0  0  0  0  0  0  0  0  0  0
   -3.8936   -0.4373   -0.8083 H   0  0  0  0  0  0  0  0  0  0  0  0
   -2.5269    1.3926    0.9933 H   0  0  0  0  0  0  0  0  0  0  0  0
   -2.1873    1.0599   -0.7193 H   0  0  0  0  0  0  0  0  0  0  0  0
   -0.8377   -0.9687    0.0284 H   0  0  0  0  0  0  0  0  0  0  0  0
   -1.1093   -0.4849    1.7202 H   0  0  0  0  0  0  0  0  0  0  0  0
   -0.2712    1.9123    1.0573 H   0  0  0  0  0  0  0  0  0  0  0  0
    2.0832    1.2754    1.6383 H   0  0  0  0  0  0  0  0  0  0  0  0
    1.2510   -1.5871    0.9282 H   0  0  0  0  0  0  0  0  0  0  0  0
    2.8452   -1.0062    1.6254 H   0  0  0  0  0  0  0  0  0  0  0  0
    2.8529   -1.7974   -0.8501 H   0  0  0  0  0  0  0  0  0  0  0  0
    3.4478   -0.0979   -0.5759 H   0  0  0  0  0  0  0  0  0  0  0  0
    1.7722    0.1821   -2.2658 H   0  0  0  0  0  0  0  0  0  0  0  0
    0.6513   -0.9150   -1.3651 H   0  0  0  0  0  0  0  0  0  0  0  0
    1.5398    1.9523   -0.6936 H   0  0  0  0  0  0  0  0  0  0  0  0
  1  2  1  0
  2  3  1  0
  3  4  1  0
  4  5  1  0
  5  6  1  0
  6  7  1  0
  7  8  1  0
  8  9  1  0
  9  4  1  0
  9  5  1  0
  1 10  1  0
  1 11  1  0
  1 12  1  0
  2 13  1  0
  2 14  1  0
  3 15  1  0
  3 16  1  0
  4 17  1  0
  5 18  1  0
  6 19  1  0
  6 20  1  0
  7 21  1  0
  7 22  1  0
  8 23  1  0
  8 24  1  0
  9 25  1  0
M  END
