
     RDKit          3D

 22 21  0  0  0  0  0  0  0  0999 V2000
   -2.7586   -0.7630   -0.2919 C   0  0  0  0  0  0  0  0  0  0  0  0
   -1.7615    0.2989    0.1248 C   0  0  0  0  0  0  0  0  0  0  0  0
   -0.3886   -0.3136   -0.0563 C   0  0  0  0  0  0  0  0  0  0  0  0
    0.7162    0.6296    0.3204 C   0  0  0  0  0  0  0  0  0  0  0  0
    0.6198    1.8614   -0.5616 C   0  0  0  0  0  0  0  0  0  0  0  0
    2.0139   -0.0385    0.0188 C   0  0  0  0  0  0  0  0  0  0  0  0
    2.3465   -1.3080    0.6846 C   0  0  0  0  0  0  0  0  0  0  0  0
    2.8244    0.4383   -0.7744 O   0  0  0  0  0  0  0  0  0  0  0  0
   -3.0767   -0.5291   -1.3321 H   0  0  0  0  0  0  0  0  0  0  0  0
   -2.2991   -1.7722   -0.3286 H   0  0  0  0  0  0  0  0  0  0  0  0
   -3.6194   -0.8163    0.4059 H   0  0  0  0  0  0  0  0  0  0  0  0
   -1.8991    1.2126   -0.4861 H   0  0  0  0  0  0  0  0  0  0  0  0
   -1.9654    0.5357    1.1901 H   0  0  0  0  0  0  0  0  0  0  0  0
   -0.2879   -0.5483   -1.1341 H   0  0  0  0  0  0  0  0  0  0  0  0
   -0.3761   -1.2588    0.4876 H   0  0  0  0  0  0  0  0  0  0  0  0
    0.7300    0.8904    1.3865 H   0  0  0  0  0  0  0  0  0  0  0  0
    1.5646    2.4293   -0.4208 H   0  0  0  0  0  0  0  0  0  0  0  0
    0.5549    1.5286   -1.5960 H   0  0  0  0  0  0  0  0  0  0  0  0
   -0.1953    2.5331   -0.2345 H   0  0  0  0  0  0  0  0  0  0  0  0
    3.1942   -1.8122    0.1719 H   0  0  0  0  0  0  0  0  0  0  0  0
    2.5578   -1.1476    1.7708 H   0  0  0  0  0  0  0  0  0  0  0  0
    1.5052   -2.0501    0.6551 H   0  0  0  0  0  0  0  0  0  0  0  0
  1  2  1  0
  2  3  1  0
  3  4  1  0
  4  5  1  0
  4  6  1  0
  6  7  1  0
  6  8  2  0
  1  9  1  0
  1 10  1  0
  1 11  1  0
  2 12  1  0
  2 13  1  0
  3 14  1  0
  3 15  1  0
  4 16  1  0
  5 17  1  0
  5 18  1  0
  5 19  1  0
  7 20  1  0
  7 21  1  0
  7 22  1  0
M  END
