
     RDKit          3D

 23 24  0  0  0  0  0  0  0  0999 V2000
    3.0489    0.6691   -0.1938 C   0  0  0  0  0  0  0  0  0  0  0  0
    1.5591    0.7105   -0.5391 C   0  0  0  0  0  0  0  0  0  0  0  0
    0.8818   -0.3641    0.2793 C   0  0  0  0  0  0  0  0  0  0  0  0
   -0.5842   -0.4535    0.0560 C   0  0  0  0  0  0  0  0  0  0  0  0
   -1.4814    0.7104    0.3362 C   0  0  0  0  0  0  0  0  0  0  0  0
   -2.3666    0.7714   -0.8711 C   0  0  0  0  0  0  0  0  0  0  0  0
   -2.3133   -0.4385   -1.5086 O   0  0  0  0  0  0  0  0  0  0  0  0
   -1.1858   -1.1084   -1.1190 C   0  0  0  0  0  0  0  0  0  0  0  0
   -1.2387   -1.8058    0.2143 C   0  0  0  0  0  0  0  0  0  0  0  0
    3.3483   -0.3372    0.1809 H   0  0  0  0  0  0  0  0  0  0  0  0
    3.2352    1.3941    0.6227 H   0  0  0  0  0  0  0  0  0  0  0  0
    3.6640    0.9753   -1.0587 H   0  0  0  0  0  0  0  0  0  0  0  0
    1.1948    1.7053   -0.2823 H   0  0  0  0  0  0  0  0  0  0  0  0
    1.5017    0.4800   -1.6218 H   0  0  0  0  0  0  0  0  0  0  0  0
    1.0762   -0.2037    1.3589 H   0  0  0  0  0  0  0  0  0  0  0  0
    1.3410   -1.3470    0.0314 H   0  0  0  0  0  0  0  0  0  0  0  0
   -2.0584    0.4851    1.2627 H   0  0  0  0  0  0  0  0  0  0  0  0
   -0.8990    1.6697    0.4516 H   0  0  0  0  0  0  0  0  0  0  0  0
   -3.3961    1.0380   -0.5074 H   0  0  0  0  0  0  0  0  0  0  0  0
   -1.9974    1.6097   -1.5290 H   0  0  0  0  0  0  0  0  0  0  0  0
   -0.5560   -1.5470   -1.9332 H   0  0  0  0  0  0  0  0  0  0  0  0
   -2.1942   -1.9073    0.7422 H   0  0  0  0  0  0  0  0  0  0  0  0
   -0.5799   -2.7062    0.3083 H   0  0  0  0  0  0  0  0  0  0  0  0
  1  2  1  0
  2  3  1  0
  3  4  1  0
  4  5  1  0
  5  6  1  0
  6  7  1  0
  7  8  1  0
  8  9  1  0
  8  4  1  0
  9  4  1  0
  1 10  1  0
  1 11  1  0
  1 12  1  0
  2 13  1  0
  2 14  1  0
  3 15  1  0
  3 16  1  0
  5 17  1  0
  5 18  1  0
  6 19  1  0
  6 20  1  0
  8 21  1  0
  9 22  1  0
  9 23  1  0
M  END
