
     RDKit          3D

 25 25  0  0  0  0  0  0  0  0999 V2000
    2.1350    1.1152    0.4858 C   0  0  0  0  0  0  0  0  0  0  0  0
    1.9451   -0.3517    0.4844 C   0  0  0  0  0  0  0  0  0  0  0  0
    0.5508   -0.8615    0.6756 C   0  0  0  0  0  0  0  0  0  0  0  0
   -0.4662   -0.4814   -0.3167 C   0  0  0  0  0  0  0  0  0  0  0  0
   -0.8302    0.9355   -0.5437 C   0  0  0  0  0  0  0  0  0  0  0  0
   -1.3931    1.6488    0.6690 C   0  0  0  0  0  0  0  0  0  0  0  0
   -1.6881   -1.4137   -0.1578 C   0  0  0  0  0  0  0  0  0  0  0  0
   -0.9498   -2.3556   -0.8789 O   0  0  0  0  0  0  0  0  0  0  0  0
   -0.4734   -1.2507   -1.6184 C   0  0  0  0  0  0  0  0  0  0  0  0
    1.4112    1.6940    1.0465 H   0  0  0  0  0  0  0  0  0  0  0  0
    2.3367    1.4578   -0.5524 H   0  0  0  0  0  0  0  0  0  0  0  0
    3.1264    1.3292    1.0111 H   0  0  0  0  0  0  0  0  0  0  0  0
    2.5749   -0.8332    1.2986 H   0  0  0  0  0  0  0  0  0  0  0  0
    2.3107   -0.8347   -0.4704 H   0  0  0  0  0  0  0  0  0  0  0  0
    0.1418   -0.5605    1.6942 H   0  0  0  0  0  0  0  0  0  0  0  0
    0.6644   -1.9883    0.7440 H   0  0  0  0  0  0  0  0  0  0  0  0
    0.0124    1.4967   -0.9369 H   0  0  0  0  0  0  0  0  0  0  0  0
   -1.6062    0.9500   -1.3629 H   0  0  0  0  0  0  0  0  0  0  0  0
   -2.4668    1.8515    0.5115 H   0  0  0  0  0  0  0  0  0  0  0  0
   -1.2559    0.9296    1.5280 H   0  0  0  0  0  0  0  0  0  0  0  0
   -0.8527    2.5990    0.8383 H   0  0  0  0  0  0  0  0  0  0  0  0
   -1.8228   -1.7546    0.8762 H   0  0  0  0  0  0  0  0  0  0  0  0
   -2.5958   -1.0411   -0.6489 H   0  0  0  0  0  0  0  0  0  0  0  0
    0.4768   -1.3971   -2.1141 H   0  0  0  0  0  0  0  0  0  0  0  0
   -1.2853   -0.8834   -2.2622 H   0  0  0  0  0  0  0  0  0  0  0  0
  1  2  1  0
  2  3  1  0
  3  4  1  0
  4  5  1  0
  5  6  1  0
  4  7  1  0
  7  8  1  0
  8  9  1  0
  9  4  1  0
  1 10  1  0
  1 11  1  0
  1 12  1  0
  2 13  1  0
  2 14  1  0
  3 15  1  0
  3 16  1  0
  5 17  1  0
  5 18  1  0
  6 19  1  0
  6 20  1  0
  6 21  1  0
  7 22  1  0
  7 23  1  0
  9 24  1  0
  9 25  1  0
M  END
