
     RDKit          3D

 27 26  0  0  0  0  0  0  0  0999 V2000
    3.0896   -1.0355    0.6784 C   0  0  0  0  0  0  0  0  0  0  0  0
    2.0667    0.0437    0.2944 C   0  0  0  0  0  0  0  0  0  0  0  0
    0.7124   -0.6115    0.1022 C   0  0  0  0  0  0  0  0  0  0  0  0
   -0.3009    0.3971   -0.2707 C   0  0  0  0  0  0  0  0  0  0  0  0
   -0.3624    1.3274    0.7663 O   0  0  0  0  0  0  0  0  0  0  0  0
   -0.0098    2.6043    0.3714 C   0  0  0  0  0  0  0  0  0  0  0  0
   -1.6721   -0.0832   -0.5344 C   0  0  0  0  0  0  0  0  0  0  0  0
   -1.8424   -1.0658   -1.6309 C   0  0  0  0  0  0  0  0  0  0  0  0
   -2.3066   -0.6138    0.7336 C   0  0  0  0  0  0  0  0  0  0  0  0
    3.0947   -1.1717    1.7846 H   0  0  0  0  0  0  0  0  0  0  0  0
    4.0730   -0.8406    0.2497 H   0  0  0  0  0  0  0  0  0  0  0  0
    2.7060   -1.9811    0.2399 H   0  0  0  0  0  0  0  0  0  0  0  0
    2.4471    0.5379   -0.5993 H   0  0  0  0  0  0  0  0  0  0  0  0
    2.0477    0.7383    1.1612 H   0  0  0  0  0  0  0  0  0  0  0  0
    0.8593   -1.4313   -0.6172 H   0  0  0  0  0  0  0  0  0  0  0  0
    0.4725   -1.0925    1.0756 H   0  0  0  0  0  0  0  0  0  0  0  0
    0.0373    0.9765   -1.1724 H   0  0  0  0  0  0  0  0  0  0  0  0
   -0.0937    3.2525    1.2687 H   0  0  0  0  0  0  0  0  0  0  0  0
   -0.6250    2.9773   -0.4744 H   0  0  0  0  0  0  0  0  0  0  0  0
    1.0313    2.5815    0.0168 H   0  0  0  0  0  0  0  0  0  0  0  0
   -2.2869    0.8274   -0.8057 H   0  0  0  0  0  0  0  0  0  0  0  0
   -0.9111   -1.3712   -2.1405 H   0  0  0  0  0  0  0  0  0  0  0  0
   -2.5366   -0.7174   -2.4243 H   0  0  0  0  0  0  0  0  0  0  0  0
   -2.2990   -2.0244   -1.2483 H   0  0  0  0  0  0  0  0  0  0  0  0
   -2.7570    0.2197    1.3150 H   0  0  0  0  0  0  0  0  0  0  0  0
   -3.0953   -1.3635    0.4795 H   0  0  0  0  0  0  0  0  0  0  0  0
   -1.5388   -1.0801    1.3808 H   0  0  0  0  0  0  0  0  0  0  0  0
  1  2  1  0
  2  3  1  0
  3  4  1  0
  4  5  1  0
  5  6  1  0
  4  7  1  0
  7  8  1  0
  7  9  1  0
  1 10  1  0
  1 11  1  0
  1 12  1  0
  2 13  1  0
  2 14  1  0
  3 15  1  0
  3 16  1  0
  4 17  1  0
  6 18  1  0
  6 19  1  0
  6 20  1  0
  7 21  1  0
  8 22  1  0
  8 23  1  0
  8 24  1  0
  9 25  1  0
  9 26  1  0
  9 27  1  0
M  END
