
     RDKit          3D

 23 24  0  0  0  0  0  0  0  0999 V2000
    3.0636    0.6368   -0.0481 C   0  0  0  0  0  0  0  0  0  0  0  0
    1.7556    0.2983    0.5848 C   0  0  0  0  0  0  0  0  0  0  0  0
    0.8227   -0.3111   -0.4405 C   0  0  0  0  0  0  0  0  0  0  0  0
   -0.5129   -0.6673    0.1633 C   0  0  0  0  0  0  0  0  0  0  0  0
   -0.3969   -1.5941    1.2054 O   0  0  0  0  0  0  0  0  0  0  0  0
   -1.4845   -1.1387   -0.8889 C   0  0  0  0  0  0  0  0  0  0  0  0
   -2.5081   -0.2379   -0.2355 C   0  0  0  0  0  0  0  0  0  0  0  0
   -2.2326    1.2124   -0.3787 C   0  0  0  0  0  0  0  0  0  0  0  0
   -1.3839    0.4724    0.5645 C   0  0  0  0  0  0  0  0  0  0  0  0
    3.8774   -0.0233    0.3071 H   0  0  0  0  0  0  0  0  0  0  0  0
    3.0098    0.5338   -1.1707 H   0  0  0  0  0  0  0  0  0  0  0  0
    3.3466    1.7010    0.1420 H   0  0  0  0  0  0  0  0  0  0  0  0
    1.9294   -0.4281    1.3931 H   0  0  0  0  0  0  0  0  0  0  0  0
    1.2843    1.2070    0.9760 H   0  0  0  0  0  0  0  0  0  0  0  0
    0.6450    0.3492   -1.2922 H   0  0  0  0  0  0  0  0  0  0  0  0
    1.2877   -1.2596   -0.7844 H   0  0  0  0  0  0  0  0  0  0  0  0
    0.0992   -1.1514    1.9297 H   0  0  0  0  0  0  0  0  0  0  0  0
   -1.7130   -2.2207   -0.8119 H   0  0  0  0  0  0  0  0  0  0  0  0
   -1.1719   -0.8452   -1.8971 H   0  0  0  0  0  0  0  0  0  0  0  0
   -3.3427   -0.6463    0.3210 H   0  0  0  0  0  0  0  0  0  0  0  0
   -3.0141    1.8676    0.0570 H   0  0  0  0  0  0  0  0  0  0  0  0
   -1.8180    1.6133   -1.3280 H   0  0  0  0  0  0  0  0  0  0  0  0
   -1.5427    0.6319    1.6321 H   0  0  0  0  0  0  0  0  0  0  0  0
  1  2  1  0
  2  3  1  0
  3  4  1  0
  4  5  1  0
  4  6  1  0
  6  7  1  0
  7  8  1  0
  8  9  1  0
  9  4  1  0
  9  7  1  0
  1 10  1  0
  1 11  1  0
  1 12  1  0
  2 13  1  0
  2 14  1  0
  3 15  1  0
  3 16  1  0
  5 17  1  0
  6 18  1  0
  6 19  1  0
  7 20  1  0
  8 21  1  0
  8 22  1  0
  9 23  1  0
M  END
