
     RDKit          3D

 23 24  0  0  0  0  0  0  0  0999 V2000
   -3.3102   -0.6095    0.0016 C   0  0  0  0  0  0  0  0  0  0  0  0
   -1.8349   -0.7326    0.2629 C   0  0  0  0  0  0  0  0  0  0  0  0
   -1.0795    0.5118   -0.1404 C   0  0  0  0  0  0  0  0  0  0  0  0
    0.3819    0.4258    0.1036 C   0  0  0  0  0  0  0  0  0  0  0  0
    1.1601    1.6636   -0.2937 C   0  0  0  0  0  0  0  0  0  0  0  0
    1.3746    0.3249   -0.9861 C   0  0  0  0  0  0  0  0  0  0  0  0
    2.5241   -0.4616   -0.4053 C   0  0  0  0  0  0  0  0  0  0  0  0
    2.1555   -0.5746    1.0336 C   0  0  0  0  0  0  0  0  0  0  0  0
    0.8216   -0.3190    1.1767 O   0  0  0  0  0  0  0  0  0  0  0  0
   -3.6955   -1.5139   -0.4917 H   0  0  0  0  0  0  0  0  0  0  0  0
   -3.8749   -0.4826    0.9653 H   0  0  0  0  0  0  0  0  0  0  0  0
   -3.5587    0.2534   -0.6534 H   0  0  0  0  0  0  0  0  0  0  0  0
   -1.4141   -1.5983   -0.3152 H   0  0  0  0  0  0  0  0  0  0  0  0
   -1.6755   -0.8724    1.3587 H   0  0  0  0  0  0  0  0  0  0  0  0
   -1.4867    1.3386    0.5128 H   0  0  0  0  0  0  0  0  0  0  0  0
   -1.3088    0.8201   -1.1782 H   0  0  0  0  0  0  0  0  0  0  0  0
    0.6678    2.4166   -0.9122 H   0  0  0  0  0  0  0  0  0  0  0  0
    1.8828    2.0052    0.4511 H   0  0  0  0  0  0  0  0  0  0  0  0
    1.0607    0.1871   -2.0218 H   0  0  0  0  0  0  0  0  0  0  0  0
    3.4517    0.1612   -0.5691 H   0  0  0  0  0  0  0  0  0  0  0  0
    2.6950   -1.4258   -0.9065 H   0  0  0  0  0  0  0  0  0  0  0  0
    2.3406   -1.6279    1.3537 H   0  0  0  0  0  0  0  0  0  0  0  0
    2.7224    0.1100    1.6879 H   0  0  0  0  0  0  0  0  0  0  0  0
  1  2  1  0
  2  3  1  0
  3  4  1  0
  4  5  1  0
  5  6  1  0
  6  7  1  0
  7  8  1  0
  8  9  1  0
  6  4  1  0
  9  4  1  0
  1 10  1  0
  1 11  1  0
  1 12  1  0
  2 13  1  0
  2 14  1  0
  3 15  1  0
  3 16  1  0
  5 17  1  0
  5 18  1  0
  6 19  1  0
  7 20  1  0
  7 21  1  0
  8 22  1  0
  8 23  1  0
M  END
