
     RDKit          3D

 23 24  0  0  0  0  0  0  0  0999 V2000
    2.6216   -0.2090    0.6649 C   0  0  0  0  0  0  0  0  0  0  0  0
    2.0842   -0.3730   -0.7326 C   0  0  0  0  0  0  0  0  0  0  0  0
    0.9743    0.6351   -0.9479 C   0  0  0  0  0  0  0  0  0  0  0  0
   -0.1570    0.4548    0.0176 C   0  0  0  0  0  0  0  0  0  0  0  0
   -0.8293   -0.8955   -0.0517 C   0  0  0  0  0  0  0  0  0  0  0  0
   -1.9543   -0.7766    0.9696 C   0  0  0  0  0  0  0  0  0  0  0  0
   -2.5321    0.5508    0.4312 C   0  0  0  0  0  0  0  0  0  0  0  0
   -1.4607    0.8148   -0.6066 C   0  0  0  0  0  0  0  0  0  0  0  0
   -1.4093   -0.4498   -1.2443 O   0  0  0  0  0  0  0  0  0  0  0  0
    2.2652    0.7332    1.1357 H   0  0  0  0  0  0  0  0  0  0  0  0
    3.7263   -0.1676    0.6902 H   0  0  0  0  0  0  0  0  0  0  0  0
    2.2814   -1.0912    1.2540 H   0  0  0  0  0  0  0  0  0  0  0  0
    2.9014   -0.0908   -1.4561 H   0  0  0  0  0  0  0  0  0  0  0  0
    1.7377   -1.3828   -0.9472 H   0  0  0  0  0  0  0  0  0  0  0  0
    1.3172    1.6660   -0.9195 H   0  0  0  0  0  0  0  0  0  0  0  0
    0.5647    0.4178   -1.9679 H   0  0  0  0  0  0  0  0  0  0  0  0
    0.0220    0.8116    1.0474 H   0  0  0  0  0  0  0  0  0  0  0  0
   -0.2399   -1.7758   -0.0594 H   0  0  0  0  0  0  0  0  0  0  0  0
   -2.7184   -1.5664    0.8415 H   0  0  0  0  0  0  0  0  0  0  0  0
   -1.5927   -0.6473    1.9893 H   0  0  0  0  0  0  0  0  0  0  0  0
   -2.5785    1.3114    1.2115 H   0  0  0  0  0  0  0  0  0  0  0  0
   -3.4737    0.3577   -0.0871 H   0  0  0  0  0  0  0  0  0  0  0  0
   -1.5503    1.6726   -1.2327 H   0  0  0  0  0  0  0  0  0  0  0  0
  1  2  1  0
  2  3  1  0
  3  4  1  0
  4  5  1  0
  5  6  1  0
  6  7  1  0
  7  8  1  0
  8  9  1  0
  8  4  1  0
  9  5  1  0
  1 10  1  0
  1 11  1  0
  1 12  1  0
  2 13  1  0
  2 14  1  0
  3 15  1  0
  3 16  1  0
  4 17  1  0
  5 18  1  0
  6 19  1  0
  6 20  1  0
  7 21  1  0
  7 22  1  0
  8 23  1  0
M  END
