
     RDKit          3D

 23 23  0  0  0  0  0  0  0  0999 V2000
    3.0737    0.7011    0.2405 C   0  0  0  0  0  0  0  0  0  0  0  0
    2.0033   -0.0442   -0.5279 C   0  0  0  0  0  0  0  0  0  0  0  0
    0.7758   -0.0863    0.3676 C   0  0  0  0  0  0  0  0  0  0  0  0
   -0.3345   -0.8143   -0.3315 C   0  0  0  0  0  0  0  0  0  0  0  0
   -0.7163   -0.2290   -1.5222 O   0  0  0  0  0  0  0  0  0  0  0  0
   -2.0726   -0.4611   -1.6772 C   0  0  0  0  0  0  0  0  0  0  0  0
   -2.5368   -1.0881   -0.5465 O   0  0  0  0  0  0  0  0  0  0  0  0
   -1.6235   -0.6868    0.4522 C   0  0  0  0  0  0  0  0  0  0  0  0
   -1.8876    0.7585    0.7299 C   0  0  0  0  0  0  0  0  0  0  0  0
    3.6997    1.2745   -0.4775 H   0  0  0  0  0  0  0  0  0  0  0  0
    2.6422    1.4283    0.9595 H   0  0  0  0  0  0  0  0  0  0  0  0
    3.6890   -0.0063    0.8413 H   0  0  0  0  0  0  0  0  0  0  0  0
    1.7135    0.4551   -1.4648 H   0  0  0  0  0  0  0  0  0  0  0  0
    2.3768   -1.0477   -0.7674 H   0  0  0  0  0  0  0  0  0  0  0  0
    0.5187    0.9021    0.7400 H   0  0  0  0  0  0  0  0  0  0  0  0
    1.0666   -0.7044    1.2502 H   0  0  0  0  0  0  0  0  0  0  0  0
   -0.0291   -1.8604   -0.4822 H   0  0  0  0  0  0  0  0  0  0  0  0
   -2.2967   -1.1199   -2.5534 H   0  0  0  0  0  0  0  0  0  0  0  0
   -2.5844    0.5315   -1.7889 H   0  0  0  0  0  0  0  0  0  0  0  0
   -1.6660   -1.3366    1.3294 H   0  0  0  0  0  0  0  0  0  0  0  0
   -1.4873    1.3790   -0.0939 H   0  0  0  0  0  0  0  0  0  0  0  0
   -2.9702    0.9493    0.7800 H   0  0  0  0  0  0  0  0  0  0  0  0
   -1.3544    1.1058    1.6530 H   0  0  0  0  0  0  0  0  0  0  0  0
  1  2  1  0
  2  3  1  0
  3  4  1  0
  4  5  1  0
  5  6  1  0
  6  7  1  0
  7  8  1  0
  8  9  1  0
  8  4  1  0
  1 10  1  0
  1 11  1  0
  1 12  1  0
  2 13  1  0
  2 14  1  0
  3 15  1  0
  3 16  1  0
  4 17  1  0
  6 18  1  0
  6 19  1  0
  8 20  1  0
  9 21  1  0
  9 22  1  0
  9 23  1  0
M  END
