
     RDKit          3D

 23 22  0  0  0  0  0  0  0  0999 V2000
    2.4442   -0.3867    0.5406 C   0  0  0  0  0  0  0  0  0  0  0  0
    2.0594    0.3864   -0.6554 C   0  0  0  0  0  0  0  0  0  0  0  0
    0.7775    1.1232   -0.6522 C   0  0  0  0  0  0  0  0  0  0  0  0
   -0.4777    0.3633   -0.5083 C   0  0  0  0  0  0  0  0  0  0  0  0
   -0.5985   -0.5616   -1.5478 O   0  0  0  0  0  0  0  0  0  0  0  0
   -0.9088   -0.1090    0.8182 C   0  0  0  0  0  0  0  0  0  0  0  0
   -0.3128   -1.2206    1.3392 O   0  0  0  0  0  0  0  0  0  0  0  0
   -2.4055   -0.4495    0.6989 C   0  0  0  0  0  0  0  0  0  0  0  0
   -3.0784    0.6279    0.1781 O   0  0  0  0  0  0  0  0  0  0  0  0
    2.1846   -1.4537    0.3888 H   0  0  0  0  0  0  0  0  0  0  0  0
    2.0860   -0.0350    1.5031 H   0  0  0  0  0  0  0  0  0  0  0  0
    3.5744   -0.3950    0.6516 H   0  0  0  0  0  0  0  0  0  0  0  0
    2.9215    1.0867   -0.8835 H   0  0  0  0  0  0  0  0  0  0  0  0
    2.0505   -0.2830   -1.5540 H   0  0  0  0  0  0  0  0  0  0  0  0
    0.7136    1.6305   -1.6734 H   0  0  0  0  0  0  0  0  0  0  0  0
    0.8033    2.0235    0.0344 H   0  0  0  0  0  0  0  0  0  0  0  0
   -1.2976    1.1601   -0.7837 H   0  0  0  0  0  0  0  0  0  0  0  0
   -0.9200   -1.4170   -1.2166 H   0  0  0  0  0  0  0  0  0  0  0  0
   -0.8183    0.7330    1.5539 H   0  0  0  0  0  0  0  0  0  0  0  0
   -0.3287   -2.0145    0.7841 H   0  0  0  0  0  0  0  0  0  0  0  0
   -2.7377   -0.7164    1.7257 H   0  0  0  0  0  0  0  0  0  0  0  0
   -2.4892   -1.3706    0.0879 H   0  0  0  0  0  0  0  0  0  0  0  0
   -3.2421    1.2781    0.9068 H   0  0  0  0  0  0  0  0  0  0  0  0
  1  2  1  0
  2  3  1  0
  3  4  1  0
  4  5  1  0
  4  6  1  0
  6  7  1  0
  6  8  1  0
  8  9  1  0
  1 10  1  0
  1 11  1  0
  1 12  1  0
  2 13  1  0
  2 14  1  0
  3 15  1  0
  3 16  1  0
  4 17  1  0
  5 18  1  0
  6 19  1  0
  7 20  1  0
  8 21  1  0
  8 22  1  0
  9 23  1  0
M  END
