
     RDKit          3D

 23 23  0  0  0  0  0  0  0  0999 V2000
    2.9860    0.1662    0.5952 C   0  0  0  0  0  0  0  0  0  0  0  0
    1.7467   -0.3129   -0.0926 C   0  0  0  0  0  0  0  0  0  0  0  0
    0.5453    0.5843    0.1681 C   0  0  0  0  0  0  0  0  0  0  0  0
   -0.6061   -0.0424   -0.5947 C   0  0  0  0  0  0  0  0  0  0  0  0
   -0.2853   -0.0852   -1.9432 O   0  0  0  0  0  0  0  0  0  0  0  0
   -1.9058    0.6783   -0.3339 C   0  0  0  0  0  0  0  0  0  0  0  0
   -2.6119   -0.2395    0.6374 C   0  0  0  0  0  0  0  0  0  0  0  0
   -2.2613   -1.5054    0.1529 O   0  0  0  0  0  0  0  0  0  0  0  0
   -0.8863   -1.4202   -0.0435 C   0  0  0  0  0  0  0  0  0  0  0  0
    2.9478    1.2421    0.7684 H   0  0  0  0  0  0  0  0  0  0  0  0
    3.8516   -0.0319   -0.0856 H   0  0  0  0  0  0  0  0  0  0  0  0
    3.1767   -0.4404    1.5058 H   0  0  0  0  0  0  0  0  0  0  0  0
    1.4509   -1.3341    0.2116 H   0  0  0  0  0  0  0  0  0  0  0  0
    1.8686   -0.3321   -1.2040 H   0  0  0  0  0  0  0  0  0  0  0  0
    0.2793    0.5755    1.2603 H   0  0  0  0  0  0  0  0  0  0  0  0
    0.7182    1.6188   -0.1702 H   0  0  0  0  0  0  0  0  0  0  0  0
    0.0399    0.8212   -2.1844 H   0  0  0  0  0  0  0  0  0  0  0  0
   -2.5003    0.6540   -1.2899 H   0  0  0  0  0  0  0  0  0  0  0  0
   -1.7586    1.6866    0.0552 H   0  0  0  0  0  0  0  0  0  0  0  0
   -2.1733   -0.0605    1.6547 H   0  0  0  0  0  0  0  0  0  0  0  0
   -3.6938   -0.0834    0.6599 H   0  0  0  0  0  0  0  0  0  0  0  0
   -0.4997   -2.2108   -0.7060 H   0  0  0  0  0  0  0  0  0  0  0  0
   -0.4285   -1.5365    0.9785 H   0  0  0  0  0  0  0  0  0  0  0  0
  1  2  1  0
  2  3  1  0
  3  4  1  0
  4  5  1  0
  4  6  1  0
  6  7  1  0
  7  8  1  0
  8  9  1  0
  9  4  1  0
  1 10  1  0
  1 11  1  0
  1 12  1  0
  2 13  1  0
  2 14  1  0
  3 15  1  0
  3 16  1  0
  5 17  1  0
  6 18  1  0
  6 19  1  0
  7 20  1  0
  7 21  1  0
  9 22  1  0
  9 23  1  0
M  END
