
     RDKit          3D

 25 26  0  0  0  0  0  0  0  0999 V2000
    3.1072    0.4183   -0.8304 C   0  0  0  0  0  0  0  0  0  0  0  0
    2.6100   -0.8721   -0.2140 C   0  0  0  0  0  0  0  0  0  0  0  0
    1.6033   -0.5392    0.8930 C   0  0  0  0  0  0  0  0  0  0  0  0
    0.4313    0.2235    0.3407 C   0  0  0  0  0  0  0  0  0  0  0  0
   -0.6143    0.6045    1.3176 C   0  0  0  0  0  0  0  0  0  0  0  0
   -1.9323    1.1784    0.8890 C   0  0  0  0  0  0  0  0  0  0  0  0
   -1.9870    0.2694   -0.3123 C   0  0  0  0  0  0  0  0  0  0  0  0
   -3.2751   -0.4838   -0.4949 C   0  0  0  0  0  0  0  0  0  0  0  0
   -0.8460   -0.5009    0.2624 C   0  0  0  0  0  0  0  0  0  0  0  0
    4.2314    0.4897   -0.7535 H   0  0  0  0  0  0  0  0  0  0  0  0
    2.7048    1.2846   -0.2608 H   0  0  0  0  0  0  0  0  0  0  0  0
    2.8302    0.5155   -1.8982 H   0  0  0  0  0  0  0  0  0  0  0  0
    3.4677   -1.3722    0.2751 H   0  0  0  0  0  0  0  0  0  0  0  0
    2.1750   -1.5425   -0.9643 H   0  0  0  0  0  0  0  0  0  0  0  0
    2.1844    0.0877    1.6294 H   0  0  0  0  0  0  0  0  0  0  0  0
    1.2710   -1.4772    1.3821 H   0  0  0  0  0  0  0  0  0  0  0  0
    0.6812    0.8657   -0.5251 H   0  0  0  0  0  0  0  0  0  0  0  0
   -0.4948    0.2985    2.3556 H   0  0  0  0  0  0  0  0  0  0  0  0
   -1.9283    2.2530    0.6217 H   0  0  0  0  0  0  0  0  0  0  0  0
   -2.7577    0.9341    1.5903 H   0  0  0  0  0  0  0  0  0  0  0  0
   -1.7484    0.8279   -1.2538 H   0  0  0  0  0  0  0  0  0  0  0  0
   -4.0841    0.2308   -0.7382 H   0  0  0  0  0  0  0  0  0  0  0  0
   -3.5165   -0.9815    0.4654 H   0  0  0  0  0  0  0  0  0  0  0  0
   -3.1169   -1.2109   -1.3160 H   0  0  0  0  0  0  0  0  0  0  0  0
   -0.9960   -1.5012    0.7065 H   0  0  0  0  0  0  0  0  0  0  0  0
  1  2  1  0
  2  3  1  0
  3  4  1  0
  4  5  1  0
  5  6  1  0
  6  7  1  0
  7  8  1  0
  7  9  1  0
  9  4  1  0
  9  5  1  0
  1 10  1  0
  1 11  1  0
  1 12  1  0
  2 13  1  0
  2 14  1  0
  3 15  1  0
  3 16  1  0
  4 17  1  0
  5 18  1  0
  6 19  1  0
  6 20  1  0
  7 21  1  0
  8 22  1  0
  8 23  1  0
  8 24  1  0
  9 25  1  0
M  END
