
     RDKit          3D

 25 25  0  0  0  0  0  0  0  0999 V2000
    3.0662    0.0512    0.1809 C   0  0  0  0  0  0  0  0  0  0  0  0
    1.7783    0.4784   -0.4822 C   0  0  0  0  0  0  0  0  0  0  0  0
    0.6010   -0.1200    0.2592 C   0  0  0  0  0  0  0  0  0  0  0  0
   -0.7121    0.2478   -0.3247 C   0  0  0  0  0  0  0  0  0  0  0  0
   -1.0055    1.5900   -0.3673 O   0  0  0  0  0  0  0  0  0  0  0  0
   -1.0329    2.2169    0.8593 C   0  0  0  0  0  0  0  0  0  0  0  0
   -1.2314   -0.4914   -1.5455 C   0  0  0  0  0  0  0  0  0  0  0  0
   -1.8155   -0.7283   -0.1645 C   0  0  0  0  0  0  0  0  0  0  0  0
   -1.5964   -2.1164    0.3310 C   0  0  0  0  0  0  0  0  0  0  0  0
    3.1304    0.3878    1.2277 H   0  0  0  0  0  0  0  0  0  0  0  0
    3.1405   -1.0468    0.1133 H   0  0  0  0  0  0  0  0  0  0  0  0
    3.9073    0.4963   -0.4225 H   0  0  0  0  0  0  0  0  0  0  0  0
    1.8070    0.1503   -1.5349 H   0  0  0  0  0  0  0  0  0  0  0  0
    1.7179    1.5847   -0.4542 H   0  0  0  0  0  0  0  0  0  0  0  0
    0.6414    0.3131    1.2993 H   0  0  0  0  0  0  0  0  0  0  0  0
    0.7607   -1.2046    0.3959 H   0  0  0  0  0  0  0  0  0  0  0  0
   -1.2803    3.2856    0.6685 H   0  0  0  0  0  0  0  0  0  0  0  0
   -1.8100    1.7573    1.4782 H   0  0  0  0  0  0  0  0  0  0  0  0
   -0.0284    2.2396    1.3633 H   0  0  0  0  0  0  0  0  0  0  0  0
   -1.9252   -0.0063   -2.2343 H   0  0  0  0  0  0  0  0  0  0  0  0
   -0.5581   -1.2370   -1.9876 H   0  0  0  0  0  0  0  0  0  0  0  0
   -2.7980   -0.2962    0.0770 H   0  0  0  0  0  0  0  0  0  0  0  0
   -0.6666   -2.5814   -0.0811 H   0  0  0  0  0  0  0  0  0  0  0  0
   -2.4302   -2.7510   -0.0923 H   0  0  0  0  0  0  0  0  0  0  0  0
   -1.6600   -2.2193    1.4375 H   0  0  0  0  0  0  0  0  0  0  0  0
  1  2  1  0
  2  3  1  0
  3  4  1  0
  4  5  1  0
  5  6  1  0
  4  7  1  0
  7  8  1  0
  8  9  1  0
  8  4  1  0
  1 10  1  0
  1 11  1  0
  1 12  1  0
  2 13  1  0
  2 14  1  0
  3 15  1  0
  3 16  1  0
  6 17  1  0
  6 18  1  0
  6 19  1  0
  7 20  1  0
  7 21  1  0
  8 22  1  0
  9 23  1  0
  9 24  1  0
  9 25  1  0
M  END
