
     RDKit          3D

 27 27  0  0  0  0  0  0  0  0999 V2000
    2.8070    0.3492    0.7121 C   0  0  0  0  0  0  0  0  0  0  0  0
    1.9108   -0.8088    0.9791 C   0  0  0  0  0  0  0  0  0  0  0  0
    1.3518   -1.4655   -0.2442 C   0  0  0  0  0  0  0  0  0  0  0  0
    0.5226   -0.5672   -1.1057 C   0  0  0  0  0  0  0  0  0  0  0  0
   -0.6635   -0.0341   -0.3448 C   0  0  0  0  0  0  0  0  0  0  0  0
   -1.6024   -1.1269    0.1754 C   0  0  0  0  0  0  0  0  0  0  0  0
   -0.5126    1.1438    0.5127 C   0  0  0  0  0  0  0  0  0  0  0  0
   -1.3297    1.2238   -0.7871 C   0  0  0  0  0  0  0  0  0  0  0  0
   -2.7897    1.4309   -0.5733 C   0  0  0  0  0  0  0  0  0  0  0  0
    2.7837    1.0099    1.6046 H   0  0  0  0  0  0  0  0  0  0  0  0
    2.4769    0.9943   -0.1403 H   0  0  0  0  0  0  0  0  0  0  0  0
    3.8686    0.0209    0.5743 H   0  0  0  0  0  0  0  0  0  0  0  0
    2.5307   -1.5906    1.5004 H   0  0  0  0  0  0  0  0  0  0  0  0
    1.1443   -0.5092    1.7119 H   0  0  0  0  0  0  0  0  0  0  0  0
    2.1795   -1.9472   -0.8025 H   0  0  0  0  0  0  0  0  0  0  0  0
    0.6902   -2.2943    0.1022 H   0  0  0  0  0  0  0  0  0  0  0  0
    0.1196   -1.1850   -1.9366 H   0  0  0  0  0  0  0  0  0  0  0  0
    1.1020    0.2462   -1.5822 H   0  0  0  0  0  0  0  0  0  0  0  0
   -1.1132   -1.6516    1.0328 H   0  0  0  0  0  0  0  0  0  0  0  0
   -2.5544   -0.6673    0.4455 H   0  0  0  0  0  0  0  0  0  0  0  0
   -1.7258   -1.8439   -0.6682 H   0  0  0  0  0  0  0  0  0  0  0  0
   -1.0766    1.1663    1.4766 H   0  0  0  0  0  0  0  0  0  0  0  0
    0.3291    1.8377    0.5040 H   0  0  0  0  0  0  0  0  0  0  0  0
   -0.8854    1.7083   -1.6602 H   0  0  0  0  0  0  0  0  0  0  0  0
   -3.0347    2.4803   -0.8940 H   0  0  0  0  0  0  0  0  0  0  0  0
   -3.0962    1.3870    0.5035 H   0  0  0  0  0  0  0  0  0  0  0  0
   -3.4325    0.6930   -1.0959 H   0  0  0  0  0  0  0  0  0  0  0  0
  1  2  1  0
  2  3  1  0
  3  4  1  0
  4  5  1  0
  5  6  1  0
  5  7  1  0
  7  8  1  0
  8  9  1  0
  8  5  1  0
  1 10  1  0
  1 11  1  0
  1 12  1  0
  2 13  1  0
  2 14  1  0
  3 15  1  0
  3 16  1  0
  4 17  1  0
  4 18  1  0
  6 19  1  0
  6 20  1  0
  6 21  1  0
  7 22  1  0
  7 23  1  0
  8 24  1  0
  9 25  1  0
  9 26  1  0
  9 27  1  0
M  END
