
     RDKit          3D

 27 26  0  0  0  0  0  0  0  0999 V2000
    2.7009   -0.4230    0.8185 C   0  0  0  0  0  0  0  0  0  0  0  0
    2.0715   -0.8951   -0.4391 C   0  0  0  0  0  0  0  0  0  0  0  0
    1.1002   -0.0357   -1.1172 C   0  0  0  0  0  0  0  0  0  0  0  0
   -0.1605    0.3346   -0.3272 C   0  0  0  0  0  0  0  0  0  0  0  0
    0.1189    1.0875    0.9255 C   0  0  0  0  0  0  0  0  0  0  0  0
   -0.8153   -0.9730    0.0578 C   0  0  0  0  0  0  0  0  0  0  0  0
   -2.0517   -0.8786    0.8682 C   0  0  0  0  0  0  0  0  0  0  0  0
   -0.9270    0.9929   -1.2367 O   0  0  0  0  0  0  0  0  0  0  0  0
   -2.1341    1.4936   -0.9207 C   0  0  0  0  0  0  0  0  0  0  0  0
    2.6848    0.6532    1.0124 H   0  0  0  0  0  0  0  0  0  0  0  0
    3.8076   -0.6902    0.8665 H   0  0  0  0  0  0  0  0  0  0  0  0
    2.2895   -1.0298    1.6798 H   0  0  0  0  0  0  0  0  0  0  0  0
    1.7069   -1.9623   -0.3209 H   0  0  0  0  0  0  0  0  0  0  0  0
    2.9310   -1.0419   -1.1734 H   0  0  0  0  0  0  0  0  0  0  0  0
    1.6110    0.8983   -1.4556 H   0  0  0  0  0  0  0  0  0  0  0  0
    0.7608   -0.5402   -2.0434 H   0  0  0  0  0  0  0  0  0  0  0  0
    0.7645    1.9774    0.7888 H   0  0  0  0  0  0  0  0  0  0  0  0
    0.4080    0.4078    1.7260 H   0  0  0  0  0  0  0  0  0  0  0  0
   -0.8792    1.5120    1.2566 H   0  0  0  0  0  0  0  0  0  0  0  0
   -0.0864   -1.6587    0.5583 H   0  0  0  0  0  0  0  0  0  0  0  0
   -1.0884   -1.5167   -0.8854 H   0  0  0  0  0  0  0  0  0  0  0  0
   -2.2845    0.0888    1.3245 H   0  0  0  0  0  0  0  0  0  0  0  0
   -1.9156   -1.5742    1.7541 H   0  0  0  0  0  0  0  0  0  0  0  0
   -2.9675   -1.2647    0.3617 H   0  0  0  0  0  0  0  0  0  0  0  0
   -2.4926    2.0335   -1.8739 H   0  0  0  0  0  0  0  0  0  0  0  0
   -2.1864    2.2473   -0.1357 H   0  0  0  0  0  0  0  0  0  0  0  0
   -2.9664    0.7572   -0.7865 H   0  0  0  0  0  0  0  0  0  0  0  0
  1  2  1  0
  2  3  1  0
  3  4  1  0
  4  5  1  0
  4  6  1  0
  6  7  1  0
  4  8  1  0
  8  9  1  0
  1 10  1  0
  1 11  1  0
  1 12  1  0
  2 13  1  0
  2 14  1  0
  3 15  1  0
  3 16  1  0
  5 17  1  0
  5 18  1  0
  5 19  1  0
  6 20  1  0
  6 21  1  0
  7 22  1  0
  7 23  1  0
  7 24  1  0
  9 25  1  0
  9 26  1  0
  9 27  1  0
M  END
