
     RDKit          3D

 29 28  0  0  0  0  0  0  0  0999 V2000
    3.5406    0.9400    0.0725 C   0  0  0  0  0  0  0  0  0  0  0  0
    2.4784   -0.0232    0.5662 C   0  0  0  0  0  0  0  0  0  0  0  0
    1.1194    0.3380    0.0021 C   0  0  0  0  0  0  0  0  0  0  0  0
    0.1040   -0.6368    0.5147 C   0  0  0  0  0  0  0  0  0  0  0  0
    0.4995   -2.0284    0.0681 C   0  0  0  0  0  0  0  0  0  0  0  0
   -1.2948   -0.3580    0.0650 C   0  0  0  0  0  0  0  0  0  0  0  0
   -1.4801   -0.3776   -1.4194 C   0  0  0  0  0  0  0  0  0  0  0  0
   -1.8371    0.9400    0.6228 C   0  0  0  0  0  0  0  0  0  0  0  0
   -3.2585    1.1062    0.0938 C   0  0  0  0  0  0  0  0  0  0  0  0
    4.2496    1.2157    0.8841 H   0  0  0  0  0  0  0  0  0  0  0  0
    4.1421    0.4462   -0.7231 H   0  0  0  0  0  0  0  0  0  0  0  0
    3.0998    1.8964   -0.2802 H   0  0  0  0  0  0  0  0  0  0  0  0
    2.7718   -1.0489    0.2637 H   0  0  0  0  0  0  0  0  0  0  0  0
    2.4939    0.0054    1.6726 H   0  0  0  0  0  0  0  0  0  0  0  0
    1.2042    0.2297   -1.1094 H   0  0  0  0  0  0  0  0  0  0  0  0
    0.9267    1.3801    0.2563 H   0  0  0  0  0  0  0  0  0  0  0  0
    0.1048   -0.6419    1.6240 H   0  0  0  0  0  0  0  0  0  0  0  0
    1.0625   -2.0061   -0.8903 H   0  0  0  0  0  0  0  0  0  0  0  0
    1.0949   -2.5202    0.8626 H   0  0  0  0  0  0  0  0  0  0  0  0
   -0.4172   -2.6159   -0.0581 H   0  0  0  0  0  0  0  0  0  0  0  0
   -1.9392   -1.1674    0.4873 H   0  0  0  0  0  0  0  0  0  0  0  0
   -2.3015   -1.0767   -1.7380 H   0  0  0  0  0  0  0  0  0  0  0  0
   -1.7947    0.6259   -1.7982 H   0  0  0  0  0  0  0  0  0  0  0  0
   -0.5949   -0.6649   -1.9872 H   0  0  0  0  0  0  0  0  0  0  0  0
   -1.9073    0.8733    1.7291 H   0  0  0  0  0  0  0  0  0  0  0  0
   -1.2022    1.8070    0.3546 H   0  0  0  0  0  0  0  0  0  0  0  0
   -3.6883    0.1199   -0.2147 H   0  0  0  0  0  0  0  0  0  0  0  0
   -3.2380    1.7353   -0.8092 H   0  0  0  0  0  0  0  0  0  0  0  0
   -3.9384    1.5067    0.8882 H   0  0  0  0  0  0  0  0  0  0  0  0
  1  2  1  0
  2  3  1  0
  3  4  1  0
  4  5  1  0
  4  6  1  0
  6  7  1  0
  6  8  1  0
  8  9  1  0
  1 10  1  0
  1 11  1  0
  1 12  1  0
  2 13  1  0
  2 14  1  0
  3 15  1  0
  3 16  1  0
  4 17  1  0
  5 18  1  0
  5 19  1  0
  5 20  1  0
  6 21  1  0
  7 22  1  0
  7 23  1  0
  7 24  1  0
  8 25  1  0
  8 26  1  0
  9 27  1  0
  9 28  1  0
  9 29  1  0
M  END
