
     RDKit          3D

 20 21  0  0  0  0  0  0  0  0999 V2000
   -2.8746   -0.0675   -0.1169 C   0  0  0  0  0  0  0  0  0  0  0  0
   -1.4014   -0.4129   -0.3099 C   0  0  0  0  0  0  0  0  0  0  0  0
   -0.5176    0.5953    0.3927 C   0  0  0  0  0  0  0  0  0  0  0  0
    0.8330    0.3444    0.2599 C   0  0  0  0  0  0  0  0  0  0  0  0
    1.6326    0.2691   -0.9877 C   0  0  0  0  0  0  0  0  0  0  0  0
    2.5883    0.1804    0.1593 C   0  0  0  0  0  0  0  0  0  0  0  0
    1.6302   -0.7708    0.8078 C   0  0  0  0  0  0  0  0  0  0  0  0
    1.8508    1.1985    0.7461 O   0  0  0  0  0  0  0  0  0  0  0  0
   -3.2398   -0.3910    0.8747 H   0  0  0  0  0  0  0  0  0  0  0  0
   -3.4724   -0.4613   -0.9506 H   0  0  0  0  0  0  0  0  0  0  0  0
   -2.9308    1.0464   -0.1566 H   0  0  0  0  0  0  0  0  0  0  0  0
   -1.2724   -1.4394    0.1016 H   0  0  0  0  0  0  0  0  0  0  0  0
   -1.1871   -0.4890   -1.3932 H   0  0  0  0  0  0  0  0  0  0  0  0
   -0.8502    0.5721    1.4730 H   0  0  0  0  0  0  0  0  0  0  0  0
   -0.8290    1.6000    0.0360 H   0  0  0  0  0  0  0  0  0  0  0  0
    1.5253   -0.6031   -1.6324 H   0  0  0  0  0  0  0  0  0  0  0  0
    1.6637    1.2433   -1.5558 H   0  0  0  0  0  0  0  0  0  0  0  0
    3.5935    0.1035    0.1180 H   0  0  0  0  0  0  0  0  0  0  0  0
    1.6972   -0.7634    1.9212 H   0  0  0  0  0  0  0  0  0  0  0  0
    1.5606   -1.7543    0.3316 H   0  0  0  0  0  0  0  0  0  0  0  0
  1  2  1  0
  2  3  1  0
  3  4  1  0
  4  5  1  0
  5  6  1  0
  6  7  1  0
  6  8  1  0
  7  4  1  0
  8  4  1  0
  1  9  1  0
  1 10  1  0
  1 11  1  0
  2 12  1  0
  2 13  1  0
  3 14  1  0
  3 15  1  0
  5 16  1  0
  5 17  1  0
  6 18  1  0
  7 19  1  0
  7 20  1  0
M  END
