
     RDKit          3D

 18 17  0  0  0  0  0  0  0  0999 V2000
    2.3130    0.8657   -0.0891 C   0  0  0  0  0  0  0  0  0  0  0  0
    1.8917   -0.5417   -0.3466 C   0  0  0  0  0  0  0  0  0  0  0  0
    0.5883   -0.9159    0.2677 C   0  0  0  0  0  0  0  0  0  0  0  0
   -0.5442   -0.0962   -0.2051 C   0  0  0  0  0  0  0  0  0  0  0  0
   -0.2849    0.8063   -1.0556 O   0  0  0  0  0  0  0  0  0  0  0  0
   -1.8861   -0.3238    0.2889 C   0  0  0  0  0  0  0  0  0  0  0  0
   -3.0182    0.4956   -0.1838 C   0  0  0  0  0  0  0  0  0  0  0  0
   -2.0777   -1.2358    1.1327 O   0  0  0  0  0  0  0  0  0  0  0  0
    1.8866    1.3095    0.8297 H   0  0  0  0  0  0  0  0  0  0  0  0
    2.0704    1.4735   -0.9739 H   0  0  0  0  0  0  0  0  0  0  0  0
    3.4359    0.8813   -0.0001 H   0  0  0  0  0  0  0  0  0  0  0  0
    2.6653   -1.2369    0.0455 H   0  0  0  0  0  0  0  0  0  0  0  0
    1.8658   -0.7211   -1.4489 H   0  0  0  0  0  0  0  0  0  0  0  0
    0.3663   -1.9703   -0.0290 H   0  0  0  0  0  0  0  0  0  0  0  0
    0.6348   -0.9098    1.3646 H   0  0  0  0  0  0  0  0  0  0  0  0
   -3.2354    1.3347    0.5090 H   0  0  0  0  0  0  0  0  0  0  0  0
   -2.7507    0.9097   -1.1985 H   0  0  0  0  0  0  0  0  0  0  0  0
   -3.9209   -0.1247   -0.3222 H   0  0  0  0  0  0  0  0  0  0  0  0
  1  2  1  0
  2  3  1  0
  3  4  1  0
  4  5  2  0
  4  6  1  0
  6  7  1  0
  6  8  2  0
  1  9  1  0
  1 10  1  0
  1 11  1  0
  2 12  1  0
  2 13  1  0
  3 14  1  0
  3 15  1  0
  7 16  1  0
  7 17  1  0
  7 18  1  0
M  END
