
     RDKit          3D

 25 26  0  0  0  0  0  0  0  0999 V2000
    2.7993    0.0149   -0.6113 C   0  0  0  0  0  0  0  0  0  0  0  0
    2.0147   -0.5899    0.5091 C   0  0  0  0  0  0  0  0  0  0  0  0
    0.8954    0.3194    0.9952 C   0  0  0  0  0  0  0  0  0  0  0  0
   -0.0851    0.6410   -0.0645 C   0  0  0  0  0  0  0  0  0  0  0  0
   -1.2400    1.5124    0.2027 C   0  0  0  0  0  0  0  0  0  0  0  0
   -1.8804    0.8324   -0.9960 C   0  0  0  0  0  0  0  0  0  0  0  0
   -1.2454   -0.3038   -0.1966 C   0  0  0  0  0  0  0  0  0  0  0  0
   -1.2472   -1.6248   -0.5217 C   0  0  0  0  0  0  0  0  0  0  0  0
   -1.8507    0.3852    0.9752 C   0  0  0  0  0  0  0  0  0  0  0  0
    2.2315   -0.0439   -1.5726 H   0  0  0  0  0  0  0  0  0  0  0  0
    3.0666    1.0692   -0.3564 H   0  0  0  0  0  0  0  0  0  0  0  0
    3.7448   -0.5606   -0.7078 H   0  0  0  0  0  0  0  0  0  0  0  0
    1.6850   -1.6043    0.2806 H   0  0  0  0  0  0  0  0  0  0  0  0
    2.7226   -0.6667    1.3875 H   0  0  0  0  0  0  0  0  0  0  0  0
    1.3914    1.2639    1.3221 H   0  0  0  0  0  0  0  0  0  0  0  0
    0.4494   -0.2230    1.8493 H   0  0  0  0  0  0  0  0  0  0  0  0
    0.4456    0.8739   -1.0168 H   0  0  0  0  0  0  0  0  0  0  0  0
   -1.2909    2.4901    0.4070 H   0  0  0  0  0  0  0  0  0  0  0  0
   -2.9831    0.8936   -0.9102 H   0  0  0  0  0  0  0  0  0  0  0  0
   -1.4324    1.0377   -1.9654 H   0  0  0  0  0  0  0  0  0  0  0  0
   -0.2987   -2.0102   -1.0010 H   0  0  0  0  0  0  0  0  0  0  0  0
   -1.4034   -2.3342    0.3455 H   0  0  0  0  0  0  0  0  0  0  0  0
   -2.0477   -1.9442   -1.2553 H   0  0  0  0  0  0  0  0  0  0  0  0
   -2.9730    0.3518    0.9273 H   0  0  0  0  0  0  0  0  0  0  0  0
   -1.4681    0.2202    1.9740 H   0  0  0  0  0  0  0  0  0  0  0  0
  1  2  1  0
  2  3  1  0
  3  4  1  0
  4  5  1  0
  5  6  1  0
  6  7  1  0
  7  8  1  0
  7  9  1  0
  7  4  1  0
  9  5  1  0
  1 10  1  0
  1 11  1  0
  1 12  1  0
  2 13  1  0
  2 14  1  0
  3 15  1  0
  3 16  1  0
  4 17  1  0
  5 18  1  0
  6 19  1  0
  6 20  1  0
  8 21  1  0
  8 22  1  0
  8 23  1  0
  9 24  1  0
  9 25  1  0
M  END
