
     RDKit          3D

 21 21  0  0  0  0  0  0  0  0999 V2000
    3.1389   -0.4260   -0.1787 C   0  0  0  0  0  0  0  0  0  0  0  0
    1.8280    0.2828   -0.3439 C   0  0  0  0  0  0  0  0  0  0  0  0
    0.7667   -0.2559    0.6070 C   0  0  0  0  0  0  0  0  0  0  0  0
   -0.4993    0.5616    0.3176 C   0  0  0  0  0  0  0  0  0  0  0  0
   -0.9074    0.4202   -0.9815 O   0  0  0  0  0  0  0  0  0  0  0  0
   -2.3203    0.4550   -0.9651 C   0  0  0  0  0  0  0  0  0  0  0  0
   -2.6071   -0.4770    0.1911 C   0  0  0  0  0  0  0  0  0  0  0  0
   -1.5782   -0.0442    1.1730 C   0  0  0  0  0  0  0  0  0  0  0  0
   -1.5536   -0.1285    2.3686 O   0  0  0  0  0  0  0  0  0  0  0  0
    3.9314    0.1628   -0.6650 H   0  0  0  0  0  0  0  0  0  0  0  0
    3.3209   -0.5137    0.9283 H   0  0  0  0  0  0  0  0  0  0  0  0
    3.0658   -1.4609   -0.5487 H   0  0  0  0  0  0  0  0  0  0  0  0
    1.9551    1.3629   -0.0843 H   0  0  0  0  0  0  0  0  0  0  0  0
    1.4406    0.2585   -1.3749 H   0  0  0  0  0  0  0  0  0  0  0  0
    1.0925   -0.1373    1.6373 H   0  0  0  0  0  0  0  0  0  0  0  0
    0.5945   -1.3262    0.3795 H   0  0  0  0  0  0  0  0  0  0  0  0
   -0.3478    1.6109    0.5755 H   0  0  0  0  0  0  0  0  0  0  0  0
   -2.6494    1.4790   -0.7864 H   0  0  0  0  0  0  0  0  0  0  0  0
   -2.6848    0.0560   -1.9362 H   0  0  0  0  0  0  0  0  0  0  0  0
   -3.6347   -0.3779    0.5757 H   0  0  0  0  0  0  0  0  0  0  0  0
   -2.3518   -1.5021   -0.1405 H   0  0  0  0  0  0  0  0  0  0  0  0
  1  2  1  0
  2  3  1  0
  3  4  1  0
  4  5  1  0
  5  6  1  0
  6  7  1  0
  7  8  1  0
  8  9  2  0
  8  4  1  0
  1 10  1  0
  1 11  1  0
  1 12  1  0
  2 13  1  0
  2 14  1  0
  3 15  1  0
  3 16  1  0
  4 17  1  0
  6 18  1  0
  6 19  1  0
  7 20  1  0
  7 21  1  0
M  END
