
     RDKit          3D

 25 24  0  0  0  0  0  0  0  0999 V2000
   -3.7773   -0.9819   -1.1647 C   0  0  0  0  0  0  0  0  0  0  0  0
   -2.2920   -0.8806   -0.7882 C   0  0  0  0  0  0  0  0  0  0  0  0
   -1.8645    0.5079   -1.1596 C   0  0  0  0  0  0  0  0  0  0  0  0
   -0.4350    0.6430   -0.8028 C   0  0  0  0  0  0  0  0  0  0  0  0
    0.7251    0.7677   -0.5281 C   0  0  0  0  0  0  0  0  0  0  0  0
    2.1675    0.9032   -0.2035 C   0  0  0  0  0  0  0  0  0  0  0  0
    2.2772    1.3438    1.2220 C   0  0  0  0  0  0  0  0  0  0  0  0
    1.6094    0.2522    2.0702 C   0  0  0  0  0  0  0  0  0  0  0  0
    2.2892   -1.0706    1.8872 C   0  0  0  0  0  0  0  0  0  0  0  0
   -3.8811   -0.5485   -2.1816 H   0  0  0  0  0  0  0  0  0  0  0  0
   -4.2796   -0.2382   -0.4755 H   0  0  0  0  0  0  0  0  0  0  0  0
   -4.1778   -1.9875   -1.0422 H   0  0  0  0  0  0  0  0  0  0  0  0
   -1.7241   -1.6590   -1.3514 H   0  0  0  0  0  0  0  0  0  0  0  0
   -2.2110   -1.1052    0.2736 H   0  0  0  0  0  0  0  0  0  0  0  0
   -1.9990    0.6034   -2.2717 H   0  0  0  0  0  0  0  0  0  0  0  0
   -2.4954    1.2237   -0.5950 H   0  0  0  0  0  0  0  0  0  0  0  0
    2.6155    1.7274   -0.8296 H   0  0  0  0  0  0  0  0  0  0  0  0
    2.7446    0.0086   -0.4252 H   0  0  0  0  0  0  0  0  0  0  0  0
    1.6463    2.2592    1.3870 H   0  0  0  0  0  0  0  0  0  0  0  0
    3.2936    1.5739    1.5460 H   0  0  0  0  0  0  0  0  0  0  0  0
    1.7624    0.5735    3.1192 H   0  0  0  0  0  0  0  0  0  0  0  0
    0.5598    0.2367    1.7674 H   0  0  0  0  0  0  0  0  0  0  0  0
    2.2890   -1.5961    2.8639 H   0  0  0  0  0  0  0  0  0  0  0  0
    3.3567   -0.8861    1.5920 H   0  0  0  0  0  0  0  0  0  0  0  0
    1.8004   -1.6703    1.0858 H   0  0  0  0  0  0  0  0  0  0  0  0
  1  2  1  0
  2  3  1  0
  3  4  1  0
  4  5  3  0
  5  6  1  0
  6  7  1  0
  7  8  1  0
  8  9  1  0
  1 10  1  0
  1 11  1  0
  1 12  1  0
  2 13  1  0
  2 14  1  0
  3 15  1  0
  3 16  1  0
  6 17  1  0
  6 18  1  0
  7 19  1  0
  7 20  1  0
  8 21  1  0
  8 22  1  0
  9 23  1  0
  9 24  1  0
  9 25  1  0
M  END
