
     RDKit          3D

 21 21  0  0  0  0  0  0  0  0999 V2000
    3.0547    0.1425    0.1948 C   0  0  0  0  0  0  0  0  0  0  0  0
    1.7832   -0.4145   -0.3954 C   0  0  0  0  0  0  0  0  0  0  0  0
    0.6004    0.4566   -0.0367 C   0  0  0  0  0  0  0  0  0  0  0  0
   -0.6858   -0.0709   -0.6104 C   0  0  0  0  0  0  0  0  0  0  0  0
   -1.7983    0.8800   -0.1875 C   0  0  0  0  0  0  0  0  0  0  0  0
   -2.8633   -0.0004    0.4331 C   0  0  0  0  0  0  0  0  0  0  0  0
   -2.0632   -1.0478    0.9776 O   0  0  0  0  0  0  0  0  0  0  0  0
   -1.0935   -1.3474    0.0315 C   0  0  0  0  0  0  0  0  0  0  0  0
   -0.6185   -2.4974   -0.2574 O   0  0  0  0  0  0  0  0  0  0  0  0
    2.8091    0.9852    0.9049 H   0  0  0  0  0  0  0  0  0  0  0  0
    3.6120   -0.5928    0.8012 H   0  0  0  0  0  0  0  0  0  0  0  0
    3.6803    0.6004   -0.5932 H   0  0  0  0  0  0  0  0  0  0  0  0
    1.8821   -0.5861   -1.4658 H   0  0  0  0  0  0  0  0  0  0  0  0
    1.6495   -1.4334    0.0735 H   0  0  0  0  0  0  0  0  0  0  0  0
    0.4790    0.5100    1.0617 H   0  0  0  0  0  0  0  0  0  0  0  0
    0.8090    1.4830   -0.3927 H   0  0  0  0  0  0  0  0  0  0  0  0
   -0.6798   -0.1576   -1.7030 H   0  0  0  0  0  0  0  0  0  0  0  0
   -2.1628    1.4991   -1.0079 H   0  0  0  0  0  0  0  0  0  0  0  0
   -1.4497    1.5670    0.6279 H   0  0  0  0  0  0  0  0  0  0  0  0
   -3.4908   -0.4771   -0.3473 H   0  0  0  0  0  0  0  0  0  0  0  0
   -3.4535    0.5015    1.1983 H   0  0  0  0  0  0  0  0  0  0  0  0
  1  2  1  0
  2  3  1  0
  3  4  1  0
  4  5  1  0
  5  6  1  0
  6  7  1  0
  7  8  1  0
  8  9  2  0
  8  4  1  0
  1 10  1  0
  1 11  1  0
  1 12  1  0
  2 13  1  0
  2 14  1  0
  3 15  1  0
  3 16  1  0
  4 17  1  0
  5 18  1  0
  5 19  1  0
  6 20  1  0
  6 21  1  0
M  END
