
     RDKit          3D

 23 23  0  0  0  0  0  0  0  0999 V2000
    3.0902   -0.7243    0.5926 C   0  0  0  0  0  0  0  0  0  0  0  0
    1.7654   -0.4571   -0.0378 C   0  0  0  0  0  0  0  0  0  0  0  0
    1.1659    0.8666    0.3602 C   0  0  0  0  0  0  0  0  0  0  0  0
   -0.1763    0.9904   -0.3620 C   0  0  0  0  0  0  0  0  0  0  0  0
   -0.8401    2.1957   -0.0691 O   0  0  0  0  0  0  0  0  0  0  0  0
   -1.5758    1.5304    0.9376 C   0  0  0  0  0  0  0  0  0  0  0  0
   -1.2938    0.1987    0.2712 C   0  0  0  0  0  0  0  0  0  0  0  0
   -2.2262   -0.1586   -0.6806 O   0  0  0  0  0  0  0  0  0  0  0  0
   -2.6775   -1.4497   -0.5666 C   0  0  0  0  0  0  0  0  0  0  0  0
    3.8472   -0.8449   -0.2343 H   0  0  0  0  0  0  0  0  0  0  0  0
    3.4479    0.0996    1.2485 H   0  0  0  0  0  0  0  0  0  0  0  0
    3.0607   -1.6740    1.1334 H   0  0  0  0  0  0  0  0  0  0  0  0
    1.0450   -1.2430    0.2203 H   0  0  0  0  0  0  0  0  0  0  0  0
    1.8232   -0.4485   -1.1605 H   0  0  0  0  0  0  0  0  0  0  0  0
    1.0283    0.9711    1.4495 H   0  0  0  0  0  0  0  0  0  0  0  0
    1.7853    1.7294    0.0169 H   0  0  0  0  0  0  0  0  0  0  0  0
   -0.0890    0.8946   -1.4624 H   0  0  0  0  0  0  0  0  0  0  0  0
   -1.0673    1.6817    1.8974 H   0  0  0  0  0  0  0  0  0  0  0  0
   -2.6368    1.8162    0.9855 H   0  0  0  0  0  0  0  0  0  0  0  0
   -1.0046   -0.5479    1.0071 H   0  0  0  0  0  0  0  0  0  0  0  0
   -1.8410   -2.1661   -0.6644 H   0  0  0  0  0  0  0  0  0  0  0  0
   -3.4465   -1.6070   -1.3554 H   0  0  0  0  0  0  0  0  0  0  0  0
   -3.1840   -1.6533    0.4060 H   0  0  0  0  0  0  0  0  0  0  0  0
  1  2  1  0
  2  3  1  0
  3  4  1  0
  4  5  1  0
  5  6  1  0
  6  7  1  0
  7  8  1  0
  8  9  1  0
  7  4  1  0
  1 10  1  0
  1 11  1  0
  1 12  1  0
  2 13  1  0
  2 14  1  0
  3 15  1  0
  3 16  1  0
  4 17  1  0
  6 18  1  0
  6 19  1  0
  7 20  1  0
  9 21  1  0
  9 22  1  0
  9 23  1  0
M  END
