
     RDKit          3D

 21 21  0  0  0  0  0  0  0  0999 V2000
    3.0914   -0.3098   -0.2605 C   0  0  0  0  0  0  0  0  0  0  0  0
    1.9194    0.3477    0.4766 C   0  0  0  0  0  0  0  0  0  0  0  0
    0.6723   -0.2590   -0.1180 C   0  0  0  0  0  0  0  0  0  0  0  0
   -0.5909    0.2557    0.4718 C   0  0  0  0  0  0  0  0  0  0  0  0
   -0.8364    1.6011    0.3690 O   0  0  0  0  0  0  0  0  0  0  0  0
   -2.2035    1.2831    0.1926 C   0  0  0  0  0  0  0  0  0  0  0  0
   -1.7510    0.0283   -0.5049 C   0  0  0  0  0  0  0  0  0  0  0  0
   -2.4705   -1.2034   -0.1831 C   0  0  0  0  0  0  0  0  0  0  0  0
   -2.6591   -2.0819   -1.0349 O   0  0  0  0  0  0  0  0  0  0  0  0
    3.3346   -1.2690    0.2446 H   0  0  0  0  0  0  0  0  0  0  0  0
    2.7796   -0.5938   -1.3002 H   0  0  0  0  0  0  0  0  0  0  0  0
    3.9514    0.3475   -0.3511 H   0  0  0  0  0  0  0  0  0  0  0  0
    2.0129    0.1993    1.5528 H   0  0  0  0  0  0  0  0  0  0  0  0
    1.9872    1.4439    0.2321 H   0  0  0  0  0  0  0  0  0  0  0  0
    0.7259   -1.3559    0.0950 H   0  0  0  0  0  0  0  0  0  0  0  0
    0.7035   -0.1255   -1.2023 H   0  0  0  0  0  0  0  0  0  0  0  0
   -0.8775   -0.1442    1.4509 H   0  0  0  0  0  0  0  0  0  0  0  0
   -2.7404    1.0778    1.1325 H   0  0  0  0  0  0  0  0  0  0  0  0
   -2.6845    2.0453   -0.4262 H   0  0  0  0  0  0  0  0  0  0  0  0
   -1.4912    0.1323   -1.5591 H   0  0  0  0  0  0  0  0  0  0  0  0
   -2.8732   -1.4195    0.7941 H   0  0  0  0  0  0  0  0  0  0  0  0
  1  2  1  0
  2  3  1  0
  3  4  1  0
  4  5  1  0
  5  6  1  0
  6  7  1  0
  7  8  1  0
  8  9  2  0
  7  4  1  0
  1 10  1  0
  1 11  1  0
  1 12  1  0
  2 13  1  0
  2 14  1  0
  3 15  1  0
  3 16  1  0
  4 17  1  0
  6 18  1  0
  6 19  1  0
  7 20  1  0
  8 21  1  0
M  END
