
     RDKit          3D

 17 16  0  0  0  0  0  0  0  0999 V2000
   -2.4486    0.5530   -0.6561 C   0  0  0  0  0  0  0  0  0  0  0  0
   -2.3409   -0.8599   -0.1247 C   0  0  0  0  0  0  0  0  0  0  0  0
   -1.4101   -0.9530    1.0561 C   0  0  0  0  0  0  0  0  0  0  0  0
   -0.0647   -0.5153    0.6733 C   0  0  0  0  0  0  0  0  0  0  0  0
    1.0377   -0.1626    0.3797 C   0  0  0  0  0  0  0  0  0  0  0  0
    2.3533    0.2817    0.0318 C   0  0  0  0  0  0  0  0  0  0  0  0
    3.4603    0.6536   -0.2656 C   0  0  0  0  0  0  0  0  0  0  0  0
    4.7782    1.1223   -0.6249 C   0  0  0  0  0  0  0  0  0  0  0  0
    5.6747    0.2918   -0.8718 O   0  0  0  0  0  0  0  0  0  0  0  0
   -2.8717    1.2229    0.1203 H   0  0  0  0  0  0  0  0  0  0  0  0
   -1.4484    0.8483   -0.9980 H   0  0  0  0  0  0  0  0  0  0  0  0
   -3.1934    0.5354   -1.4807 H   0  0  0  0  0  0  0  0  0  0  0  0
   -3.3479   -1.2143    0.1772 H   0  0  0  0  0  0  0  0  0  0  0  0
   -2.0047   -1.5437   -0.9302 H   0  0  0  0  0  0  0  0  0  0  0  0
   -1.3219   -2.0392    1.3042 H   0  0  0  0  0  0  0  0  0  0  0  0
   -1.8140   -0.4058    1.9184 H   0  0  0  0  0  0  0  0  0  0  0  0
    4.9619    2.1848   -0.6730 H   0  0  0  0  0  0  0  0  0  0  0  0
  1  2  1  0
  2  3  1  0
  3  4  1  0
  4  5  3  0
  5  6  1  0
  6  7  3  0
  7  8  1  0
  8  9  2  0
  1 10  1  0
  1 11  1  0
  1 12  1  0
  2 13  1  0
  2 14  1  0
  3 15  1  0
  3 16  1  0
  8 17  1  0
M  END
