
     RDKit          3D

 21 20  0  0  0  0  0  0  0  0999 V2000
   -2.8434    0.9338   -0.0510 C   0  0  0  0  0  0  0  0  0  0  0  0
   -1.9353   -0.1991   -0.4701 C   0  0  0  0  0  0  0  0  0  0  0  0
   -0.5344    0.0710    0.0287 C   0  0  0  0  0  0  0  0  0  0  0  0
    0.4223   -1.0295   -0.3599 C   0  0  0  0  0  0  0  0  0  0  0  0
    0.0065   -2.2502    0.1781 O   0  0  0  0  0  0  0  0  0  0  0  0
    1.7711   -0.6645    0.2751 C   0  0  0  0  0  0  0  0  0  0  0  0
    2.1535    0.5799   -0.3002 O   0  0  0  0  0  0  0  0  0  0  0  0
    3.3234    1.2377    0.0246 C   0  0  0  0  0  0  0  0  0  0  0  0
    4.0932    0.7124    0.8729 O   0  0  0  0  0  0  0  0  0  0  0  0
   -3.4122    1.3461   -0.9311 H   0  0  0  0  0  0  0  0  0  0  0  0
   -3.5916    0.5989    0.6867 H   0  0  0  0  0  0  0  0  0  0  0  0
   -2.2432    1.8059    0.3185 H   0  0  0  0  0  0  0  0  0  0  0  0
   -1.9748   -0.2840   -1.5514 H   0  0  0  0  0  0  0  0  0  0  0  0
   -2.2947   -1.1400    0.0004 H   0  0  0  0  0  0  0  0  0  0  0  0
   -0.1854    1.0215   -0.4166 H   0  0  0  0  0  0  0  0  0  0  0  0
   -0.4999    0.2078    1.1261 H   0  0  0  0  0  0  0  0  0  0  0  0
    0.5490   -1.0888   -1.4597 H   0  0  0  0  0  0  0  0  0  0  0  0
   -0.5205   -2.0930    1.0210 H   0  0  0  0  0  0  0  0  0  0  0  0
    2.5154   -1.4431    0.1181 H   0  0  0  0  0  0  0  0  0  0  0  0
    1.6491   -0.5142    1.3667 H   0  0  0  0  0  0  0  0  0  0  0  0
    3.5518    2.1914   -0.4584 H   0  0  0  0  0  0  0  0  0  0  0  0
  1  2  1  0
  2  3  1  0
  3  4  1  0
  4  5  1  0
  4  6  1  0
  6  7  1  0
  7  8  1  0
  8  9  2  0
  1 10  1  0
  1 11  1  0
  1 12  1  0
  2 13  1  0
  2 14  1  0
  3 15  1  0
  3 16  1  0
  4 17  1  0
  5 18  1  0
  6 19  1  0
  6 20  1  0
  8 21  1  0
M  END
