
     RDKit          3D

 23 23  0  0  0  0  0  0  0  0999 V2000
    2.5528    0.2504    0.3391 C   0  0  0  0  0  0  0  0  0  0  0  0
    1.7895    0.1657   -0.9483 C   0  0  0  0  0  0  0  0  0  0  0  0
    0.5517   -0.6602   -0.8800 C   0  0  0  0  0  0  0  0  0  0  0  0
   -0.4677   -0.2060    0.0919 C   0  0  0  0  0  0  0  0  0  0  0  0
   -0.0877   -0.1406    1.5125 C   0  0  0  0  0  0  0  0  0  0  0  0
   -0.0979   -1.0757    2.2763 O   0  0  0  0  0  0  0  0  0  0  0  0
   -1.7744   -0.9842   -0.1174 C   0  0  0  0  0  0  0  0  0  0  0  0
   -2.4848    0.3196    0.2493 C   0  0  0  0  0  0  0  0  0  0  0  0
   -1.2572    1.0331   -0.2862 C   0  0  0  0  0  0  0  0  0  0  0  0
    3.6500    0.2378    0.1747 H   0  0  0  0  0  0  0  0  0  0  0  0
    2.3082    1.2529    0.7904 H   0  0  0  0  0  0  0  0  0  0  0  0
    2.3096   -0.5099    1.0746 H   0  0  0  0  0  0  0  0  0  0  0  0
    2.4695   -0.3138   -1.6973 H   0  0  0  0  0  0  0  0  0  0  0  0
    1.5724    1.1803   -1.3777 H   0  0  0  0  0  0  0  0  0  0  0  0
    0.8478   -1.7005   -0.6192 H   0  0  0  0  0  0  0  0  0  0  0  0
    0.1037   -0.7040   -1.8804 H   0  0  0  0  0  0  0  0  0  0  0  0
    0.2273    0.8254    1.9063 H   0  0  0  0  0  0  0  0  0  0  0  0
   -1.9299   -1.7977    0.6015 H   0  0  0  0  0  0  0  0  0  0  0  0
   -1.9063   -1.2342   -1.1864 H   0  0  0  0  0  0  0  0  0  0  0  0
   -3.3944    0.5196   -0.3437 H   0  0  0  0  0  0  0  0  0  0  0  0
   -2.6227    0.3937    1.3397 H   0  0  0  0  0  0  0  0  0  0  0  0
   -1.3285    1.2426   -1.3622 H   0  0  0  0  0  0  0  0  0  0  0  0
   -1.0310    1.9058    0.3425 H   0  0  0  0  0  0  0  0  0  0  0  0
  1  2  1  0
  2  3  1  0
  3  4  1  0
  4  5  1  0
  5  6  2  0
  4  7  1  0
  7  8  1  0
  8  9  1  0
  9  4  1  0
  1 10  1  0
  1 11  1  0
  1 12  1  0
  2 13  1  0
  2 14  1  0
  3 15  1  0
  3 16  1  0
  5 17  1  0
  7 18  1  0
  7 19  1  0
  8 20  1  0
  8 21  1  0
  9 22  1  0
  9 23  1  0
M  END
