
     RDKit          3D

 19 19  0  0  0  0  0  0  0  0999 V2000
    2.9945    0.2031   -0.0090 C   0  0  0  0  0  0  0  0  0  0  0  0
    1.5626    0.3704   -0.4788 C   0  0  0  0  0  0  0  0  0  0  0  0
    0.6616   -0.6605    0.1901 C   0  0  0  0  0  0  0  0  0  0  0  0
   -0.7293   -0.4137   -0.3378 C   0  0  0  0  0  0  0  0  0  0  0  0
   -1.1846    0.8627   -0.0475 O   0  0  0  0  0  0  0  0  0  0  0  0
   -2.5235    0.7542   -0.4924 C   0  0  0  0  0  0  0  0  0  0  0  0
   -2.9025   -0.5416    0.1306 C   0  0  0  0  0  0  0  0  0  0  0  0
   -4.0716   -0.8888    0.4386 O   0  0  0  0  0  0  0  0  0  0  0  0
   -1.7005   -1.2313    0.2767 O   0  0  0  0  0  0  0  0  0  0  0  0
    3.2713    1.1165    0.5895 H   0  0  0  0  0  0  0  0  0  0  0  0
    3.0904   -0.6997    0.6152 H   0  0  0  0  0  0  0  0  0  0  0  0
    3.6188    0.0794   -0.8932 H   0  0  0  0  0  0  0  0  0  0  0  0
    1.1581    1.3651   -0.1760 H   0  0  0  0  0  0  0  0  0  0  0  0
    1.4786    0.2488   -1.5862 H   0  0  0  0  0  0  0  0  0  0  0  0
    0.9904   -1.6457   -0.1823 H   0  0  0  0  0  0  0  0  0  0  0  0
    0.6940   -0.5569    1.2763 H   0  0  0  0  0  0  0  0  0  0  0  0
   -0.7497   -0.5747   -1.4192 H   0  0  0  0  0  0  0  0  0  0  0  0
   -3.1305    1.5979   -0.1277 H   0  0  0  0  0  0  0  0  0  0  0  0
   -2.5283    0.6147   -1.5713 H   0  0  0  0  0  0  0  0  0  0  0  0
  1  2  1  0
  2  3  1  0
  3  4  1  0
  4  5  1  0
  5  6  1  0
  6  7  1  0
  7  8  2  0
  7  9  1  0
  9  4  1  0
  1 10  1  0
  1 11  1  0
  1 12  1  0
  2 13  1  0
  2 14  1  0
  3 15  1  0
  3 16  1  0
  4 17  1  0
  6 18  1  0
  6 19  1  0
M  END
