
     RDKit          3D

 25 24  0  0  0  0  0  0  0  0999 V2000
   -3.4677    0.5954   -0.2672 C   0  0  0  0  0  0  0  0  0  0  0  0
   -2.0530    0.6213    0.3261 C   0  0  0  0  0  0  0  0  0  0  0  0
   -1.3998   -0.6576   -0.0866 C   0  0  0  0  0  0  0  0  0  0  0  0
    0.0075   -0.8176    0.4048 C   0  0  0  0  0  0  0  0  0  0  0  0
    0.4656   -2.0612   -0.0692 O   0  0  0  0  0  0  0  0  0  0  0  0
    0.9474    0.2229   -0.1347 C   0  0  0  0  0  0  0  0  0  0  0  0
    0.9967    0.2605   -1.5173 O   0  0  0  0  0  0  0  0  0  0  0  0
    2.3372   -0.1153    0.4059 C   0  0  0  0  0  0  0  0  0  0  0  0
    3.3768    0.8620   -0.0670 C   0  0  0  0  0  0  0  0  0  0  0  0
   -3.9850    1.5466   -0.1256 H   0  0  0  0  0  0  0  0  0  0  0  0
   -3.3584    0.2980   -1.3342 H   0  0  0  0  0  0  0  0  0  0  0  0
   -4.0165   -0.2654    0.2150 H   0  0  0  0  0  0  0  0  0  0  0  0
   -2.1986    0.6510    1.4294 H   0  0  0  0  0  0  0  0  0  0  0  0
   -1.5693    1.5248   -0.0736 H   0  0  0  0  0  0  0  0  0  0  0  0
   -1.9953   -1.4926    0.3433 H   0  0  0  0  0  0  0  0  0  0  0  0
   -1.4542   -0.7504   -1.1716 H   0  0  0  0  0  0  0  0  0  0  0  0
    0.0915   -0.8432    1.4915 H   0  0  0  0  0  0  0  0  0  0  0  0
    0.0244   -2.2265   -0.9403 H   0  0  0  0  0  0  0  0  0  0  0  0
    0.6788    1.2425    0.2088 H   0  0  0  0  0  0  0  0  0  0  0  0
    0.5533   -0.5198   -1.9250 H   0  0  0  0  0  0  0  0  0  0  0  0
    2.3427   -0.1347    1.5018 H   0  0  0  0  0  0  0  0  0  0  0  0
    2.5743   -1.1292    0.0294 H   0  0  0  0  0  0  0  0  0  0  0  0
    3.1913    1.2484   -1.0825 H   0  0  0  0  0  0  0  0  0  0  0  0
    3.5686    1.6536    0.6845 H   0  0  0  0  0  0  0  0  0  0  0  0
    4.3417    0.2866   -0.1364 H   0  0  0  0  0  0  0  0  0  0  0  0
  1  2  1  0
  2  3  1  0
  3  4  1  0
  4  5  1  0
  4  6  1  0
  6  7  1  0
  6  8  1  0
  8  9  1  0
  1 10  1  0
  1 11  1  0
  1 12  1  0
  2 13  1  0
  2 14  1  0
  3 15  1  0
  3 16  1  0
  4 17  1  0
  5 18  1  0
  6 19  1  0
  7 20  1  0
  8 21  1  0
  8 22  1  0
  9 23  1  0
  9 24  1  0
  9 25  1  0
M  END
