
     RDKit          3D

 25 25  0  0  0  0  0  0  0  0999 V2000
    3.3602    0.0278    0.0950 C   0  0  0  0  0  0  0  0  0  0  0  0
    2.3662   -0.9397    0.6534 C   0  0  0  0  0  0  0  0  0  0  0  0
    1.0016   -0.2641    0.8599 C   0  0  0  0  0  0  0  0  0  0  0  0
    0.5587    0.2149   -0.4753 C   0  0  0  0  0  0  0  0  0  0  0  0
   -0.7464    0.9128   -0.5400 C   0  0  0  0  0  0  0  0  0  0  0  0
   -1.9448    0.1615   -0.1082 C   0  0  0  0  0  0  0  0  0  0  0  0
   -3.2361    0.9879   -0.2221 C   0  0  0  0  0  0  0  0  0  0  0  0
   -2.0959   -1.2588   -0.0304 C   0  0  0  0  0  0  0  0  0  0  0  0
   -1.8923   -0.4262    1.2038 O   0  0  0  0  0  0  0  0  0  0  0  0
    3.1996    0.1485   -0.9907 H   0  0  0  0  0  0  0  0  0  0  0  0
    3.3146    1.0360    0.5660 H   0  0  0  0  0  0  0  0  0  0  0  0
    4.3800   -0.3763    0.3017 H   0  0  0  0  0  0  0  0  0  0  0  0
    2.1999   -1.7369   -0.0912 H   0  0  0  0  0  0  0  0  0  0  0  0
    2.7278   -1.3671    1.6267 H   0  0  0  0  0  0  0  0  0  0  0  0
    1.1537    0.6261    1.5099 H   0  0  0  0  0  0  0  0  0  0  0  0
    0.3582   -0.9885    1.3541 H   0  0  0  0  0  0  0  0  0  0  0  0
    0.6092   -0.5875   -1.2657 H   0  0  0  0  0  0  0  0  0  0  0  0
    1.3356    0.9607   -0.8210 H   0  0  0  0  0  0  0  0  0  0  0  0
   -0.6494    1.9023   -0.0095 H   0  0  0  0  0  0  0  0  0  0  0  0
   -0.9061    1.2033   -1.6142 H   0  0  0  0  0  0  0  0  0  0  0  0
   -3.5532    0.9273   -1.2943 H   0  0  0  0  0  0  0  0  0  0  0  0
   -3.0425    2.0295    0.0848 H   0  0  0  0  0  0  0  0  0  0  0  0
   -4.0623    0.5070    0.3530 H   0  0  0  0  0  0  0  0  0  0  0  0
   -3.1232   -1.6919   -0.0552 H   0  0  0  0  0  0  0  0  0  0  0  0
   -1.3131   -2.0086   -0.1605 H   0  0  0  0  0  0  0  0  0  0  0  0
  1  2  1  0
  2  3  1  0
  3  4  1  0
  4  5  1  0
  5  6  1  0
  6  7  1  0
  6  8  1  0
  8  9  1  0
  9  6  1  0
  1 10  1  0
  1 11  1  0
  1 12  1  0
  2 13  1  0
  2 14  1  0
  3 15  1  0
  3 16  1  0
  4 17  1  0
  4 18  1  0
  5 19  1  0
  5 20  1  0
  7 21  1  0
  7 22  1  0
  7 23  1  0
  8 24  1  0
  8 25  1  0
M  END
