
     RDKit          3D

 27 26  0  0  0  0  0  0  0  0999 V2000
    3.1198   -0.5701   -0.5588 C   0  0  0  0  0  0  0  0  0  0  0  0
    1.9011    0.3027   -0.3898 C   0  0  0  0  0  0  0  0  0  0  0  0
    0.7400   -0.5355    0.0901 C   0  0  0  0  0  0  0  0  0  0  0  0
   -0.5135    0.2779    0.2803 C   0  0  0  0  0  0  0  0  0  0  0  0
   -0.3105    1.3769    1.3013 C   0  0  0  0  0  0  0  0  0  0  0  0
   -1.5963   -0.6647    0.7568 C   0  0  0  0  0  0  0  0  0  0  0  0
   -1.8826   -1.7682   -0.2072 C   0  0  0  0  0  0  0  0  0  0  0  0
   -0.9675    0.9522   -0.9922 C   0  0  0  0  0  0  0  0  0  0  0  0
   -2.1400    1.6655   -0.6498 O   0  0  0  0  0  0  0  0  0  0  0  0
    2.9889   -1.2432   -1.4438 H   0  0  0  0  0  0  0  0  0  0  0  0
    3.3098   -1.1836    0.3698 H   0  0  0  0  0  0  0  0  0  0  0  0
    3.9989    0.0605   -0.7747 H   0  0  0  0  0  0  0  0  0  0  0  0
    2.0852    1.1799    0.2207 H   0  0  0  0  0  0  0  0  0  0  0  0
    1.6247    0.6670   -1.4128 H   0  0  0  0  0  0  0  0  0  0  0  0
    1.0132   -0.9472    1.0833 H   0  0  0  0  0  0  0  0  0  0  0  0
    0.5240   -1.3799   -0.5807 H   0  0  0  0  0  0  0  0  0  0  0  0
    0.4510    1.1288    2.0532 H   0  0  0  0  0  0  0  0  0  0  0  0
   -1.2584    1.6531    1.7822 H   0  0  0  0  0  0  0  0  0  0  0  0
    0.0546    2.2743    0.7585 H   0  0  0  0  0  0  0  0  0  0  0  0
   -2.5262   -0.1361    1.0306 H   0  0  0  0  0  0  0  0  0  0  0  0
   -1.2097   -1.1327    1.6939 H   0  0  0  0  0  0  0  0  0  0  0  0
   -2.1105   -1.4668   -1.2282 H   0  0  0  0  0  0  0  0  0  0  0  0
   -2.8178   -2.2786    0.1717 H   0  0  0  0  0  0  0  0  0  0  0  0
   -1.0953   -2.5565   -0.2048 H   0  0  0  0  0  0  0  0  0  0  0  0
   -0.1879    1.6685   -1.3513 H   0  0  0  0  0  0  0  0  0  0  0  0
   -1.2386    0.2776   -1.8007 H   0  0  0  0  0  0  0  0  0  0  0  0
   -1.9565    2.3783    0.0028 H   0  0  0  0  0  0  0  0  0  0  0  0
  1  2  1  0
  2  3  1  0
  3  4  1  0
  4  5  1  0
  4  6  1  0
  6  7  1  0
  4  8  1  0
  8  9  1  0
  1 10  1  0
  1 11  1  0
  1 12  1  0
  2 13  1  0
  2 14  1  0
  3 15  1  0
  3 16  1  0
  5 17  1  0
  5 18  1  0
  5 19  1  0
  6 20  1  0
  6 21  1  0
  7 22  1  0
  7 23  1  0
  7 24  1  0
  8 25  1  0
  8 26  1  0
  9 27  1  0
M  END
