
     RDKit          3D

 23 23  0  0  0  0  0  0  0  0999 V2000
    3.0013   -0.4163   -0.1066 C   0  0  0  0  0  0  0  0  0  0  0  0
    1.6551    0.1042    0.3528 C   0  0  0  0  0  0  0  0  0  0  0  0
    0.6193   -0.1542   -0.6928 C   0  0  0  0  0  0  0  0  0  0  0  0
   -0.7519    0.3327   -0.3168 C   0  0  0  0  0  0  0  0  0  0  0  0
   -0.8891    1.7947   -0.0504 C   0  0  0  0  0  0  0  0  0  0  0  0
   -1.3479   -0.5648    0.7649 C   0  0  0  0  0  0  0  0  0  0  0  0
   -2.2746   -1.1982   -0.2477 C   0  0  0  0  0  0  0  0  0  0  0  0
   -1.8418   -0.1382   -1.2149 C   0  0  0  0  0  0  0  0  0  0  0  0
   -2.2989    0.1430   -2.3173 O   0  0  0  0  0  0  0  0  0  0  0  0
    3.1119   -0.3101   -1.2117 H   0  0  0  0  0  0  0  0  0  0  0  0
    3.8254    0.0995    0.4063 H   0  0  0  0  0  0  0  0  0  0  0  0
    3.1094   -1.5076    0.1175 H   0  0  0  0  0  0  0  0  0  0  0  0
    1.4446   -0.3630    1.3218 H   0  0  0  0  0  0  0  0  0  0  0  0
    1.7889    1.2190    0.4701 H   0  0  0  0  0  0  0  0  0  0  0  0
    0.6137   -1.2400   -0.9160 H   0  0  0  0  0  0  0  0  0  0  0  0
    0.9241    0.3524   -1.6278 H   0  0  0  0  0  0  0  0  0  0  0  0
   -1.9364    1.9855    0.2613 H   0  0  0  0  0  0  0  0  0  0  0  0
   -0.2489    2.1624    0.7752 H   0  0  0  0  0  0  0  0  0  0  0  0
   -0.7181    2.3364   -0.9986 H   0  0  0  0  0  0  0  0  0  0  0  0
   -0.6462   -1.3352    1.1530 H   0  0  0  0  0  0  0  0  0  0  0  0
   -1.8357   -0.0218    1.5890 H   0  0  0  0  0  0  0  0  0  0  0  0
   -3.3279   -1.0989    0.0755 H   0  0  0  0  0  0  0  0  0  0  0  0
   -1.9761   -2.1816   -0.6181 H   0  0  0  0  0  0  0  0  0  0  0  0
  1  2  1  0
  2  3  1  0
  3  4  1  0
  4  5  1  0
  4  6  1  0
  6  7  1  0
  7  8  1  0
  8  9  2  0
  8  4  1  0
  1 10  1  0
  1 11  1  0
  1 12  1  0
  2 13  1  0
  2 14  1  0
  3 15  1  0
  3 16  1  0
  5 17  1  0
  5 18  1  0
  5 19  1  0
  6 20  1  0
  6 21  1  0
  7 22  1  0
  7 23  1  0
M  END
