
     RDKit          3D

 21 22  0  0  0  0  0  0  0  0999 V2000
   -2.6811    0.3330   -0.1963 C   0  0  0  0  0  0  0  0  0  0  0  0
   -1.7219   -0.1988    0.8493 C   0  0  0  0  0  0  0  0  0  0  0  0
   -0.7013   -1.1128    0.2297 C   0  0  0  0  0  0  0  0  0  0  0  0
    0.1446   -0.4973   -0.8088 C   0  0  0  0  0  0  0  0  0  0  0  0
    1.0305    0.6433   -0.6284 C   0  0  0  0  0  0  0  0  0  0  0  0
    1.5217    1.0788    0.5667 O   0  0  0  0  0  0  0  0  0  0  0  0
    2.6554    0.3194    0.8005 C   0  0  0  0  0  0  0  0  0  0  0  0
    2.2061   -0.9688    0.5203 O   0  0  0  0  0  0  0  0  0  0  0  0
    1.6237   -0.7792   -0.7397 C   0  0  0  0  0  0  0  0  0  0  0  0
   -3.5379   -0.3608   -0.3020 H   0  0  0  0  0  0  0  0  0  0  0  0
   -3.0873    1.3067    0.1569 H   0  0  0  0  0  0  0  0  0  0  0  0
   -2.1339    0.4758   -1.1564 H   0  0  0  0  0  0  0  0  0  0  0  0
   -2.2985   -0.7780    1.5982 H   0  0  0  0  0  0  0  0  0  0  0  0
   -1.2945    0.6630    1.3641 H   0  0  0  0  0  0  0  0  0  0  0  0
   -1.2714   -1.9855   -0.1855 H   0  0  0  0  0  0  0  0  0  0  0  0
   -0.0571   -1.5415    1.0233 H   0  0  0  0  0  0  0  0  0  0  0  0
   -0.2568   -0.6264   -1.8577 H   0  0  0  0  0  0  0  0  0  0  0  0
    1.2310    1.3242   -1.4842 H   0  0  0  0  0  0  0  0  0  0  0  0
    3.4297    0.6249    0.0537 H   0  0  0  0  0  0  0  0  0  0  0  0
    3.0056    0.4358    1.8405 H   0  0  0  0  0  0  0  0  0  0  0  0
    2.1932   -1.0091   -1.6443 H   0  0  0  0  0  0  0  0  0  0  0  0
  1  2  1  0
  2  3  1  0
  3  4  1  0
  4  5  1  0
  5  6  1  0
  6  7  1  0
  7  8  1  0
  8  9  1  0
  9  4  1  0
  9  5  1  0
  1 10  1  0
  1 11  1  0
  1 12  1  0
  2 13  1  0
  2 14  1  0
  3 15  1  0
  3 16  1  0
  4 17  1  0
  5 18  1  0
  7 19  1  0
  7 20  1  0
  9 21  1  0
M  END
