
     RDKit          3D

 23 22  0  0  0  0  0  0  0  0999 V2000
    3.5888    0.1740   -0.0572 C   0  0  0  0  0  0  0  0  0  0  0  0
    2.1757   -0.2335   -0.4884 C   0  0  0  0  0  0  0  0  0  0  0  0
    1.2325    0.6471    0.2250 C   0  0  0  0  0  0  0  0  0  0  0  0
   -0.2311    0.4369   -0.0386 C   0  0  0  0  0  0  0  0  0  0  0  0
   -0.7498   -0.8693    0.2930 C   0  0  0  0  0  0  0  0  0  0  0  0
   -0.0310   -1.8533    0.5289 O   0  0  0  0  0  0  0  0  0  0  0  0
   -2.1919   -1.1377    0.3829 C   0  0  0  0  0  0  0  0  0  0  0  0
   -3.0858   -0.1584    0.2467 O   0  0  0  0  0  0  0  0  0  0  0  0
   -3.2911    0.5694   -0.8527 C   0  0  0  0  0  0  0  0  0  0  0  0
    3.5803    1.0568    0.6157 H   0  0  0  0  0  0  0  0  0  0  0  0
    4.2275    0.4439   -0.9114 H   0  0  0  0  0  0  0  0  0  0  0  0
    4.0484   -0.6524    0.5498 H   0  0  0  0  0  0  0  0  0  0  0  0
    2.0309   -1.3090   -0.3957 H   0  0  0  0  0  0  0  0  0  0  0  0
    2.1324   -0.0204   -1.5992 H   0  0  0  0  0  0  0  0  0  0  0  0
    1.3927    0.6300    1.3195 H   0  0  0  0  0  0  0  0  0  0  0  0
    1.4508    1.7063   -0.0969 H   0  0  0  0  0  0  0  0  0  0  0  0
   -0.3689    0.5738   -1.1499 H   0  0  0  0  0  0  0  0  0  0  0  0
   -0.7849    1.2223    0.4759 H   0  0  0  0  0  0  0  0  0  0  0  0
   -2.4628   -1.9303   -0.4174 H   0  0  0  0  0  0  0  0  0  0  0  0
   -2.4289   -1.6965    1.3505 H   0  0  0  0  0  0  0  0  0  0  0  0
   -2.4707    1.1877   -1.2170 H   0  0  0  0  0  0  0  0  0  0  0  0
   -4.1460    1.3213   -0.7223 H   0  0  0  0  0  0  0  0  0  0  0  0
   -3.6171   -0.1087   -1.7033 H   0  0  0  0  0  0  0  0  0  0  0  0
  1  2  1  0
  2  3  1  0
  3  4  1  0
  4  5  1  0
  5  6  2  0
  5  7  1  0
  7  8  1  0
  8  9  1  0
  1 10  1  0
  1 11  1  0
  1 12  1  0
  2 13  1  0
  2 14  1  0
  3 15  1  0
  3 16  1  0
  4 17  1  0
  4 18  1  0
  7 19  1  0
  7 20  1  0
  9 21  1  0
  9 22  1  0
  9 23  1  0
M  END
