
     RDKit          3D

 21 22  0  0  0  0  0  0  0  0999 V2000
    2.9894    0.0713    0.2906 C   0  0  0  0  0  0  0  0  0  0  0  0
    1.6976   -0.2144   -0.4410 C   0  0  0  0  0  0  0  0  0  0  0  0
    0.5017    0.2513    0.3650 C   0  0  0  0  0  0  0  0  0  0  0  0
   -0.7528    0.0539   -0.1830 C   0  0  0  0  0  0  0  0  0  0  0  0
   -1.3539   -1.2760   -0.5582 C   0  0  0  0  0  0  0  0  0  0  0  0
   -2.3317   -0.2089   -0.9204 C   0  0  0  0  0  0  0  0  0  0  0  0
   -1.2422    0.5243   -1.3747 O   0  0  0  0  0  0  0  0  0  0  0  0
   -2.0590    0.4014    0.4242 C   0  0  0  0  0  0  0  0  0  0  0  0
   -2.4298    1.7135    0.4680 O   0  0  0  0  0  0  0  0  0  0  0  0
    3.7507   -0.7225    0.0454 H   0  0  0  0  0  0  0  0  0  0  0  0
    2.8750    0.0337    1.3945 H   0  0  0  0  0  0  0  0  0  0  0  0
    3.3932    1.0775    0.0571 H   0  0  0  0  0  0  0  0  0  0  0  0
    1.7431    0.3595   -1.4078 H   0  0  0  0  0  0  0  0  0  0  0  0
    1.6170   -1.2859   -0.7157 H   0  0  0  0  0  0  0  0  0  0  0  0
    0.7058    1.3224    0.6104 H   0  0  0  0  0  0  0  0  0  0  0  0
    0.6084   -0.2712    1.3632 H   0  0  0  0  0  0  0  0  0  0  0  0
   -0.8806   -1.7147   -1.4363 H   0  0  0  0  0  0  0  0  0  0  0  0
   -1.6008   -1.9294    0.2824 H   0  0  0  0  0  0  0  0  0  0  0  0
   -3.2260   -0.3099   -1.3721 H   0  0  0  0  0  0  0  0  0  0  0  0
   -2.2800   -0.2322    1.3002 H   0  0  0  0  0  0  0  0  0  0  0  0
   -1.7250    2.3563    0.3036 H   0  0  0  0  0  0  0  0  0  0  0  0
  1  2  1  0
  2  3  1  0
  3  4  1  0
  4  5  1  0
  5  6  1  0
  6  7  1  0
  6  8  1  0
  8  9  1  0
  7  4  1  0
  8  4  1  0
  1 10  1  0
  1 11  1  0
  1 12  1  0
  2 13  1  0
  2 14  1  0
  3 15  1  0
  3 16  1  0
  5 17  1  0
  5 18  1  0
  6 19  1  0
  8 20  1  0
  9 21  1  0
M  END
