
     RDKit          3D

 23 23  0  0  0  0  0  0  0  0999 V2000
    3.6421   -0.0507   -0.0944 C   0  0  0  0  0  0  0  0  0  0  0  0
    2.2175    0.2421    0.3326 C   0  0  0  0  0  0  0  0  0  0  0  0
    1.3823   -0.9725    0.0269 C   0  0  0  0  0  0  0  0  0  0  0  0
    0.0656   -0.8500    0.3620 O   0  0  0  0  0  0  0  0  0  0  0  0
   -0.5924    0.1849   -0.2814 C   0  0  0  0  0  0  0  0  0  0  0  0
   -2.0390    0.2259    0.1647 C   0  0  0  0  0  0  0  0  0  0  0  0
   -2.1738    0.4278    1.5434 O   0  0  0  0  0  0  0  0  0  0  0  0
   -3.0908   -0.4430   -0.6196 C   0  0  0  0  0  0  0  0  0  0  0  0
   -2.9366    1.0431   -0.7533 C   0  0  0  0  0  0  0  0  0  0  0  0
    4.1407    0.9346   -0.2343 H   0  0  0  0  0  0  0  0  0  0  0  0
    3.5902   -0.5198   -1.1008 H   0  0  0  0  0  0  0  0  0  0  0  0
    4.1744   -0.6800    0.6496 H   0  0  0  0  0  0  0  0  0  0  0  0
    1.8946    1.1307   -0.2458 H   0  0  0  0  0  0  0  0  0  0  0  0
    2.1902    0.4134    1.4348 H   0  0  0  0  0  0  0  0  0  0  0  0
    1.8132   -1.8291    0.5822 H   0  0  0  0  0  0  0  0  0  0  0  0
    1.5101   -1.2164   -1.0531 H   0  0  0  0  0  0  0  0  0  0  0  0
   -0.5863    0.1035   -1.3755 H   0  0  0  0  0  0  0  0  0  0  0  0
   -0.1461    1.1597    0.0655 H   0  0  0  0  0  0  0  0  0  0  0  0
   -2.1141   -0.4971    1.9438 H   0  0  0  0  0  0  0  0  0  0  0  0
   -3.9686   -0.8025   -0.0581 H   0  0  0  0  0  0  0  0  0  0  0  0
   -2.7548   -1.1021   -1.4678 H   0  0  0  0  0  0  0  0  0  0  0  0
   -2.5367    1.3753   -1.7346 H   0  0  0  0  0  0  0  0  0  0  0  0
   -3.6818    1.7221   -0.3214 H   0  0  0  0  0  0  0  0  0  0  0  0
  1  2  1  0
  2  3  1  0
  3  4  1  0
  4  5  1  0
  5  6  1  0
  6  7  1  0
  6  8  1  0
  8  9  1  0
  9  6  1  0
  1 10  1  0
  1 11  1  0
  1 12  1  0
  2 13  1  0
  2 14  1  0
  3 15  1  0
  3 16  1  0
  5 17  1  0
  5 18  1  0
  7 19  1  0
  8 20  1  0
  8 21  1  0
  9 22  1  0
  9 23  1  0
M  END
