
     RDKit          3D

 25 24  0  0  0  0  0  0  0  0999 V2000
    2.2057    1.2378    0.6056 C   0  0  0  0  0  0  0  0  0  0  0  0
    2.0661    0.1880   -0.4388 C   0  0  0  0  0  0  0  0  0  0  0  0
    1.4946   -1.1156    0.0164 C   0  0  0  0  0  0  0  0  0  0  0  0
    0.2356   -1.0986    0.5275 O   0  0  0  0  0  0  0  0  0  0  0  0
   -0.7875   -0.6920   -0.2692 C   0  0  0  0  0  0  0  0  0  0  0  0
   -1.7561   -1.8636   -0.5793 C   0  0  0  0  0  0  0  0  0  0  0  0
   -1.6903    0.3592    0.3142 C   0  0  0  0  0  0  0  0  0  0  0  0
   -1.1026    1.7189    0.4313 C   0  0  0  0  0  0  0  0  0  0  0  0
   -2.2985   -0.0541    1.4936 O   0  0  0  0  0  0  0  0  0  0  0  0
    3.2680    1.3341    0.9755 H   0  0  0  0  0  0  0  0  0  0  0  0
    1.9013    2.2218    0.1885 H   0  0  0  0  0  0  0  0  0  0  0  0
    1.6070    0.9543    1.5042 H   0  0  0  0  0  0  0  0  0  0  0  0
    1.5209    0.5310   -1.3452 H   0  0  0  0  0  0  0  0  0  0  0  0
    3.1072   -0.0437   -0.8115 H   0  0  0  0  0  0  0  0  0  0  0  0
    1.6390   -1.8333   -0.8226 H   0  0  0  0  0  0  0  0  0  0  0  0
    2.1580   -1.5419    0.8305 H   0  0  0  0  0  0  0  0  0  0  0  0
   -0.4480   -0.3756   -1.2726 H   0  0  0  0  0  0  0  0  0  0  0  0
   -2.6552   -1.4105   -1.0547 H   0  0  0  0  0  0  0  0  0  0  0  0
   -1.3173   -2.5527   -1.2964 H   0  0  0  0  0  0  0  0  0  0  0  0
   -2.0246   -2.2806    0.3894 H   0  0  0  0  0  0  0  0  0  0  0  0
   -2.5507    0.4591   -0.4231 H   0  0  0  0  0  0  0  0  0  0  0  0
   -0.4211    1.9733   -0.3768 H   0  0  0  0  0  0  0  0  0  0  0  0
   -0.6042    1.8925    1.4256 H   0  0  0  0  0  0  0  0  0  0  0  0
   -1.9503    2.4647    0.4149 H   0  0  0  0  0  0  0  0  0  0  0  0
   -1.5970   -0.4725    2.0708 H   0  0  0  0  0  0  0  0  0  0  0  0
  1  2  1  0
  2  3  1  0
  3  4  1  0
  4  5  1  0
  5  6  1  0
  5  7  1  0
  7  8  1  0
  7  9  1  0
  1 10  1  0
  1 11  1  0
  1 12  1  0
  2 13  1  0
  2 14  1  0
  3 15  1  0
  3 16  1  0
  5 17  1  0
  6 18  1  0
  6 19  1  0
  6 20  1  0
  7 21  1  0
  8 22  1  0
  8 23  1  0
  8 24  1  0
  9 25  1  0
M  END
