
     RDKit          3D

 25 24  0  0  0  0  0  0  0  0999 V2000
   -3.0295    0.5489   -0.5058 C   0  0  0  0  0  0  0  0  0  0  0  0
   -2.5381   -0.8201   -0.9253 C   0  0  0  0  0  0  0  0  0  0  0  0
   -1.9301   -1.4828    0.2829 C   0  0  0  0  0  0  0  0  0  0  0  0
   -0.8998   -0.7506    0.7756 O   0  0  0  0  0  0  0  0  0  0  0  0
    0.1164   -0.5906   -0.1305 C   0  0  0  0  0  0  0  0  0  0  0  0
    1.1878    0.2306    0.6158 C   0  0  0  0  0  0  0  0  0  0  0  0
    2.3767    0.4732   -0.2996 C   0  0  0  0  0  0  0  0  0  0  0  0
    3.3793    1.2780    0.4934 C   0  0  0  0  0  0  0  0  0  0  0  0
    1.9944    1.1457   -1.4578 O   0  0  0  0  0  0  0  0  0  0  0  0
   -2.9754    1.2222   -1.3771 H   0  0  0  0  0  0  0  0  0  0  0  0
   -2.4099    0.9144    0.3395 H   0  0  0  0  0  0  0  0  0  0  0  0
   -4.0943    0.4169   -0.2028 H   0  0  0  0  0  0  0  0  0  0  0  0
   -1.8497   -0.6900   -1.7750 H   0  0  0  0  0  0  0  0  0  0  0  0
   -3.3951   -1.4711   -1.2394 H   0  0  0  0  0  0  0  0  0  0  0  0
   -1.6142   -2.5353    0.0586 H   0  0  0  0  0  0  0  0  0  0  0  0
   -2.6794   -1.5975    1.1011 H   0  0  0  0  0  0  0  0  0  0  0  0
   -0.1483    0.0021   -1.0382 H   0  0  0  0  0  0  0  0  0  0  0  0
    0.5698   -1.5646   -0.3821 H   0  0  0  0  0  0  0  0  0  0  0  0
    0.7300    1.1843    0.9137 H   0  0  0  0  0  0  0  0  0  0  0  0
    1.5214   -0.3315    1.4916 H   0  0  0  0  0  0  0  0  0  0  0  0
    2.8138   -0.5110   -0.5858 H   0  0  0  0  0  0  0  0  0  0  0  0
    3.8201    2.0185   -0.2047 H   0  0  0  0  0  0  0  0  0  0  0  0
    4.1326    0.5754    0.8930 H   0  0  0  0  0  0  0  0  0  0  0  0
    2.8925    1.7943    1.3555 H   0  0  0  0  0  0  0  0  0  0  0  0
    2.0290    0.5404   -2.2585 H   0  0  0  0  0  0  0  0  0  0  0  0
  1  2  1  0
  2  3  1  0
  3  4  1  0
  4  5  1  0
  5  6  1  0
  6  7  1  0
  7  8  1  0
  7  9  1  0
  1 10  1  0
  1 11  1  0
  1 12  1  0
  2 13  1  0
  2 14  1  0
  3 15  1  0
  3 16  1  0
  5 17  1  0
  5 18  1  0
  6 19  1  0
  6 20  1  0
  7 21  1  0
  8 22  1  0
  8 23  1  0
  8 24  1  0
  9 25  1  0
M  END
