
     RDKit          3D

 20 19  0  0  0  0  0  0  0  0999 V2000
    2.5451    0.8586    0.1664 C   0  0  0  0  0  0  0  0  0  0  0  0
    2.1039   -0.2698   -0.7031 C   0  0  0  0  0  0  0  0  0  0  0  0
    0.7527   -0.8189   -0.3330 C   0  0  0  0  0  0  0  0  0  0  0  0
   -0.2104    0.1840   -0.4373 O   0  0  0  0  0  0  0  0  0  0  0  0
   -1.4675   -0.2592   -0.1109 C   0  0  0  0  0  0  0  0  0  0  0  0
   -2.0607    0.4339    1.0881 C   0  0  0  0  0  0  0  0  0  0  0  0
   -2.4150   -0.1529   -1.2505 C   0  0  0  0  0  0  0  0  0  0  0  0
   -1.9920    0.2940   -2.2970 O   0  0  0  0  0  0  0  0  0  0  0  0
    3.2899    1.4582   -0.4182 H   0  0  0  0  0  0  0  0  0  0  0  0
    3.0184    0.5697    1.1061 H   0  0  0  0  0  0  0  0  0  0  0  0
    1.7224    1.5763    0.4022 H   0  0  0  0  0  0  0  0  0  0  0  0
    2.1290    0.0637   -1.7579 H   0  0  0  0  0  0  0  0  0  0  0  0
    2.8353   -1.0965   -0.6184 H   0  0  0  0  0  0  0  0  0  0  0  0
    0.4843   -1.5976   -1.0767 H   0  0  0  0  0  0  0  0  0  0  0  0
    0.8056   -1.2687    0.6645 H   0  0  0  0  0  0  0  0  0  0  0  0
   -1.3783   -1.3403    0.1596 H   0  0  0  0  0  0  0  0  0  0  0  0
   -1.8778   -0.1479    2.0165 H   0  0  0  0  0  0  0  0  0  0  0  0
   -3.1625    0.5166    0.9787 H   0  0  0  0  0  0  0  0  0  0  0  0
   -1.6721    1.4429    1.2548 H   0  0  0  0  0  0  0  0  0  0  0  0
   -3.4504   -0.4460   -1.2081 H   0  0  0  0  0  0  0  0  0  0  0  0
  1  2  1  0
  2  3  1  0
  3  4  1  0
  4  5  1  0
  5  6  1  0
  5  7  1  0
  7  8  2  0
  1  9  1  0
  1 10  1  0
  1 11  1  0
  2 12  1  0
  2 13  1  0
  3 14  1  0
  3 15  1  0
  5 16  1  0
  6 17  1  0
  6 18  1  0
  6 19  1  0
  7 20  1  0
M  END
