
     RDKit          3D

 23 23  0  0  0  0  0  0  0  0999 V2000
    3.7987    0.2018    0.1433 C   0  0  0  0  0  0  0  0  0  0  0  0
    2.5653   -0.6222   -0.1501 C   0  0  0  0  0  0  0  0  0  0  0  0
    1.3592    0.2682   -0.0599 C   0  0  0  0  0  0  0  0  0  0  0  0
    0.1737   -0.4553   -0.3267 O   0  0  0  0  0  0  0  0  0  0  0  0
   -0.9376    0.3810   -0.2401 C   0  0  0  0  0  0  0  0  0  0  0  0
   -1.8219   -0.1417    0.8444 C   0  0  0  0  0  0  0  0  0  0  0  0
   -2.9896   -0.7065    0.0618 C   0  0  0  0  0  0  0  0  0  0  0  0
   -2.9868    0.2574   -1.1296 C   0  0  0  0  0  0  0  0  0  0  0  0
   -1.6511    0.4436   -1.4087 O   0  0  0  0  0  0  0  0  0  0  0  0
    3.5330    1.2673    0.2996 H   0  0  0  0  0  0  0  0  0  0  0  0
    4.3108   -0.1259    1.0702 H   0  0  0  0  0  0  0  0  0  0  0  0
    4.4869    0.1777   -0.7220 H   0  0  0  0  0  0  0  0  0  0  0  0
    2.6689   -1.0797   -1.1642 H   0  0  0  0  0  0  0  0  0  0  0  0
    2.5388   -1.4519    0.5637 H   0  0  0  0  0  0  0  0  0  0  0  0
    1.2601    0.6001    0.9956 H   0  0  0  0  0  0  0  0  0  0  0  0
    1.4593    1.1096   -0.7598 H   0  0  0  0  0  0  0  0  0  0  0  0
   -0.5788    1.4145    0.0217 H   0  0  0  0  0  0  0  0  0  0  0  0
   -2.1989    0.7230    1.4602 H   0  0  0  0  0  0  0  0  0  0  0  0
   -1.3283   -0.9022    1.4820 H   0  0  0  0  0  0  0  0  0  0  0  0
   -3.9342   -0.6546    0.6182 H   0  0  0  0  0  0  0  0  0  0  0  0
   -2.7293   -1.6974   -0.3234 H   0  0  0  0  0  0  0  0  0  0  0  0
   -3.5108   -0.1928   -1.9858 H   0  0  0  0  0  0  0  0  0  0  0  0
   -3.4874    1.1860   -0.7516 H   0  0  0  0  0  0  0  0  0  0  0  0
  1  2  1  0
  2  3  1  0
  3  4  1  0
  4  5  1  0
  5  6  1  0
  6  7  1  0
  7  8  1  0
  8  9  1  0
  9  5  1  0
  1 10  1  0
  1 11  1  0
  1 12  1  0
  2 13  1  0
  2 14  1  0
  3 15  1  0
  3 16  1  0
  5 17  1  0
  6 18  1  0
  6 19  1  0
  7 20  1  0
  7 21  1  0
  8 22  1  0
  8 23  1  0
M  END
