
     RDKit          3D

 23 23  0  0  0  0  0  0  0  0999 V2000
    3.7493   -0.2089    0.3040 C   0  0  0  0  0  0  0  0  0  0  0  0
    2.6230    0.4452   -0.4698 C   0  0  0  0  0  0  0  0  0  0  0  0
    1.3299   -0.0122    0.1459 C   0  0  0  0  0  0  0  0  0  0  0  0
    0.2155    0.5136   -0.4686 O   0  0  0  0  0  0  0  0  0  0  0  0
   -0.9161    0.0272    0.1772 C   0  0  0  0  0  0  0  0  0  0  0  0
   -2.1841   -0.1787   -0.5655 C   0  0  0  0  0  0  0  0  0  0  0  0
   -2.9939   -1.4056   -0.1894 C   0  0  0  0  0  0  0  0  0  0  0  0
   -2.0728    0.9555    0.3870 C   0  0  0  0  0  0  0  0  0  0  0  0
   -1.9136    2.2456   -0.1183 O   0  0  0  0  0  0  0  0  0  0  0  0
    4.5591   -0.5662   -0.3790 H   0  0  0  0  0  0  0  0  0  0  0  0
    4.1853    0.5653    0.9631 H   0  0  0  0  0  0  0  0  0  0  0  0
    3.3727   -1.0247    0.9530 H   0  0  0  0  0  0  0  0  0  0  0  0
    2.6975    0.1934   -1.5461 H   0  0  0  0  0  0  0  0  0  0  0  0
    2.6491    1.5636   -0.3530 H   0  0  0  0  0  0  0  0  0  0  0  0
    1.3252   -1.1343    0.0827 H   0  0  0  0  0  0  0  0  0  0  0  0
    1.3346    0.2978    1.2089 H   0  0  0  0  0  0  0  0  0  0  0  0
   -0.7081   -0.6493    1.0118 H   0  0  0  0  0  0  0  0  0  0  0  0
   -2.2807    0.1032   -1.6277 H   0  0  0  0  0  0  0  0  0  0  0  0
   -3.0348   -2.0753   -1.0636 H   0  0  0  0  0  0  0  0  0  0  0  0
   -4.0356   -1.1464    0.0835 H   0  0  0  0  0  0  0  0  0  0  0  0
   -2.5216   -1.9504    0.6558 H   0  0  0  0  0  0  0  0  0  0  0  0
   -2.6173    0.9388    1.3664 H   0  0  0  0  0  0  0  0  0  0  0  0
   -2.7626    2.5026   -0.5582 H   0  0  0  0  0  0  0  0  0  0  0  0
  1  2  1  0
  2  3  1  0
  3  4  1  0
  4  5  1  0
  5  6  1  0
  6  7  1  0
  6  8  1  0
  8  9  1  0
  8  5  1  0
  1 10  1  0
  1 11  1  0
  1 12  1  0
  2 13  1  0
  2 14  1  0
  3 15  1  0
  3 16  1  0
  5 17  1  0
  6 18  1  0
  7 19  1  0
  7 20  1  0
  7 21  1  0
  8 22  1  0
  9 23  1  0
M  END
