
     RDKit          3D

 24 23  0  0  0  0  0  0  0  0999 V2000
    3.7442   -0.3261    0.1587 C   0  0  0  0  0  0  0  0  0  0  0  0
    2.3116   -0.6511    0.4824 C   0  0  0  0  0  0  0  0  0  0  0  0
    1.4164    0.3100   -0.2970 C   0  0  0  0  0  0  0  0  0  0  0  0
    0.1156   -0.0089    0.0169 O   0  0  0  0  0  0  0  0  0  0  0  0
   -0.8097    0.8037   -0.6362 C   0  0  0  0  0  0  0  0  0  0  0  0
   -2.2126    0.4393   -0.2804 C   0  0  0  0  0  0  0  0  0  0  0  0
   -2.5065    0.5638    1.1888 C   0  0  0  0  0  0  0  0  0  0  0  0
   -2.4148   -1.0292   -0.6486 C   0  0  0  0  0  0  0  0  0  0  0  0
    4.4136   -1.0805    0.6027 H   0  0  0  0  0  0  0  0  0  0  0  0
    3.8548   -0.2652   -0.9357 H   0  0  0  0  0  0  0  0  0  0  0  0
    3.9518    0.6880    0.5785 H   0  0  0  0  0  0  0  0  0  0  0  0
    2.0297   -1.6713    0.1489 H   0  0  0  0  0  0  0  0  0  0  0  0
    2.0690   -0.5127    1.5484 H   0  0  0  0  0  0  0  0  0  0  0  0
    1.6673    0.1743   -1.3606 H   0  0  0  0  0  0  0  0  0  0  0  0
    1.7067    1.3392   -0.0130 H   0  0  0  0  0  0  0  0  0  0  0  0
   -0.5770    1.8669   -0.4321 H   0  0  0  0  0  0  0  0  0  0  0  0
   -0.6801    0.6275   -1.7251 H   0  0  0  0  0  0  0  0  0  0  0  0
   -2.9167    1.0209   -0.8962 H   0  0  0  0  0  0  0  0  0  0  0  0
   -1.9283   -0.2131    1.7251 H   0  0  0  0  0  0  0  0  0  0  0  0
   -2.3103    1.5913    1.5707 H   0  0  0  0  0  0  0  0  0  0  0  0
   -3.5922    0.3514    1.3211 H   0  0  0  0  0  0  0  0  0  0  0  0
   -1.7566   -1.6019    0.0681 H   0  0  0  0  0  0  0  0  0  0  0  0
   -3.4841   -1.2831   -0.4959 H   0  0  0  0  0  0  0  0  0  0  0  0
   -2.0918   -1.1334   -1.6895 H   0  0  0  0  0  0  0  0  0  0  0  0
  1  2  1  0
  2  3  1  0
  3  4  1  0
  4  5  1  0
  5  6  1  0
  6  7  1  0
  6  8  1  0
  1  9  1  0
  1 10  1  0
  1 11  1  0
  2 12  1  0
  2 13  1  0
  3 14  1  0
  3 15  1  0
  5 16  1  0
  5 17  1  0
  6 18  1  0
  7 19  1  0
  7 20  1  0
  7 21  1  0
  8 22  1  0
  8 23  1  0
  8 24  1  0
M  END
