
     RDKit          3D

 25 25  0  0  0  0  0  0  0  0999 V2000
    2.8255   -0.8036    0.5054 C   0  0  0  0  0  0  0  0  0  0  0  0
    2.8008    0.5544   -0.1790 C   0  0  0  0  0  0  0  0  0  0  0  0
    1.3081    0.7984   -0.5402 C   0  0  0  0  0  0  0  0  0  0  0  0
    0.6416    0.7819    0.6283 O   0  0  0  0  0  0  0  0  0  0  0  0
   -0.6647    1.0110    0.7480 C   0  0  0  0  0  0  0  0  0  0  0  0
   -1.5253    0.0483   -0.0035 C   0  0  0  0  0  0  0  0  0  0  0  0
   -1.4275   -0.0641   -1.5005 C   0  0  0  0  0  0  0  0  0  0  0  0
   -1.7985   -1.3182    0.6687 C   0  0  0  0  0  0  0  0  0  0  0  0
   -2.8519   -0.2308    0.6534 C   0  0  0  0  0  0  0  0  0  0  0  0
    2.1155   -1.4820   -0.0176 H   0  0  0  0  0  0  0  0  0  0  0  0
    3.8368   -1.2135    0.5998 H   0  0  0  0  0  0  0  0  0  0  0  0
    2.3827   -0.6409    1.5191 H   0  0  0  0  0  0  0  0  0  0  0  0
    3.0327    1.3499    0.5596 H   0  0  0  0  0  0  0  0  0  0  0  0
    3.4204    0.5880   -1.0738 H   0  0  0  0  0  0  0  0  0  0  0  0
    1.2118    1.7476   -1.1117 H   0  0  0  0  0  0  0  0  0  0  0  0
    1.0686   -0.0198   -1.2631 H   0  0  0  0  0  0  0  0  0  0  0  0
   -0.9469    0.9096    1.8470 H   0  0  0  0  0  0  0  0  0  0  0  0
   -0.9710    2.0752    0.5368 H   0  0  0  0  0  0  0  0  0  0  0  0
   -2.4805   -0.1525   -1.9389 H   0  0  0  0  0  0  0  0  0  0  0  0
   -0.9616   -1.0313   -1.7619 H   0  0  0  0  0  0  0  0  0  0  0  0
   -0.9716    0.8200   -1.9784 H   0  0  0  0  0  0  0  0  0  0  0  0
   -1.2488   -1.4746    1.6257 H   0  0  0  0  0  0  0  0  0  0  0  0
   -2.0220   -2.1739    0.0349 H   0  0  0  0  0  0  0  0  0  0  0  0
   -3.6914   -0.3088   -0.0580 H   0  0  0  0  0  0  0  0  0  0  0  0
   -3.0828    0.2296    1.6167 H   0  0  0  0  0  0  0  0  0  0  0  0
  1  2  1  0
  2  3  1  0
  3  4  1  0
  4  5  1  0
  5  6  1  0
  6  7  1  0
  6  8  1  0
  8  9  1  0
  9  6  1  0
  1 10  1  0
  1 11  1  0
  1 12  1  0
  2 13  1  0
  2 14  1  0
  3 15  1  0
  3 16  1  0
  5 17  1  0
  5 18  1  0
  7 19  1  0
  7 20  1  0
  7 21  1  0
  8 22  1  0
  8 23  1  0
  9 24  1  0
  9 25  1  0
M  END
