
     RDKit          3D

 23 24  0  0  0  0  0  0  0  0999 V2000
    3.1508    0.2991   -0.5081 C   0  0  0  0  0  0  0  0  0  0  0  0
    2.4754   -0.4466    0.6036 C   0  0  0  0  0  0  0  0  0  0  0  0
    1.0060   -0.6589    0.3718 C   0  0  0  0  0  0  0  0  0  0  0  0
    0.2969    0.5038    0.2388 O   0  0  0  0  0  0  0  0  0  0  0  0
   -0.9263    0.3839    0.0449 C   0  0  0  0  0  0  0  0  0  0  0  0
   -1.9627    1.4391   -0.1386 C   0  0  0  0  0  0  0  0  0  0  0  0
   -2.7630    0.1679   -0.1867 C   0  0  0  0  0  0  0  0  0  0  0  0
   -1.9390   -0.2750    0.9884 C   0  0  0  0  0  0  0  0  0  0  0  0
   -1.6431   -0.3808   -1.0370 C   0  0  0  0  0  0  0  0  0  0  0  0
    3.4510    1.3340   -0.1701 H   0  0  0  0  0  0  0  0  0  0  0  0
    2.5477    0.3345   -1.4263 H   0  0  0  0  0  0  0  0  0  0  0  0
    4.1345   -0.1880   -0.7737 H   0  0  0  0  0  0  0  0  0  0  0  0
    2.6239    0.0314    1.5832 H   0  0  0  0  0  0  0  0  0  0  0  0
    2.9336   -1.4711    0.6897 H   0  0  0  0  0  0  0  0  0  0  0  0
    0.6181   -1.2212    1.2534 H   0  0  0  0  0  0  0  0  0  0  0  0
    0.8666   -1.3658   -0.4949 H   0  0  0  0  0  0  0  0  0  0  0  0
   -1.9229    2.0155   -1.0710 H   0  0  0  0  0  0  0  0  0  0  0  0
   -2.1258    2.0115    0.7867 H   0  0  0  0  0  0  0  0  0  0  0  0
   -3.7439    0.0601   -0.3309 H   0  0  0  0  0  0  0  0  0  0  0  0
   -2.1007    0.2618    1.9269 H   0  0  0  0  0  0  0  0  0  0  0  0
   -1.8461   -1.3638    1.0351 H   0  0  0  0  0  0  0  0  0  0  0  0
   -1.5614    0.0037   -2.0530 H   0  0  0  0  0  0  0  0  0  0  0  0
   -1.5693   -1.4751   -0.8930 H   0  0  0  0  0  0  0  0  0  0  0  0
  1  2  1  0
  2  3  1  0
  3  4  1  0
  4  5  1  0
  5  6  1  0
  6  7  1  0
  7  8  1  0
  7  9  1  0
  8  5  1  0
  9  5  1  0
  1 10  1  0
  1 11  1  0
  1 12  1  0
  2 13  1  0
  2 14  1  0
  3 15  1  0
  3 16  1  0
  6 17  1  0
  6 18  1  0
  7 19  1  0
  8 20  1  0
  8 21  1  0
  9 22  1  0
  9 23  1  0
M  END
