
     RDKit          3D

 19 18  0  0  0  0  0  0  0  0999 V2000
   -3.2386    0.2651   -0.3870 C   0  0  0  0  0  0  0  0  0  0  0  0
   -1.7672    0.5629   -0.0607 C   0  0  0  0  0  0  0  0  0  0  0  0
   -1.1805   -0.6593    0.5791 C   0  0  0  0  0  0  0  0  0  0  0  0
    0.1771   -0.5314    0.9386 O   0  0  0  0  0  0  0  0  0  0  0  0
    1.1559   -0.2742    0.0033 C   0  0  0  0  0  0  0  0  0  0  0  0
    0.8243   -0.1547   -1.1843 O   0  0  0  0  0  0  0  0  0  0  0  0
    2.5737   -0.1431    0.4053 C   0  0  0  0  0  0  0  0  0  0  0  0
    3.6294    0.1303   -0.5742 C   0  0  0  0  0  0  0  0  0  0  0  0
    2.8973   -0.2654    1.6053 O   0  0  0  0  0  0  0  0  0  0  0  0
   -3.7690    0.2060    0.5947 H   0  0  0  0  0  0  0  0  0  0  0  0
   -3.6468    1.0643   -1.0308 H   0  0  0  0  0  0  0  0  0  0  0  0
   -3.3289   -0.7264   -0.8674 H   0  0  0  0  0  0  0  0  0  0  0  0
   -1.3020    0.7619   -1.0402 H   0  0  0  0  0  0  0  0  0  0  0  0
   -1.7406    1.4520    0.5657 H   0  0  0  0  0  0  0  0  0  0  0  0
   -1.3762   -1.5526   -0.0389 H   0  0  0  0  0  0  0  0  0  0  0  0
   -1.7270   -0.8543    1.5495 H   0  0  0  0  0  0  0  0  0  0  0  0
    4.4064    0.7571   -0.0852 H   0  0  0  0  0  0  0  0  0  0  0  0
    3.2614    0.7511   -1.4376 H   0  0  0  0  0  0  0  0  0  0  0  0
    4.1512   -0.7895   -0.9228 H   0  0  0  0  0  0  0  0  0  0  0  0
  1  2  1  0
  2  3  1  0
  3  4  1  0
  4  5  1  0
  5  6  2  0
  5  7  1  0
  7  8  1  0
  7  9  2  0
  1 10  1  0
  1 11  1  0
  1 12  1  0
  2 13  1  0
  2 14  1  0
  3 15  1  0
  3 16  1  0
  8 17  1  0
  8 18  1  0
  8 19  1  0
M  END
