
     RDKit          3D

 21 21  0  0  0  0  0  0  0  0999 V2000
    2.8788    0.5443    1.1308 C   0  0  0  0  0  0  0  0  0  0  0  0
    2.5440   -0.6204    0.2270 C   0  0  0  0  0  0  0  0  0  0  0  0
    1.2243   -0.3678   -0.4889 C   0  0  0  0  0  0  0  0  0  0  0  0
    0.2543   -0.2222    0.4739 O   0  0  0  0  0  0  0  0  0  0  0  0
   -0.9661    0.0101   -0.1420 C   0  0  0  0  0  0  0  0  0  0  0  0
   -1.9977   -0.9828    0.2365 C   0  0  0  0  0  0  0  0  0  0  0  0
   -3.1559   -0.3390    0.2054 C   0  0  0  0  0  0  0  0  0  0  0  0
   -2.8634    1.0878   -0.1980 C   0  0  0  0  0  0  0  0  0  0  0  0
   -1.5261    1.2191    0.2499 O   0  0  0  0  0  0  0  0  0  0  0  0
    3.8275    1.0338    0.8657 H   0  0  0  0  0  0  0  0  0  0  0  0
    2.0547    1.3065    1.0526 H   0  0  0  0  0  0  0  0  0  0  0  0
    2.9103    0.2470    2.1976 H   0  0  0  0  0  0  0  0  0  0  0  0
    3.3729   -0.8066   -0.4636 H   0  0  0  0  0  0  0  0  0  0  0  0
    2.4311   -1.5248    0.8725 H   0  0  0  0  0  0  0  0  0  0  0  0
    1.0017   -1.2992   -1.0541 H   0  0  0  0  0  0  0  0  0  0  0  0
    1.3313    0.5033   -1.1601 H   0  0  0  0  0  0  0  0  0  0  0  0
   -0.8953    0.0274   -1.2489 H   0  0  0  0  0  0  0  0  0  0  0  0
   -1.8630   -2.0379    0.4943 H   0  0  0  0  0  0  0  0  0  0  0  0
   -4.1197   -0.7524    0.4252 H   0  0  0  0  0  0  0  0  0  0  0  0
   -3.5193    1.7390    0.4041 H   0  0  0  0  0  0  0  0  0  0  0  0
   -2.9245    1.2350   -1.2756 H   0  0  0  0  0  0  0  0  0  0  0  0
  1  2  1  0
  2  3  1  0
  3  4  1  0
  4  5  1  0
  5  6  1  0
  6  7  2  0
  7  8  1  0
  8  9  1  0
  9  5  1  0
  1 10  1  0
  1 11  1  0
  1 12  1  0
  2 13  1  0
  2 14  1  0
  3 15  1  0
  3 16  1  0
  5 17  1  0
  6 18  1  0
  7 19  1  0
  8 20  1  0
  8 21  1  0
M  END
