
     RDKit          3D

 21 20  0  0  0  0  0  0  0  0999 V2000
   -3.4001   -0.4662    0.6561 C   0  0  0  0  0  0  0  0  0  0  0  0
   -2.0256   -1.0185    0.2851 C   0  0  0  0  0  0  0  0  0  0  0  0
   -1.0181    0.0350    0.6491 C   0  0  0  0  0  0  0  0  0  0  0  0
    0.2809   -0.3305    0.3667 O   0  0  0  0  0  0  0  0  0  0  0  0
    1.1266    0.6820    0.7280 C   0  0  0  0  0  0  0  0  0  0  0  0
    2.5779    0.3836    0.4604 C   0  0  0  0  0  0  0  0  0  0  0  0
    2.8861    0.1239   -0.9729 C   0  0  0  0  0  0  0  0  0  0  0  0
   -3.3892   -0.2403    1.7192 H   0  0  0  0  0  0  0  0  0  0  0  0
   -4.2160   -1.1281    0.3434 H   0  0  0  0  0  0  0  0  0  0  0  0
   -3.5500    0.5134    0.1191 H   0  0  0  0  0  0  0  0  0  0  0  0
   -1.8901   -1.9557    0.8223 H   0  0  0  0  0  0  0  0  0  0  0  0
   -2.0035   -1.2014   -0.8012 H   0  0  0  0  0  0  0  0  0  0  0  0
   -1.2570    0.9455    0.0498 H   0  0  0  0  0  0  0  0  0  0  0  0
   -1.1795    0.3042    1.7131 H   0  0  0  0  0  0  0  0  0  0  0  0
    0.9000    1.6423    0.1906 H   0  0  0  0  0  0  0  0  0  0  0  0
    1.0049    0.9130    1.8032 H   0  0  0  0  0  0  0  0  0  0  0  0
    3.2342    1.1999    0.8248 H   0  0  0  0  0  0  0  0  0  0  0  0
    2.8630   -0.5238    1.0464 H   0  0  0  0  0  0  0  0  0  0  0  0
    3.9499    0.3864   -1.1523 H   0  0  0  0  0  0  0  0  0  0  0  0
    2.8196   -0.9788   -1.2090 H   0  0  0  0  0  0  0  0  0  0  0  0
    2.2860    0.7141   -1.6895 H   0  0  0  0  0  0  0  0  0  0  0  0
  1  2  1  0
  2  3  1  0
  3  4  1  0
  4  5  1  0
  5  6  1  0
  6  7  1  0
  1  8  1  0
  1  9  1  0
  1 10  1  0
  2 11  1  0
  2 12  1  0
  3 13  1  0
  3 14  1  0
  5 15  1  0
  5 16  1  0
  6 17  1  0
  6 18  1  0
  7 19  1  0
  7 20  1  0
  7 21  1  0
M  END
