
     RDKit          3D

 24 23  0  0  0  0  0  0  0  0999 V2000
    3.4685    0.1245    0.2440 C   0  0  0  0  0  0  0  0  0  0  0  0
    2.2858   -0.1246   -0.6596 C   0  0  0  0  0  0  0  0  0  0  0  0
    0.9797    0.0425    0.0803 C   0  0  0  0  0  0  0  0  0  0  0  0
   -0.0931   -0.1866   -0.7519 O   0  0  0  0  0  0  0  0  0  0  0  0
   -1.3124   -0.0553   -0.1585 C   0  0  0  0  0  0  0  0  0  0  0  0
   -2.3734   -0.3450   -1.2294 C   0  0  0  0  0  0  0  0  0  0  0  0
   -1.5981    1.3197    0.3791 C   0  0  0  0  0  0  0  0  0  0  0  0
   -1.5344   -1.0510    0.9686 C   0  0  0  0  0  0  0  0  0  0  0  0
    3.1743    0.9056    0.9774 H   0  0  0  0  0  0  0  0  0  0  0  0
    3.7566   -0.7672    0.8204 H   0  0  0  0  0  0  0  0  0  0  0  0
    4.3376    0.5364   -0.3158 H   0  0  0  0  0  0  0  0  0  0  0  0
    2.3543    0.5445   -1.5343 H   0  0  0  0  0  0  0  0  0  0  0  0
    2.3649   -1.1740   -1.0436 H   0  0  0  0  0  0  0  0  0  0  0  0
    0.9435    1.1014    0.4263 H   0  0  0  0  0  0  0  0  0  0  0  0
    0.9391   -0.6829    0.9076 H   0  0  0  0  0  0  0  0  0  0  0  0
   -2.0822   -1.3169   -1.6854 H   0  0  0  0  0  0  0  0  0  0  0  0
   -3.3909   -0.3567   -0.7952 H   0  0  0  0  0  0  0  0  0  0  0  0
   -2.3566    0.4920   -1.9721 H   0  0  0  0  0  0  0  0  0  0  0  0
   -1.0459    2.1121   -0.1619 H   0  0  0  0  0  0  0  0  0  0  0  0
   -1.3149    1.3194    1.4640 H   0  0  0  0  0  0  0  0  0  0  0  0
   -2.6813    1.5340    0.2651 H   0  0  0  0  0  0  0  0  0  0  0  0
   -2.4961   -1.6202    0.8242 H   0  0  0  0  0  0  0  0  0  0  0  0
   -0.7431   -1.8335    0.9880 H   0  0  0  0  0  0  0  0  0  0  0  0
   -1.5818   -0.5182    1.9625 H   0  0  0  0  0  0  0  0  0  0  0  0
  1  2  1  0
  2  3  1  0
  3  4  1  0
  4  5  1  0
  5  6  1  0
  5  7  1  0
  5  8  1  0
  1  9  1  0
  1 10  1  0
  1 11  1  0
  2 12  1  0
  2 13  1  0
  3 14  1  0
  3 15  1  0
  6 16  1  0
  6 17  1  0
  6 18  1  0
  7 19  1  0
  7 20  1  0
  7 21  1  0
  8 22  1  0
  8 23  1  0
  8 24  1  0
M  END
