
     RDKit          3D

 25 24  0  0  0  0  0  0  0  0999 V2000
    4.0987   -0.0311   -0.1218 C   0  0  0  0  0  0  0  0  0  0  0  0
    2.9298    0.8642    0.2136 C   0  0  0  0  0  0  0  0  0  0  0  0
    1.6954   -0.0419    0.4096 C   0  0  0  0  0  0  0  0  0  0  0  0
    0.6608    0.7986    0.7103 O   0  0  0  0  0  0  0  0  0  0  0  0
   -0.5089    0.1152    0.9443 C   0  0  0  0  0  0  0  0  0  0  0  0
   -1.0234   -0.6976   -0.1812 C   0  0  0  0  0  0  0  0  0  0  0  0
   -2.2091   -1.3637    0.1007 O   0  0  0  0  0  0  0  0  0  0  0  0
   -3.2512   -0.5485    0.4325 C   0  0  0  0  0  0  0  0  0  0  0  0
   -3.5207    0.3875   -0.7329 C   0  0  0  0  0  0  0  0  0  0  0  0
    3.8313   -1.1114   -0.0713 H   0  0  0  0  0  0  0  0  0  0  0  0
    4.4057    0.1916   -1.1519 H   0  0  0  0  0  0  0  0  0  0  0  0
    4.9216    0.1963    0.6124 H   0  0  0  0  0  0  0  0  0  0  0  0
    3.0594    1.3962    1.1730 H   0  0  0  0  0  0  0  0  0  0  0  0
    2.7238    1.6242   -0.5544 H   0  0  0  0  0  0  0  0  0  0  0  0
    1.4848   -0.5687   -0.5514 H   0  0  0  0  0  0  0  0  0  0  0  0
    1.8650   -0.7320    1.2538 H   0  0  0  0  0  0  0  0  0  0  0  0
   -1.2360    0.8530    1.3380 H   0  0  0  0  0  0  0  0  0  0  0  0
   -0.3519   -0.5961    1.8135 H   0  0  0  0  0  0  0  0  0  0  0  0
   -0.2835   -1.4254   -0.5721 H   0  0  0  0  0  0  0  0  0  0  0  0
   -1.2497   -0.0090   -1.0340 H   0  0  0  0  0  0  0  0  0  0  0  0
   -4.1586   -1.1771    0.5391 H   0  0  0  0  0  0  0  0  0  0  0  0
   -3.1308   -0.0028    1.3856 H   0  0  0  0  0  0  0  0  0  0  0  0
   -2.9219    1.3179   -0.6740 H   0  0  0  0  0  0  0  0  0  0  0  0
   -4.5940    0.6837   -0.7476 H   0  0  0  0  0  0  0  0  0  0  0  0
   -3.2366   -0.1233   -1.6818 H   0  0  0  0  0  0  0  0  0  0  0  0
  1  2  1  0
  2  3  1  0
  3  4  1  0
  4  5  1  0
  5  6  1  0
  6  7  1  0
  7  8  1  0
  8  9  1  0
  1 10  1  0
  1 11  1  0
  1 12  1  0
  2 13  1  0
  2 14  1  0
  3 15  1  0
  3 16  1  0
  5 17  1  0
  5 18  1  0
  6 19  1  0
  6 20  1  0
  8 21  1  0
  8 22  1  0
  9 23  1  0
  9 24  1  0
  9 25  1  0
M  END
