
     RDKit          3D

 25 25  0  0  0  0  0  0  0  0999 V2000
    2.4836    0.4866   -1.1131 C   0  0  0  0  0  0  0  0  0  0  0  0
    2.7339   -0.7812   -0.3727 C   0  0  0  0  0  0  0  0  0  0  0  0
    1.9736   -0.9944    0.8889 C   0  0  0  0  0  0  0  0  0  0  0  0
    0.6330   -1.0382    0.8438 O   0  0  0  0  0  0  0  0  0  0  0  0
   -0.1238   -0.0053    0.4684 C   0  0  0  0  0  0  0  0  0  0  0  0
   -1.3649    0.2916    1.3181 C   0  0  0  0  0  0  0  0  0  0  0  0
   -1.9879    0.7678    0.0080 C   0  0  0  0  0  0  0  0  0  0  0  0
   -3.4605    0.5236   -0.1117 C   0  0  0  0  0  0  0  0  0  0  0  0
   -1.1428   -0.3252   -0.6486 C   0  0  0  0  0  0  0  0  0  0  0  0
    2.5091    1.4033   -0.5258 H   0  0  0  0  0  0  0  0  0  0  0  0
    1.5552    0.4700   -1.7382 H   0  0  0  0  0  0  0  0  0  0  0  0
    3.3549    0.5779   -1.8474 H   0  0  0  0  0  0  0  0  0  0  0  0
    3.8244   -0.7454   -0.0754 H   0  0  0  0  0  0  0  0  0  0  0  0
    2.6178   -1.6317   -1.0965 H   0  0  0  0  0  0  0  0  0  0  0  0
    2.3861   -0.2482    1.6251 H   0  0  0  0  0  0  0  0  0  0  0  0
    2.3056   -2.0176    1.2667 H   0  0  0  0  0  0  0  0  0  0  0  0
    0.3204    0.9723    0.1943 H   0  0  0  0  0  0  0  0  0  0  0  0
   -1.1911    1.0623    2.0666 H   0  0  0  0  0  0  0  0  0  0  0  0
   -1.8852   -0.6118    1.6741 H   0  0  0  0  0  0  0  0  0  0  0  0
   -1.6552    1.7855   -0.2245 H   0  0  0  0  0  0  0  0  0  0  0  0
   -3.9623    1.5133   -0.1324 H   0  0  0  0  0  0  0  0  0  0  0  0
   -3.8361   -0.0749    0.7511 H   0  0  0  0  0  0  0  0  0  0  0  0
   -3.6441    0.0240   -1.0807 H   0  0  0  0  0  0  0  0  0  0  0  0
   -1.6534   -1.2983   -0.4842 H   0  0  0  0  0  0  0  0  0  0  0  0
   -0.7906   -0.1058   -1.6539 H   0  0  0  0  0  0  0  0  0  0  0  0
  1  2  1  0
  2  3  1  0
  3  4  1  0
  4  5  1  0
  5  6  1  0
  6  7  1  0
  7  8  1  0
  7  9  1  0
  9  5  1  0
  1 10  1  0
  1 11  1  0
  1 12  1  0
  2 13  1  0
  2 14  1  0
  3 15  1  0
  3 16  1  0
  5 17  1  0
  6 18  1  0
  6 19  1  0
  7 20  1  0
  8 21  1  0
  8 22  1  0
  8 23  1  0
  9 24  1  0
  9 25  1  0
M  END
