
     RDKit          3D

 27 26  0  0  0  0  0  0  0  0999 V2000
    3.4548    0.6902   -0.1004 C   0  0  0  0  0  0  0  0  0  0  0  0
    2.9236   -0.6395   -0.4945 C   0  0  0  0  0  0  0  0  0  0  0  0
    1.5484   -0.9371    0.0257 C   0  0  0  0  0  0  0  0  0  0  0  0
    0.5947   -0.0236   -0.4135 O   0  0  0  0  0  0  0  0  0  0  0  0
   -0.6378   -0.3664    0.1070 C   0  0  0  0  0  0  0  0  0  0  0  0
   -1.2328    0.7206    0.9595 C   0  0  0  0  0  0  0  0  0  0  0  0
   -1.4365    1.9979    0.1780 C   0  0  0  0  0  0  0  0  0  0  0  0
   -1.6387   -0.6812   -1.0089 C   0  0  0  0  0  0  0  0  0  0  0  0
   -2.9513   -1.0442   -0.3648 C   0  0  0  0  0  0  0  0  0  0  0  0
    3.2655    1.4271   -0.9236 H   0  0  0  0  0  0  0  0  0  0  0  0
    4.5762    0.6104   -0.0394 H   0  0  0  0  0  0  0  0  0  0  0  0
    3.1240    1.0555    0.8841 H   0  0  0  0  0  0  0  0  0  0  0  0
    2.9126   -0.7138   -1.6059 H   0  0  0  0  0  0  0  0  0  0  0  0
    3.5888   -1.4607   -0.1480 H   0  0  0  0  0  0  0  0  0  0  0  0
    1.5256   -0.9119    1.1319 H   0  0  0  0  0  0  0  0  0  0  0  0
    1.2584   -1.9349   -0.3845 H   0  0  0  0  0  0  0  0  0  0  0  0
   -0.5914   -1.2850    0.7527 H   0  0  0  0  0  0  0  0  0  0  0  0
   -2.2282    0.3896    1.3032 H   0  0  0  0  0  0  0  0  0  0  0  0
   -0.6372    0.9479    1.8492 H   0  0  0  0  0  0  0  0  0  0  0  0
   -2.4045    1.9994   -0.3830 H   0  0  0  0  0  0  0  0  0  0  0  0
   -0.6000    2.1518   -0.5420 H   0  0  0  0  0  0  0  0  0  0  0  0
   -1.4976    2.8672    0.8687 H   0  0  0  0  0  0  0  0  0  0  0  0
   -1.3021   -1.5738   -1.5731 H   0  0  0  0  0  0  0  0  0  0  0  0
   -1.7632    0.2075   -1.6354 H   0  0  0  0  0  0  0  0  0  0  0  0
   -3.6222   -0.1693   -0.2428 H   0  0  0  0  0  0  0  0  0  0  0  0
   -2.7474   -1.5703    0.5914 H   0  0  0  0  0  0  0  0  0  0  0  0
   -3.4817   -1.7533   -1.0253 H   0  0  0  0  0  0  0  0  0  0  0  0
  1  2  1  0
  2  3  1  0
  3  4  1  0
  4  5  1  0
  5  6  1  0
  6  7  1  0
  5  8  1  0
  8  9  1  0
  1 10  1  0
  1 11  1  0
  1 12  1  0
  2 13  1  0
  2 14  1  0
  3 15  1  0
  3 16  1  0
  5 17  1  0
  6 18  1  0
  6 19  1  0
  7 20  1  0
  7 21  1  0
  7 22  1  0
  8 23  1  0
  8 24  1  0
  9 25  1  0
  9 26  1  0
  9 27  1  0
M  END
