
     RDKit          3D

 22 22  0  0  0  0  0  0  0  0999 V2000
   -3.1203    0.2492   -0.7668 C   0  0  0  0  0  0  0  0  0  0  0  0
   -1.6183    0.4437   -0.5622 C   0  0  0  0  0  0  0  0  0  0  0  0
   -1.3675    0.1616    0.9144 C   0  0  0  0  0  0  0  0  0  0  0  0
   -0.0356    0.3217    1.1556 O   0  0  0  0  0  0  0  0  0  0  0  0
    0.8249   -0.4813    0.4658 C   0  0  0  0  0  0  0  0  0  0  0  0
    2.1738   -0.8356    0.9679 C   0  0  0  0  0  0  0  0  0  0  0  0
    2.0812    0.2712   -0.0148 C   0  0  0  0  0  0  0  0  0  0  0  0
    2.4145    0.0642   -1.4624 C   0  0  0  0  0  0  0  0  0  0  0  0
   -3.6026    1.2297   -0.5636 H   0  0  0  0  0  0  0  0  0  0  0  0
   -3.3003   -0.0722   -1.8103 H   0  0  0  0  0  0  0  0  0  0  0  0
   -3.4953   -0.5564   -0.0860 H   0  0  0  0  0  0  0  0  0  0  0  0
   -1.1327   -0.2910   -1.2295 H   0  0  0  0  0  0  0  0  0  0  0  0
   -1.3064    1.4470   -0.8502 H   0  0  0  0  0  0  0  0  0  0  0  0
   -1.9006    0.9903    1.4593 H   0  0  0  0  0  0  0  0  0  0  0  0
   -1.8174   -0.7657    1.2491 H   0  0  0  0  0  0  0  0  0  0  0  0
    0.3867   -1.2120   -0.2433 H   0  0  0  0  0  0  0  0  0  0  0  0
    2.6488   -1.7578    0.6286 H   0  0  0  0  0  0  0  0  0  0  0  0
    2.3606   -0.6011    2.0324 H   0  0  0  0  0  0  0  0  0  0  0  0
    2.2774    1.2707    0.3659 H   0  0  0  0  0  0  0  0  0  0  0  0
    1.4848    0.0665   -2.0700 H   0  0  0  0  0  0  0  0  0  0  0  0
    3.0164   -0.8554   -1.5908 H   0  0  0  0  0  0  0  0  0  0  0  0
    3.0275    0.9129   -1.8589 H   0  0  0  0  0  0  0  0  0  0  0  0
  1  2  1  0
  2  3  1  0
  3  4  1  0
  4  5  1  0
  5  6  1  0
  6  7  1  0
  7  8  1  0
  7  5  1  0
  1  9  1  0
  1 10  1  0
  1 11  1  0
  2 12  1  0
  2 13  1  0
  3 14  1  0
  3 15  1  0
  5 16  1  0
  6 17  1  0
  6 18  1  0
  7 19  1  0
  8 20  1  0
  8 21  1  0
  8 22  1  0
M  END
