
     RDKit          3D

 23 23  0  0  0  0  0  0  0  0999 V2000
    1.7593    0.6226   -1.2364 C   0  0  0  0  0  0  0  0  0  0  0  0
    2.0567    1.0255    0.1764 C   0  0  0  0  0  0  0  0  0  0  0  0
    1.6387    0.0281    1.2100 C   0  0  0  0  0  0  0  0  0  0  0  0
    0.3502   -0.2180    1.2799 O   0  0  0  0  0  0  0  0  0  0  0  0
   -0.4728   -0.7502    0.4078 C   0  0  0  0  0  0  0  0  0  0  0  0
   -1.4234   -1.8490    0.9335 C   0  0  0  0  0  0  0  0  0  0  0  0
   -2.2641   -1.4507   -0.1105 O   0  0  0  0  0  0  0  0  0  0  0  0
   -1.8690   -0.1393    0.2568 C   0  0  0  0  0  0  0  0  0  0  0  0
   -2.0620    0.8046   -0.8754 C   0  0  0  0  0  0  0  0  0  0  0  0
    2.4845    1.1373   -1.9327 H   0  0  0  0  0  0  0  0  0  0  0  0
    0.7300    0.8380   -1.5213 H   0  0  0  0  0  0  0  0  0  0  0  0
    1.9439   -0.4653   -1.3382 H   0  0  0  0  0  0  0  0  0  0  0  0
    3.1612    1.1843    0.3333 H   0  0  0  0  0  0  0  0  0  0  0  0
    1.5347    2.0205    0.3271 H   0  0  0  0  0  0  0  0  0  0  0  0
    2.2834   -0.8949    0.9876 H   0  0  0  0  0  0  0  0  0  0  0  0
    1.9819    0.4046    2.2411 H   0  0  0  0  0  0  0  0  0  0  0  0
   -0.1483   -1.0930   -0.5828 H   0  0  0  0  0  0  0  0  0  0  0  0
   -1.9303   -1.5651    1.8802 H   0  0  0  0  0  0  0  0  0  0  0  0
   -1.0169   -2.8594    0.8692 H   0  0  0  0  0  0  0  0  0  0  0  0
   -2.3591    0.1141    1.1978 H   0  0  0  0  0  0  0  0  0  0  0  0
   -1.6294    1.7940   -0.6607 H   0  0  0  0  0  0  0  0  0  0  0  0
   -3.1398    0.9320   -1.0438 H   0  0  0  0  0  0  0  0  0  0  0  0
   -1.6092    0.3796   -1.7957 H   0  0  0  0  0  0  0  0  0  0  0  0
  1  2  1  0
  2  3  1  0
  3  4  1  0
  4  5  1  0
  5  6  1  0
  6  7  1  0
  7  8  1  0
  8  9  1  0
  8  5  1  0
  1 10  1  0
  1 11  1  0
  1 12  1  0
  2 13  1  0
  2 14  1  0
  3 15  1  0
  3 16  1  0
  5 17  1  0
  6 18  1  0
  6 19  1  0
  8 20  1  0
  9 21  1  0
  9 22  1  0
  9 23  1  0
M  END
