
     RDKit          3D

 23 23  0  0  0  0  0  0  0  0999 V2000
    2.6117   -0.7061    0.4658 C   0  0  0  0  0  0  0  0  0  0  0  0
    1.9330    0.6658    0.3526 C   0  0  0  0  0  0  0  0  0  0  0  0
    1.0677    0.7785   -0.8610 C   0  0  0  0  0  0  0  0  0  0  0  0
    0.0298   -0.0415   -1.0107 O   0  0  0  0  0  0  0  0  0  0  0  0
   -1.0335   -0.1028   -0.2230 C   0  0  0  0  0  0  0  0  0  0  0  0
   -0.8933   -0.4543    1.2390 C   0  0  0  0  0  0  0  0  0  0  0  0
   -2.1483    0.8960   -0.3936 C   0  0  0  0  0  0  0  0  0  0  0  0
   -2.4722    0.2418   -1.5915 O   0  0  0  0  0  0  0  0  0  0  0  0
   -2.1342   -0.9494   -0.9075 C   0  0  0  0  0  0  0  0  0  0  0  0
    2.7938   -0.8686    1.5336 H   0  0  0  0  0  0  0  0  0  0  0  0
    1.9218   -1.4456    0.0115 H   0  0  0  0  0  0  0  0  0  0  0  0
    3.5203   -0.6977   -0.1530 H   0  0  0  0  0  0  0  0  0  0  0  0
    2.7817    1.3807    0.1963 H   0  0  0  0  0  0  0  0  0  0  0  0
    1.4789    0.9472    1.3013 H   0  0  0  0  0  0  0  0  0  0  0  0
    0.8574    1.8651   -1.0101 H   0  0  0  0  0  0  0  0  0  0  0  0
    1.7779    0.5564   -1.7269 H   0  0  0  0  0  0  0  0  0  0  0  0
   -1.8446   -0.9736    1.5439 H   0  0  0  0  0  0  0  0  0  0  0  0
   -0.7546    0.4578    1.8596 H   0  0  0  0  0  0  0  0  0  0  0  0
   -0.0560   -1.1691    1.3309 H   0  0  0  0  0  0  0  0  0  0  0  0
   -2.9523    0.6834    0.3409 H   0  0  0  0  0  0  0  0  0  0  0  0
   -1.8803    1.9442   -0.4692 H   0  0  0  0  0  0  0  0  0  0  0  0
   -2.8986   -1.3190   -0.2194 H   0  0  0  0  0  0  0  0  0  0  0  0
   -1.7060   -1.6890   -1.6094 H   0  0  0  0  0  0  0  0  0  0  0  0
  1  2  1  0
  2  3  1  0
  3  4  1  0
  4  5  1  0
  5  6  1  0
  5  7  1  0
  7  8  1  0
  8  9  1  0
  9  5  1  0
  1 10  1  0
  1 11  1  0
  1 12  1  0
  2 13  1  0
  2 14  1  0
  3 15  1  0
  3 16  1  0
  6 17  1  0
  6 18  1  0
  6 19  1  0
  7 20  1  0
  7 21  1  0
  9 22  1  0
  9 23  1  0
M  END
