
     RDKit          3D

 23 22  0  0  0  0  0  0  0  0999 V2000
   -3.7187    0.1519    0.1889 C   0  0  0  0  0  0  0  0  0  0  0  0
   -2.5112   -0.4378   -0.5212 C   0  0  0  0  0  0  0  0  0  0  0  0
   -1.2575    0.1274    0.1605 C   0  0  0  0  0  0  0  0  0  0  0  0
   -0.1718   -0.4084   -0.4847 O   0  0  0  0  0  0  0  0  0  0  0  0
    1.0478   -0.0250   -0.0221 C   0  0  0  0  0  0  0  0  0  0  0  0
    1.7315   -1.2658    0.5587 C   0  0  0  0  0  0  0  0  0  0  0  0
    1.9464    0.5784   -0.9961 C   0  0  0  0  0  0  0  0  0  0  0  0
    3.3086    1.0412   -0.6212 C   0  0  0  0  0  0  0  0  0  0  0  0
    1.6142    0.7269   -2.1588 O   0  0  0  0  0  0  0  0  0  0  0  0
   -3.5115    0.1105    1.2867 H   0  0  0  0  0  0  0  0  0  0  0  0
   -4.5828   -0.4678   -0.0922 H   0  0  0  0  0  0  0  0  0  0  0  0
   -3.7999    1.2073   -0.0857 H   0  0  0  0  0  0  0  0  0  0  0  0
   -2.5156   -0.1967   -1.5854 H   0  0  0  0  0  0  0  0  0  0  0  0
   -2.5108   -1.5522   -0.4135 H   0  0  0  0  0  0  0  0  0  0  0  0
   -1.3168   -0.2287    1.2105 H   0  0  0  0  0  0  0  0  0  0  0  0
   -1.3054    1.2155    0.1705 H   0  0  0  0  0  0  0  0  0  0  0  0
    0.8878    0.6834    0.8316 H   0  0  0  0  0  0  0  0  0  0  0  0
    2.6174   -1.0014    1.1469 H   0  0  0  0  0  0  0  0  0  0  0  0
    1.9443   -1.9448   -0.2922 H   0  0  0  0  0  0  0  0  0  0  0  0
    1.0384   -1.8013    1.2485 H   0  0  0  0  0  0  0  0  0  0  0  0
    3.6542    1.8882   -1.2620 H   0  0  0  0  0  0  0  0  0  0  0  0
    4.0718    0.2335   -0.7746 H   0  0  0  0  0  0  0  0  0  0  0  0
    3.3398    1.3655    0.4463 H   0  0  0  0  0  0  0  0  0  0  0  0
  1  2  1  0
  2  3  1  0
  3  4  1  0
  4  5  1  0
  5  6  1  0
  5  7  1  0
  7  8  1  0
  7  9  2  0
  1 10  1  0
  1 11  1  0
  1 12  1  0
  2 13  1  0
  2 14  1  0
  3 15  1  0
  3 16  1  0
  5 17  1  0
  6 18  1  0
  6 19  1  0
  6 20  1  0
  8 21  1  0
  8 22  1  0
  8 23  1  0
M  END
