
     RDKit          3D

 22 21  0  0  0  0  0  0  0  0999 V2000
   -3.5041   -0.2968   -0.3278 C   0  0  0  0  0  0  0  0  0  0  0  0
   -2.4902    0.8176   -0.3465 C   0  0  0  0  0  0  0  0  0  0  0  0
   -1.1412    0.3272    0.1550 C   0  0  0  0  0  0  0  0  0  0  0  0
   -0.6437   -0.6924   -0.6131 O   0  0  0  0  0  0  0  0  0  0  0  0
    0.5660   -1.1651   -0.1520 C   0  0  0  0  0  0  0  0  0  0  0  0
    1.6817   -0.1519   -0.1098 C   0  0  0  0  0  0  0  0  0  0  0  0
    2.8069   -0.8389    0.3757 O   0  0  0  0  0  0  0  0  0  0  0  0
    3.8982    0.0387    0.4465 C   0  0  0  0  0  0  0  0  0  0  0  0
   -3.7587   -0.6002   -1.3672 H   0  0  0  0  0  0  0  0  0  0  0  0
   -4.4754    0.0637    0.1121 H   0  0  0  0  0  0  0  0  0  0  0  0
   -3.1787   -1.1500    0.3027 H   0  0  0  0  0  0  0  0  0  0  0  0
   -2.8132    1.6139    0.3548 H   0  0  0  0  0  0  0  0  0  0  0  0
   -2.4354    1.2544   -1.3452 H   0  0  0  0  0  0  0  0  0  0  0  0
   -1.2654   -0.0109    1.2025 H   0  0  0  0  0  0  0  0  0  0  0  0
   -0.4157    1.1943    0.1777 H   0  0  0  0  0  0  0  0  0  0  0  0
    0.4147   -1.4742    0.9275 H   0  0  0  0  0  0  0  0  0  0  0  0
    0.8695   -2.0709   -0.7265 H   0  0  0  0  0  0  0  0  0  0  0  0
    1.9189    0.3057   -1.0688 H   0  0  0  0  0  0  0  0  0  0  0  0
    1.3954    0.5957    0.6882 H   0  0  0  0  0  0  0  0  0  0  0  0
    4.7903   -0.4915    0.8276 H   0  0  0  0  0  0  0  0  0  0  0  0
    3.6728    0.9322    1.0645 H   0  0  0  0  0  0  0  0  0  0  0  0
    4.1072    0.4077   -0.5779 H   0  0  0  0  0  0  0  0  0  0  0  0
  1  2  1  0
  2  3  1  0
  3  4  1  0
  4  5  1  0
  5  6  1  0
  6  7  1  0
  7  8  1  0
  1  9  1  0
  1 10  1  0
  1 11  1  0
  2 12  1  0
  2 13  1  0
  3 14  1  0
  3 15  1  0
  5 16  1  0
  5 17  1  0
  6 18  1  0
  6 19  1  0
  8 20  1  0
  8 21  1  0
  8 22  1  0
M  END
