
     RDKit          3D

 19 18  0  0  0  0  0  0  0  0999 V2000
   -2.1593    1.1779    0.0552 C   0  0  0  0  0  0  0  0  0  0  0  0
   -2.0668   -0.2990   -0.3465 C   0  0  0  0  0  0  0  0  0  0  0  0
   -0.7465   -0.7975    0.2549 C   0  0  0  0  0  0  0  0  0  0  0  0
    0.2513   -0.0180   -0.3113 O   0  0  0  0  0  0  0  0  0  0  0  0
    1.5057   -0.3529    0.1377 C   0  0  0  0  0  0  0  0  0  0  0  0
    2.3787   -0.8028   -0.9877 C   0  0  0  0  0  0  0  0  0  0  0  0
    1.8938   -0.8155   -2.1034 O   0  0  0  0  0  0  0  0  0  0  0  0
    2.1391    0.8324    0.7459 C   0  0  0  0  0  0  0  0  0  0  0  0
    1.5553    1.8827    0.7889 O   0  0  0  0  0  0  0  0  0  0  0  0
   -2.4067    1.1835    1.1338 H   0  0  0  0  0  0  0  0  0  0  0  0
   -2.8886    1.7243   -0.5611 H   0  0  0  0  0  0  0  0  0  0  0  0
   -1.1203    1.5808   -0.0328 H   0  0  0  0  0  0  0  0  0  0  0  0
   -2.0386   -0.3582   -1.4425 H   0  0  0  0  0  0  0  0  0  0  0  0
   -2.8809   -0.8932    0.0715 H   0  0  0  0  0  0  0  0  0  0  0  0
   -0.6108   -1.8746    0.0815 H   0  0  0  0  0  0  0  0  0  0  0  0
   -0.7197   -0.6111    1.3452 H   0  0  0  0  0  0  0  0  0  0  0  0
    1.3766   -1.1892    0.8603 H   0  0  0  0  0  0  0  0  0  0  0  0
    3.4055   -1.1099   -0.8397 H   0  0  0  0  0  0  0  0  0  0  0  0
    3.1324    0.7404    1.1502 H   0  0  0  0  0  0  0  0  0  0  0  0
  1  2  1  0
  2  3  1  0
  3  4  1  0
  4  5  1  0
  5  6  1  0
  6  7  2  0
  5  8  1  0
  8  9  2  0
  1 10  1  0
  1 11  1  0
  1 12  1  0
  2 13  1  0
  2 14  1  0
  3 15  1  0
  3 16  1  0
  5 17  1  0
  6 18  1  0
  8 19  1  0
M  END
