
     RDKit          3D

 21 20  0  0  0  0  0  0  0  0999 V2000
   -3.2315    0.8219   -0.4362 C   0  0  0  0  0  0  0  0  0  0  0  0
   -2.4565   -0.4710   -0.2863 C   0  0  0  0  0  0  0  0  0  0  0  0
   -1.0542   -0.0719    0.1925 C   0  0  0  0  0  0  0  0  0  0  0  0
   -0.3401   -1.2398    0.3324 O   0  0  0  0  0  0  0  0  0  0  0  0
    0.9533   -1.0561    0.7605 C   0  0  0  0  0  0  0  0  0  0  0  0
    1.7812   -0.2002   -0.1802 C   0  0  0  0  0  0  0  0  0  0  0  0
    3.0828   -0.1188    0.4204 O   0  0  0  0  0  0  0  0  0  0  0  0
    4.1158    0.5953   -0.1712 C   0  0  0  0  0  0  0  0  0  0  0  0
    3.8179    1.1641   -1.2749 O   0  0  0  0  0  0  0  0  0  0  0  0
   -3.2963    1.0312   -1.5378 H   0  0  0  0  0  0  0  0  0  0  0  0
   -4.2429    0.7563    0.0295 H   0  0  0  0  0  0  0  0  0  0  0  0
   -2.7166    1.6800    0.0352 H   0  0  0  0  0  0  0  0  0  0  0  0
   -2.9441   -1.1593    0.4332 H   0  0  0  0  0  0  0  0  0  0  0  0
   -2.3108   -0.9776   -1.2528 H   0  0  0  0  0  0  0  0  0  0  0  0
   -1.1738    0.4380    1.1708 H   0  0  0  0  0  0  0  0  0  0  0  0
   -0.6635    0.6032   -0.6013 H   0  0  0  0  0  0  0  0  0  0  0  0
    0.9759   -0.6043    1.7901 H   0  0  0  0  0  0  0  0  0  0  0  0
    1.4509   -2.0327    0.8560 H   0  0  0  0  0  0  0  0  0  0  0  0
    1.3375    0.8245   -0.2778 H   0  0  0  0  0  0  0  0  0  0  0  0
    1.8088   -0.6604   -1.1677 H   0  0  0  0  0  0  0  0  0  0  0  0
    5.1062    0.6776    0.2523 H   0  0  0  0  0  0  0  0  0  0  0  0
  1  2  1  0
  2  3  1  0
  3  4  1  0
  4  5  1  0
  5  6  1  0
  6  7  1  0
  7  8  1  0
  8  9  2  0
  1 10  1  0
  1 11  1  0
  1 12  1  0
  2 13  1  0
  2 14  1  0
  3 15  1  0
  3 16  1  0
  5 17  1  0
  5 18  1  0
  6 19  1  0
  6 20  1  0
  8 21  1  0
M  END
