
     RDKit          3D

 23 22  0  0  0  0  0  0  0  0999 V2000
    2.8072   -0.1232    1.1230 C   0  0  0  0  0  0  0  0  0  0  0  0
    2.2224   -0.9724    0.0374 C   0  0  0  0  0  0  0  0  0  0  0  0
    0.7388   -0.9093   -0.0616 C   0  0  0  0  0  0  0  0  0  0  0  0
    0.2456    0.3559   -0.3140 O   0  0  0  0  0  0  0  0  0  0  0  0
   -1.1184    0.4201   -0.4056 C   0  0  0  0  0  0  0  0  0  0  0  0
   -1.4791    1.8777   -0.6764 C   0  0  0  0  0  0  0  0  0  0  0  0
   -1.8360    0.0050    0.8612 C   0  0  0  0  0  0  0  0  0  0  0  0
   -1.6793   -0.4182   -1.5118 C   0  0  0  0  0  0  0  0  0  0  0  0
   -2.8679   -0.4555   -1.6998 O   0  0  0  0  0  0  0  0  0  0  0  0
    3.0576   -0.7202    2.0348 H   0  0  0  0  0  0  0  0  0  0  0  0
    2.1776    0.7605    1.3642 H   0  0  0  0  0  0  0  0  0  0  0  0
    3.7755    0.2781    0.7573 H   0  0  0  0  0  0  0  0  0  0  0  0
    2.6671   -0.6929   -0.9489 H   0  0  0  0  0  0  0  0  0  0  0  0
    2.5234   -2.0152    0.2217 H   0  0  0  0  0  0  0  0  0  0  0  0
    0.3022   -1.2601    0.9175 H   0  0  0  0  0  0  0  0  0  0  0  0
    0.4150   -1.6709   -0.8000 H   0  0  0  0  0  0  0  0  0  0  0  0
   -2.0883    2.3007    0.1481 H   0  0  0  0  0  0  0  0  0  0  0  0
   -0.5892    2.5200   -0.7707 H   0  0  0  0  0  0  0  0  0  0  0  0
   -2.1275    1.9464   -1.5920 H   0  0  0  0  0  0  0  0  0  0  0  0
   -1.7301   -1.0711    1.0353 H   0  0  0  0  0  0  0  0  0  0  0  0
   -2.9264    0.1915    0.6675 H   0  0  0  0  0  0  0  0  0  0  0  0
   -1.5224    0.6249    1.7259 H   0  0  0  0  0  0  0  0  0  0  0  0
   -0.9680   -0.9719   -2.1135 H   0  0  0  0  0  0  0  0  0  0  0  0
  1  2  1  0
  2  3  1  0
  3  4  1  0
  4  5  1  0
  5  6  1  0
  5  7  1  0
  5  8  1  0
  8  9  2  0
  1 10  1  0
  1 11  1  0
  1 12  1  0
  2 13  1  0
  2 14  1  0
  3 15  1  0
  3 16  1  0
  6 17  1  0
  6 18  1  0
  6 19  1  0
  7 20  1  0
  7 21  1  0
  7 22  1  0
  8 23  1  0
M  END
