
     RDKit          3D

 25 24  0  0  0  0  0  0  0  0999 V2000
   -3.5631    0.1428   -0.8283 C   0  0  0  0  0  0  0  0  0  0  0  0
   -2.7303   -0.2154    0.3877 C   0  0  0  0  0  0  0  0  0  0  0  0
   -1.3276    0.3092    0.1101 C   0  0  0  0  0  0  0  0  0  0  0  0
   -0.4631    0.0488    1.1426 O   0  0  0  0  0  0  0  0  0  0  0  0
    0.8148    0.5069    0.9390 C   0  0  0  0  0  0  0  0  0  0  0  0
    1.4765   -0.0980   -0.2839 C   0  0  0  0  0  0  0  0  0  0  0  0
    1.5174   -1.6115   -0.0660 C   0  0  0  0  0  0  0  0  0  0  0  0
    2.9392    0.3316   -0.3651 C   0  0  0  0  0  0  0  0  0  0  0  0
    3.0615    1.7144   -0.4522 O   0  0  0  0  0  0  0  0  0  0  0  0
   -4.6439    0.0724   -0.5867 H   0  0  0  0  0  0  0  0  0  0  0  0
   -3.3240   -0.5670   -1.6587 H   0  0  0  0  0  0  0  0  0  0  0  0
   -3.2428    1.1391   -1.1605 H   0  0  0  0  0  0  0  0  0  0  0  0
   -2.7427   -1.3127    0.4806 H   0  0  0  0  0  0  0  0  0  0  0  0
   -3.1398    0.2918    1.2854 H   0  0  0  0  0  0  0  0  0  0  0  0
   -1.0361   -0.1646   -0.8599 H   0  0  0  0  0  0  0  0  0  0  0  0
   -1.4377    1.3967   -0.1167 H   0  0  0  0  0  0  0  0  0  0  0  0
    0.8472    1.6231    0.8667 H   0  0  0  0  0  0  0  0  0  0  0  0
    1.4641    0.2514    1.8011 H   0  0  0  0  0  0  0  0  0  0  0  0
    0.9355    0.1775   -1.2072 H   0  0  0  0  0  0  0  0  0  0  0  0
    2.3666   -2.0618   -0.6445 H   0  0  0  0  0  0  0  0  0  0  0  0
    0.5996   -2.0691   -0.4550 H   0  0  0  0  0  0  0  0  0  0  0  0
    1.5982   -1.7808    1.0068 H   0  0  0  0  0  0  0  0  0  0  0  0
    3.4057   -0.0474    0.5847 H   0  0  0  0  0  0  0  0  0  0  0  0
    3.4023   -0.1956   -1.2101 H   0  0  0  0  0  0  0  0  0  0  0  0
    3.2222    2.1182    0.4470 H   0  0  0  0  0  0  0  0  0  0  0  0
  1  2  1  0
  2  3  1  0
  3  4  1  0
  4  5  1  0
  5  6  1  0
  6  7  1  0
  6  8  1  0
  8  9  1  0
  1 10  1  0
  1 11  1  0
  1 12  1  0
  2 13  1  0
  2 14  1  0
  3 15  1  0
  3 16  1  0
  5 17  1  0
  5 18  1  0
  6 19  1  0
  7 20  1  0
  7 21  1  0
  7 22  1  0
  8 23  1  0
  8 24  1  0
  9 25  1  0
M  END
