
     RDKit          3D

 19 18  0  0  0  0  0  0  0  0999 V2000
   -2.4504    1.8376   -0.4643 C   0  0  0  0  0  0  0  0  0  0  0  0
   -0.9733    1.8347   -0.0696 C   0  0  0  0  0  0  0  0  0  0  0  0
   -0.5064    0.4790    0.3970 C   0  0  0  0  0  0  0  0  0  0  0  0
   -0.7652   -0.4790   -0.5634 O   0  0  0  0  0  0  0  0  0  0  0  0
   -0.2945   -1.7418   -0.1671 C   0  0  0  0  0  0  0  0  0  0  0  0
    1.1359   -1.7303   -0.0542 C   0  0  0  0  0  0  0  0  0  0  0  0
    2.3674   -1.7359    0.0581 C   0  0  0  0  0  0  0  0  0  0  0  0
    3.8072   -1.7262    0.2002 C   0  0  0  0  0  0  0  0  0  0  0  0
    4.4096   -1.1867    1.1652 O   0  0  0  0  0  0  0  0  0  0  0  0
   -3.0077    1.3596    0.3531 H   0  0  0  0  0  0  0  0  0  0  0  0
   -2.5031    1.2415   -1.4166 H   0  0  0  0  0  0  0  0  0  0  0  0
   -2.7420    2.8557   -0.6921 H   0  0  0  0  0  0  0  0  0  0  0  0
   -0.9409    2.5287    0.8469 H   0  0  0  0  0  0  0  0  0  0  0  0
   -0.3743    2.2879   -0.8694 H   0  0  0  0  0  0  0  0  0  0  0  0
   -0.8017    0.2167    1.4061 H   0  0  0  0  0  0  0  0  0  0  0  0
    0.6269    0.5663    0.4504 H   0  0  0  0  0  0  0  0  0  0  0  0
   -0.7070   -1.9472    0.8568 H   0  0  0  0  0  0  0  0  0  0  0  0
   -0.7040   -2.4694   -0.8912 H   0  0  0  0  0  0  0  0  0  0  0  0
    4.4235   -2.2026   -0.5458 H   0  0  0  0  0  0  0  0  0  0  0  0
  1  2  1  0
  2  3  1  0
  3  4  1  0
  4  5  1  0
  5  6  1  0
  6  7  3  0
  7  8  1  0
  8  9  2  0
  1 10  1  0
  1 11  1  0
  1 12  1  0
  2 13  1  0
  2 14  1  0
  3 15  1  0
  3 16  1  0
  5 17  1  0
  5 18  1  0
  8 19  1  0
M  END
