
     RDKit          3D

 27 26  0  0  0  0  0  0  0  0999 V2000
   -4.0401    0.8675    0.2060 C   0  0  0  0  0  0  0  0  0  0  0  0
   -3.0141   -0.1934    0.5445 C   0  0  0  0  0  0  0  0  0  0  0  0
   -1.6501    0.1824    0.0108 C   0  0  0  0  0  0  0  0  0  0  0  0
   -0.7192   -0.7898    0.3232 O   0  0  0  0  0  0  0  0  0  0  0  0
    0.5430   -0.5218   -0.1267 C   0  0  0  0  0  0  0  0  0  0  0  0
    1.0750   -1.5469   -1.0881 C   0  0  0  0  0  0  0  0  0  0  0  0
    1.4942   -0.3828    1.0292 C   0  0  0  0  0  0  0  0  0  0  0  0
    2.9034   -0.0858    0.5779 C   0  0  0  0  0  0  0  0  0  0  0  0
    2.9853    1.2026   -0.2095 C   0  0  0  0  0  0  0  0  0  0  0  0
   -3.8888    1.2477   -0.8296 H   0  0  0  0  0  0  0  0  0  0  0  0
   -5.0692    0.4577    0.2580 H   0  0  0  0  0  0  0  0  0  0  0  0
   -3.9976    1.7254    0.9209 H   0  0  0  0  0  0  0  0  0  0  0  0
   -3.0155   -0.4022    1.6141 H   0  0  0  0  0  0  0  0  0  0  0  0
   -3.3563   -1.1276    0.0315 H   0  0  0  0  0  0  0  0  0  0  0  0
   -1.4071    1.1740    0.4015 H   0  0  0  0  0  0  0  0  0  0  0  0
   -1.6987    0.2512   -1.0937 H   0  0  0  0  0  0  0  0  0  0  0  0
    0.5212    0.4551   -0.6596 H   0  0  0  0  0  0  0  0  0  0  0  0
    1.2594   -2.5077   -0.6017 H   0  0  0  0  0  0  0  0  0  0  0  0
    0.3485   -1.6350   -1.9492 H   0  0  0  0  0  0  0  0  0  0  0  0
    2.0094   -1.1889   -1.5216 H   0  0  0  0  0  0  0  0  0  0  0  0
    1.1671    0.4172    1.7333 H   0  0  0  0  0  0  0  0  0  0  0  0
    1.5374   -1.3133    1.6332 H   0  0  0  0  0  0  0  0  0  0  0  0
    3.3116   -0.9463    0.0297 H   0  0  0  0  0  0  0  0  0  0  0  0
    3.5258    0.0379    1.4907 H   0  0  0  0  0  0  0  0  0  0  0  0
    2.9652    1.0170   -1.3170 H   0  0  0  0  0  0  0  0  0  0  0  0
    2.2270    1.9311    0.0750 H   0  0  0  0  0  0  0  0  0  0  0  0
    3.9832    1.6747   -0.0143 H   0  0  0  0  0  0  0  0  0  0  0  0
  1  2  1  0
  2  3  1  0
  3  4  1  0
  4  5  1  0
  5  6  1  0
  5  7  1  0
  7  8  1  0
  8  9  1  0
  1 10  1  0
  1 11  1  0
  1 12  1  0
  2 13  1  0
  2 14  1  0
  3 15  1  0
  3 16  1  0
  5 17  1  0
  6 18  1  0
  6 19  1  0
  6 20  1  0
  7 21  1  0
  7 22  1  0
  8 23  1  0
  8 24  1  0
  9 25  1  0
  9 26  1  0
  9 27  1  0
M  END
