
     RDKit          3D

 21 20  0  0  0  0  0  0  0  0999 V2000
    3.0747   -0.0666   -0.5043 C   0  0  0  0  0  0  0  0  0  0  0  0
    1.6925   -0.5618   -0.0583 C   0  0  0  0  0  0  0  0  0  0  0  0
    0.9177    0.6398    0.3770 C   0  0  0  0  0  0  0  0  0  0  0  0
   -0.3532    0.3830    0.8120 O   0  0  0  0  0  0  0  0  0  0  0  0
   -1.1853   -0.2026   -0.0947 C   0  0  0  0  0  0  0  0  0  0  0  0
   -1.7057   -1.4881    0.4455 C   0  0  0  0  0  0  0  0  0  0  0  0
   -2.4621   -2.1207   -0.2579 O   0  0  0  0  0  0  0  0  0  0  0  0
   -2.3891    0.7063   -0.3730 C   0  0  0  0  0  0  0  0  0  0  0  0
   -3.1180    0.9558    0.7759 O   0  0  0  0  0  0  0  0  0  0  0  0
    3.0543    0.2229   -1.5713 H   0  0  0  0  0  0  0  0  0  0  0  0
    3.3574    0.8379    0.0945 H   0  0  0  0  0  0  0  0  0  0  0  0
    3.8430   -0.8498   -0.3533 H   0  0  0  0  0  0  0  0  0  0  0  0
    1.2607   -1.0591   -0.9492 H   0  0  0  0  0  0  0  0  0  0  0  0
    1.8540   -1.3103    0.7189 H   0  0  0  0  0  0  0  0  0  0  0  0
    0.9019    1.3568   -0.4703 H   0  0  0  0  0  0  0  0  0  0  0  0
    1.4771    1.1095    1.2201 H   0  0  0  0  0  0  0  0  0  0  0  0
   -0.7345   -0.4039   -1.0836 H   0  0  0  0  0  0  0  0  0  0  0  0
   -1.4390   -1.8690    1.4212 H   0  0  0  0  0  0  0  0  0  0  0  0
   -2.0625    1.6448   -0.8648 H   0  0  0  0  0  0  0  0  0  0  0  0
   -3.0785    0.1916   -1.0924 H   0  0  0  0  0  0  0  0  0  0  0  0
   -2.9053    1.8838    1.0583 H   0  0  0  0  0  0  0  0  0  0  0  0
  1  2  1  0
  2  3  1  0
  3  4  1  0
  4  5  1  0
  5  6  1  0
  6  7  2  0
  5  8  1  0
  8  9  1  0
  1 10  1  0
  1 11  1  0
  1 12  1  0
  2 13  1  0
  2 14  1  0
  3 15  1  0
  3 16  1  0
  5 17  1  0
  6 18  1  0
  8 19  1  0
  8 20  1  0
  9 21  1  0
M  END
