
     RDKit          3D

 23 23  0  0  0  0  0  0  0  0999 V2000
   -3.6769    0.1308   -0.2192 C   0  0  0  0  0  0  0  0  0  0  0  0
   -2.1865    0.2969   -0.5520 C   0  0  0  0  0  0  0  0  0  0  0  0
   -1.5486   -1.0496   -0.5531 C   0  0  0  0  0  0  0  0  0  0  0  0
   -0.1989   -1.0713   -0.8449 O   0  0  0  0  0  0  0  0  0  0  0  0
    0.5049   -0.3363    0.0702 C   0  0  0  0  0  0  0  0  0  0  0  0
    1.9971   -0.3366   -0.1927 C   0  0  0  0  0  0  0  0  0  0  0  0
    2.7808    0.4884    0.8355 C   0  0  0  0  0  0  0  0  0  0  0  0
    2.7129    0.8655   -0.6226 C   0  0  0  0  0  0  0  0  0  0  0  0
    3.9288    0.6445   -1.3096 O   0  0  0  0  0  0  0  0  0  0  0  0
   -3.8371    0.1750    0.8841 H   0  0  0  0  0  0  0  0  0  0  0  0
   -4.2750    0.9050   -0.7167 H   0  0  0  0  0  0  0  0  0  0  0  0
   -4.0239   -0.8923   -0.5204 H   0  0  0  0  0  0  0  0  0  0  0  0
   -2.1766    0.7496   -1.5776 H   0  0  0  0  0  0  0  0  0  0  0  0
   -1.8023    0.9917    0.1923 H   0  0  0  0  0  0  0  0  0  0  0  0
   -1.7574   -1.5075    0.4582 H   0  0  0  0  0  0  0  0  0  0  0  0
   -2.0659   -1.7140   -1.2918 H   0  0  0  0  0  0  0  0  0  0  0  0
    0.3681   -0.6697    1.1186 H   0  0  0  0  0  0  0  0  0  0  0  0
    0.1859    0.7476    0.0334 H   0  0  0  0  0  0  0  0  0  0  0  0
    2.4468   -1.3333   -0.4178 H   0  0  0  0  0  0  0  0  0  0  0  0
    3.7104    0.0557    1.2469 H   0  0  0  0  0  0  0  0  0  0  0  0
    2.2239    1.1322    1.5288 H   0  0  0  0  0  0  0  0  0  0  0  0
    2.2396    1.8129   -0.8856 H   0  0  0  0  0  0  0  0  0  0  0  0
    4.4500   -0.0853   -0.8918 H   0  0  0  0  0  0  0  0  0  0  0  0
  1  2  1  0
  2  3  1  0
  3  4  1  0
  4  5  1  0
  5  6  1  0
  6  7  1  0
  7  8  1  0
  8  9  1  0
  8  6  1  0
  1 10  1  0
  1 11  1  0
  1 12  1  0
  2 13  1  0
  2 14  1  0
  3 15  1  0
  3 16  1  0
  5 17  1  0
  5 18  1  0
  6 19  1  0
  7 20  1  0
  7 21  1  0
  8 22  1  0
  9 23  1  0
M  END
