
     RDKit          3D

 20 20  0  0  0  0  0  0  0  0999 V2000
    2.7491   -0.4944    0.0817 C   0  0  0  0  0  0  0  0  0  0  0  0
    2.1214    0.8111   -0.3326 C   0  0  0  0  0  0  0  0  0  0  0  0
    0.7189    0.9646    0.1882 C   0  0  0  0  0  0  0  0  0  0  0  0
   -0.1225   -0.0424   -0.2712 O   0  0  0  0  0  0  0  0  0  0  0  0
   -1.3795    0.1538    0.2365 C   0  0  0  0  0  0  0  0  0  0  0  0
   -2.5973   -0.3496   -0.4340 C   0  0  0  0  0  0  0  0  0  0  0  0
   -2.0449   -1.1580    0.6928 C   0  0  0  0  0  0  0  0  0  0  0  0
   -2.6069   -1.1061    1.9415 O   0  0  0  0  0  0  0  0  0  0  0  0
    3.6210   -0.6528   -0.6145 H   0  0  0  0  0  0  0  0  0  0  0  0
    3.1769   -0.4561    1.1030 H   0  0  0  0  0  0  0  0  0  0  0  0
    2.0666   -1.3510    0.0420 H   0  0  0  0  0  0  0  0  0  0  0  0
    2.7307    1.6246    0.1070 H   0  0  0  0  0  0  0  0  0  0  0  0
    2.1293    0.9499   -1.4251 H   0  0  0  0  0  0  0  0  0  0  0  0
    0.3593    1.9676   -0.1633 H   0  0  0  0  0  0  0  0  0  0  0  0
    0.7321    1.0341    1.3044 H   0  0  0  0  0  0  0  0  0  0  0  0
   -1.5092    1.0278    0.8884 H   0  0  0  0  0  0  0  0  0  0  0  0
   -2.5257   -0.7421   -1.4762 H   0  0  0  0  0  0  0  0  0  0  0  0
   -3.5500    0.1590   -0.2098 H   0  0  0  0  0  0  0  0  0  0  0  0
   -1.5860   -2.1117    0.3935 H   0  0  0  0  0  0  0  0  0  0  0  0
   -2.4832   -0.2283    2.3632 H   0  0  0  0  0  0  0  0  0  0  0  0
  1  2  1  0
  2  3  1  0
  3  4  1  0
  4  5  1  0
  5  6  1  0
  6  7  1  0
  7  8  1  0
  7  5  1  0
  1  9  1  0
  1 10  1  0
  1 11  1  0
  2 12  1  0
  2 13  1  0
  3 14  1  0
  3 15  1  0
  5 16  1  0
  6 17  1  0
  6 18  1  0
  7 19  1  0
  8 20  1  0
M  END
