
     RDKit          3D

 17 16  0  0  0  0  0  0  0  0999 V2000
    2.6978   -0.2648    0.0888 C   0  0  0  0  0  0  0  0  0  0  0  0
    1.1990   -0.2800    0.3355 C   0  0  0  0  0  0  0  0  0  0  0  0
    0.5350    0.9150   -0.3070 C   0  0  0  0  0  0  0  0  0  0  0  0
   -0.8386    0.8500   -0.0444 O   0  0  0  0  0  0  0  0  0  0  0  0
   -1.6531   -0.1591   -0.4597 C   0  0  0  0  0  0  0  0  0  0  0  0
   -3.0960   -0.0810   -0.0926 C   0  0  0  0  0  0  0  0  0  0  0  0
   -1.2177   -1.1279   -1.1291 O   0  0  0  0  0  0  0  0  0  0  0  0
    3.0117   -1.2605   -0.2965 H   0  0  0  0  0  0  0  0  0  0  0  0
    2.9723    0.5101   -0.6774 H   0  0  0  0  0  0  0  0  0  0  0  0
    3.2453    0.0164    1.0026 H   0  0  0  0  0  0  0  0  0  0  0  0
    1.0543   -0.2651    1.4500 H   0  0  0  0  0  0  0  0  0  0  0  0
    0.7695   -1.2385   -0.0011 H   0  0  0  0  0  0  0  0  0  0  0  0
    0.9623    1.8693    0.0449 H   0  0  0  0  0  0  0  0  0  0  0  0
    0.6772    0.8190   -1.4122 H   0  0  0  0  0  0  0  0  0  0  0  0
   -3.6611    0.3589   -0.9345 H   0  0  0  0  0  0  0  0  0  0  0  0
   -3.1990    0.4658    0.8547 H   0  0  0  0  0  0  0  0  0  0  0  0
   -3.4588   -1.1276    0.0490 H   0  0  0  0  0  0  0  0  0  0  0  0
  1  2  1  0
  2  3  1  0
  3  4  1  0
  4  5  1  0
  5  6  1  0
  5  7  2  0
  1  8  1  0
  1  9  1  0
  1 10  1  0
  2 11  1  0
  2 12  1  0
  3 13  1  0
  3 14  1  0
  6 15  1  0
  6 16  1  0
  6 17  1  0
M  END
