
     RDKit          3D

 23 22  0  0  0  0  0  0  0  0999 V2000
    3.6986    0.6165   -0.0201 C   0  0  0  0  0  0  0  0  0  0  0  0
    2.3784   -0.1311    0.2170 C   0  0  0  0  0  0  0  0  0  0  0  0
    1.3255    0.5744   -0.5691 C   0  0  0  0  0  0  0  0  0  0  0  0
    0.0564    0.0274   -0.4738 O   0  0  0  0  0  0  0  0  0  0  0  0
   -0.3797    0.0345    0.8215 C   0  0  0  0  0  0  0  0  0  0  0  0
   -1.7408   -0.5331    1.0015 C   0  0  0  0  0  0  0  0  0  0  0  0
   -2.1792   -0.5503    2.1400 O   0  0  0  0  0  0  0  0  0  0  0  0
   -2.5764   -1.0639   -0.0770 C   0  0  0  0  0  0  0  0  0  0  0  0
   -3.6291   -0.0211   -0.4433 C   0  0  0  0  0  0  0  0  0  0  0  0
    3.6680    1.6287    0.4040 H   0  0  0  0  0  0  0  0  0  0  0  0
    4.5275    0.0782    0.4730 H   0  0  0  0  0  0  0  0  0  0  0  0
    3.9285    0.6897   -1.0844 H   0  0  0  0  0  0  0  0  0  0  0  0
    2.5569   -1.1689   -0.0887 H   0  0  0  0  0  0  0  0  0  0  0  0
    2.2390   -0.0938    1.3149 H   0  0  0  0  0  0  0  0  0  0  0  0
    1.6808    0.6087   -1.6317 H   0  0  0  0  0  0  0  0  0  0  0  0
    1.2918    1.6336   -0.1832 H   0  0  0  0  0  0  0  0  0  0  0  0
   -0.3552    1.0180    1.2933 H   0  0  0  0  0  0  0  0  0  0  0  0
    0.2942   -0.6629    1.4034 H   0  0  0  0  0  0  0  0  0  0  0  0
   -3.1661   -1.9312    0.3362 H   0  0  0  0  0  0  0  0  0  0  0  0
   -2.0364   -1.4448   -0.9436 H   0  0  0  0  0  0  0  0  0  0  0  0
   -3.1136    0.7742   -1.0502 H   0  0  0  0  0  0  0  0  0  0  0  0
   -4.4610   -0.4791   -0.9958 H   0  0  0  0  0  0  0  0  0  0  0  0
   -4.0084    0.3962    0.5035 H   0  0  0  0  0  0  0  0  0  0  0  0
  1  2  1  0
  2  3  1  0
  3  4  1  0
  4  5  1  0
  5  6  1  0
  6  7  2  0
  6  8  1  0
  8  9  1  0
  1 10  1  0
  1 11  1  0
  1 12  1  0
  2 13  1  0
  2 14  1  0
  3 15  1  0
  3 16  1  0
  5 17  1  0
  5 18  1  0
  8 19  1  0
  8 20  1  0
  9 21  1  0
  9 22  1  0
  9 23  1  0
M  END
