
     RDKit          3D

 19 18  0  0  0  0  0  0  0  0999 V2000
   -2.4311    0.8101   -0.6936 C   0  0  0  0  0  0  0  0  0  0  0  0
   -2.0145   -0.5771   -0.2697 C   0  0  0  0  0  0  0  0  0  0  0  0
   -0.5263   -0.6181    0.0693 C   0  0  0  0  0  0  0  0  0  0  0  0
    0.2597   -0.2693   -0.9827 O   0  0  0  0  0  0  0  0  0  0  0  0
    1.5967   -0.3574   -0.6877 C   0  0  0  0  0  0  0  0  0  0  0  0
    1.9540    0.5504    0.4413 C   0  0  0  0  0  0  0  0  0  0  0  0
    3.3222    0.4897    0.7558 O   0  0  0  0  0  0  0  0  0  0  0  0
   -1.9614    1.5128    0.0530 H   0  0  0  0  0  0  0  0  0  0  0  0
   -2.1017    1.0738   -1.7137 H   0  0  0  0  0  0  0  0  0  0  0  0
   -3.5212    0.9382   -0.5905 H   0  0  0  0  0  0  0  0  0  0  0  0
   -2.5414   -0.7824    0.6951 H   0  0  0  0  0  0  0  0  0  0  0  0
   -2.3059   -1.3482   -0.9763 H   0  0  0  0  0  0  0  0  0  0  0  0
   -0.2381   -1.5940    0.4979 H   0  0  0  0  0  0  0  0  0  0  0  0
   -0.4497    0.1344    0.9114 H   0  0  0  0  0  0  0  0  0  0  0  0
    1.9014   -1.3943   -0.3842 H   0  0  0  0  0  0  0  0  0  0  0  0
    2.2238   -0.0991   -1.5828 H   0  0  0  0  0  0  0  0  0  0  0  0
    1.4314    0.1519    1.3639 H   0  0  0  0  0  0  0  0  0  0  0  0
    1.6047    1.5553    0.2280 H   0  0  0  0  0  0  0  0  0  0  0  0
    3.7973   -0.1769    0.2116 H   0  0  0  0  0  0  0  0  0  0  0  0
  1  2  1  0
  2  3  1  0
  3  4  1  0
  4  5  1  0
  5  6  1  0
  6  7  1  0
  1  8  1  0
  1  9  1  0
  1 10  1  0
  2 11  1  0
  2 12  1  0
  3 13  1  0
  3 14  1  0
  5 15  1  0
  5 16  1  0
  6 17  1  0
  6 18  1  0
  7 19  1  0
M  END
