
     RDKit          3D

 23 22  0  0  0  0  0  0  0  0999 V2000
    3.2986    0.9249    0.0821 C   0  0  0  0  0  0  0  0  0  0  0  0
    2.8553   -0.4857   -0.2496 C   0  0  0  0  0  0  0  0  0  0  0  0
    1.7992   -1.0200    0.6670 C   0  0  0  0  0  0  0  0  0  0  0  0
    0.6056   -0.3066    0.6899 O   0  0  0  0  0  0  0  0  0  0  0  0
   -0.2433   -0.1070   -0.3610 C   0  0  0  0  0  0  0  0  0  0  0  0
    0.0464   -0.5990   -1.4749 O   0  0  0  0  0  0  0  0  0  0  0  0
   -1.5246    0.6776   -0.2537 C   0  0  0  0  0  0  0  0  0  0  0  0
   -2.5354   -0.2781    0.3493 C   0  0  0  0  0  0  0  0  0  0  0  0
   -3.8970    0.3246    0.5269 C   0  0  0  0  0  0  0  0  0  0  0  0
    4.2208    0.8451    0.7314 H   0  0  0  0  0  0  0  0  0  0  0  0
    3.6699    1.3816   -0.8540 H   0  0  0  0  0  0  0  0  0  0  0  0
    2.5636    1.5210    0.6362 H   0  0  0  0  0  0  0  0  0  0  0  0
    3.7089   -1.2060   -0.2055 H   0  0  0  0  0  0  0  0  0  0  0  0
    2.4748   -0.5402   -1.3057 H   0  0  0  0  0  0  0  0  0  0  0  0
    2.1810   -1.0416    1.7197 H   0  0  0  0  0  0  0  0  0  0  0  0
    1.6756   -2.0992    0.4037 H   0  0  0  0  0  0  0  0  0  0  0  0
   -1.3463    1.5769    0.3629 H   0  0  0  0  0  0  0  0  0  0  0  0
   -1.8694    1.0255   -1.2333 H   0  0  0  0  0  0  0  0  0  0  0  0
   -2.2035   -0.6773    1.3304 H   0  0  0  0  0  0  0  0  0  0  0  0
   -2.6208   -1.1530   -0.3202 H   0  0  0  0  0  0  0  0  0  0  0  0
   -3.9425    1.1124    1.3060 H   0  0  0  0  0  0  0  0  0  0  0  0
   -4.5532   -0.5111    0.9111 H   0  0  0  0  0  0  0  0  0  0  0  0
   -4.3636    0.6352   -0.4365 H   0  0  0  0  0  0  0  0  0  0  0  0
  1  2  1  0
  2  3  1  0
  3  4  1  0
  4  5  1  0
  5  6  2  0
  5  7  1  0
  7  8  1  0
  8  9  1  0
  1 10  1  0
  1 11  1  0
  1 12  1  0
  2 13  1  0
  2 14  1  0
  3 15  1  0
  3 16  1  0
  7 17  1  0
  7 18  1  0
  8 19  1  0
  8 20  1  0
  9 21  1  0
  9 22  1  0
  9 23  1  0
M  END
