
     RDKit          3D

 23 24  0  0  0  0  0  0  0  0999 V2000
   -2.8788    0.5235   -0.1069 C   0  0  0  0  0  0  0  0  0  0  0  0
   -2.0088   -0.6883   -0.3857 C   0  0  0  0  0  0  0  0  0  0  0  0
   -1.1282   -1.0167    0.8012 C   0  0  0  0  0  0  0  0  0  0  0  0
   -0.2643   -0.0197    1.1556 O   0  0  0  0  0  0  0  0  0  0  0  0
    0.6883    0.3025    0.1867 C   0  0  0  0  0  0  0  0  0  0  0  0
    1.6071    1.4656    0.5300 C   0  0  0  0  0  0  0  0  0  0  0  0
    2.8473    0.6873    0.2683 C   0  0  0  0  0  0  0  0  0  0  0  0
    1.9951   -0.5497    0.2430 C   0  0  0  0  0  0  0  0  0  0  0  0
    1.0536   -0.6264   -0.8981 C   0  0  0  0  0  0  0  0  0  0  0  0
   -3.4618    0.7116   -1.0322 H   0  0  0  0  0  0  0  0  0  0  0  0
   -3.5845    0.2786    0.6918 H   0  0  0  0  0  0  0  0  0  0  0  0
   -2.2775    1.4331    0.0927 H   0  0  0  0  0  0  0  0  0  0  0  0
   -2.6734   -1.5301   -0.6076 H   0  0  0  0  0  0  0  0  0  0  0  0
   -1.4063   -0.4438   -1.2542 H   0  0  0  0  0  0  0  0  0  0  0  0
   -1.8458   -1.2509    1.6378 H   0  0  0  0  0  0  0  0  0  0  0  0
   -0.6065   -1.9731    0.5543 H   0  0  0  0  0  0  0  0  0  0  0  0
    1.5363    1.7827    1.5962 H   0  0  0  0  0  0  0  0  0  0  0  0
    1.5012    2.3205   -0.1945 H   0  0  0  0  0  0  0  0  0  0  0  0
    3.6398    0.7255    1.0340 H   0  0  0  0  0  0  0  0  0  0  0  0
    3.2550    0.8665   -0.7645 H   0  0  0  0  0  0  0  0  0  0  0  0
    2.0077   -1.2658    1.0568 H   0  0  0  0  0  0  0  0  0  0  0  0
    1.4019   -0.1290   -1.8433 H   0  0  0  0  0  0  0  0  0  0  0  0
    0.6025   -1.6038   -1.0351 H   0  0  0  0  0  0  0  0  0  0  0  0
  1  2  1  0
  2  3  1  0
  3  4  1  0
  4  5  1  0
  5  6  1  0
  6  7  1  0
  7  8  1  0
  8  9  1  0
  8  5  1  0
  9  5  1  0
  1 10  1  0
  1 11  1  0
  1 12  1  0
  2 13  1  0
  2 14  1  0
  3 15  1  0
  3 16  1  0
  6 17  1  0
  6 18  1  0
  7 19  1  0
  7 20  1  0
  8 21  1  0
  9 22  1  0
  9 23  1  0
M  END
