
     RDKit          3D

 19 18  0  0  0  0  0  0  0  0999 V2000
   -2.9724   -0.0340   -0.4252 C   0  0  0  0  0  0  0  0  0  0  0  0
   -1.5811    0.4166    0.0405 C   0  0  0  0  0  0  0  0  0  0  0  0
   -0.9715   -0.7816    0.7190 C   0  0  0  0  0  0  0  0  0  0  0  0
    0.2804   -0.5040    1.1894 O   0  0  0  0  0  0  0  0  0  0  0  0
    1.2189   -0.1200    0.2610 C   0  0  0  0  0  0  0  0  0  0  0  0
    2.5069    0.1263    0.9379 C   0  0  0  0  0  0  0  0  0  0  0  0
    2.6012   -0.0275    2.1814 O   0  0  0  0  0  0  0  0  0  0  0  0
    3.6769    0.5491    0.1690 C   0  0  0  0  0  0  0  0  0  0  0  0
    3.5932    0.7059   -1.0758 O   0  0  0  0  0  0  0  0  0  0  0  0
   -3.6992    0.0318    0.4090 H   0  0  0  0  0  0  0  0  0  0  0  0
   -2.9159   -1.0718   -0.8108 H   0  0  0  0  0  0  0  0  0  0  0  0
   -3.2617    0.6752   -1.2219 H   0  0  0  0  0  0  0  0  0  0  0  0
   -1.6512    1.2229    0.7987 H   0  0  0  0  0  0  0  0  0  0  0  0
   -1.0111    0.7305   -0.8689 H   0  0  0  0  0  0  0  0  0  0  0  0
   -1.6159   -1.0019    1.6062 H   0  0  0  0  0  0  0  0  0  0  0  0
   -1.0010   -1.6882    0.0582 H   0  0  0  0  0  0  0  0  0  0  0  0
    1.2938   -0.8232   -0.5826 H   0  0  0  0  0  0  0  0  0  0  0  0
    0.8786    0.8561   -0.1804 H   0  0  0  0  0  0  0  0  0  0  0  0
    4.6309    0.7380    0.6251 H   0  0  0  0  0  0  0  0  0  0  0  0
  1  2  1  0
  2  3  1  0
  3  4  1  0
  4  5  1  0
  5  6  1  0
  6  7  2  0
  6  8  1  0
  8  9  2  0
  1 10  1  0
  1 11  1  0
  1 12  1  0
  2 13  1  0
  2 14  1  0
  3 15  1  0
  3 16  1  0
  5 17  1  0
  5 18  1  0
  8 19  1  0
M  END
