
     RDKit          3D

 25 25  0  0  0  0  0  0  0  0999 V2000
    3.1954   -0.8884   -0.0634 C   0  0  0  0  0  0  0  0  0  0  0  0
    1.6759   -0.7894   -0.0012 C   0  0  0  0  0  0  0  0  0  0  0  0
    1.2549    0.2612   -0.9808 C   0  0  0  0  0  0  0  0  0  0  0  0
   -0.1080    0.4820   -1.0512 O   0  0  0  0  0  0  0  0  0  0  0  0
   -0.6863    0.9028    0.1246 C   0  0  0  0  0  0  0  0  0  0  0  0
   -1.2010    2.3496   -0.0112 C   0  0  0  0  0  0  0  0  0  0  0  0
   -1.8576    0.0730    0.5279 C   0  0  0  0  0  0  0  0  0  0  0  0
   -1.7653   -1.3759    0.7938 C   0  0  0  0  0  0  0  0  0  0  0  0
   -2.2877   -0.9277   -0.5563 C   0  0  0  0  0  0  0  0  0  0  0  0
    3.6210   -1.3118    0.8535 H   0  0  0  0  0  0  0  0  0  0  0  0
    3.5072   -1.4815   -0.9574 H   0  0  0  0  0  0  0  0  0  0  0  0
    3.5692    0.1483   -0.2290 H   0  0  0  0  0  0  0  0  0  0  0  0
    1.4311   -0.5609    1.0523 H   0  0  0  0  0  0  0  0  0  0  0  0
    1.2439   -1.7709   -0.2952 H   0  0  0  0  0  0  0  0  0  0  0  0
    1.6624   -0.0154   -1.9724 H   0  0  0  0  0  0  0  0  0  0  0  0
    1.8149    1.1954   -0.6979 H   0  0  0  0  0  0  0  0  0  0  0  0
    0.1087    0.9681    0.9022 H   0  0  0  0  0  0  0  0  0  0  0  0
   -1.9152    2.3565   -0.8622 H   0  0  0  0  0  0  0  0  0  0  0  0
   -0.3797    3.0611   -0.1153 H   0  0  0  0  0  0  0  0  0  0  0  0
   -1.8239    2.5087    0.9021 H   0  0  0  0  0  0  0  0  0  0  0  0
   -2.6790    0.6339    1.0447 H   0  0  0  0  0  0  0  0  0  0  0  0
   -0.8394   -1.9358    0.8683 H   0  0  0  0  0  0  0  0  0  0  0  0
   -2.5761   -1.7973    1.4343 H   0  0  0  0  0  0  0  0  0  0  0  0
   -3.3648   -0.9615   -0.7706 H   0  0  0  0  0  0  0  0  0  0  0  0
   -1.6006   -1.1241   -1.3863 H   0  0  0  0  0  0  0  0  0  0  0  0
  1  2  1  0
  2  3  1  0
  3  4  1  0
  4  5  1  0
  5  6  1  0
  5  7  1  0
  7  8  1  0
  8  9  1  0
  9  7  1  0
  1 10  1  0
  1 11  1  0
  1 12  1  0
  2 13  1  0
  2 14  1  0
  3 15  1  0
  3 16  1  0
  5 17  1  0
  6 18  1  0
  6 19  1  0
  6 20  1  0
  7 21  1  0
  8 22  1  0
  8 23  1  0
  9 24  1  0
  9 25  1  0
M  END
