
     RDKit          3D

 21 20  0  0  0  0  0  0  0  0999 V2000
   -3.7078   -0.6648   -0.4303 C   0  0  0  0  0  0  0  0  0  0  0  0
   -2.2814   -0.6895    0.0114 C   0  0  0  0  0  0  0  0  0  0  0  0
   -1.4202    0.3134   -0.7493 C   0  0  0  0  0  0  0  0  0  0  0  0
   -0.1153    0.1924   -0.2459 O   0  0  0  0  0  0  0  0  0  0  0  0
    0.9712    0.9182   -0.6611 C   0  0  0  0  0  0  0  0  0  0  0  0
    0.8068    1.7716   -1.5707 O   0  0  0  0  0  0  0  0  0  0  0  0
    2.3420    0.7379   -0.0786 C   0  0  0  0  0  0  0  0  0  0  0  0
    2.2991   -0.2639    0.9199 O   0  0  0  0  0  0  0  0  0  0  0  0
    3.5481   -0.4480    1.4707 C   0  0  0  0  0  0  0  0  0  0  0  0
   -4.0014    0.3629   -0.6524 H   0  0  0  0  0  0  0  0  0  0  0  0
   -3.9025   -1.3775   -1.2578 H   0  0  0  0  0  0  0  0  0  0  0  0
   -4.3437   -1.0168    0.4200 H   0  0  0  0  0  0  0  0  0  0  0  0
   -2.2667   -0.4590    1.1125 H   0  0  0  0  0  0  0  0  0  0  0  0
   -1.8499   -1.6975   -0.0864 H   0  0  0  0  0  0  0  0  0  0  0  0
   -1.4970    0.0001   -1.8278 H   0  0  0  0  0  0  0  0  0  0  0  0
   -1.8249    1.3282   -0.6980 H   0  0  0  0  0  0  0  0  0  0  0  0
    2.6518    1.6748    0.3978 H   0  0  0  0  0  0  0  0  0  0  0  0
    3.0231    0.4019   -0.8759 H   0  0  0  0  0  0  0  0  0  0  0  0
    4.2355   -0.7564    0.6603 H   0  0  0  0  0  0  0  0  0  0  0  0
    3.4662   -1.2326    2.2451 H   0  0  0  0  0  0  0  0  0  0  0  0
    3.8670    0.5340    1.8965 H   0  0  0  0  0  0  0  0  0  0  0  0
  1  2  1  0
  2  3  1  0
  3  4  1  0
  4  5  1  0
  5  6  2  0
  5  7  1  0
  7  8  1  0
  8  9  1  0
  1 10  1  0
  1 11  1  0
  1 12  1  0
  2 13  1  0
  2 14  1  0
  3 15  1  0
  3 16  1  0
  7 17  1  0
  7 18  1  0
  9 19  1  0
  9 20  1  0
  9 21  1  0
M  END
