
     RDKit          3D

 25 24  0  0  0  0  0  0  0  0999 V2000
   -3.3252    1.2926    0.0884 C   0  0  0  0  0  0  0  0  0  0  0  0
   -2.3082    0.6373   -0.8552 C   0  0  0  0  0  0  0  0  0  0  0  0
   -1.1643    0.1540    0.0234 C   0  0  0  0  0  0  0  0  0  0  0  0
   -0.1744   -0.4573   -0.6916 O   0  0  0  0  0  0  0  0  0  0  0  0
    0.8616   -0.9118    0.0997 C   0  0  0  0  0  0  0  0  0  0  0  0
    0.9271   -2.4433    0.0971 C   0  0  0  0  0  0  0  0  0  0  0  0
    2.2236   -0.4498   -0.3546 C   0  0  0  0  0  0  0  0  0  0  0  0
    2.4180    0.9041   -0.3484 O   0  0  0  0  0  0  0  0  0  0  0  0
    2.3201    1.4192    0.9360 C   0  0  0  0  0  0  0  0  0  0  0  0
   -3.9854    1.9744   -0.4491 H   0  0  0  0  0  0  0  0  0  0  0  0
   -3.9226    0.4663    0.5563 H   0  0  0  0  0  0  0  0  0  0  0  0
   -2.8100    1.8207    0.9126 H   0  0  0  0  0  0  0  0  0  0  0  0
   -1.9859    1.4345   -1.5526 H   0  0  0  0  0  0  0  0  0  0  0  0
   -2.7671   -0.1744   -1.4276 H   0  0  0  0  0  0  0  0  0  0  0  0
   -0.7921    1.0401    0.5538 H   0  0  0  0  0  0  0  0  0  0  0  0
   -1.6057   -0.5971    0.7136 H   0  0  0  0  0  0  0  0  0  0  0  0
    0.6782   -0.6546    1.1737 H   0  0  0  0  0  0  0  0  0  0  0  0
    1.7609   -2.7297    0.7435 H   0  0  0  0  0  0  0  0  0  0  0  0
    0.0105   -2.8900    0.4953 H   0  0  0  0  0  0  0  0  0  0  0  0
    1.1581   -2.7423   -0.9418 H   0  0  0  0  0  0  0  0  0  0  0  0
    2.4107   -0.9104   -1.3510 H   0  0  0  0  0  0  0  0  0  0  0  0
    2.9585   -0.9311    0.3563 H   0  0  0  0  0  0  0  0  0  0  0  0
    1.3709    1.2565    1.4347 H   0  0  0  0  0  0  0  0  0  0  0  0
    2.5897    2.5069    0.8503 H   0  0  0  0  0  0  0  0  0  0  0  0
    3.1531    0.9852    1.5498 H   0  0  0  0  0  0  0  0  0  0  0  0
  1  2  1  0
  2  3  1  0
  3  4  1  0
  4  5  1  0
  5  6  1  0
  5  7  1  0
  7  8  1  0
  8  9  1  0
  1 10  1  0
  1 11  1  0
  1 12  1  0
  2 13  1  0
  2 14  1  0
  3 15  1  0
  3 16  1  0
  5 17  1  0
  6 18  1  0
  6 19  1  0
  6 20  1  0
  7 21  1  0
  7 22  1  0
  9 23  1  0
  9 24  1  0
  9 25  1  0
M  END
