
     RDKit          3D

 25 24  0  0  0  0  0  0  0  0999 V2000
   -3.3997    0.7309    0.1381 C   0  0  0  0  0  0  0  0  0  0  0  0
   -3.0874   -0.7149   -0.1711 C   0  0  0  0  0  0  0  0  0  0  0  0
   -1.9165   -1.1393    0.7183 C   0  0  0  0  0  0  0  0  0  0  0  0
   -0.8603   -0.3143    0.4049 O   0  0  0  0  0  0  0  0  0  0  0  0
    0.2822   -0.5962    1.1507 C   0  0  0  0  0  0  0  0  0  0  0  0
    1.4103    0.3590    0.7476 C   0  0  0  0  0  0  0  0  0  0  0  0
    1.7517    0.2278   -0.6975 C   0  0  0  0  0  0  0  0  0  0  0  0
    2.7601    1.1092   -1.0213 O   0  0  0  0  0  0  0  0  0  0  0  0
    3.9361    0.9419   -0.3420 C   0  0  0  0  0  0  0  0  0  0  0  0
   -3.5982    0.7843    1.2315 H   0  0  0  0  0  0  0  0  0  0  0  0
   -2.4818    1.3398   -0.0275 H   0  0  0  0  0  0  0  0  0  0  0  0
   -4.2500    1.1052   -0.4423 H   0  0  0  0  0  0  0  0  0  0  0  0
   -2.8586   -0.8740   -1.2288 H   0  0  0  0  0  0  0  0  0  0  0  0
   -3.9891   -1.3030    0.0671 H   0  0  0  0  0  0  0  0  0  0  0  0
   -1.7177   -2.2086    0.4910 H   0  0  0  0  0  0  0  0  0  0  0  0
   -2.2014   -1.0953    1.7890 H   0  0  0  0  0  0  0  0  0  0  0  0
    0.1292   -0.5634    2.2300 H   0  0  0  0  0  0  0  0  0  0  0  0
    0.6068   -1.6205    0.8743 H   0  0  0  0  0  0  0  0  0  0  0  0
    2.3242    0.0369    1.3291 H   0  0  0  0  0  0  0  0  0  0  0  0
    1.1745    1.3965    1.0616 H   0  0  0  0  0  0  0  0  0  0  0  0
    2.1612   -0.8019   -0.8498 H   0  0  0  0  0  0  0  0  0  0  0  0
    0.8986    0.4120   -1.3774 H   0  0  0  0  0  0  0  0  0  0  0  0
    4.3915   -0.0755   -0.4889 H   0  0  0  0  0  0  0  0  0  0  0  0
    3.8921    1.1391    0.7436 H   0  0  0  0  0  0  0  0  0  0  0  0
    4.6424    1.7244   -0.7615 H   0  0  0  0  0  0  0  0  0  0  0  0
  1  2  1  0
  2  3  1  0
  3  4  1  0
  4  5  1  0
  5  6  1  0
  6  7  1  0
  7  8  1  0
  8  9  1  0
  1 10  1  0
  1 11  1  0
  1 12  1  0
  2 13  1  0
  2 14  1  0
  3 15  1  0
  3 16  1  0
  5 17  1  0
  5 18  1  0
  6 19  1  0
  6 20  1  0
  7 21  1  0
  7 22  1  0
  9 23  1  0
  9 24  1  0
  9 25  1  0
M  END
