
     RDKit          3D

 21 21  0  0  0  0  0  0  0  0999 V2000
    3.0784    0.7713   -0.7445 C   0  0  0  0  0  0  0  0  0  0  0  0
    2.1446   -0.2250   -0.1514 C   0  0  0  0  0  0  0  0  0  0  0  0
    0.6757    0.2281   -0.2636 C   0  0  0  0  0  0  0  0  0  0  0  0
   -0.0584   -0.7611    0.3091 O   0  0  0  0  0  0  0  0  0  0  0  0
   -1.4094   -0.6440    0.3419 C   0  0  0  0  0  0  0  0  0  0  0  0
   -2.1141   -1.8092    0.9912 C   0  0  0  0  0  0  0  0  0  0  0  0
   -3.3288   -1.7717    1.0556 O   0  0  0  0  0  0  0  0  0  0  0  0
   -2.1945    0.1542   -0.6159 C   0  0  0  0  0  0  0  0  0  0  0  0
   -1.9425    0.7333    0.7409 C   0  0  0  0  0  0  0  0  0  0  0  0
    3.7208    0.3511   -1.5471 H   0  0  0  0  0  0  0  0  0  0  0  0
    3.7852    1.1345    0.0409 H   0  0  0  0  0  0  0  0  0  0  0  0
    2.5906    1.6738   -1.1526 H   0  0  0  0  0  0  0  0  0  0  0  0
    2.2467   -1.1803   -0.6905 H   0  0  0  0  0  0  0  0  0  0  0  0
    2.3111   -0.3957    0.9383 H   0  0  0  0  0  0  0  0  0  0  0  0
    0.4849    0.3564   -1.3632 H   0  0  0  0  0  0  0  0  0  0  0  0
    0.5907    1.1887    0.2816 H   0  0  0  0  0  0  0  0  0  0  0  0
   -1.5419   -2.6133    1.3663 H   0  0  0  0  0  0  0  0  0  0  0  0
   -3.2446   -0.1637   -0.7822 H   0  0  0  0  0  0  0  0  0  0  0  0
   -1.7502    0.6394   -1.5015 H   0  0  0  0  0  0  0  0  0  0  0  0
   -2.7454    0.7250    1.5083 H   0  0  0  0  0  0  0  0  0  0  0  0
   -1.2988    1.6081    0.7560 H   0  0  0  0  0  0  0  0  0  0  0  0
  1  2  1  0
  2  3  1  0
  3  4  1  0
  4  5  1  0
  5  6  1  0
  6  7  2  0
  5  8  1  0
  8  9  1  0
  9  5  1  0
  1 10  1  0
  1 11  1  0
  1 12  1  0
  2 13  1  0
  2 14  1  0
  3 15  1  0
  3 16  1  0
  6 17  1  0
  8 18  1  0
  8 19  1  0
  9 20  1  0
  9 21  1  0
M  END
