
     RDKit          3D

 25 25  0  0  0  0  0  0  0  0999 V2000
   -4.1178    0.0675    0.1225 C   0  0  0  0  0  0  0  0  0  0  0  0
   -2.8023    0.8186    0.3109 C   0  0  0  0  0  0  0  0  0  0  0  0
   -1.6981   -0.2063    0.2575 C   0  0  0  0  0  0  0  0  0  0  0  0
   -0.4431    0.3528    0.4172 O   0  0  0  0  0  0  0  0  0  0  0  0
    0.4804   -0.7076    0.3467 C   0  0  0  0  0  0  0  0  0  0  0  0
    1.8433   -0.1163    0.5181 C   0  0  0  0  0  0  0  0  0  0  0  0
    2.0978    0.9010   -0.6013 C   0  0  0  0  0  0  0  0  0  0  0  0
    3.5339    0.3991   -0.6171 C   0  0  0  0  0  0  0  0  0  0  0  0
    2.9914   -0.9186   -0.0482 C   0  0  0  0  0  0  0  0  0  0  0  0
   -4.6304   -0.0810    1.0989 H   0  0  0  0  0  0  0  0  0  0  0  0
   -4.7990    0.6137   -0.5711 H   0  0  0  0  0  0  0  0  0  0  0  0
   -3.9423   -0.9327   -0.3523 H   0  0  0  0  0  0  0  0  0  0  0  0
   -2.6646    1.6066   -0.4285 H   0  0  0  0  0  0  0  0  0  0  0  0
   -2.8486    1.3154    1.3104 H   0  0  0  0  0  0  0  0  0  0  0  0
   -1.7330   -0.6638   -0.7605 H   0  0  0  0  0  0  0  0  0  0  0  0
   -1.9300   -0.9840    0.9996 H   0  0  0  0  0  0  0  0  0  0  0  0
    0.2381   -1.4841    1.0814 H   0  0  0  0  0  0  0  0  0  0  0  0
    0.3883   -1.1635   -0.6699 H   0  0  0  0  0  0  0  0  0  0  0  0
    2.0395    0.2879    1.5118 H   0  0  0  0  0  0  0  0  0  0  0  0
    1.5207    0.6445   -1.5143 H   0  0  0  0  0  0  0  0  0  0  0  0
    1.9523    1.9196   -0.2357 H   0  0  0  0  0  0  0  0  0  0  0  0
    4.1136    0.9670    0.1395 H   0  0  0  0  0  0  0  0  0  0  0  0
    3.9637    0.3066   -1.6130 H   0  0  0  0  0  0  0  0  0  0  0  0
    2.7327   -1.6406   -0.8330 H   0  0  0  0  0  0  0  0  0  0  0  0
    3.7136   -1.3019    0.6883 H   0  0  0  0  0  0  0  0  0  0  0  0
  1  2  1  0
  2  3  1  0
  3  4  1  0
  4  5  1  0
  5  6  1  0
  6  7  1  0
  7  8  1  0
  8  9  1  0
  9  6  1  0
  1 10  1  0
  1 11  1  0
  1 12  1  0
  2 13  1  0
  2 14  1  0
  3 15  1  0
  3 16  1  0
  5 17  1  0
  5 18  1  0
  6 19  1  0
  7 20  1  0
  7 21  1  0
  8 22  1  0
  8 23  1  0
  9 24  1  0
  9 25  1  0
M  END
