
     RDKit          3D

 23 23  0  0  0  0  0  0  0  0999 V2000
   -2.9781    0.5204    0.4078 C   0  0  0  0  0  0  0  0  0  0  0  0
   -2.4665   -0.6964   -0.3403 C   0  0  0  0  0  0  0  0  0  0  0  0
   -0.9973   -0.9673    0.0300 C   0  0  0  0  0  0  0  0  0  0  0  0
   -0.2899    0.1260   -0.3176 O   0  0  0  0  0  0  0  0  0  0  0  0
    1.0352    0.1947   -0.1117 C   0  0  0  0  0  0  0  0  0  0  0  0
    1.6499    1.5263   -0.5744 C   0  0  0  0  0  0  0  0  0  0  0  0
    3.0032    1.5482   -0.3433 O   0  0  0  0  0  0  0  0  0  0  0  0
    1.8032   -1.0620   -0.5642 C   0  0  0  0  0  0  0  0  0  0  0  0
    1.8140   -0.5591    0.8592 C   0  0  0  0  0  0  0  0  0  0  0  0
   -3.0904    0.2536    1.4807 H   0  0  0  0  0  0  0  0  0  0  0  0
   -2.2795    1.3459    0.2263 H   0  0  0  0  0  0  0  0  0  0  0  0
   -3.9876    0.7296    0.0191 H   0  0  0  0  0  0  0  0  0  0  0  0
   -3.0817   -1.5868   -0.1943 H   0  0  0  0  0  0  0  0  0  0  0  0
   -2.4614   -0.4263   -1.4278 H   0  0  0  0  0  0  0  0  0  0  0  0
   -0.9782   -1.2495    1.0951 H   0  0  0  0  0  0  0  0  0  0  0  0
   -0.7235   -1.8390   -0.5841 H   0  0  0  0  0  0  0  0  0  0  0  0
    1.1584    2.3028    0.0548 H   0  0  0  0  0  0  0  0  0  0  0  0
    1.3909    1.6506   -1.6340 H   0  0  0  0  0  0  0  0  0  0  0  0
    3.3441    2.4584   -0.1310 H   0  0  0  0  0  0  0  0  0  0  0  0
    2.6822   -0.8926   -1.2119 H   0  0  0  0  0  0  0  0  0  0  0  0
    1.2889   -2.0039   -0.7169 H   0  0  0  0  0  0  0  0  0  0  0  0
    2.8036   -0.1661    1.1649 H   0  0  0  0  0  0  0  0  0  0  0  0
    1.3604   -1.2077    1.6353 H   0  0  0  0  0  0  0  0  0  0  0  0
  1  2  1  0
  2  3  1  0
  3  4  1  0
  4  5  1  0
  5  6  1  0
  6  7  1  0
  5  8  1  0
  8  9  1  0
  9  5  1  0
  1 10  1  0
  1 11  1  0
  1 12  1  0
  2 13  1  0
  2 14  1  0
  3 15  1  0
  3 16  1  0
  6 17  1  0
  6 18  1  0
  7 19  1  0
  8 20  1  0
  8 21  1  0
  9 22  1  0
  9 23  1  0
M  END
