
     RDKit          3D

 23 23  0  0  0  0  0  0  0  0999 V2000
    3.5416   -0.1441   -0.2219 C   0  0  0  0  0  0  0  0  0  0  0  0
    2.1819   -0.0463    0.4374 C   0  0  0  0  0  0  0  0  0  0  0  0
    1.2427    0.7414   -0.4457 C   0  0  0  0  0  0  0  0  0  0  0  0
   -0.0201    0.8732    0.0905 O   0  0  0  0  0  0  0  0  0  0  0  0
   -0.6893   -0.2745    0.3296 C   0  0  0  0  0  0  0  0  0  0  0  0
   -1.7438   -0.4524    1.3371 C   0  0  0  0  0  0  0  0  0  0  0  0
   -2.1229   -0.3142   -0.1472 C   0  0  0  0  0  0  0  0  0  0  0  0
   -2.7973    0.9416   -0.5920 C   0  0  0  0  0  0  0  0  0  0  0  0
   -2.6053   -1.4782   -0.7507 O   0  0  0  0  0  0  0  0  0  0  0  0
    4.2074    0.7080    0.0978 H   0  0  0  0  0  0  0  0  0  0  0  0
    3.4724   -0.0981   -1.3208 H   0  0  0  0  0  0  0  0  0  0  0  0
    4.0277   -1.0622    0.1499 H   0  0  0  0  0  0  0  0  0  0  0  0
    2.3470    0.5320    1.3813 H   0  0  0  0  0  0  0  0  0  0  0  0
    1.8055   -1.0366    0.6947 H   0  0  0  0  0  0  0  0  0  0  0  0
    1.7154    1.7106   -0.6907 H   0  0  0  0  0  0  0  0  0  0  0  0
    1.1366    0.1954   -1.4079 H   0  0  0  0  0  0  0  0  0  0  0  0
   -0.1232   -1.2119    0.0563 H   0  0  0  0  0  0  0  0  0  0  0  0
   -2.1480    0.3531    1.9499 H   0  0  0  0  0  0  0  0  0  0  0  0
   -1.8964   -1.4632    1.7807 H   0  0  0  0  0  0  0  0  0  0  0  0
   -3.2445    0.7989   -1.5726 H   0  0  0  0  0  0  0  0  0  0  0  0
   -3.6067    1.1723    0.1475 H   0  0  0  0  0  0  0  0  0  0  0  0
   -2.1175    1.8132   -0.6529 H   0  0  0  0  0  0  0  0  0  0  0  0
   -2.5633   -2.2579   -0.1585 H   0  0  0  0  0  0  0  0  0  0  0  0
  1  2  1  0
  2  3  1  0
  3  4  1  0
  4  5  1  0
  5  6  1  0
  6  7  1  0
  7  8  1  0
  7  9  1  0
  7  5  1  0
  1 10  1  0
  1 11  1  0
  1 12  1  0
  2 13  1  0
  2 14  1  0
  3 15  1  0
  3 16  1  0
  5 17  1  0
  6 18  1  0
  6 19  1  0
  8 20  1  0
  8 21  1  0
  8 22  1  0
  9 23  1  0
M  END
