
     RDKit          3D

 25 24  0  0  0  0  0  0  0  0999 V2000
    3.1021    0.5998    0.1310 C   0  0  0  0  0  0  0  0  0  0  0  0
    2.7021   -0.8444    0.0516 C   0  0  0  0  0  0  0  0  0  0  0  0
    1.4366   -1.0063   -0.8007 C   0  0  0  0  0  0  0  0  0  0  0  0
    0.4467   -0.2751   -0.1970 O   0  0  0  0  0  0  0  0  0  0  0  0
   -0.7656   -0.3157   -0.8440 C   0  0  0  0  0  0  0  0  0  0  0  0
   -1.7310    0.5529   -0.0246 C   0  0  0  0  0  0  0  0  0  0  0  0
   -1.7069   -0.0145    1.3737 C   0  0  0  0  0  0  0  0  0  0  0  0
   -3.1074    0.5095   -0.6394 C   0  0  0  0  0  0  0  0  0  0  0  0
   -1.1938    1.8294   -0.0019 O   0  0  0  0  0  0  0  0  0  0  0  0
    2.1927    1.1987   -0.1479 H   0  0  0  0  0  0  0  0  0  0  0  0
    3.3418    0.8866    1.1762 H   0  0  0  0  0  0  0  0  0  0  0  0
    3.9641    0.8565   -0.5207 H   0  0  0  0  0  0  0  0  0  0  0  0
    2.4988   -1.2043    1.0806 H   0  0  0  0  0  0  0  0  0  0  0  0
    3.5295   -1.4752   -0.3534 H   0  0  0  0  0  0  0  0  0  0  0  0
    1.1502   -2.0910   -0.7207 H   0  0  0  0  0  0  0  0  0  0  0  0
    1.6281   -0.7812   -1.8472 H   0  0  0  0  0  0  0  0  0  0  0  0
   -1.2309   -1.3382   -0.8359 H   0  0  0  0  0  0  0  0  0  0  0  0
   -0.7413    0.0345   -1.8894 H   0  0  0  0  0  0  0  0  0  0  0  0
   -2.5518    0.3194    1.9946 H   0  0  0  0  0  0  0  0  0  0  0  0
   -0.7137    0.2396    1.8089 H   0  0  0  0  0  0  0  0  0  0  0  0
   -1.7246   -1.1391    1.2828 H   0  0  0  0  0  0  0  0  0  0  0  0
   -3.3739   -0.5498   -0.7847 H   0  0  0  0  0  0  0  0  0  0  0  0
   -3.0495    1.0646   -1.5975 H   0  0  0  0  0  0  0  0  0  0  0  0
   -3.7898    1.0523    0.0237 H   0  0  0  0  0  0  0  0  0  0  0  0
   -0.3125    1.8908   -0.4451 H   0  0  0  0  0  0  0  0  0  0  0  0
  1  2  1  0
  2  3  1  0
  3  4  1  0
  4  5  1  0
  5  6  1  0
  6  7  1  0
  6  8  1  0
  6  9  1  0
  1 10  1  0
  1 11  1  0
  1 12  1  0
  2 13  1  0
  2 14  1  0
  3 15  1  0
  3 16  1  0
  5 17  1  0
  5 18  1  0
  7 19  1  0
  7 20  1  0
  7 21  1  0
  8 22  1  0
  8 23  1  0
  8 24  1  0
  9 25  1  0
M  END
