
     RDKit          3D

 23 23  0  0  0  0  0  0  0  0999 V2000
   -3.0759    0.3566    0.6745 C   0  0  0  0  0  0  0  0  0  0  0  0
   -1.5605    0.3102    0.6879 C   0  0  0  0  0  0  0  0  0  0  0  0
   -1.0956    0.5185   -0.7275 C   0  0  0  0  0  0  0  0  0  0  0  0
    0.2643    0.5025   -0.8788 O   0  0  0  0  0  0  0  0  0  0  0  0
    0.8900   -0.6504   -0.5068 C   0  0  0  0  0  0  0  0  0  0  0  0
    1.7207   -1.2624   -1.6345 C   0  0  0  0  0  0  0  0  0  0  0  0
    1.8820   -0.3258    0.6134 C   0  0  0  0  0  0  0  0  0  0  0  0
    1.9712    0.9921    1.1878 C   0  0  0  0  0  0  0  0  0  0  0  0
    2.9063    0.6414    0.2075 O   0  0  0  0  0  0  0  0  0  0  0  0
   -3.4455    1.2144    1.2589 H   0  0  0  0  0  0  0  0  0  0  0  0
   -3.4874    0.4692   -0.3482 H   0  0  0  0  0  0  0  0  0  0  0  0
   -3.5283   -0.5815    1.0776 H   0  0  0  0  0  0  0  0  0  0  0  0
   -1.1929    1.1370    1.3249 H   0  0  0  0  0  0  0  0  0  0  0  0
   -1.2753   -0.6620    1.1085 H   0  0  0  0  0  0  0  0  0  0  0  0
   -1.6236   -0.2199   -1.3806 H   0  0  0  0  0  0  0  0  0  0  0  0
   -1.4646    1.5151   -1.0548 H   0  0  0  0  0  0  0  0  0  0  0  0
    0.2476   -1.4418   -0.1274 H   0  0  0  0  0  0  0  0  0  0  0  0
    2.2463   -0.4419   -2.1371 H   0  0  0  0  0  0  0  0  0  0  0  0
    1.0996   -1.8221   -2.3454 H   0  0  0  0  0  0  0  0  0  0  0  0
    2.4580   -1.9797   -1.1919 H   0  0  0  0  0  0  0  0  0  0  0  0
    2.3945   -1.1697    1.1193 H   0  0  0  0  0  0  0  0  0  0  0  0
    1.2860    1.8069    0.8616 H   0  0  0  0  0  0  0  0  0  0  0  0
    2.3830    1.0933    2.2112 H   0  0  0  0  0  0  0  0  0  0  0  0
  1  2  1  0
  2  3  1  0
  3  4  1  0
  4  5  1  0
  5  6  1  0
  5  7  1  0
  7  8  1  0
  8  9  1  0
  9  7  1  0
  1 10  1  0
  1 11  1  0
  1 12  1  0
  2 13  1  0
  2 14  1  0
  3 15  1  0
  3 16  1  0
  5 17  1  0
  6 18  1  0
  6 19  1  0
  6 20  1  0
  7 21  1  0
  8 22  1  0
  8 23  1  0
M  END
