
     RDKit          3D

 21 20  0  0  0  0  0  0  0  0999 V2000
    3.0997   -0.6615    1.2141 C   0  0  0  0  0  0  0  0  0  0  0  0
    2.8609    0.4988    0.3067 C   0  0  0  0  0  0  0  0  0  0  0  0
    1.6055    0.3647   -0.5192 C   0  0  0  0  0  0  0  0  0  0  0  0
    0.4623    0.2557    0.2725 O   0  0  0  0  0  0  0  0  0  0  0  0
   -0.6157    0.1394   -0.5771 C   0  0  0  0  0  0  0  0  0  0  0  0
   -1.9082    0.0145    0.1583 C   0  0  0  0  0  0  0  0  0  0  0  0
   -1.8967    0.0263    1.4135 O   0  0  0  0  0  0  0  0  0  0  0  0
   -3.1212   -0.1140   -0.4758 O   0  0  0  0  0  0  0  0  0  0  0  0
   -4.3636   -0.2348    0.1446 C   0  0  0  0  0  0  0  0  0  0  0  0
    4.2134   -0.7612    1.3455 H   0  0  0  0  0  0  0  0  0  0  0  0
    2.7126   -0.4114    2.2201 H   0  0  0  0  0  0  0  0  0  0  0  0
    2.7120   -1.6225    0.8247 H   0  0  0  0  0  0  0  0  0  0  0  0
    2.8354    1.4414    0.8692 H   0  0  0  0  0  0  0  0  0  0  0  0
    3.7082    0.5637   -0.4068 H   0  0  0  0  0  0  0  0  0  0  0  0
    1.6621   -0.4252   -1.2743 H   0  0  0  0  0  0  0  0  0  0  0  0
    1.4935    1.3444   -1.0704 H   0  0  0  0  0  0  0  0  0  0  0  0
   -0.7084    1.0665   -1.1971 H   0  0  0  0  0  0  0  0  0  0  0  0
   -0.4742   -0.7225   -1.2555 H   0  0  0  0  0  0  0  0  0  0  0  0
   -4.6217    0.6020    0.8220 H   0  0  0  0  0  0  0  0  0  0  0  0
   -5.1394   -0.1932   -0.6752 H   0  0  0  0  0  0  0  0  0  0  0  0
   -4.5165   -1.1710    0.6972 H   0  0  0  0  0  0  0  0  0  0  0  0
  1  2  1  0
  2  3  1  0
  3  4  1  0
  4  5  1  0
  5  6  1  0
  6  7  2  0
  6  8  1  0
  8  9  1  0
  1 10  1  0
  1 11  1  0
  1 12  1  0
  2 13  1  0
  2 14  1  0
  3 15  1  0
  3 16  1  0
  5 17  1  0
  5 18  1  0
  9 19  1  0
  9 20  1  0
  9 21  1  0
M  END
