
     RDKit          3D

 23 23  0  0  0  0  0  0  0  0999 V2000
   -3.0458   -1.0017   -0.2550 C   0  0  0  0  0  0  0  0  0  0  0  0
   -2.7910    0.4770   -0.1909 C   0  0  0  0  0  0  0  0  0  0  0  0
   -1.4030    0.8225   -0.7461 C   0  0  0  0  0  0  0  0  0  0  0  0
   -0.4876    0.1554    0.0261 O   0  0  0  0  0  0  0  0  0  0  0  0
    0.8107    0.3123   -0.2815 C   0  0  0  0  0  0  0  0  0  0  0  0
    1.6437   -0.9337   -0.5060 C   0  0  0  0  0  0  0  0  0  0  0  0
    2.8298   -0.0947   -0.0066 C   0  0  0  0  0  0  0  0  0  0  0  0
    3.7050   -0.8113    0.7797 O   0  0  0  0  0  0  0  0  0  0  0  0
    1.7821    0.6970    0.7933 C   0  0  0  0  0  0  0  0  0  0  0  0
   -3.7727   -1.2600    0.5417 H   0  0  0  0  0  0  0  0  0  0  0  0
   -2.0788   -1.5427   -0.0723 H   0  0  0  0  0  0  0  0  0  0  0  0
   -3.4681   -1.3224   -1.2298 H   0  0  0  0  0  0  0  0  0  0  0  0
   -2.8703    0.7792    0.8742 H   0  0  0  0  0  0  0  0  0  0  0  0
   -3.5779    1.0444   -0.7410 H   0  0  0  0  0  0  0  0  0  0  0  0
   -1.3241    1.9279   -0.6761 H   0  0  0  0  0  0  0  0  0  0  0  0
   -1.4141    0.5314   -1.8058 H   0  0  0  0  0  0  0  0  0  0  0  0
    0.9454    0.9947   -1.1608 H   0  0  0  0  0  0  0  0  0  0  0  0
    1.7212   -1.2601   -1.5462 H   0  0  0  0  0  0  0  0  0  0  0  0
    1.4354   -1.7497    0.2260 H   0  0  0  0  0  0  0  0  0  0  0  0
    3.2470    0.4687   -0.8484 H   0  0  0  0  0  0  0  0  0  0  0  0
    4.4202   -0.2143    1.0708 H   0  0  0  0  0  0  0  0  0  0  0  0
    1.6617    0.2025    1.7683 H   0  0  0  0  0  0  0  0  0  0  0  0
    2.0312    1.7776    0.8127 H   0  0  0  0  0  0  0  0  0  0  0  0
  1  2  1  0
  2  3  1  0
  3  4  1  0
  4  5  1  0
  5  6  1  0
  6  7  1  0
  7  8  1  0
  7  9  1  0
  9  5  1  0
  1 10  1  0
  1 11  1  0
  1 12  1  0
  2 13  1  0
  2 14  1  0
  3 15  1  0
  3 16  1  0
  5 17  1  0
  6 18  1  0
  6 19  1  0
  7 20  1  0
  8 21  1  0
  9 22  1  0
  9 23  1  0
M  END
