
     RDKit          3D

 23 23  0  0  0  0  0  0  0  0999 V2000
    2.3997   -1.0529    0.3429 C   0  0  0  0  0  0  0  0  0  0  0  0
    2.2060    0.3668   -0.1153 C   0  0  0  0  0  0  0  0  0  0  0  0
    1.2958    1.1574    0.7967 C   0  0  0  0  0  0  0  0  0  0  0  0
    0.0374    0.6215    0.8951 O   0  0  0  0  0  0  0  0  0  0  0  0
   -0.6437    0.5390   -0.2925 C   0  0  0  0  0  0  0  0  0  0  0  0
   -2.0896    0.9555   -0.1393 C   0  0  0  0  0  0  0  0  0  0  0  0
   -2.3304   -0.4431    0.4073 C   0  0  0  0  0  0  0  0  0  0  0  0
   -1.1940   -0.8551   -0.5357 C   0  0  0  0  0  0  0  0  0  0  0  0
   -1.6617   -0.9429   -1.8392 O   0  0  0  0  0  0  0  0  0  0  0  0
    2.1505   -1.1205    1.4330 H   0  0  0  0  0  0  0  0  0  0  0  0
    1.8101   -1.7887   -0.2376 H   0  0  0  0  0  0  0  0  0  0  0  0
    3.4640   -1.3732    0.2622 H   0  0  0  0  0  0  0  0  0  0  0  0
    3.2057    0.8393   -0.1898 H   0  0  0  0  0  0  0  0  0  0  0  0
    1.8165    0.3184   -1.1579 H   0  0  0  0  0  0  0  0  0  0  0  0
    1.7612    1.1262    1.8084 H   0  0  0  0  0  0  0  0  0  0  0  0
    1.3263    2.2055    0.4628 H   0  0  0  0  0  0  0  0  0  0  0  0
   -0.1384    0.8994   -1.2007 H   0  0  0  0  0  0  0  0  0  0  0  0
   -2.5963    1.0143   -1.1304 H   0  0  0  0  0  0  0  0  0  0  0  0
   -2.2923    1.7647    0.5563 H   0  0  0  0  0  0  0  0  0  0  0  0
   -3.3125   -0.8382    0.1505 H   0  0  0  0  0  0  0  0  0  0  0  0
   -2.0031   -0.5495    1.4616 H   0  0  0  0  0  0  0  0  0  0  0  0
   -0.5868   -1.6841   -0.1783 H   0  0  0  0  0  0  0  0  0  0  0  0
   -2.6243   -1.1599   -1.8869 H   0  0  0  0  0  0  0  0  0  0  0  0
  1  2  1  0
  2  3  1  0
  3  4  1  0
  4  5  1  0
  5  6  1  0
  6  7  1  0
  7  8  1  0
  8  9  1  0
  8  5  1  0
  1 10  1  0
  1 11  1  0
  1 12  1  0
  2 13  1  0
  2 14  1  0
  3 15  1  0
  3 16  1  0
  5 17  1  0
  6 18  1  0
  6 19  1  0
  7 20  1  0
  7 21  1  0
  8 22  1  0
  9 23  1  0
M  END
