
     RDKit          3D

 23 23  0  0  0  0  0  0  0  0999 V2000
    3.3819   -0.9919    0.3126 C   0  0  0  0  0  0  0  0  0  0  0  0
    2.4177    0.0818   -0.1720 C   0  0  0  0  0  0  0  0  0  0  0  0
    0.9820   -0.3015    0.1270 C   0  0  0  0  0  0  0  0  0  0  0  0
    0.1903    0.7108   -0.3375 O   0  0  0  0  0  0  0  0  0  0  0  0
   -1.1561    0.5869   -0.1624 C   0  0  0  0  0  0  0  0  0  0  0  0
   -1.9600    1.7679   -0.7018 C   0  0  0  0  0  0  0  0  0  0  0  0
   -1.7564   -0.7710   -0.5156 C   0  0  0  0  0  0  0  0  0  0  0  0
   -1.7569   -0.2387    0.9081 C   0  0  0  0  0  0  0  0  0  0  0  0
   -2.9779    0.2130    1.4038 O   0  0  0  0  0  0  0  0  0  0  0  0
    4.3982   -0.5523    0.2420 H   0  0  0  0  0  0  0  0  0  0  0  0
    3.1443   -1.3357    1.3361 H   0  0  0  0  0  0  0  0  0  0  0  0
    3.3542   -1.8227   -0.4234 H   0  0  0  0  0  0  0  0  0  0  0  0
    2.7147    1.0389    0.2835 H   0  0  0  0  0  0  0  0  0  0  0  0
    2.5855    0.1682   -1.2644 H   0  0  0  0  0  0  0  0  0  0  0  0
    0.8130   -1.2376   -0.4802 H   0  0  0  0  0  0  0  0  0  0  0  0
    0.8317   -0.5891    1.1740 H   0  0  0  0  0  0  0  0  0  0  0  0
   -2.5911    2.2277    0.0804 H   0  0  0  0  0  0  0  0  0  0  0  0
   -1.3080    2.5690   -1.0932 H   0  0  0  0  0  0  0  0  0  0  0  0
   -2.6050    1.4285   -1.5374 H   0  0  0  0  0  0  0  0  0  0  0  0
   -1.1363   -1.6339   -0.7226 H   0  0  0  0  0  0  0  0  0  0  0  0
   -2.7426   -0.7774   -1.0502 H   0  0  0  0  0  0  0  0  0  0  0  0
   -1.1596   -0.7931    1.6349 H   0  0  0  0  0  0  0  0  0  0  0  0
   -3.6633    0.2523    0.6778 H   0  0  0  0  0  0  0  0  0  0  0  0
  1  2  1  0
  2  3  1  0
  3  4  1  0
  4  5  1  0
  5  6  1  0
  5  7  1  0
  7  8  1  0
  8  9  1  0
  8  5  1  0
  1 10  1  0
  1 11  1  0
  1 12  1  0
  2 13  1  0
  2 14  1  0
  3 15  1  0
  3 16  1  0
  6 17  1  0
  6 18  1  0
  6 19  1  0
  7 20  1  0
  7 21  1  0
  8 22  1  0
  9 23  1  0
M  END
