
     RDKit          3D

 23 22  0  0  0  0  0  0  0  0999 V2000
   -3.7007    0.2530   -0.1260 C   0  0  0  0  0  0  0  0  0  0  0  0
   -2.2203   -0.0693   -0.2089 C   0  0  0  0  0  0  0  0  0  0  0  0
   -1.6252   -0.1698    1.1614 C   0  0  0  0  0  0  0  0  0  0  0  0
   -0.2594   -0.4662    1.1713 O   0  0  0  0  0  0  0  0  0  0  0  0
    0.7192    0.3246    0.5905 C   0  0  0  0  0  0  0  0  0  0  0  0
    0.3076    1.3745    0.0254 O   0  0  0  0  0  0  0  0  0  0  0  0
    2.1632   -0.0184    0.6175 C   0  0  0  0  0  0  0  0  0  0  0  0
    2.9268    1.0677   -0.1101 C   0  0  0  0  0  0  0  0  0  0  0  0
    2.4223   -1.3678   -0.0321 C   0  0  0  0  0  0  0  0  0  0  0  0
   -4.1212    0.4681   -1.1146 H   0  0  0  0  0  0  0  0  0  0  0  0
   -4.2826   -0.6051    0.2860 H   0  0  0  0  0  0  0  0  0  0  0  0
   -3.8873    1.1371    0.5454 H   0  0  0  0  0  0  0  0  0  0  0  0
   -1.7354    0.6747   -0.8452 H   0  0  0  0  0  0  0  0  0  0  0  0
   -2.1681   -1.0724   -0.7264 H   0  0  0  0  0  0  0  0  0  0  0  0
   -2.1422   -1.0067    1.6976 H   0  0  0  0  0  0  0  0  0  0  0  0
   -1.8833    0.7555    1.7102 H   0  0  0  0  0  0  0  0  0  0  0  0
    2.5699   -0.0692    1.6477 H   0  0  0  0  0  0  0  0  0  0  0  0
    2.7780    2.0121    0.4569 H   0  0  0  0  0  0  0  0  0  0  0  0
    4.0091    0.7935   -0.0542 H   0  0  0  0  0  0  0  0  0  0  0  0
    2.6461    1.1506   -1.1664 H   0  0  0  0  0  0  0  0  0  0  0  0
    3.4462   -1.4232   -0.4639 H   0  0  0  0  0  0  0  0  0  0  0  0
    1.7276   -1.5500   -0.8846 H   0  0  0  0  0  0  0  0  0  0  0  0
    2.3096   -2.1934    0.7137 H   0  0  0  0  0  0  0  0  0  0  0  0
  1  2  1  0
  2  3  1  0
  3  4  1  0
  4  5  1  0
  5  6  2  0
  5  7  1  0
  7  8  1  0
  7  9  1  0
  1 10  1  0
  1 11  1  0
  1 12  1  0
  2 13  1  0
  2 14  1  0
  3 15  1  0
  3 16  1  0
  7 17  1  0
  8 18  1  0
  8 19  1  0
  8 20  1  0
  9 21  1  0
  9 22  1  0
  9 23  1  0
M  END
