
     RDKit          3D

 21 20  0  0  0  0  0  0  0  0999 V2000
   -2.5006   -0.2317    2.0845 C   0  0  0  0  0  0  0  0  0  0  0  0
   -2.1282   -1.0352    0.8662 C   0  0  0  0  0  0  0  0  0  0  0  0
   -1.2278   -0.1829   -0.0273 C   0  0  0  0  0  0  0  0  0  0  0  0
   -0.8751   -0.9226   -1.1655 O   0  0  0  0  0  0  0  0  0  0  0  0
   -0.0509   -0.0894   -1.9442 C   0  0  0  0  0  0  0  0  0  0  0  0
    1.1119    0.2392   -1.1103 C   0  0  0  0  0  0  0  0  0  0  0  0
    2.0777    0.4936   -0.4345 C   0  0  0  0  0  0  0  0  0  0  0  0
    3.2772    0.7863    0.3856 C   0  0  0  0  0  0  0  0  0  0  0  0
    4.4379    0.6252   -0.3739 O   0  0  0  0  0  0  0  0  0  0  0  0
   -3.3637   -0.7256    2.5657 H   0  0  0  0  0  0  0  0  0  0  0  0
   -1.5934   -0.2435    2.7552 H   0  0  0  0  0  0  0  0  0  0  0  0
   -2.7255    0.8012    1.7507 H   0  0  0  0  0  0  0  0  0  0  0  0
   -1.5538   -1.9517    1.1248 H   0  0  0  0  0  0  0  0  0  0  0  0
   -3.0578   -1.3142    0.3443 H   0  0  0  0  0  0  0  0  0  0  0  0
   -0.3419    0.1099    0.5472 H   0  0  0  0  0  0  0  0  0  0  0  0
   -1.7701    0.7491   -0.3247 H   0  0  0  0  0  0  0  0  0  0  0  0
   -0.5805    0.8360   -2.2510 H   0  0  0  0  0  0  0  0  0  0  0  0
    0.2528   -0.6814   -2.8420 H   0  0  0  0  0  0  0  0  0  0  0  0
    3.2231    1.8616    0.7117 H   0  0  0  0  0  0  0  0  0  0  0  0
    3.2425    0.1179    1.2559 H   0  0  0  0  0  0  0  0  0  0  0  0
    4.1464    0.7584   -1.3286 H   0  0  0  0  0  0  0  0  0  0  0  0
  1  2  1  0
  2  3  1  0
  3  4  1  0
  4  5  1  0
  5  6  1  0
  6  7  3  0
  7  8  1  0
  8  9  1  0
  1 10  1  0
  1 11  1  0
  1 12  1  0
  2 13  1  0
  2 14  1  0
  3 15  1  0
  3 16  1  0
  5 17  1  0
  5 18  1  0
  8 19  1  0
  8 20  1  0
  9 21  1  0
M  END
