
     RDKit          3D

 22 21  0  0  0  0  0  0  0  0999 V2000
   -3.0192    0.5443   -0.4596 C   0  0  0  0  0  0  0  0  0  0  0  0
   -1.9781   -0.4141   -1.0200 C   0  0  0  0  0  0  0  0  0  0  0  0
   -0.8669   -0.6559   -0.0010 C   0  0  0  0  0  0  0  0  0  0  0  0
   -0.2954    0.5520    0.2655 O   0  0  0  0  0  0  0  0  0  0  0  0
    0.7139    0.6125    1.1721 C   0  0  0  0  0  0  0  0  0  0  0  0
    1.9358   -0.2065    0.8488 C   0  0  0  0  0  0  0  0  0  0  0  0
    2.5709    0.3451   -0.4261 C   0  0  0  0  0  0  0  0  0  0  0  0
    1.7187   -1.5603    0.7477 O   0  0  0  0  0  0  0  0  0  0  0  0
   -3.6199    0.8851   -1.3375 H   0  0  0  0  0  0  0  0  0  0  0  0
   -2.5155    1.4285   -0.0135 H   0  0  0  0  0  0  0  0  0  0  0  0
   -3.7074    0.0382    0.2522 H   0  0  0  0  0  0  0  0  0  0  0  0
   -1.5752    0.0463   -1.9417 H   0  0  0  0  0  0  0  0  0  0  0  0
   -2.5050   -1.3452   -1.2870 H   0  0  0  0  0  0  0  0  0  0  0  0
   -1.2307   -1.2276    0.8482 H   0  0  0  0  0  0  0  0  0  0  0  0
   -0.1162   -1.2744   -0.5803 H   0  0  0  0  0  0  0  0  0  0  0  0
    1.0728    1.6877    1.1690 H   0  0  0  0  0  0  0  0  0  0  0  0
    0.3916    0.4447    2.2242 H   0  0  0  0  0  0  0  0  0  0  0  0
    2.6596   -0.0167    1.6934 H   0  0  0  0  0  0  0  0  0  0  0  0
    3.6704    0.1093   -0.3846 H   0  0  0  0  0  0  0  0  0  0  0  0
    2.0875   -0.1109   -1.3082 H   0  0  0  0  0  0  0  0  0  0  0  0
    2.3823    1.4390   -0.4302 H   0  0  0  0  0  0  0  0  0  0  0  0
    2.2259   -1.8997   -0.0315 H   0  0  0  0  0  0  0  0  0  0  0  0
  1  2  1  0
  2  3  1  0
  3  4  1  0
  4  5  1  0
  5  6  1  0
  6  7  1  0
  6  8  1  0
  1  9  1  0
  1 10  1  0
  1 11  1  0
  2 12  1  0
  2 13  1  0
  3 14  1  0
  3 15  1  0
  5 16  1  0
  5 17  1  0
  6 18  1  0
  7 19  1  0
  7 20  1  0
  7 21  1  0
  8 22  1  0
M  END
