
     RDKit          3D

 19 19  0  0  0  0  0  0  0  0999 V2000
    2.4818   -0.7547    0.2834 C   0  0  0  0  0  0  0  0  0  0  0  0
    2.0549    0.5438   -0.3504 C   0  0  0  0  0  0  0  0  0  0  0  0
    0.6292    0.5206   -0.8190 C   0  0  0  0  0  0  0  0  0  0  0  0
   -0.2300    0.2762    0.2746 O   0  0  0  0  0  0  0  0  0  0  0  0
   -1.5484    0.2468   -0.1116 C   0  0  0  0  0  0  0  0  0  0  0  0
   -2.2769   -0.9970    0.4157 C   0  0  0  0  0  0  0  0  0  0  0  0
   -2.3963   -0.2269    1.6197 O   0  0  0  0  0  0  0  0  0  0  0  0
   -2.5023    0.8803    0.8113 C   0  0  0  0  0  0  0  0  0  0  0  0
   -3.1396    1.9360    0.8721 O   0  0  0  0  0  0  0  0  0  0  0  0
    3.3270   -0.5124    0.9882 H   0  0  0  0  0  0  0  0  0  0  0  0
    1.6819   -1.2067    0.9170 H   0  0  0  0  0  0  0  0  0  0  0  0
    2.8666   -1.4859   -0.4409 H   0  0  0  0  0  0  0  0  0  0  0  0
    2.7101    0.7159   -1.2278 H   0  0  0  0  0  0  0  0  0  0  0  0
    2.1736    1.3982    0.3298 H   0  0  0  0  0  0  0  0  0  0  0  0
    0.4174    1.5120   -1.2734 H   0  0  0  0  0  0  0  0  0  0  0  0
    0.4180   -0.2888   -1.5453 H   0  0  0  0  0  0  0  0  0  0  0  0
   -1.7300    0.4149   -1.1920 H   0  0  0  0  0  0  0  0  0  0  0  0
   -1.6648   -1.8913    0.4937 H   0  0  0  0  0  0  0  0  0  0  0  0
   -3.2723   -1.0810   -0.0453 H   0  0  0  0  0  0  0  0  0  0  0  0
  1  2  1  0
  2  3  1  0
  3  4  1  0
  4  5  1  0
  5  6  1  0
  6  7  1  0
  7  8  1  0
  8  9  2  0
  8  5  1  0
  1 10  1  0
  1 11  1  0
  1 12  1  0
  2 13  1  0
  2 14  1  0
  3 15  1  0
  3 16  1  0
  5 17  1  0
  6 18  1  0
  6 19  1  0
M  END
