
     RDKit          3D

 27 26  0  0  0  0  0  0  0  0999 V2000
    3.3853    0.5392   -0.4716 C   0  0  0  0  0  0  0  0  0  0  0  0
    2.4068   -0.0756   -1.4599 C   0  0  0  0  0  0  0  0  0  0  0  0
    1.0890    0.0521   -1.0074 O   0  0  0  0  0  0  0  0  0  0  0  0
    0.9953   -0.6092    0.2165 C   0  0  0  0  0  0  0  0  0  0  0  0
   -0.4776   -0.4497    0.6924 C   0  0  0  0  0  0  0  0  0  0  0  0
   -1.2908   -1.0920   -0.3883 C   0  0  0  0  0  0  0  0  0  0  0  0
   -2.7543   -1.1184   -0.2287 C   0  0  0  0  0  0  0  0  0  0  0  0
   -0.6696    1.0455    0.8010 C   0  0  0  0  0  0  0  0  0  0  0  0
   -2.0196    1.4638    1.2647 C   0  0  0  0  0  0  0  0  0  0  0  0
    3.6985   -0.2257    0.2857 H   0  0  0  0  0  0  0  0  0  0  0  0
    2.9116    1.3583    0.0596 H   0  0  0  0  0  0  0  0  0  0  0  0
    4.2986    0.9135   -0.9844 H   0  0  0  0  0  0  0  0  0  0  0  0
    2.6318   -1.1534   -1.6015 H   0  0  0  0  0  0  0  0  0  0  0  0
    2.5150    0.3990   -2.4697 H   0  0  0  0  0  0  0  0  0  0  0  0
    1.6750   -0.1341    0.9243 H   0  0  0  0  0  0  0  0  0  0  0  0
    1.1493   -1.6755    0.0426 H   0  0  0  0  0  0  0  0  0  0  0  0
   -0.5142   -0.9650    1.6623 H   0  0  0  0  0  0  0  0  0  0  0  0
   -0.9394   -2.1478   -0.5895 H   0  0  0  0  0  0  0  0  0  0  0  0
   -1.0430   -0.5681   -1.3583 H   0  0  0  0  0  0  0  0  0  0  0  0
   -3.1742   -0.9027    0.7506 H   0  0  0  0  0  0  0  0  0  0  0  0
   -3.1756   -2.1200   -0.5718 H   0  0  0  0  0  0  0  0  0  0  0  0
   -3.2424   -0.4072   -0.9604 H   0  0  0  0  0  0  0  0  0  0  0  0
    0.1097    1.5005    1.4805 H   0  0  0  0  0  0  0  0  0  0  0  0
   -0.4067    1.5005   -0.2021 H   0  0  0  0  0  0  0  0  0  0  0  0
   -1.9874    2.5608    1.5591 H   0  0  0  0  0  0  0  0  0  0  0  0
   -2.7549    1.4324    0.4497 H   0  0  0  0  0  0  0  0  0  0  0  0
   -2.4161    0.8787    2.1043 H   0  0  0  0  0  0  0  0  0  0  0  0
  1  2  1  0
  2  3  1  0
  3  4  1  0
  4  5  1  0
  5  6  1  0
  6  7  1  0
  5  8  1  0
  8  9  1  0
  1 10  1  0
  1 11  1  0
  1 12  1  0
  2 13  1  0
  2 14  1  0
  4 15  1  0
  4 16  1  0
  5 17  1  0
  6 18  1  0
  6 19  1  0
  7 20  1  0
  7 21  1  0
  7 22  1  0
  8 23  1  0
  8 24  1  0
  9 25  1  0
  9 26  1  0
  9 27  1  0
M  END
