
     RDKit          3D

 23 22  0  0  0  0  0  0  0  0999 V2000
    2.6760    0.9245    0.1310 C   0  0  0  0  0  0  0  0  0  0  0  0
    1.4816    0.0327    0.5218 C   0  0  0  0  0  0  0  0  0  0  0  0
    0.5693    0.1728   -0.4844 O   0  0  0  0  0  0  0  0  0  0  0  0
   -0.6053   -0.4943   -0.3935 C   0  0  0  0  0  0  0  0  0  0  0  0
   -1.3141   -0.2046   -1.7549 C   0  0  0  0  0  0  0  0  0  0  0  0
   -0.5411   -1.9790   -0.2875 C   0  0  0  0  0  0  0  0  0  0  0  0
   -1.4828    0.1489    0.6264 C   0  0  0  0  0  0  0  0  0  0  0  0
   -1.0587    1.4221    1.2483 C   0  0  0  0  0  0  0  0  0  0  0  0
   -2.5490   -0.3394    0.9666 O   0  0  0  0  0  0  0  0  0  0  0  0
    3.5812    0.6019    0.6675 H   0  0  0  0  0  0  0  0  0  0  0  0
    2.3671    1.9587    0.3442 H   0  0  0  0  0  0  0  0  0  0  0  0
    2.8052    0.7860   -0.9599 H   0  0  0  0  0  0  0  0  0  0  0  0
    1.1751    0.2576    1.5347 H   0  0  0  0  0  0  0  0  0  0  0  0
    1.8574   -1.0328    0.4859 H   0  0  0  0  0  0  0  0  0  0  0  0
   -0.5232   -0.3760   -2.5106 H   0  0  0  0  0  0  0  0  0  0  0  0
   -1.5999    0.8465   -1.7120 H   0  0  0  0  0  0  0  0  0  0  0  0
   -2.1623   -0.9117   -1.8634 H   0  0  0  0  0  0  0  0  0  0  0  0
    0.1425   -2.3562   -1.0473 H   0  0  0  0  0  0  0  0  0  0  0  0
   -0.2195   -2.3443    0.7051 H   0  0  0  0  0  0  0  0  0  0  0  0
   -1.5884   -2.3649   -0.4596 H   0  0  0  0  0  0  0  0  0  0  0  0
   -0.2561    1.8934    0.6594 H   0  0  0  0  0  0  0  0  0  0  0  0
   -1.9812    2.0589    1.2695 H   0  0  0  0  0  0  0  0  0  0  0  0
   -0.7736    1.2993    2.3127 H   0  0  0  0  0  0  0  0  0  0  0  0
  1  2  1  0
  2  3  1  0
  3  4  1  0
  4  5  1  0
  4  6  1  0
  4  7  1  0
  7  8  1  0
  7  9  2  0
  1 10  1  0
  1 11  1  0
  1 12  1  0
  2 13  1  0
  2 14  1  0
  5 15  1  0
  5 16  1  0
  5 17  1  0
  6 18  1  0
  6 19  1  0
  6 20  1  0
  8 21  1  0
  8 22  1  0
  8 23  1  0
M  END
