
     RDKit          3D

 19 20  0  0  0  0  0  0  0  0999 V2000
    2.5179   -0.1944    0.0625 C   0  0  0  0  0  0  0  0  0  0  0  0
    1.7552    1.0410    0.4467 C   0  0  0  0  0  0  0  0  0  0  0  0
    0.4531    0.7893    0.8374 O   0  0  0  0  0  0  0  0  0  0  0  0
   -0.3099    0.1840   -0.1501 C   0  0  0  0  0  0  0  0  0  0  0  0
   -1.4898    0.9814   -0.5327 C   0  0  0  0  0  0  0  0  0  0  0  0
   -2.5631    0.2278   -0.4533 C   0  0  0  0  0  0  0  0  0  0  0  0
   -2.2947   -1.1543   -0.0188 C   0  0  0  0  0  0  0  0  0  0  0  0
   -1.3867   -1.9600   -0.6901 O   0  0  0  0  0  0  0  0  0  0  0  0
   -0.8283   -1.1370    0.2856 C   0  0  0  0  0  0  0  0  0  0  0  0
    2.4410   -0.9944    0.8185 H   0  0  0  0  0  0  0  0  0  0  0  0
    3.6081    0.0995    0.0523 H   0  0  0  0  0  0  0  0  0  0  0  0
    2.3041   -0.5412   -0.9642 H   0  0  0  0  0  0  0  0  0  0  0  0
    1.8101    1.7711   -0.3695 H   0  0  0  0  0  0  0  0  0  0  0  0
    2.2748    1.4878    1.3207 H   0  0  0  0  0  0  0  0  0  0  0  0
    0.2726    0.0114   -1.0828 H   0  0  0  0  0  0  0  0  0  0  0  0
   -1.4832    2.0607   -0.8437 H   0  0  0  0  0  0  0  0  0  0  0  0
   -3.5952    0.5546   -0.6812 H   0  0  0  0  0  0  0  0  0  0  0  0
   -2.9876   -1.6278    0.7190 H   0  0  0  0  0  0  0  0  0  0  0  0
   -0.4985   -1.5995    1.2437 H   0  0  0  0  0  0  0  0  0  0  0  0
  1  2  1  0
  2  3  1  0
  3  4  1  0
  4  5  1  0
  5  6  2  0
  6  7  1  0
  7  8  1  0
  8  9  1  0
  9  4  1  0
  9  7  1  0
  1 10  1  0
  1 11  1  0
  1 12  1  0
  2 13  1  0
  2 14  1  0
  4 15  1  0
  5 16  1  0
  6 17  1  0
  7 18  1  0
  9 19  1  0
M  END
