
     RDKit          3D

 20 19  0  0  0  0  0  0  0  0999 V2000
    2.9794   -0.1926    0.4537 C   0  0  0  0  0  0  0  0  0  0  0  0
    2.2158   -0.0486   -0.8308 C   0  0  0  0  0  0  0  0  0  0  0  0
    0.8576   -0.4238   -0.7102 O   0  0  0  0  0  0  0  0  0  0  0  0
   -0.0306    0.1739    0.1464 C   0  0  0  0  0  0  0  0  0  0  0  0
    0.3297    1.1065    0.8830 O   0  0  0  0  0  0  0  0  0  0  0  0
   -1.4214   -0.2981    0.1888 C   0  0  0  0  0  0  0  0  0  0  0  0
   -2.0046   -0.1115   -1.2025 C   0  0  0  0  0  0  0  0  0  0  0  0
   -2.2446    0.3994    1.2458 C   0  0  0  0  0  0  0  0  0  0  0  0
    2.2563   -0.2675    1.2841 H   0  0  0  0  0  0  0  0  0  0  0  0
    3.7307    0.6221    0.6087 H   0  0  0  0  0  0  0  0  0  0  0  0
    3.5803   -1.1374    0.4544 H   0  0  0  0  0  0  0  0  0  0  0  0
    2.6613   -0.7647   -1.5813 H   0  0  0  0  0  0  0  0  0  0  0  0
    2.3132    0.9609   -1.2808 H   0  0  0  0  0  0  0  0  0  0  0  0
   -1.4863   -1.3866    0.4041 H   0  0  0  0  0  0  0  0  0  0  0  0
   -1.7579    0.9038   -1.5620 H   0  0  0  0  0  0  0  0  0  0  0  0
   -1.4704   -0.8280   -1.8631 H   0  0  0  0  0  0  0  0  0  0  0  0
   -3.0854   -0.2969   -1.1304 H   0  0  0  0  0  0  0  0  0  0  0  0
   -2.0583    1.4878    1.2955 H   0  0  0  0  0  0  0  0  0  0  0  0
   -2.0548   -0.1216    2.2107 H   0  0  0  0  0  0  0  0  0  0  0  0
   -3.3099    0.2231    0.9859 H   0  0  0  0  0  0  0  0  0  0  0  0
  1  2  1  0
  2  3  1  0
  3  4  1  0
  4  5  2  0
  4  6  1  0
  6  7  1  0
  6  8  1  0
  1  9  1  0
  1 10  1  0
  1 11  1  0
  2 12  1  0
  2 13  1  0
  6 14  1  0
  7 15  1  0
  7 16  1  0
  7 17  1  0
  8 18  1  0
  8 19  1  0
  8 20  1  0
M  END
