
     RDKit          3D

 25 25  0  0  0  0  0  0  0  0999 V2000
    3.5459    0.3090   -0.2965 C   0  0  0  0  0  0  0  0  0  0  0  0
    2.9730   -0.7704    0.6226 C   0  0  0  0  0  0  0  0  0  0  0  0
    1.6978   -1.1547    0.2252 O   0  0  0  0  0  0  0  0  0  0  0  0
    0.8771   -0.0535    0.2657 C   0  0  0  0  0  0  0  0  0  0  0  0
   -0.5383   -0.3361   -0.1437 C   0  0  0  0  0  0  0  0  0  0  0  0
   -1.4373    0.8974   -0.0933 C   0  0  0  0  0  0  0  0  0  0  0  0
   -2.2521    1.0994   -1.3456 C   0  0  0  0  0  0  0  0  0  0  0  0
   -1.6654   -0.2353    0.8156 C   0  0  0  0  0  0  0  0  0  0  0  0
   -2.9018   -1.0467    0.5962 C   0  0  0  0  0  0  0  0  0  0  0  0
    3.1914    1.3103   -0.0408 H   0  0  0  0  0  0  0  0  0  0  0  0
    4.6515    0.2779   -0.3242 H   0  0  0  0  0  0  0  0  0  0  0  0
    3.1760    0.0666   -1.3135 H   0  0  0  0  0  0  0  0  0  0  0  0
    3.6687   -1.6335    0.6989 H   0  0  0  0  0  0  0  0  0  0  0  0
    2.8625   -0.2917    1.6281 H   0  0  0  0  0  0  0  0  0  0  0  0
    1.2634    0.7450   -0.4080 H   0  0  0  0  0  0  0  0  0  0  0  0
    0.9387    0.3785    1.2996 H   0  0  0  0  0  0  0  0  0  0  0  0
   -0.6593   -1.0462   -0.9825 H   0  0  0  0  0  0  0  0  0  0  0  0
   -1.0527    1.8246    0.3436 H   0  0  0  0  0  0  0  0  0  0  0  0
   -3.2351    1.5259   -1.0598 H   0  0  0  0  0  0  0  0  0  0  0  0
   -2.3373    0.1832   -1.9563 H   0  0  0  0  0  0  0  0  0  0  0  0
   -1.6987    1.8423   -1.9673 H   0  0  0  0  0  0  0  0  0  0  0  0
   -1.3839   -0.1018    1.8827 H   0  0  0  0  0  0  0  0  0  0  0  0
   -3.6458   -0.5488   -0.0592 H   0  0  0  0  0  0  0  0  0  0  0  0
   -3.4264   -1.2589    1.5497 H   0  0  0  0  0  0  0  0  0  0  0  0
   -2.6119   -1.9826    0.0629 H   0  0  0  0  0  0  0  0  0  0  0  0
  1  2  1  0
  2  3  1  0
  3  4  1  0
  4  5  1  0
  5  6  1  0
  6  7  1  0
  6  8  1  0
  8  9  1  0
  8  5  1  0
  1 10  1  0
  1 11  1  0
  1 12  1  0
  2 13  1  0
  2 14  1  0
  4 15  1  0
  4 16  1  0
  5 17  1  0
  6 18  1  0
  7 19  1  0
  7 20  1  0
  7 21  1  0
  8 22  1  0
  9 23  1  0
  9 24  1  0
  9 25  1  0
M  END
