
     RDKit          3D

 21 21  0  0  0  0  0  0  0  0999 V2000
   -3.1023    0.7528    0.5302 C   0  0  0  0  0  0  0  0  0  0  0  0
   -2.0744   -0.0851   -0.1532 C   0  0  0  0  0  0  0  0  0  0  0  0
   -0.7742    0.3552    0.0631 O   0  0  0  0  0  0  0  0  0  0  0  0
    0.0925   -0.4732   -0.6010 C   0  0  0  0  0  0  0  0  0  0  0  0
    1.2303    0.1523   -1.3667 C   0  0  0  0  0  0  0  0  0  0  0  0
    1.4735   -0.7254   -0.1428 C   0  0  0  0  0  0  0  0  0  0  0  0
    2.0172   -1.9869   -0.3770 O   0  0  0  0  0  0  0  0  0  0  0  0
    2.0604    0.0173    1.0388 C   0  0  0  0  0  0  0  0  0  0  0  0
    1.4629    1.2656    1.2023 O   0  0  0  0  0  0  0  0  0  0  0  0
   -4.0008    0.8088   -0.1181 H   0  0  0  0  0  0  0  0  0  0  0  0
   -2.7635    1.7992    0.6992 H   0  0  0  0  0  0  0  0  0  0  0  0
   -3.4689    0.2822    1.4881 H   0  0  0  0  0  0  0  0  0  0  0  0
   -2.2199   -1.1390    0.1915 H   0  0  0  0  0  0  0  0  0  0  0  0
   -2.2915   -0.1184   -1.2578 H   0  0  0  0  0  0  0  0  0  0  0  0
   -0.3845   -1.3033   -1.1618 H   0  0  0  0  0  0  0  0  0  0  0  0
    1.5234   -0.2475   -2.3561 H   0  0  0  0  0  0  0  0  0  0  0  0
    1.3248    1.2515   -1.2599 H   0  0  0  0  0  0  0  0  0  0  0  0
    2.8330   -2.1210    0.1707 H   0  0  0  0  0  0  0  0  0  0  0  0
    2.0009   -0.5724    1.9749 H   0  0  0  0  0  0  0  0  0  0  0  0
    3.1388    0.1997    0.8517 H   0  0  0  0  0  0  0  0  0  0  0  0
    1.9225    1.8877    0.5838 H   0  0  0  0  0  0  0  0  0  0  0  0
  1  2  1  0
  2  3  1  0
  3  4  1  0
  4  5  1  0
  5  6  1  0
  6  7  1  0
  6  8  1  0
  8  9  1  0
  6  4  1  0
  1 10  1  0
  1 11  1  0
  1 12  1  0
  2 13  1  0
  2 14  1  0
  4 15  1  0
  5 16  1  0
  5 17  1  0
  7 18  1  0
  8 19  1  0
  8 20  1  0
  9 21  1  0
M  END
