
     RDKit          3D

 21 21  0  0  0  0  0  0  0  0999 V2000
   -3.3705    0.1414    0.7860 C   0  0  0  0  0  0  0  0  0  0  0  0
   -2.4863    1.2085    0.1654 C   0  0  0  0  0  0  0  0  0  0  0  0
   -1.4085    0.6566   -0.5524 O   0  0  0  0  0  0  0  0  0  0  0  0
   -0.4363   -0.1513   -0.0113 C   0  0  0  0  0  0  0  0  0  0  0  0
   -0.5055   -0.4241    1.2145 O   0  0  0  0  0  0  0  0  0  0  0  0
    0.6996   -0.7271   -0.7878 C   0  0  0  0  0  0  0  0  0  0  0  0
    1.9747    0.0213   -0.5925 C   0  0  0  0  0  0  0  0  0  0  0  0
    2.6066    0.1702    0.7395 C   0  0  0  0  0  0  0  0  0  0  0  0
    3.1683   -0.8567   -0.1787 C   0  0  0  0  0  0  0  0  0  0  0  0
   -3.4250   -0.7250    0.1098 H   0  0  0  0  0  0  0  0  0  0  0  0
   -3.0501   -0.1230    1.8166 H   0  0  0  0  0  0  0  0  0  0  0  0
   -4.4012    0.5777    0.8663 H   0  0  0  0  0  0  0  0  0  0  0  0
   -2.1596    1.9342    0.9351 H   0  0  0  0  0  0  0  0  0  0  0  0
   -3.1127    1.7720   -0.5571 H   0  0  0  0  0  0  0  0  0  0  0  0
    0.8089   -1.8132   -0.4930 H   0  0  0  0  0  0  0  0  0  0  0  0
    0.4872   -0.7581   -1.8773 H   0  0  0  0  0  0  0  0  0  0  0  0
    2.1827    0.7966   -1.3636 H   0  0  0  0  0  0  0  0  0  0  0  0
    2.1143   -0.1927    1.6483 H   0  0  0  0  0  0  0  0  0  0  0  0
    3.2258    1.0930    0.8694 H   0  0  0  0  0  0  0  0  0  0  0  0
    4.1104   -0.6906   -0.7287 H   0  0  0  0  0  0  0  0  0  0  0  0
    2.9771   -1.9096    0.0671 H   0  0  0  0  0  0  0  0  0  0  0  0
  1  2  1  0
  2  3  1  0
  3  4  1  0
  4  5  2  0
  4  6  1  0
  6  7  1  0
  7  8  1  0
  8  9  1  0
  9  7  1  0
  1 10  1  0
  1 11  1  0
  1 12  1  0
  2 13  1  0
  2 14  1  0
  6 15  1  0
  6 16  1  0
  7 17  1  0
  8 18  1  0
  8 19  1  0
  9 20  1  0
  9 21  1  0
M  END
