
     RDKit          3D

 19 18  0  0  0  0  0  0  0  0999 V2000
   -3.0771    0.3300   -0.5496 C   0  0  0  0  0  0  0  0  0  0  0  0
   -2.3575   -0.5939    0.3698 C   0  0  0  0  0  0  0  0  0  0  0  0
   -1.0647   -0.3296    0.6435 O   0  0  0  0  0  0  0  0  0  0  0  0
   -0.1548   -0.2894   -0.3354 C   0  0  0  0  0  0  0  0  0  0  0  0
    1.1716    0.0187    0.2418 C   0  0  0  0  0  0  0  0  0  0  0  0
    1.2529    0.1871    1.4779 O   0  0  0  0  0  0  0  0  0  0  0  0
    2.3167    0.1148   -0.6250 C   0  0  0  0  0  0  0  0  0  0  0  0
    3.6486    0.4280   -0.0147 C   0  0  0  0  0  0  0  0  0  0  0  0
    2.2170   -0.0555   -1.8496 O   0  0  0  0  0  0  0  0  0  0  0  0
   -4.1158   -0.0469   -0.6670 H   0  0  0  0  0  0  0  0  0  0  0  0
   -2.6534    0.4468   -1.5399 H   0  0  0  0  0  0  0  0  0  0  0  0
   -3.1890    1.3150   -0.0077 H   0  0  0  0  0  0  0  0  0  0  0  0
   -2.9226   -0.6237    1.3290 H   0  0  0  0  0  0  0  0  0  0  0  0
   -2.4406   -1.6248   -0.0527 H   0  0  0  0  0  0  0  0  0  0  0  0
   -0.1243   -1.2781   -0.8848 H   0  0  0  0  0  0  0  0  0  0  0  0
   -0.3225    0.4660   -1.1319 H   0  0  0  0  0  0  0  0  0  0  0  0
    3.6433    1.4978    0.2701 H   0  0  0  0  0  0  0  0  0  0  0  0
    4.4721    0.1826   -0.7128 H   0  0  0  0  0  0  0  0  0  0  0  0
    3.7002   -0.1449    0.9338 H   0  0  0  0  0  0  0  0  0  0  0  0
  1  2  1  0
  2  3  1  0
  3  4  1  0
  4  5  1  0
  5  6  2  0
  5  7  1  0
  7  8  1  0
  7  9  2  0
  1 10  1  0
  1 11  1  0
  1 12  1  0
  2 13  1  0
  2 14  1  0
  4 15  1  0
  4 16  1  0
  8 17  1  0
  8 18  1  0
  8 19  1  0
M  END
