
     RDKit          3D

 19 18  0  0  0  0  0  0  0  0999 V2000
    2.7423    0.1714   -0.1205 C   0  0  0  0  0  0  0  0  0  0  0  0
    1.4272    0.0993    0.6301 C   0  0  0  0  0  0  0  0  0  0  0  0
    0.4312   -0.1253   -0.3096 O   0  0  0  0  0  0  0  0  0  0  0  0
   -0.8329   -0.2148    0.2326 C   0  0  0  0  0  0  0  0  0  0  0  0
   -1.3967   -1.5762   -0.1286 C   0  0  0  0  0  0  0  0  0  0  0  0
   -1.7785    0.8296   -0.3465 C   0  0  0  0  0  0  0  0  0  0  0  0
   -1.3290    2.1203   -0.1102 O   0  0  0  0  0  0  0  0  0  0  0  0
    3.5579    0.5751    0.5132 H   0  0  0  0  0  0  0  0  0  0  0  0
    3.0256   -0.8847   -0.3446 H   0  0  0  0  0  0  0  0  0  0  0  0
    2.6551    0.6792   -1.0903 H   0  0  0  0  0  0  0  0  0  0  0  0
    1.2416    0.9977    1.2444 H   0  0  0  0  0  0  0  0  0  0  0  0
    1.4894   -0.7810    1.3024 H   0  0  0  0  0  0  0  0  0  0  0  0
   -0.8450   -0.0926    1.3295 H   0  0  0  0  0  0  0  0  0  0  0  0
   -0.6996   -2.3419    0.3142 H   0  0  0  0  0  0  0  0  0  0  0  0
   -1.4023   -1.6403   -1.2453 H   0  0  0  0  0  0  0  0  0  0  0  0
   -2.3939   -1.7490    0.3106 H   0  0  0  0  0  0  0  0  0  0  0  0
   -2.7439    0.7064    0.1905 H   0  0  0  0  0  0  0  0  0  0  0  0
   -1.9700    0.6424   -1.4233 H   0  0  0  0  0  0  0  0  0  0  0  0
   -1.1785    2.5845   -0.9487 H   0  0  0  0  0  0  0  0  0  0  0  0
  1  2  1  0
  2  3  1  0
  3  4  1  0
  4  5  1  0
  4  6  1  0
  6  7  1  0
  1  8  1  0
  1  9  1  0
  1 10  1  0
  2 11  1  0
  2 12  1  0
  4 13  1  0
  5 14  1  0
  5 15  1  0
  5 16  1  0
  6 17  1  0
  6 18  1  0
  7 19  1  0
M  END
