
     RDKit          3D

 20 20  0  0  0  0  0  0  0  0999 V2000
   -2.4144    1.1372    0.5658 C   0  0  0  0  0  0  0  0  0  0  0  0
   -2.3512   -0.3552    0.6726 C   0  0  0  0  0  0  0  0  0  0  0  0
   -1.0554   -0.8450    0.8100 O   0  0  0  0  0  0  0  0  0  0  0  0
   -0.2463   -0.5162   -0.2490 C   0  0  0  0  0  0  0  0  0  0  0  0
    0.6617   -1.6685   -0.7024 C   0  0  0  0  0  0  0  0  0  0  0  0
    1.2235   -0.4155   -0.1342 C   0  0  0  0  0  0  0  0  0  0  0  0
    1.8812    0.3997   -1.0531 O   0  0  0  0  0  0  0  0  0  0  0  0
    3.0430    0.9454   -0.5153 C   0  0  0  0  0  0  0  0  0  0  0  0
   -3.0553    1.5759    1.3829 H   0  0  0  0  0  0  0  0  0  0  0  0
   -2.8850    1.3899   -0.4158 H   0  0  0  0  0  0  0  0  0  0  0  0
   -1.4276    1.6359    0.6417 H   0  0  0  0  0  0  0  0  0  0  0  0
   -2.7794   -0.8644   -0.2318 H   0  0  0  0  0  0  0  0  0  0  0  0
   -2.9552   -0.7281    1.5257 H   0  0  0  0  0  0  0  0  0  0  0  0
   -0.7481    0.0828   -1.0405 H   0  0  0  0  0  0  0  0  0  0  0  0
    0.7231   -2.5641   -0.0717 H   0  0  0  0  0  0  0  0  0  0  0  0
    0.6186   -1.8608   -1.7830 H   0  0  0  0  0  0  0  0  0  0  0  0
    1.7342   -0.4825    0.8434 H   0  0  0  0  0  0  0  0  0  0  0  0
    2.7593    1.5439    0.3617 H   0  0  0  0  0  0  0  0  0  0  0  0
    3.5745    1.4977   -1.2955 H   0  0  0  0  0  0  0  0  0  0  0  0
    3.6989    0.0918   -0.1964 H   0  0  0  0  0  0  0  0  0  0  0  0
  1  2  1  0
  2  3  1  0
  3  4  1  0
  4  5  1  0
  5  6  1  0
  6  7  1  0
  7  8  1  0
  6  4  1  0
  1  9  1  0
  1 10  1  0
  1 11  1  0
  2 12  1  0
  2 13  1  0
  4 14  1  0
  5 15  1  0
  5 16  1  0
  6 17  1  0
  8 18  1  0
  8 19  1  0
  8 20  1  0
M  END
