
     RDKit          3D

 22 21  0  0  0  0  0  0  0  0999 V2000
   -3.4830   -0.3380   -0.2050 C   0  0  0  0  0  0  0  0  0  0  0  0
   -2.1499    0.3535   -0.1076 C   0  0  0  0  0  0  0  0  0  0  0  0
   -1.5485    0.5493   -1.3312 O   0  0  0  0  0  0  0  0  0  0  0  0
   -0.3240    1.1909   -1.2200 C   0  0  0  0  0  0  0  0  0  0  0  0
    0.6960    0.4782   -0.4065 C   0  0  0  0  0  0  0  0  0  0  0  0
    1.0206   -0.7798   -0.8916 O   0  0  0  0  0  0  0  0  0  0  0  0
    1.9797   -1.3281   -0.0388 C   0  0  0  0  0  0  0  0  0  0  0  0
    3.2124   -0.4194   -0.0283 C   0  0  0  0  0  0  0  0  0  0  0  0
   -4.3367    0.3531   -0.1053 H   0  0  0  0  0  0  0  0  0  0  0  0
   -3.5865   -1.1074    0.5876 H   0  0  0  0  0  0  0  0  0  0  0  0
   -3.6201   -0.8670   -1.1793 H   0  0  0  0  0  0  0  0  0  0  0  0
   -2.3072    1.3248    0.4020 H   0  0  0  0  0  0  0  0  0  0  0  0
   -1.4993   -0.2567    0.5615 H   0  0  0  0  0  0  0  0  0  0  0  0
   -0.5346    2.1660   -0.7003 H   0  0  0  0  0  0  0  0  0  0  0  0
    0.0427    1.4673   -2.2286 H   0  0  0  0  0  0  0  0  0  0  0  0
    0.4087    0.4339    0.6428 H   0  0  0  0  0  0  0  0  0  0  0  0
    1.6297    1.0882   -0.4497 H   0  0  0  0  0  0  0  0  0  0  0  0
    1.5998   -1.3641    1.0216 H   0  0  0  0  0  0  0  0  0  0  0  0
    2.2283   -2.3510   -0.3515 H   0  0  0  0  0  0  0  0  0  0  0  0
    3.3110    0.0790   -1.0159 H   0  0  0  0  0  0  0  0  0  0  0  0
    3.1261    0.3366    0.7559 H   0  0  0  0  0  0  0  0  0  0  0  0
    4.1348   -1.0094    0.1926 H   0  0  0  0  0  0  0  0  0  0  0  0
  1  2  1  0
  2  3  1  0
  3  4  1  0
  4  5  1  0
  5  6  1  0
  6  7  1  0
  7  8  1  0
  1  9  1  0
  1 10  1  0
  1 11  1  0
  2 12  1  0
  2 13  1  0
  4 14  1  0
  4 15  1  0
  5 16  1  0
  5 17  1  0
  7 18  1  0
  7 19  1  0
  8 20  1  0
  8 21  1  0
  8 22  1  0
M  END
