
     RDKit          3D

 23 23  0  0  0  0  0  0  0  0999 V2000
    2.9022    0.9621    0.7652 C   0  0  0  0  0  0  0  0  0  0  0  0
    1.8360    0.4326   -0.1697 C   0  0  0  0  0  0  0  0  0  0  0  0
    0.7971   -0.1757    0.5066 O   0  0  0  0  0  0  0  0  0  0  0  0
   -0.1200   -0.6227   -0.4424 C   0  0  0  0  0  0  0  0  0  0  0  0
   -0.6021   -2.0444   -0.1940 C   0  0  0  0  0  0  0  0  0  0  0  0
   -1.5874   -1.3967    0.7934 C   0  0  0  0  0  0  0  0  0  0  0  0
   -1.5490   -0.2133   -0.1429 C   0  0  0  0  0  0  0  0  0  0  0  0
   -1.6965    1.1360    0.4959 C   0  0  0  0  0  0  0  0  0  0  0  0
   -1.1430    2.0690   -0.4116 O   0  0  0  0  0  0  0  0  0  0  0  0
    3.0373    0.2339    1.6184 H   0  0  0  0  0  0  0  0  0  0  0  0
    2.6171    1.9462    1.1914 H   0  0  0  0  0  0  0  0  0  0  0  0
    3.8869    1.0438    0.2712 H   0  0  0  0  0  0  0  0  0  0  0  0
    1.4675    1.2766   -0.7583 H   0  0  0  0  0  0  0  0  0  0  0  0
    2.3128   -0.3355   -0.8099 H   0  0  0  0  0  0  0  0  0  0  0  0
    0.1565   -0.4100   -1.4961 H   0  0  0  0  0  0  0  0  0  0  0  0
   -1.0840   -2.4151   -1.1147 H   0  0  0  0  0  0  0  0  0  0  0  0
    0.1292   -2.7112    0.2794 H   0  0  0  0  0  0  0  0  0  0  0  0
   -2.5345   -1.9537    0.8196 H   0  0  0  0  0  0  0  0  0  0  0  0
   -1.0617   -1.2590    1.7519 H   0  0  0  0  0  0  0  0  0  0  0  0
   -2.1997   -0.4004   -1.0094 H   0  0  0  0  0  0  0  0  0  0  0  0
   -2.7240    1.4365    0.6803 H   0  0  0  0  0  0  0  0  0  0  0  0
   -1.0607    1.1970    1.4029 H   0  0  0  0  0  0  0  0  0  0  0  0
   -1.7798    2.2040   -1.1778 H   0  0  0  0  0  0  0  0  0  0  0  0
  1  2  1  0
  2  3  1  0
  3  4  1  0
  4  5  1  0
  5  6  1  0
  6  7  1  0
  7  8  1  0
  8  9  1  0
  7  4  1  0
  1 10  1  0
  1 11  1  0
  1 12  1  0
  2 13  1  0
  2 14  1  0
  4 15  1  0
  5 16  1  0
  5 17  1  0
  6 18  1  0
  6 19  1  0
  7 20  1  0
  8 21  1  0
  8 22  1  0
  9 23  1  0
M  END
