
     RDKit          3D

 21 21  0  0  0  0  0  0  0  0999 V2000
    3.0639    0.2961   -0.0969 C   0  0  0  0  0  0  0  0  0  0  0  0
    2.1801    0.7110    1.0655 C   0  0  0  0  0  0  0  0  0  0  0  0
    0.9503    0.0703    1.0301 O   0  0  0  0  0  0  0  0  0  0  0  0
    0.2243    0.3242   -0.1036 C   0  0  0  0  0  0  0  0  0  0  0  0
   -0.0677   -0.9867   -0.7517 C   0  0  0  0  0  0  0  0  0  0  0  0
   -1.3387   -1.3060   -0.5578 C   0  0  0  0  0  0  0  0  0  0  0  0
   -1.9154   -0.1915    0.2353 C   0  0  0  0  0  0  0  0  0  0  0  0
   -3.2959    0.1436   -0.2831 C   0  0  0  0  0  0  0  0  0  0  0  0
   -1.0382    0.8574    0.1584 O   0  0  0  0  0  0  0  0  0  0  0  0
    2.4606   -0.0708   -0.9625 H   0  0  0  0  0  0  0  0  0  0  0  0
    3.8209   -0.4734    0.2273 H   0  0  0  0  0  0  0  0  0  0  0  0
    3.6598    1.1779   -0.4144 H   0  0  0  0  0  0  0  0  0  0  0  0
    2.7244    0.4175    1.9865 H   0  0  0  0  0  0  0  0  0  0  0  0
    2.0980    1.8110    1.0834 H   0  0  0  0  0  0  0  0  0  0  0  0
    0.7159    0.9990   -0.8268 H   0  0  0  0  0  0  0  0  0  0  0  0
    0.6126   -1.6225   -1.3069 H   0  0  0  0  0  0  0  0  0  0  0  0
   -1.8730   -2.2007   -0.9025 H   0  0  0  0  0  0  0  0  0  0  0  0
   -2.0641   -0.5440    1.2964 H   0  0  0  0  0  0  0  0  0  0  0  0
   -3.6930    1.0627    0.1615 H   0  0  0  0  0  0  0  0  0  0  0  0
   -3.9325   -0.7426   -0.0819 H   0  0  0  0  0  0  0  0  0  0  0  0
   -3.2925    0.2676   -1.4037 H   0  0  0  0  0  0  0  0  0  0  0  0
  1  2  1  0
  2  3  1  0
  3  4  1  0
  4  5  1  0
  5  6  2  0
  6  7  1  0
  7  8  1  0
  7  9  1  0
  9  4  1  0
  1 10  1  0
  1 11  1  0
  1 12  1  0
  2 13  1  0
  2 14  1  0
  4 15  1  0
  5 16  1  0
  6 17  1  0
  7 18  1  0
  8 19  1  0
  8 20  1  0
  8 21  1  0
M  END
