
     RDKit          3D

 23 24  0  0  0  0  0  0  0  0999 V2000
   -3.6415    0.4871   -0.1133 C   0  0  0  0  0  0  0  0  0  0  0  0
   -2.5076   -0.4760    0.0870 C   0  0  0  0  0  0  0  0  0  0  0  0
   -1.2746    0.1731    0.0119 O   0  0  0  0  0  0  0  0  0  0  0  0
   -0.2160   -0.6815    0.1912 C   0  0  0  0  0  0  0  0  0  0  0  0
    0.9043   -0.5380   -0.8446 C   0  0  0  0  0  0  0  0  0  0  0  0
    1.7440    0.0576    0.2241 C   0  0  0  0  0  0  0  0  0  0  0  0
    2.5266    1.2760    0.0499 C   0  0  0  0  0  0  0  0  0  0  0  0
    3.1739   -0.0924    0.3628 C   0  0  0  0  0  0  0  0  0  0  0  0
    0.7292   -0.1703    1.2686 C   0  0  0  0  0  0  0  0  0  0  0  0
   -3.4296    1.3635    0.5571 H   0  0  0  0  0  0  0  0  0  0  0  0
   -4.5968    0.0701    0.2198 H   0  0  0  0  0  0  0  0  0  0  0  0
   -3.7494    0.8255   -1.1587 H   0  0  0  0  0  0  0  0  0  0  0  0
   -2.5863   -1.3433   -0.5720 H   0  0  0  0  0  0  0  0  0  0  0  0
   -2.5878   -0.8586    1.1351 H   0  0  0  0  0  0  0  0  0  0  0  0
   -0.5022   -1.7554    0.3680 H   0  0  0  0  0  0  0  0  0  0  0  0
    1.2466   -1.4974   -1.2645 H   0  0  0  0  0  0  0  0  0  0  0  0
    0.6800    0.2111   -1.6375 H   0  0  0  0  0  0  0  0  0  0  0  0
    2.6175    2.0650    0.8174 H   0  0  0  0  0  0  0  0  0  0  0  0
    2.6545    1.6280   -1.0039 H   0  0  0  0  0  0  0  0  0  0  0  0
    3.6667   -0.1404    1.3515 H   0  0  0  0  0  0  0  0  0  0  0  0
    3.7953   -0.5365   -0.4591 H   0  0  0  0  0  0  0  0  0  0  0  0
    0.3968    0.8088    1.7191 H   0  0  0  0  0  0  0  0  0  0  0  0
    0.9566   -0.8760    2.0630 H   0  0  0  0  0  0  0  0  0  0  0  0
  1  2  1  0
  2  3  1  0
  3  4  1  0
  4  5  1  0
  5  6  1  0
  6  7  1  0
  7  8  1  0
  6  9  1  0
  9  4  1  0
  8  6  1  0
  1 10  1  0
  1 11  1  0
  1 12  1  0
  2 13  1  0
  2 14  1  0
  4 15  1  0
  5 16  1  0
  5 17  1  0
  7 18  1  0
  7 19  1  0
  8 20  1  0
  8 21  1  0
  9 22  1  0
  9 23  1  0
M  END
