
     RDKit          3D

 19 19  0  0  0  0  0  0  0  0999 V2000
    3.0767    0.7556   -0.0117 C   0  0  0  0  0  0  0  0  0  0  0  0
    1.9221   -0.1910    0.0457 C   0  0  0  0  0  0  0  0  0  0  0  0
    0.6930    0.5042    0.0383 O   0  0  0  0  0  0  0  0  0  0  0  0
   -0.3788   -0.3518    0.0907 C   0  0  0  0  0  0  0  0  0  0  0  0
   -1.1771   -0.1387   -1.1647 C   0  0  0  0  0  0  0  0  0  0  0  0
   -2.4659   -0.0670   -0.8755 C   0  0  0  0  0  0  0  0  0  0  0  0
   -2.7004   -0.2196    0.5851 C   0  0  0  0  0  0  0  0  0  0  0  0
   -1.3528    0.0108    1.1471 C   0  0  0  0  0  0  0  0  0  0  0  0
   -1.1172    0.4183    2.2608 O   0  0  0  0  0  0  0  0  0  0  0  0
    2.7539    1.8217   -0.0920 H   0  0  0  0  0  0  0  0  0  0  0  0
    3.7369    0.7082    0.8858 H   0  0  0  0  0  0  0  0  0  0  0  0
    3.7465    0.5876   -0.8878 H   0  0  0  0  0  0  0  0  0  0  0  0
    1.9339   -0.7919   -0.8991 H   0  0  0  0  0  0  0  0  0  0  0  0
    1.9693   -0.9095    0.8803 H   0  0  0  0  0  0  0  0  0  0  0  0
   -0.0844   -1.4199    0.1287 H   0  0  0  0  0  0  0  0  0  0  0  0
   -0.7394   -0.0567   -2.1675 H   0  0  0  0  0  0  0  0  0  0  0  0
   -3.2856    0.0850   -1.5957 H   0  0  0  0  0  0  0  0  0  0  0  0
   -3.0749   -1.2423    0.8039 H   0  0  0  0  0  0  0  0  0  0  0  0
   -3.4557    0.4970    0.9587 H   0  0  0  0  0  0  0  0  0  0  0  0
  1  2  1  0
  2  3  1  0
  3  4  1  0
  4  5  1  0
  5  6  2  0
  6  7  1  0
  7  8  1  0
  8  9  2  0
  8  4  1  0
  1 10  1  0
  1 11  1  0
  1 12  1  0
  2 13  1  0
  2 14  1  0
  4 15  1  0
  5 16  1  0
  6 17  1  0
  7 18  1  0
  7 19  1  0
M  END
