
     RDKit          3D

 23 23  0  0  0  0  0  0  0  0999 V2000
    3.7752    0.1543   -1.3043 C   0  0  0  0  0  0  0  0  0  0  0  0
    2.6561   -0.5576   -0.6213 C   0  0  0  0  0  0  0  0  0  0  0  0
    1.5593    0.2562   -0.3668 O   0  0  0  0  0  0  0  0  0  0  0  0
    0.5968   -0.4869    0.2563 C   0  0  0  0  0  0  0  0  0  0  0  0
   -0.0359    0.2637    1.4441 C   0  0  0  0  0  0  0  0  0  0  0  0
   -0.8374   -0.1385    0.2560 C   0  0  0  0  0  0  0  0  0  0  0  0
   -1.3429    0.8064   -0.6130 O   0  0  0  0  0  0  0  0  0  0  0  0
   -2.6345    0.4805   -1.0562 C   0  0  0  0  0  0  0  0  0  0  0  0
   -3.5986    0.3774    0.1000 C   0  0  0  0  0  0  0  0  0  0  0  0
    3.5710    0.1094   -2.4099 H   0  0  0  0  0  0  0  0  0  0  0  0
    4.7274   -0.3595   -1.0681 H   0  0  0  0  0  0  0  0  0  0  0  0
    3.8187    1.2366   -1.0492 H   0  0  0  0  0  0  0  0  0  0  0  0
    2.3470   -1.4406   -1.2151 H   0  0  0  0  0  0  0  0  0  0  0  0
    3.0771   -0.9873    0.3345 H   0  0  0  0  0  0  0  0  0  0  0  0
    0.8711   -1.5547    0.4297 H   0  0  0  0  0  0  0  0  0  0  0  0
   -0.0227   -0.3048    2.3691 H   0  0  0  0  0  0  0  0  0  0  0  0
    0.1403    1.3361    1.5511 H   0  0  0  0  0  0  0  0  0  0  0  0
   -1.5400   -0.9789    0.4450 H   0  0  0  0  0  0  0  0  0  0  0  0
   -2.6324   -0.4838   -1.6162 H   0  0  0  0  0  0  0  0  0  0  0  0
   -2.9760    1.2477   -1.7707 H   0  0  0  0  0  0  0  0  0  0  0  0
   -4.2639    1.2687    0.0801 H   0  0  0  0  0  0  0  0  0  0  0  0
   -4.1828   -0.5688    0.0189 H   0  0  0  0  0  0  0  0  0  0  0  0
   -3.0727    0.3242    1.0891 H   0  0  0  0  0  0  0  0  0  0  0  0
  1  2  1  0
  2  3  1  0
  3  4  1  0
  4  5  1  0
  5  6  1  0
  6  7  1  0
  7  8  1  0
  8  9  1  0
  6  4  1  0
  1 10  1  0
  1 11  1  0
  1 12  1  0
  2 13  1  0
  2 14  1  0
  4 15  1  0
  5 16  1  0
  5 17  1  0
  6 18  1  0
  8 19  1  0
  8 20  1  0
  9 21  1  0
  9 22  1  0
  9 23  1  0
M  END
