
     RDKit          3D

 22 22  0  0  0  0  0  0  0  0999 V2000
    2.8540   -0.1565   -0.5198 C   0  0  0  0  0  0  0  0  0  0  0  0
    2.1090   -0.7721    0.6075 C   0  0  0  0  0  0  0  0  0  0  0  0
    0.7806   -0.9995    0.4003 O   0  0  0  0  0  0  0  0  0  0  0  0
    0.0015    0.0717    0.1235 C   0  0  0  0  0  0  0  0  0  0  0  0
   -0.7783   -0.2061   -1.1458 C   0  0  0  0  0  0  0  0  0  0  0  0
   -2.1806    0.2584   -0.9180 C   0  0  0  0  0  0  0  0  0  0  0  0
   -2.2500    0.8437    0.4690 C   0  0  0  0  0  0  0  0  0  0  0  0
   -1.1134    0.1379    1.1704 C   0  0  0  0  0  0  0  0  0  0  0  0
    2.8831    0.9684   -0.4448 H   0  0  0  0  0  0  0  0  0  0  0  0
    2.5669   -0.4973   -1.5182 H   0  0  0  0  0  0  0  0  0  0  0  0
    3.9388   -0.4541   -0.3976 H   0  0  0  0  0  0  0  0  0  0  0  0
    2.2209   -0.1221    1.5032 H   0  0  0  0  0  0  0  0  0  0  0  0
    2.5890   -1.7395    0.8749 H   0  0  0  0  0  0  0  0  0  0  0  0
    0.5048    1.0492    0.0872 H   0  0  0  0  0  0  0  0  0  0  0  0
   -0.3069    0.2296   -2.0436 H   0  0  0  0  0  0  0  0  0  0  0  0
   -0.8161   -1.3197   -1.3337 H   0  0  0  0  0  0  0  0  0  0  0  0
   -2.5053    1.0525   -1.6286 H   0  0  0  0  0  0  0  0  0  0  0  0
   -2.9267   -0.5770   -1.0471 H   0  0  0  0  0  0  0  0  0  0  0  0
   -3.2077    0.5460    0.9355 H   0  0  0  0  0  0  0  0  0  0  0  0
   -2.1412    1.9486    0.4797 H   0  0  0  0  0  0  0  0  0  0  0  0
   -1.4263   -0.9114    1.3393 H   0  0  0  0  0  0  0  0  0  0  0  0
   -0.7962    0.6492    2.0804 H   0  0  0  0  0  0  0  0  0  0  0  0
  1  2  1  0
  2  3  1  0
  3  4  1  0
  4  5  1  0
  5  6  1  0
  6  7  1  0
  7  8  1  0
  8  4  1  0
  1  9  1  0
  1 10  1  0
  1 11  1  0
  2 12  1  0
  2 13  1  0
  4 14  1  0
  5 15  1  0
  5 16  1  0
  6 17  1  0
  6 18  1  0
  7 19  1  0
  7 20  1  0
  8 21  1  0
  8 22  1  0
M  END
