
     RDKit          3D

 20 20  0  0  0  0  0  0  0  0999 V2000
    2.7935   -1.0570   -0.3658 C   0  0  0  0  0  0  0  0  0  0  0  0
    1.6142   -0.1018   -0.2609 C   0  0  0  0  0  0  0  0  0  0  0  0
    0.5043   -0.8442    0.0428 O   0  0  0  0  0  0  0  0  0  0  0  0
   -0.6589   -0.1078    0.1722 C   0  0  0  0  0  0  0  0  0  0  0  0
   -0.6277    0.9381    1.2388 C   0  0  0  0  0  0  0  0  0  0  0  0
   -1.4483    0.2728   -1.0580 C   0  0  0  0  0  0  0  0  0  0  0  0
   -1.9169   -0.8380   -0.1567 C   0  0  0  0  0  0  0  0  0  0  0  0
   -3.0677   -0.6660    0.5826 O   0  0  0  0  0  0  0  0  0  0  0  0
    3.7324   -0.4760   -0.1824 H   0  0  0  0  0  0  0  0  0  0  0  0
    2.7178   -1.8671    0.3877 H   0  0  0  0  0  0  0  0  0  0  0  0
    2.8613   -1.4913   -1.3892 H   0  0  0  0  0  0  0  0  0  0  0  0
    1.4731    0.3134   -1.2978 H   0  0  0  0  0  0  0  0  0  0  0  0
    1.8124    0.7494    0.3889 H   0  0  0  0  0  0  0  0  0  0  0  0
   -0.0765    0.5095    2.1202 H   0  0  0  0  0  0  0  0  0  0  0  0
   -0.0528    1.8481    0.9010 H   0  0  0  0  0  0  0  0  0  0  0  0
   -1.6059    1.2615    1.5990 H   0  0  0  0  0  0  0  0  0  0  0  0
   -2.0504    1.1940   -1.0287 H   0  0  0  0  0  0  0  0  0  0  0  0
   -0.9490   -0.0016   -2.0066 H   0  0  0  0  0  0  0  0  0  0  0  0
   -1.8282   -1.8604   -0.5996 H   0  0  0  0  0  0  0  0  0  0  0  0
   -3.2269    0.2311    0.9124 H   0  0  0  0  0  0  0  0  0  0  0  0
  1  2  1  0
  2  3  1  0
  3  4  1  0
  4  5  1  0
  4  6  1  0
  6  7  1  0
  7  8  1  0
  7  4  1  0
  1  9  1  0
  1 10  1  0
  1 11  1  0
  2 12  1  0
  2 13  1  0
  5 14  1  0
  5 15  1  0
  5 16  1  0
  6 17  1  0
  6 18  1  0
  7 19  1  0
  8 20  1  0
M  END
