
     RDKit          3D

 23 23  0  0  0  0  0  0  0  0999 V2000
    3.1620   -1.0039    0.3228 C   0  0  0  0  0  0  0  0  0  0  0  0
    1.8076   -0.7325   -0.2989 C   0  0  0  0  0  0  0  0  0  0  0  0
    1.1774    0.3305    0.3452 O   0  0  0  0  0  0  0  0  0  0  0  0
   -0.0556    0.6257   -0.1728 C   0  0  0  0  0  0  0  0  0  0  0  0
   -0.0085    2.0376   -0.7083 C   0  0  0  0  0  0  0  0  0  0  0  0
   -1.1904    0.4267    0.7997 C   0  0  0  0  0  0  0  0  0  0  0  0
   -2.5366    0.1981    0.0985 C   0  0  0  0  0  0  0  0  0  0  0  0
   -2.3028   -1.2723    0.3952 C   0  0  0  0  0  0  0  0  0  0  0  0
   -1.2703   -0.8800    1.2401 O   0  0  0  0  0  0  0  0  0  0  0  0
    2.9940   -1.6765    1.2018 H   0  0  0  0  0  0  0  0  0  0  0  0
    3.7873   -1.5051   -0.4296 H   0  0  0  0  0  0  0  0  0  0  0  0
    3.5855   -0.0590    0.7008 H   0  0  0  0  0  0  0  0  0  0  0  0
    1.2351   -1.6806   -0.2245 H   0  0  0  0  0  0  0  0  0  0  0  0
    1.9780   -0.4157   -1.3409 H   0  0  0  0  0  0  0  0  0  0  0  0
   -0.2395   -0.0986   -1.0155 H   0  0  0  0  0  0  0  0  0  0  0  0
    0.4805    1.9592   -1.7246 H   0  0  0  0  0  0  0  0  0  0  0  0
   -1.0095    2.4609   -0.8923 H   0  0  0  0  0  0  0  0  0  0  0  0
    0.5959    2.6858   -0.0593 H   0  0  0  0  0  0  0  0  0  0  0  0
   -1.2870    1.2118    1.5576 H   0  0  0  0  0  0  0  0  0  0  0  0
   -2.5413    0.4218   -0.9701 H   0  0  0  0  0  0  0  0  0  0  0  0
   -3.3949    0.5948    0.6727 H   0  0  0  0  0  0  0  0  0  0  0  0
   -1.8714   -1.8503   -0.4556 H   0  0  0  0  0  0  0  0  0  0  0  0
   -3.0954   -1.7785    0.9581 H   0  0  0  0  0  0  0  0  0  0  0  0
  1  2  1  0
  2  3  1  0
  3  4  1  0
  4  5  1  0
  4  6  1  0
  6  7  1  0
  7  8  1  0
  8  9  1  0
  9  6  1  0
  1 10  1  0
  1 11  1  0
  1 12  1  0
  2 13  1  0
  2 14  1  0
  4 15  1  0
  5 16  1  0
  5 17  1  0
  5 18  1  0
  6 19  1  0
  7 20  1  0
  7 21  1  0
  8 22  1  0
  8 23  1  0
M  END
