
     RDKit          3D

 16 15  0  0  0  0  0  0  0  0999 V2000
   -2.3749    0.4234    0.3155 C   0  0  0  0  0  0  0  0  0  0  0  0
   -1.8487   -0.9857    0.1330 C   0  0  0  0  0  0  0  0  0  0  0  0
   -0.4818   -0.9663    0.4412 O   0  0  0  0  0  0  0  0  0  0  0  0
    0.4569   -0.2064   -0.2087 C   0  0  0  0  0  0  0  0  0  0  0  0
    0.0387    0.5288   -1.1585 O   0  0  0  0  0  0  0  0  0  0  0  0
    1.8590   -0.2421    0.1717 C   0  0  0  0  0  0  0  0  0  0  0  0
    2.8124    0.6120   -0.5836 C   0  0  0  0  0  0  0  0  0  0  0  0
    2.2196   -0.9757    1.1059 O   0  0  0  0  0  0  0  0  0  0  0  0
   -2.1857    0.9927   -0.6125 H   0  0  0  0  0  0  0  0  0  0  0  0
   -1.7838    0.8974    1.1219 H   0  0  0  0  0  0  0  0  0  0  0  0
   -3.4499    0.4105    0.5950 H   0  0  0  0  0  0  0  0  0  0  0  0
   -2.3814   -1.6153    0.8773 H   0  0  0  0  0  0  0  0  0  0  0  0
   -2.0532   -1.3104   -0.9081 H   0  0  0  0  0  0  0  0  0  0  0  0
    2.3760    0.9296   -1.5535 H   0  0  0  0  0  0  0  0  0  0  0  0
    3.7125   -0.0199   -0.8028 H   0  0  0  0  0  0  0  0  0  0  0  0
    3.0844    1.5275   -0.0205 H   0  0  0  0  0  0  0  0  0  0  0  0
  1  2  1  0
  2  3  1  0
  3  4  1  0
  4  5  2  0
  4  6  1  0
  6  7  1  0
  6  8  2  0
  1  9  1  0
  1 10  1  0
  1 11  1  0
  2 12  1  0
  2 13  1  0
  7 14  1  0
  7 15  1  0
  7 16  1  0
M  END
