
     RDKit          3D

 23 23  0  0  0  0  0  0  0  0999 V2000
    3.0902    0.8051   -0.4862 C   0  0  0  0  0  0  0  0  0  0  0  0
    2.1222   -0.1730    0.1758 C   0  0  0  0  0  0  0  0  0  0  0  0
    1.1851   -0.5199   -0.7478 O   0  0  0  0  0  0  0  0  0  0  0  0
    0.2751   -1.4361   -0.2789 C   0  0  0  0  0  0  0  0  0  0  0  0
   -0.4674   -0.8630    0.8975 C   0  0  0  0  0  0  0  0  0  0  0  0
   -1.1508    0.4002    0.4257 C   0  0  0  0  0  0  0  0  0  0  0  0
   -2.1143    0.0510   -0.7042 C   0  0  0  0  0  0  0  0  0  0  0  0
   -2.8694    1.1781   -0.0265 C   0  0  0  0  0  0  0  0  0  0  0  0
   -2.2280    0.8199    1.1670 O   0  0  0  0  0  0  0  0  0  0  0  0
    3.7625    0.2105   -1.1296 H   0  0  0  0  0  0  0  0  0  0  0  0
    3.6508    1.3593    0.2966 H   0  0  0  0  0  0  0  0  0  0  0  0
    2.5429    1.5064   -1.1220 H   0  0  0  0  0  0  0  0  0  0  0  0
    1.6409    0.3377    1.0523 H   0  0  0  0  0  0  0  0  0  0  0  0
    2.6283   -1.0808    0.5413 H   0  0  0  0  0  0  0  0  0  0  0  0
    0.7496   -2.4156   -0.0367 H   0  0  0  0  0  0  0  0  0  0  0  0
   -0.4503   -1.6214   -1.1046 H   0  0  0  0  0  0  0  0  0  0  0  0
    0.1692   -0.7132    1.7592 H   0  0  0  0  0  0  0  0  0  0  0  0
   -1.2350   -1.6203    1.2127 H   0  0  0  0  0  0  0  0  0  0  0  0
   -0.4587    1.1877    0.1132 H   0  0  0  0  0  0  0  0  0  0  0  0
   -1.6918    0.2906   -1.6940 H   0  0  0  0  0  0  0  0  0  0  0  0
   -2.5826   -0.9268   -0.5825 H   0  0  0  0  0  0  0  0  0  0  0  0
   -3.9474    1.0417    0.0761 H   0  0  0  0  0  0  0  0  0  0  0  0
   -2.6214    2.1820   -0.4095 H   0  0  0  0  0  0  0  0  0  0  0  0
  1  2  1  0
  2  3  1  0
  3  4  1  0
  4  5  1  0
  5  6  1  0
  6  7  1  0
  7  8  1  0
  8  9  1  0
  9  6  1  0
  1 10  1  0
  1 11  1  0
  1 12  1  0
  2 13  1  0
  2 14  1  0
  4 15  1  0
  4 16  1  0
  5 17  1  0
  5 18  1  0
  6 19  1  0
  7 20  1  0
  7 21  1  0
  8 22  1  0
  8 23  1  0
M  END
