
     RDKit          3D

 23 24  0  0  0  0  0  0  0  0999 V2000
    3.0004    0.5017    0.5539 C   0  0  0  0  0  0  0  0  0  0  0  0
    2.2866   -0.7454    0.9579 C   0  0  0  0  0  0  0  0  0  0  0  0
    0.9229   -0.6132    1.0830 O   0  0  0  0  0  0  0  0  0  0  0  0
    0.2728   -0.2242   -0.0625 C   0  0  0  0  0  0  0  0  0  0  0  0
   -0.9765   -1.0198   -0.3684 C   0  0  0  0  0  0  0  0  0  0  0  0
   -1.8380   -0.6435   -1.5341 C   0  0  0  0  0  0  0  0  0  0  0  0
   -1.9137    0.7866   -1.0576 C   0  0  0  0  0  0  0  0  0  0  0  0
   -1.0426    0.4266    0.1089 C   0  0  0  0  0  0  0  0  0  0  0  0
   -1.5166    0.6978    1.5007 C   0  0  0  0  0  0  0  0  0  0  0  0
    3.4806    0.9222    1.4744 H   0  0  0  0  0  0  0  0  0  0  0  0
    2.3370    1.2940    0.1706 H   0  0  0  0  0  0  0  0  0  0  0  0
    3.8466    0.2927   -0.1386 H   0  0  0  0  0  0  0  0  0  0  0  0
    2.6746   -1.1656    1.9085 H   0  0  0  0  0  0  0  0  0  0  0  0
    2.4835   -1.5282    0.1847 H   0  0  0  0  0  0  0  0  0  0  0  0
    0.8885   -0.0489   -0.9880 H   0  0  0  0  0  0  0  0  0  0  0  0
   -1.3045   -1.8176    0.3242 H   0  0  0  0  0  0  0  0  0  0  0  0
   -1.4236   -0.7971   -2.5378 H   0  0  0  0  0  0  0  0  0  0  0  0
   -2.8124   -1.1972   -1.4661 H   0  0  0  0  0  0  0  0  0  0  0  0
   -2.9128    1.1058   -0.7146 H   0  0  0  0  0  0  0  0  0  0  0  0
   -1.4599    1.4516   -1.8233 H   0  0  0  0  0  0  0  0  0  0  0  0
   -1.5957    1.7867    1.6371 H   0  0  0  0  0  0  0  0  0  0  0  0
   -2.5662    0.3004    1.5844 H   0  0  0  0  0  0  0  0  0  0  0  0
   -0.8312    0.2345    2.2291 H   0  0  0  0  0  0  0  0  0  0  0  0
  1  2  1  0
  2  3  1  0
  3  4  1  0
  4  5  1  0
  5  6  1  0
  6  7  1  0
  7  8  1  0
  8  9  1  0
  8  4  1  0
  8  5  1  0
  1 10  1  0
  1 11  1  0
  1 12  1  0
  2 13  1  0
  2 14  1  0
  4 15  1  0
  5 16  1  0
  6 17  1  0
  6 18  1  0
  7 19  1  0
  7 20  1  0
  9 21  1  0
  9 22  1  0
  9 23  1  0
M  END
