
     RDKit          3D

 21 21  0  0  0  0  0  0  0  0999 V2000
    3.2705    0.3245   -0.6796 C   0  0  0  0  0  0  0  0  0  0  0  0
    2.0885   -0.2215    0.0687 C   0  0  0  0  0  0  0  0  0  0  0  0
    0.9096    0.4647   -0.2097 O   0  0  0  0  0  0  0  0  0  0  0  0
   -0.1122   -0.0941    0.5094 C   0  0  0  0  0  0  0  0  0  0  0  0
   -1.0534    0.9740    1.1134 C   0  0  0  0  0  0  0  0  0  0  0  0
   -1.5257   -0.0346    0.0720 C   0  0  0  0  0  0  0  0  0  0  0  0
   -2.4798   -1.0562    0.6615 C   0  0  0  0  0  0  0  0  0  0  0  0
   -1.8838    0.4522   -1.2704 C   0  0  0  0  0  0  0  0  0  0  0  0
   -1.2246    1.2747   -1.8875 O   0  0  0  0  0  0  0  0  0  0  0  0
    4.1535    0.2640    0.0150 H   0  0  0  0  0  0  0  0  0  0  0  0
    3.1361    1.3970   -0.8945 H   0  0  0  0  0  0  0  0  0  0  0  0
    3.5086   -0.2893   -1.5494 H   0  0  0  0  0  0  0  0  0  0  0  0
    1.9941   -1.3050   -0.2217 H   0  0  0  0  0  0  0  0  0  0  0  0
    2.2456   -0.2214    1.1590 H   0  0  0  0  0  0  0  0  0  0  0  0
    0.1508   -0.9459    1.1532 H   0  0  0  0  0  0  0  0  0  0  0  0
   -0.9919    1.9954    0.7440 H   0  0  0  0  0  0  0  0  0  0  0  0
   -1.2777    0.8149    2.1699 H   0  0  0  0  0  0  0  0  0  0  0  0
   -1.9872   -1.6605    1.4663 H   0  0  0  0  0  0  0  0  0  0  0  0
   -3.2722   -0.4674    1.1851 H   0  0  0  0  0  0  0  0  0  0  0  0
   -2.8808   -1.7537   -0.0708 H   0  0  0  0  0  0  0  0  0  0  0  0
   -2.7681    0.0881   -1.7712 H   0  0  0  0  0  0  0  0  0  0  0  0
  1  2  1  0
  2  3  1  0
  3  4  1  0
  4  5  1  0
  5  6  1  0
  6  7  1  0
  6  8  1  0
  8  9  2  0
  6  4  1  0
  1 10  1  0
  1 11  1  0
  1 12  1  0
  2 13  1  0
  2 14  1  0
  4 15  1  0
  5 16  1  0
  5 17  1  0
  7 18  1  0
  7 19  1  0
  7 20  1  0
  8 21  1  0
M  END
