
     RDKit          3D

 21 22  0  0  0  0  0  0  0  0999 V2000
    2.7315    0.4600   -0.0266 C   0  0  0  0  0  0  0  0  0  0  0  0
    2.0586   -0.8886   -0.0922 C   0  0  0  0  0  0  0  0  0  0  0  0
    0.7626   -0.8245   -0.5822 O   0  0  0  0  0  0  0  0  0  0  0  0
   -0.0614   -0.0237    0.1961 C   0  0  0  0  0  0  0  0  0  0  0  0
   -1.1814   -0.8853    0.7684 C   0  0  0  0  0  0  0  0  0  0  0  0
   -2.4590   -0.1426    0.5433 C   0  0  0  0  0  0  0  0  0  0  0  0
   -2.2027    0.8234   -0.5678 C   0  0  0  0  0  0  0  0  0  0  0  0
   -1.5212    1.9754   -0.1989 O   0  0  0  0  0  0  0  0  0  0  0  0
   -0.7171    0.9784   -0.7039 C   0  0  0  0  0  0  0  0  0  0  0  0
    2.5140    0.9828    0.9282 H   0  0  0  0  0  0  0  0  0  0  0  0
    2.4480    1.1293   -0.8458 H   0  0  0  0  0  0  0  0  0  0  0  0
    3.8348    0.2644   -0.0112 H   0  0  0  0  0  0  0  0  0  0  0  0
    2.6419   -1.4900   -0.8447 H   0  0  0  0  0  0  0  0  0  0  0  0
    2.1141   -1.3761    0.9041 H   0  0  0  0  0  0  0  0  0  0  0  0
    0.4592    0.4176    1.0626 H   0  0  0  0  0  0  0  0  0  0  0  0
   -1.0683   -1.0348    1.8638 H   0  0  0  0  0  0  0  0  0  0  0  0
   -1.1997   -1.8806    0.3032 H   0  0  0  0  0  0  0  0  0  0  0  0
   -2.7537    0.4612    1.4468 H   0  0  0  0  0  0  0  0  0  0  0  0
   -3.3287   -0.8170    0.3592 H   0  0  0  0  0  0  0  0  0  0  0  0
   -2.7640    0.7731   -1.5062 H   0  0  0  0  0  0  0  0  0  0  0  0
   -0.3079    1.0978   -1.7389 H   0  0  0  0  0  0  0  0  0  0  0  0
  1  2  1  0
  2  3  1  0
  3  4  1  0
  4  5  1  0
  5  6  1  0
  6  7  1  0
  7  8  1  0
  8  9  1  0
  9  4  1  0
  9  7  1  0
  1 10  1  0
  1 11  1  0
  1 12  1  0
  2 13  1  0
  2 14  1  0
  4 15  1  0
  5 16  1  0
  5 17  1  0
  6 18  1  0
  6 19  1  0
  7 20  1  0
  9 21  1  0
M  END
