
     RDKit          3D

 23 22  0  0  0  0  0  0  0  0999 V2000
    2.7963   -0.0383   -0.5336 C   0  0  0  0  0  0  0  0  0  0  0  0
    2.3696   -0.8896    0.6135 C   0  0  0  0  0  0  0  0  0  0  0  0
    1.1724   -1.4601    0.6300 O   0  0  0  0  0  0  0  0  0  0  0  0
   -0.0132   -0.8346    0.6725 C   0  0  0  0  0  0  0  0  0  0  0  0
   -0.2486    0.0408   -0.5043 C   0  0  0  0  0  0  0  0  0  0  0  0
   -1.6037    0.7201   -0.4855 C   0  0  0  0  0  0  0  0  0  0  0  0
   -2.7426   -0.2442   -0.4727 C   0  0  0  0  0  0  0  0  0  0  0  0
   -1.6683    1.6852    0.6477 C   0  0  0  0  0  0  0  0  0  0  0  0
   -0.7825    2.5175    0.7465 O   0  0  0  0  0  0  0  0  0  0  0  0
    2.7821    1.0661   -0.3252 H   0  0  0  0  0  0  0  0  0  0  0  0
    3.9081   -0.2406   -0.7389 H   0  0  0  0  0  0  0  0  0  0  0  0
    2.2535   -0.3176   -1.4508 H   0  0  0  0  0  0  0  0  0  0  0  0
    3.1697   -1.7084    0.7004 H   0  0  0  0  0  0  0  0  0  0  0  0
    2.5980   -0.2922    1.5633 H   0  0  0  0  0  0  0  0  0  0  0  0
   -0.1919   -0.2760    1.6419 H   0  0  0  0  0  0  0  0  0  0  0  0
   -0.8048   -1.6658    0.6773 H   0  0  0  0  0  0  0  0  0  0  0  0
    0.5006    0.8633   -0.4769 H   0  0  0  0  0  0  0  0  0  0  0  0
   -0.1097   -0.5384   -1.4224 H   0  0  0  0  0  0  0  0  0  0  0  0
   -1.6728    1.3183   -1.4181 H   0  0  0  0  0  0  0  0  0  0  0  0
   -2.6993   -1.0122    0.3028 H   0  0  0  0  0  0  0  0  0  0  0  0
   -2.8686   -0.7124   -1.4716 H   0  0  0  0  0  0  0  0  0  0  0  0
   -3.6713    0.3489   -0.2780 H   0  0  0  0  0  0  0  0  0  0  0  0
   -2.4730    1.6702    1.3820 H   0  0  0  0  0  0  0  0  0  0  0  0
  1  2  1  0
  2  3  1  0
  3  4  1  0
  4  5  1  0
  5  6  1  0
  6  7  1  0
  6  8  1  0
  8  9  2  0
  1 10  1  0
  1 11  1  0
  1 12  1  0
  2 13  1  0
  2 14  1  0
  4 15  1  0
  4 16  1  0
  5 17  1  0
  5 18  1  0
  6 19  1  0
  7 20  1  0
  7 21  1  0
  7 22  1  0
  8 23  1  0
M  END
