
     RDKit          3D

 23 24  0  0  0  0  0  0  0  0999 V2000
    2.8717   -0.6254    0.4128 C   0  0  0  0  0  0  0  0  0  0  0  0
    2.4580    0.0315   -0.8819 C   0  0  0  0  0  0  0  0  0  0  0  0
    1.0864   -0.0559   -1.1097 O   0  0  0  0  0  0  0  0  0  0  0  0
    0.4261    0.5667   -0.0813 C   0  0  0  0  0  0  0  0  0  0  0  0
   -1.0607    0.4864   -0.3032 C   0  0  0  0  0  0  0  0  0  0  0  0
   -2.0097    1.0959    0.6862 C   0  0  0  0  0  0  0  0  0  0  0  0
   -2.3585   -0.3087    1.1250 C   0  0  0  0  0  0  0  0  0  0  0  0
   -1.6512   -0.9195   -0.0417 C   0  0  0  0  0  0  0  0  0  0  0  0
   -1.6549   -0.3117   -1.3847 C   0  0  0  0  0  0  0  0  0  0  0  0
    2.3428   -1.6100    0.5208 H   0  0  0  0  0  0  0  0  0  0  0  0
    3.9715   -0.7591    0.3682 H   0  0  0  0  0  0  0  0  0  0  0  0
    2.6407    0.0510    1.2387 H   0  0  0  0  0  0  0  0  0  0  0  0
    2.7608    1.0969   -0.8113 H   0  0  0  0  0  0  0  0  0  0  0  0
    2.9986   -0.3911   -1.7544 H   0  0  0  0  0  0  0  0  0  0  0  0
    0.6830    1.6517   -0.0095 H   0  0  0  0  0  0  0  0  0  0  0  0
    0.6263    0.1289    0.9213 H   0  0  0  0  0  0  0  0  0  0  0  0
   -2.8479    1.5856    0.1512 H   0  0  0  0  0  0  0  0  0  0  0  0
   -1.5035    1.7132    1.4582 H   0  0  0  0  0  0  0  0  0  0  0  0
   -1.8405   -0.5253    2.0850 H   0  0  0  0  0  0  0  0  0  0  0  0
   -3.4391   -0.5192    1.2137 H   0  0  0  0  0  0  0  0  0  0  0  0
   -0.9609   -1.7339    0.1654 H   0  0  0  0  0  0  0  0  0  0  0  0
   -0.9610   -0.7441   -2.1180 H   0  0  0  0  0  0  0  0  0  0  0  0
   -2.5781    0.0965   -1.8507 H   0  0  0  0  0  0  0  0  0  0  0  0
  1  2  1  0
  2  3  1  0
  3  4  1  0
  4  5  1  0
  5  6  1  0
  6  7  1  0
  7  8  1  0
  8  9  1  0
  8  5  1  0
  9  5  1  0
  1 10  1  0
  1 11  1  0
  1 12  1  0
  2 13  1  0
  2 14  1  0
  4 15  1  0
  4 16  1  0
  6 17  1  0
  6 18  1  0
  7 19  1  0
  7 20  1  0
  8 21  1  0
  9 22  1  0
  9 23  1  0
M  END
