
     RDKit          3D

 18 18  0  0  0  0  0  0  0  0999 V2000
    2.9169   -0.5444    0.0467 C   0  0  0  0  0  0  0  0  0  0  0  0
    1.6662    0.2055    0.3541 C   0  0  0  0  0  0  0  0  0  0  0  0
    0.5098   -0.4607   -0.0492 O   0  0  0  0  0  0  0  0  0  0  0  0
   -0.5789    0.3385    0.2925 C   0  0  0  0  0  0  0  0  0  0  0  0
   -1.8722   -0.2879    0.6797 C   0  0  0  0  0  0  0  0  0  0  0  0
   -1.8233   -1.7003    0.7266 O   0  0  0  0  0  0  0  0  0  0  0  0
   -1.7719    0.3528   -0.6378 C   0  0  0  0  0  0  0  0  0  0  0  0
   -2.3631    1.5894   -0.8895 O   0  0  0  0  0  0  0  0  0  0  0  0
    2.7369   -1.2680   -0.7572 H   0  0  0  0  0  0  0  0  0  0  0  0
    3.7201    0.1765   -0.2527 H   0  0  0  0  0  0  0  0  0  0  0  0
    3.3312   -1.0990    0.9171 H   0  0  0  0  0  0  0  0  0  0  0  0
    1.6919    1.1676   -0.2312 H   0  0  0  0  0  0  0  0  0  0  0  0
    1.5905    0.5160    1.4139 H   0  0  0  0  0  0  0  0  0  0  0  0
   -0.3703    1.3060    0.7937 H   0  0  0  0  0  0  0  0  0  0  0  0
   -2.4427    0.1405    1.5178 H   0  0  0  0  0  0  0  0  0  0  0  0
   -2.2424   -2.0148   -0.1221 H   0  0  0  0  0  0  0  0  0  0  0  0
   -1.7662   -0.3127   -1.5279 H   0  0  0  0  0  0  0  0  0  0  0  0
   -2.9322    1.8950   -0.1414 H   0  0  0  0  0  0  0  0  0  0  0  0
  1  2  1  0
  2  3  1  0
  3  4  1  0
  4  5  1  0
  5  6  1  0
  5  7  1  0
  7  8  1  0
  7  4  1  0
  1  9  1  0
  1 10  1  0
  1 11  1  0
  2 12  1  0
  2 13  1  0
  4 14  1  0
  5 15  1  0
  6 16  1  0
  7 17  1  0
  8 18  1  0
M  END
