
     RDKit          3D

 19 19  0  0  0  0  0  0  0  0999 V2000
   -3.3427    0.0834    0.0560 C   0  0  0  0  0  0  0  0  0  0  0  0
   -2.4603    0.4726    1.2241 C   0  0  0  0  0  0  0  0  0  0  0  0
   -1.1713    0.6827    0.7352 O   0  0  0  0  0  0  0  0  0  0  0  0
   -0.7380   -0.4954    0.1586 C   0  0  0  0  0  0  0  0  0  0  0  0
    0.6304   -0.2547   -0.3545 C   0  0  0  0  0  0  0  0  0  0  0  0
    1.7419   -0.0378   -0.7734 C   0  0  0  0  0  0  0  0  0  0  0  0
    3.0932    0.2412   -1.2619 C   0  0  0  0  0  0  0  0  0  0  0  0
    4.2174    0.1838   -0.2460 C   0  0  0  0  0  0  0  0  0  0  0  0
    3.7685    1.3529   -0.8230 O   0  0  0  0  0  0  0  0  0  0  0  0
   -4.4080    0.3419    0.2447 H   0  0  0  0  0  0  0  0  0  0  0  0
   -3.0138    0.6276   -0.8603 H   0  0  0  0  0  0  0  0  0  0  0  0
   -3.2962   -1.0081   -0.0396 H   0  0  0  0  0  0  0  0  0  0  0  0
   -2.4606   -0.3776    1.9587 H   0  0  0  0  0  0  0  0  0  0  0  0
   -2.8509    1.3490    1.7706 H   0  0  0  0  0  0  0  0  0  0  0  0
   -0.7076   -1.2803    0.9663 H   0  0  0  0  0  0  0  0  0  0  0  0
   -1.3682   -0.8375   -0.6842 H   0  0  0  0  0  0  0  0  0  0  0  0
    3.3348   -0.0972   -2.3019 H   0  0  0  0  0  0  0  0  0  0  0  0
    3.9091    0.0026    0.8184 H   0  0  0  0  0  0  0  0  0  0  0  0
    5.1222   -0.3228   -0.5878 H   0  0  0  0  0  0  0  0  0  0  0  0
  1  2  1  0
  2  3  1  0
  3  4  1  0
  4  5  1  0
  5  6  3  0
  6  7  1  0
  7  8  1  0
  8  9  1  0
  9  7  1  0
  1 10  1  0
  1 11  1  0
  1 12  1  0
  2 13  1  0
  2 14  1  0
  4 15  1  0
  4 16  1  0
  7 17  1  0
  8 18  1  0
  8 19  1  0
M  END
