
     RDKit          3D

 23 23  0  0  0  0  0  0  0  0999 V2000
    2.8979    0.6139    0.1540 C   0  0  0  0  0  0  0  0  0  0  0  0
    1.6173    0.2757    0.9076 C   0  0  0  0  0  0  0  0  0  0  0  0
    0.5949    0.1812   -0.0132 O   0  0  0  0  0  0  0  0  0  0  0  0
   -0.6287   -0.1192    0.5103 C   0  0  0  0  0  0  0  0  0  0  0  0
   -1.8066    0.5713   -0.1538 C   0  0  0  0  0  0  0  0  0  0  0  0
   -1.6183    2.0374   -0.4087 C   0  0  0  0  0  0  0  0  0  0  0  0
   -1.5511   -0.2530   -1.2540 O   0  0  0  0  0  0  0  0  0  0  0  0
   -1.2730   -1.2553   -0.2954 C   0  0  0  0  0  0  0  0  0  0  0  0
   -0.3226   -2.3117   -0.7414 C   0  0  0  0  0  0  0  0  0  0  0  0
    2.8152    0.3360   -0.9278 H   0  0  0  0  0  0  0  0  0  0  0  0
    3.7348    0.0301    0.5664 H   0  0  0  0  0  0  0  0  0  0  0  0
    3.1015    1.7052    0.2441 H   0  0  0  0  0  0  0  0  0  0  0  0
    1.7336   -0.6352    1.5331 H   0  0  0  0  0  0  0  0  0  0  0  0
    1.3544    1.1112    1.6206 H   0  0  0  0  0  0  0  0  0  0  0  0
   -0.7159   -0.2611    1.5922 H   0  0  0  0  0  0  0  0  0  0  0  0
   -2.7369    0.2752    0.3506 H   0  0  0  0  0  0  0  0  0  0  0  0
   -0.5340    2.2040   -0.6222 H   0  0  0  0  0  0  0  0  0  0  0  0
   -1.9408    2.5738    0.5122 H   0  0  0  0  0  0  0  0  0  0  0  0
   -2.2159    2.4190   -1.2346 H   0  0  0  0  0  0  0  0  0  0  0  0
   -2.2417   -1.5945    0.1215 H   0  0  0  0  0  0  0  0  0  0  0  0
    0.7368   -2.0231   -0.6042 H   0  0  0  0  0  0  0  0  0  0  0  0
   -0.5241   -2.6784   -1.7784 H   0  0  0  0  0  0  0  0  0  0  0  0
   -0.4768   -3.2026   -0.0788 H   0  0  0  0  0  0  0  0  0  0  0  0
  1  2  1  0
  2  3  1  0
  3  4  1  0
  4  5  1  0
  5  6  1  0
  5  7  1  0
  7  8  1  0
  8  9  1  0
  8  4  1  0
  1 10  1  0
  1 11  1  0
  1 12  1  0
  2 13  1  0
  2 14  1  0
  4 15  1  0
  5 16  1  0
  6 17  1  0
  6 18  1  0
  6 19  1  0
  8 20  1  0
  9 21  1  0
  9 22  1  0
  9 23  1  0
M  END
