
     RDKit          3D

 23 23  0  0  0  0  0  0  0  0999 V2000
    2.6955   -0.1348   -0.8029 C   0  0  0  0  0  0  0  0  0  0  0  0
    2.5986   -0.1639    0.6868 C   0  0  0  0  0  0  0  0  0  0  0  0
    1.3987   -0.6682    1.1639 O   0  0  0  0  0  0  0  0  0  0  0  0
    0.3076    0.0655    0.7401 C   0  0  0  0  0  0  0  0  0  0  0  0
   -0.8744    0.2447    1.6561 C   0  0  0  0  0  0  0  0  0  0  0  0
   -0.9976   -0.7155    0.5332 C   0  0  0  0  0  0  0  0  0  0  0  0
   -1.7391   -0.3596   -0.7231 C   0  0  0  0  0  0  0  0  0  0  0  0
   -2.1375    1.0951   -0.7705 C   0  0  0  0  0  0  0  0  0  0  0  0
   -2.8514   -1.1612   -0.8678 O   0  0  0  0  0  0  0  0  0  0  0  0
    3.1048   -1.0740   -1.2419 H   0  0  0  0  0  0  0  0  0  0  0  0
    1.7774    0.1636   -1.3217 H   0  0  0  0  0  0  0  0  0  0  0  0
    3.4614    0.6525   -1.0638 H   0  0  0  0  0  0  0  0  0  0  0  0
    3.4125   -0.8251    1.0634 H   0  0  0  0  0  0  0  0  0  0  0  0
    2.8154    0.8429    1.0879 H   0  0  0  0  0  0  0  0  0  0  0  0
    0.4989    0.9409    0.0922 H   0  0  0  0  0  0  0  0  0  0  0  0
   -1.4385    1.1928    1.6325 H   0  0  0  0  0  0  0  0  0  0  0  0
   -0.8001   -0.1919    2.6739 H   0  0  0  0  0  0  0  0  0  0  0  0
   -0.9500   -1.7972    0.7687 H   0  0  0  0  0  0  0  0  0  0  0  0
   -1.0465   -0.5301   -1.5740 H   0  0  0  0  0  0  0  0  0  0  0  0
   -1.2799    1.7451   -0.5201 H   0  0  0  0  0  0  0  0  0  0  0  0
   -2.4377    1.3177   -1.8053 H   0  0  0  0  0  0  0  0  0  0  0  0
   -2.9450    1.3435   -0.0573 H   0  0  0  0  0  0  0  0  0  0  0  0
   -2.5730   -1.9826   -1.3503 H   0  0  0  0  0  0  0  0  0  0  0  0
  1  2  1  0
  2  3  1  0
  3  4  1  0
  4  5  1  0
  5  6  1  0
  6  7  1  0
  7  8  1  0
  7  9  1  0
  6  4  1  0
  1 10  1  0
  1 11  1  0
  1 12  1  0
  2 13  1  0
  2 14  1  0
  4 15  1  0
  5 16  1  0
  5 17  1  0
  6 18  1  0
  7 19  1  0
  8 20  1  0
  8 21  1  0
  8 22  1  0
  9 23  1  0
M  END
