
     RDKit          3D

 19 19  0  0  0  0  0  0  0  0999 V2000
   -3.0448    0.3161    0.2422 C   0  0  0  0  0  0  0  0  0  0  0  0
   -1.6289   -0.2414    0.4506 C   0  0  0  0  0  0  0  0  0  0  0  0
   -0.9757   -0.1031   -0.7434 O   0  0  0  0  0  0  0  0  0  0  0  0
    0.3143   -0.5442   -0.7715 C   0  0  0  0  0  0  0  0  0  0  0  0
    1.2380    0.1350    0.1951 C   0  0  0  0  0  0  0  0  0  0  0  0
    2.6435   -0.4634    0.0477 C   0  0  0  0  0  0  0  0  0  0  0  0
    2.8047    0.4882   -0.9967 O   0  0  0  0  0  0  0  0  0  0  0  0
    1.9480    1.3173   -0.3027 C   0  0  0  0  0  0  0  0  0  0  0  0
    1.8433    2.5518   -0.1708 O   0  0  0  0  0  0  0  0  0  0  0  0
   -3.4018   -0.1727   -0.7006 H   0  0  0  0  0  0  0  0  0  0  0  0
   -2.8970    1.4053    0.0604 H   0  0  0  0  0  0  0  0  0  0  0  0
   -3.6904    0.1145    1.0957 H   0  0  0  0  0  0  0  0  0  0  0  0
   -1.1439    0.2114    1.3170 H   0  0  0  0  0  0  0  0  0  0  0  0
   -1.7816   -1.3264    0.7102 H   0  0  0  0  0  0  0  0  0  0  0  0
    0.6959   -0.4461   -1.8066 H   0  0  0  0  0  0  0  0  0  0  0  0
    0.3309   -1.6348   -0.5265 H   0  0  0  0  0  0  0  0  0  0  0  0
    0.8930    0.1490    1.2271 H   0  0  0  0  0  0  0  0  0  0  0  0
    3.2032   -0.2468    0.9695 H   0  0  0  0  0  0  0  0  0  0  0  0
    2.6494   -1.5096   -0.2967 H   0  0  0  0  0  0  0  0  0  0  0  0
  1  2  1  0
  2  3  1  0
  3  4  1  0
  4  5  1  0
  5  6  1  0
  6  7  1  0
  7  8  1  0
  8  9  2  0
  8  5  1  0
  1 10  1  0
  1 11  1  0
  1 12  1  0
  2 13  1  0
  2 14  1  0
  4 15  1  0
  4 16  1  0
  5 17  1  0
  6 18  1  0
  6 19  1  0
M  END
