
     RDKit          3D

 19 20  0  0  0  0  0  0  0  0999 V2000
    2.9714   -0.0149    0.0709 C   0  0  0  0  0  0  0  0  0  0  0  0
    1.5748    0.2446   -0.4602 C   0  0  0  0  0  0  0  0  0  0  0  0
    0.6805   -0.1382    0.4906 O   0  0  0  0  0  0  0  0  0  0  0  0
   -0.5468   -0.0177    0.2769 C   0  0  0  0  0  0  0  0  0  0  0  0
   -1.6529   -0.4007    1.2402 C   0  0  0  0  0  0  0  0  0  0  0  0
   -2.3626    0.1005    0.0184 C   0  0  0  0  0  0  0  0  0  0  0  0
   -1.3788   -0.7320   -0.7579 C   0  0  0  0  0  0  0  0  0  0  0  0
   -1.3532    1.1509   -0.0215 C   0  0  0  0  0  0  0  0  0  0  0  0
   -1.2720    2.3244   -0.2039 O   0  0  0  0  0  0  0  0  0  0  0  0
    3.1976   -1.0848   -0.1814 H   0  0  0  0  0  0  0  0  0  0  0  0
    2.9521    0.1409    1.1745 H   0  0  0  0  0  0  0  0  0  0  0  0
    3.7017    0.6534   -0.4329 H   0  0  0  0  0  0  0  0  0  0  0  0
    1.5046    1.3179   -0.7452 H   0  0  0  0  0  0  0  0  0  0  0  0
    1.4813   -0.3209   -1.4282 H   0  0  0  0  0  0  0  0  0  0  0  0
   -1.7149    0.2269    2.1436 H   0  0  0  0  0  0  0  0  0  0  0  0
   -1.7959   -1.4872    1.3898 H   0  0  0  0  0  0  0  0  0  0  0  0
   -3.3502    0.1603   -0.1346 H   0  0  0  0  0  0  0  0  0  0  0  0
   -1.1768   -0.3123   -1.7659 H   0  0  0  0  0  0  0  0  0  0  0  0
   -1.4599   -1.8110   -0.6732 H   0  0  0  0  0  0  0  0  0  0  0  0
  1  2  1  0
  2  3  1  0
  3  4  1  0
  4  5  1  0
  5  6  1  0
  6  7  1  0
  6  8  1  0
  8  9  2  0
  7  4  1  0
  8  4  1  0
  1 10  1  0
  1 11  1  0
  1 12  1  0
  2 13  1  0
  2 14  1  0
  5 15  1  0
  5 16  1  0
  6 17  1  0
  7 18  1  0
  7 19  1  0
M  END
