
     RDKit          3D

 21 20  0  0  0  0  0  0  0  0999 V2000
   -3.2527    0.1148    0.2254 C   0  0  0  0  0  0  0  0  0  0  0  0
   -2.3512   -0.6096   -0.7463 C   0  0  0  0  0  0  0  0  0  0  0  0
   -1.0232   -0.4988   -0.4575 O   0  0  0  0  0  0  0  0  0  0  0  0
   -0.5482    0.8062   -0.4501 C   0  0  0  0  0  0  0  0  0  0  0  0
    0.9168    0.8188   -0.1233 C   0  0  0  0  0  0  0  0  0  0  0  0
    1.4491    1.9053   -0.0867 O   0  0  0  0  0  0  0  0  0  0  0  0
    1.6902   -0.3964    0.1418 C   0  0  0  0  0  0  0  0  0  0  0  0
    3.1135   -0.0008    0.4301 C   0  0  0  0  0  0  0  0  0  0  0  0
    3.9267   -1.0969    0.6953 O   0  0  0  0  0  0  0  0  0  0  0  0
   -4.3059   -0.0335   -0.0830 H   0  0  0  0  0  0  0  0  0  0  0  0
   -3.0786    1.1959    0.2652 H   0  0  0  0  0  0  0  0  0  0  0  0
   -3.0929   -0.2889    1.2463 H   0  0  0  0  0  0  0  0  0  0  0  0
   -2.5873   -0.3143   -1.7924 H   0  0  0  0  0  0  0  0  0  0  0  0
   -2.6227   -1.6886   -0.6759 H   0  0  0  0  0  0  0  0  0  0  0  0
   -0.6491    1.3224   -1.4139 H   0  0  0  0  0  0  0  0  0  0  0  0
   -1.0471    1.3233    0.3951 H   0  0  0  0  0  0  0  0  0  0  0  0
    1.6627   -1.0366   -0.7731 H   0  0  0  0  0  0  0  0  0  0  0  0
    1.2440   -1.0053    0.9535 H   0  0  0  0  0  0  0  0  0  0  0  0
    3.5345    0.5528   -0.4225 H   0  0  0  0  0  0  0  0  0  0  0  0
    3.1950    0.6705    1.3103 H   0  0  0  0  0  0  0  0  0  0  0  0
    3.8264   -1.7403   -0.0629 H   0  0  0  0  0  0  0  0  0  0  0  0
  1  2  1  0
  2  3  1  0
  3  4  1  0
  4  5  1  0
  5  6  2  0
  5  7  1  0
  7  8  1  0
  8  9  1  0
  1 10  1  0
  1 11  1  0
  1 12  1  0
  2 13  1  0
  2 14  1  0
  4 15  1  0
  4 16  1  0
  7 17  1  0
  7 18  1  0
  8 19  1  0
  8 20  1  0
  9 21  1  0
M  END
