
     RDKit          3D

 23 22  0  0  0  0  0  0  0  0999 V2000
    2.8210    0.8107   -0.6236 C   0  0  0  0  0  0  0  0  0  0  0  0
    1.6051    0.2703    0.1293 C   0  0  0  0  0  0  0  0  0  0  0  0
    0.5711    0.0254   -0.7218 O   0  0  0  0  0  0  0  0  0  0  0  0
   -0.5890   -0.4578   -0.2129 C   0  0  0  0  0  0  0  0  0  0  0  0
   -1.6175   -0.6586   -1.3241 C   0  0  0  0  0  0  0  0  0  0  0  0
   -0.4929   -1.8263    0.4459 C   0  0  0  0  0  0  0  0  0  0  0  0
   -1.1066    0.4804    0.8512 C   0  0  0  0  0  0  0  0  0  0  0  0
   -1.3810    1.8336    0.3714 C   0  0  0  0  0  0  0  0  0  0  0  0
   -2.3639    2.0871   -0.2932 O   0  0  0  0  0  0  0  0  0  0  0  0
    3.6772    0.1511   -0.4407 H   0  0  0  0  0  0  0  0  0  0  0  0
    2.6230    0.8672   -1.7124 H   0  0  0  0  0  0  0  0  0  0  0  0
    3.1125    1.8320   -0.2794 H   0  0  0  0  0  0  0  0  0  0  0  0
    1.4009    1.0256    0.9207 H   0  0  0  0  0  0  0  0  0  0  0  0
    1.9095   -0.7022    0.6021 H   0  0  0  0  0  0  0  0  0  0  0  0
   -1.1860   -1.4557   -1.9831 H   0  0  0  0  0  0  0  0  0  0  0  0
   -2.5015   -1.1222   -0.8363 H   0  0  0  0  0  0  0  0  0  0  0  0
   -1.8352    0.2431   -1.8858 H   0  0  0  0  0  0  0  0  0  0  0  0
   -0.5772   -2.6407   -0.3257 H   0  0  0  0  0  0  0  0  0  0  0  0
   -1.3430   -1.9422    1.1825 H   0  0  0  0  0  0  0  0  0  0  0  0
    0.4191   -2.0022    1.0026 H   0  0  0  0  0  0  0  0  0  0  0  0
   -2.0569    0.0777    1.2878 H   0  0  0  0  0  0  0  0  0  0  0  0
   -0.3877    0.4662    1.6930 H   0  0  0  0  0  0  0  0  0  0  0  0
   -0.7009    2.6373    0.6064 H   0  0  0  0  0  0  0  0  0  0  0  0
  1  2  1  0
  2  3  1  0
  3  4  1  0
  4  5  1  0
  4  6  1  0
  4  7  1  0
  7  8  1  0
  8  9  2  0
  1 10  1  0
  1 11  1  0
  1 12  1  0
  2 13  1  0
  2 14  1  0
  5 15  1  0
  5 16  1  0
  5 17  1  0
  6 18  1  0
  6 19  1  0
  6 20  1  0
  7 21  1  0
  7 22  1  0
  8 23  1  0
M  END
