
     RDKit          3D

 17 17  0  0  0  0  0  0  0  0999 V2000
   -2.6416    0.0518   -0.1233 C   0  0  0  0  0  0  0  0  0  0  0  0
   -1.3137   -0.6765   -0.2148 C   0  0  0  0  0  0  0  0  0  0  0  0
   -0.3439    0.2242    0.1033 O   0  0  0  0  0  0  0  0  0  0  0  0
    0.9379   -0.1898    0.0928 C   0  0  0  0  0  0  0  0  0  0  0  0
    1.8020    0.7091   -0.7880 C   0  0  0  0  0  0  0  0  0  0  0  0
    2.7864    0.6151    0.1803 O   0  0  0  0  0  0  0  0  0  0  0  0
    1.8779    0.1742    1.1591 C   0  0  0  0  0  0  0  0  0  0  0  0
   -2.4728    1.0803   -0.4678 H   0  0  0  0  0  0  0  0  0  0  0  0
   -3.3366   -0.4502   -0.8589 H   0  0  0  0  0  0  0  0  0  0  0  0
   -3.0565    0.0454    0.9033 H   0  0  0  0  0  0  0  0  0  0  0  0
   -1.2041   -1.0618   -1.2669 H   0  0  0  0  0  0  0  0  0  0  0  0
   -1.3749   -1.5277    0.4985 H   0  0  0  0  0  0  0  0  0  0  0  0
    1.0314   -1.2684   -0.1897 H   0  0  0  0  0  0  0  0  0  0  0  0
    2.0276    0.2305   -1.7610 H   0  0  0  0  0  0  0  0  0  0  0  0
    1.3820    1.7141   -0.8387 H   0  0  0  0  0  0  0  0  0  0  0  0
    1.6463    1.0220    1.8211 H   0  0  0  0  0  0  0  0  0  0  0  0
    2.2525   -0.6922    1.7508 H   0  0  0  0  0  0  0  0  0  0  0  0
  1  2  1  0
  2  3  1  0
  3  4  1  0
  4  5  1  0
  5  6  1  0
  6  7  1  0
  7  4  1  0
  1  8  1  0
  1  9  1  0
  1 10  1  0
  2 11  1  0
  2 12  1  0
  4 13  1  0
  5 14  1  0
  5 15  1  0
  7 16  1  0
  7 17  1  0
M  END
