
     RDKit          3D

 23 24  0  0  0  0  0  0  0  0999 V2000
    3.7962    0.5765   -0.6576 C   0  0  0  0  0  0  0  0  0  0  0  0
    2.5828    0.3117    0.2246 C   0  0  0  0  0  0  0  0  0  0  0  0
    1.5141   -0.1789   -0.5193 O   0  0  0  0  0  0  0  0  0  0  0  0
    0.4596   -0.3945    0.3333 C   0  0  0  0  0  0  0  0  0  0  0  0
   -0.3024   -1.6967    0.0043 C   0  0  0  0  0  0  0  0  0  0  0  0
   -0.9464   -0.3578   -0.1306 C   0  0  0  0  0  0  0  0  0  0  0  0
   -2.0101   -0.0514    0.8815 C   0  0  0  0  0  0  0  0  0  0  0  0
   -3.4318   -0.0328    0.3259 C   0  0  0  0  0  0  0  0  0  0  0  0
   -2.7995    1.2044    0.8064 C   0  0  0  0  0  0  0  0  0  0  0  0
    3.3955    0.9588   -1.6220 H   0  0  0  0  0  0  0  0  0  0  0  0
    4.4544    1.3522   -0.2126 H   0  0  0  0  0  0  0  0  0  0  0  0
    4.3959   -0.3484   -0.7894 H   0  0  0  0  0  0  0  0  0  0  0  0
    2.8288   -0.3551    1.0774 H   0  0  0  0  0  0  0  0  0  0  0  0
    2.3263    1.3008    0.6935 H   0  0  0  0  0  0  0  0  0  0  0  0
    0.6287   -0.1588    1.3849 H   0  0  0  0  0  0  0  0  0  0  0  0
   -0.0872   -2.2055   -0.9457 H   0  0  0  0  0  0  0  0  0  0  0  0
   -0.4761   -2.3225    0.8857 H   0  0  0  0  0  0  0  0  0  0  0  0
   -1.0972    0.0561   -1.1469 H   0  0  0  0  0  0  0  0  0  0  0  0
   -1.9162   -0.6017    1.8482 H   0  0  0  0  0  0  0  0  0  0  0  0
   -4.2235   -0.5371    0.9157 H   0  0  0  0  0  0  0  0  0  0  0  0
   -3.5673   -0.1263   -0.7656 H   0  0  0  0  0  0  0  0  0  0  0  0
   -2.4230    1.9595    0.0883 H   0  0  0  0  0  0  0  0  0  0  0  0
   -3.1017    1.6473    1.7737 H   0  0  0  0  0  0  0  0  0  0  0  0
  1  2  1  0
  2  3  1  0
  3  4  1  0
  4  5  1  0
  5  6  1  0
  6  7  1  0
  7  8  1  0
  8  9  1  0
  6  4  1  0
  9  7  1  0
  1 10  1  0
  1 11  1  0
  1 12  1  0
  2 13  1  0
  2 14  1  0
  4 15  1  0
  5 16  1  0
  5 17  1  0
  6 18  1  0
  7 19  1  0
  8 20  1  0
  8 21  1  0
  9 22  1  0
  9 23  1  0
M  END
