
     RDKit          3D

 23 24  0  0  0  0  0  0  0  0999 V2000
    2.8633    0.0608    0.5375 C   0  0  0  0  0  0  0  0  0  0  0  0
    1.7676    0.9096    1.1127 C   0  0  0  0  0  0  0  0  0  0  0  0
    0.7119    1.1221    0.2461 O   0  0  0  0  0  0  0  0  0  0  0  0
    0.1584   -0.0917   -0.0947 C   0  0  0  0  0  0  0  0  0  0  0  0
   -0.0173   -0.1637   -1.6135 C   0  0  0  0  0  0  0  0  0  0  0  0
   -1.4426    0.3203   -1.3892 C   0  0  0  0  0  0  0  0  0  0  0  0
   -1.3288   -0.1580   -0.0063 C   0  0  0  0  0  0  0  0  0  0  0  0
   -2.0770   -1.2408    0.6017 C   0  0  0  0  0  0  0  0  0  0  0  0
   -2.1239    0.2242    1.1340 C   0  0  0  0  0  0  0  0  0  0  0  0
    2.6377   -1.0179    0.6200 H   0  0  0  0  0  0  0  0  0  0  0  0
    3.0182    0.2633   -0.5460 H   0  0  0  0  0  0  0  0  0  0  0  0
    3.8063    0.2555    1.1030 H   0  0  0  0  0  0  0  0  0  0  0  0
    2.2213    1.9238    1.3135 H   0  0  0  0  0  0  0  0  0  0  0  0
    1.4111    0.4506    2.0674 H   0  0  0  0  0  0  0  0  0  0  0  0
    0.6160   -0.9944    0.3502 H   0  0  0  0  0  0  0  0  0  0  0  0
    0.6308    0.5396   -2.1667 H   0  0  0  0  0  0  0  0  0  0  0  0
    0.0330   -1.2056   -1.9344 H   0  0  0  0  0  0  0  0  0  0  0  0
   -1.4432    1.4467   -1.4474 H   0  0  0  0  0  0  0  0  0  0  0  0
   -2.2083   -0.1753   -2.0107 H   0  0  0  0  0  0  0  0  0  0  0  0
   -1.4896   -1.9586    1.2350 H   0  0  0  0  0  0  0  0  0  0  0  0
   -3.0306   -1.6210    0.2048 H   0  0  0  0  0  0  0  0  0  0  0  0
   -1.6164    0.3949    2.1108 H   0  0  0  0  0  0  0  0  0  0  0  0
   -3.0976    0.7157    1.0525 H   0  0  0  0  0  0  0  0  0  0  0  0
  1  2  1  0
  2  3  1  0
  3  4  1  0
  4  5  1  0
  5  6  1  0
  6  7  1  0
  7  8  1  0
  8  9  1  0
  7  4  1  0
  9  7  1  0
  1 10  1  0
  1 11  1  0
  1 12  1  0
  2 13  1  0
  2 14  1  0
  4 15  1  0
  5 16  1  0
  5 17  1  0
  6 18  1  0
  6 19  1  0
  8 20  1  0
  8 21  1  0
  9 22  1  0
  9 23  1  0
M  END
