
     RDKit          3D

 21 21  0  0  0  0  0  0  0  0999 V2000
    3.1020   -0.4535    0.5403 C   0  0  0  0  0  0  0  0  0  0  0  0
    1.9885    0.0636   -0.3366 C   0  0  0  0  0  0  0  0  0  0  0  0
    0.8047   -0.0491    0.3925 O   0  0  0  0  0  0  0  0  0  0  0  0
   -0.2152    0.4243   -0.4099 C   0  0  0  0  0  0  0  0  0  0  0  0
   -0.7859    1.5102    0.1990 O   0  0  0  0  0  0  0  0  0  0  0  0
   -2.0275    1.1694    0.6700 C   0  0  0  0  0  0  0  0  0  0  0  0
   -2.5345    0.1158   -0.3041 C   0  0  0  0  0  0  0  0  0  0  0  0
   -1.2402   -0.6485   -0.5636 C   0  0  0  0  0  0  0  0  0  0  0  0
   -1.1200   -1.6374    0.4319 O   0  0  0  0  0  0  0  0  0  0  0  0
    4.0662   -0.1627    0.0615 H   0  0  0  0  0  0  0  0  0  0  0  0
    2.9877   -1.5646    0.5716 H   0  0  0  0  0  0  0  0  0  0  0  0
    2.9857   -0.0042    1.5398 H   0  0  0  0  0  0  0  0  0  0  0  0
    2.1528    1.1154   -0.6565 H   0  0  0  0  0  0  0  0  0  0  0  0
    1.8897   -0.6343   -1.1958 H   0  0  0  0  0  0  0  0  0  0  0  0
    0.1529    0.7710   -1.4177 H   0  0  0  0  0  0  0  0  0  0  0  0
   -2.6787    2.0545    0.6920 H   0  0  0  0  0  0  0  0  0  0  0  0
   -1.9562    0.7182    1.6794 H   0  0  0  0  0  0  0  0  0  0  0  0
   -2.8773    0.6491   -1.2083 H   0  0  0  0  0  0  0  0  0  0  0  0
   -3.2922   -0.4947    0.1843 H   0  0  0  0  0  0  0  0  0  0  0  0
   -1.2358   -1.1476   -1.5423 H   0  0  0  0  0  0  0  0  0  0  0  0
   -0.1667   -1.7951    0.6725 H   0  0  0  0  0  0  0  0  0  0  0  0
  1  2  1  0
  2  3  1  0
  3  4  1  0
  4  5  1  0
  5  6  1  0
  6  7  1  0
  7  8  1  0
  8  9  1  0
  8  4  1  0
  1 10  1  0
  1 11  1  0
  1 12  1  0
  2 13  1  0
  2 14  1  0
  4 15  1  0
  6 16  1  0
  6 17  1  0
  7 18  1  0
  7 19  1  0
  8 20  1  0
  9 21  1  0
M  END
