
     RDKit          3D

 19 19  0  0  0  0  0  0  0  0999 V2000
    3.3923    0.1667   -0.9097 C   0  0  0  0  0  0  0  0  0  0  0  0
    2.2995    0.5420    0.0681 C   0  0  0  0  0  0  0  0  0  0  0  0
    1.1078    0.0640   -0.4143 O   0  0  0  0  0  0  0  0  0  0  0  0
    0.0285    0.3580    0.4176 C   0  0  0  0  0  0  0  0  0  0  0  0
   -1.2345   -0.1831   -0.1535 C   0  0  0  0  0  0  0  0  0  0  0  0
   -1.1924   -0.7721   -1.1934 O   0  0  0  0  0  0  0  0  0  0  0  0
   -2.4781    0.0551    0.6290 C   0  0  0  0  0  0  0  0  0  0  0  0
   -3.7007   -0.5561    0.2401 C   0  0  0  0  0  0  0  0  0  0  0  0
   -3.4127    0.8290   -0.2672 O   0  0  0  0  0  0  0  0  0  0  0  0
    4.2034   -0.3902   -0.4321 H   0  0  0  0  0  0  0  0  0  0  0  0
    3.7716    1.1122   -1.3591 H   0  0  0  0  0  0  0  0  0  0  0  0
    2.9935   -0.5066   -1.7205 H   0  0  0  0  0  0  0  0  0  0  0  0
    2.5795    0.0778    1.0577 H   0  0  0  0  0  0  0  0  0  0  0  0
    2.2961    1.6335    0.2604 H   0  0  0  0  0  0  0  0  0  0  0  0
   -0.0880    1.4625    0.5021 H   0  0  0  0  0  0  0  0  0  0  0  0
    0.1495   -0.0996    1.4280 H   0  0  0  0  0  0  0  0  0  0  0  0
   -2.4130    0.6113    1.5800 H   0  0  0  0  0  0  0  0  0  0  0  0
   -3.7021   -1.2884   -0.6050 H   0  0  0  0  0  0  0  0  0  0  0  0
   -4.6001   -0.4605    0.8719 H   0  0  0  0  0  0  0  0  0  0  0  0
  1  2  1  0
  2  3  1  0
  3  4  1  0
  4  5  1  0
  5  6  2  0
  5  7  1  0
  7  8  1  0
  8  9  1  0
  9  7  1  0
  1 10  1  0
  1 11  1  0
  1 12  1  0
  2 13  1  0
  2 14  1  0
  4 15  1  0
  4 16  1  0
  7 17  1  0
  8 18  1  0
  8 19  1  0
M  END
