
     RDKit          3D

 23 23  0  0  0  0  0  0  0  0999 V2000
   -3.9034   -0.1336   -0.1669 C   0  0  0  0  0  0  0  0  0  0  0  0
   -2.4967   -0.4700   -0.6153 C   0  0  0  0  0  0  0  0  0  0  0  0
   -1.6115    0.1747    0.2463 O   0  0  0  0  0  0  0  0  0  0  0  0
   -0.2832   -0.0782   -0.0908 C   0  0  0  0  0  0  0  0  0  0  0  0
    0.5763    0.6655    0.9030 C   0  0  0  0  0  0  0  0  0  0  0  0
    2.0383    0.4940    0.6749 C   0  0  0  0  0  0  0  0  0  0  0  0
    2.5347    0.9699   -0.6787 C   0  0  0  0  0  0  0  0  0  0  0  0
    2.5934   -0.4641   -0.3005 C   0  0  0  0  0  0  0  0  0  0  0  0
    3.8778   -0.9519   -0.0554 O   0  0  0  0  0  0  0  0  0  0  0  0
   -4.2261    0.7974   -0.6783 H   0  0  0  0  0  0  0  0  0  0  0  0
   -3.8715    0.0362    0.9287 H   0  0  0  0  0  0  0  0  0  0  0  0
   -4.5870   -0.9941   -0.3864 H   0  0  0  0  0  0  0  0  0  0  0  0
   -2.3079   -0.1694   -1.6680 H   0  0  0  0  0  0  0  0  0  0  0  0
   -2.4066   -1.5779   -0.5589 H   0  0  0  0  0  0  0  0  0  0  0  0
   -0.0832    0.1933   -1.1305 H   0  0  0  0  0  0  0  0  0  0  0  0
   -0.1048   -1.1750    0.0321 H   0  0  0  0  0  0  0  0  0  0  0  0
    0.3359    1.7552    0.7741 H   0  0  0  0  0  0  0  0  0  0  0  0
    0.2617    0.3869    1.9134 H   0  0  0  0  0  0  0  0  0  0  0  0
    2.6707    0.7352    1.5670 H   0  0  0  0  0  0  0  0  0  0  0  0
    1.8090    1.2668   -1.4474 H   0  0  0  0  0  0  0  0  0  0  0  0
    3.4284    1.6211   -0.6373 H   0  0  0  0  0  0  0  0  0  0  0  0
    1.9662   -1.1567   -0.8772 H   0  0  0  0  0  0  0  0  0  0  0  0
    3.7895   -1.9254    0.1502 H   0  0  0  0  0  0  0  0  0  0  0  0
  1  2  1  0
  2  3  1  0
  3  4  1  0
  4  5  1  0
  5  6  1  0
  6  7  1  0
  7  8  1  0
  8  9  1  0
  8  6  1  0
  1 10  1  0
  1 11  1  0
  1 12  1  0
  2 13  1  0
  2 14  1  0
  4 15  1  0
  4 16  1  0
  5 17  1  0
  5 18  1  0
  6 19  1  0
  7 20  1  0
  7 21  1  0
  8 22  1  0
  9 23  1  0
M  END
