
     RDKit          3D

 25 25  0  0  0  0  0  0  0  0999 V2000
    3.7519    0.1833   -0.0997 C   0  0  0  0  0  0  0  0  0  0  0  0
    2.4152   -0.4269   -0.4099 C   0  0  0  0  0  0  0  0  0  0  0  0
    1.3487    0.4194   -0.0227 O   0  0  0  0  0  0  0  0  0  0  0  0
    0.2019   -0.2569   -0.3615 C   0  0  0  0  0  0  0  0  0  0  0  0
   -1.0657    0.4737   -0.0322 C   0  0  0  0  0  0  0  0  0  0  0  0
   -2.3178   -0.3181   -0.4277 C   0  0  0  0  0  0  0  0  0  0  0  0
   -2.3064   -1.6369    0.3303 C   0  0  0  0  0  0  0  0  0  0  0  0
   -1.1018    1.2646    1.2153 C   0  0  0  0  0  0  0  0  0  0  0  0
   -1.1818    1.9443   -0.1552 C   0  0  0  0  0  0  0  0  0  0  0  0
    4.4962   -0.2679   -0.8162 H   0  0  0  0  0  0  0  0  0  0  0  0
    3.7893    1.2726   -0.2081 H   0  0  0  0  0  0  0  0  0  0  0  0
    4.1012   -0.1669    0.9147 H   0  0  0  0  0  0  0  0  0  0  0  0
    2.3247   -1.3542    0.1938 H   0  0  0  0  0  0  0  0  0  0  0  0
    2.2718   -0.6891   -1.4629 H   0  0  0  0  0  0  0  0  0  0  0  0
    0.2116   -1.2228    0.2110 H   0  0  0  0  0  0  0  0  0  0  0  0
    0.1944   -0.5680   -1.4355 H   0  0  0  0  0  0  0  0  0  0  0  0
   -3.2396    0.2639   -0.2376 H   0  0  0  0  0  0  0  0  0  0  0  0
   -2.2080   -0.5185   -1.5135 H   0  0  0  0  0  0  0  0  0  0  0  0
   -1.5528   -1.6395    1.1464 H   0  0  0  0  0  0  0  0  0  0  0  0
   -3.3042   -1.7700    0.8112 H   0  0  0  0  0  0  0  0  0  0  0  0
   -2.1260   -2.5017   -0.3227 H   0  0  0  0  0  0  0  0  0  0  0  0
   -2.0247    1.1932    1.8182 H   0  0  0  0  0  0  0  0  0  0  0  0
   -0.1713    1.4723    1.7661 H   0  0  0  0  0  0  0  0  0  0  0  0
   -2.1996    2.3673   -0.3700 H   0  0  0  0  0  0  0  0  0  0  0  0
   -0.3073    2.4826   -0.5316 H   0  0  0  0  0  0  0  0  0  0  0  0
  1  2  1  0
  2  3  1  0
  3  4  1  0
  4  5  1  0
  5  6  1  0
  6  7  1  0
  5  8  1  0
  8  9  1  0
  9  5  1  0
  1 10  1  0
  1 11  1  0
  1 12  1  0
  2 13  1  0
  2 14  1  0
  4 15  1  0
  4 16  1  0
  6 17  1  0
  6 18  1  0
  7 19  1  0
  7 20  1  0
  7 21  1  0
  8 22  1  0
  8 23  1  0
  9 24  1  0
  9 25  1  0
M  END
