
     RDKit          3D

 25 25  0  0  0  0  0  0  0  0999 V2000
    3.4457    1.0202    0.5632 C   0  0  0  0  0  0  0  0  0  0  0  0
    2.4614   -0.0039   -0.0223 C   0  0  0  0  0  0  0  0  0  0  0  0
    1.6237    0.7009   -0.8486 O   0  0  0  0  0  0  0  0  0  0  0  0
    0.6563   -0.0532   -1.4861 C   0  0  0  0  0  0  0  0  0  0  0  0
   -0.2031   -0.7047   -0.4179 C   0  0  0  0  0  0  0  0  0  0  0  0
   -0.8667    0.2958    0.4624 C   0  0  0  0  0  0  0  0  0  0  0  0
   -1.7515   -0.0729    1.5729 C   0  0  0  0  0  0  0  0  0  0  0  0
   -2.3633    0.4366    0.2854 C   0  0  0  0  0  0  0  0  0  0  0  0
   -3.0901   -0.6384   -0.5003 C   0  0  0  0  0  0  0  0  0  0  0  0
    2.9354    1.5688    1.3841 H   0  0  0  0  0  0  0  0  0  0  0  0
    3.7374    1.7098   -0.2362 H   0  0  0  0  0  0  0  0  0  0  0  0
    4.3069    0.4284    0.9349 H   0  0  0  0  0  0  0  0  0  0  0  0
    1.9712   -0.4630    0.8637 H   0  0  0  0  0  0  0  0  0  0  0  0
    3.0657   -0.7600   -0.5255 H   0  0  0  0  0  0  0  0  0  0  0  0
    0.0704    0.5384   -2.1929 H   0  0  0  0  0  0  0  0  0  0  0  0
    1.1922   -0.8235   -2.0880 H   0  0  0  0  0  0  0  0  0  0  0  0
    0.3397   -1.4380    0.1738 H   0  0  0  0  0  0  0  0  0  0  0  0
   -0.9985   -1.2545   -0.9927 H   0  0  0  0  0  0  0  0  0  0  0  0
   -0.2651    1.2358    0.5775 H   0  0  0  0  0  0  0  0  0  0  0  0
   -1.9267   -1.1218    1.8766 H   0  0  0  0  0  0  0  0  0  0  0  0
   -1.8179    0.6333    2.4237 H   0  0  0  0  0  0  0  0  0  0  0  0
   -2.7161    1.4708    0.2266 H   0  0  0  0  0  0  0  0  0  0  0  0
   -2.8104   -1.6425   -0.1492 H   0  0  0  0  0  0  0  0  0  0  0  0
   -2.8062   -0.5047   -1.5639 H   0  0  0  0  0  0  0  0  0  0  0  0
   -4.1904   -0.5579   -0.3521 H   0  0  0  0  0  0  0  0  0  0  0  0
  1  2  1  0
  2  3  1  0
  3  4  1  0
  4  5  1  0
  5  6  1  0
  6  7  1  0
  7  8  1  0
  8  9  1  0
  8  6  1  0
  1 10  1  0
  1 11  1  0
  1 12  1  0
  2 13  1  0
  2 14  1  0
  4 15  1  0
  4 16  1  0
  5 17  1  0
  5 18  1  0
  6 19  1  0
  7 20  1  0
  7 21  1  0
  8 22  1  0
  9 23  1  0
  9 24  1  0
  9 25  1  0
M  END
