
     RDKit          3D

 23 22  0  0  0  0  0  0  0  0999 V2000
    3.1633   -0.0910    0.1454 C   0  0  0  0  0  0  0  0  0  0  0  0
    2.3522    1.1664    0.0327 C   0  0  0  0  0  0  0  0  0  0  0  0
    1.0001    0.8589   -0.3146 O   0  0  0  0  0  0  0  0  0  0  0  0
    0.1760    0.0818    0.4423 C   0  0  0  0  0  0  0  0  0  0  0  0
    0.6381   -0.3973    1.5206 O   0  0  0  0  0  0  0  0  0  0  0  0
   -1.2288   -0.1894    0.0021 C   0  0  0  0  0  0  0  0  0  0  0  0
   -1.1564   -0.8885   -1.3475 C   0  0  0  0  0  0  0  0  0  0  0  0
   -2.0202    1.0712   -0.1846 C   0  0  0  0  0  0  0  0  0  0  0  0
   -1.9574   -1.0552    0.9957 C   0  0  0  0  0  0  0  0  0  0  0  0
    3.9571   -0.1901   -0.5958 H   0  0  0  0  0  0  0  0  0  0  0  0
    3.6424   -0.0801    1.1536 H   0  0  0  0  0  0  0  0  0  0  0  0
    2.5275   -1.0195    0.0761 H   0  0  0  0  0  0  0  0  0  0  0  0
    2.7570    1.7422   -0.8462 H   0  0  0  0  0  0  0  0  0  0  0  0
    2.4239    1.8249    0.9014 H   0  0  0  0  0  0  0  0  0  0  0  0
   -0.3101   -1.6024   -1.2740 H   0  0  0  0  0  0  0  0  0  0  0  0
   -0.8402   -0.0919   -2.0766 H   0  0  0  0  0  0  0  0  0  0  0  0
   -2.1112   -1.3555   -1.6281 H   0  0  0  0  0  0  0  0  0  0  0  0
   -1.4029    1.8051   -0.7177 H   0  0  0  0  0  0  0  0  0  0  0  0
   -2.3780    1.4794    0.7835 H   0  0  0  0  0  0  0  0  0  0  0  0
   -2.9109    0.7972   -0.8209 H   0  0  0  0  0  0  0  0  0  0  0  0
   -2.8851   -0.5702    1.3839 H   0  0  0  0  0  0  0  0  0  0  0  0
   -2.1807   -2.0441    0.5244 H   0  0  0  0  0  0  0  0  0  0  0  0
   -1.2559   -1.2519    1.8442 H   0  0  0  0  0  0  0  0  0  0  0  0
  1  2  1  0
  2  3  1  0
  3  4  1  0
  4  5  2  0
  4  6  1  0
  6  7  1  0
  6  8  1  0
  6  9  1  0
  1 10  1  0
  1 11  1  0
  1 12  1  0
  2 13  1  0
  2 14  1  0
  7 15  1  0
  7 16  1  0
  7 17  1  0
  8 18  1  0
  8 19  1  0
  8 20  1  0
  9 21  1  0
  9 22  1  0
  9 23  1  0
M  END
