
     RDKit          3D

 20 20  0  0  0  0  0  0  0  0999 V2000
    3.0908    0.5278    0.3414 C   0  0  0  0  0  0  0  0  0  0  0  0
    1.9212   -0.2791   -0.1176 C   0  0  0  0  0  0  0  0  0  0  0  0
    0.6990    0.3078    0.2167 O   0  0  0  0  0  0  0  0  0  0  0  0
   -0.3500   -0.4571   -0.2185 C   0  0  0  0  0  0  0  0  0  0  0  0
   -1.2348   -0.9459    0.8676 C   0  0  0  0  0  0  0  0  0  0  0  0
   -2.3779   -0.2899    0.9366 C   0  0  0  0  0  0  0  0  0  0  0  0
   -2.3795    0.7370   -0.1254 C   0  0  0  0  0  0  0  0  0  0  0  0
   -1.3331    0.2922   -1.0895 C   0  0  0  0  0  0  0  0  0  0  0  0
    3.9654   -0.1587    0.4324 H   0  0  0  0  0  0  0  0  0  0  0  0
    2.9545    0.9780    1.3482 H   0  0  0  0  0  0  0  0  0  0  0  0
    3.3652    1.2724   -0.4334 H   0  0  0  0  0  0  0  0  0  0  0  0
    1.9449   -0.3264   -1.2378 H   0  0  0  0  0  0  0  0  0  0  0  0
    1.9314   -1.3212    0.2558 H   0  0  0  0  0  0  0  0  0  0  0  0
    0.0424   -1.3681   -0.7371 H   0  0  0  0  0  0  0  0  0  0  0  0
   -0.9834   -1.7677    1.5545 H   0  0  0  0  0  0  0  0  0  0  0  0
   -3.1934   -0.4834    1.6703 H   0  0  0  0  0  0  0  0  0  0  0  0
   -3.3756    0.8468   -0.6115 H   0  0  0  0  0  0  0  0  0  0  0  0
   -2.0600    1.6961    0.3576 H   0  0  0  0  0  0  0  0  0  0  0  0
   -1.7501   -0.4327   -1.8213 H   0  0  0  0  0  0  0  0  0  0  0  0
   -0.8770    1.1720   -1.5891 H   0  0  0  0  0  0  0  0  0  0  0  0
  1  2  1  0
  2  3  1  0
  3  4  1  0
  4  5  1  0
  5  6  2  0
  6  7  1  0
  7  8  1  0
  8  4  1  0
  1  9  1  0
  1 10  1  0
  1 11  1  0
  2 12  1  0
  2 13  1  0
  4 14  1  0
  5 15  1  0
  6 16  1  0
  7 17  1  0
  7 18  1  0
  8 19  1  0
  8 20  1  0
M  END
