
     RDKit          3D

 21 22  0  0  0  0  0  0  0  0999 V2000
    3.4314    0.2861   -0.1385 C   0  0  0  0  0  0  0  0  0  0  0  0
    2.1534   -0.4618    0.1569 C   0  0  0  0  0  0  0  0  0  0  0  0
    1.0402    0.2488   -0.2775 O   0  0  0  0  0  0  0  0  0  0  0  0
   -0.1474   -0.3732   -0.0401 C   0  0  0  0  0  0  0  0  0  0  0  0
   -1.1451   -0.3411   -1.2182 C   0  0  0  0  0  0  0  0  0  0  0  0
   -2.1001   -0.5928   -0.0405 C   0  0  0  0  0  0  0  0  0  0  0  0
   -2.5122    0.3200    0.9548 C   0  0  0  0  0  0  0  0  0  0  0  0
   -3.6035    1.1692    0.6473 O   0  0  0  0  0  0  0  0  0  0  0  0
   -1.2038    0.6108    0.4857 C   0  0  0  0  0  0  0  0  0  0  0  0
    4.3052   -0.3974   -0.1702 H   0  0  0  0  0  0  0  0  0  0  0  0
    3.3790    0.8317   -1.1015 H   0  0  0  0  0  0  0  0  0  0  0  0
    3.6253    0.9852    0.7196 H   0  0  0  0  0  0  0  0  0  0  0  0
    2.1701   -1.4995   -0.2312 H   0  0  0  0  0  0  0  0  0  0  0  0
    2.0664   -0.5503    1.2640 H   0  0  0  0  0  0  0  0  0  0  0  0
   -0.1359   -1.3434    0.4533 H   0  0  0  0  0  0  0  0  0  0  0  0
   -1.2872    0.6422   -1.6652 H   0  0  0  0  0  0  0  0  0  0  0  0
   -1.0760   -1.2006   -1.8892 H   0  0  0  0  0  0  0  0  0  0  0  0
   -1.7872   -1.6056    0.3752 H   0  0  0  0  0  0  0  0  0  0  0  0
   -2.5885    0.0236    2.0458 H   0  0  0  0  0  0  0  0  0  0  0  0
   -3.4147    1.7540   -0.1000 H   0  0  0  0  0  0  0  0  0  0  0  0
   -1.1693    1.4943   -0.2306 H   0  0  0  0  0  0  0  0  0  0  0  0
  1  2  1  0
  2  3  1  0
  3  4  1  0
  4  5  1  0
  5  6  1  0
  6  7  1  0
  7  8  1  0
  7  9  1  0
  9  4  1  0
  9  6  1  0
  1 10  1  0
  1 11  1  0
  1 12  1  0
  2 13  1  0
  2 14  1  0
  4 15  1  0
  5 16  1  0
  5 17  1  0
  6 18  1  0
  7 19  1  0
  8 20  1  0
  9 21  1  0
M  END
