
     RDKit          3D

 25 25  0  0  0  0  0  0  0  0999 V2000
    2.9992   -0.8268    0.2318 C   0  0  0  0  0  0  0  0  0  0  0  0
    1.6534   -1.2478    0.7836 C   0  0  0  0  0  0  0  0  0  0  0  0
    0.8162   -0.1723    0.8972 O   0  0  0  0  0  0  0  0  0  0  0  0
    0.5357    0.4953   -0.2663 C   0  0  0  0  0  0  0  0  0  0  0  0
    1.0526    1.9129   -0.1314 C   0  0  0  0  0  0  0  0  0  0  0  0
   -0.9300    0.4638   -0.6320 C   0  0  0  0  0  0  0  0  0  0  0  0
   -1.8927    1.0437    0.3106 C   0  0  0  0  0  0  0  0  0  0  0  0
   -1.8281   -0.4541    0.0888 C   0  0  0  0  0  0  0  0  0  0  0  0
   -3.0577   -1.0328   -0.5501 C   0  0  0  0  0  0  0  0  0  0  0  0
    2.9863   -0.6824   -0.8665 H   0  0  0  0  0  0  0  0  0  0  0  0
    3.7592   -1.6113    0.5091 H   0  0  0  0  0  0  0  0  0  0  0  0
    3.3550    0.1225    0.6797 H   0  0  0  0  0  0  0  0  0  0  0  0
    1.8135   -1.6561    1.8086 H   0  0  0  0  0  0  0  0  0  0  0  0
    1.2644   -2.0267    0.0984 H   0  0  0  0  0  0  0  0  0  0  0  0
    1.0799   -0.0063   -1.1119 H   0  0  0  0  0  0  0  0  0  0  0  0
    0.5162    2.6149   -0.8025 H   0  0  0  0  0  0  0  0  0  0  0  0
    2.1421    1.8789   -0.4137 H   0  0  0  0  0  0  0  0  0  0  0  0
    0.9827    2.1822    0.9268 H   0  0  0  0  0  0  0  0  0  0  0  0
   -1.1670    0.6164   -1.7168 H   0  0  0  0  0  0  0  0  0  0  0  0
   -2.7963    1.5965   -0.0528 H   0  0  0  0  0  0  0  0  0  0  0  0
   -1.6227    1.3417    1.3447 H   0  0  0  0  0  0  0  0  0  0  0  0
   -1.3924   -1.0950    0.8912 H   0  0  0  0  0  0  0  0  0  0  0  0
   -3.1644   -0.7668   -1.6159 H   0  0  0  0  0  0  0  0  0  0  0  0
   -3.9421   -0.5674   -0.0340 H   0  0  0  0  0  0  0  0  0  0  0  0
   -3.1632   -2.1231   -0.3768 H   0  0  0  0  0  0  0  0  0  0  0  0
  1  2  1  0
  2  3  1  0
  3  4  1  0
  4  5  1  0
  4  6  1  0
  6  7  1  0
  7  8  1  0
  8  9  1  0
  8  6  1  0
  1 10  1  0
  1 11  1  0
  1 12  1  0
  2 13  1  0
  2 14  1  0
  4 15  1  0
  5 16  1  0
  5 17  1  0
  5 18  1  0
  6 19  1  0
  7 20  1  0
  7 21  1  0
  8 22  1  0
  9 23  1  0
  9 24  1  0
  9 25  1  0
M  END
