
     RDKit          3D

 17 18  0  0  0  0  0  0  0  0999 V2000
    2.5980    0.0962    0.6252 C   0  0  0  0  0  0  0  0  0  0  0  0
    1.3395   -0.3069   -0.1578 C   0  0  0  0  0  0  0  0  0  0  0  0
    0.2638    0.0300    0.6060 O   0  0  0  0  0  0  0  0  0  0  0  0
   -0.9612   -0.2403    0.1004 C   0  0  0  0  0  0  0  0  0  0  0  0
   -1.5065    0.2937   -1.1523 C   0  0  0  0  0  0  0  0  0  0  0  0
   -1.9168    0.9880    0.1016 C   0  0  0  0  0  0  0  0  0  0  0  0
   -2.6219    0.2765    1.0760 O   0  0  0  0  0  0  0  0  0  0  0  0
   -1.9218   -0.9356    0.9947 C   0  0  0  0  0  0  0  0  0  0  0  0
   -1.9882   -2.1006    1.4273 O   0  0  0  0  0  0  0  0  0  0  0  0
    2.4288    0.0188    1.7136 H   0  0  0  0  0  0  0  0  0  0  0  0
    3.4242   -0.5552    0.3338 H   0  0  0  0  0  0  0  0  0  0  0  0
    2.7851    1.1803    0.4225 H   0  0  0  0  0  0  0  0  0  0  0  0
    1.3602   -1.4154   -0.2873 H   0  0  0  0  0  0  0  0  0  0  0  0
    1.4127    0.2085   -1.1231 H   0  0  0  0  0  0  0  0  0  0  0  0
   -2.3177   -0.3232   -1.6176 H   0  0  0  0  0  0  0  0  0  0  0  0
   -0.8915    0.8223   -1.8775 H   0  0  0  0  0  0  0  0  0  0  0  0
   -1.4866    1.9629    0.3154 H   0  0  0  0  0  0  0  0  0  0  0  0
  1  2  1  0
  2  3  1  0
  3  4  1  0
  4  5  1  0
  5  6  1  0
  6  7  1  0
  7  8  1  0
  8  9  2  0
  6  4  1  0
  8  4  1  0
  1 10  1  0
  1 11  1  0
  1 12  1  0
  2 13  1  0
  2 14  1  0
  5 15  1  0
  5 16  1  0
  6 17  1  0
M  END
