
     RDKit          3D

 21 22  0  0  0  0  0  0  0  0999 V2000
   -2.5575    0.4617   -0.0262 C   0  0  0  0  0  0  0  0  0  0  0  0
   -2.0062   -0.9211    0.2107 C   0  0  0  0  0  0  0  0  0  0  0  0
   -0.7334   -0.9000    0.6277 O   0  0  0  0  0  0  0  0  0  0  0  0
    0.2750   -0.4216   -0.1366 C   0  0  0  0  0  0  0  0  0  0  0  0
    0.3265    0.9714   -0.6250 C   0  0  0  0  0  0  0  0  0  0  0  0
    1.3938    1.5993   -0.1493 C   0  0  0  0  0  0  0  0  0  0  0  0
    2.1580    0.6858    0.7004 C   0  0  0  0  0  0  0  0  0  0  0  0
    1.6456   -0.6904    0.4932 C   0  0  0  0  0  0  0  0  0  0  0  0
    1.2862   -1.3110   -0.7730 C   0  0  0  0  0  0  0  0  0  0  0  0
   -2.5710    0.6313   -1.1215 H   0  0  0  0  0  0  0  0  0  0  0  0
   -1.9429    1.2295    0.4378 H   0  0  0  0  0  0  0  0  0  0  0  0
   -3.6134    0.5234    0.3725 H   0  0  0  0  0  0  0  0  0  0  0  0
   -2.1551   -1.5826   -0.6751 H   0  0  0  0  0  0  0  0  0  0  0  0
   -2.6239   -1.3717    1.0497 H   0  0  0  0  0  0  0  0  0  0  0  0
   -0.3816    1.4289   -1.2868 H   0  0  0  0  0  0  0  0  0  0  0  0
    1.6407    2.6232   -0.3675 H   0  0  0  0  0  0  0  0  0  0  0  0
    1.9730    0.9818    1.7635 H   0  0  0  0  0  0  0  0  0  0  0  0
    3.2627    0.7698    0.5663 H   0  0  0  0  0  0  0  0  0  0  0  0
    1.7004   -1.3406    1.3916 H   0  0  0  0  0  0  0  0  0  0  0  0
    1.1343   -2.4081   -0.7698 H   0  0  0  0  0  0  0  0  0  0  0  0
    1.7888   -0.9590   -1.6828 H   0  0  0  0  0  0  0  0  0  0  0  0
  1  2  1  0
  2  3  1  0
  3  4  1  0
  4  5  1  0
  5  6  2  0
  6  7  1  0
  7  8  1  0
  8  9  1  0
  8  4  1  0
  9  4  1  0
  1 10  1  0
  1 11  1  0
  1 12  1  0
  2 13  1  0
  2 14  1  0
  5 15  1  0
  6 16  1  0
  7 17  1  0
  7 18  1  0
  8 19  1  0
  9 20  1  0
  9 21  1  0
M  END
