
     RDKit          3D

 17 18  0  0  0  0  0  0  0  0999 V2000
    2.7090    0.2063   -0.1513 C   0  0  0  0  0  0  0  0  0  0  0  0
    1.4388    0.0188    0.6461 C   0  0  0  0  0  0  0  0  0  0  0  0
    0.3658    0.0388   -0.2150 O   0  0  0  0  0  0  0  0  0  0  0  0
   -0.8528   -0.1242    0.4051 C   0  0  0  0  0  0  0  0  0  0  0  0
   -1.7682    1.0057    0.0158 C   0  0  0  0  0  0  0  0  0  0  0  0
   -1.8476    2.1830    0.3188 O   0  0  0  0  0  0  0  0  0  0  0  0
   -2.4758    0.0597   -0.8527 C   0  0  0  0  0  0  0  0  0  0  0  0
   -3.1427   -0.9562   -0.1906 O   0  0  0  0  0  0  0  0  0  0  0  0
   -1.7825   -1.1308   -0.1918 C   0  0  0  0  0  0  0  0  0  0  0  0
    3.1725   -0.7740   -0.3817 H   0  0  0  0  0  0  0  0  0  0  0  0
    2.4557    0.6824   -1.1176 H   0  0  0  0  0  0  0  0  0  0  0  0
    3.4208    0.8918    0.3560 H   0  0  0  0  0  0  0  0  0  0  0  0
    1.3761    0.9032    1.3358 H   0  0  0  0  0  0  0  0  0  0  0  0
    1.4801   -0.8873    1.2799 H   0  0  0  0  0  0  0  0  0  0  0  0
   -0.8024   -0.2496    1.5162 H   0  0  0  0  0  0  0  0  0  0  0  0
   -2.3727    0.0641   -1.9342 H   0  0  0  0  0  0  0  0  0  0  0  0
   -1.3740   -1.9317   -0.8386 H   0  0  0  0  0  0  0  0  0  0  0  0
  1  2  1  0
  2  3  1  0
  3  4  1  0
  4  5  1  0
  5  6  2  0
  5  7  1  0
  7  8  1  0
  8  9  1  0
  9  4  1  0
  9  7  1  0
  1 10  1  0
  1 11  1  0
  1 12  1  0
  2 13  1  0
  2 14  1  0
  4 15  1  0
  7 16  1  0
  9 17  1  0
M  END
