
     RDKit          3D

 25 25  0  0  0  0  0  0  0  0999 V2000
   -3.7419    0.3060   -0.0663 C   0  0  0  0  0  0  0  0  0  0  0  0
   -2.3848    0.2875    0.6116 C   0  0  0  0  0  0  0  0  0  0  0  0
   -1.4799   -0.1060   -0.3564 O   0  0  0  0  0  0  0  0  0  0  0  0
   -0.1550   -0.1634    0.1586 C   0  0  0  0  0  0  0  0  0  0  0  0
    0.1710   -1.6359    0.0682 C   0  0  0  0  0  0  0  0  0  0  0  0
    0.6381    0.7208   -0.7210 C   0  0  0  0  0  0  0  0  0  0  0  0
    2.0675    0.9124   -0.4774 C   0  0  0  0  0  0  0  0  0  0  0  0
    2.9909   -0.2613   -0.5292 C   0  0  0  0  0  0  0  0  0  0  0  0
    2.7814    0.4927    0.7399 C   0  0  0  0  0  0  0  0  0  0  0  0
   -4.0233   -0.6930   -0.4610 H   0  0  0  0  0  0  0  0  0  0  0  0
   -3.6964    0.9838   -0.9606 H   0  0  0  0  0  0  0  0  0  0  0  0
   -4.5482    0.6576    0.5793 H   0  0  0  0  0  0  0  0  0  0  0  0
   -2.4625   -0.4246    1.4569 H   0  0  0  0  0  0  0  0  0  0  0  0
   -2.2132    1.3010    1.0047 H   0  0  0  0  0  0  0  0  0  0  0  0
   -0.1519    0.1237    1.2300 H   0  0  0  0  0  0  0  0  0  0  0  0
   -0.7707   -2.2137    0.3282 H   0  0  0  0  0  0  0  0  0  0  0  0
    0.4031   -1.8831   -0.9644 H   0  0  0  0  0  0  0  0  0  0  0  0
    0.8951   -1.9672    0.8303 H   0  0  0  0  0  0  0  0  0  0  0  0
    0.5102    0.3446   -1.7768 H   0  0  0  0  0  0  0  0  0  0  0  0
    0.1031    1.7183   -0.7457 H   0  0  0  0  0  0  0  0  0  0  0  0
    2.4939    1.8305   -0.9861 H   0  0  0  0  0  0  0  0  0  0  0  0
    2.6648   -1.2953   -0.5699 H   0  0  0  0  0  0  0  0  0  0  0  0
    3.9932   -0.1348   -1.0533 H   0  0  0  0  0  0  0  0  0  0  0  0
    3.6485    1.0995    1.0701 H   0  0  0  0  0  0  0  0  0  0  0  0
    2.2668   -0.0001    1.5903 H   0  0  0  0  0  0  0  0  0  0  0  0
  1  2  1  0
  2  3  1  0
  3  4  1  0
  4  5  1  0
  4  6  1  0
  6  7  1  0
  7  8  1  0
  8  9  1  0
  9  7  1  0
  1 10  1  0
  1 11  1  0
  1 12  1  0
  2 13  1  0
  2 14  1  0
  4 15  1  0
  5 16  1  0
  5 17  1  0
  5 18  1  0
  6 19  1  0
  6 20  1  0
  7 21  1  0
  8 22  1  0
  8 23  1  0
  9 24  1  0
  9 25  1  0
M  END
