
     RDKit          3D

 23 22  0  0  0  0  0  0  0  0999 V2000
    3.3320    0.1718    0.4201 C   0  0  0  0  0  0  0  0  0  0  0  0
    1.9062   -0.3780    0.3100 C   0  0  0  0  0  0  0  0  0  0  0  0
    1.3000    0.0393   -0.8410 O   0  0  0  0  0  0  0  0  0  0  0  0
    0.0353   -0.3950   -1.0867 C   0  0  0  0  0  0  0  0  0  0  0  0
   -1.0203   -0.0473   -0.1042 C   0  0  0  0  0  0  0  0  0  0  0  0
   -2.3437   -0.6133   -0.6289 C   0  0  0  0  0  0  0  0  0  0  0  0
   -0.8093   -0.5454    1.1721 O   0  0  0  0  0  0  0  0  0  0  0  0
   -1.2308    1.4440    0.0451 C   0  0  0  0  0  0  0  0  0  0  0  0
   -2.3571    1.5997    0.8746 O   0  0  0  0  0  0  0  0  0  0  0  0
    3.6105    0.1260    1.4873 H   0  0  0  0  0  0  0  0  0  0  0  0
    4.0421   -0.5269   -0.1116 H   0  0  0  0  0  0  0  0  0  0  0  0
    3.4246    1.1805    0.0197 H   0  0  0  0  0  0  0  0  0  0  0  0
    1.3741    0.1124    1.1763 H   0  0  0  0  0  0  0  0  0  0  0  0
    1.9935   -1.4695    0.4333 H   0  0  0  0  0  0  0  0  0  0  0  0
   -0.2745    0.0007   -2.0857 H   0  0  0  0  0  0  0  0  0  0  0  0
    0.0437   -1.5271   -1.1444 H   0  0  0  0  0  0  0  0  0  0  0  0
   -3.1334    0.1618   -0.7014 H   0  0  0  0  0  0  0  0  0  0  0  0
   -2.2296   -1.0348   -1.6478 H   0  0  0  0  0  0  0  0  0  0  0  0
   -2.6639   -1.4519    0.0190 H   0  0  0  0  0  0  0  0  0  0  0  0
   -0.8516   -1.5333    1.1774 H   0  0  0  0  0  0  0  0  0  0  0  0
   -0.3524    1.8698    0.5561 H   0  0  0  0  0  0  0  0  0  0  0  0
   -1.4798    1.9411   -0.9022 H   0  0  0  0  0  0  0  0  0  0  0  0
   -2.3156    0.8755    1.5630 H   0  0  0  0  0  0  0  0  0  0  0  0
  1  2  1  0
  2  3  1  0
  3  4  1  0
  4  5  1  0
  5  6  1  0
  5  7  1  0
  5  8  1  0
  8  9  1  0
  1 10  1  0
  1 11  1  0
  1 12  1  0
  2 13  1  0
  2 14  1  0
  4 15  1  0
  4 16  1  0
  6 17  1  0
  6 18  1  0
  6 19  1  0
  7 20  1  0
  8 21  1  0
  8 22  1  0
  9 23  1  0
M  END
