
     RDKit          3D

 17 16  0  0  0  0  0  0  0  0999 V2000
   -2.2235    0.8217   -0.4533 C   0  0  0  0  0  0  0  0  0  0  0  0
   -1.3022    0.8861    0.7404 C   0  0  0  0  0  0  0  0  0  0  0  0
   -0.0128    0.3526    0.4475 O   0  0  0  0  0  0  0  0  0  0  0  0
    0.1367   -0.9728    0.0390 C   0  0  0  0  0  0  0  0  0  0  0  0
   -0.9210   -1.6473   -0.0503 O   0  0  0  0  0  0  0  0  0  0  0  0
    1.4583   -1.5732   -0.2771 C   0  0  0  0  0  0  0  0  0  0  0  0
    2.5114   -0.6725   -0.1203 O   0  0  0  0  0  0  0  0  0  0  0  0
    2.5856    0.5059   -0.8437 C   0  0  0  0  0  0  0  0  0  0  0  0
    1.6358    0.7186   -1.6605 O   0  0  0  0  0  0  0  0  0  0  0  0
   -2.8771    1.7110   -0.4383 H   0  0  0  0  0  0  0  0  0  0  0  0
   -1.6282    0.8167   -1.3988 H   0  0  0  0  0  0  0  0  0  0  0  0
   -2.8841   -0.0783   -0.4108 H   0  0  0  0  0  0  0  0  0  0  0  0
   -1.1382    1.9613    0.9806 H   0  0  0  0  0  0  0  0  0  0  0  0
   -1.7622    0.4069    1.6199 H   0  0  0  0  0  0  0  0  0  0  0  0
    1.4014   -2.0679   -1.2483 H   0  0  0  0  0  0  0  0  0  0  0  0
    1.6111   -2.3900    0.4858 H   0  0  0  0  0  0  0  0  0  0  0  0
    3.4092    1.2210   -0.7281 H   0  0  0  0  0  0  0  0  0  0  0  0
  1  2  1  0
  2  3  1  0
  3  4  1  0
  4  5  2  0
  4  6  1  0
  6  7  1  0
  7  8  1  0
  8  9  2  0
  1 10  1  0
  1 11  1  0
  1 12  1  0
  2 13  1  0
  2 14  1  0
  6 15  1  0
  6 16  1  0
  8 17  1  0
M  END
