
     RDKit          3D

 19 19  0  0  0  0  0  0  0  0999 V2000
    2.8895    0.4153   -0.4391 C   0  0  0  0  0  0  0  0  0  0  0  0
    1.4040    0.4708   -0.1364 C   0  0  0  0  0  0  0  0  0  0  0  0
    1.1078   -0.3039    0.9683 O   0  0  0  0  0  0  0  0  0  0  0  0
   -0.2636   -0.2282    1.2150 C   0  0  0  0  0  0  0  0  0  0  0  0
   -1.0171   -0.7399    0.0133 C   0  0  0  0  0  0  0  0  0  0  0  0
   -2.5391   -0.6980    0.1857 C   0  0  0  0  0  0  0  0  0  0  0  0
   -1.8477    0.2525   -0.7371 C   0  0  0  0  0  0  0  0  0  0  0  0
    3.0465    0.4523   -1.5303 H   0  0  0  0  0  0  0  0  0  0  0  0
    3.4445    1.2581    0.0002 H   0  0  0  0  0  0  0  0  0  0  0  0
    3.2887   -0.5556   -0.0566 H   0  0  0  0  0  0  0  0  0  0  0  0
    0.8821    0.0611   -1.0195 H   0  0  0  0  0  0  0  0  0  0  0  0
    1.1532    1.5313    0.0238 H   0  0  0  0  0  0  0  0  0  0  0  0
   -0.5005   -0.8247    2.1343 H   0  0  0  0  0  0  0  0  0  0  0  0
   -0.5537    0.8193    1.4576 H   0  0  0  0  0  0  0  0  0  0  0  0
   -0.5882   -1.5524   -0.5761 H   0  0  0  0  0  0  0  0  0  0  0  0
   -3.1324   -1.5394   -0.2182 H   0  0  0  0  0  0  0  0  0  0  0  0
   -2.9497   -0.2288    1.0994 H   0  0  0  0  0  0  0  0  0  0  0  0
   -1.7369    1.3126   -0.4584 H   0  0  0  0  0  0  0  0  0  0  0  0
   -2.0874    0.0977   -1.8096 H   0  0  0  0  0  0  0  0  0  0  0  0
  1  2  1  0
  2  3  1  0
  3  4  1  0
  4  5  1  0
  5  6  1  0
  6  7  1  0
  7  5  1  0
  1  8  1  0
  1  9  1  0
  1 10  1  0
  2 11  1  0
  2 12  1  0
  4 13  1  0
  4 14  1  0
  5 15  1  0
  6 16  1  0
  6 17  1  0
  7 18  1  0
  7 19  1  0
M  END
