
     RDKit          3D

 21 22  0  0  0  0  0  0  0  0999 V2000
    3.2292    0.0180    0.2967 C   0  0  0  0  0  0  0  0  0  0  0  0
    1.9824    0.3469   -0.5086 C   0  0  0  0  0  0  0  0  0  0  0  0
    0.8682    0.0213    0.2563 O   0  0  0  0  0  0  0  0  0  0  0  0
   -0.3214    0.2643   -0.3424 C   0  0  0  0  0  0  0  0  0  0  0  0
   -1.2736   -0.9313   -0.2070 C   0  0  0  0  0  0  0  0  0  0  0  0
   -2.4962   -0.3608   -0.8397 C   0  0  0  0  0  0  0  0  0  0  0  0
   -2.5543    0.8899   -0.1695 O   0  0  0  0  0  0  0  0  0  0  0  0
   -1.3883    0.9160    0.5466 C   0  0  0  0  0  0  0  0  0  0  0  0
   -1.4381   -0.4539    1.2407 C   0  0  0  0  0  0  0  0  0  0  0  0
    3.2882    0.7472    1.1277 H   0  0  0  0  0  0  0  0  0  0  0  0
    3.1396   -0.9998    0.7491 H   0  0  0  0  0  0  0  0  0  0  0  0
    4.1454    0.0797   -0.3322 H   0  0  0  0  0  0  0  0  0  0  0  0
    1.9542    1.4465   -0.6856 H   0  0  0  0  0  0  0  0  0  0  0  0
    1.9929   -0.1667   -1.4838 H   0  0  0  0  0  0  0  0  0  0  0  0
   -0.3552    0.6818   -1.3432 H   0  0  0  0  0  0  0  0  0  0  0  0
   -0.9179   -1.8941   -0.3947 H   0  0  0  0  0  0  0  0  0  0  0  0
   -3.4000   -0.9440   -0.6832 H   0  0  0  0  0  0  0  0  0  0  0  0
   -2.2960   -0.0986   -1.8971 H   0  0  0  0  0  0  0  0  0  0  0  0
   -1.1030    1.7500    1.1284 H   0  0  0  0  0  0  0  0  0  0  0  0
   -0.5971   -0.6671    1.8963 H   0  0  0  0  0  0  0  0  0  0  0  0
   -2.4589   -0.6454    1.6453 H   0  0  0  0  0  0  0  0  0  0  0  0
  1  2  1  0
  2  3  1  0
  3  4  1  0
  4  5  1  0
  5  6  1  0
  6  7  1  0
  7  8  1  0
  8  9  1  0
  8  4  1  0
  9  5  1  0
  1 10  1  0
  1 11  1  0
  1 12  1  0
  2 13  1  0
  2 14  1  0
  4 15  1  0
  5 16  1  0
  6 17  1  0
  6 18  1  0
  8 19  1  0
  9 20  1  0
  9 21  1  0
M  END
