
     RDKit          3D

 21 20  0  0  0  0  0  0  0  0999 V2000
   -2.7503    0.8659    0.0560 C   0  0  0  0  0  0  0  0  0  0  0  0
   -2.5347   -0.6093    0.1786 C   0  0  0  0  0  0  0  0  0  0  0  0
   -1.6236   -0.9820    1.1306 O   0  0  0  0  0  0  0  0  0  0  0  0
   -0.3572   -0.4833    0.9383 C   0  0  0  0  0  0  0  0  0  0  0  0
    0.2473   -0.9238   -0.3778 C   0  0  0  0  0  0  0  0  0  0  0  0
    1.5974   -0.3807   -0.5620 C   0  0  0  0  0  0  0  0  0  0  0  0
    2.2191   -0.6681   -1.6169 O   0  0  0  0  0  0  0  0  0  0  0  0
    2.2373    0.4394    0.3666 O   0  0  0  0  0  0  0  0  0  0  0  0
    3.5536    0.9145    0.0889 C   0  0  0  0  0  0  0  0  0  0  0  0
   -2.5183    1.2475   -0.9777 H   0  0  0  0  0  0  0  0  0  0  0  0
   -2.1154    1.4183    0.7587 H   0  0  0  0  0  0  0  0  0  0  0  0
   -3.8112    1.1689    0.2796 H   0  0  0  0  0  0  0  0  0  0  0  0
   -3.5206   -1.0587    0.4743 H   0  0  0  0  0  0  0  0  0  0  0  0
   -2.3094   -1.0655   -0.8188 H   0  0  0  0  0  0  0  0  0  0  0  0
   -0.2648    0.6054    1.0314 H   0  0  0  0  0  0  0  0  0  0  0  0
    0.2935   -0.9479    1.7362 H   0  0  0  0  0  0  0  0  0  0  0  0
    0.3296   -2.0355   -0.3912 H   0  0  0  0  0  0  0  0  0  0  0  0
   -0.3759   -0.5635   -1.2322 H   0  0  0  0  0  0  0  0  0  0  0  0
    4.0104    0.2335   -0.6822 H   0  0  0  0  0  0  0  0  0  0  0  0
    3.4835    1.9344   -0.3172 H   0  0  0  0  0  0  0  0  0  0  0  0
    4.2097    0.8907    0.9623 H   0  0  0  0  0  0  0  0  0  0  0  0
  1  2  1  0
  2  3  1  0
  3  4  1  0
  4  5  1  0
  5  6  1  0
  6  7  2  0
  6  8  1  0
  8  9  1  0
  1 10  1  0
  1 11  1  0
  1 12  1  0
  2 13  1  0
  2 14  1  0
  4 15  1  0
  4 16  1  0
  5 17  1  0
  5 18  1  0
  9 19  1  0
  9 20  1  0
  9 21  1  0
M  END
