
     RDKit          3D

 23 24  0  0  0  0  0  0  0  0999 V2000
    3.4539    0.5540   -0.4539 C   0  0  0  0  0  0  0  0  0  0  0  0
    2.3406   -0.0771    0.3820 C   0  0  0  0  0  0  0  0  0  0  0  0
    1.1487    0.2818   -0.2013 O   0  0  0  0  0  0  0  0  0  0  0  0
    0.0526   -0.2415    0.4815 C   0  0  0  0  0  0  0  0  0  0  0  0
   -0.7032   -1.0903   -0.5009 C   0  0  0  0  0  0  0  0  0  0  0  0
   -2.1622   -0.8754   -0.2040 C   0  0  0  0  0  0  0  0  0  0  0  0
   -2.8719    0.3201   -0.7294 C   0  0  0  0  0  0  0  0  0  0  0  0
   -2.2959    0.3503    0.6259 C   0  0  0  0  0  0  0  0  0  0  0  0
   -0.9101    0.8397    0.8941 C   0  0  0  0  0  0  0  0  0  0  0  0
    3.0855    1.5406   -0.8001 H   0  0  0  0  0  0  0  0  0  0  0  0
    3.6567   -0.1171   -1.2936 H   0  0  0  0  0  0  0  0  0  0  0  0
    4.3459    0.7654    0.1773 H   0  0  0  0  0  0  0  0  0  0  0  0
    2.4219    0.2350    1.4564 H   0  0  0  0  0  0  0  0  0  0  0  0
    2.5032   -1.1940    0.3725 H   0  0  0  0  0  0  0  0  0  0  0  0
    0.4040   -0.8353    1.3509 H   0  0  0  0  0  0  0  0  0  0  0  0
   -0.4340   -2.1548   -0.2967 H   0  0  0  0  0  0  0  0  0  0  0  0
   -0.4327   -0.9011   -1.5525 H   0  0  0  0  0  0  0  0  0  0  0  0
   -2.7285   -1.7513    0.1462 H   0  0  0  0  0  0  0  0  0  0  0  0
   -2.4574    0.9377   -1.5375 H   0  0  0  0  0  0  0  0  0  0  0  0
   -3.9786    0.2080   -0.7917 H   0  0  0  0  0  0  0  0  0  0  0  0
   -3.0122    0.3783    1.4932 H   0  0  0  0  0  0  0  0  0  0  0  0
   -0.7676    1.0406    1.9763 H   0  0  0  0  0  0  0  0  0  0  0  0
   -0.6587    1.7863    0.3576 H   0  0  0  0  0  0  0  0  0  0  0  0
  1  2  1  0
  2  3  1  0
  3  4  1  0
  4  5  1  0
  5  6  1  0
  6  7  1  0
  7  8  1  0
  8  9  1  0
  9  4  1  0
  8  6  1  0
  1 10  1  0
  1 11  1  0
  1 12  1  0
  2 13  1  0
  2 14  1  0
  4 15  1  0
  5 16  1  0
  5 17  1  0
  6 18  1  0
  7 19  1  0
  7 20  1  0
  8 21  1  0
  9 22  1  0
  9 23  1  0
M  END
