
     RDKit          3D

 16 15  0  0  0  0  0  0  0  0999 V2000
   -2.1984    0.5722   -0.5666 C   0  0  0  0  0  0  0  0  0  0  0  0
   -1.6739   -0.0904    0.6699 C   0  0  0  0  0  0  0  0  0  0  0  0
   -0.2644   -0.1017    0.7668 O   0  0  0  0  0  0  0  0  0  0  0  0
    0.5289   -0.6759   -0.2042 C   0  0  0  0  0  0  0  0  0  0  0  0
   -0.0833   -1.1840   -1.1953 O   0  0  0  0  0  0  0  0  0  0  0  0
    2.0287   -0.7000   -0.1009 C   0  0  0  0  0  0  0  0  0  0  0  0
    2.5851    0.6553   -0.2211 C   0  0  0  0  0  0  0  0  0  0  0  0
    2.6504    1.4168    0.7355 O   0  0  0  0  0  0  0  0  0  0  0  0
   -3.2977    0.7377   -0.3968 H   0  0  0  0  0  0  0  0  0  0  0  0
   -2.1180   -0.0989   -1.4553 H   0  0  0  0  0  0  0  0  0  0  0  0
   -1.6676    1.4899   -0.8238 H   0  0  0  0  0  0  0  0  0  0  0  0
   -2.1693   -1.0420    0.8052 H   0  0  0  0  0  0  0  0  0  0  0  0
   -2.0044    0.5390    1.5506 H   0  0  0  0  0  0  0  0  0  0  0  0
    2.3588   -1.2410    0.7910 H   0  0  0  0  0  0  0  0  0  0  0  0
    2.3714   -1.2903   -0.9784 H   0  0  0  0  0  0  0  0  0  0  0  0
    2.9537    1.0134   -1.1732 H   0  0  0  0  0  0  0  0  0  0  0  0
  1  2  1  0
  2  3  1  0
  3  4  1  0
  4  5  2  0
  4  6  1  0
  6  7  1  0
  7  8  2  0
  1  9  1  0
  1 10  1  0
  1 11  1  0
  2 12  1  0
  2 13  1  0
  6 14  1  0
  6 15  1  0
  7 16  1  0
M  END
