
     RDKit          3D

 23 23  0  0  0  0  0  0  0  0999 V2000
    3.7410   -0.4787    0.1437 C   0  0  0  0  0  0  0  0  0  0  0  0
    2.3834   -0.4435   -0.5244 C   0  0  0  0  0  0  0  0  0  0  0  0
    1.4348    0.0637    0.3521 O   0  0  0  0  0  0  0  0  0  0  0  0
    0.1746    0.1305   -0.1732 C   0  0  0  0  0  0  0  0  0  0  0  0
   -0.3949    1.5331   -0.1787 C   0  0  0  0  0  0  0  0  0  0  0  0
   -1.8569    1.2782   -0.2309 C   0  0  0  0  0  0  0  0  0  0  0  0
   -2.1235    0.0626    0.2053 C   0  0  0  0  0  0  0  0  0  0  0  0
   -3.5007   -0.5341    0.2920 C   0  0  0  0  0  0  0  0  0  0  0  0
   -0.8591   -0.6312    0.5990 C   0  0  0  0  0  0  0  0  0  0  0  0
    4.3237   -1.3647   -0.1924 H   0  0  0  0  0  0  0  0  0  0  0  0
    4.3045    0.4596   -0.1075 H   0  0  0  0  0  0  0  0  0  0  0  0
    3.5786   -0.5100    1.2378 H   0  0  0  0  0  0  0  0  0  0  0  0
    2.1568   -1.4678   -0.8536 H   0  0  0  0  0  0  0  0  0  0  0  0
    2.4966    0.1932   -1.4323 H   0  0  0  0  0  0  0  0  0  0  0  0
    0.1327   -0.2420   -1.2340 H   0  0  0  0  0  0  0  0  0  0  0  0
   -0.0790    2.1174   -1.0628 H   0  0  0  0  0  0  0  0  0  0  0  0
   -0.1657    2.0932    0.7440 H   0  0  0  0  0  0  0  0  0  0  0  0
   -2.6134    1.9975   -0.5825 H   0  0  0  0  0  0  0  0  0  0  0  0
   -4.0696    0.0481    1.0470 H   0  0  0  0  0  0  0  0  0  0  0  0
   -3.4464   -1.5707    0.6709 H   0  0  0  0  0  0  0  0  0  0  0  0
   -3.9956   -0.5616   -0.6996 H   0  0  0  0  0  0  0  0  0  0  0  0
   -0.6958   -0.4749    1.6675 H   0  0  0  0  0  0  0  0  0  0  0  0
   -0.9262   -1.6978    0.3126 H   0  0  0  0  0  0  0  0  0  0  0  0
  1  2  1  0
  2  3  1  0
  3  4  1  0
  4  5  1  0
  5  6  1  0
  6  7  2  0
  7  8  1  0
  7  9  1  0
  9  4  1  0
  1 10  1  0
  1 11  1  0
  1 12  1  0
  2 13  1  0
  2 14  1  0
  4 15  1  0
  5 16  1  0
  5 17  1  0
  6 18  1  0
  8 19  1  0
  8 20  1  0
  8 21  1  0
  9 22  1  0
  9 23  1  0
M  END
