
     RDKit          3D

 21 22  0  0  0  0  0  0  0  0999 V2000
    3.1917   -0.0402    0.0210 C   0  0  0  0  0  0  0  0  0  0  0  0
    1.7700    0.2668   -0.4892 C   0  0  0  0  0  0  0  0  0  0  0  0
    0.9308   -0.0879    0.5197 O   0  0  0  0  0  0  0  0  0  0  0  0
   -0.4155    0.0722    0.3208 C   0  0  0  0  0  0  0  0  0  0  0  0
   -1.3131   -0.3278    1.4442 C   0  0  0  0  0  0  0  0  0  0  0  0
   -2.5075   -0.8772    0.7789 C   0  0  0  0  0  0  0  0  0  0  0  0
   -2.3881   -0.7871   -0.5350 C   0  0  0  0  0  0  0  0  0  0  0  0
   -1.1000   -0.1659   -0.9406 C   0  0  0  0  0  0  0  0  0  0  0  0
   -0.8706    1.2323   -0.5526 C   0  0  0  0  0  0  0  0  0  0  0  0
    3.6406    0.8495    0.4671 H   0  0  0  0  0  0  0  0  0  0  0  0
    3.8194   -0.4279   -0.8116 H   0  0  0  0  0  0  0  0  0  0  0  0
    3.1590   -0.8312    0.7928 H   0  0  0  0  0  0  0  0  0  0  0  0
    1.8027    1.3437   -0.7467 H   0  0  0  0  0  0  0  0  0  0  0  0
    1.6196   -0.3808   -1.3759 H   0  0  0  0  0  0  0  0  0  0  0  0
   -0.7824   -1.0864    2.0735 H   0  0  0  0  0  0  0  0  0  0  0  0
   -1.5921    0.5694    2.0579 H   0  0  0  0  0  0  0  0  0  0  0  0
   -3.3878   -1.3078    1.2915 H   0  0  0  0  0  0  0  0  0  0  0  0
   -3.1736   -1.1418   -1.2309 H   0  0  0  0  0  0  0  0  0  0  0  0
   -0.5844   -0.5731   -1.8459 H   0  0  0  0  0  0  0  0  0  0  0  0
   -0.1148    1.8329   -1.0895 H   0  0  0  0  0  0  0  0  0  0  0  0
   -1.7038    1.8682   -0.1497 H   0  0  0  0  0  0  0  0  0  0  0  0
  1  2  1  0
  2  3  1  0
  3  4  1  0
  4  5  1  0
  5  6  1  0
  6  7  2  0
  7  8  1  0
  8  9  1  0
  8  4  1  0
  9  4  1  0
  1 10  1  0
  1 11  1  0
  1 12  1  0
  2 13  1  0
  2 14  1  0
  5 15  1  0
  5 16  1  0
  6 17  1  0
  7 18  1  0
  8 19  1  0
  9 20  1  0
  9 21  1  0
M  END
