
     RDKit          3D

 23 23  0  0  0  0  0  0  0  0999 V2000
    3.0208    0.8035   -0.1328 C   0  0  0  0  0  0  0  0  0  0  0  0
    1.8397    0.0330   -0.6024 C   0  0  0  0  0  0  0  0  0  0  0  0
    0.7893    0.0007    0.3075 O   0  0  0  0  0  0  0  0  0  0  0  0
   -0.2216   -0.7615   -0.3034 C   0  0  0  0  0  0  0  0  0  0  0  0
   -0.5324   -1.8638    0.6516 C   0  0  0  0  0  0  0  0  0  0  0  0
   -1.4386   -1.4299    1.5171 C   0  0  0  0  0  0  0  0  0  0  0  0
   -1.8058   -0.0195    1.2177 C   0  0  0  0  0  0  0  0  0  0  0  0
   -1.5414   -0.0224   -0.2957 C   0  0  0  0  0  0  0  0  0  0  0  0
   -1.4349    1.3654   -0.8429 C   0  0  0  0  0  0  0  0  0  0  0  0
    3.7863    0.1025    0.2318 H   0  0  0  0  0  0  0  0  0  0  0  0
    3.4815    1.3458   -1.0029 H   0  0  0  0  0  0  0  0  0  0  0  0
    2.7931    1.5070    0.6947 H   0  0  0  0  0  0  0  0  0  0  0  0
    1.4360    0.5463   -1.5175 H   0  0  0  0  0  0  0  0  0  0  0  0
    2.1691   -0.9711   -0.9137 H   0  0  0  0  0  0  0  0  0  0  0  0
    0.0571   -1.1255   -1.3023 H   0  0  0  0  0  0  0  0  0  0  0  0
   -0.0533   -2.8385    0.5861 H   0  0  0  0  0  0  0  0  0  0  0  0
   -1.8412   -2.0258    2.3172 H   0  0  0  0  0  0  0  0  0  0  0  0
   -2.8414    0.2268    1.4483 H   0  0  0  0  0  0  0  0  0  0  0  0
   -1.0773    0.7048    1.6489 H   0  0  0  0  0  0  0  0  0  0  0  0
   -2.2812   -0.6588   -0.7987 H   0  0  0  0  0  0  0  0  0  0  0  0
   -2.4439    1.7731   -0.9748 H   0  0  0  0  0  0  0  0  0  0  0  0
   -0.9037    1.9901   -0.1049 H   0  0  0  0  0  0  0  0  0  0  0  0
   -0.9561    1.3180   -1.8289 H   0  0  0  0  0  0  0  0  0  0  0  0
  1  2  1  0
  2  3  1  0
  3  4  1  0
  4  5  1  0
  5  6  2  0
  6  7  1  0
  7  8  1  0
  8  9  1  0
  8  4  1  0
  1 10  1  0
  1 11  1  0
  1 12  1  0
  2 13  1  0
  2 14  1  0
  4 15  1  0
  5 16  1  0
  6 17  1  0
  7 18  1  0
  7 19  1  0
  8 20  1  0
  9 21  1  0
  9 22  1  0
  9 23  1  0
M  END
