
     RDKit          3D

 23 23  0  0  0  0  0  0  0  0999 V2000
    2.3302   -1.0792    0.5641 C   0  0  0  0  0  0  0  0  0  0  0  0
    2.0913   -0.0513   -0.5024 C   0  0  0  0  0  0  0  0  0  0  0  0
    1.1908    0.8911   -0.1981 O   0  0  0  0  0  0  0  0  0  0  0  0
   -0.0993    0.6598    0.0336 C   0  0  0  0  0  0  0  0  0  0  0  0
   -0.8268    1.9728    0.3638 C   0  0  0  0  0  0  0  0  0  0  0  0
   -0.8887    0.0018   -1.1112 C   0  0  0  0  0  0  0  0  0  0  0  0
   -1.8719   -0.3911    0.0008 C   0  0  0  0  0  0  0  0  0  0  0  0
   -2.3734   -1.6467   -0.2689 O   0  0  0  0  0  0  0  0  0  0  0  0
   -0.6179   -0.4131    0.9071 C   0  0  0  0  0  0  0  0  0  0  0  0
    3.4475   -1.1857    0.7597 H   0  0  0  0  0  0  0  0  0  0  0  0
    1.9361   -0.7276    1.5288 H   0  0  0  0  0  0  0  0  0  0  0  0
    1.9381   -2.0636    0.2349 H   0  0  0  0  0  0  0  0  0  0  0  0
    3.0832    0.4869   -0.6540 H   0  0  0  0  0  0  0  0  0  0  0  0
    1.9353   -0.5591   -1.4885 H   0  0  0  0  0  0  0  0  0  0  0  0
   -1.5786    1.8359    1.1644 H   0  0  0  0  0  0  0  0  0  0  0  0
   -1.2773    2.3491   -0.5696 H   0  0  0  0  0  0  0  0  0  0  0  0
   -0.0762    2.7400    0.6601 H   0  0  0  0  0  0  0  0  0  0  0  0
   -0.3982   -0.8778   -1.5488 H   0  0  0  0  0  0  0  0  0  0  0  0
   -1.3328    0.7330   -1.8026 H   0  0  0  0  0  0  0  0  0  0  0  0
   -2.6167    0.3523    0.2664 H   0  0  0  0  0  0  0  0  0  0  0  0
   -2.8552   -1.5856   -1.1513 H   0  0  0  0  0  0  0  0  0  0  0  0
   -0.2119   -1.4169    0.8951 H   0  0  0  0  0  0  0  0  0  0  0  0
   -0.9275   -0.0249    1.9166 H   0  0  0  0  0  0  0  0  0  0  0  0
  1  2  1  0
  2  3  1  0
  3  4  1  0
  4  5  1  0
  4  6  1  0
  6  7  1  0
  7  8  1  0
  7  9  1  0
  9  4  1  0
  1 10  1  0
  1 11  1  0
  1 12  1  0
  2 13  1  0
  2 14  1  0
  5 15  1  0
  5 16  1  0
  5 17  1  0
  6 18  1  0
  6 19  1  0
  7 20  1  0
  8 21  1  0
  9 22  1  0
  9 23  1  0
M  END
