
     RDKit          3D

 23 23  0  0  0  0  0  0  0  0999 V2000
    3.3185   -0.0159    0.0926 C   0  0  0  0  0  0  0  0  0  0  0  0
    2.4532   -0.3448   -1.0657 C   0  0  0  0  0  0  0  0  0  0  0  0
    1.2450   -0.9212   -0.7621 O   0  0  0  0  0  0  0  0  0  0  0  0
    0.4121   -0.1793    0.0273 C   0  0  0  0  0  0  0  0  0  0  0  0
   -0.8570    0.0671   -0.7817 C   0  0  0  0  0  0  0  0  0  0  0  0
   -1.9848   -0.2957    0.1827 C   0  0  0  0  0  0  0  0  0  0  0  0
   -3.0905    0.7066    0.1075 C   0  0  0  0  0  0  0  0  0  0  0  0
   -1.2339   -0.2357    1.5062 C   0  0  0  0  0  0  0  0  0  0  0  0
   -0.0269   -0.8320    1.1587 O   0  0  0  0  0  0  0  0  0  0  0  0
    3.1829    1.0349    0.4618 H   0  0  0  0  0  0  0  0  0  0  0  0
    4.3806   -0.0750   -0.2305 H   0  0  0  0  0  0  0  0  0  0  0  0
    3.2307   -0.7186    0.9481 H   0  0  0  0  0  0  0  0  0  0  0  0
    3.0029   -1.0442   -1.7293 H   0  0  0  0  0  0  0  0  0  0  0  0
    2.3203    0.5904   -1.6746 H   0  0  0  0  0  0  0  0  0  0  0  0
    0.8335    0.8083    0.3218 H   0  0  0  0  0  0  0  0  0  0  0  0
   -0.9730    1.1347   -1.0522 H   0  0  0  0  0  0  0  0  0  0  0  0
   -0.9423   -0.6234   -1.6339 H   0  0  0  0  0  0  0  0  0  0  0  0
   -2.3464   -1.3179    0.0194 H   0  0  0  0  0  0  0  0  0  0  0  0
   -4.0605    0.2823    0.4417 H   0  0  0  0  0  0  0  0  0  0  0  0
   -2.8361    1.6558    0.6168 H   0  0  0  0  0  0  0  0  0  0  0  0
   -3.2511    0.9880   -0.9734 H   0  0  0  0  0  0  0  0  0  0  0  0
   -1.7390   -0.7774    2.3042 H   0  0  0  0  0  0  0  0  0  0  0  0
   -1.0384    0.8269    1.7145 H   0  0  0  0  0  0  0  0  0  0  0  0
  1  2  1  0
  2  3  1  0
  3  4  1  0
  4  5  1  0
  5  6  1  0
  6  7  1  0
  6  8  1  0
  8  9  1  0
  9  4  1  0
  1 10  1  0
  1 11  1  0
  1 12  1  0
  2 13  1  0
  2 14  1  0
  4 15  1  0
  5 16  1  0
  5 17  1  0
  6 18  1  0
  7 19  1  0
  7 20  1  0
  7 21  1  0
  8 22  1  0
  8 23  1  0
M  END
