
     RDKit          3D

 20 20  0  0  0  0  0  0  0  0999 V2000
   -2.9227    0.0425    0.7740 C   0  0  0  0  0  0  0  0  0  0  0  0
   -1.7371   -0.4633   -0.0089 C   0  0  0  0  0  0  0  0  0  0  0  0
   -0.5439    0.1010    0.4152 O   0  0  0  0  0  0  0  0  0  0  0  0
    0.4843   -0.4197   -0.3565 C   0  0  0  0  0  0  0  0  0  0  0  0
    1.1342    0.7447   -1.0768 C   0  0  0  0  0  0  0  0  0  0  0  0
    1.9935    1.3124   -0.0246 C   0  0  0  0  0  0  0  0  0  0  0  0
    2.2843    0.3769    0.8710 C   0  0  0  0  0  0  0  0  0  0  0  0
    1.6364   -0.9192    0.4931 C   0  0  0  0  0  0  0  0  0  0  0  0
   -2.9920    1.1602    0.7333 H   0  0  0  0  0  0  0  0  0  0  0  0
   -2.9330   -0.3292    1.8186 H   0  0  0  0  0  0  0  0  0  0  0  0
   -3.8378   -0.3350    0.2719 H   0  0  0  0  0  0  0  0  0  0  0  0
   -1.7497   -1.5570    0.0182 H   0  0  0  0  0  0  0  0  0  0  0  0
   -1.9221   -0.1595   -1.0798 H   0  0  0  0  0  0  0  0  0  0  0  0
    0.1630   -1.1357   -1.1077 H   0  0  0  0  0  0  0  0  0  0  0  0
    0.3369    1.4201   -1.4154 H   0  0  0  0  0  0  0  0  0  0  0  0
    1.7137    0.3037   -1.9187 H   0  0  0  0  0  0  0  0  0  0  0  0
    2.3397    2.3420    0.0161 H   0  0  0  0  0  0  0  0  0  0  0  0
    2.8948    0.4810    1.7617 H   0  0  0  0  0  0  0  0  0  0  0  0
    2.3350   -1.4587   -0.1805 H   0  0  0  0  0  0  0  0  0  0  0  0
    1.3224   -1.5073    1.3555 H   0  0  0  0  0  0  0  0  0  0  0  0
  1  2  1  0
  2  3  1  0
  3  4  1  0
  4  5  1  0
  5  6  1  0
  6  7  2  0
  7  8  1  0
  8  4  1  0
  1  9  1  0
  1 10  1  0
  1 11  1  0
  2 12  1  0
  2 13  1  0
  4 14  1  0
  5 15  1  0
  5 16  1  0
  6 17  1  0
  7 18  1  0
  8 19  1  0
  8 20  1  0
M  END
