
     RDKit          3D

 21 22  0  0  0  0  0  0  0  0999 V2000
    2.6101   -0.0095   -0.8185 C   0  0  0  0  0  0  0  0  0  0  0  0
    2.2298   -0.7191    0.4553 C   0  0  0  0  0  0  0  0  0  0  0  0
    1.0066   -0.2645    0.9391 O   0  0  0  0  0  0  0  0  0  0  0  0
    0.0390   -0.5000   -0.0082 C   0  0  0  0  0  0  0  0  0  0  0  0
   -1.3278   -0.0480    0.4082 C   0  0  0  0  0  0  0  0  0  0  0  0
   -2.4271   -0.2762   -0.5802 C   0  0  0  0  0  0  0  0  0  0  0  0
   -2.9184    1.0119   -0.4472 O   0  0  0  0  0  0  0  0  0  0  0  0
   -1.7696    1.3566    0.2429 C   0  0  0  0  0  0  0  0  0  0  0  0
   -1.5868    0.7248    1.6144 C   0  0  0  0  0  0  0  0  0  0  0  0
    2.3232    1.0577   -0.8169 H   0  0  0  0  0  0  0  0  0  0  0  0
    2.2005   -0.5770   -1.6674 H   0  0  0  0  0  0  0  0  0  0  0  0
    3.7317   -0.1107   -0.9062 H   0  0  0  0  0  0  0  0  0  0  0  0
    2.1790   -1.8184    0.2135 H   0  0  0  0  0  0  0  0  0  0  0  0
    3.0325   -0.6362    1.2191 H   0  0  0  0  0  0  0  0  0  0  0  0
    0.3805    0.0066   -0.9552 H   0  0  0  0  0  0  0  0  0  0  0  0
   -0.0053   -1.5806   -0.2589 H   0  0  0  0  0  0  0  0  0  0  0  0
   -3.1241   -1.0640   -0.2182 H   0  0  0  0  0  0  0  0  0  0  0  0
   -2.0581   -0.5277   -1.6164 H   0  0  0  0  0  0  0  0  0  0  0  0
   -1.1157    2.1577   -0.0844 H   0  0  0  0  0  0  0  0  0  0  0  0
   -0.8199    1.2158    2.2184 H   0  0  0  0  0  0  0  0  0  0  0  0
   -2.5801    0.6008    2.1331 H   0  0  0  0  0  0  0  0  0  0  0  0
  1  2  1  0
  2  3  1  0
  3  4  1  0
  4  5  1  0
  5  6  1  0
  6  7  1  0
  7  8  1  0
  8  9  1  0
  8  5  1  0
  9  5  1  0
  1 10  1  0
  1 11  1  0
  1 12  1  0
  2 13  1  0
  2 14  1  0
  4 15  1  0
  4 16  1  0
  6 17  1  0
  6 18  1  0
  8 19  1  0
  9 20  1  0
  9 21  1  0
M  END
