
     RDKit          3D

 23 23  0  0  0  0  0  0  0  0999 V2000
   -3.7332    0.1992   -0.1731 C   0  0  0  0  0  0  0  0  0  0  0  0
   -2.4085   -0.5000   -0.4493 C   0  0  0  0  0  0  0  0  0  0  0  0
   -1.4593    0.1599    0.2814 O   0  0  0  0  0  0  0  0  0  0  0  0
   -0.1818   -0.2908    0.1939 C   0  0  0  0  0  0  0  0  0  0  0  0
    0.4654   -0.7289    1.4533 C   0  0  0  0  0  0  0  0  0  0  0  0
    1.9349   -0.5510    1.0750 C   0  0  0  0  0  0  0  0  0  0  0  0
    1.8068    0.7349    0.2732 C   0  0  0  0  0  0  0  0  0  0  0  0
    3.0097    1.0171   -0.5654 C   0  0  0  0  0  0  0  0  0  0  0  0
    0.6262    0.6701   -0.4086 O   0  0  0  0  0  0  0  0  0  0  0  0
   -3.5048    1.2928   -0.1913 H   0  0  0  0  0  0  0  0  0  0  0  0
   -4.4108   -0.0647   -1.0074 H   0  0  0  0  0  0  0  0  0  0  0  0
   -4.1552   -0.0903    0.8098 H   0  0  0  0  0  0  0  0  0  0  0  0
   -2.5696   -1.5535   -0.1591 H   0  0  0  0  0  0  0  0  0  0  0  0
   -2.2521   -0.4325   -1.5482 H   0  0  0  0  0  0  0  0  0  0  0  0
   -0.1787   -1.1728   -0.5110 H   0  0  0  0  0  0  0  0  0  0  0  0
    0.3159   -0.0463    2.3086 H   0  0  0  0  0  0  0  0  0  0  0  0
    0.2314   -1.7862    1.6805 H   0  0  0  0  0  0  0  0  0  0  0  0
    2.2426   -1.4022    0.4617 H   0  0  0  0  0  0  0  0  0  0  0  0
    2.5500   -0.4108    1.9868 H   0  0  0  0  0  0  0  0  0  0  0  0
    1.7240    1.5642    1.0296 H   0  0  0  0  0  0  0  0  0  0  0  0
    2.7381    1.8067   -1.2956 H   0  0  0  0  0  0  0  0  0  0  0  0
    3.4156    0.1316   -1.0842 H   0  0  0  0  0  0  0  0  0  0  0  0
    3.7932    1.4534    0.1022 H   0  0  0  0  0  0  0  0  0  0  0  0
  1  2  1  0
  2  3  1  0
  3  4  1  0
  4  5  1  0
  5  6  1  0
  6  7  1  0
  7  8  1  0
  7  9  1  0
  9  4  1  0
  1 10  1  0
  1 11  1  0
  1 12  1  0
  2 13  1  0
  2 14  1  0
  4 15  1  0
  5 16  1  0
  5 17  1  0
  6 18  1  0
  6 19  1  0
  7 20  1  0
  8 21  1  0
  8 22  1  0
  8 23  1  0
M  END
