
     RDKit          3D

 25 24  0  0  0  0  0  0  0  0999 V2000
    3.3858    0.5333   -0.0189 C   0  0  0  0  0  0  0  0  0  0  0  0
    2.0633    0.0173    0.4753 C   0  0  0  0  0  0  0  0  0  0  0  0
    0.9929    0.4077   -0.3063 O   0  0  0  0  0  0  0  0  0  0  0  0
   -0.1613   -0.1300    0.2527 C   0  0  0  0  0  0  0  0  0  0  0  0
   -1.1237    0.9478    0.6999 C   0  0  0  0  0  0  0  0  0  0  0  0
   -1.5778    1.8398   -0.4051 C   0  0  0  0  0  0  0  0  0  0  0  0
   -0.8727   -1.0837   -0.6829 C   0  0  0  0  0  0  0  0  0  0  0  0
   -2.0975   -1.5895    0.0606 C   0  0  0  0  0  0  0  0  0  0  0  0
   -0.0326   -2.1457   -1.0132 O   0  0  0  0  0  0  0  0  0  0  0  0
    3.8065   -0.1086   -0.8440 H   0  0  0  0  0  0  0  0  0  0  0  0
    4.1176    0.4299    0.8212 H   0  0  0  0  0  0  0  0  0  0  0  0
    3.3694    1.5912   -0.2967 H   0  0  0  0  0  0  0  0  0  0  0  0
    2.1577   -1.0768    0.5939 H   0  0  0  0  0  0  0  0  0  0  0  0
    1.8971    0.4429    1.4992 H   0  0  0  0  0  0  0  0  0  0  0  0
    0.0671   -0.7326    1.1788 H   0  0  0  0  0  0  0  0  0  0  0  0
   -2.0027    0.4781    1.1851 H   0  0  0  0  0  0  0  0  0  0  0  0
   -0.6418    1.5879    1.4744 H   0  0  0  0  0  0  0  0  0  0  0  0
   -0.8318    2.6222   -0.6546 H   0  0  0  0  0  0  0  0  0  0  0  0
   -2.4766    2.3970   -0.0355 H   0  0  0  0  0  0  0  0  0  0  0  0
   -1.9045    1.3049   -1.3075 H   0  0  0  0  0  0  0  0  0  0  0  0
   -1.2335   -0.5977   -1.6050 H   0  0  0  0  0  0  0  0  0  0  0  0
   -1.9299   -1.5679    1.1732 H   0  0  0  0  0  0  0  0  0  0  0  0
   -2.9540   -0.9320   -0.1447 H   0  0  0  0  0  0  0  0  0  0  0  0
   -2.3401   -2.6387   -0.1930 H   0  0  0  0  0  0  0  0  0  0  0  0
    0.3230   -1.9967   -1.9070 H   0  0  0  0  0  0  0  0  0  0  0  0
  1  2  1  0
  2  3  1  0
  3  4  1  0
  4  5  1  0
  5  6  1  0
  4  7  1  0
  7  8  1  0
  7  9  1  0
  1 10  1  0
  1 11  1  0
  1 12  1  0
  2 13  1  0
  2 14  1  0
  4 15  1  0
  5 16  1  0
  5 17  1  0
  6 18  1  0
  6 19  1  0
  6 20  1  0
  7 21  1  0
  8 22  1  0
  8 23  1  0
  8 24  1  0
  9 25  1  0
M  END
