
     RDKit          3D

 25 25  0  0  0  0  0  0  0  0999 V2000
    3.0800    1.7365   -0.0443 C   0  0  0  0  0  0  0  0  0  0  0  0
    2.2814    0.5113    0.3492 C   0  0  0  0  0  0  0  0  0  0  0  0
    1.0874    0.4066   -0.3542 O   0  0  0  0  0  0  0  0  0  0  0  0
    0.4275   -0.7223    0.0582 C   0  0  0  0  0  0  0  0  0  0  0  0
   -0.1645   -1.5286   -1.0822 C   0  0  0  0  0  0  0  0  0  0  0  0
   -1.0344   -0.8699    0.0093 C   0  0  0  0  0  0  0  0  0  0  0  0
   -1.6841   -1.8512    0.9631 C   0  0  0  0  0  0  0  0  0  0  0  0
   -1.9470    0.1887   -0.5277 C   0  0  0  0  0  0  0  0  0  0  0  0
   -1.8513    1.4968    0.2167 C   0  0  0  0  0  0  0  0  0  0  0  0
    2.4785    2.6728    0.0214 H   0  0  0  0  0  0  0  0  0  0  0  0
    3.5931    1.6112   -1.0082 H   0  0  0  0  0  0  0  0  0  0  0  0
    3.8880    1.8394    0.7321 H   0  0  0  0  0  0  0  0  0  0  0  0
    2.1682    0.4053    1.4358 H   0  0  0  0  0  0  0  0  0  0  0  0
    2.9034   -0.3704    0.0216 H   0  0  0  0  0  0  0  0  0  0  0  0
    0.9416   -1.3195    0.8418 H   0  0  0  0  0  0  0  0  0  0  0  0
   -0.0903   -2.6367   -1.0565 H   0  0  0  0  0  0  0  0  0  0  0  0
   -0.1786   -1.0986   -2.0887 H   0  0  0  0  0  0  0  0  0  0  0  0
   -2.4827   -2.4378    0.4391 H   0  0  0  0  0  0  0  0  0  0  0  0
   -0.9636   -2.5976    1.3449 H   0  0  0  0  0  0  0  0  0  0  0  0
   -2.0732   -1.3047    1.8431 H   0  0  0  0  0  0  0  0  0  0  0  0
   -1.7573    0.4147   -1.5975 H   0  0  0  0  0  0  0  0  0  0  0  0
   -3.0053   -0.1379   -0.4676 H   0  0  0  0  0  0  0  0  0  0  0  0
   -2.7003    2.1311   -0.1551 H   0  0  0  0  0  0  0  0  0  0  0  0
   -0.9303    2.0610   -0.0622 H   0  0  0  0  0  0  0  0  0  0  0  0
   -1.9861    1.3999    1.2989 H   0  0  0  0  0  0  0  0  0  0  0  0
  1  2  1  0
  2  3  1  0
  3  4  1  0
  4  5  1  0
  5  6  1  0
  6  7  1  0
  6  8  1  0
  8  9  1  0
  6  4  1  0
  1 10  1  0
  1 11  1  0
  1 12  1  0
  2 13  1  0
  2 14  1  0
  4 15  1  0
  5 16  1  0
  5 17  1  0
  7 18  1  0
  7 19  1  0
  7 20  1  0
  8 21  1  0
  8 22  1  0
  9 23  1  0
  9 24  1  0
  9 25  1  0
M  END
