
     RDKit          3D

 25 24  0  0  0  0  0  0  0  0999 V2000
   -3.3867    0.6292    0.3124 C   0  0  0  0  0  0  0  0  0  0  0  0
   -2.0811    1.3582    0.2276 C   0  0  0  0  0  0  0  0  0  0  0  0
   -0.9819    0.5829    0.5261 O   0  0  0  0  0  0  0  0  0  0  0  0
   -0.9265   -0.4768   -0.3690 C   0  0  0  0  0  0  0  0  0  0  0  0
    0.2509   -1.3833   -0.1172 C   0  0  0  0  0  0  0  0  0  0  0  0
    1.5699   -0.6719   -0.2316 C   0  0  0  0  0  0  0  0  0  0  0  0
    2.6532   -1.7177    0.0487 C   0  0  0  0  0  0  0  0  0  0  0  0
    1.7017    0.3369    0.7116 O   0  0  0  0  0  0  0  0  0  0  0  0
    2.0433    1.5583    0.1642 C   0  0  0  0  0  0  0  0  0  0  0  0
   -3.4260    0.1066    1.3009 H   0  0  0  0  0  0  0  0  0  0  0  0
   -4.1959    1.4094    0.2551 H   0  0  0  0  0  0  0  0  0  0  0  0
   -3.5708   -0.0690   -0.5194 H   0  0  0  0  0  0  0  0  0  0  0  0
   -1.9250    1.8009   -0.7803 H   0  0  0  0  0  0  0  0  0  0  0  0
   -2.1268    2.2134    0.9316 H   0  0  0  0  0  0  0  0  0  0  0  0
   -1.8431   -1.0977   -0.1645 H   0  0  0  0  0  0  0  0  0  0  0  0
   -0.9894   -0.1095   -1.4050 H   0  0  0  0  0  0  0  0  0  0  0  0
    0.2323   -2.1734   -0.8952 H   0  0  0  0  0  0  0  0  0  0  0  0
    0.1662   -1.7874    0.8918 H   0  0  0  0  0  0  0  0  0  0  0  0
    1.7741   -0.2485   -1.2170 H   0  0  0  0  0  0  0  0  0  0  0  0
    3.5300   -1.5277   -0.5873 H   0  0  0  0  0  0  0  0  0  0  0  0
    2.8939   -1.6781    1.1373 H   0  0  0  0  0  0  0  0  0  0  0  0
    2.2811   -2.7344   -0.2259 H   0  0  0  0  0  0  0  0  0  0  0  0
    3.0066    1.5390   -0.3810 H   0  0  0  0  0  0  0  0  0  0  0  0
    2.0936    2.3040    0.9529 H   0  0  0  0  0  0  0  0  0  0  0  0
    1.2564    1.8367   -0.5667 H   0  0  0  0  0  0  0  0  0  0  0  0
  1  2  1  0
  2  3  1  0
  3  4  1  0
  4  5  1  0
  5  6  1  0
  6  7  1  0
  6  8  1  0
  8  9  1  0
  1 10  1  0
  1 11  1  0
  1 12  1  0
  2 13  1  0
  2 14  1  0
  4 15  1  0
  4 16  1  0
  5 17  1  0
  5 18  1  0
  6 19  1  0
  7 20  1  0
  7 21  1  0
  7 22  1  0
  9 23  1  0
  9 24  1  0
  9 25  1  0
M  END
