
     RDKit          3D

 22 22  0  0  0  0  0  0  0  0999 V2000
    3.3869    0.2295   -0.1371 C   0  0  0  0  0  0  0  0  0  0  0  0
    2.0242   -0.4443   -0.2692 C   0  0  0  0  0  0  0  0  0  0  0  0
    1.0439    0.2997    0.3782 O   0  0  0  0  0  0  0  0  0  0  0  0
   -0.2010   -0.2346    0.3065 C   0  0  0  0  0  0  0  0  0  0  0  0
   -0.9699   -0.4011    1.5890 C   0  0  0  0  0  0  0  0  0  0  0  0
   -2.2448    0.0216    0.8461 C   0  0  0  0  0  0  0  0  0  0  0  0
   -1.3130    0.6662   -0.1870 C   0  0  0  0  0  0  0  0  0  0  0  0
   -1.8302    0.3694   -1.5590 C   0  0  0  0  0  0  0  0  0  0  0  0
    3.3744    1.2600   -0.5012 H   0  0  0  0  0  0  0  0  0  0  0  0
    3.6462    0.1847    0.9609 H   0  0  0  0  0  0  0  0  0  0  0  0
    4.1663   -0.3733   -0.6437 H   0  0  0  0  0  0  0  0  0  0  0  0
    2.0547   -1.4361    0.1951 H   0  0  0  0  0  0  0  0  0  0  0  0
    1.8085   -0.4627   -1.3580 H   0  0  0  0  0  0  0  0  0  0  0  0
   -0.2322   -1.1911   -0.2653 H   0  0  0  0  0  0  0  0  0  0  0  0
   -0.7703    0.3598    2.3688 H   0  0  0  0  0  0  0  0  0  0  0  0
   -1.0542   -1.4475    1.9520 H   0  0  0  0  0  0  0  0  0  0  0  0
   -2.8819    0.7202    1.3826 H   0  0  0  0  0  0  0  0  0  0  0  0
   -2.8154   -0.8348    0.4736 H   0  0  0  0  0  0  0  0  0  0  0  0
   -1.1774    1.7454    0.0166 H   0  0  0  0  0  0  0  0  0  0  0  0
   -1.9556   -0.7060   -1.7080 H   0  0  0  0  0  0  0  0  0  0  0  0
   -1.2174    0.8331   -2.3585 H   0  0  0  0  0  0  0  0  0  0  0  0
   -2.8418    0.8418   -1.6412 H   0  0  0  0  0  0  0  0  0  0  0  0
  1  2  1  0
  2  3  1  0
  3  4  1  0
  4  5  1  0
  5  6  1  0
  6  7  1  0
  7  8  1  0
  7  4  1  0
  1  9  1  0
  1 10  1  0
  1 11  1  0
  2 12  1  0
  2 13  1  0
  4 14  1  0
  5 15  1  0
  5 16  1  0
  6 17  1  0
  6 18  1  0
  7 19  1  0
  8 20  1  0
  8 21  1  0
  8 22  1  0
M  END
