
     RDKit          3D

 23 23  0  0  0  0  0  0  0  0999 V2000
    3.6256    0.5393    0.5719 C   0  0  0  0  0  0  0  0  0  0  0  0
    2.5180   -0.3811    0.1769 C   0  0  0  0  0  0  0  0  0  0  0  0
    1.3808    0.2750   -0.2810 O   0  0  0  0  0  0  0  0  0  0  0  0
    0.4219   -0.6499   -0.6188 C   0  0  0  0  0  0  0  0  0  0  0  0
   -0.3378   -0.2860   -1.8867 C   0  0  0  0  0  0  0  0  0  0  0  0
   -1.0274   -0.3311   -0.5625 C   0  0  0  0  0  0  0  0  0  0  0  0
   -1.5213    0.9203    0.0825 C   0  0  0  0  0  0  0  0  0  0  0  0
   -2.8844    1.0449    0.0350 O   0  0  0  0  0  0  0  0  0  0  0  0
   -3.5888    0.0716    0.6717 C   0  0  0  0  0  0  0  0  0  0  0  0
    4.4859    0.3326   -0.1262 H   0  0  0  0  0  0  0  0  0  0  0  0
    3.3548    1.6041    0.5896 H   0  0  0  0  0  0  0  0  0  0  0  0
    4.0086    0.2426    1.5830 H   0  0  0  0  0  0  0  0  0  0  0  0
    2.8286   -1.1293   -0.6055 H   0  0  0  0  0  0  0  0  0  0  0  0
    2.1755   -1.0233    1.0395 H   0  0  0  0  0  0  0  0  0  0  0  0
    0.7115   -1.7109   -0.4730 H   0  0  0  0  0  0  0  0  0  0  0  0
   -0.4156   -1.1075   -2.6061 H   0  0  0  0  0  0  0  0  0  0  0  0
   -0.1989    0.7046   -2.3280 H   0  0  0  0  0  0  0  0  0  0  0  0
   -1.6936   -1.2094   -0.4499 H   0  0  0  0  0  0  0  0  0  0  0  0
   -1.2553    0.8260    1.1769 H   0  0  0  0  0  0  0  0  0  0  0  0
   -1.0242    1.8375   -0.3065 H   0  0  0  0  0  0  0  0  0  0  0  0
   -3.3286    0.0035    1.7544 H   0  0  0  0  0  0  0  0  0  0  0  0
   -4.7037    0.3143    0.6604 H   0  0  0  0  0  0  0  0  0  0  0  0
   -3.5316   -0.8877    0.1391 H   0  0  0  0  0  0  0  0  0  0  0  0
  1  2  1  0
  2  3  1  0
  3  4  1  0
  4  5  1  0
  5  6  1  0
  6  7  1  0
  7  8  1  0
  8  9  1  0
  6  4  1  0
  1 10  1  0
  1 11  1  0
  1 12  1  0
  2 13  1  0
  2 14  1  0
  4 15  1  0
  5 16  1  0
  5 17  1  0
  6 18  1  0
  7 19  1  0
  7 20  1  0
  9 21  1  0
  9 22  1  0
  9 23  1  0
M  END
