
     RDKit          3D

 23 23  0  0  0  0  0  0  0  0999 V2000
    3.0990   -0.3411   -0.7283 C   0  0  0  0  0  0  0  0  0  0  0  0
    2.8184    0.7915    0.2352 C   0  0  0  0  0  0  0  0  0  0  0  0
    1.5190    0.6178    0.7072 O   0  0  0  0  0  0  0  0  0  0  0  0
    0.5840    0.6441   -0.3246 C   0  0  0  0  0  0  0  0  0  0  0  0
   -0.7811    0.4476    0.3005 C   0  0  0  0  0  0  0  0  0  0  0  0
   -0.8986   -0.8884    1.0516 C   0  0  0  0  0  0  0  0  0  0  0  0
   -1.7079   -0.5770   -0.1937 C   0  0  0  0  0  0  0  0  0  0  0  0
   -3.1849   -0.3587    0.0619 C   0  0  0  0  0  0  0  0  0  0  0  0
   -3.6414    0.8194   -0.5219 O   0  0  0  0  0  0  0  0  0  0  0  0
    4.1847   -0.5975   -0.7545 H   0  0  0  0  0  0  0  0  0  0  0  0
    2.7379   -0.0359   -1.7464 H   0  0  0  0  0  0  0  0  0  0  0  0
    2.5352   -1.2251   -0.3666 H   0  0  0  0  0  0  0  0  0  0  0  0
    3.5207    0.7354    1.0802 H   0  0  0  0  0  0  0  0  0  0  0  0
    2.8807    1.7720   -0.2500 H   0  0  0  0  0  0  0  0  0  0  0  0
    0.8410   -0.1906   -1.0137 H   0  0  0  0  0  0  0  0  0  0  0  0
    0.6548    1.5688   -0.9066 H   0  0  0  0  0  0  0  0  0  0  0  0
   -1.2103    1.3495    0.7826 H   0  0  0  0  0  0  0  0  0  0  0  0
   -0.1067   -1.6329    0.9269 H   0  0  0  0  0  0  0  0  0  0  0  0
   -1.4205   -0.8507    2.0397 H   0  0  0  0  0  0  0  0  0  0  0  0
   -1.4967   -1.1944   -1.0877 H   0  0  0  0  0  0  0  0  0  0  0  0
   -3.3920   -0.2867    1.1533 H   0  0  0  0  0  0  0  0  0  0  0  0
   -3.7445   -1.2361   -0.3348 H   0  0  0  0  0  0  0  0  0  0  0  0
   -3.7908    0.6688   -1.5005 H   0  0  0  0  0  0  0  0  0  0  0  0
  1  2  1  0
  2  3  1  0
  3  4  1  0
  4  5  1  0
  5  6  1  0
  6  7  1  0
  7  8  1  0
  8  9  1  0
  7  5  1  0
  1 10  1  0
  1 11  1  0
  1 12  1  0
  2 13  1  0
  2 14  1  0
  4 15  1  0
  4 16  1  0
  5 17  1  0
  6 18  1  0
  6 19  1  0
  7 20  1  0
  8 21  1  0
  8 22  1  0
  9 23  1  0
M  END
