
     RDKit          3D

 19 20  0  0  0  0  0  0  0  0999 V2000
    2.8967   -0.3235    0.1572 C   0  0  0  0  0  0  0  0  0  0  0  0
    1.4306   -0.2102   -0.1939 C   0  0  0  0  0  0  0  0  0  0  0  0
    0.6108   -0.3519    0.9119 O   0  0  0  0  0  0  0  0  0  0  0  0
   -0.7018   -0.2434    0.5518 C   0  0  0  0  0  0  0  0  0  0  0  0
   -1.3208   -1.1717   -0.4232 C   0  0  0  0  0  0  0  0  0  0  0  0
   -1.1637    0.2546   -0.7532 C   0  0  0  0  0  0  0  0  0  0  0  0
   -2.0945    1.2182   -0.0129 C   0  0  0  0  0  0  0  0  0  0  0  0
   -1.6263    0.6602    1.2741 C   0  0  0  0  0  0  0  0  0  0  0  0
   -1.8573    0.8258    2.4463 O   0  0  0  0  0  0  0  0  0  0  0  0
    3.4857    0.4697   -0.3842 H   0  0  0  0  0  0  0  0  0  0  0  0
    3.0851   -0.1516    1.2383 H   0  0  0  0  0  0  0  0  0  0  0  0
    3.3345   -1.2936   -0.1332 H   0  0  0  0  0  0  0  0  0  0  0  0
    1.2652    0.8268   -0.5800 H   0  0  0  0  0  0  0  0  0  0  0  0
    1.1890   -0.9922   -0.9215 H   0  0  0  0  0  0  0  0  0  0  0  0
   -0.7438   -1.8891   -1.0037 H   0  0  0  0  0  0  0  0  0  0  0  0
   -2.3462   -1.5330   -0.1414 H   0  0  0  0  0  0  0  0  0  0  0  0
   -0.5203    0.6241   -1.5446 H   0  0  0  0  0  0  0  0  0  0  0  0
   -3.1587    1.0262   -0.2565 H   0  0  0  0  0  0  0  0  0  0  0  0
   -1.7640    2.2545   -0.2314 H   0  0  0  0  0  0  0  0  0  0  0  0
  1  2  1  0
  2  3  1  0
  3  4  1  0
  4  5  1  0
  5  6  1  0
  6  7  1  0
  7  8  1  0
  8  9  2  0
  6  4  1  0
  8  4  1  0
  1 10  1  0
  1 11  1  0
  1 12  1  0
  2 13  1  0
  2 14  1  0
  5 15  1  0
  5 16  1  0
  6 17  1  0
  7 18  1  0
  7 19  1  0
M  END
