
     RDKit          3D

 23 22  0  0  0  0  0  0  0  0999 V2000
   -3.3638   -0.5141   -0.2581 C   0  0  0  0  0  0  0  0  0  0  0  0
   -2.0125   -0.3979    0.4157 C   0  0  0  0  0  0  0  0  0  0  0  0
   -1.1202    0.0665   -0.5476 O   0  0  0  0  0  0  0  0  0  0  0  0
    0.1756    0.2136   -0.0315 C   0  0  0  0  0  0  0  0  0  0  0  0
    0.5118    1.6655   -0.0681 C   0  0  0  0  0  0  0  0  0  0  0  0
    1.7614    1.9819    0.4088 O   0  0  0  0  0  0  0  0  0  0  0  0
    1.0806   -0.6542   -0.8313 C   0  0  0  0  0  0  0  0  0  0  0  0
    2.5156   -0.6156   -0.4084 C   0  0  0  0  0  0  0  0  0  0  0  0
    2.6567   -1.0309    0.9180 O   0  0  0  0  0  0  0  0  0  0  0  0
   -4.1060   -1.0502    0.3346 H   0  0  0  0  0  0  0  0  0  0  0  0
   -3.2202   -0.9387   -1.2876 H   0  0  0  0  0  0  0  0  0  0  0  0
   -3.7123    0.5441   -0.4257 H   0  0  0  0  0  0  0  0  0  0  0  0
   -2.0446    0.2747    1.2741 H   0  0  0  0  0  0  0  0  0  0  0  0
   -1.6703   -1.4330    0.7010 H   0  0  0  0  0  0  0  0  0  0  0  0
    0.1222   -0.0937    1.0410 H   0  0  0  0  0  0  0  0  0  0  0  0
    0.3179    2.0471   -1.0920 H   0  0  0  0  0  0  0  0  0  0  0  0
   -0.2302    2.1919    0.5911 H   0  0  0  0  0  0  0  0  0  0  0  0
    1.8053    2.9495    0.5953 H   0  0  0  0  0  0  0  0  0  0  0  0
    0.7303   -1.7070   -0.7163 H   0  0  0  0  0  0  0  0  0  0  0  0
    0.9847   -0.4083   -1.8945 H   0  0  0  0  0  0  0  0  0  0  0  0
    3.0367    0.3221   -0.6304 H   0  0  0  0  0  0  0  0  0  0  0  0
    3.0467   -1.4067   -1.0169 H   0  0  0  0  0  0  0  0  0  0  0  0
    2.7347   -2.0068    0.9688 H   0  0  0  0  0  0  0  0  0  0  0  0
  1  2  1  0
  2  3  1  0
  3  4  1  0
  4  5  1  0
  5  6  1  0
  4  7  1  0
  7  8  1  0
  8  9  1  0
  1 10  1  0
  1 11  1  0
  1 12  1  0
  2 13  1  0
  2 14  1  0
  4 15  1  0
  5 16  1  0
  5 17  1  0
  6 18  1  0
  7 19  1  0
  7 20  1  0
  8 21  1  0
  8 22  1  0
  9 23  1  0
M  END
