
     RDKit          3D

 25 24  0  0  0  0  0  0  0  0999 V2000
    3.1543    0.7620   -0.4063 C   0  0  0  0  0  0  0  0  0  0  0  0
    1.9345    0.4581    0.4106 C   0  0  0  0  0  0  0  0  0  0  0  0
    0.9978   -0.2920   -0.2939 O   0  0  0  0  0  0  0  0  0  0  0  0
   -0.0951   -0.5279    0.5313 C   0  0  0  0  0  0  0  0  0  0  0  0
   -0.3608   -1.9784    0.7727 C   0  0  0  0  0  0  0  0  0  0  0  0
   -1.3286    0.1413   -0.0388 C   0  0  0  0  0  0  0  0  0  0  0  0
   -1.6989   -0.3977   -1.3901 C   0  0  0  0  0  0  0  0  0  0  0  0
   -1.1553    1.6399   -0.0377 C   0  0  0  0  0  0  0  0  0  0  0  0
   -2.3796   -0.1425    0.8462 O   0  0  0  0  0  0  0  0  0  0  0  0
    4.0519    0.6865    0.2440 H   0  0  0  0  0  0  0  0  0  0  0  0
    3.2976    0.0466   -1.2375 H   0  0  0  0  0  0  0  0  0  0  0  0
    3.1574    1.8053   -0.8003 H   0  0  0  0  0  0  0  0  0  0  0  0
    2.2420   -0.1685    1.2818 H   0  0  0  0  0  0  0  0  0  0  0  0
    1.5137    1.3886    0.8386 H   0  0  0  0  0  0  0  0  0  0  0  0
    0.0585   -0.0555    1.5463 H   0  0  0  0  0  0  0  0  0  0  0  0
   -1.3447   -2.2979    0.3712 H   0  0  0  0  0  0  0  0  0  0  0  0
    0.3915   -2.6582    0.3253 H   0  0  0  0  0  0  0  0  0  0  0  0
   -0.4029   -2.2383    1.8709 H   0  0  0  0  0  0  0  0  0  0  0  0
   -2.1270   -1.4072   -1.2888 H   0  0  0  0  0  0  0  0  0  0  0  0
   -0.8322   -0.4604   -2.0853 H   0  0  0  0  0  0  0  0  0  0  0  0
   -2.4382    0.2915   -1.8488 H   0  0  0  0  0  0  0  0  0  0  0  0
   -0.8210    1.9293    0.9808 H   0  0  0  0  0  0  0  0  0  0  0  0
   -2.1862    2.0829   -0.1437 H   0  0  0  0  0  0  0  0  0  0  0  0
   -0.5236    2.0167   -0.8442 H   0  0  0  0  0  0  0  0  0  0  0  0
   -3.1047   -0.6241    0.3955 H   0  0  0  0  0  0  0  0  0  0  0  0
  1  2  1  0
  2  3  1  0
  3  4  1  0
  4  5  1  0
  4  6  1  0
  6  7  1  0
  6  8  1  0
  6  9  1  0
  1 10  1  0
  1 11  1  0
  1 12  1  0
  2 13  1  0
  2 14  1  0
  4 15  1  0
  5 16  1  0
  5 17  1  0
  5 18  1  0
  7 19  1  0
  7 20  1  0
  7 21  1  0
  8 22  1  0
  8 23  1  0
  8 24  1  0
  9 25  1  0
M  END
