
     RDKit          3D

 17 16  0  0  0  0  0  0  0  0999 V2000
   -2.4237   -0.0605   -0.4899 C   0  0  0  0  0  0  0  0  0  0  0  0
   -1.8316    0.3086    0.8297 C   0  0  0  0  0  0  0  0  0  0  0  0
   -0.5348    0.7524    0.7782 O   0  0  0  0  0  0  0  0  0  0  0  0
    0.3682   -0.1361    0.2682 C   0  0  0  0  0  0  0  0  0  0  0  0
    1.7190    0.4878    0.2785 C   0  0  0  0  0  0  0  0  0  0  0  0
    2.8943   -0.2642   -0.2252 C   0  0  0  0  0  0  0  0  0  0  0  0
    1.8650    1.6199    0.7014 O   0  0  0  0  0  0  0  0  0  0  0  0
   -2.8208   -1.1134   -0.4401 H   0  0  0  0  0  0  0  0  0  0  0  0
   -3.3138    0.5809   -0.7587 H   0  0  0  0  0  0  0  0  0  0  0  0
   -1.7391    0.0165   -1.3440 H   0  0  0  0  0  0  0  0  0  0  0  0
   -2.4471    1.1593    1.2404 H   0  0  0  0  0  0  0  0  0  0  0  0
   -1.9801   -0.5217    1.5660 H   0  0  0  0  0  0  0  0  0  0  0  0
    0.1731   -0.4261   -0.7881 H   0  0  0  0  0  0  0  0  0  0  0  0
    0.3837   -1.0970    0.8350 H   0  0  0  0  0  0  0  0  0  0  0  0
    3.6939    0.4531   -0.4943 H   0  0  0  0  0  0  0  0  0  0  0  0
    2.6614   -0.8316   -1.1458 H   0  0  0  0  0  0  0  0  0  0  0  0
    3.3323   -0.9280    0.5639 H   0  0  0  0  0  0  0  0  0  0  0  0
  1  2  1  0
  2  3  1  0
  3  4  1  0
  4  5  1  0
  5  6  1  0
  5  7  2  0
  1  8  1  0
  1  9  1  0
  1 10  1  0
  2 11  1  0
  2 12  1  0
  4 13  1  0
  4 14  1  0
  6 15  1  0
  6 16  1  0
  6 17  1  0
M  END
