
     RDKit          3D

 25 24  0  0  0  0  0  0  0  0999 V2000
    3.3005    0.0667    0.8968 C   0  0  0  0  0  0  0  0  0  0  0  0
    2.6131    1.1260    0.0486 C   0  0  0  0  0  0  0  0  0  0  0  0
    1.2494    0.9624    0.0808 O   0  0  0  0  0  0  0  0  0  0  0  0
    0.8966   -0.2914   -0.4130 C   0  0  0  0  0  0  0  0  0  0  0  0
   -0.6051   -0.4770   -0.3797 C   0  0  0  0  0  0  0  0  0  0  0  0
   -1.0072   -1.8449   -0.8788 C   0  0  0  0  0  0  0  0  0  0  0  0
   -1.2741    0.4572   -1.1341 O   0  0  0  0  0  0  0  0  0  0  0  0
   -2.1166    1.1800   -0.3172 C   0  0  0  0  0  0  0  0  0  0  0  0
   -3.1501    0.3606    0.3850 C   0  0  0  0  0  0  0  0  0  0  0  0
    2.5935   -0.3022    1.6933 H   0  0  0  0  0  0  0  0  0  0  0  0
    3.6385   -0.7852    0.2706 H   0  0  0  0  0  0  0  0  0  0  0  0
    4.1683    0.4916    1.4444 H   0  0  0  0  0  0  0  0  0  0  0  0
    2.8366    2.1037    0.5681 H   0  0  0  0  0  0  0  0  0  0  0  0
    2.9935    1.1565   -0.9830 H   0  0  0  0  0  0  0  0  0  0  0  0
    1.3392   -1.0500    0.2663 H   0  0  0  0  0  0  0  0  0  0  0  0
    1.3294   -0.4821   -1.4145 H   0  0  0  0  0  0  0  0  0  0  0  0
   -0.9095   -0.4126    0.6817 H   0  0  0  0  0  0  0  0  0  0  0  0
   -1.2516   -1.7593   -1.9649 H   0  0  0  0  0  0  0  0  0  0  0  0
   -1.8651   -2.2079   -0.2978 H   0  0  0  0  0  0  0  0  0  0  0  0
   -0.1586   -2.5298   -0.6938 H   0  0  0  0  0  0  0  0  0  0  0  0
   -2.6447    1.9330   -0.9372 H   0  0  0  0  0  0  0  0  0  0  0  0
   -1.5596    1.7575    0.4652 H   0  0  0  0  0  0  0  0  0  0  0  0
   -3.6054   -0.4107   -0.2691 H   0  0  0  0  0  0  0  0  0  0  0  0
   -3.9861    1.0642    0.6651 H   0  0  0  0  0  0  0  0  0  0  0  0
   -2.8248   -0.1065    1.3139 H   0  0  0  0  0  0  0  0  0  0  0  0
  1  2  1  0
  2  3  1  0
  3  4  1  0
  4  5  1  0
  5  6  1  0
  5  7  1  0
  7  8  1  0
  8  9  1  0
  1 10  1  0
  1 11  1  0
  1 12  1  0
  2 13  1  0
  2 14  1  0
  4 15  1  0
  4 16  1  0
  5 17  1  0
  6 18  1  0
  6 19  1  0
  6 20  1  0
  8 21  1  0
  8 22  1  0
  9 23  1  0
  9 24  1  0
  9 25  1  0
M  END
