
     RDKit          3D

 18 19  0  0  0  0  0  0  0  0999 V2000
    2.6899    0.7131    0.0934 C   0  0  0  0  0  0  0  0  0  0  0  0
    1.4037   -0.1091    0.1519 C   0  0  0  0  0  0  0  0  0  0  0  0
    0.2853    0.6842    0.2477 O   0  0  0  0  0  0  0  0  0  0  0  0
   -0.8273   -0.1073    0.3714 C   0  0  0  0  0  0  0  0  0  0  0  0
   -2.0449    0.8370    0.5198 C   0  0  0  0  0  0  0  0  0  0  0  0
   -1.7004    1.0525   -0.8442 O   0  0  0  0  0  0  0  0  0  0  0  0
   -1.7582   -0.3193   -0.8651 C   0  0  0  0  0  0  0  0  0  0  0  0
   -0.8298   -1.3160   -0.3741 C   0  0  0  0  0  0  0  0  0  0  0  0
    2.7672    1.1329   -0.9209 H   0  0  0  0  0  0  0  0  0  0  0  0
    2.6770    1.4784    0.8930 H   0  0  0  0  0  0  0  0  0  0  0  0
    3.5017   -0.0204    0.2950 H   0  0  0  0  0  0  0  0  0  0  0  0
    1.4347   -0.8727    0.9446 H   0  0  0  0  0  0  0  0  0  0  0  0
    1.3911   -0.6519   -0.8388 H   0  0  0  0  0  0  0  0  0  0  0  0
   -1.8066    1.6897    1.1822 H   0  0  0  0  0  0  0  0  0  0  0  0
   -2.9941    0.3362    0.6971 H   0  0  0  0  0  0  0  0  0  0  0  0
   -2.8330   -0.5997   -0.6392 H   0  0  0  0  0  0  0  0  0  0  0  0
   -1.2240   -2.2130    0.2183 H   0  0  0  0  0  0  0  0  0  0  0  0
   -0.1324   -1.7147   -1.1321 H   0  0  0  0  0  0  0  0  0  0  0  0
  1  2  1  0
  2  3  1  0
  3  4  1  0
  4  5  1  0
  5  6  1  0
  6  7  1  0
  7  8  1  0
  7  4  1  0
  8  4  1  0
  1  9  1  0
  1 10  1  0
  1 11  1  0
  2 12  1  0
  2 13  1  0
  5 14  1  0
  5 15  1  0
  7 16  1  0
  8 17  1  0
  8 18  1  0
M  END
