
     RDKit          3D

 21 20  0  0  0  0  0  0  0  0999 V2000
    2.7449    0.6186   -0.2483 C   0  0  0  0  0  0  0  0  0  0  0  0
    1.5356    0.4264    0.6443 C   0  0  0  0  0  0  0  0  0  0  0  0
    0.6391   -0.3546   -0.0639 O   0  0  0  0  0  0  0  0  0  0  0  0
   -0.5276   -0.6294    0.6046 C   0  0  0  0  0  0  0  0  0  0  0  0
   -0.7886   -2.0854    0.7526 C   0  0  0  0  0  0  0  0  0  0  0  0
   -0.0543   -2.9600    0.3306 O   0  0  0  0  0  0  0  0  0  0  0  0
   -1.6493   -0.0689   -0.2631 C   0  0  0  0  0  0  0  0  0  0  0  0
   -1.3539    1.3934   -0.5785 C   0  0  0  0  0  0  0  0  0  0  0  0
   -1.5484   -0.7469   -1.4908 O   0  0  0  0  0  0  0  0  0  0  0  0
    2.5867    1.3923   -1.0220 H   0  0  0  0  0  0  0  0  0  0  0  0
    3.6743    0.7796    0.3347 H   0  0  0  0  0  0  0  0  0  0  0  0
    2.8888   -0.3389   -0.7942 H   0  0  0  0  0  0  0  0  0  0  0  0
    1.9162   -0.1085    1.5561 H   0  0  0  0  0  0  0  0  0  0  0  0
    1.1559    1.3950    0.9610 H   0  0  0  0  0  0  0  0  0  0  0  0
   -0.5777   -0.1807    1.6180 H   0  0  0  0  0  0  0  0  0  0  0  0
   -1.6840   -2.4087    1.2656 H   0  0  0  0  0  0  0  0  0  0  0  0
   -2.6298   -0.2028    0.1868 H   0  0  0  0  0  0  0  0  0  0  0  0
   -0.3173    1.5279   -0.9276 H   0  0  0  0  0  0  0  0  0  0  0  0
   -1.6116    1.9945    0.3013 H   0  0  0  0  0  0  0  0  0  0  0  0
   -2.0085    1.7329   -1.4125 H   0  0  0  0  0  0  0  0  0  0  0  0
   -2.3907   -1.1759   -1.7547 H   0  0  0  0  0  0  0  0  0  0  0  0
  1  2  1  0
  2  3  1  0
  3  4  1  0
  4  5  1  0
  5  6  2  0
  4  7  1  0
  7  8  1  0
  7  9  1  0
  1 10  1  0
  1 11  1  0
  1 12  1  0
  2 13  1  0
  2 14  1  0
  4 15  1  0
  5 16  1  0
  7 17  1  0
  8 18  1  0
  8 19  1  0
  8 20  1  0
  9 21  1  0
M  END
