
     RDKit          3D

 23 22  0  0  0  0  0  0  0  0999 V2000
    3.1195   -0.7965    0.9065 C   0  0  0  0  0  0  0  0  0  0  0  0
    2.0365   -0.4343   -0.0581 C   0  0  0  0  0  0  0  0  0  0  0  0
    0.8106   -0.1981    0.5687 O   0  0  0  0  0  0  0  0  0  0  0  0
   -0.1380    0.1290   -0.3724 C   0  0  0  0  0  0  0  0  0  0  0  0
   -1.2326   -0.9102   -0.3934 C   0  0  0  0  0  0  0  0  0  0  0  0
   -1.9409   -1.0466    0.9199 C   0  0  0  0  0  0  0  0  0  0  0  0
   -0.6457    1.4872   -0.1319 C   0  0  0  0  0  0  0  0  0  0  0  0
   -1.6817    2.1073   -0.9945 C   0  0  0  0  0  0  0  0  0  0  0  0
   -0.2217    2.1515    0.7987 O   0  0  0  0  0  0  0  0  0  0  0  0
    2.7944   -0.8388    1.9576 H   0  0  0  0  0  0  0  0  0  0  0  0
    3.9527   -0.0432    0.7979 H   0  0  0  0  0  0  0  0  0  0  0  0
    3.5895   -1.7698    0.6224 H   0  0  0  0  0  0  0  0  0  0  0  0
    1.8614   -1.2960   -0.7496 H   0  0  0  0  0  0  0  0  0  0  0  0
    2.3158    0.4644   -0.6736 H   0  0  0  0  0  0  0  0  0  0  0  0
    0.3193    0.1206   -1.3944 H   0  0  0  0  0  0  0  0  0  0  0  0
   -1.9195   -0.7413   -1.2255 H   0  0  0  0  0  0  0  0  0  0  0  0
   -0.7269   -1.8953   -0.5906 H   0  0  0  0  0  0  0  0  0  0  0  0
   -2.1903   -0.0583    1.3782 H   0  0  0  0  0  0  0  0  0  0  0  0
   -2.9076   -1.5908    0.7082 H   0  0  0  0  0  0  0  0  0  0  0  0
   -1.3714   -1.7023    1.6157 H   0  0  0  0  0  0  0  0  0  0  0  0
   -2.6814    1.8356   -0.6139 H   0  0  0  0  0  0  0  0  0  0  0  0
   -1.5994    3.2282   -1.0136 H   0  0  0  0  0  0  0  0  0  0  0  0
   -1.5428    1.7979   -2.0623 H   0  0  0  0  0  0  0  0  0  0  0  0
  1  2  1  0
  2  3  1  0
  3  4  1  0
  4  5  1  0
  5  6  1  0
  4  7  1  0
  7  8  1  0
  7  9  2  0
  1 10  1  0
  1 11  1  0
  1 12  1  0
  2 13  1  0
  2 14  1  0
  4 15  1  0
  5 16  1  0
  5 17  1  0
  6 18  1  0
  6 19  1  0
  6 20  1  0
  8 21  1  0
  8 22  1  0
  8 23  1  0
M  END
