
     RDKit          3D

 14 13  0  0  0  0  0  0  0  0999 V2000
   -1.9685   -0.1804    0.6251 C   0  0  0  0  0  0  0  0  0  0  0  0
   -1.2231    0.0527   -0.6619 C   0  0  0  0  0  0  0  0  0  0  0  0
    0.1231   -0.2494   -0.6188 O   0  0  0  0  0  0  0  0  0  0  0  0
    1.0773    0.3003    0.1960 C   0  0  0  0  0  0  0  0  0  0  0  0
    2.4968   -0.1522    0.1041 C   0  0  0  0  0  0  0  0  0  0  0  0
    0.6966    1.1860    1.0055 O   0  0  0  0  0  0  0  0  0  0  0  0
   -1.8356    0.6429    1.3534 H   0  0  0  0  0  0  0  0  0  0  0  0
   -1.8002   -1.1828    1.0473 H   0  0  0  0  0  0  0  0  0  0  0  0
   -3.0656   -0.1521    0.3559 H   0  0  0  0  0  0  0  0  0  0  0  0
   -1.6992   -0.6283   -1.4272 H   0  0  0  0  0  0  0  0  0  0  0  0
   -1.4626    1.0916   -0.9923 H   0  0  0  0  0  0  0  0  0  0  0  0
    2.5978   -1.2086   -0.1447 H   0  0  0  0  0  0  0  0  0  0  0  0
    3.0015    0.4153   -0.7292 H   0  0  0  0  0  0  0  0  0  0  0  0
    3.0618    0.0650    1.0130 H   0  0  0  0  0  0  0  0  0  0  0  0
  1  2  1  0
  2  3  1  0
  3  4  1  0
  4  5  1  0
  4  6  2  0
  1  7  1  0
  1  8  1  0
  1  9  1  0
  2 10  1  0
  2 11  1  0
  5 12  1  0
  5 13  1  0
  5 14  1  0
M  END
