
     RDKit          3D

 23 23  0  0  0  0  0  0  0  0999 V2000
    3.2055    0.9205   -0.5485 C   0  0  0  0  0  0  0  0  0  0  0  0
    2.0544   -0.0647   -0.5002 C   0  0  0  0  0  0  0  0  0  0  0  0
    0.9209    0.6260   -0.1575 O   0  0  0  0  0  0  0  0  0  0  0  0
   -0.2188   -0.1552   -0.0753 C   0  0  0  0  0  0  0  0  0  0  0  0
   -0.0967   -1.2516    0.9532 C   0  0  0  0  0  0  0  0  0  0  0  0
   -0.9818   -0.5181   -1.3041 C   0  0  0  0  0  0  0  0  0  0  0  0
   -1.4938    0.5106   -0.3549 C   0  0  0  0  0  0  0  0  0  0  0  0
   -2.7349    0.2433    0.4569 C   0  0  0  0  0  0  0  0  0  0  0  0
   -2.4355    0.5968    1.7828 O   0  0  0  0  0  0  0  0  0  0  0  0
    2.7823    1.8868   -0.8905 H   0  0  0  0  0  0  0  0  0  0  0  0
    3.6271    1.1122    0.4754 H   0  0  0  0  0  0  0  0  0  0  0  0
    3.9947    0.5769   -1.2497 H   0  0  0  0  0  0  0  0  0  0  0  0
    1.9304   -0.4490   -1.5377 H   0  0  0  0  0  0  0  0  0  0  0  0
    2.2966   -0.8955    0.1933 H   0  0  0  0  0  0  0  0  0  0  0  0
   -1.0470   -1.6484    1.3004 H   0  0  0  0  0  0  0  0  0  0  0  0
    0.4727   -2.0790    0.4580 H   0  0  0  0  0  0  0  0  0  0  0  0
    0.4693   -0.8635    1.8295 H   0  0  0  0  0  0  0  0  0  0  0  0
   -0.5915   -0.2209   -2.3050 H   0  0  0  0  0  0  0  0  0  0  0  0
   -1.5405   -1.4753   -1.3038 H   0  0  0  0  0  0  0  0  0  0  0  0
   -1.4599    1.5550   -0.7548 H   0  0  0  0  0  0  0  0  0  0  0  0
   -3.5820    0.8240    0.0491 H   0  0  0  0  0  0  0  0  0  0  0  0
   -3.0286   -0.8165    0.4732 H   0  0  0  0  0  0  0  0  0  0  0  0
   -2.5432    1.5854    1.8185 H   0  0  0  0  0  0  0  0  0  0  0  0
  1  2  1  0
  2  3  1  0
  3  4  1  0
  4  5  1  0
  4  6  1  0
  6  7  1  0
  7  8  1  0
  8  9  1  0
  7  4  1  0
  1 10  1  0
  1 11  1  0
  1 12  1  0
  2 13  1  0
  2 14  1  0
  5 15  1  0
  5 16  1  0
  5 17  1  0
  6 18  1  0
  6 19  1  0
  7 20  1  0
  8 21  1  0
  8 22  1  0
  9 23  1  0
M  END
