
     RDKit          3D

 22 22  0  0  0  0  0  0  0  0999 V2000
    2.8136    0.1668   -0.7025 C   0  0  0  0  0  0  0  0  0  0  0  0
    2.1755   -0.2538    0.5891 C   0  0  0  0  0  0  0  0  0  0  0  0
    0.8921    0.2725    0.7410 O   0  0  0  0  0  0  0  0  0  0  0  0
    0.0452   -0.1278   -0.2624 C   0  0  0  0  0  0  0  0  0  0  0  0
   -1.3247   -0.5552    0.1169 C   0  0  0  0  0  0  0  0  0  0  0  0
   -1.9670   -1.7314   -0.5928 C   0  0  0  0  0  0  0  0  0  0  0  0
   -1.0597    0.6873   -0.7628 C   0  0  0  0  0  0  0  0  0  0  0  0
   -1.5094    1.9608   -0.1205 C   0  0  0  0  0  0  0  0  0  0  0  0
    3.9060    0.2916   -0.5638 H   0  0  0  0  0  0  0  0  0  0  0  0
    2.7108   -0.6528   -1.4693 H   0  0  0  0  0  0  0  0  0  0  0  0
    2.3601    1.1080   -1.0213 H   0  0  0  0  0  0  0  0  0  0  0  0
    2.1644   -1.3745    0.6095 H   0  0  0  0  0  0  0  0  0  0  0  0
    2.7960    0.0497    1.4533 H   0  0  0  0  0  0  0  0  0  0  0  0
    0.5333   -0.8048   -1.0241 H   0  0  0  0  0  0  0  0  0  0  0  0
   -1.6178   -0.4056    1.1529 H   0  0  0  0  0  0  0  0  0  0  0  0
   -2.8971   -2.0163   -0.0554 H   0  0  0  0  0  0  0  0  0  0  0  0
   -2.2714   -1.4332   -1.6183 H   0  0  0  0  0  0  0  0  0  0  0  0
   -1.2798   -2.6049   -0.6392 H   0  0  0  0  0  0  0  0  0  0  0  0
   -1.3605    0.5950   -1.8360 H   0  0  0  0  0  0  0  0  0  0  0  0
   -2.5449    1.7680    0.2891 H   0  0  0  0  0  0  0  0  0  0  0  0
   -1.6570    2.7939   -0.8512 H   0  0  0  0  0  0  0  0  0  0  0  0
   -0.9079    2.2667    0.7504 H   0  0  0  0  0  0  0  0  0  0  0  0
  1  2  1  0
  2  3  1  0
  3  4  1  0
  4  5  1  0
  5  6  1  0
  5  7  1  0
  7  8  1  0
  7  4  1  0
  1  9  1  0
  1 10  1  0
  1 11  1  0
  2 12  1  0
  2 13  1  0
  4 14  1  0
  5 15  1  0
  6 16  1  0
  6 17  1  0
  6 18  1  0
  7 19  1  0
  8 20  1  0
  8 21  1  0
  8 22  1  0
M  END
