
     RDKit          3D

 23 23  0  0  0  0  0  0  0  0999 V2000
    3.1824   -0.6479    0.5351 C   0  0  0  0  0  0  0  0  0  0  0  0
    2.0281   -0.2083   -0.3206 C   0  0  0  0  0  0  0  0  0  0  0  0
    0.9556    0.2717    0.4226 O   0  0  0  0  0  0  0  0  0  0  0  0
   -0.0400    0.6424   -0.4937 C   0  0  0  0  0  0  0  0  0  0  0  0
   -0.5725    2.0446   -0.2678 C   0  0  0  0  0  0  0  0  0  0  0  0
   -1.6318    1.4115    0.6408 C   0  0  0  0  0  0  0  0  0  0  0  0
   -1.4274    0.1310   -0.1377 C   0  0  0  0  0  0  0  0  0  0  0  0
   -1.3471   -1.0226    0.5944 O   0  0  0  0  0  0  0  0  0  0  0  0
   -2.1407   -2.0538    0.1041 C   0  0  0  0  0  0  0  0  0  0  0  0
    3.4508    0.1655    1.2430 H   0  0  0  0  0  0  0  0  0  0  0  0
    3.0120   -1.6076    1.0551 H   0  0  0  0  0  0  0  0  0  0  0  0
    4.0699   -0.7497   -0.1522 H   0  0  0  0  0  0  0  0  0  0  0  0
    1.6627   -1.0273   -0.9463 H   0  0  0  0  0  0  0  0  0  0  0  0
    2.3856    0.6325   -0.9484 H   0  0  0  0  0  0  0  0  0  0  0  0
    0.2006    0.4935   -1.5468 H   0  0  0  0  0  0  0  0  0  0  0  0
    0.1751    2.6517    0.2539 H   0  0  0  0  0  0  0  0  0  0  0  0
   -0.9613    2.5013   -1.1781 H   0  0  0  0  0  0  0  0  0  0  0  0
   -2.5919    1.9279    0.4717 H   0  0  0  0  0  0  0  0  0  0  0  0
   -1.2459    1.4018    1.6687 H   0  0  0  0  0  0  0  0  0  0  0  0
   -2.0935    0.1235   -1.0147 H   0  0  0  0  0  0  0  0  0  0  0  0
   -1.9854   -2.9249    0.7819 H   0  0  0  0  0  0  0  0  0  0  0  0
   -1.8752   -2.3774   -0.9042 H   0  0  0  0  0  0  0  0  0  0  0  0
   -3.2101   -1.7793    0.1393 H   0  0  0  0  0  0  0  0  0  0  0  0
  1  2  1  0
  2  3  1  0
  3  4  1  0
  4  5  1  0
  5  6  1  0
  6  7  1  0
  7  8  1  0
  8  9  1  0
  7  4  1  0
  1 10  1  0
  1 11  1  0
  1 12  1  0
  2 13  1  0
  2 14  1  0
  4 15  1  0
  5 16  1  0
  5 17  1  0
  6 18  1  0
  6 19  1  0
  7 20  1  0
  9 21  1  0
  9 22  1  0
  9 23  1  0
M  END
