
     RDKit          3D

 20 19  0  0  0  0  0  0  0  0999 V2000
    2.8032    0.2657   -0.0744 C   0  0  0  0  0  0  0  0  0  0  0  0
    1.3544    0.2839   -0.5636 C   0  0  0  0  0  0  0  0  0  0  0  0
    0.5645   -0.1981    0.4514 O   0  0  0  0  0  0  0  0  0  0  0  0
   -0.7729   -0.2441    0.1637 C   0  0  0  0  0  0  0  0  0  0  0  0
   -1.4817   -0.8026    1.4026 C   0  0  0  0  0  0  0  0  0  0  0  0
   -1.2735    1.1568   -0.0982 C   0  0  0  0  0  0  0  0  0  0  0  0
   -1.1169   -1.0954   -0.9850 C   0  0  0  0  0  0  0  0  0  0  0  0
   -2.2741   -1.2224   -1.3457 O   0  0  0  0  0  0  0  0  0  0  0  0
    3.3070    1.2332   -0.2457 H   0  0  0  0  0  0  0  0  0  0  0  0
    3.3457   -0.5890   -0.5487 H   0  0  0  0  0  0  0  0  0  0  0  0
    2.8505    0.0654    1.0229 H   0  0  0  0  0  0  0  0  0  0  0  0
    1.2387   -0.2712   -1.5179 H   0  0  0  0  0  0  0  0  0  0  0  0
    1.1181    1.3460   -0.7753 H   0  0  0  0  0  0  0  0  0  0  0  0
   -0.9474   -0.5116    2.3298 H   0  0  0  0  0  0  0  0  0  0  0  0
   -1.5184   -1.9089    1.3761 H   0  0  0  0  0  0  0  0  0  0  0  0
   -2.5214   -0.3851    1.4300 H   0  0  0  0  0  0  0  0  0  0  0  0
   -1.5469    1.2808   -1.1847 H   0  0  0  0  0  0  0  0  0  0  0  0
   -2.2045    1.3145    0.4734 H   0  0  0  0  0  0  0  0  0  0  0  0
   -0.5544    1.9206    0.2419 H   0  0  0  0  0  0  0  0  0  0  0  0
   -0.3698   -1.6386   -1.5527 H   0  0  0  0  0  0  0  0  0  0  0  0
  1  2  1  0
  2  3  1  0
  3  4  1  0
  4  5  1  0
  4  6  1  0
  4  7  1  0
  7  8  2  0
  1  9  1  0
  1 10  1  0
  1 11  1  0
  2 12  1  0
  2 13  1  0
  5 14  1  0
  5 15  1  0
  5 16  1  0
  6 17  1  0
  6 18  1  0
  6 19  1  0
  7 20  1  0
M  END
