
     RDKit          3D

 23 23  0  0  0  0  0  0  0  0999 V2000
    3.4995   -0.4383    0.5492 C   0  0  0  0  0  0  0  0  0  0  0  0
    2.3822    0.2449   -0.2436 C   0  0  0  0  0  0  0  0  0  0  0  0
    1.2014   -0.2983    0.1590 O   0  0  0  0  0  0  0  0  0  0  0  0
    0.0751    0.1903   -0.4441 C   0  0  0  0  0  0  0  0  0  0  0  0
   -0.7393    0.8790    0.6131 C   0  0  0  0  0  0  0  0  0  0  0  0
   -2.0564    0.7491    0.6943 C   0  0  0  0  0  0  0  0  0  0  0  0
   -2.8727   -0.0725   -0.2258 C   0  0  0  0  0  0  0  0  0  0  0  0
   -2.0725   -0.1950   -1.5263 C   0  0  0  0  0  0  0  0  0  0  0  0
   -0.7326   -0.8408   -1.1782 C   0  0  0  0  0  0  0  0  0  0  0  0
    3.6033   -0.0049    1.5634 H   0  0  0  0  0  0  0  0  0  0  0  0
    4.4729   -0.3355    0.0370 H   0  0  0  0  0  0  0  0  0  0  0  0
    3.2991   -1.5427    0.6095 H   0  0  0  0  0  0  0  0  0  0  0  0
    2.5731    0.0015   -1.3243 H   0  0  0  0  0  0  0  0  0  0  0  0
    2.4879    1.3196   -0.1234 H   0  0  0  0  0  0  0  0  0  0  0  0
    0.3585    0.9729   -1.1801 H   0  0  0  0  0  0  0  0  0  0  0  0
   -0.2254    1.5014    1.3303 H   0  0  0  0  0  0  0  0  0  0  0  0
   -2.5611    1.2838    1.4910 H   0  0  0  0  0  0  0  0  0  0  0  0
   -3.1115   -1.0723    0.1874 H   0  0  0  0  0  0  0  0  0  0  0  0
   -3.8434    0.3977   -0.4875 H   0  0  0  0  0  0  0  0  0  0  0  0
   -1.9224    0.8587   -1.8868 H   0  0  0  0  0  0  0  0  0  0  0  0
   -2.6169   -0.7556   -2.2956 H   0  0  0  0  0  0  0  0  0  0  0  0
   -0.9395   -1.7417   -0.5722 H   0  0  0  0  0  0  0  0  0  0  0  0
   -0.2593   -1.1015   -2.1288 H   0  0  0  0  0  0  0  0  0  0  0  0
  1  2  1  0
  2  3  1  0
  3  4  1  0
  4  5  1  0
  5  6  2  0
  6  7  1  0
  7  8  1  0
  8  9  1  0
  9  4  1  0
  1 10  1  0
  1 11  1  0
  1 12  1  0
  2 13  1  0
  2 14  1  0
  4 15  1  0
  5 16  1  0
  6 17  1  0
  7 18  1  0
  7 19  1  0
  8 20  1  0
  8 21  1  0
  9 22  1  0
  9 23  1  0
M  END
