
     RDKit          3D

 25 25  0  0  0  0  0  0  0  0999 V2000
    2.8597   -0.6982   -0.1538 C   0  0  0  0  0  0  0  0  0  0  0  0
    2.1347    0.5518   -0.5164 C   0  0  0  0  0  0  0  0  0  0  0  0
    0.8704    0.4820   -0.9347 O   0  0  0  0  0  0  0  0  0  0  0  0
   -0.1463   -0.0003   -0.2171 C   0  0  0  0  0  0  0  0  0  0  0  0
   -0.0048   -1.4537    0.1731 C   0  0  0  0  0  0  0  0  0  0  0  0
   -0.5579    0.7694    0.9936 C   0  0  0  0  0  0  0  0  0  0  0  0
   -1.9701    1.2721    0.7747 C   0  0  0  0  0  0  0  0  0  0  0  0
   -2.4954    0.1350   -0.1084 C   0  0  0  0  0  0  0  0  0  0  0  0
   -1.3768    0.0706   -1.1161 C   0  0  0  0  0  0  0  0  0  0  0  0
    3.9466   -0.4117    0.0242 H   0  0  0  0  0  0  0  0  0  0  0  0
    2.9444   -1.4375   -0.9827 H   0  0  0  0  0  0  0  0  0  0  0  0
    2.5559   -1.1483    0.8101 H   0  0  0  0  0  0  0  0  0  0  0  0
    2.7290    0.9859   -1.3852 H   0  0  0  0  0  0  0  0  0  0  0  0
    2.3374    1.3021    0.2877 H   0  0  0  0  0  0  0  0  0  0  0  0
    0.7138   -2.0199   -0.4300 H   0  0  0  0  0  0  0  0  0  0  0  0
    0.2530   -1.5508    1.2504 H   0  0  0  0  0  0  0  0  0  0  0  0
   -0.9721   -2.0129    0.0375 H   0  0  0  0  0  0  0  0  0  0  0  0
    0.0625    1.6438    1.2251 H   0  0  0  0  0  0  0  0  0  0  0  0
   -0.5834    0.1256    1.8920 H   0  0  0  0  0  0  0  0  0  0  0  0
   -1.9291    2.2028    0.2034 H   0  0  0  0  0  0  0  0  0  0  0  0
   -2.5447    1.3385    1.7189 H   0  0  0  0  0  0  0  0  0  0  0  0
   -3.4672    0.4030   -0.5616 H   0  0  0  0  0  0  0  0  0  0  0  0
   -2.5187   -0.7869    0.4718 H   0  0  0  0  0  0  0  0  0  0  0  0
   -1.3932    1.0417   -1.6701 H   0  0  0  0  0  0  0  0  0  0  0  0
   -1.4477   -0.8039   -1.7862 H   0  0  0  0  0  0  0  0  0  0  0  0
  1  2  1  0
  2  3  1  0
  3  4  1  0
  4  5  1  0
  4  6  1  0
  6  7  1  0
  7  8  1  0
  8  9  1  0
  9  4  1  0
  1 10  1  0
  1 11  1  0
  1 12  1  0
  2 13  1  0
  2 14  1  0
  5 15  1  0
  5 16  1  0
  5 17  1  0
  6 18  1  0
  6 19  1  0
  7 20  1  0
  7 21  1  0
  8 22  1  0
  8 23  1  0
  9 24  1  0
  9 25  1  0
M  END
