
     RDKit          3D

 25 24  0  0  0  0  0  0  0  0999 V2000
   -2.8898    1.5011   -0.3537 C   0  0  0  0  0  0  0  0  0  0  0  0
   -2.0532    0.2447   -0.3212 C   0  0  0  0  0  0  0  0  0  0  0  0
   -0.7394    0.5791   -0.0201 O   0  0  0  0  0  0  0  0  0  0  0  0
    0.1067   -0.4933    0.0343 C   0  0  0  0  0  0  0  0  0  0  0  0
    0.1723   -1.2427   -1.2666 C   0  0  0  0  0  0  0  0  0  0  0  0
   -0.4000   -1.4714    1.0841 C   0  0  0  0  0  0  0  0  0  0  0  0
    1.4616   -0.0243    0.4995 C   0  0  0  0  0  0  0  0  0  0  0  0
    2.0115    0.9320   -0.3649 O   0  0  0  0  0  0  0  0  0  0  0  0
    3.2591    1.2806    0.1780 C   0  0  0  0  0  0  0  0  0  0  0  0
   -2.4407    2.2931   -0.9714 H   0  0  0  0  0  0  0  0  0  0  0  0
   -3.1568    1.8606    0.6628 H   0  0  0  0  0  0  0  0  0  0  0  0
   -3.8703    1.2213   -0.8296 H   0  0  0  0  0  0  0  0  0  0  0  0
   -2.1524   -0.2131   -1.3415 H   0  0  0  0  0  0  0  0  0  0  0  0
   -2.5105   -0.4387    0.4259 H   0  0  0  0  0  0  0  0  0  0  0  0
    0.3232   -0.6084   -2.1395 H   0  0  0  0  0  0  0  0  0  0  0  0
    0.9072   -2.0741   -1.1809 H   0  0  0  0  0  0  0  0  0  0  0  0
   -0.8235   -1.7596   -1.3925 H   0  0  0  0  0  0  0  0  0  0  0  0
   -0.8651   -2.3610    0.6164 H   0  0  0  0  0  0  0  0  0  0  0  0
   -1.0850   -0.9604    1.8007 H   0  0  0  0  0  0  0  0  0  0  0  0
    0.4542   -1.8725    1.7022 H   0  0  0  0  0  0  0  0  0  0  0  0
    2.1717   -0.8744    0.6301 H   0  0  0  0  0  0  0  0  0  0  0  0
    1.3214    0.4148    1.5126 H   0  0  0  0  0  0  0  0  0  0  0  0
    3.1184    1.7040    1.2086 H   0  0  0  0  0  0  0  0  0  0  0  0
    3.7757    1.9795   -0.4814 H   0  0  0  0  0  0  0  0  0  0  0  0
    3.9038    0.3831    0.3082 H   0  0  0  0  0  0  0  0  0  0  0  0
  1  2  1  0
  2  3  1  0
  3  4  1  0
  4  5  1  0
  4  6  1  0
  4  7  1  0
  7  8  1  0
  8  9  1  0
  1 10  1  0
  1 11  1  0
  1 12  1  0
  2 13  1  0
  2 14  1  0
  5 15  1  0
  5 16  1  0
  5 17  1  0
  6 18  1  0
  6 19  1  0
  6 20  1  0
  7 21  1  0
  7 22  1  0
  9 23  1  0
  9 24  1  0
  9 25  1  0
M  END
