
     RDKit          3D

 19 19  0  0  0  0  0  0  0  0999 V2000
    2.8348    1.0055    0.2202 C   0  0  0  0  0  0  0  0  0  0  0  0
    1.8482   -0.0672    0.5757 C   0  0  0  0  0  0  0  0  0  0  0  0
    0.6062    0.4295    0.1381 O   0  0  0  0  0  0  0  0  0  0  0  0
   -0.3845   -0.5402    0.4232 C   0  0  0  0  0  0  0  0  0  0  0  0
   -0.9666   -1.0120   -0.9130 C   0  0  0  0  0  0  0  0  0  0  0  0
   -1.8075   -0.2485    0.1589 C   0  0  0  0  0  0  0  0  0  0  0  0
   -2.8940   -1.0680    0.4335 O   0  0  0  0  0  0  0  0  0  0  0  0
   -2.1904    1.1156   -0.2548 C   0  0  0  0  0  0  0  0  0  0  0  0
   -1.8948    2.1141    0.3154 O   0  0  0  0  0  0  0  0  0  0  0  0
    2.3493    1.9822    0.0453 H   0  0  0  0  0  0  0  0  0  0  0  0
    3.5163    1.0906    1.0840 H   0  0  0  0  0  0  0  0  0  0  0  0
    3.3358    0.6952   -0.7011 H   0  0  0  0  0  0  0  0  0  0  0  0
    2.0011   -1.0468    0.0511 H   0  0  0  0  0  0  0  0  0  0  0  0
    1.7650   -0.2845    1.6536 H   0  0  0  0  0  0  0  0  0  0  0  0
   -0.0938   -1.4113    1.1124 H   0  0  0  0  0  0  0  0  0  0  0  0
   -1.1591   -2.0875   -0.9867 H   0  0  0  0  0  0  0  0  0  0  0  0
   -0.7542   -0.4842   -1.8217 H   0  0  0  0  0  0  0  0  0  0  0  0
   -3.2892   -1.3931   -0.3845 H   0  0  0  0  0  0  0  0  0  0  0  0
   -2.8228    1.2105   -1.2064 H   0  0  0  0  0  0  0  0  0  0  0  0
  1  2  1  0
  2  3  1  0
  3  4  1  0
  4  5  1  0
  5  6  1  0
  6  7  1  0
  6  8  1  0
  8  9  2  0
  6  4  1  0
  1 10  1  0
  1 11  1  0
  1 12  1  0
  2 13  1  0
  2 14  1  0
  4 15  1  0
  5 16  1  0
  5 17  1  0
  7 18  1  0
  8 19  1  0
M  END
