
     RDKit          3D

 21 22  0  0  0  0  0  0  0  0999 V2000
    3.3733   -0.3516    0.4160 C   0  0  0  0  0  0  0  0  0  0  0  0
    2.2712    0.2664   -0.4198 C   0  0  0  0  0  0  0  0  0  0  0  0
    1.0823   -0.1426    0.0851 O   0  0  0  0  0  0  0  0  0  0  0  0
   -0.0438    0.3619   -0.6029 C   0  0  0  0  0  0  0  0  0  0  0  0
   -1.1719    0.7997    0.1140 C   0  0  0  0  0  0  0  0  0  0  0  0
   -2.6113    0.9697   -0.1721 C   0  0  0  0  0  0  0  0  0  0  0  0
   -3.1275   -0.2875    0.2300 O   0  0  0  0  0  0  0  0  0  0  0  0
   -2.0660   -1.2124    0.1406 C   0  0  0  0  0  0  0  0  0  0  0  0
   -1.1260   -0.5194   -0.7621 C   0  0  0  0  0  0  0  0  0  0  0  0
    4.0737   -0.9629   -0.2015 H   0  0  0  0  0  0  0  0  0  0  0  0
    2.9648   -1.0310    1.2076 H   0  0  0  0  0  0  0  0  0  0  0  0
    3.9344    0.4411    0.9906 H   0  0  0  0  0  0  0  0  0  0  0  0
    2.4359    1.3604   -0.4389 H   0  0  0  0  0  0  0  0  0  0  0  0
    2.3810   -0.1348   -1.4506 H   0  0  0  0  0  0  0  0  0  0  0  0
    0.2992    1.0147   -1.4504 H   0  0  0  0  0  0  0  0  0  0  0  0
   -1.0857    0.6397    1.2366 H   0  0  0  0  0  0  0  0  0  0  0  0
   -2.8779    1.0653   -1.2374 H   0  0  0  0  0  0  0  0  0  0  0  0
   -3.0545    1.7508    0.4729 H   0  0  0  0  0  0  0  0  0  0  0  0
   -2.3970   -2.1622   -0.3383 H   0  0  0  0  0  0  0  0  0  0  0  0
   -1.6252   -1.4231    1.1391 H   0  0  0  0  0  0  0  0  0  0  0  0
   -1.6289   -0.4421   -1.7780 H   0  0  0  0  0  0  0  0  0  0  0  0
  1  2  1  0
  2  3  1  0
  3  4  1  0
  4  5  1  0
  5  6  1  0
  6  7  1  0
  7  8  1  0
  8  9  1  0
  9  4  1  0
  9  5  1  0
  1 10  1  0
  1 11  1  0
  1 12  1  0
  2 13  1  0
  2 14  1  0
  4 15  1  0
  5 16  1  0
  6 17  1  0
  6 18  1  0
  8 19  1  0
  8 20  1  0
  9 21  1  0
M  END
