
     RDKit          3D

 23 24  0  0  0  0  0  0  0  0999 V2000
    3.5476   -0.2997    0.2743 C   0  0  0  0  0  0  0  0  0  0  0  0
    2.0956   -0.6007    0.0643 C   0  0  0  0  0  0  0  0  0  0  0  0
    1.3532    0.5614    0.2572 O   0  0  0  0  0  0  0  0  0  0  0  0
    0.1210    0.4192    0.1047 C   0  0  0  0  0  0  0  0  0  0  0  0
   -0.8037   -0.4982    0.8778 C   0  0  0  0  0  0  0  0  0  0  0  0
   -1.7115    0.1780   -0.1158 C   0  0  0  0  0  0  0  0  0  0  0  0
   -3.0539    0.0093   -0.2867 C   0  0  0  0  0  0  0  0  0  0  0  0
   -0.9627    1.4423    0.2177 C   0  0  0  0  0  0  0  0  0  0  0  0
   -0.6099   -0.0812   -1.1183 C   0  0  0  0  0  0  0  0  0  0  0  0
    3.9918   -1.1526    0.8564 H   0  0  0  0  0  0  0  0  0  0  0  0
    4.0394   -0.2104   -0.7179 H   0  0  0  0  0  0  0  0  0  0  0  0
    3.6373    0.6273    0.8644 H   0  0  0  0  0  0  0  0  0  0  0  0
    1.7221   -1.3361    0.8323 H   0  0  0  0  0  0  0  0  0  0  0  0
    1.8882   -0.9899   -0.9721 H   0  0  0  0  0  0  0  0  0  0  0  0
   -0.6174   -1.5401    0.5982 H   0  0  0  0  0  0  0  0  0  0  0  0
   -0.9563   -0.2615    1.9302 H   0  0  0  0  0  0  0  0  0  0  0  0
   -3.4747   -0.9340    0.1704 H   0  0  0  0  0  0  0  0  0  0  0  0
   -3.6940    0.8298    0.1534 H   0  0  0  0  0  0  0  0  0  0  0  0
   -3.3898   -0.0297   -1.3650 H   0  0  0  0  0  0  0  0  0  0  0  0
   -0.9993    2.1813   -0.5992 H   0  0  0  0  0  0  0  0  0  0  0  0
   -1.1228    1.8335    1.2369 H   0  0  0  0  0  0  0  0  0  0  0  0
   -0.5877    0.5631   -1.9980 H   0  0  0  0  0  0  0  0  0  0  0  0
   -0.4123   -1.1460   -1.2651 H   0  0  0  0  0  0  0  0  0  0  0  0
  1  2  1  0
  2  3  1  0
  3  4  1  0
  4  5  1  0
  5  6  1  0
  6  7  1  0
  6  8  1  0
  6  9  1  0
  8  4  1  0
  9  4  1  0
  1 10  1  0
  1 11  1  0
  1 12  1  0
  2 13  1  0
  2 14  1  0
  5 15  1  0
  5 16  1  0
  7 17  1  0
  7 18  1  0
  7 19  1  0
  8 20  1  0
  8 21  1  0
  9 22  1  0
  9 23  1  0
M  END
