
     RDKit          3D

 23 22  0  0  0  0  0  0  0  0999 V2000
    2.9350    0.1012    0.1437 C   0  0  0  0  0  0  0  0  0  0  0  0
    1.9340   -0.9761   -0.1393 C   0  0  0  0  0  0  0  0  0  0  0  0
    0.9577   -0.6359   -1.0426 O   0  0  0  0  0  0  0  0  0  0  0  0
    0.1766    0.4329   -0.6932 C   0  0  0  0  0  0  0  0  0  0  0  0
   -0.5705    0.2011    0.6244 C   0  0  0  0  0  0  0  0  0  0  0  0
   -1.3940    1.4377    0.9074 C   0  0  0  0  0  0  0  0  0  0  0  0
   -1.5407   -0.9610    0.4683 C   0  0  0  0  0  0  0  0  0  0  0  0
   -2.5399   -0.6609   -0.6093 C   0  0  0  0  0  0  0  0  0  0  0  0
   -3.4942    0.0553   -0.3360 O   0  0  0  0  0  0  0  0  0  0  0  0
    3.7083    0.1843   -0.6361 H   0  0  0  0  0  0  0  0  0  0  0  0
    2.5096    1.0957    0.3042 H   0  0  0  0  0  0  0  0  0  0  0  0
    3.4728   -0.1925    1.0780 H   0  0  0  0  0  0  0  0  0  0  0  0
    1.5503   -1.3451    0.8259 H   0  0  0  0  0  0  0  0  0  0  0  0
    2.5068   -1.8275   -0.5844 H   0  0  0  0  0  0  0  0  0  0  0  0
    0.6910    1.4071   -0.6662 H   0  0  0  0  0  0  0  0  0  0  0  0
   -0.6195    0.5230   -1.4662 H   0  0  0  0  0  0  0  0  0  0  0  0
    0.1319    0.0127    1.4405 H   0  0  0  0  0  0  0  0  0  0  0  0
   -0.7639    2.1858    1.4240 H   0  0  0  0  0  0  0  0  0  0  0  0
   -1.7757    1.8101   -0.0813 H   0  0  0  0  0  0  0  0  0  0  0  0
   -2.2643    1.1385    1.4995 H   0  0  0  0  0  0  0  0  0  0  0  0
   -2.1179   -1.0429    1.4120 H   0  0  0  0  0  0  0  0  0  0  0  0
   -1.0282   -1.9032    0.2562 H   0  0  0  0  0  0  0  0  0  0  0  0
   -2.4652   -1.0401   -1.6124 H   0  0  0  0  0  0  0  0  0  0  0  0
  1  2  1  0
  2  3  1  0
  3  4  1  0
  4  5  1  0
  5  6  1  0
  5  7  1  0
  7  8  1  0
  8  9  2  0
  1 10  1  0
  1 11  1  0
  1 12  1  0
  2 13  1  0
  2 14  1  0
  4 15  1  0
  4 16  1  0
  5 17  1  0
  6 18  1  0
  6 19  1  0
  6 20  1  0
  7 21  1  0
  7 22  1  0
  8 23  1  0
M  END
