
     RDKit          3D

 23 23  0  0  0  0  0  0  0  0999 V2000
    3.4766   -0.5734    0.1623 C   0  0  0  0  0  0  0  0  0  0  0  0
    2.8084    0.4975   -0.6150 C   0  0  0  0  0  0  0  0  0  0  0  0
    1.6065    0.9323   -0.1065 O   0  0  0  0  0  0  0  0  0  0  0  0
    0.6444   -0.0316   -0.0077 C   0  0  0  0  0  0  0  0  0  0  0  0
   -0.6336    0.5693    0.5656 C   0  0  0  0  0  0  0  0  0  0  0  0
   -1.7108   -0.5183    0.6741 C   0  0  0  0  0  0  0  0  0  0  0  0
   -2.9400   -0.1659    1.1725 O   0  0  0  0  0  0  0  0  0  0  0  0
   -2.8393   -0.5628   -0.2253 C   0  0  0  0  0  0  0  0  0  0  0  0
   -3.1726    0.5385   -1.1919 C   0  0  0  0  0  0  0  0  0  0  0  0
    4.5847   -0.5469    0.0775 H   0  0  0  0  0  0  0  0  0  0  0  0
    3.1665   -1.6054   -0.0985 H   0  0  0  0  0  0  0  0  0  0  0  0
    3.2740   -0.4435    1.2653 H   0  0  0  0  0  0  0  0  0  0  0  0
    2.5903    0.0864   -1.6424 H   0  0  0  0  0  0  0  0  0  0  0  0
    3.5137    1.3374   -0.7727 H   0  0  0  0  0  0  0  0  0  0  0  0
    0.3735   -0.3448   -1.0553 H   0  0  0  0  0  0  0  0  0  0  0  0
    1.0133   -0.8628    0.5901 H   0  0  0  0  0  0  0  0  0  0  0  0
   -0.9750    1.4343   -0.0088 H   0  0  0  0  0  0  0  0  0  0  0  0
   -0.4577    0.9125    1.6118 H   0  0  0  0  0  0  0  0  0  0  0  0
   -1.3043   -1.4845    1.0601 H   0  0  0  0  0  0  0  0  0  0  0  0
   -3.2978   -1.5601   -0.4465 H   0  0  0  0  0  0  0  0  0  0  0  0
   -2.9626    1.5080   -0.6957 H   0  0  0  0  0  0  0  0  0  0  0  0
   -4.2477    0.4427   -1.4973 H   0  0  0  0  0  0  0  0  0  0  0  0
   -2.5104    0.4411   -2.0741 H   0  0  0  0  0  0  0  0  0  0  0  0
  1  2  1  0
  2  3  1  0
  3  4  1  0
  4  5  1  0
  5  6  1  0
  6  7  1  0
  7  8  1  0
  8  9  1  0
  8  6  1  0
  1 10  1  0
  1 11  1  0
  1 12  1  0
  2 13  1  0
  2 14  1  0
  4 15  1  0
  4 16  1  0
  5 17  1  0
  5 18  1  0
  6 19  1  0
  8 20  1  0
  9 21  1  0
  9 22  1  0
  9 23  1  0
M  END
