
     RDKit          3D

 21 22  0  0  0  0  0  0  0  0999 V2000
   -3.6075   -0.1291    0.2612 C   0  0  0  0  0  0  0  0  0  0  0  0
   -2.2254   -0.0068   -0.2886 C   0  0  0  0  0  0  0  0  0  0  0  0
   -1.2466   -0.3622    0.6352 O   0  0  0  0  0  0  0  0  0  0  0  0
    0.0177   -0.2296    0.0716 C   0  0  0  0  0  0  0  0  0  0  0  0
    1.0368   -1.2138    0.5092 C   0  0  0  0  0  0  0  0  0  0  0  0
    1.1253    0.2315    0.9425 C   0  0  0  0  0  0  0  0  0  0  0  0
    2.2628    1.0288    0.4312 C   0  0  0  0  0  0  0  0  0  0  0  0
    3.1134    0.4842   -0.6460 C   0  0  0  0  0  0  0  0  0  0  0  0
    3.5302    0.3671    0.6611 O   0  0  0  0  0  0  0  0  0  0  0  0
   -3.9839    0.7702    0.7707 H   0  0  0  0  0  0  0  0  0  0  0  0
   -3.7081   -0.9660    0.9999 H   0  0  0  0  0  0  0  0  0  0  0  0
   -4.3016   -0.3900   -0.5746 H   0  0  0  0  0  0  0  0  0  0  0  0
   -2.1302   -0.6461   -1.1780 H   0  0  0  0  0  0  0  0  0  0  0  0
   -2.0402    1.0557   -0.5535 H   0  0  0  0  0  0  0  0  0  0  0  0
    0.0529    0.1198   -0.9706 H   0  0  0  0  0  0  0  0  0  0  0  0
    1.6506   -1.6489   -0.2628 H   0  0  0  0  0  0  0  0  0  0  0  0
    0.8391   -1.9057    1.3566 H   0  0  0  0  0  0  0  0  0  0  0  0
    0.8161    0.4882    1.9806 H   0  0  0  0  0  0  0  0  0  0  0  0
    2.3765    2.0999    0.7306 H   0  0  0  0  0  0  0  0  0  0  0  0
    2.8549   -0.4148   -1.1869 H   0  0  0  0  0  0  0  0  0  0  0  0
    3.5673    1.2676   -1.3004 H   0  0  0  0  0  0  0  0  0  0  0  0
  1  2  1  0
  2  3  1  0
  3  4  1  0
  4  5  1  0
  5  6  1  0
  6  7  1  0
  7  8  1  0
  8  9  1  0
  6  4  1  0
  9  7  1  0
  1 10  1  0
  1 11  1  0
  1 12  1  0
  2 13  1  0
  2 14  1  0
  4 15  1  0
  5 16  1  0
  5 17  1  0
  6 18  1  0
  7 19  1  0
  8 20  1  0
  8 21  1  0
M  END
