
     RDKit          3D

 25 25  0  0  0  0  0  0  0  0999 V2000
   -3.1574    0.4363    0.5077 C   0  0  0  0  0  0  0  0  0  0  0  0
   -2.7999   -0.5124   -0.6040 C   0  0  0  0  0  0  0  0  0  0  0  0
   -1.5954   -0.1357   -1.1551 O   0  0  0  0  0  0  0  0  0  0  0  0
   -0.5437   -0.1365   -0.2679 C   0  0  0  0  0  0  0  0  0  0  0  0
    0.4287    1.0309   -0.4787 C   0  0  0  0  0  0  0  0  0  0  0  0
    0.8346    1.7746    0.7773 C   0  0  0  0  0  0  0  0  0  0  0  0
    0.8532   -0.3682   -0.7013 C   0  0  0  0  0  0  0  0  0  0  0  0
    1.8010   -1.0450    0.2955 C   0  0  0  0  0  0  0  0  0  0  0  0
    3.1745   -1.2089   -0.2894 C   0  0  0  0  0  0  0  0  0  0  0  0
   -2.6371    0.1061    1.4316 H   0  0  0  0  0  0  0  0  0  0  0  0
   -2.7602    1.4406    0.2664 H   0  0  0  0  0  0  0  0  0  0  0  0
   -4.2544    0.4223    0.6631 H   0  0  0  0  0  0  0  0  0  0  0  0
   -2.8520   -1.5747   -0.3162 H   0  0  0  0  0  0  0  0  0  0  0  0
   -3.5767   -0.3745   -1.4010 H   0  0  0  0  0  0  0  0  0  0  0  0
   -0.7806   -0.4337    0.7664 H   0  0  0  0  0  0  0  0  0  0  0  0
    0.2868    1.6824   -1.3535 H   0  0  0  0  0  0  0  0  0  0  0  0
    0.4180    1.2951    1.6894 H   0  0  0  0  0  0  0  0  0  0  0  0
    1.9273    1.8468    0.7749 H   0  0  0  0  0  0  0  0  0  0  0  0
    0.4009    2.7933    0.7406 H   0  0  0  0  0  0  0  0  0  0  0  0
    0.9803   -0.6944   -1.7524 H   0  0  0  0  0  0  0  0  0  0  0  0
    1.8071   -0.4933    1.2569 H   0  0  0  0  0  0  0  0  0  0  0  0
    1.4019   -2.0635    0.4856 H   0  0  0  0  0  0  0  0  0  0  0  0
    3.8829   -0.4131    0.0230 H   0  0  0  0  0  0  0  0  0  0  0  0
    3.1254   -1.1944   -1.4117 H   0  0  0  0  0  0  0  0  0  0  0  0
    3.6347   -2.1801    0.0527 H   0  0  0  0  0  0  0  0  0  0  0  0
  1  2  1  0
  2  3  1  0
  3  4  1  0
  4  5  1  0
  5  6  1  0
  5  7  1  0
  7  8  1  0
  8  9  1  0
  7  4  1  0
  1 10  1  0
  1 11  1  0
  1 12  1  0
  2 13  1  0
  2 14  1  0
  4 15  1  0
  5 16  1  0
  6 17  1  0
  6 18  1  0
  6 19  1  0
  7 20  1  0
  8 21  1  0
  8 22  1  0
  9 23  1  0
  9 24  1  0
  9 25  1  0
M  END
