
     RDKit          3D

 19 19  0  0  0  0  0  0  0  0999 V2000
    2.7541    0.5330    0.5715 C   0  0  0  0  0  0  0  0  0  0  0  0
    1.5851    0.2346   -0.3147 C   0  0  0  0  0  0  0  0  0  0  0  0
    0.4430   -0.1327    0.4124 O   0  0  0  0  0  0  0  0  0  0  0  0
   -0.5603   -0.3816   -0.4994 C   0  0  0  0  0  0  0  0  0  0  0  0
   -1.2098   -1.7342   -0.1857 C   0  0  0  0  0  0  0  0  0  0  0  0
   -1.9832   -1.0373    0.7718 O   0  0  0  0  0  0  0  0  0  0  0  0
   -1.9460    0.0487   -0.1009 C   0  0  0  0  0  0  0  0  0  0  0  0
   -2.0570    1.3709    0.5341 C   0  0  0  0  0  0  0  0  0  0  0  0
   -2.1708    1.4317    1.7442 O   0  0  0  0  0  0  0  0  0  0  0  0
    2.8779    1.6322    0.7764 H   0  0  0  0  0  0  0  0  0  0  0  0
    3.6946    0.2491    0.0147 H   0  0  0  0  0  0  0  0  0  0  0  0
    2.7757   -0.0657    1.5045 H   0  0  0  0  0  0  0  0  0  0  0  0
    1.3361    1.1462   -0.8996 H   0  0  0  0  0  0  0  0  0  0  0  0
    1.8356   -0.6307   -0.9707 H   0  0  0  0  0  0  0  0  0  0  0  0
   -0.2915   -0.2528   -1.5602 H   0  0  0  0  0  0  0  0  0  0  0  0
   -0.5385   -2.4831    0.2366 H   0  0  0  0  0  0  0  0  0  0  0  0
   -1.8614   -2.0452   -1.0147 H   0  0  0  0  0  0  0  0  0  0  0  0
   -2.6481   -0.1417   -0.9378 H   0  0  0  0  0  0  0  0  0  0  0  0
   -2.0355    2.2586   -0.0825 H   0  0  0  0  0  0  0  0  0  0  0  0
  1  2  1  0
  2  3  1  0
  3  4  1  0
  4  5  1  0
  5  6  1  0
  6  7  1  0
  7  8  1  0
  8  9  2  0
  7  4  1  0
  1 10  1  0
  1 11  1  0
  1 12  1  0
  2 13  1  0
  2 14  1  0
  4 15  1  0
  5 16  1  0
  5 17  1  0
  7 18  1  0
  8 19  1  0
M  END
