
     RDKit          3D

 19 18  0  0  0  0  0  0  0  0999 V2000
    3.1689   -0.0817    0.5806 C   0  0  0  0  0  0  0  0  0  0  0  0
    2.4445   -0.3185   -0.7315 C   0  0  0  0  0  0  0  0  0  0  0  0
    1.1282   -0.6662   -0.4491 O   0  0  0  0  0  0  0  0  0  0  0  0
    0.2369    0.1485    0.2048 C   0  0  0  0  0  0  0  0  0  0  0  0
    0.5934    1.2787    0.5834 O   0  0  0  0  0  0  0  0  0  0  0  0
   -1.1352   -0.3421    0.4455 C   0  0  0  0  0  0  0  0  0  0  0  0
   -2.1715    0.5282   -0.1268 C   0  0  0  0  0  0  0  0  0  0  0  0
   -3.6043    0.1978    0.0738 C   0  0  0  0  0  0  0  0  0  0  0  0
   -1.8768    1.5114   -0.7583 O   0  0  0  0  0  0  0  0  0  0  0  0
    4.0009    0.6556    0.4538 H   0  0  0  0  0  0  0  0  0  0  0  0
    3.6346   -1.0628    0.8490 H   0  0  0  0  0  0  0  0  0  0  0  0
    2.4813    0.1837    1.3988 H   0  0  0  0  0  0  0  0  0  0  0  0
    2.9198   -1.1750   -1.2726 H   0  0  0  0  0  0  0  0  0  0  0  0
    2.5364    0.5575   -1.4063 H   0  0  0  0  0  0  0  0  0  0  0  0
   -1.2519   -1.4048    0.1318 H   0  0  0  0  0  0  0  0  0  0  0  0
   -1.2602   -0.2805    1.5713 H   0  0  0  0  0  0  0  0  0  0  0  0
   -3.8472    0.3861    1.1368 H   0  0  0  0  0  0  0  0  0  0  0  0
   -4.2480    0.7821   -0.6213 H   0  0  0  0  0  0  0  0  0  0  0  0
   -3.7499   -0.8979   -0.1510 H   0  0  0  0  0  0  0  0  0  0  0  0
  1  2  1  0
  2  3  1  0
  3  4  1  0
  4  5  2  0
  4  6  1  0
  6  7  1  0
  7  8  1  0
  7  9  2  0
  1 10  1  0
  1 11  1  0
  1 12  1  0
  2 13  1  0
  2 14  1  0
  6 15  1  0
  6 16  1  0
  8 17  1  0
  8 18  1  0
  8 19  1  0
M  END
