
     RDKit          3D

 18 17  0  0  0  0  0  0  0  0999 V2000
   -2.7740    0.4327    0.3566 C   0  0  0  0  0  0  0  0  0  0  0  0
   -2.0433   -0.8579    0.2716 C   0  0  0  0  0  0  0  0  0  0  0  0
   -0.6666   -0.8318    0.2473 O   0  0  0  0  0  0  0  0  0  0  0  0
    0.1792   -0.2170   -0.6280 C   0  0  0  0  0  0  0  0  0  0  0  0
   -0.4318    0.4287   -1.5565 O   0  0  0  0  0  0  0  0  0  0  0  0
    1.6270   -0.2009   -0.6488 C   0  0  0  0  0  0  0  0  0  0  0  0
    2.2939    0.7108    0.3379 C   0  0  0  0  0  0  0  0  0  0  0  0
    3.6810    0.5618    0.1217 O   0  0  0  0  0  0  0  0  0  0  0  0
   -2.5006    1.1815   -0.4167 H   0  0  0  0  0  0  0  0  0  0  0  0
   -3.8609    0.1972    0.1331 H   0  0  0  0  0  0  0  0  0  0  0  0
   -2.7921    0.8826    1.3789 H   0  0  0  0  0  0  0  0  0  0  0  0
   -2.3247   -1.4327    1.2114 H   0  0  0  0  0  0  0  0  0  0  0  0
   -2.4979   -1.4624   -0.5598 H   0  0  0  0  0  0  0  0  0  0  0  0
    2.1059   -1.2146   -0.5238 H   0  0  0  0  0  0  0  0  0  0  0  0
    2.0113    0.1226   -1.6593 H   0  0  0  0  0  0  0  0  0  0  0  0
    2.0312    1.7595    0.2856 H   0  0  0  0  0  0  0  0  0  0  0  0
    2.1084    0.3006    1.3697 H   0  0  0  0  0  0  0  0  0  0  0  0
    3.8538   -0.3609   -0.1800 H   0  0  0  0  0  0  0  0  0  0  0  0
  1  2  1  0
  2  3  1  0
  3  4  1  0
  4  5  2  0
  4  6  1  0
  6  7  1  0
  7  8  1  0
  1  9  1  0
  1 10  1  0
  1 11  1  0
  2 12  1  0
  2 13  1  0
  6 14  1  0
  6 15  1  0
  7 16  1  0
  7 17  1  0
  8 18  1  0
M  END
