
     RDKit          3D

 23 22  0  0  0  0  0  0  0  0999 V2000
    3.4730   -0.1986   -0.3372 C   0  0  0  0  0  0  0  0  0  0  0  0
    3.0642   -0.7305    1.0022 C   0  0  0  0  0  0  0  0  0  0  0  0
    1.9128   -0.0609    1.4118 O   0  0  0  0  0  0  0  0  0  0  0  0
    0.9349   -0.3021    0.4655 C   0  0  0  0  0  0  0  0  0  0  0  0
   -0.3743    0.3851    0.8127 C   0  0  0  0  0  0  0  0  0  0  0  0
   -1.2968    0.0905   -0.1873 O   0  0  0  0  0  0  0  0  0  0  0  0
   -2.4857    0.7284    0.1504 C   0  0  0  0  0  0  0  0  0  0  0  0
   -3.5839    0.4957   -0.8515 C   0  0  0  0  0  0  0  0  0  0  0  0
   -3.9197   -0.8267   -1.0149 O   0  0  0  0  0  0  0  0  0  0  0  0
    3.0859   -0.7951   -1.1884 H   0  0  0  0  0  0  0  0  0  0  0  0
    4.5853   -0.1914   -0.3781 H   0  0  0  0  0  0  0  0  0  0  0  0
    3.1407    0.8637   -0.4977 H   0  0  0  0  0  0  0  0  0  0  0  0
    2.8661   -1.8272    0.9657 H   0  0  0  0  0  0  0  0  0  0  0  0
    3.8756   -0.5717    1.7554 H   0  0  0  0  0  0  0  0  0  0  0  0
    1.2719    0.0447   -0.5303 H   0  0  0  0  0  0  0  0  0  0  0  0
    0.7348   -1.4095    0.4612 H   0  0  0  0  0  0  0  0  0  0  0  0
   -0.1727    1.4808    0.8716 H   0  0  0  0  0  0  0  0  0  0  0  0
   -0.7114    0.0552    1.8159 H   0  0  0  0  0  0  0  0  0  0  0  0
   -2.8255    0.3855    1.1425 H   0  0  0  0  0  0  0  0  0  0  0  0
   -2.2662    1.8225    0.1369 H   0  0  0  0  0  0  0  0  0  0  0  0
   -4.4488    1.1053   -0.5399 H   0  0  0  0  0  0  0  0  0  0  0  0
   -3.2143    0.8709   -1.8433 H   0  0  0  0  0  0  0  0  0  0  0  0
   -3.6459   -1.4146   -0.2688 H   0  0  0  0  0  0  0  0  0  0  0  0
  1  2  1  0
  2  3  1  0
  3  4  1  0
  4  5  1  0
  5  6  1  0
  6  7  1  0
  7  8  1  0
  8  9  1  0
  1 10  1  0
  1 11  1  0
  1 12  1  0
  2 13  1  0
  2 14  1  0
  4 15  1  0
  4 16  1  0
  5 17  1  0
  5 18  1  0
  7 19  1  0
  7 20  1  0
  8 21  1  0
  8 22  1  0
  9 23  1  0
M  END
