
     RDKit          3D

 19 20  0  0  0  0  0  0  0  0999 V2000
    2.4414   -0.3466    0.2273 C   0  0  0  0  0  0  0  0  0  0  0  0
    1.7595    0.2666   -0.9642 C   0  0  0  0  0  0  0  0  0  0  0  0
    0.4238   -0.0294   -1.0617 O   0  0  0  0  0  0  0  0  0  0  0  0
   -0.3444    0.3760   -0.0048 C   0  0  0  0  0  0  0  0  0  0  0  0
   -1.1825   -0.7578    0.5382 C   0  0  0  0  0  0  0  0  0  0  0  0
   -1.3894   -1.7451   -0.4286 O   0  0  0  0  0  0  0  0  0  0  0  0
   -2.3391    0.2029    0.5673 C   0  0  0  0  0  0  0  0  0  0  0  0
   -2.7570    0.6225   -0.6689 O   0  0  0  0  0  0  0  0  0  0  0  0
   -1.5637    1.1888   -0.3126 C   0  0  0  0  0  0  0  0  0  0  0  0
    3.1001   -1.2123   -0.0730 H   0  0  0  0  0  0  0  0  0  0  0  0
    1.7438   -0.6281    1.0406 H   0  0  0  0  0  0  0  0  0  0  0  0
    3.1746    0.4180    0.6172 H   0  0  0  0  0  0  0  0  0  0  0  0
    2.2567   -0.1292   -1.8811 H   0  0  0  0  0  0  0  0  0  0  0  0
    1.8562    1.3806   -0.9910 H   0  0  0  0  0  0  0  0  0  0  0  0
    0.2707    0.8910    0.7725 H   0  0  0  0  0  0  0  0  0  0  0  0
   -0.8132   -1.1049    1.5039 H   0  0  0  0  0  0  0  0  0  0  0  0
   -2.2441   -2.2021   -0.3168 H   0  0  0  0  0  0  0  0  0  0  0  0
   -2.7788    0.5475    1.4970 H   0  0  0  0  0  0  0  0  0  0  0  0
   -1.6147    2.2616   -0.0613 H   0  0  0  0  0  0  0  0  0  0  0  0
  1  2  1  0
  2  3  1  0
  3  4  1  0
  4  5  1  0
  5  6  1  0
  5  7  1  0
  7  8  1  0
  8  9  1  0
  9  4  1  0
  9  7  1  0
  1 10  1  0
  1 11  1  0
  1 12  1  0
  2 13  1  0
  2 14  1  0
  4 15  1  0
  5 16  1  0
  6 17  1  0
  7 18  1  0
  9 19  1  0
M  END
