
     RDKit          3D

 25 25  0  0  0  0  0  0  0  0999 V2000
   -2.5287    1.4605   -0.0175 C   0  0  0  0  0  0  0  0  0  0  0  0
   -2.3139    0.0985    0.5520 C   0  0  0  0  0  0  0  0  0  0  0  0
   -1.6642   -0.8317   -0.1321 O   0  0  0  0  0  0  0  0  0  0  0  0
   -0.3866   -0.7997   -0.5129 C   0  0  0  0  0  0  0  0  0  0  0  0
    0.0620   -2.0655   -1.2575 C   0  0  0  0  0  0  0  0  0  0  0  0
    0.2178    0.4316   -1.1481 C   0  0  0  0  0  0  0  0  0  0  0  0
    0.5809   -0.0385    0.2905 C   0  0  0  0  0  0  0  0  0  0  0  0
    2.0108   -0.4147    0.4349 C   0  0  0  0  0  0  0  0  0  0  0  0
    2.6696    0.6114    1.3332 C   0  0  0  0  0  0  0  0  0  0  0  0
   -3.5396    1.8710    0.3119 H   0  0  0  0  0  0  0  0  0  0  0  0
   -1.7929    2.2184    0.3075 H   0  0  0  0  0  0  0  0  0  0  0  0
   -2.5997    1.4590   -1.1189 H   0  0  0  0  0  0  0  0  0  0  0  0
   -3.3596   -0.3144    0.7752 H   0  0  0  0  0  0  0  0  0  0  0  0
   -1.8917    0.2047    1.6095 H   0  0  0  0  0  0  0  0  0  0  0  0
   -0.3878   -2.9662   -0.8186 H   0  0  0  0  0  0  0  0  0  0  0  0
    1.1499   -2.0824   -1.2661 H   0  0  0  0  0  0  0  0  0  0  0  0
   -0.2783   -1.9698   -2.3107 H   0  0  0  0  0  0  0  0  0  0  0  0
   -0.2898    1.3802   -1.2352 H   0  0  0  0  0  0  0  0  0  0  0  0
    1.0164    0.3020   -1.9183 H   0  0  0  0  0  0  0  0  0  0  0  0
    0.1615    0.5701    1.1059 H   0  0  0  0  0  0  0  0  0  0  0  0
    2.5475   -0.4783   -0.5512 H   0  0  0  0  0  0  0  0  0  0  0  0
    2.0913   -1.4004    0.9684 H   0  0  0  0  0  0  0  0  0  0  0  0
    1.9474    0.9947    2.0830 H   0  0  0  0  0  0  0  0  0  0  0  0
    2.9670    1.5220    0.7334 H   0  0  0  0  0  0  0  0  0  0  0  0
    3.6106    0.2376    1.7819 H   0  0  0  0  0  0  0  0  0  0  0  0
  1  2  1  0
  2  3  1  0
  3  4  1  0
  4  5  1  0
  4  6  1  0
  6  7  1  0
  7  8  1  0
  8  9  1  0
  7  4  1  0
  1 10  1  0
  1 11  1  0
  1 12  1  0
  2 13  1  0
  2 14  1  0
  5 15  1  0
  5 16  1  0
  5 17  1  0
  6 18  1  0
  6 19  1  0
  7 20  1  0
  8 21  1  0
  8 22  1  0
  9 23  1  0
  9 24  1  0
  9 25  1  0
M  END
