
     RDKit          3D

 25 24  0  0  0  0  0  0  0  0999 V2000
    3.2519    1.5138    0.4887 C   0  0  0  0  0  0  0  0  0  0  0  0
    2.5208    0.5776   -0.4212 C   0  0  0  0  0  0  0  0  0  0  0  0
    1.5242   -0.1510    0.2592 O   0  0  0  0  0  0  0  0  0  0  0  0
    0.9324   -0.9731   -0.7032 C   0  0  0  0  0  0  0  0  0  0  0  0
   -0.1641   -1.8245   -0.1300 C   0  0  0  0  0  0  0  0  0  0  0  0
   -1.1981   -1.1155    0.4276 O   0  0  0  0  0  0  0  0  0  0  0  0
   -1.8532   -0.2730   -0.4368 C   0  0  0  0  0  0  0  0  0  0  0  0
   -3.3430   -0.5473   -0.5018 C   0  0  0  0  0  0  0  0  0  0  0  0
   -1.7030    1.1383    0.1130 C   0  0  0  0  0  0  0  0  0  0  0  0
    3.2624    2.5671    0.1230 H   0  0  0  0  0  0  0  0  0  0  0  0
    2.9426    1.4380    1.5518 H   0  0  0  0  0  0  0  0  0  0  0  0
    4.3362    1.2004    0.4814 H   0  0  0  0  0  0  0  0  0  0  0  0
    3.1893   -0.0820   -0.9927 H   0  0  0  0  0  0  0  0  0  0  0  0
    1.9730    1.1990   -1.1699 H   0  0  0  0  0  0  0  0  0  0  0  0
    1.7426   -1.6765   -1.0322 H   0  0  0  0  0  0  0  0  0  0  0  0
    0.5882   -0.3767   -1.5494 H   0  0  0  0  0  0  0  0  0  0  0  0
   -0.4969   -2.5154   -0.9285 H   0  0  0  0  0  0  0  0  0  0  0  0
    0.2635   -2.4728    0.6713 H   0  0  0  0  0  0  0  0  0  0  0  0
   -1.4481   -0.2880   -1.4689 H   0  0  0  0  0  0  0  0  0  0  0  0
   -3.5744   -1.6024   -0.7256 H   0  0  0  0  0  0  0  0  0  0  0  0
   -3.7654    0.0628   -1.3298 H   0  0  0  0  0  0  0  0  0  0  0  0
   -3.8522   -0.2189    0.4287 H   0  0  0  0  0  0  0  0  0  0  0  0
   -2.3984    1.8451   -0.3820 H   0  0  0  0  0  0  0  0  0  0  0  0
   -0.6655    1.4995    0.0530 H   0  0  0  0  0  0  0  0  0  0  0  0
   -2.0646    1.0756    1.1818 H   0  0  0  0  0  0  0  0  0  0  0  0
  1  2  1  0
  2  3  1  0
  3  4  1  0
  4  5  1  0
  5  6  1  0
  6  7  1  0
  7  8  1  0
  7  9  1  0
  1 10  1  0
  1 11  1  0
  1 12  1  0
  2 13  1  0
  2 14  1  0
  4 15  1  0
  4 16  1  0
  5 17  1  0
  5 18  1  0
  7 19  1  0
  8 20  1  0
  8 21  1  0
  8 22  1  0
  9 23  1  0
  9 24  1  0
  9 25  1  0
M  END
