
     RDKit          3D

 19 19  0  0  0  0  0  0  0  0999 V2000
    3.1518    0.3273    0.8127 C   0  0  0  0  0  0  0  0  0  0  0  0
    2.2923   -0.5217   -0.1315 C   0  0  0  0  0  0  0  0  0  0  0  0
    0.9511   -0.2633    0.2255 O   0  0  0  0  0  0  0  0  0  0  0  0
   -0.1303   -0.8481   -0.4037 C   0  0  0  0  0  0  0  0  0  0  0  0
    0.0962   -1.6480   -1.3383 O   0  0  0  0  0  0  0  0  0  0  0  0
   -1.5179   -0.5621   -0.0128 C   0  0  0  0  0  0  0  0  0  0  0  0
   -2.2513    0.4374   -0.8726 C   0  0  0  0  0  0  0  0  0  0  0  0
   -2.7615    0.8620    0.4960 C   0  0  0  0  0  0  0  0  0  0  0  0
   -1.5899    0.3540    1.0493 O   0  0  0  0  0  0  0  0  0  0  0  0
    2.7752    1.3764    0.7363 H   0  0  0  0  0  0  0  0  0  0  0  0
    2.9946   -0.0554    1.8384 H   0  0  0  0  0  0  0  0  0  0  0  0
    4.2165    0.2386    0.4988 H   0  0  0  0  0  0  0  0  0  0  0  0
    2.5668   -1.6002   -0.0039 H   0  0  0  0  0  0  0  0  0  0  0  0
    2.5148   -0.2727   -1.1869 H   0  0  0  0  0  0  0  0  0  0  0  0
   -2.1670   -1.4320    0.1955 H   0  0  0  0  0  0  0  0  0  0  0  0
   -3.0686    0.0501   -1.4884 H   0  0  0  0  0  0  0  0  0  0  0  0
   -1.6379    1.2536   -1.2941 H   0  0  0  0  0  0  0  0  0  0  0  0
   -3.6562    0.3368    0.8402 H   0  0  0  0  0  0  0  0  0  0  0  0
   -2.7784    1.9673    0.6526 H   0  0  0  0  0  0  0  0  0  0  0  0
  1  2  1  0
  2  3  1  0
  3  4  1  0
  4  5  2  0
  4  6  1  0
  6  7  1  0
  7  8  1  0
  8  9  1  0
  9  6  1  0
  1 10  1  0
  1 11  1  0
  1 12  1  0
  2 13  1  0
  2 14  1  0
  6 15  1  0
  7 16  1  0
  7 17  1  0
  8 18  1  0
  8 19  1  0
M  END
