
     RDKit          3D

 21 20  0  0  0  0  0  0  0  0999 V2000
    3.5492    0.7472    0.0329 C   0  0  0  0  0  0  0  0  0  0  0  0
    2.5963   -0.4001   -0.2672 C   0  0  0  0  0  0  0  0  0  0  0  0
    1.3026    0.1661   -0.3401 O   0  0  0  0  0  0  0  0  0  0  0  0
    0.1925   -0.5914   -0.5985 C   0  0  0  0  0  0  0  0  0  0  0  0
    0.3050   -1.8117   -0.7766 O   0  0  0  0  0  0  0  0  0  0  0  0
   -1.1305    0.0395   -0.6650 C   0  0  0  0  0  0  0  0  0  0  0  0
   -1.0815    1.4079   -0.4436 O   0  0  0  0  0  0  0  0  0  0  0  0
   -2.0087   -0.6437    0.3791 C   0  0  0  0  0  0  0  0  0  0  0  0
   -3.3741    0.0446    0.2743 C   0  0  0  0  0  0  0  0  0  0  0  0
    3.1738    1.2365    0.9498 H   0  0  0  0  0  0  0  0  0  0  0  0
    4.5965    0.4112    0.1285 H   0  0  0  0  0  0  0  0  0  0  0  0
    3.4220    1.4800   -0.8042 H   0  0  0  0  0  0  0  0  0  0  0  0
    2.5808   -1.1425    0.5623 H   0  0  0  0  0  0  0  0  0  0  0  0
    2.8965   -0.8408   -1.2270 H   0  0  0  0  0  0  0  0  0  0  0  0
   -1.5588   -0.1048   -1.6845 H   0  0  0  0  0  0  0  0  0  0  0  0
   -0.6350    1.6616    0.3936 H   0  0  0  0  0  0  0  0  0  0  0  0
   -2.1949   -1.7015    0.1116 H   0  0  0  0  0  0  0  0  0  0  0  0
   -1.5704   -0.5316    1.3707 H   0  0  0  0  0  0  0  0  0  0  0  0
   -3.2909    1.0885    0.6295 H   0  0  0  0  0  0  0  0  0  0  0  0
   -3.6746   -0.0268   -0.7888 H   0  0  0  0  0  0  0  0  0  0  0  0
   -4.0958   -0.4881    0.9271 H   0  0  0  0  0  0  0  0  0  0  0  0
  1  2  1  0
  2  3  1  0
  3  4  1  0
  4  5  2  0
  4  6  1  0
  6  7  1  0
  6  8  1  0
  8  9  1  0
  1 10  1  0
  1 11  1  0
  1 12  1  0
  2 13  1  0
  2 14  1  0
  6 15  1  0
  7 16  1  0
  8 17  1  0
  8 18  1  0
  9 19  1  0
  9 20  1  0
  9 21  1  0
M  END
