
     RDKit          3D

 21 23  0  0  0  0  0  0  0  0999 V2000
    2.2477    0.6504    0.1113 C   0  0  0  0  0  0  0  0  0  0  0  0
    1.5769   -0.2420    1.0951 C   0  0  0  0  0  0  0  0  0  0  0  0
    0.8638   -1.2796    0.5568 O   0  0  0  0  0  0  0  0  0  0  0  0
   -0.1609   -0.8270   -0.2791 C   0  0  0  0  0  0  0  0  0  0  0  0
   -1.0324   -1.8731   -0.9458 C   0  0  0  0  0  0  0  0  0  0  0  0
   -1.5762   -0.9941    0.1029 C   0  0  0  0  0  0  0  0  0  0  0  0
   -1.8828    0.4207   -0.3265 C   0  0  0  0  0  0  0  0  0  0  0  0
   -1.1303    1.5313    0.2633 C   0  0  0  0  0  0  0  0  0  0  0  0
   -0.3474    0.6144   -0.5646 C   0  0  0  0  0  0  0  0  0  0  0  0
    2.1534    0.2965   -0.9448 H   0  0  0  0  0  0  0  0  0  0  0  0
    1.7651    1.6535    0.1589 H   0  0  0  0  0  0  0  0  0  0  0  0
    3.3005    0.8097    0.3984 H   0  0  0  0  0  0  0  0  0  0  0  0
    2.3602   -0.7007    1.7582 H   0  0  0  0  0  0  0  0  0  0  0  0
    0.9255    0.3417    1.8031 H   0  0  0  0  0  0  0  0  0  0  0  0
   -0.8000   -2.9104   -0.6568 H   0  0  0  0  0  0  0  0  0  0  0  0
   -1.4063   -1.6659   -1.9812 H   0  0  0  0  0  0  0  0  0  0  0  0
   -1.8802   -1.3584    1.0920 H   0  0  0  0  0  0  0  0  0  0  0  0
   -2.4933    0.4943   -1.2245 H   0  0  0  0  0  0  0  0  0  0  0  0
   -1.0848    1.5726    1.3613 H   0  0  0  0  0  0  0  0  0  0  0  0
   -1.3298    2.5385   -0.1849 H   0  0  0  0  0  0  0  0  0  0  0  0
   -0.0688    0.9275   -1.5934 H   0  0  0  0  0  0  0  0  0  0  0  0
  1  2  1  0
  2  3  1  0
  3  4  1  0
  4  5  1  0
  5  6  1  0
  6  7  1  0
  7  8  1  0
  8  9  1  0
  6  4  1  0
  9  7  1  0
  9  4  1  0
  1 10  1  0
  1 11  1  0
  1 12  1  0
  2 13  1  0
  2 14  1  0
  5 15  1  0
  5 16  1  0
  6 17  1  0
  7 18  1  0
  8 19  1  0
  8 20  1  0
  9 21  1  0
M  END
