
     RDKit          3D

 23 23  0  0  0  0  0  0  0  0999 V2000
    3.2606    0.6162   -0.4338 C   0  0  0  0  0  0  0  0  0  0  0  0
    2.0997    0.5403    0.5048 C   0  0  0  0  0  0  0  0  0  0  0  0
    0.9747   -0.0427   -0.0652 O   0  0  0  0  0  0  0  0  0  0  0  0
   -0.0613   -0.0852    0.8455 C   0  0  0  0  0  0  0  0  0  0  0  0
   -1.3138   -0.7033    0.3006 C   0  0  0  0  0  0  0  0  0  0  0  0
   -1.1583   -2.1109   -0.1554 C   0  0  0  0  0  0  0  0  0  0  0  0
   -1.9000    0.1045   -0.8323 C   0  0  0  0  0  0  0  0  0  0  0  0
   -2.2880    1.5278   -0.4834 C   0  0  0  0  0  0  0  0  0  0  0  0
   -1.2155    1.1968   -1.3291 O   0  0  0  0  0  0  0  0  0  0  0  0
    3.2825    1.5829   -1.0031 H   0  0  0  0  0  0  0  0  0  0  0  0
    3.3243   -0.2462   -1.1276 H   0  0  0  0  0  0  0  0  0  0  0  0
    4.1948    0.6136    0.1665 H   0  0  0  0  0  0  0  0  0  0  0  0
    2.4195    0.0160    1.4215 H   0  0  0  0  0  0  0  0  0  0  0  0
    1.8401    1.5924    0.7912 H   0  0  0  0  0  0  0  0  0  0  0  0
   -0.2798    0.9513    1.1701 H   0  0  0  0  0  0  0  0  0  0  0  0
    0.2819   -0.6526    1.7346 H   0  0  0  0  0  0  0  0  0  0  0  0
   -2.0782   -0.6966    1.1164 H   0  0  0  0  0  0  0  0  0  0  0  0
   -0.8523   -2.2036   -1.2308 H   0  0  0  0  0  0  0  0  0  0  0  0
   -0.5018   -2.7284    0.5006 H   0  0  0  0  0  0  0  0  0  0  0  0
   -2.1698   -2.5904   -0.1101 H   0  0  0  0  0  0  0  0  0  0  0  0
   -2.5811   -0.4677   -1.5132 H   0  0  0  0  0  0  0  0  0  0  0  0
   -2.0344    1.9205    0.5047 H   0  0  0  0  0  0  0  0  0  0  0  0
   -3.2439    1.8653   -0.9642 H   0  0  0  0  0  0  0  0  0  0  0  0
  1  2  1  0
  2  3  1  0
  3  4  1  0
  4  5  1  0
  5  6  1  0
  5  7  1  0
  7  8  1  0
  8  9  1  0
  9  7  1  0
  1 10  1  0
  1 11  1  0
  1 12  1  0
  2 13  1  0
  2 14  1  0
  4 15  1  0
  4 16  1  0
  5 17  1  0
  6 18  1  0
  6 19  1  0
  6 20  1  0
  7 21  1  0
  8 22  1  0
  8 23  1  0
M  END
