
     RDKit          3D

 23 23  0  0  0  0  0  0  0  0999 V2000
    3.6648    0.3836   -0.0444 C   0  0  0  0  0  0  0  0  0  0  0  0
    2.3160   -0.0672    0.5434 C   0  0  0  0  0  0  0  0  0  0  0  0
    1.6484   -0.8866   -0.3274 O   0  0  0  0  0  0  0  0  0  0  0  0
    0.4367   -1.3559    0.0355 C   0  0  0  0  0  0  0  0  0  0  0  0
   -0.6746   -0.3849    0.1685 C   0  0  0  0  0  0  0  0  0  0  0  0
   -0.7528    0.9056   -0.0065 C   0  0  0  0  0  0  0  0  0  0  0  0
   -2.1472    1.4249    0.2685 C   0  0  0  0  0  0  0  0  0  0  0  0
   -3.0089    0.2026    0.1921 C   0  0  0  0  0  0  0  0  0  0  0  0
   -2.0508   -0.8795    0.5891 C   0  0  0  0  0  0  0  0  0  0  0  0
    4.3589   -0.4722   -0.1354 H   0  0  0  0  0  0  0  0  0  0  0  0
    4.0466    1.1598    0.6460 H   0  0  0  0  0  0  0  0  0  0  0  0
    3.4152    0.8556   -1.0110 H   0  0  0  0  0  0  0  0  0  0  0  0
    2.5422   -0.7048    1.4628 H   0  0  0  0  0  0  0  0  0  0  0  0
    1.8074    0.8543    0.8436 H   0  0  0  0  0  0  0  0  0  0  0  0
    0.4834   -1.9993    0.9678 H   0  0  0  0  0  0  0  0  0  0  0  0
    0.0983   -2.1155   -0.7419 H   0  0  0  0  0  0  0  0  0  0  0  0
    0.0108    1.5792   -0.3169 H   0  0  0  0  0  0  0  0  0  0  0  0
   -2.4205    2.1237   -0.5628 H   0  0  0  0  0  0  0  0  0  0  0  0
   -2.1706    1.9473    1.2259 H   0  0  0  0  0  0  0  0  0  0  0  0
   -3.4381    0.0306   -0.8094 H   0  0  0  0  0  0  0  0  0  0  0  0
   -3.8255    0.2987    0.9378 H   0  0  0  0  0  0  0  0  0  0  0  0
   -2.0899   -1.0636    1.6708 H   0  0  0  0  0  0  0  0  0  0  0  0
   -2.2501   -1.8365    0.0299 H   0  0  0  0  0  0  0  0  0  0  0  0
  1  2  1  0
  2  3  1  0
  3  4  1  0
  4  5  1  0
  5  6  2  0
  6  7  1  0
  7  8  1  0
  8  9  1  0
  9  5  1  0
  1 10  1  0
  1 11  1  0
  1 12  1  0
  2 13  1  0
  2 14  1  0
  4 15  1  0
  4 16  1  0
  6 17  1  0
  7 18  1  0
  7 19  1  0
  8 20  1  0
  8 21  1  0
  9 22  1  0
  9 23  1  0
M  END
