
     RDKit          3D

 19 19  0  0  0  0  0  0  0  0999 V2000
    2.8190   -0.1425    0.2041 C   0  0  0  0  0  0  0  0  0  0  0  0
    1.3699    0.3236   -0.0005 C   0  0  0  0  0  0  0  0  0  0  0  0
    0.4977   -0.7025    0.1975 O   0  0  0  0  0  0  0  0  0  0  0  0
   -0.8119   -0.4390    0.0479 C   0  0  0  0  0  0  0  0  0  0  0  0
   -1.7618   -1.5624    0.2655 C   0  0  0  0  0  0  0  0  0  0  0  0
   -2.9612   -1.3979    0.1476 O   0  0  0  0  0  0  0  0  0  0  0  0
   -1.3766    0.8084    0.7098 C   0  0  0  0  0  0  0  0  0  0  0  0
   -2.3465    0.7669   -0.3234 O   0  0  0  0  0  0  0  0  0  0  0  0
   -1.2620    0.3664   -1.1446 C   0  0  0  0  0  0  0  0  0  0  0  0
    3.4812    0.5401   -0.3280 H   0  0  0  0  0  0  0  0  0  0  0  0
    2.8836   -1.1403   -0.2697 H   0  0  0  0  0  0  0  0  0  0  0  0
    3.0778   -0.1595    1.2794 H   0  0  0  0  0  0  0  0  0  0  0  0
    1.3433    0.7688   -1.0157 H   0  0  0  0  0  0  0  0  0  0  0  0
    1.1766    1.0958    0.7979 H   0  0  0  0  0  0  0  0  0  0  0  0
   -1.3765   -2.5386    0.5323 H   0  0  0  0  0  0  0  0  0  0  0  0
   -0.7511    1.6877    0.5400 H   0  0  0  0  0  0  0  0  0  0  0  0
   -1.7945    0.6586    1.7171 H   0  0  0  0  0  0  0  0  0  0  0  0
   -0.6674    1.2893   -1.3405 H   0  0  0  0  0  0  0  0  0  0  0  0
   -1.5396   -0.2231   -2.0167 H   0  0  0  0  0  0  0  0  0  0  0  0
  1  2  1  0
  2  3  1  0
  3  4  1  0
  4  5  1  0
  5  6  2  0
  4  7  1  0
  7  8  1  0
  8  9  1  0
  9  4  1  0
  1 10  1  0
  1 11  1  0
  1 12  1  0
  2 13  1  0
  2 14  1  0
  5 15  1  0
  7 16  1  0
  7 17  1  0
  9 18  1  0
  9 19  1  0
M  END
