
     RDKit          3D

 23 23  0  0  0  0  0  0  0  0999 V2000
    3.3550    0.0669    0.1007 C   0  0  0  0  0  0  0  0  0  0  0  0
    2.3620   -0.5595   -0.8486 C   0  0  0  0  0  0  0  0  0  0  0  0
    1.4582    0.3226   -1.3646 O   0  0  0  0  0  0  0  0  0  0  0  0
    0.6582    0.9881   -0.4663 C   0  0  0  0  0  0  0  0  0  0  0  0
   -0.1864    0.0403    0.3513 C   0  0  0  0  0  0  0  0  0  0  0  0
   -1.0998    0.6288    1.3602 C   0  0  0  0  0  0  0  0  0  0  0  0
   -1.6314    0.0298    0.0302 C   0  0  0  0  0  0  0  0  0  0  0  0
   -2.4348   -1.0567    0.2389 O   0  0  0  0  0  0  0  0  0  0  0  0
   -3.5679   -0.9425   -0.5594 C   0  0  0  0  0  0  0  0  0  0  0  0
    2.9343    0.2434    1.1125 H   0  0  0  0  0  0  0  0  0  0  0  0
    3.7056    1.0262   -0.3540 H   0  0  0  0  0  0  0  0  0  0  0  0
    4.1908   -0.6486    0.2304 H   0  0  0  0  0  0  0  0  0  0  0  0
    2.9841   -0.9096   -1.7244 H   0  0  0  0  0  0  0  0  0  0  0  0
    1.9476   -1.4918   -0.4216 H   0  0  0  0  0  0  0  0  0  0  0  0
   -0.0324    1.6216   -1.0660 H   0  0  0  0  0  0  0  0  0  0  0  0
    1.2241    1.6974    0.1789 H   0  0  0  0  0  0  0  0  0  0  0  0
    0.3119   -0.9183    0.6176 H   0  0  0  0  0  0  0  0  0  0  0  0
   -1.2464    0.0711    2.2805 H   0  0  0  0  0  0  0  0  0  0  0  0
   -1.2516    1.7112    1.4511 H   0  0  0  0  0  0  0  0  0  0  0  0
   -2.0200    0.7710   -0.7095 H   0  0  0  0  0  0  0  0  0  0  0  0
   -4.2474   -1.8040   -0.4210 H   0  0  0  0  0  0  0  0  0  0  0  0
   -4.0974    0.0315   -0.3739 H   0  0  0  0  0  0  0  0  0  0  0  0
   -3.3164   -0.9189   -1.6475 H   0  0  0  0  0  0  0  0  0  0  0  0
  1  2  1  0
  2  3  1  0
  3  4  1  0
  4  5  1  0
  5  6  1  0
  6  7  1  0
  7  8  1  0
  8  9  1  0
  7  5  1  0
  1 10  1  0
  1 11  1  0
  1 12  1  0
  2 13  1  0
  2 14  1  0
  4 15  1  0
  4 16  1  0
  5 17  1  0
  6 18  1  0
  6 19  1  0
  7 20  1  0
  9 21  1  0
  9 22  1  0
  9 23  1  0
M  END
