
     RDKit          3D

 23 23  0  0  0  0  0  0  0  0999 V2000
    2.9294   -0.5825    0.9051 C   0  0  0  0  0  0  0  0  0  0  0  0
    1.7502    0.3505    0.6931 C   0  0  0  0  0  0  0  0  0  0  0  0
    0.8261   -0.2957   -0.0667 O   0  0  0  0  0  0  0  0  0  0  0  0
   -0.3175    0.3989   -0.3629 C   0  0  0  0  0  0  0  0  0  0  0  0
   -0.2824    1.6885   -1.1159 C   0  0  0  0  0  0  0  0  0  0  0  0
   -1.5180   -0.5288   -0.6452 C   0  0  0  0  0  0  0  0  0  0  0  0
   -1.3536   -1.9951   -0.4449 C   0  0  0  0  0  0  0  0  0  0  0  0
   -1.5039    0.2977    0.6116 C   0  0  0  0  0  0  0  0  0  0  0  0
   -2.4139    1.3234    0.6496 O   0  0  0  0  0  0  0  0  0  0  0  0
    2.7504   -1.5826    0.4183 H   0  0  0  0  0  0  0  0  0  0  0  0
    3.1029   -0.8084    1.9742 H   0  0  0  0  0  0  0  0  0  0  0  0
    3.8633   -0.1968    0.4611 H   0  0  0  0  0  0  0  0  0  0  0  0
    1.2876    0.5092    1.7109 H   0  0  0  0  0  0  0  0  0  0  0  0
    2.0503    1.3431    0.3456 H   0  0  0  0  0  0  0  0  0  0  0  0
   -0.3424    2.5829   -0.4274 H   0  0  0  0  0  0  0  0  0  0  0  0
    0.5776    1.8037   -1.7807 H   0  0  0  0  0  0  0  0  0  0  0  0
   -1.1927    1.7626   -1.7466 H   0  0  0  0  0  0  0  0  0  0  0  0
   -2.1883   -0.1939   -1.4791 H   0  0  0  0  0  0  0  0  0  0  0  0
   -0.4680   -2.1471    0.2234 H   0  0  0  0  0  0  0  0  0  0  0  0
   -1.1160   -2.5496   -1.3763 H   0  0  0  0  0  0  0  0  0  0  0  0
   -2.2220   -2.4168    0.0980 H   0  0  0  0  0  0  0  0  0  0  0  0
   -1.3277   -0.2004    1.5795 H   0  0  0  0  0  0  0  0  0  0  0  0
   -2.8914    1.4370   -0.2248 H   0  0  0  0  0  0  0  0  0  0  0  0
  1  2  1  0
  2  3  1  0
  3  4  1  0
  4  5  1  0
  4  6  1  0
  6  7  1  0
  6  8  1  0
  8  9  1  0
  8  4  1  0
  1 10  1  0
  1 11  1  0
  1 12  1  0
  2 13  1  0
  2 14  1  0
  5 15  1  0
  5 16  1  0
  5 17  1  0
  6 18  1  0
  7 19  1  0
  7 20  1  0
  7 21  1  0
  8 22  1  0
  9 23  1  0
M  END
