
     RDKit          3D

 25 25  0  0  0  0  0  0  0  0999 V2000
    3.1482   -0.1651    0.8098 C   0  0  0  0  0  0  0  0  0  0  0  0
    2.4104    1.0629    0.3937 C   0  0  0  0  0  0  0  0  0  0  0  0
    1.0268    0.8692    0.3127 O   0  0  0  0  0  0  0  0  0  0  0  0
    0.8034   -0.1313   -0.6302 C   0  0  0  0  0  0  0  0  0  0  0  0
   -0.6471   -0.4420   -0.8182 C   0  0  0  0  0  0  0  0  0  0  0  0
   -1.4180    0.7875   -1.2903 C   0  0  0  0  0  0  0  0  0  0  0  0
   -1.9611    0.9337    0.1106 C   0  0  0  0  0  0  0  0  0  0  0  0
   -1.4068   -0.4483    0.4654 C   0  0  0  0  0  0  0  0  0  0  0  0
   -2.5379   -1.4583    0.5374 C   0  0  0  0  0  0  0  0  0  0  0  0
    4.1536    0.1622    1.1873 H   0  0  0  0  0  0  0  0  0  0  0  0
    2.6206   -0.7785    1.5586 H   0  0  0  0  0  0  0  0  0  0  0  0
    3.3266   -0.7894   -0.0815 H   0  0  0  0  0  0  0  0  0  0  0  0
    2.6293    1.9046    1.1049 H   0  0  0  0  0  0  0  0  0  0  0  0
    2.7263    1.3548   -0.6480 H   0  0  0  0  0  0  0  0  0  0  0  0
    1.3278   -1.0753   -0.3880 H   0  0  0  0  0  0  0  0  0  0  0  0
    1.2744    0.2357   -1.5838 H   0  0  0  0  0  0  0  0  0  0  0  0
   -0.7717   -1.3214   -1.4732 H   0  0  0  0  0  0  0  0  0  0  0  0
   -0.7664    1.6135   -1.5943 H   0  0  0  0  0  0  0  0  0  0  0  0
   -2.1480    0.5112   -2.0675 H   0  0  0  0  0  0  0  0  0  0  0  0
   -3.0603    1.0182    0.1950 H   0  0  0  0  0  0  0  0  0  0  0  0
   -1.4901    1.7438    0.7048 H   0  0  0  0  0  0  0  0  0  0  0  0
   -0.8259   -0.4625    1.3915 H   0  0  0  0  0  0  0  0  0  0  0  0
   -3.1076   -1.2516    1.4801 H   0  0  0  0  0  0  0  0  0  0  0  0
   -2.0903   -2.4663    0.6473 H   0  0  0  0  0  0  0  0  0  0  0  0
   -3.2164   -1.4071   -0.3243 H   0  0  0  0  0  0  0  0  0  0  0  0
  1  2  1  0
  2  3  1  0
  3  4  1  0
  4  5  1  0
  5  6  1  0
  6  7  1  0
  7  8  1  0
  8  9  1  0
  8  5  1  0
  1 10  1  0
  1 11  1  0
  1 12  1  0
  2 13  1  0
  2 14  1  0
  4 15  1  0
  4 16  1  0
  5 17  1  0
  6 18  1  0
  6 19  1  0
  7 20  1  0
  7 21  1  0
  8 22  1  0
  9 23  1  0
  9 24  1  0
  9 25  1  0
M  END
