
     RDKit          3D

 25 25  0  0  0  0  0  0  0  0999 V2000
    3.2059    0.5151   -0.2022 C   0  0  0  0  0  0  0  0  0  0  0  0
    1.8157    0.0886   -0.6936 C   0  0  0  0  0  0  0  0  0  0  0  0
    1.0416   -0.1137    0.4087 O   0  0  0  0  0  0  0  0  0  0  0  0
   -0.2433   -0.5018    0.1928 C   0  0  0  0  0  0  0  0  0  0  0  0
   -0.3536   -1.8265   -0.5678 C   0  0  0  0  0  0  0  0  0  0  0  0
   -0.8397   -0.8298    1.5693 C   0  0  0  0  0  0  0  0  0  0  0  0
   -1.0977    0.5095   -0.5237 C   0  0  0  0  0  0  0  0  0  0  0  0
   -1.3494    1.8486    0.0129 C   0  0  0  0  0  0  0  0  0  0  0  0
   -2.4464    0.8024    0.0615 C   0  0  0  0  0  0  0  0  0  0  0  0
    3.7654   -0.3301    0.2237 H   0  0  0  0  0  0  0  0  0  0  0  0
    2.9967    1.3045    0.5733 H   0  0  0  0  0  0  0  0  0  0  0  0
    3.7740    0.9867   -1.0123 H   0  0  0  0  0  0  0  0  0  0  0  0
    1.4140    0.9479   -1.2839 H   0  0  0  0  0  0  0  0  0  0  0  0
    1.9582   -0.7664   -1.3533 H   0  0  0  0  0  0  0  0  0  0  0  0
    0.2031   -2.6037   -0.0394 H   0  0  0  0  0  0  0  0  0  0  0  0
   -0.1138   -1.7196   -1.6282 H   0  0  0  0  0  0  0  0  0  0  0  0
   -1.4385   -2.0990   -0.5098 H   0  0  0  0  0  0  0  0  0  0  0  0
   -1.8178   -1.3027    1.4639 H   0  0  0  0  0  0  0  0  0  0  0  0
   -0.1504   -1.6236    1.9836 H   0  0  0  0  0  0  0  0  0  0  0  0
   -0.7813    0.0122    2.2553 H   0  0  0  0  0  0  0  0  0  0  0  0
   -1.0650    0.4465   -1.6516 H   0  0  0  0  0  0  0  0  0  0  0  0
   -0.9009    2.2020    0.9702 H   0  0  0  0  0  0  0  0  0  0  0  0
   -1.5700    2.6804   -0.6822 H   0  0  0  0  0  0  0  0  0  0  0  0
   -2.7095    0.4913    1.0787 H   0  0  0  0  0  0  0  0  0  0  0  0
   -3.2975    0.8812   -0.6462 H   0  0  0  0  0  0  0  0  0  0  0  0
  1  2  1  0
  2  3  1  0
  3  4  1  0
  4  5  1  0
  4  6  1  0
  4  7  1  0
  7  8  1  0
  8  9  1  0
  9  7  1  0
  1 10  1  0
  1 11  1  0
  1 12  1  0
  2 13  1  0
  2 14  1  0
  5 15  1  0
  5 16  1  0
  5 17  1  0
  6 18  1  0
  6 19  1  0
  6 20  1  0
  7 21  1  0
  8 22  1  0
  8 23  1  0
  9 24  1  0
  9 25  1  0
M  END
