
     RDKit          3D

 19 22  0  0  0  0  0  0  0  0999 V2000
    2.4436   -0.0524   -0.1965 C   0  0  0  0  0  0  0  0  0  0  0  0
    1.5435    0.5580    0.8415 C   0  0  0  0  0  0  0  0  0  0  0  0
    0.5028   -0.2874    1.2053 O   0  0  0  0  0  0  0  0  0  0  0  0
   -0.2211   -0.5420    0.0774 C   0  0  0  0  0  0  0  0  0  0  0  0
   -0.8615    0.7411   -0.6408 C   0  0  0  0  0  0  0  0  0  0  0  0
   -1.4611    0.4784    0.3410 C   0  0  0  0  0  0  0  0  0  0  0  0
   -2.3689    0.1497   -0.3474 C   0  0  0  0  0  0  0  0  0  0  0  0
   -1.7268   -1.1278    0.3778 C   0  0  0  0  0  0  0  0  0  0  0  0
   -1.1241   -0.8672   -0.6016 C   0  0  0  0  0  0  0  0  0  0  0  0
    2.1568    0.3015   -1.2296 H   0  0  0  0  0  0  0  0  0  0  0  0
    3.4645    0.3501   -0.0327 H   0  0  0  0  0  0  0  0  0  0  0  0
    2.4278   -1.1629   -0.1670 H   0  0  0  0  0  0  0  0  0  0  0  0
    1.1640    1.5304    0.4326 H   0  0  0  0  0  0  0  0  0  0  0  0
    2.1412    0.7830    1.7395 H   0  0  0  0  0  0  0  0  0  0  0  0
   -0.6390    0.8033   -1.7123 H   0  0  0  0  0  0  0  0  0  0  0  0
   -1.2560    0.4456    1.4009 H   0  0  0  0  0  0  0  0  0  0  0  0
   -2.9049   -0.0844   -1.2767 H   0  0  0  0  0  0  0  0  0  0  0  0
   -1.9352   -1.1875    1.4524 H   0  0  0  0  0  0  0  0  0  0  0  0
   -1.3457   -0.8293   -1.6636 H   0  0  0  0  0  0  0  0  0  0  0  0
  1  2  1  0
  2  3  1  0
  3  4  1  0
  4  5  1  0
  5  6  1  0
  6  7  1  0
  7  8  1  0
  8  9  1  0
  8  4  1  0
  9  4  1  0
  7  5  1  0
  9  6  1  0
  1 10  1  0
  1 11  1  0
  1 12  1  0
  2 13  1  0
  2 14  1  0
  5 15  1  0
  6 16  1  0
  7 17  1  0
  8 18  1  0
  9 19  1  0
M  END
