
     RDKit          3D

 23 23  0  0  0  0  0  0  0  0999 V2000
    2.8063    0.5889   -0.2675 C   0  0  0  0  0  0  0  0  0  0  0  0
    1.4927    1.2431   -0.5957 C   0  0  0  0  0  0  0  0  0  0  0  0
    0.4803    0.3640   -0.8800 O   0  0  0  0  0  0  0  0  0  0  0  0
    0.1696   -0.5075    0.1339 C   0  0  0  0  0  0  0  0  0  0  0  0
    0.3213   -1.9222   -0.4141 C   0  0  0  0  0  0  0  0  0  0  0  0
   -1.2681   -0.3763    0.5970 C   0  0  0  0  0  0  0  0  0  0  0  0
   -2.3833   -0.6060   -0.3509 C   0  0  0  0  0  0  0  0  0  0  0  0
   -2.1027    0.7681    0.2322 C   0  0  0  0  0  0  0  0  0  0  0  0
   -1.7269    1.7110   -0.7007 O   0  0  0  0  0  0  0  0  0  0  0  0
    3.5006    1.4231    0.0420 H   0  0  0  0  0  0  0  0  0  0  0  0
    2.7750   -0.1043    0.5712 H   0  0  0  0  0  0  0  0  0  0  0  0
    3.2685    0.0820   -1.1252 H   0  0  0  0  0  0  0  0  0  0  0  0
    1.2454    1.9909    0.1862 H   0  0  0  0  0  0  0  0  0  0  0  0
    1.6679    1.8476   -1.5293 H   0  0  0  0  0  0  0  0  0  0  0  0
    0.8032   -0.3502    1.0309 H   0  0  0  0  0  0  0  0  0  0  0  0
   -0.5612   -2.5486   -0.2014 H   0  0  0  0  0  0  0  0  0  0  0  0
    0.5069   -1.9135   -1.5168 H   0  0  0  0  0  0  0  0  0  0  0  0
    1.1930   -2.4432    0.0299 H   0  0  0  0  0  0  0  0  0  0  0  0
   -1.4415   -0.8235    1.6184 H   0  0  0  0  0  0  0  0  0  0  0  0
   -3.3244   -1.0549    0.0112 H   0  0  0  0  0  0  0  0  0  0  0  0
   -2.0974   -0.8143   -1.3883 H   0  0  0  0  0  0  0  0  0  0  0  0
   -2.8063    1.1644    1.0071 H   0  0  0  0  0  0  0  0  0  0  0  0
   -2.5192    2.2814   -0.8817 H   0  0  0  0  0  0  0  0  0  0  0  0
  1  2  1  0
  2  3  1  0
  3  4  1  0
  4  5  1  0
  4  6  1  0
  6  7  1  0
  7  8  1  0
  8  9  1  0
  8  6  1  0
  1 10  1  0
  1 11  1  0
  1 12  1  0
  2 13  1  0
  2 14  1  0
  4 15  1  0
  5 16  1  0
  5 17  1  0
  5 18  1  0
  6 19  1  0
  7 20  1  0
  7 21  1  0
  8 22  1  0
  9 23  1  0
M  END
