
     RDKit          3D

 21 21  0  0  0  0  0  0  0  0999 V2000
    3.1850   -0.3883   -0.3066 C   0  0  0  0  0  0  0  0  0  0  0  0
    1.9800    0.3611    0.2204 C   0  0  0  0  0  0  0  0  0  0  0  0
    0.7931   -0.2220   -0.2436 O   0  0  0  0  0  0  0  0  0  0  0  0
   -0.2837    0.4901    0.2590 C   0  0  0  0  0  0  0  0  0  0  0  0
   -1.4676   -0.3334    0.6571 C   0  0  0  0  0  0  0  0  0  0  0  0
   -1.4512   -1.8219    0.3786 C   0  0  0  0  0  0  0  0  0  0  0  0
   -1.5609    0.5670   -0.5266 C   0  0  0  0  0  0  0  0  0  0  0  0
   -2.3070    1.8342   -0.4551 C   0  0  0  0  0  0  0  0  0  0  0  0
   -2.9019    2.2965   -1.4101 O   0  0  0  0  0  0  0  0  0  0  0  0
    3.3311   -0.1422   -1.3843 H   0  0  0  0  0  0  0  0  0  0  0  0
    3.0176   -1.4907   -0.1645 H   0  0  0  0  0  0  0  0  0  0  0  0
    4.0764   -0.1507    0.3081 H   0  0  0  0  0  0  0  0  0  0  0  0
    1.9458    0.2993    1.3197 H   0  0  0  0  0  0  0  0  0  0  0  0
    1.9898    1.4034   -0.1414 H   0  0  0  0  0  0  0  0  0  0  0  0
   -0.0443    1.3709    0.9205 H   0  0  0  0  0  0  0  0  0  0  0  0
   -1.9656   -0.0767    1.6141 H   0  0  0  0  0  0  0  0  0  0  0  0
   -0.6864   -2.2647    1.0517 H   0  0  0  0  0  0  0  0  0  0  0  0
   -2.4775   -2.1953    0.6235 H   0  0  0  0  0  0  0  0  0  0  0  0
   -1.2237   -2.0309   -0.6889 H   0  0  0  0  0  0  0  0  0  0  0  0
   -1.5892    0.0759   -1.5200 H   0  0  0  0  0  0  0  0  0  0  0  0
   -2.3599    2.4187    0.4634 H   0  0  0  0  0  0  0  0  0  0  0  0
  1  2  1  0
  2  3  1  0
  3  4  1  0
  4  5  1  0
  5  6  1  0
  5  7  1  0
  7  8  1  0
  8  9  2  0
  7  4  1  0
  1 10  1  0
  1 11  1  0
  1 12  1  0
  2 13  1  0
  2 14  1  0
  4 15  1  0
  5 16  1  0
  6 17  1  0
  6 18  1  0
  6 19  1  0
  7 20  1  0
  8 21  1  0
M  END
