
     RDKit          3D

 23 23  0  0  0  0  0  0  0  0999 V2000
   -2.6956   -0.9447    0.8207 C   0  0  0  0  0  0  0  0  0  0  0  0
   -2.6564   -0.1511   -0.4746 C   0  0  0  0  0  0  0  0  0  0  0  0
   -1.3938   -0.1108   -1.0298 O   0  0  0  0  0  0  0  0  0  0  0  0
   -0.4370    0.4628   -0.2248 C   0  0  0  0  0  0  0  0  0  0  0  0
    0.3844    1.4830   -0.8698 C   0  0  0  0  0  0  0  0  0  0  0  0
    1.6142    1.4188   -0.3820 C   0  0  0  0  0  0  0  0  0  0  0  0
    1.7062    0.3274    0.6459 C   0  0  0  0  0  0  0  0  0  0  0  0
    3.0400   -0.3438    0.6360 C   0  0  0  0  0  0  0  0  0  0  0  0
    0.5917   -0.5912    0.1233 C   0  0  0  0  0  0  0  0  0  0  0  0
   -2.1530   -1.8937    0.6553 H   0  0  0  0  0  0  0  0  0  0  0  0
   -2.2405   -0.4094    1.6595 H   0  0  0  0  0  0  0  0  0  0  0  0
   -3.7762   -1.1688    1.0370 H   0  0  0  0  0  0  0  0  0  0  0  0
   -3.3041   -0.7154   -1.1915 H   0  0  0  0  0  0  0  0  0  0  0  0
   -3.1291    0.8366   -0.3491 H   0  0  0  0  0  0  0  0  0  0  0  0
   -0.8660    0.8024    0.7610 H   0  0  0  0  0  0  0  0  0  0  0  0
    0.1236    2.2289   -1.6422 H   0  0  0  0  0  0  0  0  0  0  0  0
    2.4831    2.0325   -0.6387 H   0  0  0  0  0  0  0  0  0  0  0  0
    1.3844    0.6827    1.6467 H   0  0  0  0  0  0  0  0  0  0  0  0
    3.3047   -0.6049    1.6843 H   0  0  0  0  0  0  0  0  0  0  0  0
    3.0257   -1.3044    0.0524 H   0  0  0  0  0  0  0  0  0  0  0  0
    3.8333    0.3146    0.2230 H   0  0  0  0  0  0  0  0  0  0  0  0
    0.2469   -1.2826    0.9042 H   0  0  0  0  0  0  0  0  0  0  0  0
    0.9136   -1.0688   -0.8051 H   0  0  0  0  0  0  0  0  0  0  0  0
  1  2  1  0
  2  3  1  0
  3  4  1  0
  4  5  1  0
  5  6  2  0
  6  7  1  0
  7  8  1  0
  7  9  1  0
  9  4  1  0
  1 10  1  0
  1 11  1  0
  1 12  1  0
  2 13  1  0
  2 14  1  0
  4 15  1  0
  5 16  1  0
  6 17  1  0
  7 18  1  0
  8 19  1  0
  8 20  1  0
  8 21  1  0
  9 22  1  0
  9 23  1  0
M  END
