
     RDKit          3D

 21 21  0  0  0  0  0  0  0  0999 V2000
    2.8020    0.5989   -0.6613 C   0  0  0  0  0  0  0  0  0  0  0  0
    1.6130   -0.2329   -0.2671 C   0  0  0  0  0  0  0  0  0  0  0  0
    0.5481    0.5589    0.1643 O   0  0  0  0  0  0  0  0  0  0  0  0
   -0.5479   -0.1730    0.5299 C   0  0  0  0  0  0  0  0  0  0  0  0
   -0.3681   -1.1411    1.6279 C   0  0  0  0  0  0  0  0  0  0  0  0
   -1.3432   -1.8012    1.9626 O   0  0  0  0  0  0  0  0  0  0  0  0
   -1.3059   -0.6763   -0.6800 C   0  0  0  0  0  0  0  0  0  0  0  0
   -1.8550    0.7549   -0.7971 C   0  0  0  0  0  0  0  0  0  0  0  0
   -1.7388    0.7782    0.7330 C   0  0  0  0  0  0  0  0  0  0  0  0
    2.7752    1.6111   -0.2051 H   0  0  0  0  0  0  0  0  0  0  0  0
    2.8828    0.7115   -1.7704 H   0  0  0  0  0  0  0  0  0  0  0  0
    3.7248    0.0795   -0.3008 H   0  0  0  0  0  0  0  0  0  0  0  0
    1.2605   -0.8277   -1.1095 H   0  0  0  0  0  0  0  0  0  0  0  0
    1.8949   -0.8640    0.6182 H   0  0  0  0  0  0  0  0  0  0  0  0
    0.5697   -1.2983    2.1488 H   0  0  0  0  0  0  0  0  0  0  0  0
   -2.1305   -1.3514   -0.3426 H   0  0  0  0  0  0  0  0  0  0  0  0
   -0.7224   -1.0138   -1.5319 H   0  0  0  0  0  0  0  0  0  0  0  0
   -1.0998    1.4240   -1.2263 H   0  0  0  0  0  0  0  0  0  0  0  0
   -2.8713    0.8149   -1.1766 H   0  0  0  0  0  0  0  0  0  0  0  0
   -2.6313    0.2933    1.1540 H   0  0  0  0  0  0  0  0  0  0  0  0
   -1.4570    1.7546    1.1303 H   0  0  0  0  0  0  0  0  0  0  0  0
  1  2  1  0
  2  3  1  0
  3  4  1  0
  4  5  1  0
  5  6  2  0
  4  7  1  0
  7  8  1  0
  8  9  1  0
  9  4  1  0
  1 10  1  0
  1 11  1  0
  1 12  1  0
  2 13  1  0
  2 14  1  0
  5 15  1  0
  7 16  1  0
  7 17  1  0
  8 18  1  0
  8 19  1  0
  9 20  1  0
  9 21  1  0
M  END
