
     RDKit          3D

 21 21  0  0  0  0  0  0  0  0999 V2000
   -3.3775    0.4044    0.0769 C   0  0  0  0  0  0  0  0  0  0  0  0
   -2.0016   -0.1389    0.3317 C   0  0  0  0  0  0  0  0  0  0  0  0
   -1.0035    0.5879   -0.3133 O   0  0  0  0  0  0  0  0  0  0  0  0
    0.1950    0.0040   -0.0093 C   0  0  0  0  0  0  0  0  0  0  0  0
    1.1440   -0.2247   -1.1614 C   0  0  0  0  0  0  0  0  0  0  0  0
    2.2760    0.1438   -0.2007 C   0  0  0  0  0  0  0  0  0  0  0  0
    2.7012   -0.9911    0.6243 C   0  0  0  0  0  0  0  0  0  0  0  0
    3.7314   -0.9226    1.2659 O   0  0  0  0  0  0  0  0  0  0  0  0
    1.2383    0.9726    0.5598 C   0  0  0  0  0  0  0  0  0  0  0  0
   -4.0036    0.1279    0.9620 H   0  0  0  0  0  0  0  0  0  0  0  0
   -3.7764   -0.0886   -0.8326 H   0  0  0  0  0  0  0  0  0  0  0  0
   -3.3858    1.5114   -0.0002 H   0  0  0  0  0  0  0  0  0  0  0  0
   -1.7990   -0.2186    1.4248 H   0  0  0  0  0  0  0  0  0  0  0  0
   -1.9494   -1.1769   -0.0814 H   0  0  0  0  0  0  0  0  0  0  0  0
    0.1283   -0.8674    0.6430 H   0  0  0  0  0  0  0  0  0  0  0  0
    1.2549   -1.2913   -1.4341 H   0  0  0  0  0  0  0  0  0  0  0  0
    1.0456    0.4411   -2.0197 H   0  0  0  0  0  0  0  0  0  0  0  0
    3.0394    0.7184   -0.7237 H   0  0  0  0  0  0  0  0  0  0  0  0
    2.1069   -1.9004    0.6732 H   0  0  0  0  0  0  0  0  0  0  0  0
    1.1448    2.0020    0.1548 H   0  0  0  0  0  0  0  0  0  0  0  0
    1.2909    0.9069    1.6447 H   0  0  0  0  0  0  0  0  0  0  0  0
  1  2  1  0
  2  3  1  0
  3  4  1  0
  4  5  1  0
  5  6  1  0
  6  7  1  0
  7  8  2  0
  6  9  1  0
  9  4  1  0
  1 10  1  0
  1 11  1  0
  1 12  1  0
  2 13  1  0
  2 14  1  0
  4 15  1  0
  5 16  1  0
  5 17  1  0
  6 18  1  0
  7 19  1  0
  9 20  1  0
  9 21  1  0
M  END
