
     RDKit          3D

 21 20  0  0  0  0  0  0  0  0999 V2000
   -4.0865   -0.7647    0.5309 C   0  0  0  0  0  0  0  0  0  0  0  0
   -2.6709   -0.8262    1.0441 C   0  0  0  0  0  0  0  0  0  0  0  0
   -1.7931   -0.2348    0.1690 O   0  0  0  0  0  0  0  0  0  0  0  0
   -0.4978   -0.3239    0.7005 C   0  0  0  0  0  0  0  0  0  0  0  0
    0.4853    0.2934   -0.1941 C   0  0  0  0  0  0  0  0  0  0  0  0
    1.3064    0.7843   -0.9338 C   0  0  0  0  0  0  0  0  0  0  0  0
    2.3246    1.3863   -1.8166 C   0  0  0  0  0  0  0  0  0  0  0  0
    3.4670    0.6048   -1.6995 O   0  0  0  0  0  0  0  0  0  0  0  0
    3.9390    0.5723   -0.3924 C   0  0  0  0  0  0  0  0  0  0  0  0
   -4.7511   -1.0785    1.3839 H   0  0  0  0  0  0  0  0  0  0  0  0
   -4.2684   -1.4453   -0.3168 H   0  0  0  0  0  0  0  0  0  0  0  0
   -4.3974    0.2758    0.2819 H   0  0  0  0  0  0  0  0  0  0  0  0
   -2.4004   -1.8978    1.1344 H   0  0  0  0  0  0  0  0  0  0  0  0
   -2.6414   -0.3064    2.0124 H   0  0  0  0  0  0  0  0  0  0  0  0
   -0.2535   -1.3821    0.9339 H   0  0  0  0  0  0  0  0  0  0  0  0
   -0.4840    0.2077    1.6847 H   0  0  0  0  0  0  0  0  0  0  0  0
    2.0029    1.3167   -2.8883 H   0  0  0  0  0  0  0  0  0  0  0  0
    2.4966    2.4445   -1.5251 H   0  0  0  0  0  0  0  0  0  0  0  0
    4.2043    1.5829   -0.0081 H   0  0  0  0  0  0  0  0  0  0  0  0
    4.8502   -0.0893   -0.4085 H   0  0  0  0  0  0  0  0  0  0  0  0
    3.1682    0.1396    0.3074 H   0  0  0  0  0  0  0  0  0  0  0  0
  1  2  1  0
  2  3  1  0
  3  4  1  0
  4  5  1  0
  5  6  3  0
  6  7  1  0
  7  8  1  0
  8  9  1  0
  1 10  1  0
  1 11  1  0
  1 12  1  0
  2 13  1  0
  2 14  1  0
  4 15  1  0
  4 16  1  0
  7 17  1  0
  7 18  1  0
  9 19  1  0
  9 20  1  0
  9 21  1  0
M  END
