
     RDKit          3D

 27 26  0  0  0  0  0  0  0  0999 V2000
    3.3462   -0.8850   -0.0085 C   0  0  0  0  0  0  0  0  0  0  0  0
    2.1187   -0.1423   -0.4882 C   0  0  0  0  0  0  0  0  0  0  0  0
    1.1623   -0.0281    0.5225 O   0  0  0  0  0  0  0  0  0  0  0  0
    0.0534    0.6599    0.0386 C   0  0  0  0  0  0  0  0  0  0  0  0
   -0.0921    1.9069    0.8931 C   0  0  0  0  0  0  0  0  0  0  0  0
   -1.2069   -0.1471    0.2178 C   0  0  0  0  0  0  0  0  0  0  0  0
   -1.4024   -0.4209    1.6781 C   0  0  0  0  0  0  0  0  0  0  0  0
   -2.3655    0.5821   -0.4018 C   0  0  0  0  0  0  0  0  0  0  0  0
   -1.1081   -1.4990   -0.4828 C   0  0  0  0  0  0  0  0  0  0  0  0
    4.1600   -0.6330   -0.7493 H   0  0  0  0  0  0  0  0  0  0  0  0
    3.6850   -0.4409    0.9503 H   0  0  0  0  0  0  0  0  0  0  0  0
    3.2106   -1.9652    0.0568 H   0  0  0  0  0  0  0  0  0  0  0  0
    1.6959   -0.6531   -1.3861 H   0  0  0  0  0  0  0  0  0  0  0  0
    2.4627    0.8501   -0.8440 H   0  0  0  0  0  0  0  0  0  0  0  0
    0.2106    0.9452   -1.0337 H   0  0  0  0  0  0  0  0  0  0  0  0
   -0.2305    1.5908    1.9335 H   0  0  0  0  0  0  0  0  0  0  0  0
   -0.9089    2.5512    0.5095 H   0  0  0  0  0  0  0  0  0  0  0  0
    0.8289    2.5296    0.8663 H   0  0  0  0  0  0  0  0  0  0  0  0
   -2.0158   -1.3463    1.8573 H   0  0  0  0  0  0  0  0  0  0  0  0
   -1.8680    0.4098    2.2255 H   0  0  0  0  0  0  0  0  0  0  0  0
   -0.4083   -0.6308    2.1210 H   0  0  0  0  0  0  0  0  0  0  0  0
   -3.2404   -0.0979   -0.4129 H   0  0  0  0  0  0  0  0  0  0  0  0
   -2.0540    0.8233   -1.4594 H   0  0  0  0  0  0  0  0  0  0  0  0
   -2.6195    1.5259    0.0806 H   0  0  0  0  0  0  0  0  0  0  0  0
   -2.1465   -1.8616   -0.7409 H   0  0  0  0  0  0  0  0  0  0  0  0
   -0.5991   -1.3528   -1.4440 H   0  0  0  0  0  0  0  0  0  0  0  0
   -0.6684   -2.2709    0.1504 H   0  0  0  0  0  0  0  0  0  0  0  0
  1  2  1  0
  2  3  1  0
  3  4  1  0
  4  5  1  0
  4  6  1  0
  6  7  1  0
  6  8  1  0
  6  9  1  0
  1 10  1  0
  1 11  1  0
  1 12  1  0
  2 13  1  0
  2 14  1  0
  4 15  1  0
  5 16  1  0
  5 17  1  0
  5 18  1  0
  7 19  1  0
  7 20  1  0
  7 21  1  0
  8 22  1  0
  8 23  1  0
  8 24  1  0
  9 25  1  0
  9 26  1  0
  9 27  1  0
M  END
