
     RDKit          3D

 19 18  0  0  0  0  0  0  0  0999 V2000
    2.8117    0.1480    0.1550 C   0  0  0  0  0  0  0  0  0  0  0  0
    2.2244   -0.8853   -0.8050 C   0  0  0  0  0  0  0  0  0  0  0  0
    0.9749   -0.4562   -1.2071 O   0  0  0  0  0  0  0  0  0  0  0  0
    0.1562   -0.3229   -0.1100 C   0  0  0  0  0  0  0  0  0  0  0  0
   -1.1993    0.1385   -0.5013 C   0  0  0  0  0  0  0  0  0  0  0  0
   -1.4279    0.3413   -1.6766 O   0  0  0  0  0  0  0  0  0  0  0  0
   -2.2146    0.3328    0.5488 C   0  0  0  0  0  0  0  0  0  0  0  0
   -3.4888    0.7944   -0.0584 C   0  0  0  0  0  0  0  0  0  0  0  0
   -4.2727    0.0125   -0.5410 O   0  0  0  0  0  0  0  0  0  0  0  0
    2.3373    1.1383   -0.0837 H   0  0  0  0  0  0  0  0  0  0  0  0
    2.5557   -0.0640    1.2068 H   0  0  0  0  0  0  0  0  0  0  0  0
    3.9006    0.2641   -0.0285 H   0  0  0  0  0  0  0  0  0  0  0  0
    2.1734   -1.8554   -0.2534 H   0  0  0  0  0  0  0  0  0  0  0  0
    2.8650   -1.0187   -1.6938 H   0  0  0  0  0  0  0  0  0  0  0  0
    0.5480    0.4284    0.6231 H   0  0  0  0  0  0  0  0  0  0  0  0
    0.0136   -1.2831    0.4430 H   0  0  0  0  0  0  0  0  0  0  0  0
   -1.9225    1.0934    1.3151 H   0  0  0  0  0  0  0  0  0  0  0  0
   -2.3411   -0.6602    1.0480 H   0  0  0  0  0  0  0  0  0  0  0  0
   -3.6938    1.8542   -0.0553 H   0  0  0  0  0  0  0  0  0  0  0  0
  1  2  1  0
  2  3  1  0
  3  4  1  0
  4  5  1  0
  5  6  2  0
  5  7  1  0
  7  8  1  0
  8  9  2  0
  1 10  1  0
  1 11  1  0
  1 12  1  0
  2 13  1  0
  2 14  1  0
  4 15  1  0
  4 16  1  0
  7 17  1  0
  7 18  1  0
  8 19  1  0
M  END
