
     RDKit          3D

 23 23  0  0  0  0  0  0  0  0999 V2000
   -3.0326   -0.2768   -0.4457 C   0  0  0  0  0  0  0  0  0  0  0  0
   -2.2996    0.8011    0.2965 C   0  0  0  0  0  0  0  0  0  0  0  0
   -1.0751    0.3103    0.7295 O   0  0  0  0  0  0  0  0  0  0  0  0
   -0.3242   -0.0854   -0.3467 C   0  0  0  0  0  0  0  0  0  0  0  0
    0.2243   -1.4850   -0.2093 C   0  0  0  0  0  0  0  0  0  0  0  0
    1.6076   -1.3845   -0.1676 O   0  0  0  0  0  0  0  0  0  0  0  0
    1.9043   -0.1535    0.3828 C   0  0  0  0  0  0  0  0  0  0  0  0
    3.2816    0.3387    0.0049 C   0  0  0  0  0  0  0  0  0  0  0  0
    0.9292    0.7511   -0.3832 C   0  0  0  0  0  0  0  0  0  0  0  0
   -3.8923   -0.6390    0.1916 H   0  0  0  0  0  0  0  0  0  0  0  0
   -2.3634   -1.1291   -0.6116 H   0  0  0  0  0  0  0  0  0  0  0  0
   -3.4208    0.1019   -1.4008 H   0  0  0  0  0  0  0  0  0  0  0  0
   -2.9191    1.1468    1.1587 H   0  0  0  0  0  0  0  0  0  0  0  0
   -2.1733    1.6654   -0.4047 H   0  0  0  0  0  0  0  0  0  0  0  0
   -0.8681    0.0830   -1.2737 H   0  0  0  0  0  0  0  0  0  0  0  0
   -0.1302   -2.0464   -1.1189 H   0  0  0  0  0  0  0  0  0  0  0  0
   -0.1380   -1.9468    0.7119 H   0  0  0  0  0  0  0  0  0  0  0  0
    1.7204   -0.1010    1.4774 H   0  0  0  0  0  0  0  0  0  0  0  0
    4.0831   -0.3653    0.2974 H   0  0  0  0  0  0  0  0  0  0  0  0
    3.2911    0.5954   -1.0735 H   0  0  0  0  0  0  0  0  0  0  0  0
    3.4150    1.3188    0.5498 H   0  0  0  0  0  0  0  0  0  0  0  0
    0.8651    1.6875    0.1640 H   0  0  0  0  0  0  0  0  0  0  0  0
    1.3149    0.8128   -1.4048 H   0  0  0  0  0  0  0  0  0  0  0  0
  1  2  1  0
  2  3  1  0
  3  4  1  0
  4  5  1  0
  5  6  1  0
  6  7  1  0
  7  8  1  0
  7  9  1  0
  9  4  1  0
  1 10  1  0
  1 11  1  0
  1 12  1  0
  2 13  1  0
  2 14  1  0
  4 15  1  0
  5 16  1  0
  5 17  1  0
  7 18  1  0
  8 19  1  0
  8 20  1  0
  8 21  1  0
  9 22  1  0
  9 23  1  0
M  END
