
     RDKit          3D

 20 19  0  0  0  0  0  0  0  0999 V2000
   -3.0453    0.1392    0.4057 C   0  0  0  0  0  0  0  0  0  0  0  0
   -2.4484    0.2513   -0.9599 C   0  0  0  0  0  0  0  0  0  0  0  0
   -1.2035   -0.3509   -1.0784 O   0  0  0  0  0  0  0  0  0  0  0  0
   -0.3045    0.2190   -0.2091 C   0  0  0  0  0  0  0  0  0  0  0  0
    1.0325   -0.4251   -0.3339 C   0  0  0  0  0  0  0  0  0  0  0  0
    1.1832   -1.3168   -1.1263 O   0  0  0  0  0  0  0  0  0  0  0  0
    2.1131    0.0842    0.5440 C   0  0  0  0  0  0  0  0  0  0  0  0
    3.4214   -0.6410    0.3315 C   0  0  0  0  0  0  0  0  0  0  0  0
   -4.1261    0.4006    0.3198 H   0  0  0  0  0  0  0  0  0  0  0  0
   -2.5814    0.7972    1.1405 H   0  0  0  0  0  0  0  0  0  0  0  0
   -2.9929   -0.9516    0.6923 H   0  0  0  0  0  0  0  0  0  0  0  0
   -2.4079    1.3284   -1.2473 H   0  0  0  0  0  0  0  0  0  0  0  0
   -3.1288   -0.3137   -1.6585 H   0  0  0  0  0  0  0  0  0  0  0  0
   -0.2348    1.3121   -0.4709 H   0  0  0  0  0  0  0  0  0  0  0  0
   -0.6567    0.1847    0.8547 H   0  0  0  0  0  0  0  0  0  0  0  0
    2.2525    1.1620    0.4119 H   0  0  0  0  0  0  0  0  0  0  0  0
    1.8288   -0.0984    1.5975 H   0  0  0  0  0  0  0  0  0  0  0  0
    4.2415    0.1005    0.4657 H   0  0  0  0  0  0  0  0  0  0  0  0
    3.5265   -0.9958   -0.7320 H   0  0  0  0  0  0  0  0  0  0  0  0
    3.5309   -1.4747    1.0528 H   0  0  0  0  0  0  0  0  0  0  0  0
  1  2  1  0
  2  3  1  0
  3  4  1  0
  4  5  1  0
  5  6  2  0
  5  7  1  0
  7  8  1  0
  1  9  1  0
  1 10  1  0
  1 11  1  0
  2 12  1  0
  2 13  1  0
  4 14  1  0
  4 15  1  0
  7 16  1  0
  7 17  1  0
  8 18  1  0
  8 19  1  0
  8 20  1  0
M  END
