
     RDKit          3D

 19 18  0  0  0  0  0  0  0  0999 V2000
    2.8938   -0.1305    0.0734 C   0  0  0  0  0  0  0  0  0  0  0  0
    1.9855   -1.1258    0.7371 C   0  0  0  0  0  0  0  0  0  0  0  0
    0.7401   -0.5671    1.1153 O   0  0  0  0  0  0  0  0  0  0  0  0
   -0.1403   -0.0013    0.1917 C   0  0  0  0  0  0  0  0  0  0  0  0
    0.2591   -0.0243   -1.0170 O   0  0  0  0  0  0  0  0  0  0  0  0
   -1.4393    0.5837    0.5706 C   0  0  0  0  0  0  0  0  0  0  0  0
   -2.1110    1.0944   -0.6847 C   0  0  0  0  0  0  0  0  0  0  0  0
   -2.3501   -0.3697    1.2287 C   0  0  0  0  0  0  0  0  0  0  0  0
   -3.3969   -0.7720    0.7490 O   0  0  0  0  0  0  0  0  0  0  0  0
    3.9479   -0.1952    0.4527 H   0  0  0  0  0  0  0  0  0  0  0  0
    2.8848   -0.2757   -1.0377 H   0  0  0  0  0  0  0  0  0  0  0  0
    2.5814    0.9256    0.2435 H   0  0  0  0  0  0  0  0  0  0  0  0
    1.8573   -2.0020    0.0551 H   0  0  0  0  0  0  0  0  0  0  0  0
    2.4512   -1.4994    1.6856 H   0  0  0  0  0  0  0  0  0  0  0  0
   -1.3121    1.4465    1.2885 H   0  0  0  0  0  0  0  0  0  0  0  0
   -1.3289    1.2840   -1.4706 H   0  0  0  0  0  0  0  0  0  0  0  0
   -2.7974    0.3505   -1.1365 H   0  0  0  0  0  0  0  0  0  0  0  0
   -2.6233    2.0432   -0.5275 H   0  0  0  0  0  0  0  0  0  0  0  0
   -2.1016   -0.7648    2.2170 H   0  0  0  0  0  0  0  0  0  0  0  0
  1  2  1  0
  2  3  1  0
  3  4  1  0
  4  5  2  0
  4  6  1  0
  6  7  1  0
  6  8  1  0
  8  9  2  0
  1 10  1  0
  1 11  1  0
  1 12  1  0
  2 13  1  0
  2 14  1  0
  6 15  1  0
  7 16  1  0
  7 17  1  0
  7 18  1  0
  8 19  1  0
M  END
