
     RDKit          3D

 25 24  0  0  0  0  0  0  0  0999 V2000
    3.2721    0.9178    0.2328 C   0  0  0  0  0  0  0  0  0  0  0  0
    2.3958   -0.3012    0.3288 C   0  0  0  0  0  0  0  0  0  0  0  0
    1.1018   -0.0700   -0.1337 O   0  0  0  0  0  0  0  0  0  0  0  0
    0.4084   -1.2518    0.0069 C   0  0  0  0  0  0  0  0  0  0  0  0
   -1.0213   -1.1772   -0.4502 C   0  0  0  0  0  0  0  0  0  0  0  0
   -1.1680   -0.8140   -1.8936 C   0  0  0  0  0  0  0  0  0  0  0  0
   -1.8372   -0.2093    0.3726 C   0  0  0  0  0  0  0  0  0  0  0  0
   -1.3047    1.0577    0.2837 O   0  0  0  0  0  0  0  0  0  0  0  0
   -2.0323    1.9671    1.0283 C   0  0  0  0  0  0  0  0  0  0  0  0
    2.6510    1.7836    0.5816 H   0  0  0  0  0  0  0  0  0  0  0  0
    3.6295    1.1075   -0.7969 H   0  0  0  0  0  0  0  0  0  0  0  0
    4.1457    0.7825    0.9144 H   0  0  0  0  0  0  0  0  0  0  0  0
    2.3726   -0.6123    1.3973 H   0  0  0  0  0  0  0  0  0  0  0  0
    2.8505   -1.1776   -0.2157 H   0  0  0  0  0  0  0  0  0  0  0  0
    0.3996   -1.5242    1.0790 H   0  0  0  0  0  0  0  0  0  0  0  0
    0.9132   -2.0456   -0.5626 H   0  0  0  0  0  0  0  0  0  0  0  0
   -1.4635   -2.1855   -0.3042 H   0  0  0  0  0  0  0  0  0  0  0  0
   -1.6102    0.1960   -2.0278 H   0  0  0  0  0  0  0  0  0  0  0  0
   -0.2205   -0.8661   -2.4628 H   0  0  0  0  0  0  0  0  0  0  0  0
   -1.8711   -1.5135   -2.4340 H   0  0  0  0  0  0  0  0  0  0  0  0
   -2.8671   -0.2155   -0.0430 H   0  0  0  0  0  0  0  0  0  0  0  0
   -1.9327   -0.5655    1.4305 H   0  0  0  0  0  0  0  0  0  0  0  0
   -2.0656    1.7121    2.1064 H   0  0  0  0  0  0  0  0  0  0  0  0
   -1.6388    2.9923    0.8663 H   0  0  0  0  0  0  0  0  0  0  0  0
   -3.1071    2.0126    0.6958 H   0  0  0  0  0  0  0  0  0  0  0  0
  1  2  1  0
  2  3  1  0
  3  4  1  0
  4  5  1  0
  5  6  1  0
  5  7  1  0
  7  8  1  0
  8  9  1  0
  1 10  1  0
  1 11  1  0
  1 12  1  0
  2 13  1  0
  2 14  1  0
  4 15  1  0
  4 16  1  0
  5 17  1  0
  6 18  1  0
  6 19  1  0
  6 20  1  0
  7 21  1  0
  7 22  1  0
  9 23  1  0
  9 24  1  0
  9 25  1  0
M  END
