
     RDKit          3D

 16 16  0  0  0  0  0  0  0  0999 V2000
    1.7048   -0.5268   -0.6786 C   0  0  0  0  0  0  0  0  0  0  0  0
    1.4196   -0.4355    0.8074 C   0  0  0  0  0  0  0  0  0  0  0  0
    0.0517   -0.6330    0.9929 O   0  0  0  0  0  0  0  0  0  0  0  0
   -0.6006    0.3726    0.2850 C   0  0  0  0  0  0  0  0  0  0  0  0
   -1.8113   -0.1209   -0.4610 C   0  0  0  0  0  0  0  0  0  0  0  0
   -2.4486   -0.1380    0.8234 O   0  0  0  0  0  0  0  0  0  0  0  0
   -1.6629    0.9575    1.1370 C   0  0  0  0  0  0  0  0  0  0  0  0
   -1.7500    1.9943    1.8174 O   0  0  0  0  0  0  0  0  0  0  0  0
    1.7751    0.4908   -1.1447 H   0  0  0  0  0  0  0  0  0  0  0  0
    2.6580   -1.0827   -0.8051 H   0  0  0  0  0  0  0  0  0  0  0  0
    0.8659   -1.0278   -1.2287 H   0  0  0  0  0  0  0  0  0  0  0  0
    1.7343    0.5854    1.1516 H   0  0  0  0  0  0  0  0  0  0  0  0
    2.0378   -1.1427    1.4012 H   0  0  0  0  0  0  0  0  0  0  0  0
    0.0403    1.0825   -0.2490 H   0  0  0  0  0  0  0  0  0  0  0  0
   -1.7353   -1.0862   -0.9576 H   0  0  0  0  0  0  0  0  0  0  0  0
   -2.2788    0.7105   -1.0464 H   0  0  0  0  0  0  0  0  0  0  0  0
  1  2  1  0
  2  3  1  0
  3  4  1  0
  4  5  1  0
  5  6  1  0
  6  7  1  0
  7  8  2  0
  7  4  1  0
  1  9  1  0
  1 10  1  0
  1 11  1  0
  2 12  1  0
  2 13  1  0
  4 14  1  0
  5 15  1  0
  5 16  1  0
M  END
