
     RDKit          3D

 19 19  0  0  0  0  0  0  0  0999 V2000
   -2.5959   -0.4090    0.7335 C   0  0  0  0  0  0  0  0  0  0  0  0
   -1.8524    0.7206    0.0912 C   0  0  0  0  0  0  0  0  0  0  0  0
   -1.1502    0.3996   -1.0262 O   0  0  0  0  0  0  0  0  0  0  0  0
   -0.1752   -0.5440   -0.8747 C   0  0  0  0  0  0  0  0  0  0  0  0
    0.8933   -0.1307    0.1280 C   0  0  0  0  0  0  0  0  0  0  0  0
    1.8740   -1.2477    0.1830 O   0  0  0  0  0  0  0  0  0  0  0  0
    2.1791    0.1691   -0.2140 C   0  0  0  0  0  0  0  0  0  0  0  0
    3.1530    0.7013    0.7599 C   0  0  0  0  0  0  0  0  0  0  0  0
    4.2165    1.1243    0.3512 O   0  0  0  0  0  0  0  0  0  0  0  0
   -1.9845   -0.9484    1.5060 H   0  0  0  0  0  0  0  0  0  0  0  0
   -3.0069   -1.1455    0.0231 H   0  0  0  0  0  0  0  0  0  0  0  0
   -3.4571    0.0189    1.2885 H   0  0  0  0  0  0  0  0  0  0  0  0
   -2.6102    1.4955   -0.1897 H   0  0  0  0  0  0  0  0  0  0  0  0
   -1.1693    1.1560    0.8687 H   0  0  0  0  0  0  0  0  0  0  0  0
    0.3139   -0.7459   -1.8495 H   0  0  0  0  0  0  0  0  0  0  0  0
   -0.5605   -1.5264   -0.4831 H   0  0  0  0  0  0  0  0  0  0  0  0
    0.4762   -0.0133    1.1595 H   0  0  0  0  0  0  0  0  0  0  0  0
    2.5201    0.2046   -1.2768 H   0  0  0  0  0  0  0  0  0  0  0  0
    2.9360    0.7210    1.8293 H   0  0  0  0  0  0  0  0  0  0  0  0
  1  2  1  0
  2  3  1  0
  3  4  1  0
  4  5  1  0
  5  6  1  0
  6  7  1  0
  7  8  1  0
  8  9  2  0
  7  5  1  0
  1 10  1  0
  1 11  1  0
  1 12  1  0
  2 13  1  0
  2 14  1  0
  4 15  1  0
  4 16  1  0
  5 17  1  0
  7 18  1  0
  8 19  1  0
M  END
