
     RDKit          3D

 25 25  0  0  0  0  0  0  0  0999 V2000
    4.2493   -0.0471   -0.4336 C   0  0  0  0  0  0  0  0  0  0  0  0
    3.0422    0.3763    0.4059 C   0  0  0  0  0  0  0  0  0  0  0  0
    1.9177    0.0795   -0.3317 O   0  0  0  0  0  0  0  0  0  0  0  0
    0.7291    0.4006    0.2843 C   0  0  0  0  0  0  0  0  0  0  0  0
   -0.3955    0.0141   -0.6507 C   0  0  0  0  0  0  0  0  0  0  0  0
   -1.7452    0.3204   -0.0795 C   0  0  0  0  0  0  0  0  0  0  0  0
   -2.0792   -0.3690    1.2179 C   0  0  0  0  0  0  0  0  0  0  0  0
   -3.5293   -0.4152    0.7108 C   0  0  0  0  0  0  0  0  0  0  0  0
   -2.9016   -0.4381   -0.6907 C   0  0  0  0  0  0  0  0  0  0  0  0
    3.9711   -0.8636   -1.1369 H   0  0  0  0  0  0  0  0  0  0  0  0
    5.0837   -0.3986    0.1864 H   0  0  0  0  0  0  0  0  0  0  0  0
    4.5642    0.8098   -1.0730 H   0  0  0  0  0  0  0  0  0  0  0  0
    3.1090    1.4748    0.5344 H   0  0  0  0  0  0  0  0  0  0  0  0
    3.0765   -0.1628    1.3829 H   0  0  0  0  0  0  0  0  0  0  0  0
    0.7154    1.5012    0.4314 H   0  0  0  0  0  0  0  0  0  0  0  0
    0.6222   -0.0706    1.2839 H   0  0  0  0  0  0  0  0  0  0  0  0
   -0.2756    0.6673   -1.5572 H   0  0  0  0  0  0  0  0  0  0  0  0
   -0.2899   -1.0205   -1.0130 H   0  0  0  0  0  0  0  0  0  0  0  0
   -1.9771    1.3990   -0.0236 H   0  0  0  0  0  0  0  0  0  0  0  0
   -1.9521    0.2728    2.1083 H   0  0  0  0  0  0  0  0  0  0  0  0
   -1.7255   -1.3973    1.3345 H   0  0  0  0  0  0  0  0  0  0  0  0
   -4.0763   -1.3215    0.9727 H   0  0  0  0  0  0  0  0  0  0  0  0
   -4.0312    0.5494    0.8797 H   0  0  0  0  0  0  0  0  0  0  0  0
   -2.6194   -1.4687   -0.9492 H   0  0  0  0  0  0  0  0  0  0  0  0
   -3.4825    0.1076   -1.4415 H   0  0  0  0  0  0  0  0  0  0  0  0
  1  2  1  0
  2  3  1  0
  3  4  1  0
  4  5  1  0
  5  6  1  0
  6  7  1  0
  7  8  1  0
  8  9  1  0
  9  6  1  0
  1 10  1  0
  1 11  1  0
  1 12  1  0
  2 13  1  0
  2 14  1  0
  4 15  1  0
  4 16  1  0
  5 17  1  0
  5 18  1  0
  6 19  1  0
  7 20  1  0
  7 21  1  0
  8 22  1  0
  8 23  1  0
  9 24  1  0
  9 25  1  0
M  END
