
     RDKit          3D

 25 25  0  0  0  0  0  0  0  0999 V2000
    3.3658   -0.1308    0.1576 C   0  0  0  0  0  0  0  0  0  0  0  0
    2.7630    0.7031   -0.9483 C   0  0  0  0  0  0  0  0  0  0  0  0
    1.4314    0.9883   -0.7599 O   0  0  0  0  0  0  0  0  0  0  0  0
    0.6369   -0.1459   -0.6827 C   0  0  0  0  0  0  0  0  0  0  0  0
   -0.8186    0.1931   -0.4759 C   0  0  0  0  0  0  0  0  0  0  0  0
   -1.6558   -1.0524   -0.3960 C   0  0  0  0  0  0  0  0  0  0  0  0
   -2.6670   -0.8418    0.6898 C   0  0  0  0  0  0  0  0  0  0  0  0
   -2.5780    0.6362    1.0115 C   0  0  0  0  0  0  0  0  0  0  0  0
   -1.0775    0.8868    0.8229 C   0  0  0  0  0  0  0  0  0  0  0  0
    3.0032   -1.1777    0.1404 H   0  0  0  0  0  0  0  0  0  0  0  0
    4.4487   -0.1611    0.0099 H   0  0  0  0  0  0  0  0  0  0  0  0
    3.1448    0.3554    1.1188 H   0  0  0  0  0  0  0  0  0  0  0  0
    2.8782    0.0989   -1.8919 H   0  0  0  0  0  0  0  0  0  0  0  0
    3.3505    1.6153   -1.0448 H   0  0  0  0  0  0  0  0  0  0  0  0
    0.9900   -0.8527    0.0956 H   0  0  0  0  0  0  0  0  0  0  0  0
    0.7307   -0.6764   -1.6524 H   0  0  0  0  0  0  0  0  0  0  0  0
   -1.1908    0.8159   -1.2940 H   0  0  0  0  0  0  0  0  0  0  0  0
   -2.1935   -1.2233   -1.3531 H   0  0  0  0  0  0  0  0  0  0  0  0
   -1.0111   -1.9502   -0.1912 H   0  0  0  0  0  0  0  0  0  0  0  0
   -2.3986   -1.3749    1.6421 H   0  0  0  0  0  0  0  0  0  0  0  0
   -3.7069   -1.1326    0.3784 H   0  0  0  0  0  0  0  0  0  0  0  0
   -3.1514    1.2482    0.2638 H   0  0  0  0  0  0  0  0  0  0  0  0
   -2.8873    0.8541    2.0508 H   0  0  0  0  0  0  0  0  0  0  0  0
   -0.8294    1.9490    0.8274 H   0  0  0  0  0  0  0  0  0  0  0  0
   -0.5773    0.3752    1.6805 H   0  0  0  0  0  0  0  0  0  0  0  0
  1  2  1  0
  2  3  1  0
  3  4  1  0
  4  5  1  0
  5  6  1  0
  6  7  1  0
  7  8  1  0
  8  9  1  0
  9  5  1  0
  1 10  1  0
  1 11  1  0
  1 12  1  0
  2 13  1  0
  2 14  1  0
  4 15  1  0
  4 16  1  0
  5 17  1  0
  6 18  1  0
  6 19  1  0
  7 20  1  0
  7 21  1  0
  8 22  1  0
  8 23  1  0
  9 24  1  0
  9 25  1  0
M  END
