
     RDKit          3D

 18 18  0  0  0  0  0  0  0  0999 V2000
    2.6786    0.6079   -0.0743 C   0  0  0  0  0  0  0  0  0  0  0  0
    1.5971   -0.4779   -0.0834 C   0  0  0  0  0  0  0  0  0  0  0  0
    0.3854    0.1674   -0.0475 O   0  0  0  0  0  0  0  0  0  0  0  0
   -0.7021   -0.6876   -0.0507 C   0  0  0  0  0  0  0  0  0  0  0  0
   -1.7247   -0.2526    1.0089 C   0  0  0  0  0  0  0  0  0  0  0  0
   -2.0832    0.8281   -0.0190 C   0  0  0  0  0  0  0  0  0  0  0  0
   -1.7025   -0.1888   -1.0668 C   0  0  0  0  0  0  0  0  0  0  0  0
   -2.0369   -0.4748   -2.1915 O   0  0  0  0  0  0  0  0  0  0  0  0
    3.6901    0.1578   -0.1933 H   0  0  0  0  0  0  0  0  0  0  0  0
    2.6309    1.1367    0.9074 H   0  0  0  0  0  0  0  0  0  0  0  0
    2.5504    1.3172   -0.9106 H   0  0  0  0  0  0  0  0  0  0  0  0
    1.7282   -1.1198   -0.9768 H   0  0  0  0  0  0  0  0  0  0  0  0
    1.7886   -1.1179    0.7993 H   0  0  0  0  0  0  0  0  0  0  0  0
   -0.5072   -1.7566   -0.0802 H   0  0  0  0  0  0  0  0  0  0  0  0
   -1.2755    0.1296    1.9343 H   0  0  0  0  0  0  0  0  0  0  0  0
   -2.5380   -0.9848    1.1007 H   0  0  0  0  0  0  0  0  0  0  0  0
   -1.3423    1.6336    0.0165 H   0  0  0  0  0  0  0  0  0  0  0  0
   -3.1371    1.0826   -0.0731 H   0  0  0  0  0  0  0  0  0  0  0  0
  1  2  1  0
  2  3  1  0
  3  4  1  0
  4  5  1  0
  5  6  1  0
  6  7  1  0
  7  8  2  0
  7  4  1  0
  1  9  1  0
  1 10  1  0
  1 11  1  0
  2 12  1  0
  2 13  1  0
  4 14  1  0
  5 15  1  0
  5 16  1  0
  6 17  1  0
  6 18  1  0
M  END
