
     RDKit          3D

 23 24  0  0  0  0  0  0  0  0999 V2000
   -3.7448    0.1959    0.9063 C   0  0  0  0  0  0  0  0  0  0  0  0
   -2.4424    0.4128    0.2226 C   0  0  0  0  0  0  0  0  0  0  0  0
   -1.4282   -0.4391    0.6481 O   0  0  0  0  0  0  0  0  0  0  0  0
   -0.2916   -0.1341   -0.0572 C   0  0  0  0  0  0  0  0  0  0  0  0
    0.3829   -1.3299   -0.7422 C   0  0  0  0  0  0  0  0  0  0  0  0
    1.7228   -0.9336   -0.2275 C   0  0  0  0  0  0  0  0  0  0  0  0
    2.1635    0.4655   -0.1050 C   0  0  0  0  0  0  0  0  0  0  0  0
    3.4111    0.7165    0.7150 C   0  0  0  0  0  0  0  0  0  0  0  0
    0.9698    0.0668    0.7108 C   0  0  0  0  0  0  0  0  0  0  0  0
   -4.3459   -0.6422    0.4687 H   0  0  0  0  0  0  0  0  0  0  0  0
   -3.6987    0.0252    1.9809 H   0  0  0  0  0  0  0  0  0  0  0  0
   -4.3595    1.1310    0.7587 H   0  0  0  0  0  0  0  0  0  0  0  0
   -2.1046    1.4540    0.3472 H   0  0  0  0  0  0  0  0  0  0  0  0
   -2.5885    0.2086   -0.8666 H   0  0  0  0  0  0  0  0  0  0  0  0
   -0.4128    0.7073   -0.8021 H   0  0  0  0  0  0  0  0  0  0  0  0
    0.2445   -1.3484   -1.8336 H   0  0  0  0  0  0  0  0  0  0  0  0
   -0.0112   -2.2577   -0.2543 H   0  0  0  0  0  0  0  0  0  0  0  0
    2.3283   -1.7024    0.2627 H   0  0  0  0  0  0  0  0  0  0  0  0
    1.9746    1.2310   -0.8817 H   0  0  0  0  0  0  0  0  0  0  0  0
    3.5613   -0.1147    1.4406 H   0  0  0  0  0  0  0  0  0  0  0  0
    4.2883    0.7307    0.0281 H   0  0  0  0  0  0  0  0  0  0  0  0
    3.3356    1.6962    1.2719 H   0  0  0  0  0  0  0  0  0  0  0  0
    1.0454   -0.1395    1.7797 H   0  0  0  0  0  0  0  0  0  0  0  0
  1  2  1  0
  2  3  1  0
  3  4  1  0
  4  5  1  0
  5  6  1  0
  6  7  1  0
  7  8  1  0
  7  9  1  0
  9  4  1  0
  9  6  1  0
  1 10  1  0
  1 11  1  0
  1 12  1  0
  2 13  1  0
  2 14  1  0
  4 15  1  0
  5 16  1  0
  5 17  1  0
  6 18  1  0
  7 19  1  0
  8 20  1  0
  8 21  1  0
  8 22  1  0
  9 23  1  0
M  END
