
     RDKit          3D

 21 21  0  0  0  0  0  0  0  0999 V2000
    2.6236    0.6991   -0.7591 C   0  0  0  0  0  0  0  0  0  0  0  0
    2.2445    0.1622    0.6084 C   0  0  0  0  0  0  0  0  0  0  0  0
    0.8867    0.0086    0.7440 O   0  0  0  0  0  0  0  0  0  0  0  0
    0.3091   -0.8544   -0.1533 C   0  0  0  0  0  0  0  0  0  0  0  0
   -1.1851   -0.8819    0.1656 C   0  0  0  0  0  0  0  0  0  0  0  0
   -1.3270   -1.3276    1.4697 O   0  0  0  0  0  0  0  0  0  0  0  0
   -1.7376    0.5193    0.0010 C   0  0  0  0  0  0  0  0  0  0  0  0
   -2.8431    0.8112   -0.8625 C   0  0  0  0  0  0  0  0  0  0  0  0
   -1.5660    0.9573   -1.4072 O   0  0  0  0  0  0  0  0  0  0  0  0
    1.7229    1.1448   -1.2693 H   0  0  0  0  0  0  0  0  0  0  0  0
    2.9780   -0.1618   -1.3510 H   0  0  0  0  0  0  0  0  0  0  0  0
    3.3553    1.5244   -0.6844 H   0  0  0  0  0  0  0  0  0  0  0  0
    2.5477    0.9529    1.3465 H   0  0  0  0  0  0  0  0  0  0  0  0
    2.8359   -0.7346    0.8868 H   0  0  0  0  0  0  0  0  0  0  0  0
    0.7367   -1.8639   -0.1575 H   0  0  0  0  0  0  0  0  0  0  0  0
    0.3875   -0.4753   -1.2012 H   0  0  0  0  0  0  0  0  0  0  0  0
   -1.6456   -1.6067   -0.5020 H   0  0  0  0  0  0  0  0  0  0  0  0
   -2.1727   -1.8665    1.5543 H   0  0  0  0  0  0  0  0  0  0  0  0
   -1.2816    1.2774    0.6572 H   0  0  0  0  0  0  0  0  0  0  0  0
   -3.4791   -0.0455   -1.2234 H   0  0  0  0  0  0  0  0  0  0  0  0
   -3.3901    1.7609   -0.7367 H   0  0  0  0  0  0  0  0  0  0  0  0
  1  2  1  0
  2  3  1  0
  3  4  1  0
  4  5  1  0
  5  6  1  0
  5  7  1  0
  7  8  1  0
  8  9  1  0
  9  7  1  0
  1 10  1  0
  1 11  1  0
  1 12  1  0
  2 13  1  0
  2 14  1  0
  4 15  1  0
  4 16  1  0
  5 17  1  0
  6 18  1  0
  7 19  1  0
  8 20  1  0
  8 21  1  0
M  END
