
     RDKit          3D

 23 23  0  0  0  0  0  0  0  0999 V2000
    2.7966   -0.8620    0.7134 C   0  0  0  0  0  0  0  0  0  0  0  0
    2.4311   -0.5215   -0.7007 C   0  0  0  0  0  0  0  0  0  0  0  0
    1.0686   -0.6162   -0.9487 O   0  0  0  0  0  0  0  0  0  0  0  0
    0.3130    0.2252   -0.1579 C   0  0  0  0  0  0  0  0  0  0  0  0
   -0.7141    0.9550   -0.9888 C   0  0  0  0  0  0  0  0  0  0  0  0
   -1.8440    0.2475   -0.2981 C   0  0  0  0  0  0  0  0  0  0  0  0
   -2.7360    1.2320    0.4274 C   0  0  0  0  0  0  0  0  0  0  0  0
   -0.8267   -0.4505    0.5789 C   0  0  0  0  0  0  0  0  0  0  0  0
   -0.8057   -1.8368    0.4439 O   0  0  0  0  0  0  0  0  0  0  0  0
    2.2567   -1.7681    1.0303 H   0  0  0  0  0  0  0  0  0  0  0  0
    3.9108   -1.0300    0.7254 H   0  0  0  0  0  0  0  0  0  0  0  0
    2.6196   -0.0240    1.4242 H   0  0  0  0  0  0  0  0  0  0  0  0
    2.8465    0.4732   -0.9338 H   0  0  0  0  0  0  0  0  0  0  0  0
    2.9399   -1.2563   -1.3592 H   0  0  0  0  0  0  0  0  0  0  0  0
    0.8833    0.8545    0.5583 H   0  0  0  0  0  0  0  0  0  0  0  0
   -0.6946    0.7288   -2.0664 H   0  0  0  0  0  0  0  0  0  0  0  0
   -0.6399    2.0432   -0.8069 H   0  0  0  0  0  0  0  0  0  0  0  0
   -2.4067   -0.4822   -0.9267 H   0  0  0  0  0  0  0  0  0  0  0  0
   -2.2232    2.2112    0.5209 H   0  0  0  0  0  0  0  0  0  0  0  0
   -3.6414    1.3823   -0.2029 H   0  0  0  0  0  0  0  0  0  0  0  0
   -2.9820    0.8089    1.4225 H   0  0  0  0  0  0  0  0  0  0  0  0
   -0.9647   -0.1674    1.6232 H   0  0  0  0  0  0  0  0  0  0  0  0
   -1.5869   -2.1469   -0.0784 H   0  0  0  0  0  0  0  0  0  0  0  0
  1  2  1  0
  2  3  1  0
  3  4  1  0
  4  5  1  0
  5  6  1  0
  6  7  1  0
  6  8  1  0
  8  9  1  0
  8  4  1  0
  1 10  1  0
  1 11  1  0
  1 12  1  0
  2 13  1  0
  2 14  1  0
  4 15  1  0
  5 16  1  0
  5 17  1  0
  6 18  1  0
  7 19  1  0
  7 20  1  0
  7 21  1  0
  8 22  1  0
  9 23  1  0
M  END
