
     RDKit          3D

 24 23  0  0  0  0  0  0  0  0999 V2000
    2.4018    0.1967   -0.8313 C   0  0  0  0  0  0  0  0  0  0  0  0
    1.9605   -0.9729    0.0146 C   0  0  0  0  0  0  0  0  0  0  0  0
    0.6138   -1.0922    0.1599 O   0  0  0  0  0  0  0  0  0  0  0  0
   -0.0178   -0.0295    0.7472 C   0  0  0  0  0  0  0  0  0  0  0  0
   -0.6395   -0.4287    2.0933 C   0  0  0  0  0  0  0  0  0  0  0  0
   -1.1042    0.5774   -0.0629 C   0  0  0  0  0  0  0  0  0  0  0  0
   -0.6935    1.1181   -1.3882 C   0  0  0  0  0  0  0  0  0  0  0  0
   -2.2361   -0.4180   -0.2940 C   0  0  0  0  0  0  0  0  0  0  0  0
    1.9872    0.1273   -1.8697 H   0  0  0  0  0  0  0  0  0  0  0  0
    3.5079    0.1689   -0.9687 H   0  0  0  0  0  0  0  0  0  0  0  0
    2.1036    1.1749   -0.4344 H   0  0  0  0  0  0  0  0  0  0  0  0
    2.5254   -0.9328    0.9693 H   0  0  0  0  0  0  0  0  0  0  0  0
    2.3307   -1.8915   -0.5078 H   0  0  0  0  0  0  0  0  0  0  0  0
    0.7195    0.7657    1.0024 H   0  0  0  0  0  0  0  0  0  0  0  0
   -1.2910   -1.3151    1.9772 H   0  0  0  0  0  0  0  0  0  0  0  0
   -1.2176    0.4167    2.4799 H   0  0  0  0  0  0  0  0  0  0  0  0
    0.1795   -0.7275    2.7735 H   0  0  0  0  0  0  0  0  0  0  0  0
   -1.5595    1.4131    0.5179 H   0  0  0  0  0  0  0  0  0  0  0  0
   -0.3966    0.2947   -2.0787 H   0  0  0  0  0  0  0  0  0  0  0  0
    0.0272    1.9432   -1.3570 H   0  0  0  0  0  0  0  0  0  0  0  0
   -1.6243    1.5510   -1.8594 H   0  0  0  0  0  0  0  0  0  0  0  0
   -1.7962   -1.3735   -0.6038 H   0  0  0  0  0  0  0  0  0  0  0  0
   -2.9143   -0.0616   -1.0971 H   0  0  0  0  0  0  0  0  0  0  0  0
   -2.8667   -0.5044    0.6180 H   0  0  0  0  0  0  0  0  0  0  0  0
  1  2  1  0
  2  3  1  0
  3  4  1  0
  4  5  1  0
  4  6  1  0
  6  7  1  0
  6  8  1  0
  1  9  1  0
  1 10  1  0
  1 11  1  0
  2 12  1  0
  2 13  1  0
  4 14  1  0
  5 15  1  0
  5 16  1  0
  5 17  1  0
  6 18  1  0
  7 19  1  0
  7 20  1  0
  7 21  1  0
  8 22  1  0
  8 23  1  0
  8 24  1  0
M  END
