
     RDKit          3D

 21 21  0  0  0  0  0  0  0  0999 V2000
    2.7794    0.5846    0.2610 C   0  0  0  0  0  0  0  0  0  0  0  0
    1.6481    1.3653   -0.3101 C   0  0  0  0  0  0  0  0  0  0  0  0
    0.4025    1.0504    0.1830 O   0  0  0  0  0  0  0  0  0  0  0  0
    0.0405   -0.2733   -0.0401 C   0  0  0  0  0  0  0  0  0  0  0  0
   -0.6207   -0.9568    1.1932 C   0  0  0  0  0  0  0  0  0  0  0  0
   -0.7461   -0.1938    2.3310 O   0  0  0  0  0  0  0  0  0  0  0  0
   -1.3808   -0.6900   -0.0273 C   0  0  0  0  0  0  0  0  0  0  0  0
   -2.4900    0.3426   -0.0105 C   0  0  0  0  0  0  0  0  0  0  0  0
   -1.6872   -1.7978   -0.8319 O   0  0  0  0  0  0  0  0  0  0  0  0
    2.4318   -0.4321    0.5206 H   0  0  0  0  0  0  0  0  0  0  0  0
    3.5674    0.4888   -0.5332 H   0  0  0  0  0  0  0  0  0  0  0  0
    3.2136    1.0285    1.1796 H   0  0  0  0  0  0  0  0  0  0  0  0
    1.6183    1.1570   -1.4203 H   0  0  0  0  0  0  0  0  0  0  0  0
    1.8276    2.4449   -0.2252 H   0  0  0  0  0  0  0  0  0  0  0  0
    0.7860   -0.8934   -0.5789 H   0  0  0  0  0  0  0  0  0  0  0  0
   -0.2400   -1.9957    1.3996 H   0  0  0  0  0  0  0  0  0  0  0  0
   -0.4265   -0.6396    3.1402 H   0  0  0  0  0  0  0  0  0  0  0  0
   -2.7346    0.6168   -1.0540 H   0  0  0  0  0  0  0  0  0  0  0  0
   -2.2094    1.2468    0.5527 H   0  0  0  0  0  0  0  0  0  0  0  0
   -3.4154   -0.0915    0.4603 H   0  0  0  0  0  0  0  0  0  0  0  0
   -2.3644   -2.3614   -0.3434 H   0  0  0  0  0  0  0  0  0  0  0  0
  1  2  1  0
  2  3  1  0
  3  4  1  0
  4  5  1  0
  5  6  1  0
  5  7  1  0
  7  8  1  0
  7  9  1  0
  7  4  1  0
  1 10  1  0
  1 11  1  0
  1 12  1  0
  2 13  1  0
  2 14  1  0
  4 15  1  0
  5 16  1  0
  6 17  1  0
  8 18  1  0
  8 19  1  0
  8 20  1  0
  9 21  1  0
M  END
