
     RDKit          3D

 21 21  0  0  0  0  0  0  0  0999 V2000
   -2.7875   -0.8015   -0.3642 C   0  0  0  0  0  0  0  0  0  0  0  0
   -1.5610    0.0628   -0.6413 C   0  0  0  0  0  0  0  0  0  0  0  0
   -0.6062   -0.2732    0.2809 O   0  0  0  0  0  0  0  0  0  0  0  0
    0.5771    0.4126    0.1804 C   0  0  0  0  0  0  0  0  0  0  0  0
    0.4709    1.9110    0.3339 C   0  0  0  0  0  0  0  0  0  0  0  0
    1.7217   -0.2020    0.9635 C   0  0  0  0  0  0  0  0  0  0  0  0
    1.7465   -0.1761   -0.5412 C   0  0  0  0  0  0  0  0  0  0  0  0
    1.6144   -1.4951   -1.1791 C   0  0  0  0  0  0  0  0  0  0  0  0
    2.2281   -1.7773   -2.1937 O   0  0  0  0  0  0  0  0  0  0  0  0
   -2.8872   -0.8581    0.7524 H   0  0  0  0  0  0  0  0  0  0  0  0
   -2.5327   -1.8410   -0.6750 H   0  0  0  0  0  0  0  0  0  0  0  0
   -3.6807   -0.4063   -0.8567 H   0  0  0  0  0  0  0  0  0  0  0  0
   -1.2280   -0.0164   -1.6843 H   0  0  0  0  0  0  0  0  0  0  0  0
   -1.8846    1.1076   -0.4750 H   0  0  0  0  0  0  0  0  0  0  0  0
    0.2516    2.1553    1.4095 H   0  0  0  0  0  0  0  0  0  0  0  0
    1.5019    2.3138    0.1251 H   0  0  0  0  0  0  0  0  0  0  0  0
   -0.2951    2.3720   -0.2876 H   0  0  0  0  0  0  0  0  0  0  0  0
    2.3972    0.4612    1.5375 H   0  0  0  0  0  0  0  0  0  0  0  0
    1.5475   -1.1793    1.4780 H   0  0  0  0  0  0  0  0  0  0  0  0
    2.4403    0.5139   -1.0619 H   0  0  0  0  0  0  0  0  0  0  0  0
    0.9658   -2.2837   -0.7814 H   0  0  0  0  0  0  0  0  0  0  0  0
  1  2  1  0
  2  3  1  0
  3  4  1  0
  4  5  1  0
  4  6  1  0
  6  7  1  0
  7  8  1  0
  8  9  2  0
  7  4  1  0
  1 10  1  0
  1 11  1  0
  1 12  1  0
  2 13  1  0
  2 14  1  0
  5 15  1  0
  5 16  1  0
  5 17  1  0
  6 18  1  0
  6 19  1  0
  7 20  1  0
  8 21  1  0
M  END
