
     RDKit          3D

 23 24  0  0  0  0  0  0  0  0999 V2000
    2.8893   -0.4499    0.9248 C   0  0  0  0  0  0  0  0  0  0  0  0
    2.6691    0.4374   -0.2861 C   0  0  0  0  0  0  0  0  0  0  0  0
    1.4672    0.1507   -0.8673 O   0  0  0  0  0  0  0  0  0  0  0  0
    0.3633    0.3132   -0.1019 C   0  0  0  0  0  0  0  0  0  0  0  0
   -0.7634    1.1481   -0.6324 C   0  0  0  0  0  0  0  0  0  0  0  0
   -1.7793    0.1932   -0.1132 C   0  0  0  0  0  0  0  0  0  0  0  0
   -2.9145   -0.1056   -1.0455 C   0  0  0  0  0  0  0  0  0  0  0  0
   -1.6160   -0.6674    1.0506 C   0  0  0  0  0  0  0  0  0  0  0  0
   -0.6196   -0.8294   -0.0331 C   0  0  0  0  0  0  0  0  0  0  0  0
    2.5161   -1.4643    0.6458 H   0  0  0  0  0  0  0  0  0  0  0  0
    2.2915   -0.1338    1.7995 H   0  0  0  0  0  0  0  0  0  0  0  0
    3.9854   -0.4749    1.1697 H   0  0  0  0  0  0  0  0  0  0  0  0
    2.8332    1.5059   -0.0605 H   0  0  0  0  0  0  0  0  0  0  0  0
    3.4737    0.1574   -1.0150 H   0  0  0  0  0  0  0  0  0  0  0  0
    0.6340    0.6715    0.9251 H   0  0  0  0  0  0  0  0  0  0  0  0
   -0.8129    2.1917   -0.2698 H   0  0  0  0  0  0  0  0  0  0  0  0
   -0.7234    1.1657   -1.7483 H   0  0  0  0  0  0  0  0  0  0  0  0
   -3.3928    0.8796   -1.3043 H   0  0  0  0  0  0  0  0  0  0  0  0
   -3.7262   -0.7033   -0.5822 H   0  0  0  0  0  0  0  0  0  0  0  0
   -2.5545   -0.5852   -1.9732 H   0  0  0  0  0  0  0  0  0  0  0  0
   -1.2153   -0.3124    2.0222 H   0  0  0  0  0  0  0  0  0  0  0  0
   -2.3256   -1.5071    1.1672 H   0  0  0  0  0  0  0  0  0  0  0  0
   -0.6793   -1.5811   -0.8114 H   0  0  0  0  0  0  0  0  0  0  0  0
  1  2  1  0
  2  3  1  0
  3  4  1  0
  4  5  1  0
  5  6  1  0
  6  7  1  0
  6  8  1  0
  8  9  1  0
  9  4  1  0
  9  6  1  0
  1 10  1  0
  1 11  1  0
  1 12  1  0
  2 13  1  0
  2 14  1  0
  4 15  1  0
  5 16  1  0
  5 17  1  0
  7 18  1  0
  7 19  1  0
  7 20  1  0
  8 21  1  0
  8 22  1  0
  9 23  1  0
M  END
