
     RDKit          3D

 21 20  0  0  0  0  0  0  0  0999 V2000
    3.5549    0.2638    0.2858 C   0  0  0  0  0  0  0  0  0  0  0  0
    2.1527   -0.1192   -0.1523 C   0  0  0  0  0  0  0  0  0  0  0  0
    1.3742   -0.5631    0.8633 O   0  0  0  0  0  0  0  0  0  0  0  0
    0.1176   -0.9061    0.4317 C   0  0  0  0  0  0  0  0  0  0  0  0
   -0.6142    0.2703   -0.0479 C   0  0  0  0  0  0  0  0  0  0  0  0
   -0.2616    1.4322   -0.0203 O   0  0  0  0  0  0  0  0  0  0  0  0
   -1.9830    0.0656   -0.6618 C   0  0  0  0  0  0  0  0  0  0  0  0
   -3.0008    0.8704    0.0858 C   0  0  0  0  0  0  0  0  0  0  0  0
   -2.2898   -1.2733   -0.6473 O   0  0  0  0  0  0  0  0  0  0  0  0
    4.0851   -0.6021    0.7450 H   0  0  0  0  0  0  0  0  0  0  0  0
    4.0855    0.6239   -0.6183 H   0  0  0  0  0  0  0  0  0  0  0  0
    3.4909    1.0454    1.0559 H   0  0  0  0  0  0  0  0  0  0  0  0
    1.7228    0.7546   -0.6467 H   0  0  0  0  0  0  0  0  0  0  0  0
    2.2025   -0.9324   -0.9154 H   0  0  0  0  0  0  0  0  0  0  0  0
    0.1728   -1.6651   -0.4172 H   0  0  0  0  0  0  0  0  0  0  0  0
   -0.4278   -1.4645    1.2290 H   0  0  0  0  0  0  0  0  0  0  0  0
   -1.9219    0.3877   -1.7243 H   0  0  0  0  0  0  0  0  0  0  0  0
   -2.5384    1.2307    1.0357 H   0  0  0  0  0  0  0  0  0  0  0  0
   -3.9018    0.2802    0.3718 H   0  0  0  0  0  0  0  0  0  0  0  0
   -3.3007    1.7723   -0.4797 H   0  0  0  0  0  0  0  0  0  0  0  0
   -2.7190   -1.4714    0.2273 H   0  0  0  0  0  0  0  0  0  0  0  0
  1  2  1  0
  2  3  1  0
  3  4  1  0
  4  5  1  0
  5  6  2  0
  5  7  1  0
  7  8  1  0
  7  9  1  0
  1 10  1  0
  1 11  1  0
  1 12  1  0
  2 13  1  0
  2 14  1  0
  4 15  1  0
  4 16  1  0
  7 17  1  0
  8 18  1  0
  8 19  1  0
  8 20  1  0
  9 21  1  0
M  END
