
     RDKit          3D

 19 19  0  0  0  0  0  0  0  0999 V2000
   -2.9545   -0.2924    0.0213 C   0  0  0  0  0  0  0  0  0  0  0  0
   -1.7600    0.2097   -0.7567 C   0  0  0  0  0  0  0  0  0  0  0  0
   -0.6207   -0.0791   -0.0221 O   0  0  0  0  0  0  0  0  0  0  0  0
    0.5428    0.3294   -0.6250 C   0  0  0  0  0  0  0  0  0  0  0  0
    1.5308    1.0505    0.3042 C   0  0  0  0  0  0  0  0  0  0  0  0
    2.6039    0.2464   -0.3472 C   0  0  0  0  0  0  0  0  0  0  0  0
    3.7931    0.3187   -0.6063 O   0  0  0  0  0  0  0  0  0  0  0  0
    1.5773   -0.8040   -0.5983 C   0  0  0  0  0  0  0  0  0  0  0  0
    1.3861   -1.5541    0.5628 O   0  0  0  0  0  0  0  0  0  0  0  0
   -3.1599   -1.3411   -0.3103 H   0  0  0  0  0  0  0  0  0  0  0  0
   -2.7288   -0.3630    1.1039 H   0  0  0  0  0  0  0  0  0  0  0  0
   -3.8420    0.3591   -0.1093 H   0  0  0  0  0  0  0  0  0  0  0  0
   -1.8478    1.3308   -0.7859 H   0  0  0  0  0  0  0  0  0  0  0  0
   -1.7149   -0.2242   -1.7737 H   0  0  0  0  0  0  0  0  0  0  0  0
    0.4628    0.8293   -1.5991 H   0  0  0  0  0  0  0  0  0  0  0  0
    1.3374    0.6893    1.3363 H   0  0  0  0  0  0  0  0  0  0  0  0
    1.6008    2.1234    0.1625 H   0  0  0  0  0  0  0  0  0  0  0  0
    1.6729   -1.3606   -1.5297 H   0  0  0  0  0  0  0  0  0  0  0  0
    2.1204   -1.4679    1.2063 H   0  0  0  0  0  0  0  0  0  0  0  0
  1  2  1  0
  2  3  1  0
  3  4  1  0
  4  5  1  0
  5  6  1  0
  6  7  2  0
  6  8  1  0
  8  9  1  0
  8  4  1  0
  1 10  1  0
  1 11  1  0
  1 12  1  0
  2 13  1  0
  2 14  1  0
  4 15  1  0
  5 16  1  0
  5 17  1  0
  8 18  1  0
  9 19  1  0
M  END
