
     RDKit          3D

 22 22  0  0  0  0  0  0  0  0999 V2000
    3.5503    0.2721   -0.3153 C   0  0  0  0  0  0  0  0  0  0  0  0
    2.2877   -0.5657   -0.3270 C   0  0  0  0  0  0  0  0  0  0  0  0
    1.1927    0.2745   -0.2200 O   0  0  0  0  0  0  0  0  0  0  0  0
    0.0261   -0.4751   -0.2290 C   0  0  0  0  0  0  0  0  0  0  0  0
   -1.0600    0.0603   -1.1396 C   0  0  0  0  0  0  0  0  0  0  0  0
   -2.0454   -0.2528   -0.0284 C   0  0  0  0  0  0  0  0  0  0  0  0
   -3.1090    0.8039    0.1388 C   0  0  0  0  0  0  0  0  0  0  0  0
   -0.8849   -0.1439    0.9349 C   0  0  0  0  0  0  0  0  0  0  0  0
    4.3032   -0.1110    0.4119 H   0  0  0  0  0  0  0  0  0  0  0  0
    3.3117    1.3184    0.0112 H   0  0  0  0  0  0  0  0  0  0  0  0
    4.0686    0.2643   -1.3056 H   0  0  0  0  0  0  0  0  0  0  0  0
    2.2508   -1.2077   -1.2436 H   0  0  0  0  0  0  0  0  0  0  0  0
    2.3210   -1.1914    0.5909 H   0  0  0  0  0  0  0  0  0  0  0  0
    0.1880   -1.5825   -0.3183 H   0  0  0  0  0  0  0  0  0  0  0  0
   -1.2181   -0.5050   -2.0717 H   0  0  0  0  0  0  0  0  0  0  0  0
   -0.9143    1.1620   -1.2660 H   0  0  0  0  0  0  0  0  0  0  0  0
   -2.4447   -1.2561   -0.1599 H   0  0  0  0  0  0  0  0  0  0  0  0
   -3.8583    0.6265   -0.6704 H   0  0  0  0  0  0  0  0  0  0  0  0
   -2.7286    1.8250   -0.0164 H   0  0  0  0  0  0  0  0  0  0  0  0
   -3.6427    0.6663    1.0915 H   0  0  0  0  0  0  0  0  0  0  0  0
   -0.8868   -0.8902    1.7547 H   0  0  0  0  0  0  0  0  0  0  0  0
   -0.7074    0.9078    1.2623 H   0  0  0  0  0  0  0  0  0  0  0  0
  1  2  1  0
  2  3  1  0
  3  4  1  0
  4  5  1  0
  5  6  1  0
  6  7  1  0
  6  8  1  0
  8  4  1  0
  1  9  1  0
  1 10  1  0
  1 11  1  0
  2 12  1  0
  2 13  1  0
  4 14  1  0
  5 15  1  0
  5 16  1  0
  6 17  1  0
  7 18  1  0
  7 19  1  0
  7 20  1  0
  8 21  1  0
  8 22  1  0
M  END
