
     RDKit          3D

 22 21  0  0  0  0  0  0  0  0999 V2000
   -3.3602   -0.1570   -0.0194 C   0  0  0  0  0  0  0  0  0  0  0  0
   -1.8645   -0.5537   -0.0970 C   0  0  0  0  0  0  0  0  0  0  0  0
   -1.2490    0.4101   -0.8067 O   0  0  0  0  0  0  0  0  0  0  0  0
    0.0567    0.2737   -1.0698 C   0  0  0  0  0  0  0  0  0  0  0  0
    0.9528    0.2177    0.1108 C   0  0  0  0  0  0  0  0  0  0  0  0
    0.8916   -1.1315    0.8028 C   0  0  0  0  0  0  0  0  0  0  0  0
    2.2822    0.2458   -0.4362 O   0  0  0  0  0  0  0  0  0  0  0  0
    2.9525    1.3261    0.1170 C   0  0  0  0  0  0  0  0  0  0  0  0
   -3.7931   -0.4781   -0.9865 H   0  0  0  0  0  0  0  0  0  0  0  0
   -3.3882    0.9412    0.0550 H   0  0  0  0  0  0  0  0  0  0  0  0
   -3.8203   -0.6823    0.8345 H   0  0  0  0  0  0  0  0  0  0  0  0
   -1.5137   -0.6963    0.9598 H   0  0  0  0  0  0  0  0  0  0  0  0
   -1.8248   -1.5241   -0.6188 H   0  0  0  0  0  0  0  0  0  0  0  0
    0.1596   -0.6762   -1.7010 H   0  0  0  0  0  0  0  0  0  0  0  0
    0.4490    1.0560   -1.7918 H   0  0  0  0  0  0  0  0  0  0  0  0
    0.8836    1.0595    0.7950 H   0  0  0  0  0  0  0  0  0  0  0  0
    0.3421   -1.8808    0.2140 H   0  0  0  0  0  0  0  0  0  0  0  0
    0.5474   -1.0682    1.8441 H   0  0  0  0  0  0  0  0  0  0  0  0
    1.9514   -1.5622    0.9202 H   0  0  0  0  0  0  0  0  0  0  0  0
    3.9776    1.3911   -0.2711 H   0  0  0  0  0  0  0  0  0  0  0  0
    2.3672    2.2646   -0.0827 H   0  0  0  0  0  0  0  0  0  0  0  0
    2.9999    1.2246    1.2277 H   0  0  0  0  0  0  0  0  0  0  0  0
  1  2  1  0
  2  3  1  0
  3  4  1  0
  4  5  1  0
  5  6  1  0
  5  7  1  0
  7  8  1  0
  1  9  1  0
  1 10  1  0
  1 11  1  0
  2 12  1  0
  2 13  1  0
  4 14  1  0
  4 15  1  0
  5 16  1  0
  6 17  1  0
  6 18  1  0
  6 19  1  0
  8 20  1  0
  8 21  1  0
  8 22  1  0
M  END
