
     RDKit          3D

 21 21  0  0  0  0  0  0  0  0999 V2000
    2.9439    0.3711   -0.2810 C   0  0  0  0  0  0  0  0  0  0  0  0
    2.3458   -0.7677    0.4866 C   0  0  0  0  0  0  0  0  0  0  0  0
    1.0997   -0.3859    0.9392 O   0  0  0  0  0  0  0  0  0  0  0  0
    0.2175   -0.0498   -0.0541 C   0  0  0  0  0  0  0  0  0  0  0  0
   -0.5480    1.2381    0.2086 C   0  0  0  0  0  0  0  0  0  0  0  0
   -0.7802    2.0865   -0.8711 O   0  0  0  0  0  0  0  0  0  0  0  0
   -1.2415   -0.0944    0.2051 C   0  0  0  0  0  0  0  0  0  0  0  0
   -2.1388   -0.3633   -0.8186 O   0  0  0  0  0  0  0  0  0  0  0  0
   -3.1663   -1.1459   -0.3114 C   0  0  0  0  0  0  0  0  0  0  0  0
    2.6057    0.3022   -1.3296 H   0  0  0  0  0  0  0  0  0  0  0  0
    4.0450    0.4339   -0.1878 H   0  0  0  0  0  0  0  0  0  0  0  0
    2.5292    1.3185    0.1377 H   0  0  0  0  0  0  0  0  0  0  0  0
    2.3395   -1.7194   -0.0642 H   0  0  0  0  0  0  0  0  0  0  0  0
    2.9797   -0.9260    1.4078 H   0  0  0  0  0  0  0  0  0  0  0  0
    0.6245   -0.1303   -1.0834 H   0  0  0  0  0  0  0  0  0  0  0  0
   -0.4264    1.7471    1.1844 H   0  0  0  0  0  0  0  0  0  0  0  0
   -1.4961    2.7163   -0.6728 H   0  0  0  0  0  0  0  0  0  0  0  0
   -1.5124   -0.5398    1.1841 H   0  0  0  0  0  0  0  0  0  0  0  0
   -3.9249   -1.4075   -1.0554 H   0  0  0  0  0  0  0  0  0  0  0  0
   -3.7045   -0.5868    0.4992 H   0  0  0  0  0  0  0  0  0  0  0  0
   -2.7913   -2.0969    0.1263 H   0  0  0  0  0  0  0  0  0  0  0  0
  1  2  1  0
  2  3  1  0
  3  4  1  0
  4  5  1  0
  5  6  1  0
  5  7  1  0
  7  8  1  0
  8  9  1  0
  7  4  1  0
  1 10  1  0
  1 11  1  0
  1 12  1  0
  2 13  1  0
  2 14  1  0
  4 15  1  0
  5 16  1  0
  6 17  1  0
  7 18  1  0
  9 19  1  0
  9 20  1  0
  9 21  1  0
M  END
