
     RDKit          3D

 19 19  0  0  0  0  0  0  0  0999 V2000
    2.5445    1.1640    0.2659 C   0  0  0  0  0  0  0  0  0  0  0  0
    2.4231   -0.1886    0.9156 C   0  0  0  0  0  0  0  0  0  0  0  0
    1.0790   -0.4641    1.3252 O   0  0  0  0  0  0  0  0  0  0  0  0
    0.0306   -0.5007    0.4229 C   0  0  0  0  0  0  0  0  0  0  0  0
    0.2955   -0.2816   -0.7877 O   0  0  0  0  0  0  0  0  0  0  0  0
   -1.3735   -0.7844    0.8227 C   0  0  0  0  0  0  0  0  0  0  0  0
   -2.3008   -0.7611   -0.3566 C   0  0  0  0  0  0  0  0  0  0  0  0
   -2.4682    0.4247   -1.1790 C   0  0  0  0  0  0  0  0  0  0  0  0
   -3.4274    0.1821   -0.1821 O   0  0  0  0  0  0  0  0  0  0  0  0
    3.5924    1.5224    0.4893 H   0  0  0  0  0  0  0  0  0  0  0  0
    2.5220    1.0789   -0.8529 H   0  0  0  0  0  0  0  0  0  0  0  0
    1.7926    1.8853    0.6031 H   0  0  0  0  0  0  0  0  0  0  0  0
    3.0612   -0.2640    1.8182 H   0  0  0  0  0  0  0  0  0  0  0  0
    2.7806   -0.9360    0.1763 H   0  0  0  0  0  0  0  0  0  0  0  0
   -1.7168   -0.1221    1.6344 H   0  0  0  0  0  0  0  0  0  0  0  0
   -1.3854   -1.8176    1.2397 H   0  0  0  0  0  0  0  0  0  0  0  0
   -2.7476   -1.7298   -0.6991 H   0  0  0  0  0  0  0  0  0  0  0  0
   -1.8217    1.3023   -1.0233 H   0  0  0  0  0  0  0  0  0  0  0  0
   -2.8801    0.2904   -2.2019 H   0  0  0  0  0  0  0  0  0  0  0  0
  1  2  1  0
  2  3  1  0
  3  4  1  0
  4  5  2  0
  4  6  1  0
  6  7  1  0
  7  8  1  0
  8  9  1  0
  9  7  1  0
  1 10  1  0
  1 11  1  0
  1 12  1  0
  2 13  1  0
  2 14  1  0
  6 15  1  0
  6 16  1  0
  7 17  1  0
  8 18  1  0
  8 19  1  0
M  END
