
     RDKit          3D

 23 23  0  0  0  0  0  0  0  0999 V2000
    3.2834    0.1799   -0.3411 C   0  0  0  0  0  0  0  0  0  0  0  0
    2.4800   -0.8305    0.4452 C   0  0  0  0  0  0  0  0  0  0  0  0
    1.2740   -0.2930    0.8056 O   0  0  0  0  0  0  0  0  0  0  0  0
    0.4723    0.1041   -0.2305 C   0  0  0  0  0  0  0  0  0  0  0  0
   -0.8127    0.6694    0.3897 C   0  0  0  0  0  0  0  0  0  0  0  0
   -1.8198    1.1584   -0.5979 C   0  0  0  0  0  0  0  0  0  0  0  0
   -2.6735   -0.0541   -0.2910 C   0  0  0  0  0  0  0  0  0  0  0  0
   -2.5729   -0.9654   -1.3540 O   0  0  0  0  0  0  0  0  0  0  0  0
   -1.7786   -0.3638    0.8736 C   0  0  0  0  0  0  0  0  0  0  0  0
    2.8248    0.4752   -1.2859 H   0  0  0  0  0  0  0  0  0  0  0  0
    4.2733   -0.3160   -0.5574 H   0  0  0  0  0  0  0  0  0  0  0  0
    3.5348    1.0332    0.3277 H   0  0  0  0  0  0  0  0  0  0  0  0
    2.4039   -1.7967   -0.0879 H   0  0  0  0  0  0  0  0  0  0  0  0
    3.0507   -1.0357    1.3813 H   0  0  0  0  0  0  0  0  0  0  0  0
    0.8915    0.9418   -0.8328 H   0  0  0  0  0  0  0  0  0  0  0  0
    0.1638   -0.6891   -0.9182 H   0  0  0  0  0  0  0  0  0  0  0  0
   -0.6006    1.4813    1.1406 H   0  0  0  0  0  0  0  0  0  0  0  0
   -2.3657    2.0836   -0.3054 H   0  0  0  0  0  0  0  0  0  0  0  0
   -1.4595    1.2251   -1.6355 H   0  0  0  0  0  0  0  0  0  0  0  0
   -3.7157    0.1877   -0.0185 H   0  0  0  0  0  0  0  0  0  0  0  0
   -3.1714   -1.7444   -1.1591 H   0  0  0  0  0  0  0  0  0  0  0  0
   -2.2755   -0.0402    1.8255 H   0  0  0  0  0  0  0  0  0  0  0  0
   -1.4066   -1.4108    0.9148 H   0  0  0  0  0  0  0  0  0  0  0  0
  1  2  1  0
  2  3  1  0
  3  4  1  0
  4  5  1  0
  5  6  1  0
  6  7  1  0
  7  8  1  0
  7  9  1  0
  9  5  1  0
  1 10  1  0
  1 11  1  0
  1 12  1  0
  2 13  1  0
  2 14  1  0
  4 15  1  0
  4 16  1  0
  5 17  1  0
  6 18  1  0
  6 19  1  0
  7 20  1  0
  8 21  1  0
  9 22  1  0
  9 23  1  0
M  END
