
     RDKit          3D

 19 21  0  0  0  0  0  0  0  0999 V2000
    2.8655   -0.0375   -0.1114 C   0  0  0  0  0  0  0  0  0  0  0  0
    1.4103    0.0936   -0.4931 C   0  0  0  0  0  0  0  0  0  0  0  0
    0.6610    0.1263    0.6780 O   0  0  0  0  0  0  0  0  0  0  0  0
   -0.6929    0.2452    0.4458 C   0  0  0  0  0  0  0  0  0  0  0  0
   -1.2420    1.4193   -0.2836 C   0  0  0  0  0  0  0  0  0  0  0  0
   -1.2785    0.0639   -0.8990 C   0  0  0  0  0  0  0  0  0  0  0  0
   -2.2532   -0.9198   -0.3453 C   0  0  0  0  0  0  0  0  0  0  0  0
   -2.9939   -0.4985    0.7394 O   0  0  0  0  0  0  0  0  0  0  0  0
   -1.6648   -0.7143    1.0566 C   0  0  0  0  0  0  0  0  0  0  0  0
    3.3732   -0.8690   -0.6655 H   0  0  0  0  0  0  0  0  0  0  0  0
    3.4196    0.9307   -0.2685 H   0  0  0  0  0  0  0  0  0  0  0  0
    2.9893   -0.2728    0.9691 H   0  0  0  0  0  0  0  0  0  0  0  0
    1.1591   -0.8227   -1.0938 H   0  0  0  0  0  0  0  0  0  0  0  0
    1.2608    0.9802   -1.1264 H   0  0  0  0  0  0  0  0  0  0  0  0
   -0.4960    2.1613   -0.6261 H   0  0  0  0  0  0  0  0  0  0  0  0
   -2.1754    1.8413    0.1628 H   0  0  0  0  0  0  0  0  0  0  0  0
   -0.6718   -0.1689   -1.7866 H   0  0  0  0  0  0  0  0  0  0  0  0
   -2.3337   -1.9358   -0.7397 H   0  0  0  0  0  0  0  0  0  0  0  0
   -1.3368   -1.6223    1.5585 H   0  0  0  0  0  0  0  0  0  0  0  0
  1  2  1  0
  2  3  1  0
  3  4  1  0
  4  5  1  0
  5  6  1  0
  6  7  1  0
  7  8  1  0
  8  9  1  0
  6  4  1  0
  9  7  1  0
  9  4  1  0
  1 10  1  0
  1 11  1  0
  1 12  1  0
  2 13  1  0
  2 14  1  0
  5 15  1  0
  5 16  1  0
  6 17  1  0
  7 18  1  0
  9 19  1  0
M  END
