
     RDKit          3D

 19 19  0  0  0  0  0  0  0  0999 V2000
    2.5342    0.0294    0.2980 C   0  0  0  0  0  0  0  0  0  0  0  0
    1.5432    1.1624    0.2324 C   0  0  0  0  0  0  0  0  0  0  0  0
    0.3139    0.6609    0.6516 O   0  0  0  0  0  0  0  0  0  0  0  0
   -0.0642   -0.3707   -0.1907 C   0  0  0  0  0  0  0  0  0  0  0  0
   -0.9149   -1.4832    0.2993 C   0  0  0  0  0  0  0  0  0  0  0  0
   -1.5580   -0.3845   -0.4863 C   0  0  0  0  0  0  0  0  0  0  0  0
   -2.4468    0.5518    0.3033 C   0  0  0  0  0  0  0  0  0  0  0  0
    2.6462   -0.3865   -0.7178 H   0  0  0  0  0  0  0  0  0  0  0  0
    2.1566   -0.8043    0.9491 H   0  0  0  0  0  0  0  0  0  0  0  0
    3.5051    0.3923    0.7119 H   0  0  0  0  0  0  0  0  0  0  0  0
    1.4844    1.5401   -0.8302 H   0  0  0  0  0  0  0  0  0  0  0  0
    1.8778    2.0160    0.8715 H   0  0  0  0  0  0  0  0  0  0  0  0
    0.6379   -0.6001   -1.0015 H   0  0  0  0  0  0  0  0  0  0  0  0
   -1.1513   -1.5949    1.3734 H   0  0  0  0  0  0  0  0  0  0  0  0
   -0.8000   -2.4587   -0.2153 H   0  0  0  0  0  0  0  0  0  0  0  0
   -1.7831   -0.5350   -1.5649 H   0  0  0  0  0  0  0  0  0  0  0  0
   -3.4778    0.1302    0.2394 H   0  0  0  0  0  0  0  0  0  0  0  0
   -2.1090    0.5436    1.3555 H   0  0  0  0  0  0  0  0  0  0  0  0
   -2.3943    1.5913   -0.0645 H   0  0  0  0  0  0  0  0  0  0  0  0
  1  2  1  0
  2  3  1  0
  3  4  1  0
  4  5  1  0
  5  6  1  0
  6  7  1  0
  6  4  1  0
  1  8  1  0
  1  9  1  0
  1 10  1  0
  2 11  1  0
  2 12  1  0
  4 13  1  0
  5 14  1  0
  5 15  1  0
  6 16  1  0
  7 17  1  0
  7 18  1  0
  7 19  1  0
M  END
