
     RDKit          3D

 20 20  0  0  0  0  0  0  0  0999 V2000
    2.9202    0.9948    0.0585 C   0  0  0  0  0  0  0  0  0  0  0  0
    2.0171   -0.1912   -0.0013 C   0  0  0  0  0  0  0  0  0  0  0  0
    0.6640    0.1377    0.1526 O   0  0  0  0  0  0  0  0  0  0  0  0
   -0.0338   -1.0732    0.0723 C   0  0  0  0  0  0  0  0  0  0  0  0
   -1.5177   -0.8932    0.2202 C   0  0  0  0  0  0  0  0  0  0  0  0
   -2.0145    0.2815   -0.5830 C   0  0  0  0  0  0  0  0  0  0  0  0
   -2.6170    0.6869    0.7476 C   0  0  0  0  0  0  0  0  0  0  0  0
   -1.9253   -0.3316    1.4109 O   0  0  0  0  0  0  0  0  0  0  0  0
    2.4284    1.9555   -0.1809 H   0  0  0  0  0  0  0  0  0  0  0  0
    3.3605    1.0794    1.0784 H   0  0  0  0  0  0  0  0  0  0  0  0
    3.8031    0.8938   -0.6274 H   0  0  0  0  0  0  0  0  0  0  0  0
    2.2409   -0.9322    0.8120 H   0  0  0  0  0  0  0  0  0  0  0  0
    2.1993   -0.7091   -0.9730 H   0  0  0  0  0  0  0  0  0  0  0  0
    0.1676   -1.4676   -0.9523 H   0  0  0  0  0  0  0  0  0  0  0  0
    0.2872   -1.7932    0.8573 H   0  0  0  0  0  0  0  0  0  0  0  0
   -2.0253   -1.8500   -0.0478 H   0  0  0  0  0  0  0  0  0  0  0  0
   -1.2056    0.9645   -0.8999 H   0  0  0  0  0  0  0  0  0  0  0  0
   -2.7164   -0.0282   -1.3544 H   0  0  0  0  0  0  0  0  0  0  0  0
   -3.7151    0.5651    0.7616 H   0  0  0  0  0  0  0  0  0  0  0  0
   -2.3175    1.7103    1.0503 H   0  0  0  0  0  0  0  0  0  0  0  0
  1  2  1  0
  2  3  1  0
  3  4  1  0
  4  5  1  0
  5  6  1  0
  6  7  1  0
  7  8  1  0
  8  5  1  0
  1  9  1  0
  1 10  1  0
  1 11  1  0
  2 12  1  0
  2 13  1  0
  4 14  1  0
  4 15  1  0
  5 16  1  0
  6 17  1  0
  6 18  1  0
  7 19  1  0
  7 20  1  0
M  END
