
     RDKit          3D

 21 20  0  0  0  0  0  0  0  0999 V2000
    3.2586   -0.9474    0.3721 C   0  0  0  0  0  0  0  0  0  0  0  0
    2.3098    0.1986    0.6187 C   0  0  0  0  0  0  0  0  0  0  0  0
    1.0655   -0.1488    0.0595 O   0  0  0  0  0  0  0  0  0  0  0  0
   -0.0442    0.7055    0.1161 C   0  0  0  0  0  0  0  0  0  0  0  0
    0.1651    1.8081    0.7081 O   0  0  0  0  0  0  0  0  0  0  0  0
   -1.3486    0.3790   -0.4522 C   0  0  0  0  0  0  0  0  0  0  0  0
   -2.2948    1.5341   -0.2010 C   0  0  0  0  0  0  0  0  0  0  0  0
   -1.9621   -0.8677    0.1453 C   0  0  0  0  0  0  0  0  0  0  0  0
   -1.1905   -1.9939   -0.0345 O   0  0  0  0  0  0  0  0  0  0  0  0
    2.7073   -1.8788    0.0630 H   0  0  0  0  0  0  0  0  0  0  0  0
    3.7575   -1.1998    1.3296 H   0  0  0  0  0  0  0  0  0  0  0  0
    4.0545   -0.6842   -0.3460 H   0  0  0  0  0  0  0  0  0  0  0  0
    2.7328    1.0907    0.0994 H   0  0  0  0  0  0  0  0  0  0  0  0
    2.2424    0.4749    1.6917 H   0  0  0  0  0  0  0  0  0  0  0  0
   -1.3299    0.2235   -1.5529 H   0  0  0  0  0  0  0  0  0  0  0  0
   -2.6435    1.5347    0.8454 H   0  0  0  0  0  0  0  0  0  0  0  0
   -1.7423    2.4781   -0.4570 H   0  0  0  0  0  0  0  0  0  0  0  0
   -3.1387    1.4165   -0.9195 H   0  0  0  0  0  0  0  0  0  0  0  0
   -2.1715   -0.6866    1.2072 H   0  0  0  0  0  0  0  0  0  0  0  0
   -2.9471   -1.0129   -0.3730 H   0  0  0  0  0  0  0  0  0  0  0  0
   -1.4803   -2.4235   -0.8928 H   0  0  0  0  0  0  0  0  0  0  0  0
  1  2  1  0
  2  3  1  0
  3  4  1  0
  4  5  2  0
  4  6  1  0
  6  7  1  0
  6  8  1  0
  8  9  1  0
  1 10  1  0
  1 11  1  0
  1 12  1  0
  2 13  1  0
  2 14  1  0
  6 15  1  0
  7 16  1  0
  7 17  1  0
  7 18  1  0
  8 19  1  0
  8 20  1  0
  9 21  1  0
M  END
