
     RDKit          3D

 23 24  0  0  0  0  0  0  0  0999 V2000
    3.2511    0.3508   -0.2975 C   0  0  0  0  0  0  0  0  0  0  0  0
    1.7626    0.5416   -0.5768 C   0  0  0  0  0  0  0  0  0  0  0  0
    1.0530   -0.0437    0.4050 O   0  0  0  0  0  0  0  0  0  0  0  0
   -0.2675   -0.0300    0.4136 C   0  0  0  0  0  0  0  0  0  0  0  0
   -0.9702    1.3047    0.4471 C   0  0  0  0  0  0  0  0  0  0  0  0
   -2.0922    0.6596   -0.3660 C   0  0  0  0  0  0  0  0  0  0  0  0
   -1.1200   -0.4487   -0.6990 C   0  0  0  0  0  0  0  0  0  0  0  0
   -1.5065   -1.7164    0.0150 C   0  0  0  0  0  0  0  0  0  0  0  0
   -0.8891   -1.1022    1.2753 C   0  0  0  0  0  0  0  0  0  0  0  0
    3.7891    1.3207   -0.2708 H   0  0  0  0  0  0  0  0  0  0  0  0
    3.4036   -0.0941    0.7240 H   0  0  0  0  0  0  0  0  0  0  0  0
    3.7134   -0.3344   -1.0370 H   0  0  0  0  0  0  0  0  0  0  0  0
    1.5761    1.6462   -0.5557 H   0  0  0  0  0  0  0  0  0  0  0  0
    1.5482    0.2186   -1.6076 H   0  0  0  0  0  0  0  0  0  0  0  0
   -0.4365    2.0186   -0.2061 H   0  0  0  0  0  0  0  0  0  0  0  0
   -1.2708    1.6747    1.4333 H   0  0  0  0  0  0  0  0  0  0  0  0
   -2.9095    0.3625    0.3411 H   0  0  0  0  0  0  0  0  0  0  0  0
   -2.4634    1.2497   -1.2037 H   0  0  0  0  0  0  0  0  0  0  0  0
   -0.7605   -0.5186   -1.7057 H   0  0  0  0  0  0  0  0  0  0  0  0
   -2.6060   -1.8592    0.0883 H   0  0  0  0  0  0  0  0  0  0  0  0
   -0.9999   -2.6378   -0.3335 H   0  0  0  0  0  0  0  0  0  0  0  0
   -1.6213   -0.7311    2.0053 H   0  0  0  0  0  0  0  0  0  0  0  0
   -0.1837   -1.8313    1.7116 H   0  0  0  0  0  0  0  0  0  0  0  0
  1  2  1  0
  2  3  1  0
  3  4  1  0
  4  5  1  0
  5  6  1  0
  6  7  1  0
  7  8  1  0
  8  9  1  0
  7  4  1  0
  9  4  1  0
  1 10  1  0
  1 11  1  0
  1 12  1  0
  2 13  1  0
  2 14  1  0
  5 15  1  0
  5 16  1  0
  6 17  1  0
  6 18  1  0
  7 19  1  0
  8 20  1  0
  8 21  1  0
  9 22  1  0
  9 23  1  0
M  END
