
     RDKit          3D

 22 21  0  0  0  0  0  0  0  0999 V2000
    2.3569    0.1557   -0.4515 C   0  0  0  0  0  0  0  0  0  0  0  0
    1.4489    1.1554    0.2108 C   0  0  0  0  0  0  0  0  0  0  0  0
    0.4535    0.5420    0.8534 O   0  0  0  0  0  0  0  0  0  0  0  0
   -0.4667   -0.2258    0.2904 C   0  0  0  0  0  0  0  0  0  0  0  0
   -1.4146   -0.6708    1.4347 C   0  0  0  0  0  0  0  0  0  0  0  0
   -0.1104   -1.4746   -0.4208 C   0  0  0  0  0  0  0  0  0  0  0  0
   -1.2857    0.6339   -0.6845 C   0  0  0  0  0  0  0  0  0  0  0  0
   -1.9102    1.6822   -0.0332 O   0  0  0  0  0  0  0  0  0  0  0  0
    2.2173    0.1496   -1.5519 H   0  0  0  0  0  0  0  0  0  0  0  0
    2.3228   -0.8484    0.0132 H   0  0  0  0  0  0  0  0  0  0  0  0
    3.4453    0.4617   -0.3309 H   0  0  0  0  0  0  0  0  0  0  0  0
    2.0931    1.6637    0.9951 H   0  0  0  0  0  0  0  0  0  0  0  0
    1.1621    1.9845   -0.4687 H   0  0  0  0  0  0  0  0  0  0  0  0
   -2.3928   -0.9140    1.0257 H   0  0  0  0  0  0  0  0  0  0  0  0
   -0.9450   -1.5718    1.8861 H   0  0  0  0  0  0  0  0  0  0  0  0
   -1.4290    0.1004    2.2359 H   0  0  0  0  0  0  0  0  0  0  0  0
    0.4181   -2.2336    0.2220 H   0  0  0  0  0  0  0  0  0  0  0  0
    0.4437   -1.3976   -1.3497 H   0  0  0  0  0  0  0  0  0  0  0  0
   -1.0613   -2.0395   -0.6963 H   0  0  0  0  0  0  0  0  0  0  0  0
   -2.0027   -0.0051   -1.2349 H   0  0  0  0  0  0  0  0  0  0  0  0
   -0.5667    1.0173   -1.4208 H   0  0  0  0  0  0  0  0  0  0  0  0
   -2.7763    1.8346   -0.5239 H   0  0  0  0  0  0  0  0  0  0  0  0
  1  2  1  0
  2  3  1  0
  3  4  1  0
  4  5  1  0
  4  6  1  0
  4  7  1  0
  7  8  1  0
  1  9  1  0
  1 10  1  0
  1 11  1  0
  2 12  1  0
  2 13  1  0
  5 14  1  0
  5 15  1  0
  5 16  1  0
  6 17  1  0
  6 18  1  0
  6 19  1  0
  7 20  1  0
  7 21  1  0
  8 22  1  0
M  END
