
     RDKit          3D

 25 25  0  0  0  0  0  0  0  0999 V2000
    2.8735   -0.3801    0.1147 C   0  0  0  0  0  0  0  0  0  0  0  0
    2.1523   -1.2841   -0.8630 C   0  0  0  0  0  0  0  0  0  0  0  0
    1.0588   -0.6228   -1.3413 O   0  0  0  0  0  0  0  0  0  0  0  0
    0.1225   -0.2309   -0.4606 C   0  0  0  0  0  0  0  0  0  0  0  0
   -0.0564    1.2523   -0.4012 C   0  0  0  0  0  0  0  0  0  0  0  0
   -1.2704    1.7356    0.2806 C   0  0  0  0  0  0  0  0  0  0  0  0
   -2.0176    0.7596    1.1138 C   0  0  0  0  0  0  0  0  0  0  0  0
   -1.9459   -0.6684    0.6852 C   0  0  0  0  0  0  0  0  0  0  0  0
   -1.2389   -0.8594   -0.6437 C   0  0  0  0  0  0  0  0  0  0  0  0
    3.0210    0.6385   -0.2894 H   0  0  0  0  0  0  0  0  0  0  0  0
    2.4133   -0.3650    1.1180 H   0  0  0  0  0  0  0  0  0  0  0  0
    3.9182   -0.7755    0.2784 H   0  0  0  0  0  0  0  0  0  0  0  0
    2.8710   -1.6184   -1.5986 H   0  0  0  0  0  0  0  0  0  0  0  0
    1.8626   -2.1973   -0.2643 H   0  0  0  0  0  0  0  0  0  0  0  0
    0.4638   -0.5559    0.5673 H   0  0  0  0  0  0  0  0  0  0  0  0
    0.8849    1.6659    0.0664 H   0  0  0  0  0  0  0  0  0  0  0  0
   -0.0387    1.6821   -1.4462 H   0  0  0  0  0  0  0  0  0  0  0  0
   -0.9899    2.6117    0.9189 H   0  0  0  0  0  0  0  0  0  0  0  0
   -2.0045    2.1744   -0.4581 H   0  0  0  0  0  0  0  0  0  0  0  0
   -3.1053    1.0302    1.1465 H   0  0  0  0  0  0  0  0  0  0  0  0
   -1.6879    0.7955    2.1747 H   0  0  0  0  0  0  0  0  0  0  0  0
   -1.3717   -1.3022    1.4152 H   0  0  0  0  0  0  0  0  0  0  0  0
   -2.9353   -1.1620    0.5852 H   0  0  0  0  0  0  0  0  0  0  0  0
   -1.1413   -1.9559   -0.7900 H   0  0  0  0  0  0  0  0  0  0  0  0
   -1.8383   -0.3677   -1.4167 H   0  0  0  0  0  0  0  0  0  0  0  0
  1  2  1  0
  2  3  1  0
  3  4  1  0
  4  5  1  0
  5  6  1  0
  6  7  1  0
  7  8  1  0
  8  9  1  0
  9  4  1  0
  1 10  1  0
  1 11  1  0
  1 12  1  0
  2 13  1  0
  2 14  1  0
  4 15  1  0
  5 16  1  0
  5 17  1  0
  6 18  1  0
  6 19  1  0
  7 20  1  0
  7 21  1  0
  8 22  1  0
  8 23  1  0
  9 24  1  0
  9 25  1  0
M  END
