
     RDKit          3D

 23 24  0  0  0  0  0  0  0  0999 V2000
   -3.4142    0.6456    0.1790 C   0  0  0  0  0  0  0  0  0  0  0  0
   -2.8831   -0.6952   -0.2567 C   0  0  0  0  0  0  0  0  0  0  0  0
   -1.6185   -0.6125   -0.8357 O   0  0  0  0  0  0  0  0  0  0  0  0
   -0.7693   -0.0747    0.1253 C   0  0  0  0  0  0  0  0  0  0  0  0
    0.6556    0.0613   -0.4071 C   0  0  0  0  0  0  0  0  0  0  0  0
    1.6439    0.5682    0.3783 C   0  0  0  0  0  0  0  0  0  0  0  0
    3.0631    0.7840   -0.0947 C   0  0  0  0  0  0  0  0  0  0  0  0
    3.1279   -0.5913    0.5037 C   0  0  0  0  0  0  0  0  0  0  0  0
    1.7024   -0.8323    0.1943 C   0  0  0  0  0  0  0  0  0  0  0  0
   -3.3008    0.7256    1.2997 H   0  0  0  0  0  0  0  0  0  0  0  0
   -4.5289    0.6142    0.0174 H   0  0  0  0  0  0  0  0  0  0  0  0
   -2.9658    1.4961   -0.3428 H   0  0  0  0  0  0  0  0  0  0  0  0
   -2.7749   -1.3863    0.6297 H   0  0  0  0  0  0  0  0  0  0  0  0
   -3.6098   -1.2182   -0.9287 H   0  0  0  0  0  0  0  0  0  0  0  0
   -1.1135    0.9610    0.3236 H   0  0  0  0  0  0  0  0  0  0  0  0
   -0.8127   -0.6731    1.0485 H   0  0  0  0  0  0  0  0  0  0  0  0
    0.6473    0.2559   -1.5158 H   0  0  0  0  0  0  0  0  0  0  0  0
    1.4644    0.9316    1.4326 H   0  0  0  0  0  0  0  0  0  0  0  0
    3.6040    1.5813    0.4592 H   0  0  0  0  0  0  0  0  0  0  0  0
    3.0893    0.8523   -1.1860 H   0  0  0  0  0  0  0  0  0  0  0  0
    3.3015   -0.4917    1.6139 H   0  0  0  0  0  0  0  0  0  0  0  0
    3.9049   -1.1838    0.0272 H   0  0  0  0  0  0  0  0  0  0  0  0
    1.5870   -1.7180   -0.3449 H   0  0  0  0  0  0  0  0  0  0  0  0
  1  2  1  0
  2  3  1  0
  3  4  1  0
  4  5  1  0
  5  6  1  0
  6  7  1  0
  7  8  1  0
  8  9  1  0
  9  5  1  0
  9  6  1  0
  1 10  1  0
  1 11  1  0
  1 12  1  0
  2 13  1  0
  2 14  1  0
  4 15  1  0
  4 16  1  0
  5 17  1  0
  6 18  1  0
  7 19  1  0
  7 20  1  0
  8 21  1  0
  8 22  1  0
  9 23  1  0
M  END
