
     RDKit          3D

 21 20  0  0  0  0  0  0  0  0999 V2000
    3.1299   -0.3931   -1.3085 C   0  0  0  0  0  0  0  0  0  0  0  0
    1.8752   -0.4211   -0.4983 C   0  0  0  0  0  0  0  0  0  0  0  0
    0.9199    0.4885   -0.9343 O   0  0  0  0  0  0  0  0  0  0  0  0
   -0.1920    0.3225   -0.0566 C   0  0  0  0  0  0  0  0  0  0  0  0
   -0.3985    1.6120    0.6415 C   0  0  0  0  0  0  0  0  0  0  0  0
   -1.2103    1.8324    1.5147 O   0  0  0  0  0  0  0  0  0  0  0  0
   -1.4035   -0.0580   -0.8357 C   0  0  0  0  0  0  0  0  0  0  0  0
   -2.5733   -0.2508    0.0823 C   0  0  0  0  0  0  0  0  0  0  0  0
   -2.2712   -1.2508    1.0278 O   0  0  0  0  0  0  0  0  0  0  0  0
    3.4232    0.6559   -1.5342 H   0  0  0  0  0  0  0  0  0  0  0  0
    3.9494   -0.8098   -0.6528 H   0  0  0  0  0  0  0  0  0  0  0  0
    3.0527   -0.9382   -2.2682 H   0  0  0  0  0  0  0  0  0  0  0  0
    1.3829   -1.4340   -0.5705 H   0  0  0  0  0  0  0  0  0  0  0  0
    2.1062   -0.1716    0.5557 H   0  0  0  0  0  0  0  0  0  0  0  0
    0.0558   -0.4557    0.6697 H   0  0  0  0  0  0  0  0  0  0  0  0
    0.2473    2.4678    0.3447 H   0  0  0  0  0  0  0  0  0  0  0  0
   -1.2724   -0.9936   -1.4207 H   0  0  0  0  0  0  0  0  0  0  0  0
   -1.6193    0.8096   -1.5295 H   0  0  0  0  0  0  0  0  0  0  0  0
   -2.8534    0.6844    0.5802 H   0  0  0  0  0  0  0  0  0  0  0  0
   -3.4763   -0.5976   -0.5277 H   0  0  0  0  0  0  0  0  0  0  0  0
   -2.8724   -1.0990    1.8087 H   0  0  0  0  0  0  0  0  0  0  0  0
  1  2  1  0
  2  3  1  0
  3  4  1  0
  4  5  1  0
  5  6  2  0
  4  7  1  0
  7  8  1  0
  8  9  1  0
  1 10  1  0
  1 11  1  0
  1 12  1  0
  2 13  1  0
  2 14  1  0
  4 15  1  0
  5 16  1  0
  7 17  1  0
  7 18  1  0
  8 19  1  0
  8 20  1  0
  9 21  1  0
M  END
