
     RDKit          3D

 21 22  0  0  0  0  0  0  0  0999 V2000
    3.1309    0.4303   -0.5669 C   0  0  0  0  0  0  0  0  0  0  0  0
    1.8566   -0.1717    0.0374 C   0  0  0  0  0  0  0  0  0  0  0  0
    0.8119    0.6381   -0.3382 O   0  0  0  0  0  0  0  0  0  0  0  0
   -0.4195    0.2536    0.1138 C   0  0  0  0  0  0  0  0  0  0  0  0
   -0.7626    0.1270    1.5453 C   0  0  0  0  0  0  0  0  0  0  0  0
   -0.5876   -1.0919    0.7322 C   0  0  0  0  0  0  0  0  0  0  0  0
   -1.4778   -1.4187   -0.2777 O   0  0  0  0  0  0  0  0  0  0  0  0
   -1.4991   -0.1419   -0.8578 C   0  0  0  0  0  0  0  0  0  0  0  0
   -2.8538    0.4861   -0.6102 C   0  0  0  0  0  0  0  0  0  0  0  0
    2.8704    1.0487   -1.4272 H   0  0  0  0  0  0  0  0  0  0  0  0
    3.7754   -0.4464   -0.8662 H   0  0  0  0  0  0  0  0  0  0  0  0
    3.6292    1.0275    0.2112 H   0  0  0  0  0  0  0  0  0  0  0  0
    2.0099   -0.2431    1.1315 H   0  0  0  0  0  0  0  0  0  0  0  0
    1.7046   -1.1921   -0.3675 H   0  0  0  0  0  0  0  0  0  0  0  0
    0.0432    0.3549    2.2580 H   0  0  0  0  0  0  0  0  0  0  0  0
   -1.7697    0.4049    1.9156 H   0  0  0  0  0  0  0  0  0  0  0  0
    0.2532   -1.7509    0.9531 H   0  0  0  0  0  0  0  0  0  0  0  0
   -1.1227   -0.0828   -1.8867 H   0  0  0  0  0  0  0  0  0  0  0  0
   -3.5462    0.0389   -1.3638 H   0  0  0  0  0  0  0  0  0  0  0  0
   -3.1757    0.1613    0.4092 H   0  0  0  0  0  0  0  0  0  0  0  0
   -2.8704    1.5683   -0.7451 H   0  0  0  0  0  0  0  0  0  0  0  0
  1  2  1  0
  2  3  1  0
  3  4  1  0
  4  5  1  0
  5  6  1  0
  6  7  1  0
  7  8  1  0
  8  9  1  0
  6  4  1  0
  8  4  1  0
  1 10  1  0
  1 11  1  0
  1 12  1  0
  2 13  1  0
  2 14  1  0
  5 15  1  0
  5 16  1  0
  6 17  1  0
  8 18  1  0
  9 19  1  0
  9 20  1  0
  9 21  1  0
M  END
