
     RDKit          3D

 21 21  0  0  0  0  0  0  0  0999 V2000
    3.3223   -0.0685    0.1783 C   0  0  0  0  0  0  0  0  0  0  0  0
    1.9799    0.5375   -0.1798 C   0  0  0  0  0  0  0  0  0  0  0  0
    1.0068   -0.2729    0.3112 O   0  0  0  0  0  0  0  0  0  0  0  0
   -0.2743    0.0765    0.1068 C   0  0  0  0  0  0  0  0  0  0  0  0
   -1.0914   -0.9323   -0.6866 C   0  0  0  0  0  0  0  0  0  0  0  0
   -2.4929   -0.3534   -0.5428 C   0  0  0  0  0  0  0  0  0  0  0  0
   -2.4494    0.5157    0.6662 C   0  0  0  0  0  0  0  0  0  0  0  0
   -3.3315    1.2710    0.9903 O   0  0  0  0  0  0  0  0  0  0  0  0
   -1.1375    0.2326    1.3202 C   0  0  0  0  0  0  0  0  0  0  0  0
    3.7081    0.2938    1.1509 H   0  0  0  0  0  0  0  0  0  0  0  0
    4.0338    0.1542   -0.6575 H   0  0  0  0  0  0  0  0  0  0  0  0
    3.1971   -1.1629    0.2258 H   0  0  0  0  0  0  0  0  0  0  0  0
    1.9056    0.5406   -1.2949 H   0  0  0  0  0  0  0  0  0  0  0  0
    1.9192    1.5938    0.1309 H   0  0  0  0  0  0  0  0  0  0  0  0
   -0.3410    1.0340   -0.4679 H   0  0  0  0  0  0  0  0  0  0  0  0
   -1.1185   -1.9188   -0.1721 H   0  0  0  0  0  0  0  0  0  0  0  0
   -0.7599   -0.9764   -1.7222 H   0  0  0  0  0  0  0  0  0  0  0  0
   -2.7292    0.2259   -1.4564 H   0  0  0  0  0  0  0  0  0  0  0  0
   -3.2449   -1.1399   -0.3394 H   0  0  0  0  0  0  0  0  0  0  0  0
   -0.8246    1.0653    1.9807 H   0  0  0  0  0  0  0  0  0  0  0  0
   -1.2778   -0.7158    1.8810 H   0  0  0  0  0  0  0  0  0  0  0  0
  1  2  1  0
  2  3  1  0
  3  4  1  0
  4  5  1  0
  5  6  1  0
  6  7  1  0
  7  8  2  0
  7  9  1  0
  9  4  1  0
  1 10  1  0
  1 11  1  0
  1 12  1  0
  2 13  1  0
  2 14  1  0
  4 15  1  0
  5 16  1  0
  5 17  1  0
  6 18  1  0
  6 19  1  0
  9 20  1  0
  9 21  1  0
M  END
