
     RDKit          3D

 23 24  0  0  0  0  0  0  0  0999 V2000
    2.9461    0.8811    0.2784 C   0  0  0  0  0  0  0  0  0  0  0  0
    1.7441    0.0019    0.0298 C   0  0  0  0  0  0  0  0  0  0  0  0
    0.6539    0.5620    0.6797 O   0  0  0  0  0  0  0  0  0  0  0  0
   -0.5066   -0.1542    0.5252 C   0  0  0  0  0  0  0  0  0  0  0  0
   -0.6196   -1.5743    0.9850 C   0  0  0  0  0  0  0  0  0  0  0  0
   -1.0206   -1.9635   -0.4239 C   0  0  0  0  0  0  0  0  0  0  0  0
   -1.0633   -0.5079   -0.7906 C   0  0  0  0  0  0  0  0  0  0  0  0
   -1.7710    0.4816    0.0484 C   0  0  0  0  0  0  0  0  0  0  0  0
   -1.7522    1.9021   -0.4333 C   0  0  0  0  0  0  0  0  0  0  0  0
    2.9706    1.2945    1.3112 H   0  0  0  0  0  0  0  0  0  0  0  0
    3.0169    1.7171   -0.4330 H   0  0  0  0  0  0  0  0  0  0  0  0
    3.9087    0.3025    0.1807 H   0  0  0  0  0  0  0  0  0  0  0  0
    1.5466    0.0429   -1.0801 H   0  0  0  0  0  0  0  0  0  0  0  0
    1.9079   -1.0526    0.2706 H   0  0  0  0  0  0  0  0  0  0  0  0
   -1.4831   -1.6744    1.6957 H   0  0  0  0  0  0  0  0  0  0  0  0
    0.3029   -2.0495    1.3615 H   0  0  0  0  0  0  0  0  0  0  0  0
   -0.2162   -2.5327   -0.9163 H   0  0  0  0  0  0  0  0  0  0  0  0
   -2.0002   -2.4987   -0.4767 H   0  0  0  0  0  0  0  0  0  0  0  0
   -0.5877   -0.1516   -1.7200 H   0  0  0  0  0  0  0  0  0  0  0  0
   -2.6789    0.1847    0.6316 H   0  0  0  0  0  0  0  0  0  0  0  0
   -0.7127    2.1955   -0.6325 H   0  0  0  0  0  0  0  0  0  0  0  0
   -2.3539    1.9839   -1.3827 H   0  0  0  0  0  0  0  0  0  0  0  0
   -2.2317    2.6096    0.2916 H   0  0  0  0  0  0  0  0  0  0  0  0
  1  2  1  0
  2  3  1  0
  3  4  1  0
  4  5  1  0
  5  6  1  0
  6  7  1  0
  7  8  1  0
  8  9  1  0
  7  4  1  0
  8  4  1  0
  1 10  1  0
  1 11  1  0
  1 12  1  0
  2 13  1  0
  2 14  1  0
  5 15  1  0
  5 16  1  0
  6 17  1  0
  6 18  1  0
  7 19  1  0
  8 20  1  0
  9 21  1  0
  9 22  1  0
  9 23  1  0
M  END
