
     RDKit          3D

 23 23  0  0  0  0  0  0  0  0999 V2000
    3.6917    0.5171   -0.5812 C   0  0  0  0  0  0  0  0  0  0  0  0
    2.5021   -0.2075   -0.0110 C   0  0  0  0  0  0  0  0  0  0  0  0
    1.2981    0.2369   -0.5599 O   0  0  0  0  0  0  0  0  0  0  0  0
    0.2930   -0.4836    0.0252 C   0  0  0  0  0  0  0  0  0  0  0  0
   -1.0862   -0.1435   -0.4421 C   0  0  0  0  0  0  0  0  0  0  0  0
   -1.2670   -0.3389   -1.7874 O   0  0  0  0  0  0  0  0  0  0  0  0
   -2.1736   -0.8225    0.3649 C   0  0  0  0  0  0  0  0  0  0  0  0
   -2.9512    0.4675    0.3072 C   0  0  0  0  0  0  0  0  0  0  0  0
   -1.6432    1.1782    0.0056 C   0  0  0  0  0  0  0  0  0  0  0  0
    3.4338    1.1895   -1.4213 H   0  0  0  0  0  0  0  0  0  0  0  0
    4.1454    1.1021    0.2508 H   0  0  0  0  0  0  0  0  0  0  0  0
    4.4390   -0.2287   -0.9054 H   0  0  0  0  0  0  0  0  0  0  0  0
    2.5659   -1.3058   -0.2418 H   0  0  0  0  0  0  0  0  0  0  0  0
    2.4163   -0.0911    1.0962 H   0  0  0  0  0  0  0  0  0  0  0  0
    0.4765   -1.5637   -0.1487 H   0  0  0  0  0  0  0  0  0  0  0  0
    0.3054   -0.3366    1.1393 H   0  0  0  0  0  0  0  0  0  0  0  0
   -1.8979   -1.1051   -1.9462 H   0  0  0  0  0  0  0  0  0  0  0  0
   -2.6541   -1.6878   -0.1275 H   0  0  0  0  0  0  0  0  0  0  0  0
   -1.8874   -1.0504    1.4033 H   0  0  0  0  0  0  0  0  0  0  0  0
   -3.6978    0.4946   -0.5026 H   0  0  0  0  0  0  0  0  0  0  0  0
   -3.4133    0.7367    1.2710 H   0  0  0  0  0  0  0  0  0  0  0  0
   -1.1945    1.5170    0.9567 H   0  0  0  0  0  0  0  0  0  0  0  0
   -1.7011    1.9257   -0.8060 H   0  0  0  0  0  0  0  0  0  0  0  0
  1  2  1  0
  2  3  1  0
  3  4  1  0
  4  5  1  0
  5  6  1  0
  5  7  1  0
  7  8  1  0
  8  9  1  0
  9  5  1  0
  1 10  1  0
  1 11  1  0
  1 12  1  0
  2 13  1  0
  2 14  1  0
  4 15  1  0
  4 16  1  0
  6 17  1  0
  7 18  1  0
  7 19  1  0
  8 20  1  0
  8 21  1  0
  9 22  1  0
  9 23  1  0
M  END
