
     RDKit          3D

 17 16  0  0  0  0  0  0  0  0999 V2000
   -2.3377    0.1335   -0.2077 C   0  0  0  0  0  0  0  0  0  0  0  0
   -1.2240    0.5330   -1.1329 C   0  0  0  0  0  0  0  0  0  0  0  0
   -0.0375   -0.1680   -0.8720 O   0  0  0  0  0  0  0  0  0  0  0  0
    0.3265    0.1190    0.4328 C   0  0  0  0  0  0  0  0  0  0  0  0
    1.5872   -0.5639    0.8610 C   0  0  0  0  0  0  0  0  0  0  0  0
    2.7575   -0.2091    0.0529 C   0  0  0  0  0  0  0  0  0  0  0  0
    3.8396   -0.7026    0.3072 O   0  0  0  0  0  0  0  0  0  0  0  0
   -3.3415    0.1984   -0.7051 H   0  0  0  0  0  0  0  0  0  0  0  0
   -2.3740    0.7739    0.7041 H   0  0  0  0  0  0  0  0  0  0  0  0
   -2.2005   -0.9367    0.0541 H   0  0  0  0  0  0  0  0  0  0  0  0
   -1.0678    1.6319   -1.0269 H   0  0  0  0  0  0  0  0  0  0  0  0
   -1.5813    0.3779   -2.1691 H   0  0  0  0  0  0  0  0  0  0  0  0
   -0.4988   -0.2950    1.0817 H   0  0  0  0  0  0  0  0  0  0  0  0
    0.3206    1.2098    0.6287 H   0  0  0  0  0  0  0  0  0  0  0  0
    1.3889   -1.6672    0.8251 H   0  0  0  0  0  0  0  0  0  0  0  0
    1.7394   -0.3347    1.9395 H   0  0  0  0  0  0  0  0  0  0  0  0
    2.7034    0.4829   -0.7734 H   0  0  0  0  0  0  0  0  0  0  0  0
  1  2  1  0
  2  3  1  0
  3  4  1  0
  4  5  1  0
  5  6  1  0
  6  7  2  0
  1  8  1  0
  1  9  1  0
  1 10  1  0
  2 11  1  0
  2 12  1  0
  4 13  1  0
  4 14  1  0
  5 15  1  0
  5 16  1  0
  6 17  1  0
M  END
