
     RDKit          3D

 22 22  0  0  0  0  0  0  0  0999 V2000
    2.8831    0.0291    0.4627 C   0  0  0  0  0  0  0  0  0  0  0  0
    2.3920   -0.6988   -0.7541 C   0  0  0  0  0  0  0  0  0  0  0  0
    1.0480   -0.9868   -0.7363 O   0  0  0  0  0  0  0  0  0  0  0  0
    0.3182    0.1907   -0.6490 C   0  0  0  0  0  0  0  0  0  0  0  0
   -1.1707   -0.0625   -0.6254 C   0  0  0  0  0  0  0  0  0  0  0  0
   -1.6798   -0.9012    0.5033 C   0  0  0  0  0  0  0  0  0  0  0  0
   -2.7994    0.1344    0.6779 C   0  0  0  0  0  0  0  0  0  0  0  0
   -1.8542    1.1391    0.0443 C   0  0  0  0  0  0  0  0  0  0  0  0
    3.8945   -0.3821    0.7356 H   0  0  0  0  0  0  0  0  0  0  0  0
    2.1887   -0.0270    1.3259 H   0  0  0  0  0  0  0  0  0  0  0  0
    3.0466    1.1235    0.2497 H   0  0  0  0  0  0  0  0  0  0  0  0
    2.6095   -0.0517   -1.6531 H   0  0  0  0  0  0  0  0  0  0  0  0
    2.9556   -1.6680   -0.8609 H   0  0  0  0  0  0  0  0  0  0  0  0
    0.5063    0.8506   -1.5355 H   0  0  0  0  0  0  0  0  0  0  0  0
    0.6572    0.7724    0.2316 H   0  0  0  0  0  0  0  0  0  0  0  0
   -1.6233   -0.2719   -1.6063 H   0  0  0  0  0  0  0  0  0  0  0  0
   -2.1416   -1.8700    0.2355 H   0  0  0  0  0  0  0  0  0  0  0  0
   -1.0082   -0.9622    1.3684 H   0  0  0  0  0  0  0  0  0  0  0  0
   -3.6905   -0.1086    0.0645 H   0  0  0  0  0  0  0  0  0  0  0  0
   -3.0309    0.3604    1.7389 H   0  0  0  0  0  0  0  0  0  0  0  0
   -1.2069    1.5933    0.8109 H   0  0  0  0  0  0  0  0  0  0  0  0
   -2.2944    1.7973   -0.7028 H   0  0  0  0  0  0  0  0  0  0  0  0
  1  2  1  0
  2  3  1  0
  3  4  1  0
  4  5  1  0
  5  6  1  0
  6  7  1  0
  7  8  1  0
  8  5  1  0
  1  9  1  0
  1 10  1  0
  1 11  1  0
  2 12  1  0
  2 13  1  0
  4 14  1  0
  4 15  1  0
  5 16  1  0
  6 17  1  0
  6 18  1  0
  7 19  1  0
  7 20  1  0
  8 21  1  0
  8 22  1  0
M  END
