
     RDKit          3D

 23 23  0  0  0  0  0  0  0  0999 V2000
    2.5638   -0.9383   -0.3031 C   0  0  0  0  0  0  0  0  0  0  0  0
    2.4315    0.5039    0.0789 C   0  0  0  0  0  0  0  0  0  0  0  0
    1.1499    0.9309   -0.3201 O   0  0  0  0  0  0  0  0  0  0  0  0
    0.1755    0.1904    0.3047 C   0  0  0  0  0  0  0  0  0  0  0  0
   -0.9821    1.0377    0.8390 C   0  0  0  0  0  0  0  0  0  0  0  0
   -1.3552    0.7857    2.1431 O   0  0  0  0  0  0  0  0  0  0  0  0
   -1.1832    0.0301   -0.2343 C   0  0  0  0  0  0  0  0  0  0  0  0
   -1.5819    0.5782   -1.5811 C   0  0  0  0  0  0  0  0  0  0  0  0
   -1.9024   -1.2505    0.1363 C   0  0  0  0  0  0  0  0  0  0  0  0
    1.6151   -1.3602   -0.6814 H   0  0  0  0  0  0  0  0  0  0  0  0
    3.3515   -1.0068   -1.0822 H   0  0  0  0  0  0  0  0  0  0  0  0
    2.8626   -1.5847    0.5575 H   0  0  0  0  0  0  0  0  0  0  0  0
    3.2201    1.1560   -0.2890 H   0  0  0  0  0  0  0  0  0  0  0  0
    2.4398    0.5377    1.2081 H   0  0  0  0  0  0  0  0  0  0  0  0
    0.5572   -0.6035    1.0046 H   0  0  0  0  0  0  0  0  0  0  0  0
   -1.0242    2.1070    0.5598 H   0  0  0  0  0  0  0  0  0  0  0  0
   -1.0753    1.5365    2.7064 H   0  0  0  0  0  0  0  0  0  0  0  0
   -2.5049    1.1924   -1.4876 H   0  0  0  0  0  0  0  0  0  0  0  0
   -1.8666   -0.2793   -2.2553 H   0  0  0  0  0  0  0  0  0  0  0  0
   -0.8120    1.2009   -2.0477 H   0  0  0  0  0  0  0  0  0  0  0  0
   -1.1089   -2.0410    0.2845 H   0  0  0  0  0  0  0  0  0  0  0  0
   -2.5538   -1.6256   -0.6537 H   0  0  0  0  0  0  0  0  0  0  0  0
   -2.4164   -1.0975    1.1125 H   0  0  0  0  0  0  0  0  0  0  0  0
  1  2  1  0
  2  3  1  0
  3  4  1  0
  4  5  1  0
  5  6  1  0
  5  7  1  0
  7  8  1  0
  7  9  1  0
  7  4  1  0
  1 10  1  0
  1 11  1  0
  1 12  1  0
  2 13  1  0
  2 14  1  0
  4 15  1  0
  5 16  1  0
  6 17  1  0
  8 18  1  0
  8 19  1  0
  8 20  1  0
  9 21  1  0
  9 22  1  0
  9 23  1  0
M  END
