
     RDKit          3D

 20 21  0  0  0  0  0  0  0  0999 V2000
    2.9658    0.5294   -0.3913 C   0  0  0  0  0  0  0  0  0  0  0  0
    1.6397   -0.1627   -0.1503 C   0  0  0  0  0  0  0  0  0  0  0  0
    0.6282    0.3874   -0.8953 O   0  0  0  0  0  0  0  0  0  0  0  0
   -0.5611   -0.2451   -0.6691 C   0  0  0  0  0  0  0  0  0  0  0  0
   -1.8176    0.1670   -1.3607 C   0  0  0  0  0  0  0  0  0  0  0  0
   -2.3430    0.6487   -0.0229 C   0  0  0  0  0  0  0  0  0  0  0  0
   -1.1719    0.0770    0.7138 C   0  0  0  0  0  0  0  0  0  0  0  0
   -0.7456   -1.2988    0.3484 C   0  0  0  0  0  0  0  0  0  0  0  0
    3.8095   -0.2001   -0.4545 H   0  0  0  0  0  0  0  0  0  0  0  0
    3.2245    1.2417    0.4152 H   0  0  0  0  0  0  0  0  0  0  0  0
    2.9235    1.1405   -1.3284 H   0  0  0  0  0  0  0  0  0  0  0  0
    1.4608   -0.0853    0.9464 H   0  0  0  0  0  0  0  0  0  0  0  0
    1.7774   -1.2243   -0.4714 H   0  0  0  0  0  0  0  0  0  0  0  0
   -2.3959   -0.7462   -1.6656 H   0  0  0  0  0  0  0  0  0  0  0  0
   -1.7479    0.9197   -2.1446 H   0  0  0  0  0  0  0  0  0  0  0  0
   -2.3334    1.7595   -0.0129 H   0  0  0  0  0  0  0  0  0  0  0  0
   -3.2783    0.1898    0.3012 H   0  0  0  0  0  0  0  0  0  0  0  0
   -0.6096    0.7092    1.3958 H   0  0  0  0  0  0  0  0  0  0  0  0
    0.1475   -1.7673    0.7532 H   0  0  0  0  0  0  0  0  0  0  0  0
   -1.5726   -2.0399    0.1562 H   0  0  0  0  0  0  0  0  0  0  0  0
  1  2  1  0
  2  3  1  0
  3  4  1  0
  4  5  1  0
  5  6  1  0
  6  7  1  0
  7  8  1  0
  7  4  1  0
  8  4  1  0
  1  9  1  0
  1 10  1  0
  1 11  1  0
  2 12  1  0
  2 13  1  0
  5 14  1  0
  5 15  1  0
  6 16  1  0
  6 17  1  0
  7 18  1  0
  8 19  1  0
  8 20  1  0
M  END
