
     RDKit          3D

 20 19  0  0  0  0  0  0  0  0999 V2000
    2.9375    0.9646    0.5456 C   0  0  0  0  0  0  0  0  0  0  0  0
    1.9947    0.3343   -0.4816 C   0  0  0  0  0  0  0  0  0  0  0  0
    0.8980   -0.2005    0.2114 O   0  0  0  0  0  0  0  0  0  0  0  0
    0.0007   -0.7541   -0.7041 C   0  0  0  0  0  0  0  0  0  0  0  0
   -1.2202   -1.3448   -0.0479 C   0  0  0  0  0  0  0  0  0  0  0  0
   -1.9696   -0.3713    0.7461 C   0  0  0  0  0  0  0  0  0  0  0  0
   -2.8616    0.6734    0.1788 C   0  0  0  0  0  0  0  0  0  0  0  0
   -1.8667   -0.3975    1.9815 O   0  0  0  0  0  0  0  0  0  0  0  0
    3.1351    0.1923    1.3069 H   0  0  0  0  0  0  0  0  0  0  0  0
    3.8751    1.2896    0.0990 H   0  0  0  0  0  0  0  0  0  0  0  0
    2.4128    1.8131    1.0443 H   0  0  0  0  0  0  0  0  0  0  0  0
    2.5919   -0.4473   -0.9953 H   0  0  0  0  0  0  0  0  0  0  0  0
    1.7248    1.0956   -1.2109 H   0  0  0  0  0  0  0  0  0  0  0  0
    0.5546   -1.6443   -1.1299 H   0  0  0  0  0  0  0  0  0  0  0  0
   -0.2074   -0.0864   -1.5412 H   0  0  0  0  0  0  0  0  0  0  0  0
   -1.8189   -1.8404   -0.8371 H   0  0  0  0  0  0  0  0  0  0  0  0
   -0.8666   -2.1782    0.6113 H   0  0  0  0  0  0  0  0  0  0  0  0
   -3.9206    0.3376    0.1628 H   0  0  0  0  0  0  0  0  0  0  0  0
   -2.8727    1.5558    0.8835 H   0  0  0  0  0  0  0  0  0  0  0  0
   -2.5208    1.0086   -0.8232 H   0  0  0  0  0  0  0  0  0  0  0  0
  1  2  1  0
  2  3  1  0
  3  4  1  0
  4  5  1  0
  5  6  1  0
  6  7  1  0
  6  8  2  0
  1  9  1  0
  1 10  1  0
  1 11  1  0
  2 12  1  0
  2 13  1  0
  4 14  1  0
  4 15  1  0
  5 16  1  0
  5 17  1  0
  7 18  1  0
  7 19  1  0
  7 20  1  0
M  END
