
     RDKit          3D

 23 24  0  0  0  0  0  0  0  0999 V2000
    3.0462    0.0211   -0.0788 C   0  0  0  0  0  0  0  0  0  0  0  0
    2.2087   -0.7522    0.9168 C   0  0  0  0  0  0  0  0  0  0  0  0
    0.8674   -0.3765    0.8631 O   0  0  0  0  0  0  0  0  0  0  0  0
    0.3324   -0.5984   -0.3749 C   0  0  0  0  0  0  0  0  0  0  0  0
   -0.5082    0.5463   -0.9119 C   0  0  0  0  0  0  0  0  0  0  0  0
   -1.1922    1.4291    0.1039 C   0  0  0  0  0  0  0  0  0  0  0  0
   -2.5821    0.7776    0.1433 C   0  0  0  0  0  0  0  0  0  0  0  0
   -2.1610   -0.6704    0.3718 C   0  0  0  0  0  0  0  0  0  0  0  0
   -1.0856   -0.8579   -0.6331 C   0  0  0  0  0  0  0  0  0  0  0  0
    3.4737   -0.6358   -0.8683 H   0  0  0  0  0  0  0  0  0  0  0  0
    3.9157    0.5220    0.3991 H   0  0  0  0  0  0  0  0  0  0  0  0
    2.4593    0.8357   -0.5705 H   0  0  0  0  0  0  0  0  0  0  0  0
    2.6379   -0.5699    1.9109 H   0  0  0  0  0  0  0  0  0  0  0  0
    2.3283   -1.8278    0.6696 H   0  0  0  0  0  0  0  0  0  0  0  0
    1.0457   -1.0362   -1.1250 H   0  0  0  0  0  0  0  0  0  0  0  0
   -0.4008    0.8663   -1.9496 H   0  0  0  0  0  0  0  0  0  0  0  0
   -1.2333    2.4771   -0.1772 H   0  0  0  0  0  0  0  0  0  0  0  0
   -0.7359    1.2230    1.0856 H   0  0  0  0  0  0  0  0  0  0  0  0
   -3.1843    1.1586    0.9810 H   0  0  0  0  0  0  0  0  0  0  0  0
   -3.0284    0.9286   -0.8486 H   0  0  0  0  0  0  0  0  0  0  0  0
   -1.7789   -0.7242    1.4108 H   0  0  0  0  0  0  0  0  0  0  0  0
   -3.0486   -1.3085    0.2149 H   0  0  0  0  0  0  0  0  0  0  0  0
   -1.3760   -1.4275   -1.5330 H   0  0  0  0  0  0  0  0  0  0  0  0
  1  2  1  0
  2  3  1  0
  3  4  1  0
  4  5  1  0
  5  6  1  0
  6  7  1  0
  7  8  1  0
  8  9  1  0
  9  4  1  0
  9  5  1  0
  1 10  1  0
  1 11  1  0
  1 12  1  0
  2 13  1  0
  2 14  1  0
  4 15  1  0
  5 16  1  0
  6 17  1  0
  6 18  1  0
  7 19  1  0
  7 20  1  0
  8 21  1  0
  8 22  1  0
  9 23  1  0
M  END
