
     RDKit          3D

 19 18  0  0  0  0  0  0  0  0999 V2000
    2.5253    0.2081    0.0565 C   0  0  0  0  0  0  0  0  0  0  0  0
    1.7321   -1.0389    0.3687 C   0  0  0  0  0  0  0  0  0  0  0  0
    0.5377   -1.1140   -0.3140 O   0  0  0  0  0  0  0  0  0  0  0  0
   -0.3148   -0.0499   -0.0330 C   0  0  0  0  0  0  0  0  0  0  0  0
   -0.5830    0.6742   -1.2980 C   0  0  0  0  0  0  0  0  0  0  0  0
   -0.0703    0.2803   -2.3226 O   0  0  0  0  0  0  0  0  0  0  0  0
   -1.6270   -0.5104    0.4771 C   0  0  0  0  0  0  0  0  0  0  0  0
   -2.6675    0.4686    0.8320 C   0  0  0  0  0  0  0  0  0  0  0  0
   -1.8343   -1.6922    0.5988 O   0  0  0  0  0  0  0  0  0  0  0  0
    2.1529    1.1080    0.5492 H   0  0  0  0  0  0  0  0  0  0  0  0
    3.5771   -0.0040    0.3918 H   0  0  0  0  0  0  0  0  0  0  0  0
    2.6016    0.3218   -1.0624 H   0  0  0  0  0  0  0  0  0  0  0  0
    2.3480   -1.9066    0.0541 H   0  0  0  0  0  0  0  0  0  0  0  0
    1.6161   -1.1231    1.4666 H   0  0  0  0  0  0  0  0  0  0  0  0
    0.1699    0.6568    0.7090 H   0  0  0  0  0  0  0  0  0  0  0  0
   -1.2196    1.5398   -1.3350 H   0  0  0  0  0  0  0  0  0  0  0  0
   -2.2568    1.4874    1.0224 H   0  0  0  0  0  0  0  0  0  0  0  0
   -3.4202    0.5876    0.0068 H   0  0  0  0  0  0  0  0  0  0  0  0
   -3.2672    0.1065    1.7110 H   0  0  0  0  0  0  0  0  0  0  0  0
  1  2  1  0
  2  3  1  0
  3  4  1  0
  4  5  1  0
  5  6  2  0
  4  7  1  0
  7  8  1  0
  7  9  2  0
  1 10  1  0
  1 11  1  0
  1 12  1  0
  2 13  1  0
  2 14  1  0
  4 15  1  0
  5 16  1  0
  8 17  1  0
  8 18  1  0
  8 19  1  0
M  END
