
     RDKit          3D

 19 19  0  0  0  0  0  0  0  0999 V2000
    3.1410    0.3410   -0.4253 C   0  0  0  0  0  0  0  0  0  0  0  0
    1.6854    0.3890   -0.8128 C   0  0  0  0  0  0  0  0  0  0  0  0
    0.9416   -0.0842    0.2523 O   0  0  0  0  0  0  0  0  0  0  0  0
   -0.4177   -0.0906    0.0205 C   0  0  0  0  0  0  0  0  0  0  0  0
   -1.2497   -1.2269    0.4818 C   0  0  0  0  0  0  0  0  0  0  0  0
   -2.2720   -1.7058   -0.3375 O   0  0  0  0  0  0  0  0  0  0  0  0
   -1.3869    0.1394    1.1100 C   0  0  0  0  0  0  0  0  0  0  0  0
   -2.6914    0.7921    0.8520 C   0  0  0  0  0  0  0  0  0  0  0  0
   -3.3048    1.4416    1.6743 O   0  0  0  0  0  0  0  0  0  0  0  0
    3.6275    1.2360   -0.8879 H   0  0  0  0  0  0  0  0  0  0  0  0
    3.2043    0.4758    0.6699 H   0  0  0  0  0  0  0  0  0  0  0  0
    3.6393   -0.5920   -0.7679 H   0  0  0  0  0  0  0  0  0  0  0  0
    1.3864    1.4325   -1.0370 H   0  0  0  0  0  0  0  0  0  0  0  0
    1.5444   -0.1880   -1.7432 H   0  0  0  0  0  0  0  0  0  0  0  0
   -0.6836    0.2922   -0.9997 H   0  0  0  0  0  0  0  0  0  0  0  0
   -0.8407   -2.0097    1.1548 H   0  0  0  0  0  0  0  0  0  0  0  0
   -2.1877   -1.2128   -1.2137 H   0  0  0  0  0  0  0  0  0  0  0  0
   -1.0118    0.2994    2.1418 H   0  0  0  0  0  0  0  0  0  0  0  0
   -3.1235    0.6820   -0.1324 H   0  0  0  0  0  0  0  0  0  0  0  0
  1  2  1  0
  2  3  1  0
  3  4  1  0
  4  5  1  0
  5  6  1  0
  5  7  1  0
  7  8  1  0
  8  9  2  0
  7  4  1  0
  1 10  1  0
  1 11  1  0
  1 12  1  0
  2 13  1  0
  2 14  1  0
  4 15  1  0
  5 16  1  0
  6 17  1  0
  7 18  1  0
  8 19  1  0
M  END
