
     RDKit          3D

 23 24  0  0  0  0  0  0  0  0999 V2000
    3.1497    0.1769   -0.4124 C   0  0  0  0  0  0  0  0  0  0  0  0
    1.7976   -0.1846    0.1827 C   0  0  0  0  0  0  0  0  0  0  0  0
    0.7724    0.0770   -0.7066 O   0  0  0  0  0  0  0  0  0  0  0  0
   -0.4402   -0.2556   -0.1514 C   0  0  0  0  0  0  0  0  0  0  0  0
   -0.5446   -1.7052    0.2222 C   0  0  0  0  0  0  0  0  0  0  0  0
   -1.6553    0.2919   -0.8341 C   0  0  0  0  0  0  0  0  0  0  0  0
   -2.3459    0.1598    0.4971 C   0  0  0  0  0  0  0  0  0  0  0  0
   -0.9901    0.7226    0.8435 C   0  0  0  0  0  0  0  0  0  0  0  0
   -1.2043    1.6373   -0.3285 C   0  0  0  0  0  0  0  0  0  0  0  0
    3.6016   -0.7020   -0.9293 H   0  0  0  0  0  0  0  0  0  0  0  0
    3.8535    0.4607    0.3952 H   0  0  0  0  0  0  0  0  0  0  0  0
    3.0660    1.0196   -1.1284 H   0  0  0  0  0  0  0  0  0  0  0  0
    1.6429    0.4032    1.1321 H   0  0  0  0  0  0  0  0  0  0  0  0
    1.8686   -1.2360    0.4997 H   0  0  0  0  0  0  0  0  0  0  0  0
   -0.6014   -1.8558    1.3073 H   0  0  0  0  0  0  0  0  0  0  0  0
   -1.4647   -2.1440   -0.2607 H   0  0  0  0  0  0  0  0  0  0  0  0
    0.2953   -2.3191   -0.2109 H   0  0  0  0  0  0  0  0  0  0  0  0
   -2.0182    0.0704   -1.7351 H   0  0  0  0  0  0  0  0  0  0  0  0
   -2.5739   -0.8433    0.8497 H   0  0  0  0  0  0  0  0  0  0  0  0
   -3.1726    0.9131    0.5523 H   0  0  0  0  0  0  0  0  0  0  0  0
   -0.6412    0.9509    1.7481 H   0  0  0  0  0  0  0  0  0  0  0  0
   -0.3258    2.0720   -0.7982 H   0  0  0  0  0  0  0  0  0  0  0  0
   -2.0693    2.2901   -0.1539 H   0  0  0  0  0  0  0  0  0  0  0  0
  1  2  1  0
  2  3  1  0
  3  4  1  0
  4  5  1  0
  4  6  1  0
  6  7  1  0
  7  8  1  0
  8  9  1  0
  8  4  1  0
  9  6  1  0
  1 10  1  0
  1 11  1  0
  1 12  1  0
  2 13  1  0
  2 14  1  0
  5 15  1  0
  5 16  1  0
  5 17  1  0
  6 18  1  0
  7 19  1  0
  7 20  1  0
  8 21  1  0
  9 22  1  0
  9 23  1  0
M  END
