
     RDKit          3D

 24 23  0  0  0  0  0  0  0  0999 V2000
    2.9185    0.4841   -0.2486 C   0  0  0  0  0  0  0  0  0  0  0  0
    2.4166   -0.9465   -0.1477 C   0  0  0  0  0  0  0  0  0  0  0  0
    1.1508   -1.0976   -0.6916 O   0  0  0  0  0  0  0  0  0  0  0  0
    0.2714   -0.2778   -0.0108 C   0  0  0  0  0  0  0  0  0  0  0  0
   -1.1370   -0.3692   -0.5281 C   0  0  0  0  0  0  0  0  0  0  0  0
   -1.7140   -1.7444   -0.4310 C   0  0  0  0  0  0  0  0  0  0  0  0
   -2.0042    0.5703    0.2836 C   0  0  0  0  0  0  0  0  0  0  0  0
   -1.5114    1.9777    0.1529 C   0  0  0  0  0  0  0  0  0  0  0  0
    2.6994    0.9416   -1.2301 H   0  0  0  0  0  0  0  0  0  0  0  0
    4.0267    0.4317   -0.0579 H   0  0  0  0  0  0  0  0  0  0  0  0
    2.5135    1.1120    0.5683 H   0  0  0  0  0  0  0  0  0  0  0  0
    2.4678   -1.2262    0.9247 H   0  0  0  0  0  0  0  0  0  0  0  0
    3.1744   -1.5770   -0.6619 H   0  0  0  0  0  0  0  0  0  0  0  0
    0.5911    0.7763   -0.0420 H   0  0  0  0  0  0  0  0  0  0  0  0
    0.2377   -0.5583    1.0710 H   0  0  0  0  0  0  0  0  0  0  0  0
   -1.2067   -0.0502   -1.5910 H   0  0  0  0  0  0  0  0  0  0  0  0
   -2.8223   -1.6842   -0.5385 H   0  0  0  0  0  0  0  0  0  0  0  0
   -1.3698   -2.4187   -1.2660 H   0  0  0  0  0  0  0  0  0  0  0  0
   -1.4792   -2.2212    0.5506 H   0  0  0  0  0  0  0  0  0  0  0  0
   -1.9524    0.3048    1.3700 H   0  0  0  0  0  0  0  0  0  0  0  0
   -3.0823    0.4764   -0.0212 H   0  0  0  0  0  0  0  0  0  0  0  0
   -2.3577    2.7055   -0.0035 H   0  0  0  0  0  0  0  0  0  0  0  0
   -0.9787    2.3491    1.0511 H   0  0  0  0  0  0  0  0  0  0  0  0
   -0.8521    2.0418   -0.7335 H   0  0  0  0  0  0  0  0  0  0  0  0
  1  2  1  0
  2  3  1  0
  3  4  1  0
  4  5  1  0
  5  6  1  0
  5  7  1  0
  7  8  1  0
  1  9  1  0
  1 10  1  0
  1 11  1  0
  2 12  1  0
  2 13  1  0
  4 14  1  0
  4 15  1  0
  5 16  1  0
  6 17  1  0
  6 18  1  0
  6 19  1  0
  7 20  1  0
  7 21  1  0
  8 22  1  0
  8 23  1  0
  8 24  1  0
M  END
