
     RDKit          3D

 21 22  0  0  0  0  0  0  0  0999 V2000
    2.6923   -0.0783    0.0828 C   0  0  0  0  0  0  0  0  0  0  0  0
    1.7857   -1.2674    0.2970 C   0  0  0  0  0  0  0  0  0  0  0  0
    0.5208   -0.8879    0.7506 O   0  0  0  0  0  0  0  0  0  0  0  0
   -0.0854   -0.0634   -0.1571 C   0  0  0  0  0  0  0  0  0  0  0  0
   -1.4397   -0.5281   -0.6494 C   0  0  0  0  0  0  0  0  0  0  0  0
   -1.4381   -1.0803   -1.9016 O   0  0  0  0  0  0  0  0  0  0  0  0
   -1.9158    0.8820   -0.5128 C   0  0  0  0  0  0  0  0  0  0  0  0
   -1.9993    1.3561    0.9050 C   0  0  0  0  0  0  0  0  0  0  0  0
   -0.6563    1.2191    0.3466 C   0  0  0  0  0  0  0  0  0  0  0  0
    2.7807    0.2153   -0.9770 H   0  0  0  0  0  0  0  0  0  0  0  0
    3.6947   -0.3330    0.5346 H   0  0  0  0  0  0  0  0  0  0  0  0
    2.3243    0.7946    0.6398 H   0  0  0  0  0  0  0  0  0  0  0  0
    2.2426   -2.0390    0.9504 H   0  0  0  0  0  0  0  0  0  0  0  0
    1.6261   -1.7589   -0.7077 H   0  0  0  0  0  0  0  0  0  0  0  0
    0.5648    0.1221   -1.0561 H   0  0  0  0  0  0  0  0  0  0  0  0
   -1.9403   -1.1648    0.1370 H   0  0  0  0  0  0  0  0  0  0  0  0
   -1.6941   -2.0510   -1.8103 H   0  0  0  0  0  0  0  0  0  0  0  0
   -2.1151    1.5264   -1.3565 H   0  0  0  0  0  0  0  0  0  0  0  0
   -2.3985    2.3634    1.0339 H   0  0  0  0  0  0  0  0  0  0  0  0
   -2.4313    0.6222    1.6340 H   0  0  0  0  0  0  0  0  0  0  0  0
   -0.1179    2.1508    0.0642 H   0  0  0  0  0  0  0  0  0  0  0  0
  1  2  1  0
  2  3  1  0
  3  4  1  0
  4  5  1  0
  5  6  1  0
  5  7  1  0
  7  8  1  0
  8  9  1  0
  9  4  1  0
  9  7  1  0
  1 10  1  0
  1 11  1  0
  1 12  1  0
  2 13  1  0
  2 14  1  0
  4 15  1  0
  5 16  1  0
  6 17  1  0
  7 18  1  0
  8 19  1  0
  8 20  1  0
  9 21  1  0
M  END
