
     RDKit          3D

 23 22  0  0  0  0  0  0  0  0999 V2000
   -3.3166   -0.4250    0.0843 C   0  0  0  0  0  0  0  0  0  0  0  0
   -2.0545   -1.1848    0.4564 C   0  0  0  0  0  0  0  0  0  0  0  0
   -0.9499   -0.3648    0.5605 O   0  0  0  0  0  0  0  0  0  0  0  0
   -0.7060    0.2705   -0.6364 C   0  0  0  0  0  0  0  0  0  0  0  0
    0.4753    1.1773   -0.6053 C   0  0  0  0  0  0  0  0  0  0  0  0
    0.3720    2.1975    0.3215 O   0  0  0  0  0  0  0  0  0  0  0  0
    1.7802    0.4674   -0.4330 C   0  0  0  0  0  0  0  0  0  0  0  0
    1.9299   -0.0967    0.8285 O   0  0  0  0  0  0  0  0  0  0  0  0
    3.1606   -0.7503    0.9502 C   0  0  0  0  0  0  0  0  0  0  0  0
   -3.5267   -0.5450   -1.0097 H   0  0  0  0  0  0  0  0  0  0  0  0
   -3.1747    0.6390    0.3520 H   0  0  0  0  0  0  0  0  0  0  0  0
   -4.1885   -0.7840    0.7022 H   0  0  0  0  0  0  0  0  0  0  0  0
   -2.2395   -1.6683    1.4580 H   0  0  0  0  0  0  0  0  0  0  0  0
   -1.9063   -2.0334   -0.2461 H   0  0  0  0  0  0  0  0  0  0  0  0
   -1.5927    0.8893   -0.9531 H   0  0  0  0  0  0  0  0  0  0  0  0
   -0.5380   -0.4884   -1.4246 H   0  0  0  0  0  0  0  0  0  0  0  0
    0.5233    1.6833   -1.6146 H   0  0  0  0  0  0  0  0  0  0  0  0
    0.9418    2.9530    0.0190 H   0  0  0  0  0  0  0  0  0  0  0  0
    1.9245   -0.3415   -1.1818 H   0  0  0  0  0  0  0  0  0  0  0  0
    2.6290    1.1667   -0.5770 H   0  0  0  0  0  0  0  0  0  0  0  0
    4.0092   -0.0433    0.7925 H   0  0  0  0  0  0  0  0  0  0  0  0
    3.2975   -1.1546    1.9735 H   0  0  0  0  0  0  0  0  0  0  0  0
    3.1502   -1.5639    0.1831 H   0  0  0  0  0  0  0  0  0  0  0  0
  1  2  1  0
  2  3  1  0
  3  4  1  0
  4  5  1  0
  5  6  1  0
  5  7  1  0
  7  8  1  0
  8  9  1  0
  1 10  1  0
  1 11  1  0
  1 12  1  0
  2 13  1  0
  2 14  1  0
  4 15  1  0
  4 16  1  0
  5 17  1  0
  6 18  1  0
  7 19  1  0
  7 20  1  0
  9 21  1  0
  9 22  1  0
  9 23  1  0
M  END
