
     RDKit          3D

 19 19  0  0  0  0  0  0  0  0999 V2000
    2.8953    0.1547    0.2920 C   0  0  0  0  0  0  0  0  0  0  0  0
    1.6741   -0.2073   -0.5144 C   0  0  0  0  0  0  0  0  0  0  0  0
    0.4964    0.0119    0.1616 O   0  0  0  0  0  0  0  0  0  0  0  0
   -0.5419   -0.3707   -0.7157 C   0  0  0  0  0  0  0  0  0  0  0  0
   -1.3569   -1.3279   -0.0651 O   0  0  0  0  0  0  0  0  0  0  0  0
   -1.7461   -0.5761    1.0610 C   0  0  0  0  0  0  0  0  0  0  0  0
   -2.3831    0.6259    0.3863 C   0  0  0  0  0  0  0  0  0  0  0  0
   -1.4734    0.7794   -0.8036 C   0  0  0  0  0  0  0  0  0  0  0  0
   -1.4556    1.6200   -1.6637 O   0  0  0  0  0  0  0  0  0  0  0  0
    2.9214   -0.5131    1.1931 H   0  0  0  0  0  0  0  0  0  0  0  0
    2.9717    1.2133    0.5326 H   0  0  0  0  0  0  0  0  0  0  0  0
    3.7800   -0.1403   -0.3166 H   0  0  0  0  0  0  0  0  0  0  0  0
    1.6730    0.3793   -1.4385 H   0  0  0  0  0  0  0  0  0  0  0  0
    1.7446   -1.3169   -0.7007 H   0  0  0  0  0  0  0  0  0  0  0  0
   -0.1761   -0.7312   -1.6736 H   0  0  0  0  0  0  0  0  0  0  0  0
   -2.4406   -1.1675    1.6505 H   0  0  0  0  0  0  0  0  0  0  0  0
   -0.8315   -0.2524    1.5971 H   0  0  0  0  0  0  0  0  0  0  0  0
   -2.4007    1.5147    1.0182 H   0  0  0  0  0  0  0  0  0  0  0  0
   -3.3506    0.3041   -0.0005 H   0  0  0  0  0  0  0  0  0  0  0  0
  1  2  1  0
  2  3  1  0
  3  4  1  0
  4  5  1  0
  5  6  1  0
  6  7  1  0
  7  8  1  0
  8  9  2  0
  8  4  1  0
  1 10  1  0
  1 11  1  0
  1 12  1  0
  2 13  1  0
  2 14  1  0
  4 15  1  0
  6 16  1  0
  6 17  1  0
  7 18  1  0
  7 19  1  0
M  END
