
     RDKit          3D

 25 25  0  0  0  0  0  0  0  0999 V2000
    3.7747    0.7909    0.2200 C   0  0  0  0  0  0  0  0  0  0  0  0
    2.6136   -0.1519    0.0031 C   0  0  0  0  0  0  0  0  0  0  0  0
    1.3890    0.4609    0.1592 O   0  0  0  0  0  0  0  0  0  0  0  0
    0.4008   -0.4909   -0.0611 C   0  0  0  0  0  0  0  0  0  0  0  0
   -0.6576   -0.0923   -1.0574 C   0  0  0  0  0  0  0  0  0  0  0  0
   -1.6583   -0.0412    0.0787 C   0  0  0  0  0  0  0  0  0  0  0  0
   -2.7759   -1.0566   -0.0156 C   0  0  0  0  0  0  0  0  0  0  0  0
   -2.2035    1.3419    0.3314 C   0  0  0  0  0  0  0  0  0  0  0  0
   -0.6163   -0.5063    1.0544 C   0  0  0  0  0  0  0  0  0  0  0  0
    4.7072    0.1851    0.2462 H   0  0  0  0  0  0  0  0  0  0  0  0
    3.8667    1.5231   -0.5857 H   0  0  0  0  0  0  0  0  0  0  0  0
    3.7029    1.2643    1.2292 H   0  0  0  0  0  0  0  0  0  0  0  0
    2.7724   -1.0077    0.7079 H   0  0  0  0  0  0  0  0  0  0  0  0
    2.6664   -0.5375   -1.0377 H   0  0  0  0  0  0  0  0  0  0  0  0
    0.8202   -1.4854   -0.3024 H   0  0  0  0  0  0  0  0  0  0  0  0
   -0.9027   -0.8964   -1.7808 H   0  0  0  0  0  0  0  0  0  0  0  0
   -0.5079    0.8834   -1.5582 H   0  0  0  0  0  0  0  0  0  0  0  0
   -2.4927   -1.9234   -0.6520 H   0  0  0  0  0  0  0  0  0  0  0  0
   -2.9535   -1.4201    1.0391 H   0  0  0  0  0  0  0  0  0  0  0  0
   -3.7303   -0.6013   -0.3311 H   0  0  0  0  0  0  0  0  0  0  0  0
   -1.7276    2.1195   -0.3006 H   0  0  0  0  0  0  0  0  0  0  0  0
   -3.2913    1.3650    0.0932 H   0  0  0  0  0  0  0  0  0  0  0  0
   -2.0179    1.6025    1.4054 H   0  0  0  0  0  0  0  0  0  0  0  0
   -0.7622   -1.5406    1.4591 H   0  0  0  0  0  0  0  0  0  0  0  0
   -0.4161    0.2150    1.8736 H   0  0  0  0  0  0  0  0  0  0  0  0
  1  2  1  0
  2  3  1  0
  3  4  1  0
  4  5  1  0
  5  6  1  0
  6  7  1  0
  6  8  1  0
  6  9  1  0
  9  4  1  0
  1 10  1  0
  1 11  1  0
  1 12  1  0
  2 13  1  0
  2 14  1  0
  4 15  1  0
  5 16  1  0
  5 17  1  0
  7 18  1  0
  7 19  1  0
  7 20  1  0
  8 21  1  0
  8 22  1  0
  8 23  1  0
  9 24  1  0
  9 25  1  0
M  END
