
     RDKit          3D

 20 20  0  0  0  0  0  0  0  0999 V2000
    3.0950   -0.1389   -0.1699 C   0  0  0  0  0  0  0  0  0  0  0  0
    1.5802   -0.3579   -0.3607 C   0  0  0  0  0  0  0  0  0  0  0  0
    1.0511    0.8984   -0.5823 O   0  0  0  0  0  0  0  0  0  0  0  0
   -0.3018    0.9535   -0.8153 C   0  0  0  0  0  0  0  0  0  0  0  0
   -1.0679    0.4022    0.3372 C   0  0  0  0  0  0  0  0  0  0  0  0
   -2.5987    0.4668    0.1219 C   0  0  0  0  0  0  0  0  0  0  0  0
   -2.6601   -0.6595    0.9364 O   0  0  0  0  0  0  0  0  0  0  0  0
   -1.4910   -1.0609    0.2371 C   0  0  0  0  0  0  0  0  0  0  0  0
    3.6379   -1.0778   -0.3169 H   0  0  0  0  0  0  0  0  0  0  0  0
    3.1987    0.2571    0.8646 H   0  0  0  0  0  0  0  0  0  0  0  0
    3.4112    0.6718   -0.8775 H   0  0  0  0  0  0  0  0  0  0  0  0
    1.3614   -1.1055   -1.1226 H   0  0  0  0  0  0  0  0  0  0  0  0
    1.2001   -0.7695    0.6252 H   0  0  0  0  0  0  0  0  0  0  0  0
   -0.5399    0.3431   -1.7292 H   0  0  0  0  0  0  0  0  0  0  0  0
   -0.5794    2.0203   -1.0329 H   0  0  0  0  0  0  0  0  0  0  0  0
   -0.7550    0.6845    1.3420 H   0  0  0  0  0  0  0  0  0  0  0  0
   -2.8051    0.1954   -0.9427 H   0  0  0  0  0  0  0  0  0  0  0  0
   -3.0550    1.3761    0.4983 H   0  0  0  0  0  0  0  0  0  0  0  0
   -0.8932   -1.7921    0.7662 H   0  0  0  0  0  0  0  0  0  0  0  0
   -1.7886   -1.3069   -0.8051 H   0  0  0  0  0  0  0  0  0  0  0  0
  1  2  1  0
  2  3  1  0
  3  4  1  0
  4  5  1  0
  5  6  1  0
  6  7  1  0
  7  8  1  0
  8  5  1  0
  1  9  1  0
  1 10  1  0
  1 11  1  0
  2 12  1  0
  2 13  1  0
  4 14  1  0
  4 15  1  0
  5 16  1  0
  6 17  1  0
  6 18  1  0
  8 19  1  0
  8 20  1  0
M  END
