
     RDKit          3D

 22 21  0  0  0  0  0  0  0  0999 V2000
    2.7821   -0.5163   -0.3879 C   0  0  0  0  0  0  0  0  0  0  0  0
    2.0763    0.2420    0.6900 C   0  0  0  0  0  0  0  0  0  0  0  0
    0.7040    0.0560    0.7006 O   0  0  0  0  0  0  0  0  0  0  0  0
    0.0867    0.4454   -0.4706 C   0  0  0  0  0  0  0  0  0  0  0  0
   -1.3997    0.1760   -0.2908 C   0  0  0  0  0  0  0  0  0  0  0  0
   -1.8384    0.9931    0.9060 C   0  0  0  0  0  0  0  0  0  0  0  0
   -1.5208   -1.3088   -0.0133 C   0  0  0  0  0  0  0  0  0  0  0  0
   -2.0530    0.5554   -1.4492 O   0  0  0  0  0  0  0  0  0  0  0  0
    2.2570   -1.4319   -0.6783 H   0  0  0  0  0  0  0  0  0  0  0  0
    3.0100    0.1511   -1.2487 H   0  0  0  0  0  0  0  0  0  0  0  0
    3.7944   -0.8454   -0.0112 H   0  0  0  0  0  0  0  0  0  0  0  0
    2.2792    1.3279    0.5939 H   0  0  0  0  0  0  0  0  0  0  0  0
    2.4483   -0.1571    1.6757 H   0  0  0  0  0  0  0  0  0  0  0  0
    0.1827    1.5327   -0.6597 H   0  0  0  0  0  0  0  0  0  0  0  0
    0.4045   -0.1631   -1.3418 H   0  0  0  0  0  0  0  0  0  0  0  0
   -1.3573    1.9889    0.8071 H   0  0  0  0  0  0  0  0  0  0  0  0
   -1.3982    0.5138    1.8021 H   0  0  0  0  0  0  0  0  0  0  0  0
   -2.9406    1.0873    0.9663 H   0  0  0  0  0  0  0  0  0  0  0  0
   -1.2614   -1.8642   -0.9174 H   0  0  0  0  0  0  0  0  0  0  0  0
   -0.7239   -1.5370    0.7525 H   0  0  0  0  0  0  0  0  0  0  0  0
   -2.5143   -1.5746    0.4081 H   0  0  0  0  0  0  0  0  0  0  0  0
   -3.0174    0.3287   -1.3973 H   0  0  0  0  0  0  0  0  0  0  0  0
  1  2  1  0
  2  3  1  0
  3  4  1  0
  4  5  1  0
  5  6  1  0
  5  7  1  0
  5  8  1  0
  1  9  1  0
  1 10  1  0
  1 11  1  0
  2 12  1  0
  2 13  1  0
  4 14  1  0
  4 15  1  0
  6 16  1  0
  6 17  1  0
  6 18  1  0
  7 19  1  0
  7 20  1  0
  7 21  1  0
  8 22  1  0
M  END
