
     RDKit          3D

 21 21  0  0  0  0  0  0  0  0999 V2000
    2.5388    0.7922    0.1787 C   0  0  0  0  0  0  0  0  0  0  0  0
    2.0112   -0.4696    0.7422 C   0  0  0  0  0  0  0  0  0  0  0  0
    0.6739   -0.5120    1.0010 O   0  0  0  0  0  0  0  0  0  0  0  0
   -0.1794   -0.3273   -0.0213 C   0  0  0  0  0  0  0  0  0  0  0  0
   -1.1743    0.7949    0.3143 C   0  0  0  0  0  0  0  0  0  0  0  0
   -0.7954    1.9987   -0.2194 O   0  0  0  0  0  0  0  0  0  0  0  0
   -2.1815   -0.0001   -0.5286 C   0  0  0  0  0  0  0  0  0  0  0  0
   -1.3881   -1.2454   -0.1045 C   0  0  0  0  0  0  0  0  0  0  0  0
   -1.2330   -2.1649   -1.1306 O   0  0  0  0  0  0  0  0  0  0  0  0
    1.9436    1.6957    0.3890 H   0  0  0  0  0  0  0  0  0  0  0  0
    2.7410    0.6577   -0.9209 H   0  0  0  0  0  0  0  0  0  0  0  0
    3.5522    0.9886    0.6248 H   0  0  0  0  0  0  0  0  0  0  0  0
    2.2488   -1.3201    0.0436 H   0  0  0  0  0  0  0  0  0  0  0  0
    2.5436   -0.7264    1.6953 H   0  0  0  0  0  0  0  0  0  0  0  0
    0.2057   -0.1480   -1.0331 H   0  0  0  0  0  0  0  0  0  0  0  0
   -1.4608    0.8121    1.3972 H   0  0  0  0  0  0  0  0  0  0  0  0
   -1.1331    2.7847    0.2833 H   0  0  0  0  0  0  0  0  0  0  0  0
   -2.0236    0.1674   -1.6017 H   0  0  0  0  0  0  0  0  0  0  0  0
   -3.2075    0.0317   -0.1624 H   0  0  0  0  0  0  0  0  0  0  0  0
   -1.7163   -1.6765    0.8384 H   0  0  0  0  0  0  0  0  0  0  0  0
   -1.9658   -2.1338   -1.7851 H   0  0  0  0  0  0  0  0  0  0  0  0
  1  2  1  0
  2  3  1  0
  3  4  1  0
  4  5  1  0
  5  6  1  0
  5  7  1  0
  7  8  1  0
  8  9  1  0
  8  4  1  0
  1 10  1  0
  1 11  1  0
  1 12  1  0
  2 13  1  0
  2 14  1  0
  4 15  1  0
  5 16  1  0
  6 17  1  0
  7 18  1  0
  7 19  1  0
  8 20  1  0
  9 21  1  0
M  END
