
     RDKit          3D

 22 21  0  0  0  0  0  0  0  0999 V2000
   -2.5612    0.3201    0.5578 C   0  0  0  0  0  0  0  0  0  0  0  0
   -2.0110   -0.7678   -0.3380 C   0  0  0  0  0  0  0  0  0  0  0  0
   -0.8480   -0.4347   -0.9816 O   0  0  0  0  0  0  0  0  0  0  0  0
    0.2255   -0.1280   -0.1908 C   0  0  0  0  0  0  0  0  0  0  0  0
    1.4017   -1.0738   -0.4247 C   0  0  0  0  0  0  0  0  0  0  0  0
    2.5695   -0.7219    0.4512 C   0  0  0  0  0  0  0  0  0  0  0  0
    0.6733    1.3024   -0.5271 C   0  0  0  0  0  0  0  0  0  0  0  0
   -0.3685    2.1903   -0.2811 O   0  0  0  0  0  0  0  0  0  0  0  0
   -1.8172    0.5238    1.3535 H   0  0  0  0  0  0  0  0  0  0  0  0
   -2.9110    1.1926    0.0105 H   0  0  0  0  0  0  0  0  0  0  0  0
   -3.4698   -0.0873    1.0920 H   0  0  0  0  0  0  0  0  0  0  0  0
   -1.9541   -1.7436    0.1858 H   0  0  0  0  0  0  0  0  0  0  0  0
   -2.7799   -0.9297   -1.1503 H   0  0  0  0  0  0  0  0  0  0  0  0
    0.0302   -0.1822    0.8987 H   0  0  0  0  0  0  0  0  0  0  0  0
    1.6506   -1.0134   -1.5100 H   0  0  0  0  0  0  0  0  0  0  0  0
    1.0854   -2.1024   -0.1563 H   0  0  0  0  0  0  0  0  0  0  0  0
    2.9806   -1.6193    0.9987 H   0  0  0  0  0  0  0  0  0  0  0  0
    2.3238    0.0115    1.2284 H   0  0  0  0  0  0  0  0  0  0  0  0
    3.4117   -0.3720   -0.2130 H   0  0  0  0  0  0  0  0  0  0  0  0
    0.9339    1.3812   -1.6026 H   0  0  0  0  0  0  0  0  0  0  0  0
    1.5766    1.5813    0.0418 H   0  0  0  0  0  0  0  0  0  0  0  0
   -0.1421    2.6728    0.5572 H   0  0  0  0  0  0  0  0  0  0  0  0
  1  2  1  0
  2  3  1  0
  3  4  1  0
  4  5  1  0
  5  6  1  0
  4  7  1  0
  7  8  1  0
  1  9  1  0
  1 10  1  0
  1 11  1  0
  2 12  1  0
  2 13  1  0
  4 14  1  0
  5 15  1  0
  5 16  1  0
  6 17  1  0
  6 18  1  0
  6 19  1  0
  7 20  1  0
  7 21  1  0
  8 22  1  0
M  END
