
     RDKit          3D

 23 23  0  0  0  0  0  0  0  0999 V2000
    2.8359    0.7797    0.3858 C   0  0  0  0  0  0  0  0  0  0  0  0
    2.6412   -0.7058    0.4927 C   0  0  0  0  0  0  0  0  0  0  0  0
    1.2990   -1.0483    0.7275 O   0  0  0  0  0  0  0  0  0  0  0  0
    0.4835   -0.6074   -0.2851 C   0  0  0  0  0  0  0  0  0  0  0  0
   -0.6404   -1.4645   -0.7890 C   0  0  0  0  0  0  0  0  0  0  0  0
   -0.9009   -0.1500   -0.0461 C   0  0  0  0  0  0  0  0  0  0  0  0
   -1.4289    1.0209   -0.8775 C   0  0  0  0  0  0  0  0  0  0  0  0
   -1.5324   -0.2969    1.1643 O   0  0  0  0  0  0  0  0  0  0  0  0
   -2.8154    0.2282    1.0678 C   0  0  0  0  0  0  0  0  0  0  0  0
    2.7369    1.0486   -0.6884 H   0  0  0  0  0  0  0  0  0  0  0  0
    3.8454    1.0978    0.7257 H   0  0  0  0  0  0  0  0  0  0  0  0
    2.1043    1.3668    0.9474 H   0  0  0  0  0  0  0  0  0  0  0  0
    3.3096   -1.0935    1.2654 H   0  0  0  0  0  0  0  0  0  0  0  0
    2.9158   -1.2120   -0.4642 H   0  0  0  0  0  0  0  0  0  0  0  0
    1.0202   -0.0659   -1.0994 H   0  0  0  0  0  0  0  0  0  0  0  0
   -0.7707   -2.4123   -0.2269 H   0  0  0  0  0  0  0  0  0  0  0  0
   -0.9478   -1.4466   -1.8335 H   0  0  0  0  0  0  0  0  0  0  0  0
   -2.4777    0.8118   -1.1149 H   0  0  0  0  0  0  0  0  0  0  0  0
   -1.2516    1.9415   -0.3080 H   0  0  0  0  0  0  0  0  0  0  0  0
   -0.7913    1.0507   -1.7832 H   0  0  0  0  0  0  0  0  0  0  0  0
   -3.3737    0.1321    2.0328 H   0  0  0  0  0  0  0  0  0  0  0  0
   -3.4401   -0.2871    0.3086 H   0  0  0  0  0  0  0  0  0  0  0  0
   -2.8210    1.3122    0.8327 H   0  0  0  0  0  0  0  0  0  0  0  0
  1  2  1  0
  2  3  1  0
  3  4  1  0
  4  5  1  0
  5  6  1  0
  6  7  1  0
  6  8  1  0
  8  9  1  0
  6  4  1  0
  1 10  1  0
  1 11  1  0
  1 12  1  0
  2 13  1  0
  2 14  1  0
  4 15  1  0
  5 16  1  0
  5 17  1  0
  7 18  1  0
  7 19  1  0
  7 20  1  0
  9 21  1  0
  9 22  1  0
  9 23  1  0
M  END
