
     RDKit          3D

 17 16  0  0  0  0  0  0  0  0999 V2000
    2.4393   -0.0440    0.9382 C   0  0  0  0  0  0  0  0  0  0  0  0
    1.7145   -0.7215   -0.1932 C   0  0  0  0  0  0  0  0  0  0  0  0
    0.3067   -0.6315   -0.0730 O   0  0  0  0  0  0  0  0  0  0  0  0
   -0.3099    0.6045   -0.0426 C   0  0  0  0  0  0  0  0  0  0  0  0
    0.4254    1.6202   -0.1252 O   0  0  0  0  0  0  0  0  0  0  0  0
   -1.7653    0.8058    0.0798 C   0  0  0  0  0  0  0  0  0  0  0  0
   -2.5336   -0.4752    0.1701 C   0  0  0  0  0  0  0  0  0  0  0  0
    1.8519    0.6947    1.4782 H   0  0  0  0  0  0  0  0  0  0  0  0
    3.3269    0.4992    0.5022 H   0  0  0  0  0  0  0  0  0  0  0  0
    2.8826   -0.8080    1.6393 H   0  0  0  0  0  0  0  0  0  0  0  0
    2.0459   -1.7588   -0.3127 H   0  0  0  0  0  0  0  0  0  0  0  0
    1.9658   -0.1899   -1.1577 H   0  0  0  0  0  0  0  0  0  0  0  0
   -1.9241    1.3434    1.0603 H   0  0  0  0  0  0  0  0  0  0  0  0
   -2.1325    1.4457   -0.7361 H   0  0  0  0  0  0  0  0  0  0  0  0
   -3.6176   -0.2164    0.1162 H   0  0  0  0  0  0  0  0  0  0  0  0
   -2.3598   -0.9907    1.1284 H   0  0  0  0  0  0  0  0  0  0  0  0
   -2.3162   -1.1775   -0.6576 H   0  0  0  0  0  0  0  0  0  0  0  0
  1  2  1  0
  2  3  1  0
  3  4  1  0
  4  5  2  0
  4  6  1  0
  6  7  1  0
  1  8  1  0
  1  9  1  0
  1 10  1  0
  2 11  1  0
  2 12  1  0
  6 13  1  0
  6 14  1  0
  7 15  1  0
  7 16  1  0
  7 17  1  0
M  END
