
     RDKit          3D

 23 22  0  0  0  0  0  0  0  0999 V2000
    2.9470   -0.2456    0.1557 C   0  0  0  0  0  0  0  0  0  0  0  0
    1.9804   -0.5886    1.2668 C   0  0  0  0  0  0  0  0  0  0  0  0
    0.6896   -0.7797    0.8244 O   0  0  0  0  0  0  0  0  0  0  0  0
    0.2014    0.3761    0.2044 C   0  0  0  0  0  0  0  0  0  0  0  0
   -1.1979    0.2123   -0.2911 C   0  0  0  0  0  0  0  0  0  0  0  0
   -2.1793   -0.1155    0.8085 C   0  0  0  0  0  0  0  0  0  0  0  0
   -1.2348   -0.8510   -1.3964 C   0  0  0  0  0  0  0  0  0  0  0  0
   -1.6260    1.5111   -0.8842 C   0  0  0  0  0  0  0  0  0  0  0  0
   -2.1893    2.3641   -0.2183 O   0  0  0  0  0  0  0  0  0  0  0  0
    3.1527    0.8612    0.1426 H   0  0  0  0  0  0  0  0  0  0  0  0
    2.5657   -0.5101   -0.8461 H   0  0  0  0  0  0  0  0  0  0  0  0
    3.9425   -0.7466    0.3345 H   0  0  0  0  0  0  0  0  0  0  0  0
    2.3465   -1.5281    1.7297 H   0  0  0  0  0  0  0  0  0  0  0  0
    2.0501    0.2263    2.0262 H   0  0  0  0  0  0  0  0  0  0  0  0
    0.8480    0.5774   -0.6746 H   0  0  0  0  0  0  0  0  0  0  0  0
    0.2742    1.2607    0.8605 H   0  0  0  0  0  0  0  0  0  0  0  0
   -1.8811   -0.9763    1.4204 H   0  0  0  0  0  0  0  0  0  0  0  0
   -3.1654   -0.3137    0.2987 H   0  0  0  0  0  0  0  0  0  0  0  0
   -2.3276    0.8111    1.3946 H   0  0  0  0  0  0  0  0  0  0  0  0
   -2.1603   -1.4622   -1.3088 H   0  0  0  0  0  0  0  0  0  0  0  0
   -1.2705   -0.3540   -2.3896 H   0  0  0  0  0  0  0  0  0  0  0  0
   -0.3159   -1.4688   -1.3343 H   0  0  0  0  0  0  0  0  0  0  0  0
   -1.4500    1.7399   -1.9293 H   0  0  0  0  0  0  0  0  0  0  0  0
  1  2  1  0
  2  3  1  0
  3  4  1  0
  4  5  1  0
  5  6  1  0
  5  7  1  0
  5  8  1  0
  8  9  2  0
  1 10  1  0
  1 11  1  0
  1 12  1  0
  2 13  1  0
  2 14  1  0
  4 15  1  0
  4 16  1  0
  6 17  1  0
  6 18  1  0
  6 19  1  0
  7 20  1  0
  7 21  1  0
  7 22  1  0
  8 23  1  0
M  END
