
     RDKit          3D

 23 23  0  0  0  0  0  0  0  0999 V2000
    3.3721    0.6518    0.6620 C   0  0  0  0  0  0  0  0  0  0  0  0
    2.2163   -0.1411    0.1278 C   0  0  0  0  0  0  0  0  0  0  0  0
    1.0083    0.5183    0.2935 O   0  0  0  0  0  0  0  0  0  0  0  0
   -0.0290   -0.2354   -0.2065 C   0  0  0  0  0  0  0  0  0  0  0  0
   -0.2835   -1.6025    0.3738 C   0  0  0  0  0  0  0  0  0  0  0  0
   -0.3661   -0.0498   -1.6391 C   0  0  0  0  0  0  0  0  0  0  0  0
   -1.3067    0.4991   -0.5832 C   0  0  0  0  0  0  0  0  0  0  0  0
   -2.5186   -0.1727   -0.4905 O   0  0  0  0  0  0  0  0  0  0  0  0
   -3.4871    0.7461   -0.1401 C   0  0  0  0  0  0  0  0  0  0  0  0
    4.2923    0.2943    0.1359 H   0  0  0  0  0  0  0  0  0  0  0  0
    3.5230    0.5222    1.7474 H   0  0  0  0  0  0  0  0  0  0  0  0
    3.2407    1.7240    0.3753 H   0  0  0  0  0  0  0  0  0  0  0  0
    2.2112   -1.1653    0.5928 H   0  0  0  0  0  0  0  0  0  0  0  0
    2.3975   -0.2974   -0.9605 H   0  0  0  0  0  0  0  0  0  0  0  0
    0.5496   -2.3008    0.2607 H   0  0  0  0  0  0  0  0  0  0  0  0
   -0.4781   -1.4507    1.4759 H   0  0  0  0  0  0  0  0  0  0  0  0
   -1.2328   -2.0081   -0.0367 H   0  0  0  0  0  0  0  0  0  0  0  0
    0.0993    0.7348   -2.2581 H   0  0  0  0  0  0  0  0  0  0  0  0
   -0.6669   -0.9435   -2.2055 H   0  0  0  0  0  0  0  0  0  0  0  0
   -1.2880    1.5943   -0.3787 H   0  0  0  0  0  0  0  0  0  0  0  0
   -3.2018    1.1984    0.8535 H   0  0  0  0  0  0  0  0  0  0  0  0
   -4.4917    0.2882   -0.0926 H   0  0  0  0  0  0  0  0  0  0  0  0
   -3.5600    1.5958   -0.8520 H   0  0  0  0  0  0  0  0  0  0  0  0
  1  2  1  0
  2  3  1  0
  3  4  1  0
  4  5  1  0
  4  6  1  0
  6  7  1  0
  7  8  1  0
  8  9  1  0
  7  4  1  0
  1 10  1  0
  1 11  1  0
  1 12  1  0
  2 13  1  0
  2 14  1  0
  5 15  1  0
  5 16  1  0
  5 17  1  0
  6 18  1  0
  6 19  1  0
  7 20  1  0
  9 21  1  0
  9 22  1  0
  9 23  1  0
M  END
