
     RDKit          3D

 19 19  0  0  0  0  0  0  0  0999 V2000
    2.9996   -0.7337   -0.0556 C   0  0  0  0  0  0  0  0  0  0  0  0
    1.7492   -0.1097    0.5818 C   0  0  0  0  0  0  0  0  0  0  0  0
    1.0355    0.4616   -0.4350 O   0  0  0  0  0  0  0  0  0  0  0  0
   -0.1287    1.0789   -0.0734 C   0  0  0  0  0  0  0  0  0  0  0  0
   -1.1360    0.1792    0.5867 C   0  0  0  0  0  0  0  0  0  0  0  0
   -2.2841    0.9422    0.9060 O   0  0  0  0  0  0  0  0  0  0  0  0
   -3.0774    0.1262    0.0987 C   0  0  0  0  0  0  0  0  0  0  0  0
   -1.9058   -0.6987   -0.2924 C   0  0  0  0  0  0  0  0  0  0  0  0
   -1.7815   -1.6518   -1.0265 O   0  0  0  0  0  0  0  0  0  0  0  0
    3.7306    0.0816   -0.1680 H   0  0  0  0  0  0  0  0  0  0  0  0
    3.3673   -1.5516    0.5781 H   0  0  0  0  0  0  0  0  0  0  0  0
    2.7472   -1.0715   -1.0901 H   0  0  0  0  0  0  0  0  0  0  0  0
    1.1725   -0.9506    1.0549 H   0  0  0  0  0  0  0  0  0  0  0  0
    2.0850    0.5769    1.3684 H   0  0  0  0  0  0  0  0  0  0  0  0
    0.0843    1.9680    0.5896 H   0  0  0  0  0  0  0  0  0  0  0  0
   -0.5833    1.5158   -0.9880 H   0  0  0  0  0  0  0  0  0  0  0  0
   -0.7395   -0.3698    1.4627 H   0  0  0  0  0  0  0  0  0  0  0  0
   -3.8187   -0.4179    0.7389 H   0  0  0  0  0  0  0  0  0  0  0  0
   -3.5163    0.6250   -0.7868 H   0  0  0  0  0  0  0  0  0  0  0  0
  1  2  1  0
  2  3  1  0
  3  4  1  0
  4  5  1  0
  5  6  1  0
  6  7  1  0
  7  8  1  0
  8  9  2  0
  8  5  1  0
  1 10  1  0
  1 11  1  0
  1 12  1  0
  2 13  1  0
  2 14  1  0
  4 15  1  0
  4 16  1  0
  5 17  1  0
  7 18  1  0
  7 19  1  0
M  END
