
     RDKit          3D

 17 16  0  0  0  0  0  0  0  0999 V2000
    2.3097   -0.7644    0.3792 C   0  0  0  0  0  0  0  0  0  0  0  0
    1.9378    0.5053   -0.3476 C   0  0  0  0  0  0  0  0  0  0  0  0
    0.5686    0.5343   -0.7079 O   0  0  0  0  0  0  0  0  0  0  0  0
   -0.4542    0.4651    0.2146 C   0  0  0  0  0  0  0  0  0  0  0  0
   -0.1452    0.3720    1.4301 O   0  0  0  0  0  0  0  0  0  0  0  0
   -1.9003    0.4958   -0.1659 C   0  0  0  0  0  0  0  0  0  0  0  0
   -2.0786    0.5997   -1.5231 O   0  0  0  0  0  0  0  0  0  0  0  0
   -2.6258   -0.6633    0.3973 C   0  0  0  0  0  0  0  0  0  0  0  0
   -2.6271   -0.9674    1.5609 O   0  0  0  0  0  0  0  0  0  0  0  0
    3.4087   -0.9034    0.3251 H   0  0  0  0  0  0  0  0  0  0  0  0
    2.0481   -0.6726    1.4625 H   0  0  0  0  0  0  0  0  0  0  0  0
    1.8511   -1.6672   -0.0501 H   0  0  0  0  0  0  0  0  0  0  0  0
    2.1983    1.3519    0.3189 H   0  0  0  0  0  0  0  0  0  0  0  0
    2.5864    0.5627   -1.2444 H   0  0  0  0  0  0  0  0  0  0  0  0
   -2.3190    1.4190    0.3010 H   0  0  0  0  0  0  0  0  0  0  0  0
   -1.5606   -0.0261   -2.0675 H   0  0  0  0  0  0  0  0  0  0  0  0
   -3.1978   -1.2851   -0.2831 H   0  0  0  0  0  0  0  0  0  0  0  0
  1  2  1  0
  2  3  1  0
  3  4  1  0
  4  5  2  0
  4  6  1  0
  6  7  1  0
  6  8  1  0
  8  9  2  0
  1 10  1  0
  1 11  1  0
  1 12  1  0
  2 13  1  0
  2 14  1  0
  6 15  1  0
  7 16  1  0
  8 17  1  0
M  END
