
     RDKit          3D

 25 25  0  0  0  0  0  0  0  0999 V2000
    3.7174    0.2581    0.5094 C   0  0  0  0  0  0  0  0  0  0  0  0
    2.8193    0.6349   -0.6404 C   0  0  0  0  0  0  0  0  0  0  0  0
    1.4815    0.5985   -0.3351 O   0  0  0  0  0  0  0  0  0  0  0  0
    1.0282   -0.6382    0.0676 C   0  0  0  0  0  0  0  0  0  0  0  0
   -0.4543   -0.5342    0.3707 C   0  0  0  0  0  0  0  0  0  0  0  0
   -1.1358   -0.0960   -0.8936 C   0  0  0  0  0  0  0  0  0  0  0  0
   -2.6061    0.0304   -0.6454 C   0  0  0  0  0  0  0  0  0  0  0  0
   -3.1522    0.9574    0.3599 C   0  0  0  0  0  0  0  0  0  0  0  0
   -3.1182   -0.4997    0.6741 C   0  0  0  0  0  0  0  0  0  0  0  0
    4.2803   -0.6950    0.2980 H   0  0  0  0  0  0  0  0  0  0  0  0
    4.5174    1.0286    0.6884 H   0  0  0  0  0  0  0  0  0  0  0  0
    3.2013    0.1090    1.4560 H   0  0  0  0  0  0  0  0  0  0  0  0
    3.1023    0.0093   -1.5111 H   0  0  0  0  0  0  0  0  0  0  0  0
    3.0684    1.6826   -0.9286 H   0  0  0  0  0  0  0  0  0  0  0  0
    1.6064   -1.0507    0.8970 H   0  0  0  0  0  0  0  0  0  0  0  0
    1.1238   -1.3476   -0.7883 H   0  0  0  0  0  0  0  0  0  0  0  0
   -0.6920    0.1633    1.1687 H   0  0  0  0  0  0  0  0  0  0  0  0
   -0.7870   -1.5668    0.6597 H   0  0  0  0  0  0  0  0  0  0  0  0
   -0.9355   -0.8231   -1.7213 H   0  0  0  0  0  0  0  0  0  0  0  0
   -0.7070    0.8765   -1.2525 H   0  0  0  0  0  0  0  0  0  0  0  0
   -3.2199   -0.2152   -1.5568 H   0  0  0  0  0  0  0  0  0  0  0  0
   -4.1494    1.3965    0.1143 H   0  0  0  0  0  0  0  0  0  0  0  0
   -2.4796    1.6210    0.9134 H   0  0  0  0  0  0  0  0  0  0  0  0
   -4.0555   -1.1022    0.6119 H   0  0  0  0  0  0  0  0  0  0  0  0
   -2.4539   -0.7973    1.4842 H   0  0  0  0  0  0  0  0  0  0  0  0
  1  2  1  0
  2  3  1  0
  3  4  1  0
  4  5  1  0
  5  6  1  0
  6  7  1  0
  7  8  1  0
  8  9  1  0
  9  7  1  0
  1 10  1  0
  1 11  1  0
  1 12  1  0
  2 13  1  0
  2 14  1  0
  4 15  1  0
  4 16  1  0
  5 17  1  0
  5 18  1  0
  6 19  1  0
  6 20  1  0
  7 21  1  0
  8 22  1  0
  8 23  1  0
  9 24  1  0
  9 25  1  0
M  END
