
     RDKit          3D

 11 10  0  0  0  0  0  0  0  0999 V2000
   -1.6063    0.2935   -0.1010 C   0  0  0  0  0  0  0  0  0  0  0  0
   -0.2690   -0.4470   -0.2085 C   0  0  0  0  0  0  0  0  0  0  0  0
    0.7332    0.5339   -0.1813 O   0  0  0  0  0  0  0  0  0  0  0  0
    2.0905    0.2634   -0.2564 C   0  0  0  0  0  0  0  0  0  0  0  0
    2.4496   -0.9193   -0.3542 O   0  0  0  0  0  0  0  0  0  0  0  0
   -1.5367    1.0913    0.6639 H   0  0  0  0  0  0  0  0  0  0  0  0
   -1.8062    0.7414   -1.0783 H   0  0  0  0  0  0  0  0  0  0  0  0
   -2.3971   -0.4016    0.2527 H   0  0  0  0  0  0  0  0  0  0  0  0
   -0.2745   -1.0465   -1.1485 H   0  0  0  0  0  0  0  0  0  0  0  0
   -0.2323   -1.1416    0.6429 H   0  0  0  0  0  0  0  0  0  0  0  0
    2.8488    1.0324   -0.2339 H   0  0  0  0  0  0  0  0  0  0  0  0
  1  2  1  0
  2  3  1  0
  3  4  1  0
  4  5  2  0
  1  6  1  0
  1  7  1  0
  1  8  1  0
  2  9  1  0
  2 10  1  0
  4 11  1  0
M  END
