
     RDKit          3D

 19 18  0  0  0  0  0  0  0  0999 V2000
   -2.9730    0.9193   -1.5331 C   0  0  0  0  0  0  0  0  0  0  0  0
   -1.5623    1.1316   -1.9819 C   0  0  0  0  0  0  0  0  0  0  0  0
   -0.6543    0.3922   -1.2337 O   0  0  0  0  0  0  0  0  0  0  0  0
   -0.6796    0.7182    0.1198 C   0  0  0  0  0  0  0  0  0  0  0  0
    0.3246   -0.1336    0.7930 C   0  0  0  0  0  0  0  0  0  0  0  0
    1.1435   -0.8558    1.3526 C   0  0  0  0  0  0  0  0  0  0  0  0
    2.1046   -1.7030    1.9817 C   0  0  0  0  0  0  0  0  0  0  0  0
    3.5327   -1.5671    1.5978 C   0  0  0  0  0  0  0  0  0  0  0  0
    1.8283   -2.5613    2.8422 O   0  0  0  0  0  0  0  0  0  0  0  0
   -3.6717    1.3474   -2.3006 H   0  0  0  0  0  0  0  0  0  0  0  0
   -3.1519    1.4040   -0.5599 H   0  0  0  0  0  0  0  0  0  0  0  0
   -3.1970   -0.1677   -1.4762 H   0  0  0  0  0  0  0  0  0  0  0  0
   -1.3021    2.2231   -1.8969 H   0  0  0  0  0  0  0  0  0  0  0  0
   -1.4199    0.8596   -3.0574 H   0  0  0  0  0  0  0  0  0  0  0  0
   -1.6824    0.5780    0.5699 H   0  0  0  0  0  0  0  0  0  0  0  0
   -0.3614    1.8021    0.1643 H   0  0  0  0  0  0  0  0  0  0  0  0
    3.9756   -2.5615    1.3185 H   0  0  0  0  0  0  0  0  0  0  0  0
    3.6741   -0.8028    0.8012 H   0  0  0  0  0  0  0  0  0  0  0  0
    4.0722   -1.2269    2.4988 H   0  0  0  0  0  0  0  0  0  0  0  0
  1  2  1  0
  2  3  1  0
  3  4  1  0
  4  5  1  0
  5  6  3  0
  6  7  1  0
  7  8  1  0
  7  9  2  0
  1 10  1  0
  1 11  1  0
  1 12  1  0
  2 13  1  0
  2 14  1  0
  4 15  1  0
  4 16  1  0
  8 17  1  0
  8 18  1  0
  8 19  1  0
M  END
