
     RDKit          3D

 23 23  0  0  0  0  0  0  0  0999 V2000
    3.0500   -0.2637    0.5849 C   0  0  0  0  0  0  0  0  0  0  0  0
    1.8356    0.1577   -0.2430 C   0  0  0  0  0  0  0  0  0  0  0  0
    0.7393   -0.3864    0.3355 O   0  0  0  0  0  0  0  0  0  0  0  0
   -0.4674   -0.1605   -0.2105 C   0  0  0  0  0  0  0  0  0  0  0  0
   -0.4846   -0.6954   -1.6438 C   0  0  0  0  0  0  0  0  0  0  0  0
   -0.9703    1.2470   -0.1662 C   0  0  0  0  0  0  0  0  0  0  0  0
   -1.9888    1.2720    0.9145 C   0  0  0  0  0  0  0  0  0  0  0  0
   -2.2753    0.0636    1.3227 C   0  0  0  0  0  0  0  0  0  0  0  0
   -1.4907   -0.9569    0.5760 C   0  0  0  0  0  0  0  0  0  0  0  0
    3.8863   -0.5843   -0.0711 H   0  0  0  0  0  0  0  0  0  0  0  0
    2.8022   -1.1778    1.2001 H   0  0  0  0  0  0  0  0  0  0  0  0
    3.3297    0.5110    1.3146 H   0  0  0  0  0  0  0  0  0  0  0  0
    2.0250   -0.0877   -1.2858 H   0  0  0  0  0  0  0  0  0  0  0  0
    1.7483    1.2782   -0.1688 H   0  0  0  0  0  0  0  0  0  0  0  0
    0.2686   -1.4985   -1.7186 H   0  0  0  0  0  0  0  0  0  0  0  0
   -0.1899    0.1612   -2.3075 H   0  0  0  0  0  0  0  0  0  0  0  0
   -1.4806   -1.0903   -1.8648 H   0  0  0  0  0  0  0  0  0  0  0  0
   -1.5427    1.4262   -1.1246 H   0  0  0  0  0  0  0  0  0  0  0  0
   -0.1650    1.9873   -0.0259 H   0  0  0  0  0  0  0  0  0  0  0  0
   -2.4217    2.1847    1.2965 H   0  0  0  0  0  0  0  0  0  0  0  0
   -2.9824   -0.2149    2.0983 H   0  0  0  0  0  0  0  0  0  0  0  0
   -2.2029   -1.4940   -0.0811 H   0  0  0  0  0  0  0  0  0  0  0  0
   -1.0227   -1.6784    1.2686 H   0  0  0  0  0  0  0  0  0  0  0  0
  1  2  1  0
  2  3  1  0
  3  4  1  0
  4  5  1  0
  4  6  1  0
  6  7  1  0
  7  8  2  0
  8  9  1  0
  9  4  1  0
  1 10  1  0
  1 11  1  0
  1 12  1  0
  2 13  1  0
  2 14  1  0
  5 15  1  0
  5 16  1  0
  5 17  1  0
  6 18  1  0
  6 19  1  0
  7 20  1  0
  8 21  1  0
  9 22  1  0
  9 23  1  0
M  END
