
     RDKit          3D

 22 22  0  0  0  0  0  0  0  0999 V2000
    2.5682   -0.7301    0.0428 C   0  0  0  0  0  0  0  0  0  0  0  0
    2.4290    0.7452    0.2798 C   0  0  0  0  0  0  0  0  0  0  0  0
    1.5633    1.4109   -0.4914 O   0  0  0  0  0  0  0  0  0  0  0  0
    0.2362    1.2211   -0.4937 C   0  0  0  0  0  0  0  0  0  0  0  0
   -0.3176   -0.1141   -0.8322 C   0  0  0  0  0  0  0  0  0  0  0  0
   -1.8376   -0.1308   -0.8353 C   0  0  0  0  0  0  0  0  0  0  0  0
   -2.6144    0.1968    0.3564 C   0  0  0  0  0  0  0  0  0  0  0  0
   -2.4296   -1.2460    0.0418 C   0  0  0  0  0  0  0  0  0  0  0  0
    2.2052   -1.0383   -0.9481 H   0  0  0  0  0  0  0  0  0  0  0  0
    2.1255   -1.3547    0.8428 H   0  0  0  0  0  0  0  0  0  0  0  0
    3.6659   -0.9848    0.0190 H   0  0  0  0  0  0  0  0  0  0  0  0
    2.2926    0.9327    1.3853 H   0  0  0  0  0  0  0  0  0  0  0  0
    3.4610    1.1980    0.0948 H   0  0  0  0  0  0  0  0  0  0  0  0
   -0.1353    1.5432    0.5437 H   0  0  0  0  0  0  0  0  0  0  0  0
   -0.2119    2.0378   -1.1467 H   0  0  0  0  0  0  0  0  0  0  0  0
    0.0252   -0.4283   -1.8261 H   0  0  0  0  0  0  0  0  0  0  0  0
    0.0671   -0.8403   -0.0719 H   0  0  0  0  0  0  0  0  0  0  0  0
   -2.3043    0.0147   -1.8389 H   0  0  0  0  0  0  0  0  0  0  0  0
   -2.1401    0.5997    1.2857 H   0  0  0  0  0  0  0  0  0  0  0  0
   -3.6483    0.5740    0.2123 H   0  0  0  0  0  0  0  0  0  0  0  0
   -1.7479   -1.7883    0.7135 H   0  0  0  0  0  0  0  0  0  0  0  0
   -3.2522   -1.8185   -0.4242 H   0  0  0  0  0  0  0  0  0  0  0  0
  1  2  1  0
  2  3  1  0
  3  4  1  0
  4  5  1  0
  5  6  1  0
  6  7  1  0
  7  8  1  0
  8  6  1  0
  1  9  1  0
  1 10  1  0
  1 11  1  0
  2 12  1  0
  2 13  1  0
  4 14  1  0
  4 15  1  0
  5 16  1  0
  5 17  1  0
  6 18  1  0
  7 19  1  0
  7 20  1  0
  8 21  1  0
  8 22  1  0
M  END
