
     RDKit          3D

 21 22  0  0  0  0  0  0  0  0999 V2000
    3.1570   -0.1885    0.4110 C   0  0  0  0  0  0  0  0  0  0  0  0
    1.7519    0.3707    0.3055 C   0  0  0  0  0  0  0  0  0  0  0  0
    0.9473   -0.6368   -0.1630 O   0  0  0  0  0  0  0  0  0  0  0  0
   -0.3643   -0.3297   -0.3273 C   0  0  0  0  0  0  0  0  0  0  0  0
   -0.8319    0.7559   -1.2492 C   0  0  0  0  0  0  0  0  0  0  0  0
   -2.2205    0.6712   -1.1141 O   0  0  0  0  0  0  0  0  0  0  0  0
   -2.4396    0.6534    0.2682 C   0  0  0  0  0  0  0  0  0  0  0  0
   -1.3764   -0.3387    0.7296 C   0  0  0  0  0  0  0  0  0  0  0  0
   -1.3030   -1.5470   -0.1683 C   0  0  0  0  0  0  0  0  0  0  0  0
    3.1913   -0.7695    1.3708 H   0  0  0  0  0  0  0  0  0  0  0  0
    3.2834   -0.9050   -0.4133 H   0  0  0  0  0  0  0  0  0  0  0  0
    3.9245    0.6052    0.4208 H   0  0  0  0  0  0  0  0  0  0  0  0
    1.4061    0.8057    1.2650 H   0  0  0  0  0  0  0  0  0  0  0  0
    1.7985    1.2362   -0.4183 H   0  0  0  0  0  0  0  0  0  0  0  0
   -0.5486    0.6049   -2.2984 H   0  0  0  0  0  0  0  0  0  0  0  0
   -0.5606    1.7730   -0.8754 H   0  0  0  0  0  0  0  0  0  0  0  0
   -3.4143    0.1511    0.4383 H   0  0  0  0  0  0  0  0  0  0  0  0
   -2.3422    1.6317    0.7272 H   0  0  0  0  0  0  0  0  0  0  0  0
   -1.1558   -0.4211    1.8031 H   0  0  0  0  0  0  0  0  0  0  0  0
   -0.9025   -2.4483    0.2911 H   0  0  0  0  0  0  0  0  0  0  0  0
   -2.0005   -1.6744   -1.0034 H   0  0  0  0  0  0  0  0  0  0  0  0
  1  2  1  0
  2  3  1  0
  3  4  1  0
  4  5  1  0
  5  6  1  0
  6  7  1  0
  7  8  1  0
  8  9  1  0
  8  4  1  0
  9  4  1  0
  1 10  1  0
  1 11  1  0
  1 12  1  0
  2 13  1  0
  2 14  1  0
  5 15  1  0
  5 16  1  0
  7 17  1  0
  7 18  1  0
  8 19  1  0
  9 20  1  0
  9 21  1  0
M  END
