
     RDKit          3D

 19 19  0  0  0  0  0  0  0  0999 V2000
    3.3397    0.0549   -0.3254 C   0  0  0  0  0  0  0  0  0  0  0  0
    2.1607    0.6239    0.4663 C   0  0  0  0  0  0  0  0  0  0  0  0
    1.0049    0.0031   -0.0407 O   0  0  0  0  0  0  0  0  0  0  0  0
   -0.2478    0.3069    0.4730 C   0  0  0  0  0  0  0  0  0  0  0  0
   -0.2760    1.1498    1.3949 O   0  0  0  0  0  0  0  0  0  0  0  0
   -1.4346   -0.3624   -0.0823 C   0  0  0  0  0  0  0  0  0  0  0  0
   -1.2289   -1.2727   -1.1034 O   0  0  0  0  0  0  0  0  0  0  0  0
   -2.7778    0.2542   -0.0177 C   0  0  0  0  0  0  0  0  0  0  0  0
   -2.4655   -0.7538    0.9989 C   0  0  0  0  0  0  0  0  0  0  0  0
    3.0203   -0.1238   -1.3733 H   0  0  0  0  0  0  0  0  0  0  0  0
    3.5752   -0.9583    0.0999 H   0  0  0  0  0  0  0  0  0  0  0  0
    4.2018    0.7356   -0.2507 H   0  0  0  0  0  0  0  0  0  0  0  0
    2.2930    0.4687    1.5509 H   0  0  0  0  0  0  0  0  0  0  0  0
    2.1067    1.7284    0.2892 H   0  0  0  0  0  0  0  0  0  0  0  0
   -1.6970   -0.9053   -1.9121 H   0  0  0  0  0  0  0  0  0  0  0  0
   -2.9124    1.3204    0.3090 H   0  0  0  0  0  0  0  0  0  0  0  0
   -3.5194   -0.0346   -0.7888 H   0  0  0  0  0  0  0  0  0  0  0  0
   -2.2953   -0.4301    2.0241 H   0  0  0  0  0  0  0  0  0  0  0  0
   -2.8477   -1.8048    0.9297 H   0  0  0  0  0  0  0  0  0  0  0  0
  1  2  1  0
  2  3  1  0
  3  4  1  0
  4  5  2  0
  4  6  1  0
  6  7  1  0
  6  8  1  0
  8  9  1  0
  9  6  1  0
  1 10  1  0
  1 11  1  0
  1 12  1  0
  2 13  1  0
  2 14  1  0
  7 15  1  0
  8 16  1  0
  8 17  1  0
  9 18  1  0
  9 19  1  0
M  END
