
     RDKit          3D

 19 19  0  0  0  0  0  0  0  0999 V2000
    2.9535   -0.1930    0.1246 C   0  0  0  0  0  0  0  0  0  0  0  0
    2.1267    0.7591   -0.6816 C   0  0  0  0  0  0  0  0  0  0  0  0
    0.8174    0.9169   -0.2211 O   0  0  0  0  0  0  0  0  0  0  0  0
   -0.0937   -0.1242   -0.1268 C   0  0  0  0  0  0  0  0  0  0  0  0
    0.3068   -1.2473   -0.4789 O   0  0  0  0  0  0  0  0  0  0  0  0
   -1.4419    0.1846    0.3762 C   0  0  0  0  0  0  0  0  0  0  0  0
   -2.4050   -0.9485    0.4691 C   0  0  0  0  0  0  0  0  0  0  0  0
   -3.3987   -0.0982   -0.0636 O   0  0  0  0  0  0  0  0  0  0  0  0
   -2.3678    0.5119   -0.7926 C   0  0  0  0  0  0  0  0  0  0  0  0
    4.0318   -0.0075   -0.1536 H   0  0  0  0  0  0  0  0  0  0  0  0
    2.8279   -0.0796    1.2003 H   0  0  0  0  0  0  0  0  0  0  0  0
    2.7784   -1.2610   -0.1232 H   0  0  0  0  0  0  0  0  0  0  0  0
    2.1970    0.4866   -1.7561 H   0  0  0  0  0  0  0  0  0  0  0  0
    2.6233    1.7704   -0.6050 H   0  0  0  0  0  0  0  0  0  0  0  0
   -1.5126    0.9205    1.1741 H   0  0  0  0  0  0  0  0  0  0  0  0
   -2.2338   -1.7808   -0.2105 H   0  0  0  0  0  0  0  0  0  0  0  0
   -2.6115   -1.2343    1.5329 H   0  0  0  0  0  0  0  0  0  0  0  0
   -2.4975    1.5708   -1.0098 H   0  0  0  0  0  0  0  0  0  0  0  0
   -2.1005   -0.1464   -1.6438 H   0  0  0  0  0  0  0  0  0  0  0  0
  1  2  1  0
  2  3  1  0
  3  4  1  0
  4  5  2  0
  4  6  1  0
  6  7  1  0
  7  8  1  0
  8  9  1  0
  9  6  1  0
  1 10  1  0
  1 11  1  0
  1 12  1  0
  2 13  1  0
  2 14  1  0
  6 15  1  0
  7 16  1  0
  7 17  1  0
  9 18  1  0
  9 19  1  0
M  END
