
     RDKit          3D

 17 16  0  0  0  0  0  0  0  0999 V2000
   -2.5753   -0.0038    0.9396 C   0  0  0  0  0  0  0  0  0  0  0  0
   -2.1753   -0.2026   -0.4911 C   0  0  0  0  0  0  0  0  0  0  0  0
   -0.9341    0.3642   -0.8187 O   0  0  0  0  0  0  0  0  0  0  0  0
    0.2643    0.0484   -0.2509 C   0  0  0  0  0  0  0  0  0  0  0  0
    0.2862   -0.8332    0.6566 O   0  0  0  0  0  0  0  0  0  0  0  0
    1.5210    0.6705   -0.6320 C   0  0  0  0  0  0  0  0  0  0  0  0
    1.5579    1.5551   -1.5305 O   0  0  0  0  0  0  0  0  0  0  0  0
    2.8175    0.3143   -0.0029 C   0  0  0  0  0  0  0  0  0  0  0  0
    2.6670   -0.6682    0.9724 O   0  0  0  0  0  0  0  0  0  0  0  0
   -2.3027    1.0208    1.2737 H   0  0  0  0  0  0  0  0  0  0  0  0
   -3.6945   -0.1038    0.9763 H   0  0  0  0  0  0  0  0  0  0  0  0
   -2.1933   -0.7914    1.6185 H   0  0  0  0  0  0  0  0  0  0  0  0
   -2.2466   -1.2810   -0.7441 H   0  0  0  0  0  0  0  0  0  0  0  0
   -2.9495    0.3104   -1.1266 H   0  0  0  0  0  0  0  0  0  0  0  0
    3.5225   -0.0868   -0.7574 H   0  0  0  0  0  0  0  0  0  0  0  0
    3.2985    1.1880    0.4557 H   0  0  0  0  0  0  0  0  0  0  0  0
    3.1363   -1.5007    0.7635 H   0  0  0  0  0  0  0  0  0  0  0  0
  1  2  1  0
  2  3  1  0
  3  4  1  0
  4  5  2  0
  4  6  1  0
  6  7  2  0
  6  8  1  0
  8  9  1  0
  1 10  1  0
  1 11  1  0
  1 12  1  0
  2 13  1  0
  2 14  1  0
  8 15  1  0
  8 16  1  0
  9 17  1  0
M  END
