
     RDKit          3D

 23 23  0  0  0  0  0  0  0  0999 V2000
   -3.5178    0.4450    0.2526 C   0  0  0  0  0  0  0  0  0  0  0  0
   -2.1968   -0.2626   -0.1157 C   0  0  0  0  0  0  0  0  0  0  0  0
   -1.4826   -0.3289    1.0350 O   0  0  0  0  0  0  0  0  0  0  0  0
   -0.2561   -0.8888    1.0365 C   0  0  0  0  0  0  0  0  0  0  0  0
    0.7480   -0.1203    0.2680 C   0  0  0  0  0  0  0  0  0  0  0  0
    2.1756   -0.6703    0.4300 C   0  0  0  0  0  0  0  0  0  0  0  0
    3.1705    0.1209   -0.3542 C   0  0  0  0  0  0  0  0  0  0  0  0
    0.5637    1.2475   -0.1262 C   0  0  0  0  0  0  0  0  0  0  0  0
    0.4954    0.1882   -1.0771 O   0  0  0  0  0  0  0  0  0  0  0  0
   -3.2581    1.5219    0.3080 H   0  0  0  0  0  0  0  0  0  0  0  0
   -4.2480    0.3254   -0.5467 H   0  0  0  0  0  0  0  0  0  0  0  0
   -3.8183    0.0345    1.2266 H   0  0  0  0  0  0  0  0  0  0  0  0
   -2.4356   -1.2744   -0.5462 H   0  0  0  0  0  0  0  0  0  0  0  0
   -1.7987    0.3065   -0.9608 H   0  0  0  0  0  0  0  0  0  0  0  0
   -0.2567   -1.9762    0.7491 H   0  0  0  0  0  0  0  0  0  0  0  0
    0.0875   -0.9255    2.1216 H   0  0  0  0  0  0  0  0  0  0  0  0
    2.3738   -0.7445    1.4987 H   0  0  0  0  0  0  0  0  0  0  0  0
    2.1525   -1.6995    0.0046 H   0  0  0  0  0  0  0  0  0  0  0  0
    3.6702    0.8308    0.3614 H   0  0  0  0  0  0  0  0  0  0  0  0
    4.0086   -0.5454   -0.7157 H   0  0  0  0  0  0  0  0  0  0  0  0
    2.7513    0.6950   -1.1872 H   0  0  0  0  0  0  0  0  0  0  0  0
    1.4371    1.9374   -0.2425 H   0  0  0  0  0  0  0  0  0  0  0  0
   -0.3656    1.7831    0.0019 H   0  0  0  0  0  0  0  0  0  0  0  0
  1  2  1  0
  2  3  1  0
  3  4  1  0
  4  5  1  0
  5  6  1  0
  6  7  1  0
  5  8  1  0
  8  9  1  0
  9  5  1  0
  1 10  1  0
  1 11  1  0
  1 12  1  0
  2 13  1  0
  2 14  1  0
  4 15  1  0
  4 16  1  0
  6 17  1  0
  6 18  1  0
  7 19  1  0
  7 20  1  0
  7 21  1  0
  8 22  1  0
  8 23  1  0
M  END
