
     RDKit          3D

 23 23  0  0  0  0  0  0  0  0999 V2000
   -2.7947   -0.3141   -1.0713 C   0  0  0  0  0  0  0  0  0  0  0  0
   -1.7171    0.2791   -0.1464 C   0  0  0  0  0  0  0  0  0  0  0  0
   -0.5270   -0.2083   -0.5366 O   0  0  0  0  0  0  0  0  0  0  0  0
    0.5963    0.1476    0.1056 C   0  0  0  0  0  0  0  0  0  0  0  0
    1.8612   -0.5095   -0.4761 C   0  0  0  0  0  0  0  0  0  0  0  0
    1.7500   -2.0048   -0.3865 C   0  0  0  0  0  0  0  0  0  0  0  0
    0.7553    1.6708    0.2662 C   0  0  0  0  0  0  0  0  0  0  0  0
    0.7281    0.7292    1.4330 C   0  0  0  0  0  0  0  0  0  0  0  0
   -0.3276    0.8910    2.3163 O   0  0  0  0  0  0  0  0  0  0  0  0
   -2.3970   -0.4402   -2.1059 H   0  0  0  0  0  0  0  0  0  0  0  0
   -3.6562    0.3863   -1.1639 H   0  0  0  0  0  0  0  0  0  0  0  0
   -3.1779   -1.2707   -0.6765 H   0  0  0  0  0  0  0  0  0  0  0  0
   -1.8749    1.3528   -0.1640 H   0  0  0  0  0  0  0  0  0  0  0  0
   -1.9712   -0.1208    0.8663 H   0  0  0  0  0  0  0  0  0  0  0  0
    1.9435   -0.2256   -1.5266 H   0  0  0  0  0  0  0  0  0  0  0  0
    2.7494   -0.1970    0.0896 H   0  0  0  0  0  0  0  0  0  0  0  0
    2.7063   -2.4287   -0.7537 H   0  0  0  0  0  0  0  0  0  0  0  0
    1.6019   -2.3837    0.6357 H   0  0  0  0  0  0  0  0  0  0  0  0
    0.9626   -2.3250   -1.0945 H   0  0  0  0  0  0  0  0  0  0  0  0
   -0.1083    2.3173    0.1263 H   0  0  0  0  0  0  0  0  0  0  0  0
    1.7106    2.1338   -0.0475 H   0  0  0  0  0  0  0  0  0  0  0  0
    1.7106    0.6443    1.9414 H   0  0  0  0  0  0  0  0  0  0  0  0
   -0.5239    1.8762    2.3689 H   0  0  0  0  0  0  0  0  0  0  0  0
  1  2  1  0
  2  3  1  0
  3  4  1  0
  4  5  1  0
  5  6  1  0
  4  7  1  0
  7  8  1  0
  8  9  1  0
  8  4  1  0
  1 10  1  0
  1 11  1  0
  1 12  1  0
  2 13  1  0
  2 14  1  0
  5 15  1  0
  5 16  1  0
  6 17  1  0
  6 18  1  0
  6 19  1  0
  7 20  1  0
  7 21  1  0
  8 22  1  0
  9 23  1  0
M  END
