
     RDKit          3D

 21 20  0  0  0  0  0  0  0  0999 V2000
    3.2314    0.6075    0.6920 C   0  0  0  0  0  0  0  0  0  0  0  0
    2.1363    0.0647   -0.1927 C   0  0  0  0  0  0  0  0  0  0  0  0
    0.8880    0.1436    0.4080 O   0  0  0  0  0  0  0  0  0  0  0  0
   -0.0601   -0.3729   -0.4651 C   0  0  0  0  0  0  0  0  0  0  0  0
   -1.4543   -0.3284    0.1051 C   0  0  0  0  0  0  0  0  0  0  0  0
   -1.5199   -1.2673    1.3003 C   0  0  0  0  0  0  0  0  0  0  0  0
   -1.8839    0.9630    0.4131 O   0  0  0  0  0  0  0  0  0  0  0  0
   -2.9942    1.5211   -0.2042 C   0  0  0  0  0  0  0  0  0  0  0  0
   -3.5994    0.8061   -1.0588 O   0  0  0  0  0  0  0  0  0  0  0  0
    3.3688   -0.0170    1.5995 H   0  0  0  0  0  0  0  0  0  0  0  0
    4.1652    0.6029    0.0759 H   0  0  0  0  0  0  0  0  0  0  0  0
    3.0425    1.6825    0.9629 H   0  0  0  0  0  0  0  0  0  0  0  0
    2.3679   -1.0037   -0.3729 H   0  0  0  0  0  0  0  0  0  0  0  0
    2.1761    0.6405   -1.1467 H   0  0  0  0  0  0  0  0  0  0  0  0
    0.2221   -1.4292   -0.6530 H   0  0  0  0  0  0  0  0  0  0  0  0
   -0.0046    0.1464   -1.4442 H   0  0  0  0  0  0  0  0  0  0  0  0
   -2.1245   -0.7829   -0.6697 H   0  0  0  0  0  0  0  0  0  0  0  0
   -2.5267   -1.2494    1.7646 H   0  0  0  0  0  0  0  0  0  0  0  0
   -0.8061   -0.9743    2.1002 H   0  0  0  0  0  0  0  0  0  0  0  0
   -1.2768   -2.2856    0.8959 H   0  0  0  0  0  0  0  0  0  0  0  0
   -3.3479    2.5322    0.0229 H   0  0  0  0  0  0  0  0  0  0  0  0
  1  2  1  0
  2  3  1  0
  3  4  1  0
  4  5  1  0
  5  6  1  0
  5  7  1  0
  7  8  1  0
  8  9  2  0
  1 10  1  0
  1 11  1  0
  1 12  1  0
  2 13  1  0
  2 14  1  0
  4 15  1  0
  4 16  1  0
  5 17  1  0
  6 18  1  0
  6 19  1  0
  6 20  1  0
  8 21  1  0
M  END
