
     RDKit          3D

 15 14  0  0  0  0  0  0  0  0999 V2000
    2.2967    0.2619    0.1255 C   0  0  0  0  0  0  0  0  0  0  0  0
    0.8799   -0.1949   -0.0766 C   0  0  0  0  0  0  0  0  0  0  0  0
    0.0670    0.0769    1.0164 O   0  0  0  0  0  0  0  0  0  0  0  0
   -1.2096   -0.3597    0.7777 C   0  0  0  0  0  0  0  0  0  0  0  0
   -1.8789    0.2602   -0.4021 C   0  0  0  0  0  0  0  0  0  0  0  0
    2.7762   -0.1757    1.0213 H   0  0  0  0  0  0  0  0  0  0  0  0
    2.2824    1.3715    0.1937 H   0  0  0  0  0  0  0  0  0  0  0  0
    2.8606    0.0011   -0.7949 H   0  0  0  0  0  0  0  0  0  0  0  0
    0.4760    0.3619   -0.9465 H   0  0  0  0  0  0  0  0  0  0  0  0
    0.7982   -1.2666   -0.3271 H   0  0  0  0  0  0  0  0  0  0  0  0
   -1.8361   -0.1356    1.6875 H   0  0  0  0  0  0  0  0  0  0  0  0
   -1.2434   -1.4861    0.7006 H   0  0  0  0  0  0  0  0  0  0  0  0
   -2.9351    0.5587   -0.1670 H   0  0  0  0  0  0  0  0  0  0  0  0
   -1.9449   -0.4464   -1.2650 H   0  0  0  0  0  0  0  0  0  0  0  0
   -1.3892    1.1728   -0.7836 H   0  0  0  0  0  0  0  0  0  0  0  0
  1  2  1  0
  2  3  1  0
  3  4  1  0
  4  5  1  0
  1  6  1  0
  1  7  1  0
  1  8  1  0
  2  9  1  0
  2 10  1  0
  4 11  1  0
  4 12  1  0
  5 13  1  0
  5 14  1  0
  5 15  1  0
M  END
