
     RDKit          3D

 20 20  0  0  0  0  0  0  0  0999 V2000
    2.6807   -0.5174   -0.1978 C   0  0  0  0  0  0  0  0  0  0  0  0
    2.0530    0.1546    1.0050 C   0  0  0  0  0  0  0  0  0  0  0  0
    0.6920   -0.0994    1.1004 O   0  0  0  0  0  0  0  0  0  0  0  0
    0.0560    0.3715   -0.0349 C   0  0  0  0  0  0  0  0  0  0  0  0
   -1.4261    0.1261    0.0064 C   0  0  0  0  0  0  0  0  0  0  0  0
   -1.9835   -1.2005   -0.4291 C   0  0  0  0  0  0  0  0  0  0  0  0
   -2.3123    1.3031   -0.2718 C   0  0  0  0  0  0  0  0  0  0  0  0
   -2.1478    0.7167    1.0740 O   0  0  0  0  0  0  0  0  0  0  0  0
    2.1309   -1.4311   -0.4948 H   0  0  0  0  0  0  0  0  0  0  0  0
    3.7293   -0.8574    0.0177 H   0  0  0  0  0  0  0  0  0  0  0  0
    2.7404    0.2291   -1.0299 H   0  0  0  0  0  0  0  0  0  0  0  0
    2.5732   -0.2649    1.9135 H   0  0  0  0  0  0  0  0  0  0  0  0
    2.2014    1.2685    0.9741 H   0  0  0  0  0  0  0  0  0  0  0  0
    0.4465   -0.1306   -0.9422 H   0  0  0  0  0  0  0  0  0  0  0  0
    0.2436    1.4612   -0.0860 H   0  0  0  0  0  0  0  0  0  0  0  0
   -2.2597   -1.1219   -1.5132 H   0  0  0  0  0  0  0  0  0  0  0  0
   -1.2715   -2.0431   -0.2859 H   0  0  0  0  0  0  0  0  0  0  0  0
   -2.9298   -1.4564    0.0980 H   0  0  0  0  0  0  0  0  0  0  0  0
   -3.3344    1.1558   -0.6677 H   0  0  0  0  0  0  0  0  0  0  0  0
   -1.8820    2.3360   -0.2358 H   0  0  0  0  0  0  0  0  0  0  0  0
  1  2  1  0
  2  3  1  0
  3  4  1  0
  4  5  1  0
  5  6  1  0
  5  7  1  0
  7  8  1  0
  8  5  1  0
  1  9  1  0
  1 10  1  0
  1 11  1  0
  2 12  1  0
  2 13  1  0
  4 14  1  0
  4 15  1  0
  6 16  1  0
  6 17  1  0
  6 18  1  0
  7 19  1  0
  7 20  1  0
M  END
