
     RDKit          3D

 23 22  0  0  0  0  0  0  0  0999 V2000
    3.2455    0.5897   -0.1182 C   0  0  0  0  0  0  0  0  0  0  0  0
    2.7271   -0.4161    0.9056 C   0  0  0  0  0  0  0  0  0  0  0  0
    1.5753   -1.0770    0.4773 O   0  0  0  0  0  0  0  0  0  0  0  0
    0.3811   -0.4469    0.1581 C   0  0  0  0  0  0  0  0  0  0  0  0
    0.3753    0.8149    0.2759 O   0  0  0  0  0  0  0  0  0  0  0  0
   -0.8043   -1.2152   -0.2911 C   0  0  0  0  0  0  0  0  0  0  0  0
   -1.9871   -0.3490   -0.5846 C   0  0  0  0  0  0  0  0  0  0  0  0
   -1.7555    0.6654   -1.6577 C   0  0  0  0  0  0  0  0  0  0  0  0
   -2.5249    0.3548    0.6284 C   0  0  0  0  0  0  0  0  0  0  0  0
    4.3343    0.7353    0.1399 H   0  0  0  0  0  0  0  0  0  0  0  0
    2.6596    1.5134    0.0254 H   0  0  0  0  0  0  0  0  0  0  0  0
    3.1775    0.2054   -1.1509 H   0  0  0  0  0  0  0  0  0  0  0  0
    2.6184    0.1371    1.8504 H   0  0  0  0  0  0  0  0  0  0  0  0
    3.5038   -1.2035    1.0962 H   0  0  0  0  0  0  0  0  0  0  0  0
   -1.0658   -1.9486    0.4961 H   0  0  0  0  0  0  0  0  0  0  0  0
   -0.5091   -1.7953   -1.1853 H   0  0  0  0  0  0  0  0  0  0  0  0
   -2.8032   -1.0276   -0.9470 H   0  0  0  0  0  0  0  0  0  0  0  0
   -1.3844    1.6133   -1.1979 H   0  0  0  0  0  0  0  0  0  0  0  0
   -1.0509    0.2875   -2.4332 H   0  0  0  0  0  0  0  0  0  0  0  0
   -2.7488    0.9162   -2.0876 H   0  0  0  0  0  0  0  0  0  0  0  0
   -2.4972   -0.2768    1.5371 H   0  0  0  0  0  0  0  0  0  0  0  0
   -1.8933    1.2597    0.7993 H   0  0  0  0  0  0  0  0  0  0  0  0
   -3.5732    0.6634    0.3838 H   0  0  0  0  0  0  0  0  0  0  0  0
  1  2  1  0
  2  3  1  0
  3  4  1  0
  4  5  2  0
  4  6  1  0
  6  7  1  0
  7  8  1  0
  7  9  1  0
  1 10  1  0
  1 11  1  0
  1 12  1  0
  2 13  1  0
  2 14  1  0
  6 15  1  0
  6 16  1  0
  7 17  1  0
  8 18  1  0
  8 19  1  0
  8 20  1  0
  9 21  1  0
  9 22  1  0
  9 23  1  0
M  END
