
     RDKit          3D

 21 20  0  0  0  0  0  0  0  0999 V2000
   -3.0858   -0.1466   -0.0727 C   0  0  0  0  0  0  0  0  0  0  0  0
   -1.9083   -0.9309   -0.5594 C   0  0  0  0  0  0  0  0  0  0  0  0
   -1.0308   -0.2429   -1.3494 O   0  0  0  0  0  0  0  0  0  0  0  0
   -0.4402    0.8503   -0.7928 C   0  0  0  0  0  0  0  0  0  0  0  0
    0.3872    0.5953    0.4367 C   0  0  0  0  0  0  0  0  0  0  0  0
    1.5142   -0.3229    0.2393 C   0  0  0  0  0  0  0  0  0  0  0  0
    1.3029   -1.5200    0.2220 O   0  0  0  0  0  0  0  0  0  0  0  0
    2.9195    0.1327    0.0568 C   0  0  0  0  0  0  0  0  0  0  0  0
    3.7834   -0.9372   -0.1013 O   0  0  0  0  0  0  0  0  0  0  0  0
   -2.8950    0.9047    0.1339 H   0  0  0  0  0  0  0  0  0  0  0  0
   -3.4906   -0.6974    0.8224 H   0  0  0  0  0  0  0  0  0  0  0  0
   -3.9331   -0.1812   -0.8167 H   0  0  0  0  0  0  0  0  0  0  0  0
   -2.3290   -1.7624   -1.1998 H   0  0  0  0  0  0  0  0  0  0  0  0
   -1.4391   -1.4699    0.3010 H   0  0  0  0  0  0  0  0  0  0  0  0
   -1.1354    1.6774   -0.5348 H   0  0  0  0  0  0  0  0  0  0  0  0
    0.2747    1.2624   -1.5656 H   0  0  0  0  0  0  0  0  0  0  0  0
    0.8410    1.5967    0.7029 H   0  0  0  0  0  0  0  0  0  0  0  0
   -0.2353    0.3399    1.3234 H   0  0  0  0  0  0  0  0  0  0  0  0
    3.2544    0.8117    0.8846 H   0  0  0  0  0  0  0  0  0  0  0  0
    2.9752    0.7310   -0.8866 H   0  0  0  0  0  0  0  0  0  0  0  0
    4.6702   -0.6908    0.2325 H   0  0  0  0  0  0  0  0  0  0  0  0
  1  2  1  0
  2  3  1  0
  3  4  1  0
  4  5  1  0
  5  6  1  0
  6  7  2  0
  6  8  1  0
  8  9  1  0
  1 10  1  0
  1 11  1  0
  1 12  1  0
  2 13  1  0
  2 14  1  0
  4 15  1  0
  4 16  1  0
  5 17  1  0
  5 18  1  0
  8 19  1  0
  8 20  1  0
  9 21  1  0
M  END
