
     RDKit          3D

 20 19  0  0  0  0  0  0  0  0999 V2000
    3.0465    0.5063    0.4942 C   0  0  0  0  0  0  0  0  0  0  0  0
    1.7949    0.0194   -0.1639 C   0  0  0  0  0  0  0  0  0  0  0  0
    0.6422    0.4723    0.4722 O   0  0  0  0  0  0  0  0  0  0  0  0
   -0.4962    0.0109   -0.1519 C   0  0  0  0  0  0  0  0  0  0  0  0
   -1.3410    1.1681   -0.6412 C   0  0  0  0  0  0  0  0  0  0  0  0
   -1.3501   -0.8084    0.7969 C   0  0  0  0  0  0  0  0  0  0  0  0
   -2.5736   -1.3023    0.1207 C   0  0  0  0  0  0  0  0  0  0  0  0
   -3.3497   -1.9752    0.7678 O   0  0  0  0  0  0  0  0  0  0  0  0
    2.9444    0.6352    1.5920 H   0  0  0  0  0  0  0  0  0  0  0  0
    3.8276   -0.2787    0.3572 H   0  0  0  0  0  0  0  0  0  0  0  0
    3.4346    1.4152   -0.0069 H   0  0  0  0  0  0  0  0  0  0  0  0
    1.7709    0.4392   -1.1966 H   0  0  0  0  0  0  0  0  0  0  0  0
    1.8068   -1.0744   -0.2612 H   0  0  0  0  0  0  0  0  0  0  0  0
   -0.2094   -0.6165   -1.0196 H   0  0  0  0  0  0  0  0  0  0  0  0
   -1.8414    0.9041   -1.6038 H   0  0  0  0  0  0  0  0  0  0  0  0
   -2.1168    1.3855    0.1213 H   0  0  0  0  0  0  0  0  0  0  0  0
   -0.7247    2.0679   -0.8465 H   0  0  0  0  0  0  0  0  0  0  0  0
   -0.7971   -1.7031    1.1625 H   0  0  0  0  0  0  0  0  0  0  0  0
   -1.6603   -0.1698    1.6447 H   0  0  0  0  0  0  0  0  0  0  0  0
   -2.8074   -1.0956   -0.9102 H   0  0  0  0  0  0  0  0  0  0  0  0
  1  2  1  0
  2  3  1  0
  3  4  1  0
  4  5  1  0
  4  6  1  0
  6  7  1  0
  7  8  2  0
  1  9  1  0
  1 10  1  0
  1 11  1  0
  2 12  1  0
  2 13  1  0
  4 14  1  0
  5 15  1  0
  5 16  1  0
  5 17  1  0
  6 18  1  0
  6 19  1  0
  7 20  1  0
M  END
