
     RDKit          3D

 23 24  0  0  0  0  0  0  0  0999 V2000
    2.8554   -0.0026    0.4185 C   0  0  0  0  0  0  0  0  0  0  0  0
    2.0205   -1.1174   -0.1252 C   0  0  0  0  0  0  0  0  0  0  0  0
    0.7001   -1.0812    0.3404 O   0  0  0  0  0  0  0  0  0  0  0  0
    0.0782    0.0893   -0.0139 C   0  0  0  0  0  0  0  0  0  0  0  0
   -1.2551   -0.0216   -0.6837 C   0  0  0  0  0  0  0  0  0  0  0  0
   -1.8053   -1.4178   -0.8289 C   0  0  0  0  0  0  0  0  0  0  0  0
   -1.8847    0.7035    0.4680 C   0  0  0  0  0  0  0  0  0  0  0  0
   -1.3863    2.0475    0.7644 C   0  0  0  0  0  0  0  0  0  0  0  0
   -0.5330    0.8869    1.1169 C   0  0  0  0  0  0  0  0  0  0  0  0
    2.5276    0.3422    1.4229 H   0  0  0  0  0  0  0  0  0  0  0  0
    3.9315   -0.3045    0.5494 H   0  0  0  0  0  0  0  0  0  0  0  0
    2.8618    0.8838   -0.2614 H   0  0  0  0  0  0  0  0  0  0  0  0
    2.5028   -2.0773    0.0499 H   0  0  0  0  0  0  0  0  0  0  0  0
    1.9472   -0.9811   -1.2378 H   0  0  0  0  0  0  0  0  0  0  0  0
    0.7731    0.7515   -0.5979 H   0  0  0  0  0  0  0  0  0  0  0  0
   -1.3807    0.5534   -1.6268 H   0  0  0  0  0  0  0  0  0  0  0  0
   -2.8445   -1.3123   -1.2234 H   0  0  0  0  0  0  0  0  0  0  0  0
   -1.1740   -2.0814   -1.4274 H   0  0  0  0  0  0  0  0  0  0  0  0
   -1.8995   -1.9046    0.1836 H   0  0  0  0  0  0  0  0  0  0  0  0
   -2.6611    0.2035    1.0817 H   0  0  0  0  0  0  0  0  0  0  0  0
   -1.0879    2.6660   -0.1274 H   0  0  0  0  0  0  0  0  0  0  0  0
   -1.8490    2.6328    1.5594 H   0  0  0  0  0  0  0  0  0  0  0  0
   -0.4371    0.5413    2.1458 H   0  0  0  0  0  0  0  0  0  0  0  0
  1  2  1  0
  2  3  1  0
  3  4  1  0
  4  5  1  0
  5  6  1  0
  5  7  1  0
  7  8  1  0
  8  9  1  0
  9  4  1  0
  9  7  1  0
  1 10  1  0
  1 11  1  0
  1 12  1  0
  2 13  1  0
  2 14  1  0
  4 15  1  0
  5 16  1  0
  6 17  1  0
  6 18  1  0
  6 19  1  0
  7 20  1  0
  8 21  1  0
  8 22  1  0
  9 23  1  0
M  END
