
     RDKit          3D

 20 19  0  0  0  0  0  0  0  0999 V2000
   -2.4021    0.3722    0.2715 C   0  0  0  0  0  0  0  0  0  0  0  0
   -1.7456   -0.5918   -0.6876 C   0  0  0  0  0  0  0  0  0  0  0  0
   -0.3989   -0.4184   -0.8474 O   0  0  0  0  0  0  0  0  0  0  0  0
    0.3649   -0.5598    0.2986 C   0  0  0  0  0  0  0  0  0  0  0  0
    1.3294   -1.6986    0.1769 C   0  0  0  0  0  0  0  0  0  0  0  0
    2.0909   -1.9833    1.0847 O   0  0  0  0  0  0  0  0  0  0  0  0
    1.0712    0.7328    0.6107 C   0  0  0  0  0  0  0  0  0  0  0  0
    1.9881    1.1994   -0.4585 C   0  0  0  0  0  0  0  0  0  0  0  0
   -2.5048    1.3801   -0.1752 H   0  0  0  0  0  0  0  0  0  0  0  0
   -1.8903    0.4832    1.2227 H   0  0  0  0  0  0  0  0  0  0  0  0
   -3.4177   -0.0616    0.5077 H   0  0  0  0  0  0  0  0  0  0  0  0
   -2.0336   -1.6119   -0.3631 H   0  0  0  0  0  0  0  0  0  0  0  0
   -2.2192   -0.4086   -1.6832 H   0  0  0  0  0  0  0  0  0  0  0  0
   -0.3214   -0.7994    1.1351 H   0  0  0  0  0  0  0  0  0  0  0  0
    1.3930   -2.3156   -0.7166 H   0  0  0  0  0  0  0  0  0  0  0  0
    0.3042    1.5086    0.8094 H   0  0  0  0  0  0  0  0  0  0  0  0
    1.6209    0.6108    1.5843 H   0  0  0  0  0  0  0  0  0  0  0  0
    1.4657    1.7893   -1.2521 H   0  0  0  0  0  0  0  0  0  0  0  0
    2.6007    0.4370   -0.9335 H   0  0  0  0  0  0  0  0  0  0  0  0
    2.7045    1.9355    0.0079 H   0  0  0  0  0  0  0  0  0  0  0  0
  1  2  1  0
  2  3  1  0
  3  4  1  0
  4  5  1  0
  5  6  2  0
  4  7  1  0
  7  8  1  0
  1  9  1  0
  1 10  1  0
  1 11  1  0
  2 12  1  0
  2 13  1  0
  4 14  1  0
  5 15  1  0
  7 16  1  0
  7 17  1  0
  8 18  1  0
  8 19  1  0
  8 20  1  0
M  END
