
     RDKit          3D

 27 26  0  0  0  0  0  0  0  0999 V2000
    3.3030    0.6867    0.1238 C   0  0  0  0  0  0  0  0  0  0  0  0
    1.7867    0.5894    0.3955 C   0  0  0  0  0  0  0  0  0  0  0  0
    1.1467   -0.0804   -0.5937 O   0  0  0  0  0  0  0  0  0  0  0  0
   -0.1992   -0.2948   -0.4937 C   0  0  0  0  0  0  0  0  0  0  0  0
   -0.5456   -1.0833   -1.7841 C   0  0  0  0  0  0  0  0  0  0  0  0
   -0.4337   -1.2935    0.6142 C   0  0  0  0  0  0  0  0  0  0  0  0
   -1.9075   -1.5983    0.8030 C   0  0  0  0  0  0  0  0  0  0  0  0
   -1.1121    0.8547   -0.5012 C   0  0  0  0  0  0  0  0  0  0  0  0
   -1.0272    1.8871    0.5413 C   0  0  0  0  0  0  0  0  0  0  0  0
    3.8388   -0.0813    0.7448 H   0  0  0  0  0  0  0  0  0  0  0  0
    3.6697    1.6664    0.4935 H   0  0  0  0  0  0  0  0  0  0  0  0
    3.5363    0.4803   -0.9222 H   0  0  0  0  0  0  0  0  0  0  0  0
    1.6831    0.1233    1.3730 H   0  0  0  0  0  0  0  0  0  0  0  0
    1.4192    1.6596    0.3617 H   0  0  0  0  0  0  0  0  0  0  0  0
    0.1675   -1.8910   -1.9304 H   0  0  0  0  0  0  0  0  0  0  0  0
   -1.6098   -1.3986   -1.7613 H   0  0  0  0  0  0  0  0  0  0  0  0
   -0.4483   -0.3575   -2.6317 H   0  0  0  0  0  0  0  0  0  0  0  0
    0.0363   -2.2676    0.3557 H   0  0  0  0  0  0  0  0  0  0  0  0
   -0.0366   -0.9875    1.5830 H   0  0  0  0  0  0  0  0  0  0  0  0
   -1.9593   -2.2655    1.7087 H   0  0  0  0  0  0  0  0  0  0  0  0
   -2.3269   -2.1931   -0.0247 H   0  0  0  0  0  0  0  0  0  0  0  0
   -2.4963   -0.6914    1.0416 H   0  0  0  0  0  0  0  0  0  0  0  0
   -2.1910    0.5117   -0.5772 H   0  0  0  0  0  0  0  0  0  0  0  0
   -0.9856    1.3882   -1.4972 H   0  0  0  0  0  0  0  0  0  0  0  0
   -0.6258    1.5800    1.5260 H   0  0  0  0  0  0  0  0  0  0  0  0
   -0.5888    2.8678    0.2428 H   0  0  0  0  0  0  0  0  0  0  0  0
   -2.0934    2.1887    0.8091 H   0  0  0  0  0  0  0  0  0  0  0  0
  1  2  1  0
  2  3  1  0
  3  4  1  0
  4  5  1  0
  4  6  1  0
  6  7  1  0
  4  8  1  0
  8  9  1  0
  1 10  1  0
  1 11  1  0
  1 12  1  0
  2 13  1  0
  2 14  1  0
  5 15  1  0
  5 16  1  0
  5 17  1  0
  6 18  1  0
  6 19  1  0
  7 20  1  0
  7 21  1  0
  7 22  1  0
  8 23  1  0
  8 24  1  0
  9 25  1  0
  9 26  1  0
  9 27  1  0
M  END
