
     RDKit          3D

 23 23  0  0  0  0  0  0  0  0999 V2000
   -2.8302    1.1447   -0.9512 C   0  0  0  0  0  0  0  0  0  0  0  0
   -1.8592    0.5493    0.0443 C   0  0  0  0  0  0  0  0  0  0  0  0
   -0.9400   -0.2840   -0.5439 O   0  0  0  0  0  0  0  0  0  0  0  0
   -0.0944   -0.7858    0.4183 C   0  0  0  0  0  0  0  0  0  0  0  0
   -0.3078   -2.3032    0.4467 C   0  0  0  0  0  0  0  0  0  0  0  0
    1.3692   -0.5715    0.1044 C   0  0  0  0  0  0  0  0  0  0  0  0
    1.7105    0.8941   -0.0279 C   0  0  0  0  0  0  0  0  0  0  0  0
    3.1619    1.1696   -0.3421 C   0  0  0  0  0  0  0  0  0  0  0  0
    2.4775    1.5084    0.9345 O   0  0  0  0  0  0  0  0  0  0  0  0
   -3.6406    1.6273   -0.3782 H   0  0  0  0  0  0  0  0  0  0  0  0
   -3.3097    0.3298   -1.5420 H   0  0  0  0  0  0  0  0  0  0  0  0
   -2.3816    1.9003   -1.5970 H   0  0  0  0  0  0  0  0  0  0  0  0
   -2.4619   -0.0668    0.7523 H   0  0  0  0  0  0  0  0  0  0  0  0
   -1.4017    1.3736    0.6188 H   0  0  0  0  0  0  0  0  0  0  0  0
   -0.3559   -0.4023    1.4168 H   0  0  0  0  0  0  0  0  0  0  0  0
    0.3404   -2.6990    1.2420 H   0  0  0  0  0  0  0  0  0  0  0  0
   -1.3756   -2.5560    0.5844 H   0  0  0  0  0  0  0  0  0  0  0  0
   -0.0187   -2.6964   -0.5653 H   0  0  0  0  0  0  0  0  0  0  0  0
    1.9413   -1.0472    0.9227 H   0  0  0  0  0  0  0  0  0  0  0  0
    1.6131   -1.0765   -0.8347 H   0  0  0  0  0  0  0  0  0  0  0  0
    1.0049    1.5560   -0.5676 H   0  0  0  0  0  0  0  0  0  0  0  0
    3.4519    2.0525   -0.9146 H   0  0  0  0  0  0  0  0  0  0  0  0
    3.9065    0.3831   -0.0921 H   0  0  0  0  0  0  0  0  0  0  0  0
  1  2  1  0
  2  3  1  0
  3  4  1  0
  4  5  1  0
  4  6  1  0
  6  7  1  0
  7  8  1  0
  8  9  1  0
  9  7  1  0
  1 10  1  0
  1 11  1  0
  1 12  1  0
  2 13  1  0
  2 14  1  0
  4 15  1  0
  5 16  1  0
  5 17  1  0
  5 18  1  0
  6 19  1  0
  6 20  1  0
  7 21  1  0
  8 22  1  0
  8 23  1  0
M  END
