
     RDKit          3D

 21 22  0  0  0  0  0  0  0  0999 V2000
    3.3809    0.1051   -0.0572 C   0  0  0  0  0  0  0  0  0  0  0  0
    2.0750   -0.5232   -0.4965 C   0  0  0  0  0  0  0  0  0  0  0  0
    1.0519    0.2817   -0.0518 O   0  0  0  0  0  0  0  0  0  0  0  0
   -0.2113   -0.1908   -0.3944 C   0  0  0  0  0  0  0  0  0  0  0  0
   -0.7786    0.7685   -1.1948 O   0  0  0  0  0  0  0  0  0  0  0  0
   -1.9314    1.2203   -0.6408 C   0  0  0  0  0  0  0  0  0  0  0  0
   -2.1609    0.5612    0.6727 C   0  0  0  0  0  0  0  0  0  0  0  0
   -2.3960   -0.9185    0.7382 C   0  0  0  0  0  0  0  0  0  0  0  0
   -1.0122   -0.3461    0.8428 C   0  0  0  0  0  0  0  0  0  0  0  0
    3.9151   -0.5232    0.6915 H   0  0  0  0  0  0  0  0  0  0  0  0
    3.2160    1.0914    0.4530 H   0  0  0  0  0  0  0  0  0  0  0  0
    4.0472    0.3154   -0.9148 H   0  0  0  0  0  0  0  0  0  0  0  0
    2.0505   -0.7013   -1.6001 H   0  0  0  0  0  0  0  0  0  0  0  0
    2.0471   -1.5513   -0.0418 H   0  0  0  0  0  0  0  0  0  0  0  0
   -0.1653   -1.1402   -0.9697 H   0  0  0  0  0  0  0  0  0  0  0  0
   -1.8688    2.3323   -0.4502 H   0  0  0  0  0  0  0  0  0  0  0  0
   -2.7722    1.1052   -1.3491 H   0  0  0  0  0  0  0  0  0  0  0  0
   -2.4957    1.1717    1.5234 H   0  0  0  0  0  0  0  0  0  0  0  0
   -2.5789   -1.4688   -0.2193 H   0  0  0  0  0  0  0  0  0  0  0  0
   -2.9114   -1.2778    1.6262 H   0  0  0  0  0  0  0  0  0  0  0  0
   -0.5009   -0.3116    1.8327 H   0  0  0  0  0  0  0  0  0  0  0  0
  1  2  1  0
  2  3  1  0
  3  4  1  0
  4  5  1  0
  5  6  1  0
  6  7  1  0
  7  8  1  0
  8  9  1  0
  9  4  1  0
  9  7  1  0
  1 10  1  0
  1 11  1  0
  1 12  1  0
  2 13  1  0
  2 14  1  0
  4 15  1  0
  6 16  1  0
  6 17  1  0
  7 18  1  0
  8 19  1  0
  8 20  1  0
  9 21  1  0
M  END
