
     RDKit          3D

 19 18  0  0  0  0  0  0  0  0999 V2000
   -1.1581    0.9379   -1.6788 C   0  0  0  0  0  0  0  0  0  0  0  0
   -1.4900   -0.4856   -1.4990 C   0  0  0  0  0  0  0  0  0  0  0  0
   -0.9063   -1.2350   -0.5608 O   0  0  0  0  0  0  0  0  0  0  0  0
   -0.9747   -0.9942    0.7475 C   0  0  0  0  0  0  0  0  0  0  0  0
   -0.3352    0.2790    1.1930 C   0  0  0  0  0  0  0  0  0  0  0  0
    1.1056    0.1766    0.8355 C   0  0  0  0  0  0  0  0  0  0  0  0
    2.2762    0.1124    0.5534 C   0  0  0  0  0  0  0  0  0  0  0  0
    3.6772    0.0372    0.2413 C   0  0  0  0  0  0  0  0  0  0  0  0
    4.5093    0.7270    0.8837 O   0  0  0  0  0  0  0  0  0  0  0  0
   -1.8966    1.6327   -1.1990 H   0  0  0  0  0  0  0  0  0  0  0  0
   -1.3224    1.1783   -2.7846 H   0  0  0  0  0  0  0  0  0  0  0  0
   -0.1145    1.1827   -1.5169 H   0  0  0  0  0  0  0  0  0  0  0  0
   -2.6300   -0.5377   -1.4233 H   0  0  0  0  0  0  0  0  0  0  0  0
   -1.2934   -1.0132   -2.4941 H   0  0  0  0  0  0  0  0  0  0  0  0
   -1.9904   -1.0616    1.2041 H   0  0  0  0  0  0  0  0  0  0  0  0
   -0.3859   -1.8165    1.2715 H   0  0  0  0  0  0  0  0  0  0  0  0
   -0.7436    1.2022    0.7965 H   0  0  0  0  0  0  0  0  0  0  0  0
   -0.4104    0.2737    2.3274 H   0  0  0  0  0  0  0  0  0  0  0  0
    4.0833   -0.5958   -0.5380 H   0  0  0  0  0  0  0  0  0  0  0  0
  1  2  1  0
  2  3  1  0
  3  4  1  0
  4  5  1  0
  5  6  1  0
  6  7  3  0
  7  8  1  0
  8  9  2  0
  1 10  1  0
  1 11  1  0
  1 12  1  0
  2 13  1  0
  2 14  1  0
  4 15  1  0
  4 16  1  0
  5 17  1  0
  5 18  1  0
  8 19  1  0
M  END
