
     RDKit          3D

 21 22  0  0  0  0  0  0  0  0999 V2000
    3.2166    0.0129    0.2146 C   0  0  0  0  0  0  0  0  0  0  0  0
    1.7820   -0.4698    0.0924 C   0  0  0  0  0  0  0  0  0  0  0  0
    0.8876    0.5601    0.2153 O   0  0  0  0  0  0  0  0  0  0  0  0
   -0.3922    0.2942    0.1308 C   0  0  0  0  0  0  0  0  0  0  0  0
   -1.0792   -0.6309    1.0650 C   0  0  0  0  0  0  0  0  0  0  0  0
   -2.3549   -0.6237    0.5990 C   0  0  0  0  0  0  0  0  0  0  0  0
   -2.2688    0.2827   -0.5628 C   0  0  0  0  0  0  0  0  0  0  0  0
   -1.4100    1.4065    0.0008 C   0  0  0  0  0  0  0  0  0  0  0  0
   -0.9648   -0.2099   -1.2072 C   0  0  0  0  0  0  0  0  0  0  0  0
    3.4329    0.3802    1.2420 H   0  0  0  0  0  0  0  0  0  0  0  0
    3.9175   -0.8069    0.0127 H   0  0  0  0  0  0  0  0  0  0  0  0
    3.4440    0.8393   -0.4695 H   0  0  0  0  0  0  0  0  0  0  0  0
    1.6711   -0.9258   -0.9137 H   0  0  0  0  0  0  0  0  0  0  0  0
    1.6308   -1.2677    0.8463 H   0  0  0  0  0  0  0  0  0  0  0  0
   -0.6896   -1.1827    1.9086 H   0  0  0  0  0  0  0  0  0  0  0  0
   -3.2085   -1.1599    0.9990 H   0  0  0  0  0  0  0  0  0  0  0  0
   -3.0893    0.4995   -1.1735 H   0  0  0  0  0  0  0  0  0  0  0  0
   -1.1686    2.2116   -0.6888 H   0  0  0  0  0  0  0  0  0  0  0  0
   -1.7267    1.7278    1.0343 H   0  0  0  0  0  0  0  0  0  0  0  0
   -0.6385    0.3587   -2.0745 H   0  0  0  0  0  0  0  0  0  0  0  0
   -0.9918   -1.2963   -1.2708 H   0  0  0  0  0  0  0  0  0  0  0  0
  1  2  1  0
  2  3  1  0
  3  4  1  0
  4  5  1  0
  5  6  2  0
  6  7  1  0
  7  8  1  0
  7  9  1  0
  8  4  1  0
  9  4  1  0
  1 10  1  0
  1 11  1  0
  1 12  1  0
  2 13  1  0
  2 14  1  0
  5 15  1  0
  6 16  1  0
  7 17  1  0
  8 18  1  0
  8 19  1  0
  9 20  1  0
  9 21  1  0
M  END
