
     RDKit          3D

 22 21  0  0  0  0  0  0  0  0999 V2000
    3.7255    0.9665    0.0991 C   0  0  0  0  0  0  0  0  0  0  0  0
    2.6033   -0.0399    0.2797 C   0  0  0  0  0  0  0  0  0  0  0  0
    1.4082    0.6100   -0.0985 O   0  0  0  0  0  0  0  0  0  0  0  0
    0.3927   -0.3506    0.0815 C   0  0  0  0  0  0  0  0  0  0  0  0
   -0.9569    0.2472   -0.3006 C   0  0  0  0  0  0  0  0  0  0  0  0
   -1.9888   -0.8138   -0.0896 C   0  0  0  0  0  0  0  0  0  0  0  0
   -3.3843   -0.3552   -0.4317 C   0  0  0  0  0  0  0  0  0  0  0  0
   -3.8046    0.7206    0.3162 O   0  0  0  0  0  0  0  0  0  0  0  0
    4.6561    0.4755    0.4279 H   0  0  0  0  0  0  0  0  0  0  0  0
    3.5204    1.8360    0.7674 H   0  0  0  0  0  0  0  0  0  0  0  0
    3.7389    1.2619   -0.9661 H   0  0  0  0  0  0  0  0  0  0  0  0
    2.5371   -0.3862    1.3297 H   0  0  0  0  0  0  0  0  0  0  0  0
    2.7885   -0.9079   -0.4047 H   0  0  0  0  0  0  0  0  0  0  0  0
    0.6229   -1.2413   -0.5411 H   0  0  0  0  0  0  0  0  0  0  0  0
    0.4087   -0.6571    1.1461 H   0  0  0  0  0  0  0  0  0  0  0  0
   -1.1358    1.1115    0.3558 H   0  0  0  0  0  0  0  0  0  0  0  0
   -0.9031    0.5748   -1.3470 H   0  0  0  0  0  0  0  0  0  0  0  0
   -1.9012   -1.2065    0.9358 H   0  0  0  0  0  0  0  0  0  0  0  0
   -1.7486   -1.6607   -0.7727 H   0  0  0  0  0  0  0  0  0  0  0  0
   -4.0607   -1.2348   -0.3537 H   0  0  0  0  0  0  0  0  0  0  0  0
   -3.3796   -0.0532   -1.5019 H   0  0  0  0  0  0  0  0  0  0  0  0
   -3.1384    1.1030    0.9164 H   0  0  0  0  0  0  0  0  0  0  0  0
  1  2  1  0
  2  3  1  0
  3  4  1  0
  4  5  1  0
  5  6  1  0
  6  7  1  0
  7  8  1  0
  1  9  1  0
  1 10  1  0
  1 11  1  0
  2 12  1  0
  2 13  1  0
  4 14  1  0
  4 15  1  0
  5 16  1  0
  5 17  1  0
  6 18  1  0
  6 19  1  0
  7 20  1  0
  7 21  1  0
  8 22  1  0
M  END
