
     RDKit          3D

 21 21  0  0  0  0  0  0  0  0999 V2000
    3.5966    0.6619    0.3055 C   0  0  0  0  0  0  0  0  0  0  0  0
    2.3425    0.0160   -0.2199 C   0  0  0  0  0  0  0  0  0  0  0  0
    1.2602    0.1697    0.6326 O   0  0  0  0  0  0  0  0  0  0  0  0
    0.1641   -0.4629    0.0485 C   0  0  0  0  0  0  0  0  0  0  0  0
   -0.8702    0.5723   -0.1767 C   0  0  0  0  0  0  0  0  0  0  0  0
   -2.0444   -0.0070   -0.0469 C   0  0  0  0  0  0  0  0  0  0  0  0
   -3.3578    0.6286   -0.1845 C   0  0  0  0  0  0  0  0  0  0  0  0
   -1.7198   -1.4451    0.2774 C   0  0  0  0  0  0  0  0  0  0  0  0
   -0.4610   -1.3525    0.9009 O   0  0  0  0  0  0  0  0  0  0  0  0
    3.9885    0.1544    1.2119 H   0  0  0  0  0  0  0  0  0  0  0  0
    3.4526    1.7574    0.4984 H   0  0  0  0  0  0  0  0  0  0  0  0
    4.3755    0.5553   -0.4779 H   0  0  0  0  0  0  0  0  0  0  0  0
    2.1537    0.4456   -1.2274 H   0  0  0  0  0  0  0  0  0  0  0  0
    2.5703   -1.0592   -0.3680 H   0  0  0  0  0  0  0  0  0  0  0  0
    0.4277   -0.9178   -0.9259 H   0  0  0  0  0  0  0  0  0  0  0  0
   -0.6750    1.6132   -0.4058 H   0  0  0  0  0  0  0  0  0  0  0  0
   -3.5995    1.2231    0.7304 H   0  0  0  0  0  0  0  0  0  0  0  0
   -3.3183    1.3444   -1.0512 H   0  0  0  0  0  0  0  0  0  0  0  0
   -4.1465   -0.1030   -0.4312 H   0  0  0  0  0  0  0  0  0  0  0  0
   -1.6424   -1.9886   -0.6795 H   0  0  0  0  0  0  0  0  0  0  0  0
   -2.4967   -1.8059    0.9452 H   0  0  0  0  0  0  0  0  0  0  0  0
  1  2  1  0
  2  3  1  0
  3  4  1  0
  4  5  1  0
  5  6  2  0
  6  7  1  0
  6  8  1  0
  8  9  1  0
  9  4  1  0
  1 10  1  0
  1 11  1  0
  1 12  1  0
  2 13  1  0
  2 14  1  0
  4 15  1  0
  5 16  1  0
  7 17  1  0
  7 18  1  0
  7 19  1  0
  8 20  1  0
  8 21  1  0
M  END
