
     RDKit          3D

 18 17  0  0  0  0  0  0  0  0999 V2000
   -3.2706    0.4885   -0.4031 C   0  0  0  0  0  0  0  0  0  0  0  0
   -2.1632   -0.5439   -0.3499 C   0  0  0  0  0  0  0  0  0  0  0  0
   -0.9619    0.1173   -0.2264 O   0  0  0  0  0  0  0  0  0  0  0  0
    0.1345   -0.7129   -0.1666 C   0  0  0  0  0  0  0  0  0  0  0  0
    1.3484    0.1250   -0.0356 C   0  0  0  0  0  0  0  0  0  0  0  0
    1.2840    1.3971    0.0060 O   0  0  0  0  0  0  0  0  0  0  0  0
    2.6354   -0.4030    0.0511 O   0  0  0  0  0  0  0  0  0  0  0  0
    3.7752    0.4353    0.1761 C   0  0  0  0  0  0  0  0  0  0  0  0
   -2.8687    1.5155   -0.3344 H   0  0  0  0  0  0  0  0  0  0  0  0
   -3.9747    0.3841    0.4652 H   0  0  0  0  0  0  0  0  0  0  0  0
   -3.8120    0.4348   -1.3746 H   0  0  0  0  0  0  0  0  0  0  0  0
   -2.3582   -1.2230    0.5284 H   0  0  0  0  0  0  0  0  0  0  0  0
   -2.2114   -1.1780   -1.2487 H   0  0  0  0  0  0  0  0  0  0  0  0
   -0.0147   -1.3714    0.7382 H   0  0  0  0  0  0  0  0  0  0  0  0
    0.1966   -1.4264   -1.0210 H   0  0  0  0  0  0  0  0  0  0  0  0
    3.6997    1.1134    1.0461 H   0  0  0  0  0  0  0  0  0  0  0  0
    3.9162    1.0764   -0.7154 H   0  0  0  0  0  0  0  0  0  0  0  0
    4.6453   -0.2288    0.3307 H   0  0  0  0  0  0  0  0  0  0  0  0
  1  2  1  0
  2  3  1  0
  3  4  1  0
  4  5  1  0
  5  6  2  0
  5  7  1  0
  7  8  1  0
  1  9  1  0
  1 10  1  0
  1 11  1  0
  2 12  1  0
  2 13  1  0
  4 14  1  0
  4 15  1  0
  8 16  1  0
  8 17  1  0
  8 18  1  0
M  END
