
     RDKit          3D

 23 24  0  0  0  0  0  0  0  0999 V2000
    3.4330    0.2816    0.1577 C   0  0  0  0  0  0  0  0  0  0  0  0
    2.1668    0.2735   -0.6883 C   0  0  0  0  0  0  0  0  0  0  0  0
    1.1144    0.0027    0.1514 O   0  0  0  0  0  0  0  0  0  0  0  0
   -0.1144   -0.0356   -0.4919 C   0  0  0  0  0  0  0  0  0  0  0  0
   -0.7158   -1.3988   -0.2236 C   0  0  0  0  0  0  0  0  0  0  0  0
   -1.8887   -1.2032    0.6804 C   0  0  0  0  0  0  0  0  0  0  0  0
   -1.9679    0.2788    0.9854 C   0  0  0  0  0  0  0  0  0  0  0  0
   -2.4302    1.1165   -0.1686 C   0  0  0  0  0  0  0  0  0  0  0  0
   -1.0056    0.9828    0.1371 C   0  0  0  0  0  0  0  0  0  0  0  0
    3.2035    0.2190    1.2417 H   0  0  0  0  0  0  0  0  0  0  0  0
    3.9146    1.2742   -0.0053 H   0  0  0  0  0  0  0  0  0  0  0  0
    4.1048   -0.5585   -0.0853 H   0  0  0  0  0  0  0  0  0  0  0  0
    2.2252   -0.5827   -1.4193 H   0  0  0  0  0  0  0  0  0  0  0  0
    2.0575    1.1887   -1.2839 H   0  0  0  0  0  0  0  0  0  0  0  0
   -0.0304    0.1619   -1.5865 H   0  0  0  0  0  0  0  0  0  0  0  0
    0.0477   -2.1098    0.1930 H   0  0  0  0  0  0  0  0  0  0  0  0
   -0.9945   -1.8435   -1.2186 H   0  0  0  0  0  0  0  0  0  0  0  0
   -1.8669   -1.8278    1.5805 H   0  0  0  0  0  0  0  0  0  0  0  0
   -2.8100   -1.4415    0.0726 H   0  0  0  0  0  0  0  0  0  0  0  0
   -2.1518    0.6030    2.0298 H   0  0  0  0  0  0  0  0  0  0  0  0
   -2.9325    0.6089   -1.0097 H   0  0  0  0  0  0  0  0  0  0  0  0
   -2.8927    2.1208    0.0432 H   0  0  0  0  0  0  0  0  0  0  0  0
   -0.4662    1.8890    0.5386 H   0  0  0  0  0  0  0  0  0  0  0  0
  1  2  1  0
  2  3  1  0
  3  4  1  0
  4  5  1  0
  5  6  1  0
  6  7  1  0
  7  8  1  0
  8  9  1  0
  9  4  1  0
  9  7  1  0
  1 10  1  0
  1 11  1  0
  1 12  1  0
  2 13  1  0
  2 14  1  0
  4 15  1  0
  5 16  1  0
  5 17  1  0
  6 18  1  0
  6 19  1  0
  7 20  1  0
  8 21  1  0
  8 22  1  0
  9 23  1  0
M  END
