
     RDKit          3D

 21 20  0  0  0  0  0  0  0  0999 V2000
    2.7019    0.0311   -0.5412 C   0  0  0  0  0  0  0  0  0  0  0  0
    2.0395    1.3138   -0.1604 C   0  0  0  0  0  0  0  0  0  0  0  0
    1.0669    1.1723    0.8223 O   0  0  0  0  0  0  0  0  0  0  0  0
    0.0973    0.3022    0.3161 C   0  0  0  0  0  0  0  0  0  0  0  0
   -1.0203    0.0633    1.2900 C   0  0  0  0  0  0  0  0  0  0  0  0
   -2.0040   -0.8853    0.6429 C   0  0  0  0  0  0  0  0  0  0  0  0
   -1.4115   -2.0832    0.3276 O   0  0  0  0  0  0  0  0  0  0  0  0
   -2.5407   -0.2534   -0.5853 C   0  0  0  0  0  0  0  0  0  0  0  0
   -3.1016    0.8161   -0.5022 O   0  0  0  0  0  0  0  0  0  0  0  0
    2.6552   -0.6906    0.2966 H   0  0  0  0  0  0  0  0  0  0  0  0
    2.2638   -0.4555   -1.4381 H   0  0  0  0  0  0  0  0  0  0  0  0
    3.7807    0.2761   -0.7647 H   0  0  0  0  0  0  0  0  0  0  0  0
    2.7598    2.0803    0.2214 H   0  0  0  0  0  0  0  0  0  0  0  0
    1.6169    1.7708   -1.0978 H   0  0  0  0  0  0  0  0  0  0  0  0
    0.6291   -0.6379    0.0631 H   0  0  0  0  0  0  0  0  0  0  0  0
   -0.2549    0.7437   -0.6298 H   0  0  0  0  0  0  0  0  0  0  0  0
   -0.6955   -0.2891    2.2650 H   0  0  0  0  0  0  0  0  0  0  0  0
   -1.5281    1.0486    1.4462 H   0  0  0  0  0  0  0  0  0  0  0  0
   -2.8280   -1.0928    1.3709 H   0  0  0  0  0  0  0  0  0  0  0  0
   -1.8046   -2.4731   -0.4897 H   0  0  0  0  0  0  0  0  0  0  0  0
   -2.4218   -0.7574   -1.5296 H   0  0  0  0  0  0  0  0  0  0  0  0
  1  2  1  0
  2  3  1  0
  3  4  1  0
  4  5  1  0
  5  6  1  0
  6  7  1  0
  6  8  1  0
  8  9  2  0
  1 10  1  0
  1 11  1  0
  1 12  1  0
  2 13  1  0
  2 14  1  0
  4 15  1  0
  4 16  1  0
  5 17  1  0
  5 18  1  0
  6 19  1  0
  7 20  1  0
  8 21  1  0
M  END
