
     RDKit          3D

 21 21  0  0  0  0  0  0  0  0999 V2000
    2.6874   -0.1066   -0.3345 C   0  0  0  0  0  0  0  0  0  0  0  0
    1.8068   -0.2026    0.8905 C   0  0  0  0  0  0  0  0  0  0  0  0
    0.5132   -0.5424    0.5671 O   0  0  0  0  0  0  0  0  0  0  0  0
   -0.0971    0.3713   -0.2777 C   0  0  0  0  0  0  0  0  0  0  0  0
   -0.5989   -0.3808   -1.4570 C   0  0  0  0  0  0  0  0  0  0  0  0
   -1.7899   -0.8832   -1.1664 C   0  0  0  0  0  0  0  0  0  0  0  0
   -2.1873   -0.5157    0.2186 C   0  0  0  0  0  0  0  0  0  0  0  0
   -1.3934    0.7917    0.3784 C   0  0  0  0  0  0  0  0  0  0  0  0
   -1.2272    1.0915    1.7234 O   0  0  0  0  0  0  0  0  0  0  0  0
    2.3807   -0.8090   -1.1390 H   0  0  0  0  0  0  0  0  0  0  0  0
    3.7388   -0.4043   -0.0579 H   0  0  0  0  0  0  0  0  0  0  0  0
    2.7824    0.9373   -0.7103 H   0  0  0  0  0  0  0  0  0  0  0  0
    2.2195   -1.0399    1.5066 H   0  0  0  0  0  0  0  0  0  0  0  0
    1.8986    0.7211    1.4641 H   0  0  0  0  0  0  0  0  0  0  0  0
    0.5470    1.2192   -0.5544 H   0  0  0  0  0  0  0  0  0  0  0  0
   -0.0184   -0.4568   -2.3719 H   0  0  0  0  0  0  0  0  0  0  0  0
   -2.3798   -1.4738   -1.8451 H   0  0  0  0  0  0  0  0  0  0  0  0
   -1.7411   -1.2119    0.9795 H   0  0  0  0  0  0  0  0  0  0  0  0
   -3.2583   -0.3646    0.3418 H   0  0  0  0  0  0  0  0  0  0  0  0
   -1.9346    1.5563   -0.1873 H   0  0  0  0  0  0  0  0  0  0  0  0
   -1.9483    1.7034    2.0315 H   0  0  0  0  0  0  0  0  0  0  0  0
  1  2  1  0
  2  3  1  0
  3  4  1  0
  4  5  1  0
  5  6  2  0
  6  7  1  0
  7  8  1  0
  8  9  1  0
  8  4  1  0
  1 10  1  0
  1 11  1  0
  1 12  1  0
  2 13  1  0
  2 14  1  0
  4 15  1  0
  5 16  1  0
  6 17  1  0
  7 18  1  0
  7 19  1  0
  8 20  1  0
  9 21  1  0
M  END
