
     RDKit          3D

 23 22  0  0  0  0  0  0  0  0999 V2000
   -2.3801    1.0894    0.5558 C   0  0  0  0  0  0  0  0  0  0  0  0
   -1.3815    1.1525   -0.5595 C   0  0  0  0  0  0  0  0  0  0  0  0
   -0.7736   -0.0124   -0.8646 O   0  0  0  0  0  0  0  0  0  0  0  0
   -0.0556   -0.6757    0.0792 C   0  0  0  0  0  0  0  0  0  0  0  0
   -0.6565   -2.0770    0.2582 C   0  0  0  0  0  0  0  0  0  0  0  0
    1.3358   -0.9011   -0.4501 C   0  0  0  0  0  0  0  0  0  0  0  0
    2.1128    0.3303   -0.7624 C   0  0  0  0  0  0  0  0  0  0  0  0
    2.3073    1.1139    0.4838 C   0  0  0  0  0  0  0  0  0  0  0  0
    1.4403    1.6816    1.1084 O   0  0  0  0  0  0  0  0  0  0  0  0
   -2.1707    1.9178    1.2855 H   0  0  0  0  0  0  0  0  0  0  0  0
   -2.3939    0.1097    1.0810 H   0  0  0  0  0  0  0  0  0  0  0  0
   -3.4212    1.2493    0.2095 H   0  0  0  0  0  0  0  0  0  0  0  0
   -1.9937    1.4328   -1.4811 H   0  0  0  0  0  0  0  0  0  0  0  0
   -0.7105    2.0268   -0.4462 H   0  0  0  0  0  0  0  0  0  0  0  0
   -0.0049   -0.1637    1.0602 H   0  0  0  0  0  0  0  0  0  0  0  0
    0.1111   -2.8748    0.2210 H   0  0  0  0  0  0  0  0  0  0  0  0
   -1.3658   -2.2727   -0.5695 H   0  0  0  0  0  0  0  0  0  0  0  0
   -1.1524   -2.1820    1.2578 H   0  0  0  0  0  0  0  0  0  0  0  0
    1.2291   -1.5484   -1.3711 H   0  0  0  0  0  0  0  0  0  0  0  0
    1.8702   -1.5713    0.2692 H   0  0  0  0  0  0  0  0  0  0  0  0
    1.6086    0.9688   -1.5167 H   0  0  0  0  0  0  0  0  0  0  0  0
    3.1097    0.0096   -1.1532 H   0  0  0  0  0  0  0  0  0  0  0  0
    3.3354    1.1966    0.8939 H   0  0  0  0  0  0  0  0  0  0  0  0
  1  2  1  0
  2  3  1  0
  3  4  1  0
  4  5  1  0
  4  6  1  0
  6  7  1  0
  7  8  1  0
  8  9  2  0
  1 10  1  0
  1 11  1  0
  1 12  1  0
  2 13  1  0
  2 14  1  0
  4 15  1  0
  5 16  1  0
  5 17  1  0
  5 18  1  0
  6 19  1  0
  6 20  1  0
  7 21  1  0
  7 22  1  0
  8 23  1  0
M  END
