
     RDKit          3D

 19 18  0  0  0  0  0  0  0  0999 V2000
    2.5811    0.3842   -0.9879 C   0  0  0  0  0  0  0  0  0  0  0  0
    1.3930    0.1069   -0.0402 C   0  0  0  0  0  0  0  0  0  0  0  0
    0.2222    0.1396   -0.7656 O   0  0  0  0  0  0  0  0  0  0  0  0
   -0.8647   -0.1116    0.0386 C   0  0  0  0  0  0  0  0  0  0  0  0
   -2.1512   -0.0483   -0.8190 C   0  0  0  0  0  0  0  0  0  0  0  0
   -0.7452   -1.4656    0.6202 C   0  0  0  0  0  0  0  0  0  0  0  0
   -1.5957   -1.8627    1.4147 O   0  0  0  0  0  0  0  0  0  0  0  0
   -0.9834    0.9648    1.0519 C   0  0  0  0  0  0  0  0  0  0  0  0
   -1.8635    0.9384    1.9227 O   0  0  0  0  0  0  0  0  0  0  0  0
    2.5508    1.4560   -1.2061 H   0  0  0  0  0  0  0  0  0  0  0  0
    2.4300   -0.1543   -1.9487 H   0  0  0  0  0  0  0  0  0  0  0  0
    3.4774    0.0492   -0.4365 H   0  0  0  0  0  0  0  0  0  0  0  0
    1.4598    0.9515    0.7020 H   0  0  0  0  0  0  0  0  0  0  0  0
    1.5582   -0.8338    0.4918 H   0  0  0  0  0  0  0  0  0  0  0  0
   -2.1210   -0.8792   -1.5545 H   0  0  0  0  0  0  0  0  0  0  0  0
   -2.9948   -0.2391   -0.1465 H   0  0  0  0  0  0  0  0  0  0  0  0
   -2.1497    0.9172   -1.3183 H   0  0  0  0  0  0  0  0  0  0  0  0
    0.0821   -2.0993    0.3468 H   0  0  0  0  0  0  0  0  0  0  0  0
   -0.2854    1.7863    1.0233 H   0  0  0  0  0  0  0  0  0  0  0  0
  1  2  1  0
  2  3  1  0
  3  4  1  0
  4  5  1  0
  4  6  1  0
  6  7  2  0
  4  8  1  0
  8  9  2  0
  1 10  1  0
  1 11  1  0
  1 12  1  0
  2 13  1  0
  2 14  1  0
  5 15  1  0
  5 16  1  0
  5 17  1  0
  6 18  1  0
  8 19  1  0
M  END
