
     RDKit          3D

 21 20  0  0  0  0  0  0  0  0999 V2000
    2.4679    1.5814   -0.5435 C   0  0  0  0  0  0  0  0  0  0  0  0
    1.7506    0.4625    0.1868 C   0  0  0  0  0  0  0  0  0  0  0  0
    0.6809    0.0762   -0.5796 O   0  0  0  0  0  0  0  0  0  0  0  0
   -0.0873   -0.9346   -0.0685 C   0  0  0  0  0  0  0  0  0  0  0  0
   -0.2606   -2.1163   -0.9726 C   0  0  0  0  0  0  0  0  0  0  0  0
   -1.4737   -0.3690    0.1892 C   0  0  0  0  0  0  0  0  0  0  0  0
   -1.4439    0.6904    1.0961 O   0  0  0  0  0  0  0  0  0  0  0  0
   -2.6038    1.3249    1.4490 C   0  0  0  0  0  0  0  0  0  0  0  0
   -3.6927    0.9168    0.9255 O   0  0  0  0  0  0  0  0  0  0  0  0
    2.2302    2.5468   -0.0818 H   0  0  0  0  0  0  0  0  0  0  0  0
    3.5857    1.4285   -0.5060 H   0  0  0  0  0  0  0  0  0  0  0  0
    2.2253    1.5630   -1.6355 H   0  0  0  0  0  0  0  0  0  0  0  0
    1.5126    0.8237    1.1819 H   0  0  0  0  0  0  0  0  0  0  0  0
    2.4737   -0.4035    0.1940 H   0  0  0  0  0  0  0  0  0  0  0  0
    0.2898   -1.2910    0.9147 H   0  0  0  0  0  0  0  0  0  0  0  0
   -0.9440   -1.8677   -1.8154 H   0  0  0  0  0  0  0  0  0  0  0  0
   -0.7495   -2.9238   -0.3825 H   0  0  0  0  0  0  0  0  0  0  0  0
    0.6570   -2.5260   -1.3844 H   0  0  0  0  0  0  0  0  0  0  0  0
   -2.1630   -1.1854    0.4817 H   0  0  0  0  0  0  0  0  0  0  0  0
   -1.8143    0.0379   -0.8077 H   0  0  0  0  0  0  0  0  0  0  0  0
   -2.6409    2.1652    2.1586 H   0  0  0  0  0  0  0  0  0  0  0  0
  1  2  1  0
  2  3  1  0
  3  4  1  0
  4  5  1  0
  4  6  1  0
  6  7  1  0
  7  8  1  0
  8  9  2  0
  1 10  1  0
  1 11  1  0
  1 12  1  0
  2 13  1  0
  2 14  1  0
  4 15  1  0
  5 16  1  0
  5 17  1  0
  5 18  1  0
  6 19  1  0
  6 20  1  0
  8 21  1  0
M  END
