
     RDKit          3D

 18 17  0  0  0  0  0  0  0  0999 V2000
   -2.4192    1.1912   -0.1931 C   0  0  0  0  0  0  0  0  0  0  0  0
   -1.5256   -0.0410   -0.1687 C   0  0  0  0  0  0  0  0  0  0  0  0
   -0.5185    0.2220    0.7064 O   0  0  0  0  0  0  0  0  0  0  0  0
    0.4126   -0.7589    0.9274 C   0  0  0  0  0  0  0  0  0  0  0  0
    1.1130   -1.1040   -0.3587 C   0  0  0  0  0  0  0  0  0  0  0  0
    1.7634    0.0307   -0.8927 O   0  0  0  0  0  0  0  0  0  0  0  0
    2.7513    0.7154   -0.2153 C   0  0  0  0  0  0  0  0  0  0  0  0
    3.1190    0.3476    0.9288 O   0  0  0  0  0  0  0  0  0  0  0  0
   -3.4446    0.9675   -0.5136 H   0  0  0  0  0  0  0  0  0  0  0  0
   -1.9850    1.9184   -0.9031 H   0  0  0  0  0  0  0  0  0  0  0  0
   -2.4994    1.6090    0.8434 H   0  0  0  0  0  0  0  0  0  0  0  0
   -2.0784   -0.9662    0.0021 H   0  0  0  0  0  0  0  0  0  0  0  0
   -1.0897   -0.1298   -1.2107 H   0  0  0  0  0  0  0  0  0  0  0  0
   -0.1363   -1.6777    1.2782 H   0  0  0  0  0  0  0  0  0  0  0  0
    1.1122   -0.5181    1.7499 H   0  0  0  0  0  0  0  0  0  0  0  0
    0.3557   -1.4662   -1.0762 H   0  0  0  0  0  0  0  0  0  0  0  0
    1.8787   -1.9131   -0.1975 H   0  0  0  0  0  0  0  0  0  0  0  0
    3.1906    1.5734   -0.7068 H   0  0  0  0  0  0  0  0  0  0  0  0
  1  2  1  0
  2  3  1  0
  3  4  1  0
  4  5  1  0
  5  6  1  0
  6  7  1  0
  7  8  2  0
  1  9  1  0
  1 10  1  0
  1 11  1  0
  2 12  1  0
  2 13  1  0
  4 14  1  0
  4 15  1  0
  5 16  1  0
  5 17  1  0
  7 18  1  0
M  END
