
     RDKit          3D

 25 24  0  0  0  0  0  0  0  0999 V2000
    3.3370    0.9684   -0.5861 C   0  0  0  0  0  0  0  0  0  0  0  0
    2.9825    0.5915    0.8254 C   0  0  0  0  0  0  0  0  0  0  0  0
    1.6492    0.3083    1.0029 O   0  0  0  0  0  0  0  0  0  0  0  0
    1.2742   -0.7526    0.1965 C   0  0  0  0  0  0  0  0  0  0  0  0
   -0.1669   -1.1240    0.3314 C   0  0  0  0  0  0  0  0  0  0  0  0
   -1.1221   -0.0376   -0.0143 C   0  0  0  0  0  0  0  0  0  0  0  0
   -2.5328   -0.5949    0.1810 C   0  0  0  0  0  0  0  0  0  0  0  0
   -3.5755    0.4539   -0.1516 C   0  0  0  0  0  0  0  0  0  0  0  0
   -2.6921   -1.6683   -0.6914 O   0  0  0  0  0  0  0  0  0  0  0  0
    3.4714    0.0957   -1.2525 H   0  0  0  0  0  0  0  0  0  0  0  0
    2.6600    1.7086   -1.0305 H   0  0  0  0  0  0  0  0  0  0  0  0
    4.3514    1.4626   -0.5315 H   0  0  0  0  0  0  0  0  0  0  0  0
    3.2521    1.4717    1.4733 H   0  0  0  0  0  0  0  0  0  0  0  0
    3.6604   -0.2229    1.1400 H   0  0  0  0  0  0  0  0  0  0  0  0
    1.5783   -0.5523   -0.8551 H   0  0  0  0  0  0  0  0  0  0  0  0
    1.8777   -1.6316    0.5204 H   0  0  0  0  0  0  0  0  0  0  0  0
   -0.3446   -1.4256    1.3800 H   0  0  0  0  0  0  0  0  0  0  0  0
   -0.3617   -1.9855   -0.3328 H   0  0  0  0  0  0  0  0  0  0  0  0
   -0.9973    0.8854    0.5678 H   0  0  0  0  0  0  0  0  0  0  0  0
   -1.0721    0.2419   -1.0995 H   0  0  0  0  0  0  0  0  0  0  0  0
   -2.6270   -0.9781    1.2029 H   0  0  0  0  0  0  0  0  0  0  0  0
   -3.5707    0.5709   -1.2551 H   0  0  0  0  0  0  0  0  0  0  0  0
   -3.4213    1.3963    0.3883 H   0  0  0  0  0  0  0  0  0  0  0  0
   -4.5559    0.0288    0.1321 H   0  0  0  0  0  0  0  0  0  0  0  0
   -3.0545   -1.3634   -1.5415 H   0  0  0  0  0  0  0  0  0  0  0  0
  1  2  1  0
  2  3  1  0
  3  4  1  0
  4  5  1  0
  5  6  1  0
  6  7  1  0
  7  8  1  0
  7  9  1  0
  1 10  1  0
  1 11  1  0
  1 12  1  0
  2 13  1  0
  2 14  1  0
  4 15  1  0
  4 16  1  0
  5 17  1  0
  5 18  1  0
  6 19  1  0
  6 20  1  0
  7 21  1  0
  8 22  1  0
  8 23  1  0
  8 24  1  0
  9 25  1  0
M  END
