
     RDKit          3D

 19 19  0  0  0  0  0  0  0  0999 V2000
   -3.0964   -0.3355   -0.1368 C   0  0  0  0  0  0  0  0  0  0  0  0
   -1.7094   -0.0255    0.3405 C   0  0  0  0  0  0  0  0  0  0  0  0
   -0.7656   -0.0363   -0.6970 O   0  0  0  0  0  0  0  0  0  0  0  0
    0.4452    0.2550   -0.1534 C   0  0  0  0  0  0  0  0  0  0  0  0
    1.2661    1.2980   -0.8210 C   0  0  0  0  0  0  0  0  0  0  0  0
    1.1430    2.2979   -1.4964 O   0  0  0  0  0  0  0  0  0  0  0  0
    2.4363    0.5532   -0.2760 C   0  0  0  0  0  0  0  0  0  0  0  0
    1.5840   -0.7044   -0.4874 C   0  0  0  0  0  0  0  0  0  0  0  0
    1.7882   -1.6993    0.4431 O   0  0  0  0  0  0  0  0  0  0  0  0
   -3.1211   -1.0892   -0.9290 H   0  0  0  0  0  0  0  0  0  0  0  0
   -3.6773   -0.7389    0.7170 H   0  0  0  0  0  0  0  0  0  0  0  0
   -3.5927    0.6295   -0.4358 H   0  0  0  0  0  0  0  0  0  0  0  0
   -1.4015   -0.7511    1.1405 H   0  0  0  0  0  0  0  0  0  0  0  0
   -1.7252    0.9734    0.8501 H   0  0  0  0  0  0  0  0  0  0  0  0
    0.4560    0.4348    0.9402 H   0  0  0  0  0  0  0  0  0  0  0  0
    2.5009    0.7352    0.8142 H   0  0  0  0  0  0  0  0  0  0  0  0
    3.3514    0.5955   -0.8555 H   0  0  0  0  0  0  0  0  0  0  0  0
    1.6495   -0.9912   -1.5480 H   0  0  0  0  0  0  0  0  0  0  0  0
    2.4685   -1.4012    1.1100 H   0  0  0  0  0  0  0  0  0  0  0  0
  1  2  1  0
  2  3  1  0
  3  4  1  0
  4  5  1  0
  5  6  2  0
  5  7  1  0
  7  8  1  0
  8  9  1  0
  8  4  1  0
  1 10  1  0
  1 11  1  0
  1 12  1  0
  2 13  1  0
  2 14  1  0
  4 15  1  0
  7 16  1  0
  7 17  1  0
  8 18  1  0
  9 19  1  0
M  END
