
     RDKit          3D

 22 21  0  0  0  0  0  0  0  0999 V2000
    2.9209    0.0018    1.3098 C   0  0  0  0  0  0  0  0  0  0  0  0
    2.0854    0.1352    0.0800 C   0  0  0  0  0  0  0  0  0  0  0  0
    0.7117   -0.0336    0.3486 O   0  0  0  0  0  0  0  0  0  0  0  0
    0.0902    0.1202   -0.8889 C   0  0  0  0  0  0  0  0  0  0  0  0
   -1.3907   -0.0227   -0.8300 C   0  0  0  0  0  0  0  0  0  0  0  0
   -2.0332    1.0023    0.0869 C   0  0  0  0  0  0  0  0  0  0  0  0
   -1.8175   -1.4277   -0.4685 C   0  0  0  0  0  0  0  0  0  0  0  0
   -1.3428   -1.8250    0.7557 O   0  0  0  0  0  0  0  0  0  0  0  0
    2.5228    0.6178    2.1449 H   0  0  0  0  0  0  0  0  0  0  0  0
    3.1110   -1.0420    1.5887 H   0  0  0  0  0  0  0  0  0  0  0  0
    3.9255    0.4504    1.0695 H   0  0  0  0  0  0  0  0  0  0  0  0
    2.1975    1.1446   -0.3582 H   0  0  0  0  0  0  0  0  0  0  0  0
    2.3545   -0.6590   -0.6418 H   0  0  0  0  0  0  0  0  0  0  0  0
    0.4940   -0.6563   -1.5525 H   0  0  0  0  0  0  0  0  0  0  0  0
    0.3422    1.1239   -1.2750 H   0  0  0  0  0  0  0  0  0  0  0  0
   -1.7916    0.1765   -1.8453 H   0  0  0  0  0  0  0  0  0  0  0  0
   -1.3195    1.4503    0.7959 H   0  0  0  0  0  0  0  0  0  0  0  0
   -2.5208    1.8225   -0.4854 H   0  0  0  0  0  0  0  0  0  0  0  0
   -2.8767    0.4717    0.6047 H   0  0  0  0  0  0  0  0  0  0  0  0
   -1.4570   -2.0931   -1.2955 H   0  0  0  0  0  0  0  0  0  0  0  0
   -2.9240   -1.5133   -0.4874 H   0  0  0  0  0  0  0  0  0  0  0  0
   -1.2818   -1.0310    1.3439 H   0  0  0  0  0  0  0  0  0  0  0  0
  1  2  1  0
  2  3  1  0
  3  4  1  0
  4  5  1  0
  5  6  1  0
  5  7  1  0
  7  8  1  0
  1  9  1  0
  1 10  1  0
  1 11  1  0
  2 12  1  0
  2 13  1  0
  4 14  1  0
  4 15  1  0
  5 16  1  0
  6 17  1  0
  6 18  1  0
  6 19  1  0
  7 20  1  0
  7 21  1  0
  8 22  1  0
M  END
