
     RDKit          3D

 23 22  0  0  0  0  0  0  0  0999 V2000
    3.2769   -0.2604    0.2650 C   0  0  0  0  0  0  0  0  0  0  0  0
    1.8549   -0.7762    0.4222 C   0  0  0  0  0  0  0  0  0  0  0  0
    0.9689    0.0239   -0.2672 O   0  0  0  0  0  0  0  0  0  0  0  0
   -0.3116   -0.4712   -0.1043 C   0  0  0  0  0  0  0  0  0  0  0  0
   -0.8877   -0.8716   -1.4384 C   0  0  0  0  0  0  0  0  0  0  0  0
   -1.1614    0.5725    0.5927 C   0  0  0  0  0  0  0  0  0  0  0  0
   -1.2459    1.8523   -0.1926 C   0  0  0  0  0  0  0  0  0  0  0  0
   -2.5346    0.0980    0.8470 C   0  0  0  0  0  0  0  0  0  0  0  0
   -2.8152   -0.5284    1.8444 O   0  0  0  0  0  0  0  0  0  0  0  0
    3.5459   -0.4237   -0.8026 H   0  0  0  0  0  0  0  0  0  0  0  0
    3.2317    0.8390    0.4412 H   0  0  0  0  0  0  0  0  0  0  0  0
    3.9378   -0.7695    0.9726 H   0  0  0  0  0  0  0  0  0  0  0  0
    1.7472   -1.8172    0.1070 H   0  0  0  0  0  0  0  0  0  0  0  0
    1.6354   -0.7570    1.5228 H   0  0  0  0  0  0  0  0  0  0  0  0
   -0.3176   -1.3808    0.5334 H   0  0  0  0  0  0  0  0  0  0  0  0
   -0.5462   -1.9194   -1.6830 H   0  0  0  0  0  0  0  0  0  0  0  0
   -0.5237   -0.2436   -2.2625 H   0  0  0  0  0  0  0  0  0  0  0  0
   -1.9994   -0.9383   -1.4014 H   0  0  0  0  0  0  0  0  0  0  0  0
   -0.7027    0.8210    1.5724 H   0  0  0  0  0  0  0  0  0  0  0  0
   -1.8329    2.5707    0.4159 H   0  0  0  0  0  0  0  0  0  0  0  0
   -1.7501    1.7528   -1.1539 H   0  0  0  0  0  0  0  0  0  0  0  0
   -0.2594    2.3181   -0.3654 H   0  0  0  0  0  0  0  0  0  0  0  0
   -3.3103    0.3091    0.1349 H   0  0  0  0  0  0  0  0  0  0  0  0
  1  2  1  0
  2  3  1  0
  3  4  1  0
  4  5  1  0
  4  6  1  0
  6  7  1  0
  6  8  1  0
  8  9  2  0
  1 10  1  0
  1 11  1  0
  1 12  1  0
  2 13  1  0
  2 14  1  0
  4 15  1  0
  5 16  1  0
  5 17  1  0
  5 18  1  0
  6 19  1  0
  7 20  1  0
  7 21  1  0
  7 22  1  0
  8 23  1  0
M  END
