
     RDKit          3D

 19 19  0  0  0  0  0  0  0  0999 V2000
    2.5221    0.3994   -0.8072 C   0  0  0  0  0  0  0  0  0  0  0  0
    2.0157   -0.4631    0.3204 C   0  0  0  0  0  0  0  0  0  0  0  0
    0.6657   -0.6671    0.3184 O   0  0  0  0  0  0  0  0  0  0  0  0
   -0.1225    0.4411    0.4140 C   0  0  0  0  0  0  0  0  0  0  0  0
   -1.5709   -0.0029    0.3942 C   0  0  0  0  0  0  0  0  0  0  0  0
   -2.6294    1.0300    0.5631 C   0  0  0  0  0  0  0  0  0  0  0  0
   -3.7844    0.6816    0.5480 O   0  0  0  0  0  0  0  0  0  0  0  0
   -1.9227   -1.3935    0.3759 C   0  0  0  0  0  0  0  0  0  0  0  0
   -1.7919   -0.7159   -0.9041 O   0  0  0  0  0  0  0  0  0  0  0  0
    2.4663    1.4838   -0.5765 H   0  0  0  0  0  0  0  0  0  0  0  0
    2.0524    0.1614   -1.7723 H   0  0  0  0  0  0  0  0  0  0  0  0
    3.6060    0.1711   -0.9078 H   0  0  0  0  0  0  0  0  0  0  0  0
    2.3896   -0.0358    1.2700 H   0  0  0  0  0  0  0  0  0  0  0  0
    2.5065   -1.4539    0.2118 H   0  0  0  0  0  0  0  0  0  0  0  0
    0.0284    1.0488   -0.5195 H   0  0  0  0  0  0  0  0  0  0  0  0
    0.0849    1.1071    1.2506 H   0  0  0  0  0  0  0  0  0  0  0  0
   -2.4093    2.0863    0.6997 H   0  0  0  0  0  0  0  0  0  0  0  0
   -1.1468   -2.1757    0.4444 H   0  0  0  0  0  0  0  0  0  0  0  0
   -2.9598   -1.7027    0.5262 H   0  0  0  0  0  0  0  0  0  0  0  0
  1  2  1  0
  2  3  1  0
  3  4  1  0
  4  5  1  0
  5  6  1  0
  6  7  2  0
  5  8  1  0
  8  9  1  0
  9  5  1  0
  1 10  1  0
  1 11  1  0
  1 12  1  0
  2 13  1  0
  2 14  1  0
  4 15  1  0
  4 16  1  0
  6 17  1  0
  8 18  1  0
  8 19  1  0
M  END
