
     RDKit          3D

 20 20  0  0  0  0  0  0  0  0999 V2000
   -2.6240    0.2034    0.4629 C   0  0  0  0  0  0  0  0  0  0  0  0
   -1.8419   -1.0553    0.3162 C   0  0  0  0  0  0  0  0  0  0  0  0
   -0.4908   -0.9166    0.5971 O   0  0  0  0  0  0  0  0  0  0  0  0
    0.0944   -0.0008   -0.2398 C   0  0  0  0  0  0  0  0  0  0  0  0
    1.3690   -0.5304   -0.8873 C   0  0  0  0  0  0  0  0  0  0  0  0
    2.1101   -0.0709    0.3502 C   0  0  0  0  0  0  0  0  0  0  0  0
    3.3069    0.5598    0.1407 O   0  0  0  0  0  0  0  0  0  0  0  0
    0.9963    0.9559    0.5493 C   0  0  0  0  0  0  0  0  0  0  0  0
   -2.6687    0.7076   -0.5323 H   0  0  0  0  0  0  0  0  0  0  0  0
   -2.2086    0.8984    1.2175 H   0  0  0  0  0  0  0  0  0  0  0  0
   -3.6574   -0.0609    0.8000 H   0  0  0  0  0  0  0  0  0  0  0  0
   -2.2927   -1.8544    0.9489 H   0  0  0  0  0  0  0  0  0  0  0  0
   -1.9236   -1.4109   -0.7265 H   0  0  0  0  0  0  0  0  0  0  0  0
   -0.5321    0.4854   -0.9867 H   0  0  0  0  0  0  0  0  0  0  0  0
    1.3701   -1.6147   -1.0625 H   0  0  0  0  0  0  0  0  0  0  0  0
    1.6916    0.0471   -1.7901 H   0  0  0  0  0  0  0  0  0  0  0  0
    2.1781   -0.8161    1.1509 H   0  0  0  0  0  0  0  0  0  0  0  0
    3.2260    1.5537    0.0666 H   0  0  0  0  0  0  0  0  0  0  0  0
    1.1555    1.9144    0.0407 H   0  0  0  0  0  0  0  0  0  0  0  0
    0.7417    1.0052    1.6327 H   0  0  0  0  0  0  0  0  0  0  0  0
  1  2  1  0
  2  3  1  0
  3  4  1  0
  4  5  1  0
  5  6  1  0
  6  7  1  0
  6  8  1  0
  8  4  1  0
  1  9  1  0
  1 10  1  0
  1 11  1  0
  2 12  1  0
  2 13  1  0
  4 14  1  0
  5 15  1  0
  5 16  1  0
  6 17  1  0
  7 18  1  0
  8 19  1  0
  8 20  1  0
M  END
