
     RDKit          3D

 19 18  0  0  0  0  0  0  0  0999 V2000
   -3.1034    0.1820    0.8233 C   0  0  0  0  0  0  0  0  0  0  0  0
   -2.0496   -0.1178   -0.2013 C   0  0  0  0  0  0  0  0  0  0  0  0
   -0.7663   -0.1470    0.3328 O   0  0  0  0  0  0  0  0  0  0  0  0
    0.1065   -0.4307   -0.7045 C   0  0  0  0  0  0  0  0  0  0  0  0
    1.5208   -0.4695   -0.1508 C   0  0  0  0  0  0  0  0  0  0  0  0
    1.7677    0.7948    0.3911 O   0  0  0  0  0  0  0  0  0  0  0  0
    3.0696    0.7561    0.8997 C   0  0  0  0  0  0  0  0  0  0  0  0
   -2.8314   -0.0909    1.8425 H   0  0  0  0  0  0  0  0  0  0  0  0
   -3.3548    1.2645    0.8028 H   0  0  0  0  0  0  0  0  0  0  0  0
   -4.0024   -0.4255    0.5513 H   0  0  0  0  0  0  0  0  0  0  0  0
   -2.0695    0.6802   -0.9709 H   0  0  0  0  0  0  0  0  0  0  0  0
   -2.2464   -1.0868   -0.7049 H   0  0  0  0  0  0  0  0  0  0  0  0
    0.0424    0.3567   -1.4951 H   0  0  0  0  0  0  0  0  0  0  0  0
   -0.0960   -1.3987   -1.2021 H   0  0  0  0  0  0  0  0  0  0  0  0
    2.2568   -0.7118   -0.9456 H   0  0  0  0  0  0  0  0  0  0  0  0
    1.5822   -1.2723    0.6109 H   0  0  0  0  0  0  0  0  0  0  0  0
    3.2925    1.7318    1.3309 H   0  0  0  0  0  0  0  0  0  0  0  0
    3.8076    0.4132    0.1378 H   0  0  0  0  0  0  0  0  0  0  0  0
    3.0737   -0.0282    1.6938 H   0  0  0  0  0  0  0  0  0  0  0  0
  1  2  1  0
  2  3  1  0
  3  4  1  0
  4  5  1  0
  5  6  1  0
  6  7  1  0
  1  8  1  0
  1  9  1  0
  1 10  1  0
  2 11  1  0
  2 12  1  0
  4 13  1  0
  4 14  1  0
  5 15  1  0
  5 16  1  0
  7 17  1  0
  7 18  1  0
  7 19  1  0
M  END
