
     RDKit          3D

 23 23  0  0  0  0  0  0  0  0999 V2000
    3.4433    0.1939    0.0198 C   0  0  0  0  0  0  0  0  0  0  0  0
    2.0445   -0.2494    0.4517 C   0  0  0  0  0  0  0  0  0  0  0  0
    1.3962   -0.7327   -0.6702 O   0  0  0  0  0  0  0  0  0  0  0  0
    0.1080   -1.1581   -0.3509 C   0  0  0  0  0  0  0  0  0  0  0  0
   -0.7254   -0.0443    0.2089 C   0  0  0  0  0  0  0  0  0  0  0  0
   -0.9150    1.1419   -0.7162 C   0  0  0  0  0  0  0  0  0  0  0  0
   -2.3349    1.2055   -0.1795 C   0  0  0  0  0  0  0  0  0  0  0  0
   -2.2290   -0.2931    0.0118 C   0  0  0  0  0  0  0  0  0  0  0  0
   -2.8467   -0.7764    1.1591 O   0  0  0  0  0  0  0  0  0  0  0  0
    3.8533    0.9442    0.7200 H   0  0  0  0  0  0  0  0  0  0  0  0
    4.1014   -0.6987    0.0685 H   0  0  0  0  0  0  0  0  0  0  0  0
    3.3563    0.6159   -0.9929 H   0  0  0  0  0  0  0  0  0  0  0  0
    1.5032    0.6355    0.8365 H   0  0  0  0  0  0  0  0  0  0  0  0
    2.0921   -1.0311    1.2217 H   0  0  0  0  0  0  0  0  0  0  0  0
   -0.4042   -1.5421   -1.2492 H   0  0  0  0  0  0  0  0  0  0  0  0
    0.1825   -1.9422    0.4291 H   0  0  0  0  0  0  0  0  0  0  0  0
   -0.4742    0.3140    1.2157 H   0  0  0  0  0  0  0  0  0  0  0  0
   -0.9433    0.8056   -1.7656 H   0  0  0  0  0  0  0  0  0  0  0  0
   -0.2917    2.0164   -0.4919 H   0  0  0  0  0  0  0  0  0  0  0  0
   -3.0780    1.5343   -0.9204 H   0  0  0  0  0  0  0  0  0  0  0  0
   -2.4009    1.6880    0.8202 H   0  0  0  0  0  0  0  0  0  0  0  0
   -2.3661   -0.8985   -0.8973 H   0  0  0  0  0  0  0  0  0  0  0  0
   -3.0712   -1.7286    1.0714 H   0  0  0  0  0  0  0  0  0  0  0  0
  1  2  1  0
  2  3  1  0
  3  4  1  0
  4  5  1  0
  5  6  1  0
  6  7  1  0
  7  8  1  0
  8  9  1  0
  8  5  1  0
  1 10  1  0
  1 11  1  0
  1 12  1  0
  2 13  1  0
  2 14  1  0
  4 15  1  0
  4 16  1  0
  5 17  1  0
  6 18  1  0
  6 19  1  0
  7 20  1  0
  7 21  1  0
  8 22  1  0
  9 23  1  0
M  END
