
     RDKit          3D

 19 18  0  0  0  0  0  0  0  0999 V2000
   -2.0923    0.5756    1.1351 C   0  0  0  0  0  0  0  0  0  0  0  0
   -1.2196    1.6830    0.6176 C   0  0  0  0  0  0  0  0  0  0  0  0
    0.0831    1.3166    0.3856 O   0  0  0  0  0  0  0  0  0  0  0  0
    0.1671    0.3107   -0.5438 C   0  0  0  0  0  0  0  0  0  0  0  0
    0.9344    0.7131   -1.7832 C   0  0  0  0  0  0  0  0  0  0  0  0
    0.8801   -0.8626    0.0145 C   0  0  0  0  0  0  0  0  0  0  0  0
    1.4719   -1.8187    0.4516 C   0  0  0  0  0  0  0  0  0  0  0  0
    2.1605   -2.9785    0.9748 C   0  0  0  0  0  0  0  0  0  0  0  0
    2.5392   -3.8953    0.1989 O   0  0  0  0  0  0  0  0  0  0  0  0
   -1.4923   -0.0742    1.7954 H   0  0  0  0  0  0  0  0  0  0  0  0
   -2.5136   -0.0489    0.3091 H   0  0  0  0  0  0  0  0  0  0  0  0
   -2.9016    1.0151    1.7592 H   0  0  0  0  0  0  0  0  0  0  0  0
   -1.6980    2.0377   -0.3406 H   0  0  0  0  0  0  0  0  0  0  0  0
   -1.2522    2.5665    1.3068 H   0  0  0  0  0  0  0  0  0  0  0  0
   -0.8532    0.0461   -0.8749 H   0  0  0  0  0  0  0  0  0  0  0  0
    1.9556    0.2761   -1.8136 H   0  0  0  0  0  0  0  0  0  0  0  0
    0.4186    0.4127   -2.7166 H   0  0  0  0  0  0  0  0  0  0  0  0
    1.0460    1.8154   -1.8155 H   0  0  0  0  0  0  0  0  0  0  0  0
    2.3663   -3.0904    2.0259 H   0  0  0  0  0  0  0  0  0  0  0  0
  1  2  1  0
  2  3  1  0
  3  4  1  0
  4  5  1  0
  4  6  1  0
  6  7  3  0
  7  8  1  0
  8  9  2  0
  1 10  1  0
  1 11  1  0
  1 12  1  0
  2 13  1  0
  2 14  1  0
  4 15  1  0
  5 16  1  0
  5 17  1  0
  5 18  1  0
  8 19  1  0
M  END
