
     RDKit          3D

 25 24  0  0  0  0  0  0  0  0999 V2000
   -3.2799    0.7603   -0.3989 C   0  0  0  0  0  0  0  0  0  0  0  0
   -2.3467   -0.1272    0.3835 C   0  0  0  0  0  0  0  0  0  0  0  0
   -1.1052   -0.1220   -0.2540 O   0  0  0  0  0  0  0  0  0  0  0  0
   -0.1662   -0.9022    0.3733 C   0  0  0  0  0  0  0  0  0  0  0  0
    0.3070   -2.0602   -0.4730 C   0  0  0  0  0  0  0  0  0  0  0  0
    1.0221   -0.1439    0.8752 C   0  0  0  0  0  0  0  0  0  0  0  0
    1.7735    0.5663   -0.2052 C   0  0  0  0  0  0  0  0  0  0  0  0
    2.9452    1.2986    0.3832 C   0  0  0  0  0  0  0  0  0  0  0  0
    0.9219    1.4139   -0.9032 O   0  0  0  0  0  0  0  0  0  0  0  0
   -3.2152    1.7705    0.0350 H   0  0  0  0  0  0  0  0  0  0  0  0
   -4.3298    0.4261   -0.3393 H   0  0  0  0  0  0  0  0  0  0  0  0
   -2.9477    0.7793   -1.4548 H   0  0  0  0  0  0  0  0  0  0  0  0
   -2.2728    0.1707    1.4525 H   0  0  0  0  0  0  0  0  0  0  0  0
   -2.7835   -1.1622    0.4016 H   0  0  0  0  0  0  0  0  0  0  0  0
   -0.6601   -1.3617    1.2744 H   0  0  0  0  0  0  0  0  0  0  0  0
    1.0431   -2.6215    0.1322 H   0  0  0  0  0  0  0  0  0  0  0  0
    0.8673   -1.6829   -1.3612 H   0  0  0  0  0  0  0  0  0  0  0  0
   -0.5596   -2.6821   -0.7818 H   0  0  0  0  0  0  0  0  0  0  0  0
    1.7256   -0.8993    1.3186 H   0  0  0  0  0  0  0  0  0  0  0  0
    0.7833    0.5506    1.7053 H   0  0  0  0  0  0  0  0  0  0  0  0
    2.1974   -0.2045   -0.9069 H   0  0  0  0  0  0  0  0  0  0  0  0
    3.1458    0.9359    1.4097 H   0  0  0  0  0  0  0  0  0  0  0  0
    3.8872    1.1323   -0.2157 H   0  0  0  0  0  0  0  0  0  0  0  0
    2.7717    2.3908    0.4645 H   0  0  0  0  0  0  0  0  0  0  0  0
    0.2757    1.7743   -0.2443 H   0  0  0  0  0  0  0  0  0  0  0  0
  1  2  1  0
  2  3  1  0
  3  4  1  0
  4  5  1  0
  4  6  1  0
  6  7  1  0
  7  8  1  0
  7  9  1  0
  1 10  1  0
  1 11  1  0
  1 12  1  0
  2 13  1  0
  2 14  1  0
  4 15  1  0
  5 16  1  0
  5 17  1  0
  5 18  1  0
  6 19  1  0
  6 20  1  0
  7 21  1  0
  8 22  1  0
  8 23  1  0
  8 24  1  0
  9 25  1  0
M  END
