
     RDKit          3D

 15 14  0  0  0  0  0  0  0  0999 V2000
   -2.7517    0.0174    0.6331 C   0  0  0  0  0  0  0  0  0  0  0  0
   -1.5509    0.2978   -0.2184 C   0  0  0  0  0  0  0  0  0  0  0  0
   -0.3499   -0.1796    0.3972 O   0  0  0  0  0  0  0  0  0  0  0  0
    0.8312    0.0099   -0.2731 C   0  0  0  0  0  0  0  0  0  0  0  0
    0.8179    0.5982   -1.4086 O   0  0  0  0  0  0  0  0  0  0  0  0
    2.1286   -0.4138    0.2138 C   0  0  0  0  0  0  0  0  0  0  0  0
    2.1969   -0.9976    1.3264 O   0  0  0  0  0  0  0  0  0  0  0  0
    3.3655   -0.2074   -0.5034 C   0  0  0  0  0  0  0  0  0  0  0  0
    3.3237    0.3770   -1.6239 O   0  0  0  0  0  0  0  0  0  0  0  0
   -3.2976   -0.9006    0.3339 H   0  0  0  0  0  0  0  0  0  0  0  0
   -2.4110   -0.0192    1.6879 H   0  0  0  0  0  0  0  0  0  0  0  0
   -3.4806    0.8765    0.5641 H   0  0  0  0  0  0  0  0  0  0  0  0
   -1.6731   -0.3211   -1.1546 H   0  0  0  0  0  0  0  0  0  0  0  0
   -1.4784    1.3762   -0.4679 H   0  0  0  0  0  0  0  0  0  0  0  0
    4.3295   -0.5136   -0.1585 H   0  0  0  0  0  0  0  0  0  0  0  0
  1  2  1  0
  2  3  1  0
  3  4  1  0
  4  5  2  0
  4  6  1  0
  6  7  2  0
  6  8  1  0
  8  9  2  0
  1 10  1  0
  1 11  1  0
  1 12  1  0
  2 13  1  0
  2 14  1  0
  8 15  1  0
M  END
