
     RDKit          3D

 23 23  0  0  0  0  0  0  0  0999 V2000
    2.5672    0.2712   -0.0592 C   0  0  0  0  0  0  0  0  0  0  0  0
    1.8831   -0.8850   -0.7566 C   0  0  0  0  0  0  0  0  0  0  0  0
    0.5392   -0.6277   -0.7964 O   0  0  0  0  0  0  0  0  0  0  0  0
   -0.0694   -0.4855    0.4213 C   0  0  0  0  0  0  0  0  0  0  0  0
   -0.9763    0.7331    0.3848 C   0  0  0  0  0  0  0  0  0  0  0  0
   -0.4930    1.8704   -0.4769 C   0  0  0  0  0  0  0  0  0  0  0  0
   -1.9637   -0.1885   -0.3520 C   0  0  0  0  0  0  0  0  0  0  0  0
   -1.3818   -1.2821    0.5217 C   0  0  0  0  0  0  0  0  0  0  0  0
   -1.8791   -1.1644    1.8101 O   0  0  0  0  0  0  0  0  0  0  0  0
    1.9206    0.7625    0.6758 H   0  0  0  0  0  0  0  0  0  0  0  0
    2.8034    1.0253   -0.8608 H   0  0  0  0  0  0  0  0  0  0  0  0
    3.5023   -0.1351    0.3792 H   0  0  0  0  0  0  0  0  0  0  0  0
    2.0524   -1.8458   -0.2285 H   0  0  0  0  0  0  0  0  0  0  0  0
    2.3301   -0.9785   -1.7670 H   0  0  0  0  0  0  0  0  0  0  0  0
    0.5554   -0.5868    1.3284 H   0  0  0  0  0  0  0  0  0  0  0  0
   -1.3857    1.0241    1.3607 H   0  0  0  0  0  0  0  0  0  0  0  0
    0.0555    1.4578   -1.3480 H   0  0  0  0  0  0  0  0  0  0  0  0
   -1.3775    2.4718   -0.7717 H   0  0  0  0  0  0  0  0  0  0  0  0
    0.1556    2.5054    0.1641 H   0  0  0  0  0  0  0  0  0  0  0  0
   -3.0041    0.0765   -0.1587 H   0  0  0  0  0  0  0  0  0  0  0  0
   -1.6736   -0.2822   -1.4370 H   0  0  0  0  0  0  0  0  0  0  0  0
   -1.3378   -2.2795    0.0885 H   0  0  0  0  0  0  0  0  0  0  0  0
   -2.8228   -1.4569    1.8781 H   0  0  0  0  0  0  0  0  0  0  0  0
  1  2  1  0
  2  3  1  0
  3  4  1  0
  4  5  1  0
  5  6  1  0
  5  7  1  0
  7  8  1  0
  8  9  1  0
  8  4  1  0
  1 10  1  0
  1 11  1  0
  1 12  1  0
  2 13  1  0
  2 14  1  0
  4 15  1  0
  5 16  1  0
  6 17  1  0
  6 18  1  0
  6 19  1  0
  7 20  1  0
  7 21  1  0
  8 22  1  0
  9 23  1  0
M  END
