
     RDKit          3D

 19 18  0  0  0  0  0  0  0  0999 V2000
   -2.7394   -0.0944    0.9749 C   0  0  0  0  0  0  0  0  0  0  0  0
   -1.5191   -0.1991    0.0599 C   0  0  0  0  0  0  0  0  0  0  0  0
   -0.4955   -0.8954    0.6512 O   0  0  0  0  0  0  0  0  0  0  0  0
    0.6267   -1.0239   -0.1339 C   0  0  0  0  0  0  0  0  0  0  0  0
    1.2668    0.2650   -0.5475 C   0  0  0  0  0  0  0  0  0  0  0  0
    1.7610    1.0837    0.6012 C   0  0  0  0  0  0  0  0  0  0  0  0
    2.3942   -0.0709   -1.3354 O   0  0  0  0  0  0  0  0  0  0  0  0
   -3.5662    0.3076    0.3225 H   0  0  0  0  0  0  0  0  0  0  0  0
   -2.4843    0.6535    1.7538 H   0  0  0  0  0  0  0  0  0  0  0  0
   -2.9974   -1.0698    1.4192 H   0  0  0  0  0  0  0  0  0  0  0  0
   -1.7832   -0.5601   -0.9452 H   0  0  0  0  0  0  0  0  0  0  0  0
   -1.1861    0.8722   -0.0764 H   0  0  0  0  0  0  0  0  0  0  0  0
    1.3535   -1.7278    0.3172 H   0  0  0  0  0  0  0  0  0  0  0  0
    0.2884   -1.5371   -1.0817 H   0  0  0  0  0  0  0  0  0  0  0  0
    0.5269    0.8288   -1.1599 H   0  0  0  0  0  0  0  0  0  0  0  0
    1.7429    2.1604    0.2981 H   0  0  0  0  0  0  0  0  0  0  0  0
    1.1549    0.9850    1.5227 H   0  0  0  0  0  0  0  0  0  0  0  0
    2.8408    0.8638    0.8214 H   0  0  0  0  0  0  0  0  0  0  0  0
    2.8151   -0.8415   -0.8365 H   0  0  0  0  0  0  0  0  0  0  0  0
  1  2  1  0
  2  3  1  0
  3  4  1  0
  4  5  1  0
  5  6  1  0
  5  7  1  0
  1  8  1  0
  1  9  1  0
  1 10  1  0
  2 11  1  0
  2 12  1  0
  4 13  1  0
  4 14  1  0
  5 15  1  0
  6 16  1  0
  6 17  1  0
  6 18  1  0
  7 19  1  0
M  END
