
     RDKit          3D

 23 23  0  0  0  0  0  0  0  0999 V2000
    2.3417    0.8400    0.2738 C   0  0  0  0  0  0  0  0  0  0  0  0
    2.1613   -0.3640   -0.6101 C   0  0  0  0  0  0  0  0  0  0  0  0
    0.8836   -0.4068   -1.0997 O   0  0  0  0  0  0  0  0  0  0  0  0
   -0.0550   -0.5500   -0.1144 C   0  0  0  0  0  0  0  0  0  0  0  0
   -0.9060   -1.7879   -0.3093 C   0  0  0  0  0  0  0  0  0  0  0  0
   -2.1782   -1.3467    0.3784 C   0  0  0  0  0  0  0  0  0  0  0  0
   -2.2034    0.1193    0.2217 C   0  0  0  0  0  0  0  0  0  0  0  0
   -1.0142    0.5642   -0.0544 C   0  0  0  0  0  0  0  0  0  0  0  0
   -0.6463    1.9803   -0.2821 C   0  0  0  0  0  0  0  0  0  0  0  0
    2.2355    1.7465   -0.3724 H   0  0  0  0  0  0  0  0  0  0  0  0
    1.6782    0.8903    1.1217 H   0  0  0  0  0  0  0  0  0  0  0  0
    3.4184    0.8037    0.6121 H   0  0  0  0  0  0  0  0  0  0  0  0
    2.9289   -0.2806   -1.4343 H   0  0  0  0  0  0  0  0  0  0  0  0
    2.4423   -1.2887   -0.0552 H   0  0  0  0  0  0  0  0  0  0  0  0
    0.4556   -0.6221    0.8796 H   0  0  0  0  0  0  0  0  0  0  0  0
   -1.1235   -2.0162   -1.3543 H   0  0  0  0  0  0  0  0  0  0  0  0
   -0.4078   -2.6310    0.1628 H   0  0  0  0  0  0  0  0  0  0  0  0
   -3.0806   -1.7681   -0.1114 H   0  0  0  0  0  0  0  0  0  0  0  0
   -2.1590   -1.6925    1.4193 H   0  0  0  0  0  0  0  0  0  0  0  0
   -3.1186    0.7125    0.3311 H   0  0  0  0  0  0  0  0  0  0  0  0
    0.0044    2.0893   -1.1829 H   0  0  0  0  0  0  0  0  0  0  0  0
   -1.5654    2.5945   -0.4336 H   0  0  0  0  0  0  0  0  0  0  0  0
   -0.0917    2.4139    0.5772 H   0  0  0  0  0  0  0  0  0  0  0  0
  1  2  1  0
  2  3  1  0
  3  4  1  0
  4  5  1  0
  5  6  1  0
  6  7  1  0
  7  8  2  0
  8  9  1  0
  8  4  1  0
  1 10  1  0
  1 11  1  0
  1 12  1  0
  2 13  1  0
  2 14  1  0
  4 15  1  0
  5 16  1  0
  5 17  1  0
  6 18  1  0
  6 19  1  0
  7 20  1  0
  9 21  1  0
  9 22  1  0
  9 23  1  0
M  END
