
     RDKit          3D

 20 20  0  0  0  0  0  0  0  0999 V2000
    2.2173    0.8774   -0.6781 C   0  0  0  0  0  0  0  0  0  0  0  0
    2.2501   -0.6168   -0.7300 C   0  0  0  0  0  0  0  0  0  0  0  0
    1.3951   -1.3267   -0.0009 O   0  0  0  0  0  0  0  0  0  0  0  0
    0.0743   -1.3487   -0.1312 C   0  0  0  0  0  0  0  0  0  0  0  0
   -0.5812   -0.0170    0.0688 C   0  0  0  0  0  0  0  0  0  0  0  0
   -2.0958   -0.1846   -0.0581 C   0  0  0  0  0  0  0  0  0  0  0  0
   -2.8594    1.0913    0.1249 C   0  0  0  0  0  0  0  0  0  0  0  0
   -2.8904    0.0443    1.0425 O   0  0  0  0  0  0  0  0  0  0  0  0
    3.3071    1.2297   -0.6108 H   0  0  0  0  0  0  0  0  0  0  0  0
    1.7898    1.3293   -1.5985 H   0  0  0  0  0  0  0  0  0  0  0  0
    1.7459    1.2603    0.2270 H   0  0  0  0  0  0  0  0  0  0  0  0
    3.2977   -0.9565   -0.4500 H   0  0  0  0  0  0  0  0  0  0  0  0
    2.0935   -0.9051   -1.8289 H   0  0  0  0  0  0  0  0  0  0  0  0
   -0.2920   -1.8428   -1.0754 H   0  0  0  0  0  0  0  0  0  0  0  0
   -0.3673   -2.0242    0.6730 H   0  0  0  0  0  0  0  0  0  0  0  0
   -0.3554    0.4641    1.0320 H   0  0  0  0  0  0  0  0  0  0  0  0
   -0.2598    0.6510   -0.7772 H   0  0  0  0  0  0  0  0  0  0  0  0
   -2.4524   -0.9445   -0.7545 H   0  0  0  0  0  0  0  0  0  0  0  0
   -2.3251    1.9841    0.4968 H   0  0  0  0  0  0  0  0  0  0  0  0
   -3.6921    1.2355   -0.5822 H   0  0  0  0  0  0  0  0  0  0  0  0
  1  2  1  0
  2  3  1  0
  3  4  1  0
  4  5  1  0
  5  6  1  0
  6  7  1  0
  7  8  1  0
  8  6  1  0
  1  9  1  0
  1 10  1  0
  1 11  1  0
  2 12  1  0
  2 13  1  0
  4 14  1  0
  4 15  1  0
  5 16  1  0
  5 17  1  0
  6 18  1  0
  7 19  1  0
  7 20  1  0
M  END
