
     RDKit          3D

 23 23  0  0  0  0  0  0  0  0999 V2000
    1.7586   -0.9518   -1.0278 C   0  0  0  0  0  0  0  0  0  0  0  0
    2.0339   -0.6115    0.4430 C   0  0  0  0  0  0  0  0  0  0  0  0
    0.8287   -0.3745    1.0358 O   0  0  0  0  0  0  0  0  0  0  0  0
    0.0801    0.6522    0.5167 C   0  0  0  0  0  0  0  0  0  0  0  0
   -0.1735    1.7845    1.4668 C   0  0  0  0  0  0  0  0  0  0  0  0
   -1.2188    0.1676   -0.0924 C   0  0  0  0  0  0  0  0  0  0  0  0
   -1.7657   -1.1283    0.4632 C   0  0  0  0  0  0  0  0  0  0  0  0
   -1.4059    0.3289   -1.5878 C   0  0  0  0  0  0  0  0  0  0  0  0
   -2.0776    1.0770   -0.6535 O   0  0  0  0  0  0  0  0  0  0  0  0
    0.8012   -1.4965   -1.1213 H   0  0  0  0  0  0  0  0  0  0  0  0
    2.5447   -1.6300   -1.4236 H   0  0  0  0  0  0  0  0  0  0  0  0
    1.7789   -0.0348   -1.6308 H   0  0  0  0  0  0  0  0  0  0  0  0
    2.7882    0.1593    0.5425 H   0  0  0  0  0  0  0  0  0  0  0  0
    2.4507   -1.5445    0.8805 H   0  0  0  0  0  0  0  0  0  0  0  0
    0.6762    1.0752   -0.3217 H   0  0  0  0  0  0  0  0  0  0  0  0
    0.7529    2.4112    1.5704 H   0  0  0  0  0  0  0  0  0  0  0  0
   -0.9129    2.4636    0.9685 H   0  0  0  0  0  0  0  0  0  0  0  0
   -0.6025    1.4972    2.4231 H   0  0  0  0  0  0  0  0  0  0  0  0
   -1.7193   -1.9378   -0.2947 H   0  0  0  0  0  0  0  0  0  0  0  0
   -2.8469   -0.9486    0.7253 H   0  0  0  0  0  0  0  0  0  0  0  0
   -1.2498   -1.3867    1.3897 H   0  0  0  0  0  0  0  0  0  0  0  0
   -1.9131   -0.4817   -2.1432 H   0  0  0  0  0  0  0  0  0  0  0  0
   -0.6080    0.9100   -2.1288 H   0  0  0  0  0  0  0  0  0  0  0  0
  1  2  1  0
  2  3  1  0
  3  4  1  0
  4  5  1  0
  4  6  1  0
  6  7  1  0
  6  8  1  0
  8  9  1  0
  9  6  1  0
  1 10  1  0
  1 11  1  0
  1 12  1  0
  2 13  1  0
  2 14  1  0
  4 15  1  0
  5 16  1  0
  5 17  1  0
  5 18  1  0
  7 19  1  0
  7 20  1  0
  7 21  1  0
  8 22  1  0
  8 23  1  0
M  END
