
     RDKit          3D

 19 19  0  0  0  0  0  0  0  0999 V2000
    2.7625   -0.4048    0.5352 C   0  0  0  0  0  0  0  0  0  0  0  0
    1.4639   -0.3396   -0.2390 C   0  0  0  0  0  0  0  0  0  0  0  0
    0.3942   -0.0151    0.5567 O   0  0  0  0  0  0  0  0  0  0  0  0
   -0.7765    0.0382   -0.1958 C   0  0  0  0  0  0  0  0  0  0  0  0
   -1.1620   -1.2029   -0.8548 C   0  0  0  0  0  0  0  0  0  0  0  0
   -2.1499   -1.3471   -1.5633 O   0  0  0  0  0  0  0  0  0  0  0  0
   -1.2092    1.3758   -0.6346 C   0  0  0  0  0  0  0  0  0  0  0  0
   -1.9720    0.7600    0.4617 C   0  0  0  0  0  0  0  0  0  0  0  0
   -1.7637    1.1040    1.7878 O   0  0  0  0  0  0  0  0  0  0  0  0
    3.2228    0.5960    0.6205 H   0  0  0  0  0  0  0  0  0  0  0  0
    3.4549   -1.0663   -0.0251 H   0  0  0  0  0  0  0  0  0  0  0  0
    2.5761   -0.8555    1.5127 H   0  0  0  0  0  0  0  0  0  0  0  0
    1.5515    0.3887   -1.0816 H   0  0  0  0  0  0  0  0  0  0  0  0
    1.3202   -1.3321   -0.7023 H   0  0  0  0  0  0  0  0  0  0  0  0
   -0.5473   -2.0787   -0.7251 H   0  0  0  0  0  0  0  0  0  0  0  0
   -0.5071    2.2184   -0.4636 H   0  0  0  0  0  0  0  0  0  0  0  0
   -1.7840    1.5180   -1.5887 H   0  0  0  0  0  0  0  0  0  0  0  0
   -2.9876    0.3755    0.2689 H   0  0  0  0  0  0  0  0  0  0  0  0
   -1.8869    0.2674    2.3304 H   0  0  0  0  0  0  0  0  0  0  0  0
  1  2  1  0
  2  3  1  0
  3  4  1  0
  4  5  1  0
  5  6  2  0
  4  7  1  0
  7  8  1  0
  8  9  1  0
  8  4  1  0
  1 10  1  0
  1 11  1  0
  1 12  1  0
  2 13  1  0
  2 14  1  0
  5 15  1  0
  7 16  1  0
  7 17  1  0
  8 18  1  0
  9 19  1  0
M  END
