
     RDKit          3D

 21 20  0  0  0  0  0  0  0  0999 V2000
    3.3735   -0.4913   -0.1809 C   0  0  0  0  0  0  0  0  0  0  0  0
    2.6282   -0.1910    1.0998 C   0  0  0  0  0  0  0  0  0  0  0  0
    1.2410   -0.0867    0.9496 O   0  0  0  0  0  0  0  0  0  0  0  0
    0.5741    0.8046    0.1490 C   0  0  0  0  0  0  0  0  0  0  0  0
    1.3229    1.6087   -0.5194 O   0  0  0  0  0  0  0  0  0  0  0  0
   -0.8774    0.9247   -0.0157 C   0  0  0  0  0  0  0  0  0  0  0  0
   -1.6195   -0.3785   -0.1350 C   0  0  0  0  0  0  0  0  0  0  0  0
   -3.0923   -0.0050   -0.2862 C   0  0  0  0  0  0  0  0  0  0  0  0
   -3.9079   -1.1185   -0.3960 O   0  0  0  0  0  0  0  0  0  0  0  0
    3.7963    0.4669   -0.6049 H   0  0  0  0  0  0  0  0  0  0  0  0
    4.2918   -1.1118    0.0566 H   0  0  0  0  0  0  0  0  0  0  0  0
    2.8038   -1.0752   -0.9108 H   0  0  0  0  0  0  0  0  0  0  0  0
    3.1148    0.6948    1.5592 H   0  0  0  0  0  0  0  0  0  0  0  0
    2.8249   -1.0707    1.7755 H   0  0  0  0  0  0  0  0  0  0  0  0
   -1.1026    1.5035   -0.9440 H   0  0  0  0  0  0  0  0  0  0  0  0
   -1.3552    1.4840    0.8382 H   0  0  0  0  0  0  0  0  0  0  0  0
   -1.5307   -1.0482    0.7192 H   0  0  0  0  0  0  0  0  0  0  0  0
   -1.3315   -0.8979   -1.0891 H   0  0  0  0  0  0  0  0  0  0  0  0
   -3.2415    0.6385   -1.2041 H   0  0  0  0  0  0  0  0  0  0  0  0
   -3.4678    0.6179    0.5444 H   0  0  0  0  0  0  0  0  0  0  0  0
   -4.4450   -1.2690    0.4374 H   0  0  0  0  0  0  0  0  0  0  0  0
  1  2  1  0
  2  3  1  0
  3  4  1  0
  4  5  2  0
  4  6  1  0
  6  7  1  0
  7  8  1  0
  8  9  1  0
  1 10  1  0
  1 11  1  0
  1 12  1  0
  2 13  1  0
  2 14  1  0
  6 15  1  0
  6 16  1  0
  7 17  1  0
  7 18  1  0
  8 19  1  0
  8 20  1  0
  9 21  1  0
M  END
