
     RDKit          3D

 25 25  0  0  0  0  0  0  0  0999 V2000
    2.6014    0.6637    0.5152 C   0  0  0  0  0  0  0  0  0  0  0  0
    2.2257    0.0344   -0.7903 C   0  0  0  0  0  0  0  0  0  0  0  0
    0.8760    0.0530   -1.0603 O   0  0  0  0  0  0  0  0  0  0  0  0
    0.1397   -0.6179   -0.1068 C   0  0  0  0  0  0  0  0  0  0  0  0
   -0.8212   -1.6549   -0.6513 C   0  0  0  0  0  0  0  0  0  0  0  0
   -1.9044   -1.1122    0.2520 C   0  0  0  0  0  0  0  0  0  0  0  0
   -1.0470    0.1204    0.4506 C   0  0  0  0  0  0  0  0  0  0  0  0
   -1.5630    1.2502   -0.4030 C   0  0  0  0  0  0  0  0  0  0  0  0
   -0.8369    0.5234    1.8718 C   0  0  0  0  0  0  0  0  0  0  0  0
    1.8102    1.2826    0.9628 H   0  0  0  0  0  0  0  0  0  0  0  0
    3.4968    1.3447    0.4125 H   0  0  0  0  0  0  0  0  0  0  0  0
    2.9352   -0.1024    1.2746 H   0  0  0  0  0  0  0  0  0  0  0  0
    2.5849   -1.0358   -0.7514 H   0  0  0  0  0  0  0  0  0  0  0  0
    2.7704    0.5758   -1.5910 H   0  0  0  0  0  0  0  0  0  0  0  0
    0.8285   -1.0303    0.6822 H   0  0  0  0  0  0  0  0  0  0  0  0
   -1.0647   -1.4758   -1.7265 H   0  0  0  0  0  0  0  0  0  0  0  0
   -0.5569   -2.6768   -0.3814 H   0  0  0  0  0  0  0  0  0  0  0  0
   -2.8684   -0.9224   -0.2703 H   0  0  0  0  0  0  0  0  0  0  0  0
   -2.1016   -1.7050    1.1604 H   0  0  0  0  0  0  0  0  0  0  0  0
   -1.9039    2.1219    0.1949 H   0  0  0  0  0  0  0  0  0  0  0  0
   -2.4507    0.9414   -1.0228 H   0  0  0  0  0  0  0  0  0  0  0  0
   -0.7792    1.5275   -1.1297 H   0  0  0  0  0  0  0  0  0  0  0  0
   -0.1732   -0.2122    2.3750 H   0  0  0  0  0  0  0  0  0  0  0  0
   -1.7982    0.5530    2.4286 H   0  0  0  0  0  0  0  0  0  0  0  0
   -0.3997    1.5536    1.8713 H   0  0  0  0  0  0  0  0  0  0  0  0
  1  2  1  0
  2  3  1  0
  3  4  1  0
  4  5  1  0
  5  6  1  0
  6  7  1  0
  7  8  1  0
  7  9  1  0
  7  4  1  0
  1 10  1  0
  1 11  1  0
  1 12  1  0
  2 13  1  0
  2 14  1  0
  4 15  1  0
  5 16  1  0
  5 17  1  0
  6 18  1  0
  6 19  1  0
  8 20  1  0
  8 21  1  0
  8 22  1  0
  9 23  1  0
  9 24  1  0
  9 25  1  0
M  END
