
     RDKit          3D

 23 23  0  0  0  0  0  0  0  0999 V2000
    3.3128    0.5505    0.6771 C   0  0  0  0  0  0  0  0  0  0  0  0
    2.0006    0.5665   -0.0465 C   0  0  0  0  0  0  0  0  0  0  0  0
    1.2323   -0.5746    0.2351 O   0  0  0  0  0  0  0  0  0  0  0  0
    0.0459   -0.4370   -0.4947 C   0  0  0  0  0  0  0  0  0  0  0  0
   -0.2793   -1.6771   -1.3384 C   0  0  0  0  0  0  0  0  0  0  0  0
   -1.6368   -1.4157   -1.0358 O   0  0  0  0  0  0  0  0  0  0  0  0
   -1.1831   -0.9315    0.1945 C   0  0  0  0  0  0  0  0  0  0  0  0
   -2.0474    0.0907    0.8521 C   0  0  0  0  0  0  0  0  0  0  0  0
   -2.5880    1.1288   -0.0744 C   0  0  0  0  0  0  0  0  0  0  0  0
    4.0617    1.0656    0.0421 H   0  0  0  0  0  0  0  0  0  0  0  0
    3.2732    1.1020    1.6459 H   0  0  0  0  0  0  0  0  0  0  0  0
    3.6949   -0.4781    0.8727 H   0  0  0  0  0  0  0  0  0  0  0  0
    1.4555    1.4958    0.2567 H   0  0  0  0  0  0  0  0  0  0  0  0
    2.2014    0.5794   -1.1347 H   0  0  0  0  0  0  0  0  0  0  0  0
   -0.0412    0.4727   -1.0998 H   0  0  0  0  0  0  0  0  0  0  0  0
    0.0885   -2.5950   -0.8314 H   0  0  0  0  0  0  0  0  0  0  0  0
   -0.0372   -1.5731   -2.4036 H   0  0  0  0  0  0  0  0  0  0  0  0
   -0.9446   -1.7593    0.8791 H   0  0  0  0  0  0  0  0  0  0  0  0
   -2.9112   -0.4461    1.3128 H   0  0  0  0  0  0  0  0  0  0  0  0
   -1.4295    0.6083    1.6266 H   0  0  0  0  0  0  0  0  0  0  0  0
   -1.8837    1.9928   -0.1101 H   0  0  0  0  0  0  0  0  0  0  0  0
   -2.8240    0.7485   -1.0853 H   0  0  0  0  0  0  0  0  0  0  0  0
   -3.5609    1.4859    0.3486 H   0  0  0  0  0  0  0  0  0  0  0  0
  1  2  1  0
  2  3  1  0
  3  4  1  0
  4  5  1  0
  5  6  1  0
  6  7  1  0
  7  8  1  0
  8  9  1  0
  7  4  1  0
  1 10  1  0
  1 11  1  0
  1 12  1  0
  2 13  1  0
  2 14  1  0
  4 15  1  0
  5 16  1  0
  5 17  1  0
  7 18  1  0
  8 19  1  0
  8 20  1  0
  9 21  1  0
  9 22  1  0
  9 23  1  0
M  END
