
     RDKit          3D

 22 21  0  0  0  0  0  0  0  0999 V2000
    3.1945   -0.3803   -0.3015 C   0  0  0  0  0  0  0  0  0  0  0  0
    1.7384   -0.4094   -0.6955 C   0  0  0  0  0  0  0  0  0  0  0  0
    0.9932    0.2843    0.2431 O   0  0  0  0  0  0  0  0  0  0  0  0
   -0.3424    0.3293   -0.0030 C   0  0  0  0  0  0  0  0  0  0  0  0
   -0.7404    1.7593   -0.2925 C   0  0  0  0  0  0  0  0  0  0  0  0
   -1.2071   -0.3128    1.0417 C   0  0  0  0  0  0  0  0  0  0  0  0
   -2.6371   -0.3189    0.5531 C   0  0  0  0  0  0  0  0  0  0  0  0
   -0.8230   -1.6633    1.1138 O   0  0  0  0  0  0  0  0  0  0  0  0
    3.4338   -1.2008    0.4152 H   0  0  0  0  0  0  0  0  0  0  0  0
    3.3838    0.5644    0.2406 H   0  0  0  0  0  0  0  0  0  0  0  0
    3.8646   -0.4823   -1.1990 H   0  0  0  0  0  0  0  0  0  0  0  0
    1.6531    0.1261   -1.6585 H   0  0  0  0  0  0  0  0  0  0  0  0
    1.4413   -1.4750   -0.7706 H   0  0  0  0  0  0  0  0  0  0  0  0
   -0.5338   -0.2366   -0.9590 H   0  0  0  0  0  0  0  0  0  0  0  0
   -1.7198    1.8483   -0.7717 H   0  0  0  0  0  0  0  0  0  0  0  0
    0.0079    2.1302   -1.0535 H   0  0  0  0  0  0  0  0  0  0  0  0
   -0.6090    2.4161    0.5970 H   0  0  0  0  0  0  0  0  0  0  0  0
   -1.1773    0.1684    2.0156 H   0  0  0  0  0  0  0  0  0  0  0  0
   -3.1419   -1.2240    0.9511 H   0  0  0  0  0  0  0  0  0  0  0  0
   -3.2160    0.5505    0.8593 H   0  0  0  0  0  0  0  0  0  0  0  0
   -2.6857   -0.3930   -0.5636 H   0  0  0  0  0  0  0  0  0  0  0  0
   -0.8770   -2.0806    0.2378 H   0  0  0  0  0  0  0  0  0  0  0  0
  1  2  1  0
  2  3  1  0
  3  4  1  0
  4  5  1  0
  4  6  1  0
  6  7  1  0
  6  8  1  0
  1  9  1  0
  1 10  1  0
  1 11  1  0
  2 12  1  0
  2 13  1  0
  4 14  1  0
  5 15  1  0
  5 16  1  0
  5 17  1  0
  6 18  1  0
  7 19  1  0
  7 20  1  0
  7 21  1  0
  8 22  1  0
M  END
