
     RDKit          3D

 23 24  0  0  0  0  0  0  0  0999 V2000
    2.2281    0.9533   -0.1534 C   0  0  0  0  0  0  0  0  0  0  0  0
    1.7883    0.2651    1.1155 C   0  0  0  0  0  0  0  0  0  0  0  0
    0.4310    0.0959    1.2156 O   0  0  0  0  0  0  0  0  0  0  0  0
   -0.1475   -0.6521    0.2252 C   0  0  0  0  0  0  0  0  0  0  0  0
    0.3382   -2.0910    0.0704 C   0  0  0  0  0  0  0  0  0  0  0  0
   -0.7399   -0.0334   -0.9621 C   0  0  0  0  0  0  0  0  0  0  0  0
   -1.5313    1.2346   -0.9163 C   0  0  0  0  0  0  0  0  0  0  0  0
   -2.2015    0.8157    0.3809 C   0  0  0  0  0  0  0  0  0  0  0  0
   -1.6540   -0.5510    0.1686 C   0  0  0  0  0  0  0  0  0  0  0  0
    2.1303    2.0716   -0.0338 H   0  0  0  0  0  0  0  0  0  0  0  0
    1.6418    0.5902   -1.0156 H   0  0  0  0  0  0  0  0  0  0  0  0
    3.2952    0.6875   -0.3917 H   0  0  0  0  0  0  0  0  0  0  0  0
    2.0834    0.9594    1.9560 H   0  0  0  0  0  0  0  0  0  0  0  0
    2.3657   -0.6629    1.3026 H   0  0  0  0  0  0  0  0  0  0  0  0
   -0.2785   -2.5483   -0.7237 H   0  0  0  0  0  0  0  0  0  0  0  0
    0.1552   -2.6064    1.0311 H   0  0  0  0  0  0  0  0  0  0  0  0
    1.3924   -2.1333   -0.2621 H   0  0  0  0  0  0  0  0  0  0  0  0
   -0.7272   -0.6203   -1.9088 H   0  0  0  0  0  0  0  0  0  0  0  0
   -0.9804    2.1711   -0.8941 H   0  0  0  0  0  0  0  0  0  0  0  0
   -2.2776    1.2459   -1.7514 H   0  0  0  0  0  0  0  0  0  0  0  0
   -3.2907    0.9341    0.3539 H   0  0  0  0  0  0  0  0  0  0  0  0
   -1.7519    1.2814    1.2928 H   0  0  0  0  0  0  0  0  0  0  0  0
   -2.2691   -1.4072   -0.0998 H   0  0  0  0  0  0  0  0  0  0  0  0
  1  2  1  0
  2  3  1  0
  3  4  1  0
  4  5  1  0
  4  6  1  0
  6  7  1  0
  7  8  1  0
  8  9  1  0
  9  4  1  0
  9  6  1  0
  1 10  1  0
  1 11  1  0
  1 12  1  0
  2 13  1  0
  2 14  1  0
  5 15  1  0
  5 16  1  0
  5 17  1  0
  6 18  1  0
  7 19  1  0
  7 20  1  0
  8 21  1  0
  8 22  1  0
  9 23  1  0
M  END
