
     RDKit          3D

 21 22  0  0  0  0  0  0  0  0999 V2000
    2.8721    0.6343   -0.3288 C   0  0  0  0  0  0  0  0  0  0  0  0
    2.5863   -0.7922    0.0675 C   0  0  0  0  0  0  0  0  0  0  0  0
    1.3638   -0.9276    0.7248 O   0  0  0  0  0  0  0  0  0  0  0  0
    0.3806   -0.4940   -0.1408 C   0  0  0  0  0  0  0  0  0  0  0  0
   -1.0083   -0.5787    0.4283 C   0  0  0  0  0  0  0  0  0  0  0  0
   -1.1818    0.1983    1.6053 O   0  0  0  0  0  0  0  0  0  0  0  0
   -2.5241    0.0402    1.2585 C   0  0  0  0  0  0  0  0  0  0  0  0
   -3.2886    0.7644    0.3070 C   0  0  0  0  0  0  0  0  0  0  0  0
   -1.9361    0.5124   -0.1323 C   0  0  0  0  0  0  0  0  0  0  0  0
    2.5921    1.3681    0.4561 H   0  0  0  0  0  0  0  0  0  0  0  0
    3.9770    0.6786   -0.5490 H   0  0  0  0  0  0  0  0  0  0  0  0
    2.3804    0.8955   -1.2860 H   0  0  0  0  0  0  0  0  0  0  0  0
    3.4274   -1.1914    0.6730 H   0  0  0  0  0  0  0  0  0  0  0  0
    2.6075   -1.3975   -0.8851 H   0  0  0  0  0  0  0  0  0  0  0  0
    0.5570    0.5605   -0.4243 H   0  0  0  0  0  0  0  0  0  0  0  0
    0.4417   -1.1111   -1.0595 H   0  0  0  0  0  0  0  0  0  0  0  0
   -1.4132   -1.5828    0.4526 H   0  0  0  0  0  0  0  0  0  0  0  0
   -2.7515   -1.0700    1.3092 H   0  0  0  0  0  0  0  0  0  0  0  0
   -3.6732    1.7838    0.6137 H   0  0  0  0  0  0  0  0  0  0  0  0
   -4.0951    0.2464   -0.2910 H   0  0  0  0  0  0  0  0  0  0  0  0
   -1.3141    1.4628   -0.0704 H   0  0  0  0  0  0  0  0  0  0  0  0
  1  2  1  0
  2  3  1  0
  3  4  1  0
  4  5  1  0
  5  6  1  0
  6  7  1  0
  7  8  1  0
  8  9  1  0
  9  5  1  0
  9  7  1  0
  1 10  1  0
  1 11  1  0
  1 12  1  0
  2 13  1  0
  2 14  1  0
  4 15  1  0
  4 16  1  0
  5 17  1  0
  7 18  1  0
  8 19  1  0
  8 20  1  0
  9 21  1  0
M  END
