
     RDKit          3D

 25 25  0  0  0  0  0  0  0  0999 V2000
    2.6894    0.1767    0.9857 C   0  0  0  0  0  0  0  0  0  0  0  0
    2.3534   -0.2172   -0.4542 C   0  0  0  0  0  0  0  0  0  0  0  0
    1.4951    0.6649   -1.0556 O   0  0  0  0  0  0  0  0  0  0  0  0
    0.2695    0.8181   -0.4280 C   0  0  0  0  0  0  0  0  0  0  0  0
   -0.4303   -0.4917   -0.3916 C   0  0  0  0  0  0  0  0  0  0  0  0
   -0.6155   -0.9446   -1.8449 C   0  0  0  0  0  0  0  0  0  0  0  0
   -1.7985   -0.4332    0.2428 C   0  0  0  0  0  0  0  0  0  0  0  0
   -1.9906    0.0023    1.6412 C   0  0  0  0  0  0  0  0  0  0  0  0
   -2.3308    0.9847    0.5097 C   0  0  0  0  0  0  0  0  0  0  0  0
    2.4237    1.2230    1.1990 H   0  0  0  0  0  0  0  0  0  0  0  0
    2.1507   -0.4908    1.6985 H   0  0  0  0  0  0  0  0  0  0  0  0
    3.7693    0.0356    1.2041 H   0  0  0  0  0  0  0  0  0  0  0  0
    2.0407   -1.2760   -0.5180 H   0  0  0  0  0  0  0  0  0  0  0  0
    3.3374   -0.1882   -0.9972 H   0  0  0  0  0  0  0  0  0  0  0  0
    0.4597    1.2629    0.5640 H   0  0  0  0  0  0  0  0  0  0  0  0
   -0.2763    1.5881   -1.0149 H   0  0  0  0  0  0  0  0  0  0  0  0
    0.1505   -1.2257    0.1724 H   0  0  0  0  0  0  0  0  0  0  0  0
    0.2996   -1.4071   -2.2361 H   0  0  0  0  0  0  0  0  0  0  0  0
   -1.4266   -1.7059   -1.8380 H   0  0  0  0  0  0  0  0  0  0  0  0
   -0.9713   -0.0858   -2.4319 H   0  0  0  0  0  0  0  0  0  0  0  0
   -2.5324   -1.1404   -0.1959 H   0  0  0  0  0  0  0  0  0  0  0  0
   -2.8914   -0.3883    2.1509 H   0  0  0  0  0  0  0  0  0  0  0  0
   -1.1328    0.2349    2.2940 H   0  0  0  0  0  0  0  0  0  0  0  0
   -3.3980    1.1673    0.2810 H   0  0  0  0  0  0  0  0  0  0  0  0
   -1.6447    1.8364    0.4631 H   0  0  0  0  0  0  0  0  0  0  0  0
  1  2  1  0
  2  3  1  0
  3  4  1  0
  4  5  1  0
  5  6  1  0
  5  7  1  0
  7  8  1  0
  8  9  1  0
  9  7  1  0
  1 10  1  0
  1 11  1  0
  1 12  1  0
  2 13  1  0
  2 14  1  0
  4 15  1  0
  4 16  1  0
  5 17  1  0
  6 18  1  0
  6 19  1  0
  6 20  1  0
  7 21  1  0
  8 22  1  0
  8 23  1  0
  9 24  1  0
  9 25  1  0
M  END
