
     RDKit          3D

 21 20  0  0  0  0  0  0  0  0999 V2000
    2.6866   -1.0514   -0.0327 C   0  0  0  0  0  0  0  0  0  0  0  0
    1.3503   -0.7245   -0.6943 C   0  0  0  0  0  0  0  0  0  0  0  0
    0.7085    0.1698    0.0917 O   0  0  0  0  0  0  0  0  0  0  0  0
   -0.5126    0.6089   -0.3027 C   0  0  0  0  0  0  0  0  0  0  0  0
   -0.3971    2.1036   -0.5386 C   0  0  0  0  0  0  0  0  0  0  0  0
   -1.6358    0.3651    0.6638 C   0  0  0  0  0  0  0  0  0  0  0  0
   -1.8536   -1.0871    0.9679 C   0  0  0  0  0  0  0  0  0  0  0  0
    2.5581   -0.9875    1.0700 H   0  0  0  0  0  0  0  0  0  0  0  0
    3.0579   -2.0387   -0.3667 H   0  0  0  0  0  0  0  0  0  0  0  0
    3.4100   -0.2976   -0.3466 H   0  0  0  0  0  0  0  0  0  0  0  0
    0.8203   -1.6653   -0.8977 H   0  0  0  0  0  0  0  0  0  0  0  0
    1.5861   -0.2489   -1.6713 H   0  0  0  0  0  0  0  0  0  0  0  0
   -0.8069    0.1308   -1.2719 H   0  0  0  0  0  0  0  0  0  0  0  0
    0.2071    2.5466    0.2968 H   0  0  0  0  0  0  0  0  0  0  0  0
    0.0882    2.2964   -1.5344 H   0  0  0  0  0  0  0  0  0  0  0  0
   -1.3966    2.5856   -0.4728 H   0  0  0  0  0  0  0  0  0  0  0  0
   -1.5488    0.9877    1.5861 H   0  0  0  0  0  0  0  0  0  0  0  0
   -2.5689    0.7181    0.1666 H   0  0  0  0  0  0  0  0  0  0  0  0
   -1.3922   -1.2805    1.9698 H   0  0  0  0  0  0  0  0  0  0  0  0
   -1.4274   -1.7751    0.2401 H   0  0  0  0  0  0  0  0  0  0  0  0
   -2.9334   -1.3559    1.0770 H   0  0  0  0  0  0  0  0  0  0  0  0
  1  2  1  0
  2  3  1  0
  3  4  1  0
  4  5  1  0
  4  6  1  0
  6  7  1  0
  1  8  1  0
  1  9  1  0
  1 10  1  0
  2 11  1  0
  2 12  1  0
  4 13  1  0
  5 14  1  0
  5 15  1  0
  5 16  1  0
  6 17  1  0
  6 18  1  0
  7 19  1  0
  7 20  1  0
  7 21  1  0
M  END
