
     RDKit          3D

 17 16  0  0  0  0  0  0  0  0999 V2000
    1.9122   -0.8460    0.5233 C   0  0  0  0  0  0  0  0  0  0  0  0
    1.5061    0.6124    0.4188 C   0  0  0  0  0  0  0  0  0  0  0  0
    0.4145    0.7814   -0.4001 O   0  0  0  0  0  0  0  0  0  0  0  0
   -0.7226    0.1465   -0.0437 C   0  0  0  0  0  0  0  0  0  0  0  0
   -1.8872    1.0447    0.2841 C   0  0  0  0  0  0  0  0  0  0  0  0
   -1.1337   -0.9285   -1.0238 C   0  0  0  0  0  0  0  0  0  0  0  0
   -2.1410   -1.5902   -0.8386 O   0  0  0  0  0  0  0  0  0  0  0  0
    1.5405   -1.4271   -0.3460 H   0  0  0  0  0  0  0  0  0  0  0  0
    3.0356   -0.9380    0.4691 H   0  0  0  0  0  0  0  0  0  0  0  0
    1.5360   -1.2831    1.4461 H   0  0  0  0  0  0  0  0  0  0  0  0
    2.3783    1.1985    0.1659 H   0  0  0  0  0  0  0  0  0  0  0  0
    1.1823    0.9499    1.4485 H   0  0  0  0  0  0  0  0  0  0  0  0
   -0.5090   -0.4103    0.8974 H   0  0  0  0  0  0  0  0  0  0  0  0
   -1.9100    1.9717   -0.3090 H   0  0  0  0  0  0  0  0  0  0  0  0
   -2.8117    0.4906    0.0705 H   0  0  0  0  0  0  0  0  0  0  0  0
   -1.8723    1.3288    1.3416 H   0  0  0  0  0  0  0  0  0  0  0  0
   -0.5181   -1.1013   -1.8940 H   0  0  0  0  0  0  0  0  0  0  0  0
  1  2  1  0
  2  3  1  0
  3  4  1  0
  4  5  1  0
  4  6  1  0
  6  7  2  0
  1  8  1  0
  1  9  1  0
  1 10  1  0
  2 11  1  0
  2 12  1  0
  4 13  1  0
  5 14  1  0
  5 15  1  0
  5 16  1  0
  6 17  1  0
M  END
