
     RDKit          3D

 21 21  0  0  0  0  0  0  0  0999 V2000
    3.3206   -0.4467    1.1282 C   0  0  0  0  0  0  0  0  0  0  0  0
    2.1856   -0.5074    0.1560 C   0  0  0  0  0  0  0  0  0  0  0  0
    1.2478    0.4836    0.3891 O   0  0  0  0  0  0  0  0  0  0  0  0
    0.2089    0.4212   -0.5075 C   0  0  0  0  0  0  0  0  0  0  0  0
   -0.5813    1.6017   -0.8999 C   0  0  0  0  0  0  0  0  0  0  0  0
   -1.1585    0.6814    0.1279 C   0  0  0  0  0  0  0  0  0  0  0  0
   -2.1954   -0.3039   -0.2610 C   0  0  0  0  0  0  0  0  0  0  0  0
   -3.2250   -0.6781    0.7564 C   0  0  0  0  0  0  0  0  0  0  0  0
   -2.1978   -0.7875   -1.3798 O   0  0  0  0  0  0  0  0  0  0  0  0
    3.2256   -1.1486    1.9796 H   0  0  0  0  0  0  0  0  0  0  0  0
    3.4249    0.5725    1.5926 H   0  0  0  0  0  0  0  0  0  0  0  0
    4.2800   -0.6161    0.5821 H   0  0  0  0  0  0  0  0  0  0  0  0
    2.5756   -0.3805   -0.8748 H   0  0  0  0  0  0  0  0  0  0  0  0
    1.6398   -1.4838    0.2426 H   0  0  0  0  0  0  0  0  0  0  0  0
    0.2877   -0.3910   -1.2526 H   0  0  0  0  0  0  0  0  0  0  0  0
   -0.2948    2.6340   -0.5941 H   0  0  0  0  0  0  0  0  0  0  0  0
   -1.0836    1.5848   -1.8945 H   0  0  0  0  0  0  0  0  0  0  0  0
   -1.1876    1.0976    1.1482 H   0  0  0  0  0  0  0  0  0  0  0  0
   -2.7354   -0.8259    1.7234 H   0  0  0  0  0  0  0  0  0  0  0  0
   -3.7185   -1.6059    0.3856 H   0  0  0  0  0  0  0  0  0  0  0  0
   -4.0186    0.0984    0.7799 H   0  0  0  0  0  0  0  0  0  0  0  0
  1  2  1  0
  2  3  1  0
  3  4  1  0
  4  5  1  0
  5  6  1  0
  6  7  1  0
  7  8  1  0
  7  9  2  0
  6  4  1  0
  1 10  1  0
  1 11  1  0
  1 12  1  0
  2 13  1  0
  2 14  1  0
  4 15  1  0
  5 16  1  0
  5 17  1  0
  6 18  1  0
  8 19  1  0
  8 20  1  0
  8 21  1  0
M  END
