
     RDKit          3D

 21 22  0  0  0  0  0  0  0  0999 V2000
   -2.7854    0.1274    0.4442 C   0  0  0  0  0  0  0  0  0  0  0  0
   -2.2268    0.4221   -0.9288 C   0  0  0  0  0  0  0  0  0  0  0  0
   -0.9601    0.9598   -0.9021 O   0  0  0  0  0  0  0  0  0  0  0  0
   -0.0877    0.0904   -0.2913 C   0  0  0  0  0  0  0  0  0  0  0  0
    1.2020   -0.1525   -1.0678 C   0  0  0  0  0  0  0  0  0  0  0  0
    1.9658    0.1094    0.1742 C   0  0  0  0  0  0  0  0  0  0  0  0
    2.9203   -0.6215    0.8223 C   0  0  0  0  0  0  0  0  0  0  0  0
    3.2060    0.6905    0.1801 O   0  0  0  0  0  0  0  0  0  0  0  0
    0.7732    0.7878    0.7685 C   0  0  0  0  0  0  0  0  0  0  0  0
   -3.5017   -0.7277    0.3160 H   0  0  0  0  0  0  0  0  0  0  0  0
   -2.0083   -0.0773    1.1975 H   0  0  0  0  0  0  0  0  0  0  0  0
   -3.4281    0.9795    0.8071 H   0  0  0  0  0  0  0  0  0  0  0  0
   -2.1895   -0.5223   -1.5062 H   0  0  0  0  0  0  0  0  0  0  0  0
   -2.9199    1.1555   -1.4145 H   0  0  0  0  0  0  0  0  0  0  0  0
   -0.5001   -0.8666    0.0736 H   0  0  0  0  0  0  0  0  0  0  0  0
    1.2267   -1.1652   -1.4848 H   0  0  0  0  0  0  0  0  0  0  0  0
    1.4191    0.6407   -1.8326 H   0  0  0  0  0  0  0  0  0  0  0  0
    3.0868   -0.5832    1.9194 H   0  0  0  0  0  0  0  0  0  0  0  0
    3.5280   -1.4231    0.3409 H   0  0  0  0  0  0  0  0  0  0  0  0
    0.7844    1.8640    0.5876 H   0  0  0  0  0  0  0  0  0  0  0  0
    0.4953    0.4736    1.7967 H   0  0  0  0  0  0  0  0  0  0  0  0
  1  2  1  0
  2  3  1  0
  3  4  1  0
  4  5  1  0
  5  6  1  0
  6  7  1  0
  7  8  1  0
  6  9  1  0
  9  4  1  0
  8  6  1  0
  1 10  1  0
  1 11  1  0
  1 12  1  0
  2 13  1  0
  2 14  1  0
  4 15  1  0
  5 16  1  0
  5 17  1  0
  7 18  1  0
  7 19  1  0
  9 20  1  0
  9 21  1  0
M  END
