
     RDKit          3D

 22 22  0  0  0  0  0  0  0  0999 V2000
    2.4402   -0.1882    0.1304 C   0  0  0  0  0  0  0  0  0  0  0  0
    1.6389    0.7580    1.0372 C   0  0  0  0  0  0  0  0  0  0  0  0
    0.3650    0.3856    1.2157 O   0  0  0  0  0  0  0  0  0  0  0  0
   -0.4729    0.2722    0.1758 C   0  0  0  0  0  0  0  0  0  0  0  0
   -0.7668    1.4507   -0.6898 C   0  0  0  0  0  0  0  0  0  0  0  0
   -1.8119   -0.3182    0.6521 C   0  0  0  0  0  0  0  0  0  0  0  0
   -1.7601   -1.3636   -0.4307 C   0  0  0  0  0  0  0  0  0  0  0  0
   -0.3053   -1.0086   -0.6307 C   0  0  0  0  0  0  0  0  0  0  0  0
    2.0294   -0.2075   -0.8962 H   0  0  0  0  0  0  0  0  0  0  0  0
    3.4818    0.1994    0.0310 H   0  0  0  0  0  0  0  0  0  0  0  0
    2.5386   -1.1936    0.5880 H   0  0  0  0  0  0  0  0  0  0  0  0
    1.8211    1.7681    0.6400 H   0  0  0  0  0  0  0  0  0  0  0  0
    2.1694    0.7165    2.0217 H   0  0  0  0  0  0  0  0  0  0  0  0
   -1.4635    2.1387   -0.1608 H   0  0  0  0  0  0  0  0  0  0  0  0
   -1.3473    1.0730   -1.5785 H   0  0  0  0  0  0  0  0  0  0  0  0
    0.0911    1.9864   -1.0761 H   0  0  0  0  0  0  0  0  0  0  0  0
   -2.6738    0.3392    0.5307 H   0  0  0  0  0  0  0  0  0  0  0  0
   -1.7854   -0.7242    1.6776 H   0  0  0  0  0  0  0  0  0  0  0  0
   -1.9666   -2.3605   -0.0228 H   0  0  0  0  0  0  0  0  0  0  0  0
   -2.4255   -1.1515   -1.2960 H   0  0  0  0  0  0  0  0  0  0  0  0
   -0.1414   -0.8056   -1.7231 H   0  0  0  0  0  0  0  0  0  0  0  0
    0.3451   -1.7664   -0.1958 H   0  0  0  0  0  0  0  0  0  0  0  0
  1  2  1  0
  2  3  1  0
  3  4  1  0
  4  5  1  0
  4  6  1  0
  6  7  1  0
  7  8  1  0
  8  4  1  0
  1  9  1  0
  1 10  1  0
  1 11  1  0
  2 12  1  0
  2 13  1  0
  5 14  1  0
  5 15  1  0
  5 16  1  0
  6 17  1  0
  6 18  1  0
  7 19  1  0
  7 20  1  0
  8 21  1  0
  8 22  1  0
M  END
