
     RDKit          3D

 23 23  0  0  0  0  0  0  0  0999 V2000
    2.9665   -0.3375   -1.2012 C   0  0  0  0  0  0  0  0  0  0  0  0
    1.9875   -0.1925   -0.0836 C   0  0  0  0  0  0  0  0  0  0  0  0
    0.7000    0.0705   -0.4765 O   0  0  0  0  0  0  0  0  0  0  0  0
   -0.0901    0.1793    0.6407 C   0  0  0  0  0  0  0  0  0  0  0  0
   -0.7393    1.5529    0.7633 C   0  0  0  0  0  0  0  0  0  0  0  0
   -2.1549    1.2344    0.3271 C   0  0  0  0  0  0  0  0  0  0  0  0
   -2.3984    0.0469    0.9751 O   0  0  0  0  0  0  0  0  0  0  0  0
   -1.2861   -0.7237    0.6375 C   0  0  0  0  0  0  0  0  0  0  0  0
   -1.5485   -1.3703   -0.6917 C   0  0  0  0  0  0  0  0  0  0  0  0
    2.8271    0.4830   -1.9458 H   0  0  0  0  0  0  0  0  0  0  0  0
    3.9854   -0.1998   -0.7822 H   0  0  0  0  0  0  0  0  0  0  0  0
    2.9571   -1.3386   -1.6723 H   0  0  0  0  0  0  0  0  0  0  0  0
    1.9698   -1.1791    0.4662 H   0  0  0  0  0  0  0  0  0  0  0  0
    2.3920    0.5640    0.6200 H   0  0  0  0  0  0  0  0  0  0  0  0
    0.5316    0.0249    1.5400 H   0  0  0  0  0  0  0  0  0  0  0  0
   -0.6986    1.9432    1.7937 H   0  0  0  0  0  0  0  0  0  0  0  0
   -0.3293    2.2643    0.0226 H   0  0  0  0  0  0  0  0  0  0  0  0
   -2.8295    2.0559    0.6296 H   0  0  0  0  0  0  0  0  0  0  0  0
   -2.1516    1.1722   -0.7687 H   0  0  0  0  0  0  0  0  0  0  0  0
   -1.2147   -1.5238    1.4012 H   0  0  0  0  0  0  0  0  0  0  0  0
   -1.7353   -0.6812   -1.5109 H   0  0  0  0  0  0  0  0  0  0  0  0
   -0.6992   -2.0266   -0.9527 H   0  0  0  0  0  0  0  0  0  0  0  0
   -2.4417   -2.0187   -0.5708 H   0  0  0  0  0  0  0  0  0  0  0  0
  1  2  1  0
  2  3  1  0
  3  4  1  0
  4  5  1  0
  5  6  1  0
  6  7  1  0
  7  8  1  0
  8  9  1  0
  8  4  1  0
  1 10  1  0
  1 11  1  0
  1 12  1  0
  2 13  1  0
  2 14  1  0
  4 15  1  0
  5 16  1  0
  5 17  1  0
  6 18  1  0
  6 19  1  0
  8 20  1  0
  9 21  1  0
  9 22  1  0
  9 23  1  0
M  END
