
     RDKit          3D

 23 22  0  0  0  0  0  0  0  0999 V2000
   -3.2377    0.7041   -0.6318 C   0  0  0  0  0  0  0  0  0  0  0  0
   -2.9160   -0.2164    0.5201 C   0  0  0  0  0  0  0  0  0  0  0  0
   -1.5717   -0.1267    0.9329 O   0  0  0  0  0  0  0  0  0  0  0  0
   -0.5302   -0.4075    0.0852 C   0  0  0  0  0  0  0  0  0  0  0  0
   -0.8130   -0.7528   -1.0898 O   0  0  0  0  0  0  0  0  0  0  0  0
    0.9003   -0.3308    0.4617 C   0  0  0  0  0  0  0  0  0  0  0  0
    1.1714    1.1002    0.8833 C   0  0  0  0  0  0  0  0  0  0  0  0
    1.7812   -0.6858   -0.6930 C   0  0  0  0  0  0  0  0  0  0  0  0
    3.2374   -0.6273   -0.3771 C   0  0  0  0  0  0  0  0  0  0  0  0
   -2.8946    1.7275   -0.3804 H   0  0  0  0  0  0  0  0  0  0  0  0
   -2.8195    0.3422   -1.5777 H   0  0  0  0  0  0  0  0  0  0  0  0
   -4.3613    0.6850   -0.7336 H   0  0  0  0  0  0  0  0  0  0  0  0
   -3.1350   -1.2568    0.1484 H   0  0  0  0  0  0  0  0  0  0  0  0
   -3.5813   -0.0206    1.3791 H   0  0  0  0  0  0  0  0  0  0  0  0
    1.1096   -0.9910    1.3281 H   0  0  0  0  0  0  0  0  0  0  0  0
    2.2116    1.2301    1.2305 H   0  0  0  0  0  0  0  0  0  0  0  0
    1.0311    1.7221   -0.0486 H   0  0  0  0  0  0  0  0  0  0  0  0
    0.4490    1.4214    1.6484 H   0  0  0  0  0  0  0  0  0  0  0  0
    1.4973   -1.7095   -1.0572 H   0  0  0  0  0  0  0  0  0  0  0  0
    1.5742    0.0722   -1.5022 H   0  0  0  0  0  0  0  0  0  0  0  0
    3.4902   -0.8970    0.6555 H   0  0  0  0  0  0  0  0  0  0  0  0
    3.7597   -1.3541   -1.0598 H   0  0  0  0  0  0  0  0  0  0  0  0
    3.6473    0.3716   -0.6661 H   0  0  0  0  0  0  0  0  0  0  0  0
  1  2  1  0
  2  3  1  0
  3  4  1  0
  4  5  2  0
  4  6  1  0
  6  7  1  0
  6  8  1  0
  8  9  1  0
  1 10  1  0
  1 11  1  0
  1 12  1  0
  2 13  1  0
  2 14  1  0
  6 15  1  0
  7 16  1  0
  7 17  1  0
  7 18  1  0
  8 19  1  0
  8 20  1  0
  9 21  1  0
  9 22  1  0
  9 23  1  0
M  END
