
     RDKit          3D

  6  5  0  0  0  0  0  0  0  0999 V2000
   -0.3810    0.0088   -0.0047 C   0  0  0  0  0  0  0  0  0  0  0  0
    0.8995   -0.2305   -0.5357 O   0  0  0  0  0  0  0  0  0  0  0  0
   -0.3693   -0.1526    1.0963 H   0  0  0  0  0  0  0  0  0  0  0  0
   -1.0480   -0.7276   -0.4741 H   0  0  0  0  0  0  0  0  0  0  0  0
   -0.6312    1.0476   -0.2554 H   0  0  0  0  0  0  0  0  0  0  0  0
    1.5299    0.0542    0.1736 H   0  0  0  0  0  0  0  0  0  0  0  0
  1  2  1  0
  1  3  1  0
  1  4  1  0
  1  5  1  0
  2  6  1  0
M  END
