
     RDKit          3D

 21 21  0  0  0  0  0  0  0  0999 V2000
    2.8364    0.6157   -0.1139 C   0  0  0  0  0  0  0  0  0  0  0  0
    1.8507   -0.0754    0.5962 O   0  0  0  0  0  0  0  0  0  0  0  0
    0.7251   -0.1817   -0.2043 C   0  0  0  0  0  0  0  0  0  0  0  0
    0.4201   -1.6598   -0.3597 C   0  0  0  0  0  0  0  0  0  0  0  0
   -0.4306    0.5116    0.5270 C   0  0  0  0  0  0  0  0  0  0  0  0
   -0.0812    1.8444    0.7236 O   0  0  0  0  0  0  0  0  0  0  0  0
   -1.6947    0.4238   -0.2995 C   0  0  0  0  0  0  0  0  0  0  0  0
   -2.7656   -0.4401    0.0867 C   0  0  0  0  0  0  0  0  0  0  0  0
   -2.7870    1.0476    0.2848 O   0  0  0  0  0  0  0  0  0  0  0  0
    2.3980    1.6179   -0.3463 H   0  0  0  0  0  0  0  0  0  0  0  0
    3.0712    0.0718   -1.0625 H   0  0  0  0  0  0  0  0  0  0  0  0
    3.7706    0.7241    0.4628 H   0  0  0  0  0  0  0  0  0  0  0  0
    0.8658    0.2935   -1.1940 H   0  0  0  0  0  0  0  0  0  0  0  0
   -0.0559   -1.8635   -1.3299 H   0  0  0  0  0  0  0  0  0  0  0  0
   -0.2110   -2.0243    0.5017 H   0  0  0  0  0  0  0  0  0  0  0  0
    1.3689   -2.2360   -0.2811 H   0  0  0  0  0  0  0  0  0  0  0  0
   -0.5797    0.0635    1.5171 H   0  0  0  0  0  0  0  0  0  0  0  0
   -0.8433    2.3199    1.1423 H   0  0  0  0  0  0  0  0  0  0  0  0
   -1.5061    0.5936   -1.3913 H   0  0  0  0  0  0  0  0  0  0  0  0
   -2.7644   -0.9801    1.0419 H   0  0  0  0  0  0  0  0  0  0  0  0
   -3.5873   -0.6664   -0.6089 H   0  0  0  0  0  0  0  0  0  0  0  0
  1  2  1  0
  2  3  1  0
  3  4  1  0
  3  5  1  0
  5  6  1  0
  5  7  1  0
  7  8  1  0
  8  9  1  0
  9  7  1  0
  1 10  1  0
  1 11  1  0
  1 12  1  0
  3 13  1  0
  4 14  1  0
  4 15  1  0
  4 16  1  0
  5 17  1  0
  6 18  1  0
  7 19  1  0
  8 20  1  0
  8 21  1  0
M  END
