
     RDKit          3D

 25 24  0  0  0  0  0  0  0  0999 V2000
    2.2529    0.4588   -1.1279 C   0  0  0  0  0  0  0  0  0  0  0  0
    0.9886   -0.0703   -1.1096 O   0  0  0  0  0  0  0  0  0  0  0  0
    0.5219   -0.2351    0.1847 C   0  0  0  0  0  0  0  0  0  0  0  0
    1.5201   -1.1921    0.8692 C   0  0  0  0  0  0  0  0  0  0  0  0
    0.5579    1.0324    1.0003 C   0  0  0  0  0  0  0  0  0  0  0  0
   -0.7847   -0.9703    0.2411 C   0  0  0  0  0  0  0  0  0  0  0  0
   -1.9187   -0.3502   -0.4764 C   0  0  0  0  0  0  0  0  0  0  0  0
   -2.3271    1.0094   -0.0327 C   0  0  0  0  0  0  0  0  0  0  0  0
   -1.6859   -0.3041   -1.8475 O   0  0  0  0  0  0  0  0  0  0  0  0
    2.6400    0.5980   -2.1793 H   0  0  0  0  0  0  0  0  0  0  0  0
    2.9593   -0.2683   -0.6296 H   0  0  0  0  0  0  0  0  0  0  0  0
    2.3156    1.4677   -0.6736 H   0  0  0  0  0  0  0  0  0  0  0  0
    0.9775   -1.5781    1.7620 H   0  0  0  0  0  0  0  0  0  0  0  0
    1.8134   -1.9657    0.1544 H   0  0  0  0  0  0  0  0  0  0  0  0
    2.3810   -0.6149    1.2890 H   0  0  0  0  0  0  0  0  0  0  0  0
   -0.2892    1.1110    1.7149 H   0  0  0  0  0  0  0  0  0  0  0  0
    1.4682    1.0762    1.6718 H   0  0  0  0  0  0  0  0  0  0  0  0
    0.6378    1.9560    0.3635 H   0  0  0  0  0  0  0  0  0  0  0  0
   -0.6393   -2.0257   -0.0920 H   0  0  0  0  0  0  0  0  0  0  0  0
   -1.0581   -1.0539    1.3309 H   0  0  0  0  0  0  0  0  0  0  0  0
   -2.8124   -1.0178   -0.3490 H   0  0  0  0  0  0  0  0  0  0  0  0
   -2.5836    1.0547    1.0617 H   0  0  0  0  0  0  0  0  0  0  0  0
   -1.6406    1.8283   -0.3150 H   0  0  0  0  0  0  0  0  0  0  0  0
   -3.3269    1.2112   -0.5273 H   0  0  0  0  0  0  0  0  0  0  0  0
   -1.9678   -1.1571   -2.2837 H   0  0  0  0  0  0  0  0  0  0  0  0
  1  2  1  0
  2  3  1  0
  3  4  1  0
  3  5  1  0
  3  6  1  0
  6  7  1  0
  7  8  1  0
  7  9  1  0
  1 10  1  0
  1 11  1  0
  1 12  1  0
  4 13  1  0
  4 14  1  0
  4 15  1  0
  5 16  1  0
  5 17  1  0
  5 18  1  0
  6 19  1  0
  6 20  1  0
  7 21  1  0
  8 22  1  0
  8 23  1  0
  8 24  1  0
  9 25  1  0
M  END
