
     RDKit          3D

 19 19  0  0  0  0  0  0  0  0999 V2000
   -3.7896   -0.1202   -0.3590 C   0  0  0  0  0  0  0  0  0  0  0  0
   -2.5309   -0.2750    0.2826 O   0  0  0  0  0  0  0  0  0  0  0  0
   -1.4249    0.4993    0.0670 C   0  0  0  0  0  0  0  0  0  0  0  0
   -1.5128    1.4449   -0.7711 O   0  0  0  0  0  0  0  0  0  0  0  0
   -0.1486    0.2829    0.7548 C   0  0  0  0  0  0  0  0  0  0  0  0
    1.0076    0.1037   -0.2199 C   0  0  0  0  0  0  0  0  0  0  0  0
    2.2681   -0.1066    0.5388 C   0  0  0  0  0  0  0  0  0  0  0  0
    3.5209   -0.3150   -0.0824 C   0  0  0  0  0  0  0  0  0  0  0  0
    2.7973   -1.4671    0.5576 O   0  0  0  0  0  0  0  0  0  0  0  0
   -4.4392   -0.9310    0.0818 H   0  0  0  0  0  0  0  0  0  0  0  0
   -3.7560   -0.3316   -1.4513 H   0  0  0  0  0  0  0  0  0  0  0  0
   -4.2274    0.8810   -0.2074 H   0  0  0  0  0  0  0  0  0  0  0  0
    0.1235    1.1632    1.3816 H   0  0  0  0  0  0  0  0  0  0  0  0
   -0.1914   -0.5773    1.4462 H   0  0  0  0  0  0  0  0  0  0  0  0
    0.8066   -0.7824   -0.8558 H   0  0  0  0  0  0  0  0  0  0  0  0
    1.1200    0.9715   -0.8948 H   0  0  0  0  0  0  0  0  0  0  0  0
    2.2444    0.2397    1.6060 H   0  0  0  0  0  0  0  0  0  0  0  0
    3.6603   -0.5406   -1.1334 H   0  0  0  0  0  0  0  0  0  0  0  0
    4.4720   -0.1394    0.4821 H   0  0  0  0  0  0  0  0  0  0  0  0
  1  2  1  0
  2  3  1  0
  3  4  2  0
  3  5  1  0
  5  6  1  0
  6  7  1  0
  7  8  1  0
  8  9  1  0
  9  7  1  0
  1 10  1  0
  1 11  1  0
  1 12  1  0
  5 13  1  0
  5 14  1  0
  6 15  1  0
  6 16  1  0
  7 17  1  0
  8 18  1  0
  8 19  1  0
M  END
