
     RDKit          3D

 25 25  0  0  0  0  0  0  0  0999 V2000
   -2.8860   -1.4743    0.4948 C   0  0  0  0  0  0  0  0  0  0  0  0
   -1.8293   -0.9303   -0.2623 O   0  0  0  0  0  0  0  0  0  0  0  0
   -1.6353    0.4006    0.0101 C   0  0  0  0  0  0  0  0  0  0  0  0
   -1.7822    1.1867   -1.2593 C   0  0  0  0  0  0  0  0  0  0  0  0
   -0.2468    0.6476    0.5654 C   0  0  0  0  0  0  0  0  0  0  0  0
    0.7507    0.1913   -0.4781 C   0  0  0  0  0  0  0  0  0  0  0  0
    2.1753    0.3957   -0.0198 C   0  0  0  0  0  0  0  0  0  0  0  0
    3.2244   -0.0205   -0.9724 C   0  0  0  0  0  0  0  0  0  0  0  0
    3.0113   -0.8739    0.2336 C   0  0  0  0  0  0  0  0  0  0  0  0
   -2.7104   -1.3978    1.5750 H   0  0  0  0  0  0  0  0  0  0  0  0
   -2.9979   -2.5213    0.1335 H   0  0  0  0  0  0  0  0  0  0  0  0
   -3.7890   -0.8708    0.2461 H   0  0  0  0  0  0  0  0  0  0  0  0
   -2.3739    0.7109    0.7700 H   0  0  0  0  0  0  0  0  0  0  0  0
   -1.3860    0.6183   -2.1012 H   0  0  0  0  0  0  0  0  0  0  0  0
   -2.8663    1.4279   -1.4514 H   0  0  0  0  0  0  0  0  0  0  0  0
   -1.2033    2.1392   -1.1381 H   0  0  0  0  0  0  0  0  0  0  0  0
   -0.0704    1.7149    0.7618 H   0  0  0  0  0  0  0  0  0  0  0  0
   -0.1104    0.0577    1.5014 H   0  0  0  0  0  0  0  0  0  0  0  0
    0.5329    0.7278   -1.4187 H   0  0  0  0  0  0  0  0  0  0  0  0
    0.5926   -0.9148   -0.6297 H   0  0  0  0  0  0  0  0  0  0  0  0
    2.3410    1.2367    0.6818 H   0  0  0  0  0  0  0  0  0  0  0  0
    4.1244    0.6391   -1.0099 H   0  0  0  0  0  0  0  0  0  0  0  0
    2.9455   -0.4315   -1.9535 H   0  0  0  0  0  0  0  0  0  0  0  0
    2.4938   -1.8379    0.1026 H   0  0  0  0  0  0  0  0  0  0  0  0
    3.6954   -0.8212    1.1020 H   0  0  0  0  0  0  0  0  0  0  0  0
  1  2  1  0
  2  3  1  0
  3  4  1  0
  3  5  1  0
  5  6  1  0
  6  7  1  0
  7  8  1  0
  8  9  1  0
  9  7  1  0
  1 10  1  0
  1 11  1  0
  1 12  1  0
  3 13  1  0
  4 14  1  0
  4 15  1  0
  4 16  1  0
  5 17  1  0
  5 18  1  0
  6 19  1  0
  6 20  1  0
  7 21  1  0
  8 22  1  0
  8 23  1  0
  9 24  1  0
  9 25  1  0
M  END
