
     RDKit          3D

 23 23  0  0  0  0  0  0  0  0999 V2000
   -0.2075    2.4988   -0.0026 C   0  0  0  0  0  0  0  0  0  0  0  0
   -0.2602    1.2372   -0.5862 O   0  0  0  0  0  0  0  0  0  0  0  0
   -0.1302    0.2546    0.3900 C   0  0  0  0  0  0  0  0  0  0  0  0
   -1.4343   -0.5136    0.5511 C   0  0  0  0  0  0  0  0  0  0  0  0
   -1.8585   -1.1707   -0.7245 C   0  0  0  0  0  0  0  0  0  0  0  0
   -1.2756   -1.4821    1.5259 O   0  0  0  0  0  0  0  0  0  0  0  0
    1.0362   -0.6505    0.1897 C   0  0  0  0  0  0  0  0  0  0  0  0
    2.3860    0.0417    0.1812 C   0  0  0  0  0  0  0  0  0  0  0  0
    1.8654   -0.6658   -1.0166 C   0  0  0  0  0  0  0  0  0  0  0  0
    0.7459    2.6738    0.5302 H   0  0  0  0  0  0  0  0  0  0  0  0
   -0.3590    3.2952   -0.7453 H   0  0  0  0  0  0  0  0  0  0  0  0
   -1.0321    2.5053    0.7693 H   0  0  0  0  0  0  0  0  0  0  0  0
    0.0054    0.7567    1.3873 H   0  0  0  0  0  0  0  0  0  0  0  0
   -2.2405    0.1817    0.8624 H   0  0  0  0  0  0  0  0  0  0  0  0
   -1.0906   -1.8667   -1.1227 H   0  0  0  0  0  0  0  0  0  0  0  0
   -2.1647   -0.4409   -1.5000 H   0  0  0  0  0  0  0  0  0  0  0  0
   -2.7498   -1.7871   -0.5061 H   0  0  0  0  0  0  0  0  0  0  0  0
   -1.8421   -2.2602    1.2843 H   0  0  0  0  0  0  0  0  0  0  0  0
    0.9517   -1.6046    0.7714 H   0  0  0  0  0  0  0  0  0  0  0  0
    2.4880    1.1175    0.0901 H   0  0  0  0  0  0  0  0  0  0  0  0
    3.1386   -0.4289    0.8446 H   0  0  0  0  0  0  0  0  0  0  0  0
    1.6388   -0.0736   -1.9182 H   0  0  0  0  0  0  0  0  0  0  0  0
    2.3895   -1.6178   -1.2551 H   0  0  0  0  0  0  0  0  0  0  0  0
  1  2  1  0
  2  3  1  0
  3  4  1  0
  4  5  1  0
  4  6  1  0
  3  7  1  0
  7  8  1  0
  8  9  1  0
  9  7  1  0
  1 10  1  0
  1 11  1  0
  1 12  1  0
  3 13  1  0
  4 14  1  0
  5 15  1  0
  5 16  1  0
  5 17  1  0
  6 18  1  0
  7 19  1  0
  8 20  1  0
  8 21  1  0
  9 22  1  0
  9 23  1  0
M  END
