
     RDKit          3D

 23 23  0  0  0  0  0  0  0  0999 V2000
   -1.2164    1.7614   -0.2116 C   0  0  0  0  0  0  0  0  0  0  0  0
   -0.8875    0.6503    0.5582 O   0  0  0  0  0  0  0  0  0  0  0  0
   -0.2731   -0.3415   -0.1527 C   0  0  0  0  0  0  0  0  0  0  0  0
   -0.9420   -0.7987   -1.3967 C   0  0  0  0  0  0  0  0  0  0  0  0
   -0.4880   -1.5787    0.8282 C   0  0  0  0  0  0  0  0  0  0  0  0
   -1.8736   -1.6692    0.9258 O   0  0  0  0  0  0  0  0  0  0  0  0
    1.1786   -0.1403   -0.3266 C   0  0  0  0  0  0  0  0  0  0  0  0
    2.1974   -0.0896    0.7209 C   0  0  0  0  0  0  0  0  0  0  0  0
    1.7039    1.2152    0.2713 C   0  0  0  0  0  0  0  0  0  0  0  0
   -1.6569    2.5157    0.4618 H   0  0  0  0  0  0  0  0  0  0  0  0
   -0.3429    2.1398   -0.7350 H   0  0  0  0  0  0  0  0  0  0  0  0
   -1.9520    1.4736   -1.0192 H   0  0  0  0  0  0  0  0  0  0  0  0
   -0.5659   -0.2710   -2.3218 H   0  0  0  0  0  0  0  0  0  0  0  0
   -2.0332   -0.7885   -1.3722 H   0  0  0  0  0  0  0  0  0  0  0  0
   -0.6404   -1.8735   -1.5683 H   0  0  0  0  0  0  0  0  0  0  0  0
    0.0126   -2.4510    0.4335 H   0  0  0  0  0  0  0  0  0  0  0  0
   -0.0731   -1.3138    1.8139 H   0  0  0  0  0  0  0  0  0  0  0  0
   -2.1744   -0.9955    1.6108 H   0  0  0  0  0  0  0  0  0  0  0  0
    1.6094   -0.3040   -1.3668 H   0  0  0  0  0  0  0  0  0  0  0  0
    1.9501   -0.4232    1.7719 H   0  0  0  0  0  0  0  0  0  0  0  0
    3.2475   -0.3449    0.4823 H   0  0  0  0  0  0  0  0  0  0  0  0
    1.0010    1.7345    0.9953 H   0  0  0  0  0  0  0  0  0  0  0  0
    2.2189    1.8930   -0.4029 H   0  0  0  0  0  0  0  0  0  0  0  0
  1  2  1  0
  2  3  1  0
  3  4  1  0
  3  5  1  0
  5  6  1  0
  3  7  1  0
  7  8  1  0
  8  9  1  0
  9  7  1  0
  1 10  1  0
  1 11  1  0
  1 12  1  0
  4 13  1  0
  4 14  1  0
  4 15  1  0
  5 16  1  0
  5 17  1  0
  6 18  1  0
  7 19  1  0
  8 20  1  0
  8 21  1  0
  9 22  1  0
  9 23  1  0
M  END
