
     RDKit          3D

 21 20  0  0  0  0  0  0  0  0999 V2000
    3.0781    0.2864   -0.5749 C   0  0  0  0  0  0  0  0  0  0  0  0
    1.8122    0.2833    0.0744 O   0  0  0  0  0  0  0  0  0  0  0  0
    0.6223    0.0797   -0.5850 C   0  0  0  0  0  0  0  0  0  0  0  0
    0.6497   -0.1134   -1.8207 O   0  0  0  0  0  0  0  0  0  0  0  0
   -0.6668    0.0905    0.1645 C   0  0  0  0  0  0  0  0  0  0  0  0
   -0.8229    1.4425    0.8182 C   0  0  0  0  0  0  0  0  0  0  0  0
   -0.5332   -0.9721    1.2383 C   0  0  0  0  0  0  0  0  0  0  0  0
   -1.8311   -0.2687   -0.6949 C   0  0  0  0  0  0  0  0  0  0  0  0
   -1.6284   -1.5499   -1.2028 O   0  0  0  0  0  0  0  0  0  0  0  0
    3.1308   -0.4482   -1.3869 H   0  0  0  0  0  0  0  0  0  0  0  0
    3.3303    1.3145   -0.8874 H   0  0  0  0  0  0  0  0  0  0  0  0
    3.8468   -0.0077    0.1742 H   0  0  0  0  0  0  0  0  0  0  0  0
   -1.8860    1.7872    0.8266 H   0  0  0  0  0  0  0  0  0  0  0  0
   -0.5143    1.4064    1.8879 H   0  0  0  0  0  0  0  0  0  0  0  0
   -0.1589    2.2060    0.3451 H   0  0  0  0  0  0  0  0  0  0  0  0
    0.4030   -0.7407    1.7887 H   0  0  0  0  0  0  0  0  0  0  0  0
   -1.3840   -0.9483    1.9470 H   0  0  0  0  0  0  0  0  0  0  0  0
   -0.4294   -1.9491    0.7256 H   0  0  0  0  0  0  0  0  0  0  0  0
   -1.9944    0.4771   -1.5175 H   0  0  0  0  0  0  0  0  0  0  0  0
   -2.7421   -0.2267   -0.0736 H   0  0  0  0  0  0  0  0  0  0  0  0
   -2.2817   -2.1489   -0.8066 H   0  0  0  0  0  0  0  0  0  0  0  0
  1  2  1  0
  2  3  1  0
  3  4  2  0
  3  5  1  0
  5  6  1  0
  5  7  1  0
  5  8  1  0
  8  9  1  0
  1 10  1  0
  1 11  1  0
  1 12  1  0
  6 13  1  0
  6 14  1  0
  6 15  1  0
  7 16  1  0
  7 17  1  0
  7 18  1  0
  8 19  1  0
  8 20  1  0
  9 21  1  0
M  END
