
     RDKit          3D

 21 20  0  0  0  0  0  0  0  0999 V2000
    2.2534   -0.8007   -0.3017 C   0  0  0  0  0  0  0  0  0  0  0  0
    0.8699   -0.8827   -0.3308 O   0  0  0  0  0  0  0  0  0  0  0  0
    0.2303    0.2984   -0.1064 C   0  0  0  0  0  0  0  0  0  0  0  0
    0.5435    1.3871   -1.0906 C   0  0  0  0  0  0  0  0  0  0  0  0
    0.4139    0.8468    1.2621 C   0  0  0  0  0  0  0  0  0  0  0  0
    1.0587    0.3366    2.1351 O   0  0  0  0  0  0  0  0  0  0  0  0
   -1.2725    0.0116   -0.2464 C   0  0  0  0  0  0  0  0  0  0  0  0
   -1.6340   -1.0379    0.7961 C   0  0  0  0  0  0  0  0  0  0  0  0
   -2.9869   -1.3295    0.7068 O   0  0  0  0  0  0  0  0  0  0  0  0
    2.6722   -0.4539    0.6409 H   0  0  0  0  0  0  0  0  0  0  0  0
    2.5497   -0.1081   -1.1387 H   0  0  0  0  0  0  0  0  0  0  0  0
    2.6895   -1.7952   -0.5284 H   0  0  0  0  0  0  0  0  0  0  0  0
    0.1293    1.1662   -2.1013 H   0  0  0  0  0  0  0  0  0  0  0  0
   -0.0306    2.2972   -0.7448 H   0  0  0  0  0  0  0  0  0  0  0  0
    1.5979    1.6958   -1.1045 H   0  0  0  0  0  0  0  0  0  0  0  0
   -0.0925    1.7968    1.4631 H   0  0  0  0  0  0  0  0  0  0  0  0
   -1.3821   -0.4751   -1.2412 H   0  0  0  0  0  0  0  0  0  0  0  0
   -1.8681    0.9263   -0.1417 H   0  0  0  0  0  0  0  0  0  0  0  0
   -1.0838   -1.9568    0.5040 H   0  0  0  0  0  0  0  0  0  0  0  0
   -1.3391   -0.6611    1.7873 H   0  0  0  0  0  0  0  0  0  0  0  0
   -3.3187   -1.2616   -0.2190 H   0  0  0  0  0  0  0  0  0  0  0  0
  1  2  1  0
  2  3  1  0
  3  4  1  0
  3  5  1  0
  5  6  2  0
  3  7  1  0
  7  8  1  0
  8  9  1  0
  1 10  1  0
  1 11  1  0
  1 12  1  0
  4 13  1  0
  4 14  1  0
  4 15  1  0
  5 16  1  0
  7 17  1  0
  7 18  1  0
  8 19  1  0
  8 20  1  0
  9 21  1  0
M  END
