
     RDKit          3D

 13 12  0  0  0  0  0  0  0  0999 V2000
    2.3258   -0.1720   -0.3078 C   0  0  0  0  0  0  0  0  0  0  0  0
    0.9610   -0.4126   -0.5982 O   0  0  0  0  0  0  0  0  0  0  0  0
   -0.0236   -0.2452    0.3364 C   0  0  0  0  0  0  0  0  0  0  0  0
    0.3014    0.1353    1.4900 O   0  0  0  0  0  0  0  0  0  0  0  0
   -1.4754   -0.4847    0.0828 C   0  0  0  0  0  0  0  0  0  0  0  0
   -2.1065    0.8295   -0.1115 C   0  0  0  0  0  0  0  0  0  0  0  0
   -1.9888    1.3973   -1.1654 O   0  0  0  0  0  0  0  0  0  0  0  0
    2.4043    0.3901    0.6647 H   0  0  0  0  0  0  0  0  0  0  0  0
    2.9099   -1.1041   -0.2040 H   0  0  0  0  0  0  0  0  0  0  0  0
    2.8193    0.4818   -1.0544 H   0  0  0  0  0  0  0  0  0  0  0  0
   -1.5836   -1.1333   -0.8124 H   0  0  0  0  0  0  0  0  0  0  0  0
   -1.8787   -0.9540    0.9970 H   0  0  0  0  0  0  0  0  0  0  0  0
   -2.6649    1.2719    0.6827 H   0  0  0  0  0  0  0  0  0  0  0  0
  1  2  1  0
  2  3  1  0
  3  4  2  0
  3  5  1  0
  5  6  1  0
  6  7  2  0
  1  8  1  0
  1  9  1  0
  1 10  1  0
  5 11  1  0
  5 12  1  0
  6 13  1  0
M  END
