
     RDKit          3D

 23 24  0  0  0  0  0  0  0  0999 V2000
    2.0966    1.3427    0.4338 C   0  0  0  0  0  0  0  0  0  0  0  0
    1.3721    0.1902    0.7127 O   0  0  0  0  0  0  0  0  0  0  0  0
    1.1325   -0.4628   -0.4733 C   0  0  0  0  0  0  0  0  0  0  0  0
    1.8134   -1.8280   -0.5214 C   0  0  0  0  0  0  0  0  0  0  0  0
   -0.3707   -0.6642   -0.7174 C   0  0  0  0  0  0  0  0  0  0  0  0
   -1.2542    0.4456   -0.8084 C   0  0  0  0  0  0  0  0  0  0  0  0
   -2.6869    0.5522   -0.2858 C   0  0  0  0  0  0  0  0  0  0  0  0
   -1.8711    0.6599    1.0235 C   0  0  0  0  0  0  0  0  0  0  0  0
   -1.2385   -0.5918    0.3973 C   0  0  0  0  0  0  0  0  0  0  0  0
    1.5525    2.0350   -0.2499 H   0  0  0  0  0  0  0  0  0  0  0  0
    2.3392    1.9240    1.3351 H   0  0  0  0  0  0  0  0  0  0  0  0
    3.0368    1.0752   -0.1231 H   0  0  0  0  0  0  0  0  0  0  0  0
    1.5851    0.1193   -1.2971 H   0  0  0  0  0  0  0  0  0  0  0  0
    2.1284   -2.1239    0.5118 H   0  0  0  0  0  0  0  0  0  0  0  0
    1.1093   -2.5689   -0.9021 H   0  0  0  0  0  0  0  0  0  0  0  0
    2.7196   -1.8230   -1.1442 H   0  0  0  0  0  0  0  0  0  0  0  0
   -0.4846   -1.4479   -1.5274 H   0  0  0  0  0  0  0  0  0  0  0  0
   -0.7512    1.4339   -0.5549 H   0  0  0  0  0  0  0  0  0  0  0  0
   -3.1584    1.4732   -0.6073 H   0  0  0  0  0  0  0  0  0  0  0  0
   -3.2702   -0.3728   -0.3379 H   0  0  0  0  0  0  0  0  0  0  0  0
   -2.4864    0.4463    1.8947 H   0  0  0  0  0  0  0  0  0  0  0  0
   -1.2256    1.5353    1.0443 H   0  0  0  0  0  0  0  0  0  0  0  0
   -2.0878   -1.3493    0.3481 H   0  0  0  0  0  0  0  0  0  0  0  0
  1  2  1  0
  2  3  1  0
  3  4  1  0
  3  5  1  0
  5  6  1  0
  6  7  1  0
  7  8  1  0
  8  9  1  0
  9  5  1  0
  9  6  1  0
  1 10  1  0
  1 11  1  0
  1 12  1  0
  3 13  1  0
  4 14  1  0
  4 15  1  0
  4 16  1  0
  5 17  1  0
  6 18  1  0
  7 19  1  0
  7 20  1  0
  8 21  1  0
  8 22  1  0
  9 23  1  0
M  END
