
     RDKit          3D

 23 23  0  0  0  0  0  0  0  0999 V2000
    2.0120   -1.3869   -0.3427 C   0  0  0  0  0  0  0  0  0  0  0  0
    1.5466   -0.1626   -0.8101 O   0  0  0  0  0  0  0  0  0  0  0  0
    0.8801    0.5301    0.1824 C   0  0  0  0  0  0  0  0  0  0  0  0
    1.6367    1.7976    0.5217 C   0  0  0  0  0  0  0  0  0  0  0  0
   -0.5415    0.8470   -0.1996 C   0  0  0  0  0  0  0  0  0  0  0  0
   -0.5198    1.6269   -1.3556 O   0  0  0  0  0  0  0  0  0  0  0  0
   -1.3747   -0.3613   -0.4608 C   0  0  0  0  0  0  0  0  0  0  0  0
   -1.6328   -1.4068    0.5361 C   0  0  0  0  0  0  0  0  0  0  0  0
   -2.7183   -0.3757    0.2270 C   0  0  0  0  0  0  0  0  0  0  0  0
    2.7254   -1.2310    0.5189 H   0  0  0  0  0  0  0  0  0  0  0  0
    2.5200   -1.9350   -1.1540 H   0  0  0  0  0  0  0  0  0  0  0  0
    1.1696   -1.9723    0.0800 H   0  0  0  0  0  0  0  0  0  0  0  0
    0.8944   -0.0918    1.0986 H   0  0  0  0  0  0  0  0  0  0  0  0
    1.0158    2.5352    1.0391 H   0  0  0  0  0  0  0  0  0  0  0  0
    2.0224    2.2869   -0.4067 H   0  0  0  0  0  0  0  0  0  0  0  0
    2.5233    1.6105    1.1574 H   0  0  0  0  0  0  0  0  0  0  0  0
   -0.9907    1.4808    0.6108 H   0  0  0  0  0  0  0  0  0  0  0  0
   -0.2024    1.0108   -2.0880 H   0  0  0  0  0  0  0  0  0  0  0  0
   -1.3736   -0.7001   -1.5360 H   0  0  0  0  0  0  0  0  0  0  0  0
   -1.2120   -1.3756    1.5596 H   0  0  0  0  0  0  0  0  0  0  0  0
   -1.8641   -2.4281    0.1841 H   0  0  0  0  0  0  0  0  0  0  0  0
   -3.5841   -0.6750   -0.3752 H   0  0  0  0  0  0  0  0  0  0  0  0
   -2.9324    0.3761    1.0131 H   0  0  0  0  0  0  0  0  0  0  0  0
  1  2  1  0
  2  3  1  0
  3  4  1  0
  3  5  1  0
  5  6  1  0
  5  7  1  0
  7  8  1  0
  8  9  1  0
  9  7  1  0
  1 10  1  0
  1 11  1  0
  1 12  1  0
  3 13  1  0
  4 14  1  0
  4 15  1  0
  4 16  1  0
  5 17  1  0
  6 18  1  0
  7 19  1  0
  8 20  1  0
  8 21  1  0
  9 22  1  0
  9 23  1  0
M  END
