
     RDKit          3D

 21 20  0  0  0  0  0  0  0  0999 V2000
   -2.8954   -1.1540    0.4592 C   0  0  0  0  0  0  0  0  0  0  0  0
   -2.0259   -0.1331    0.8240 O   0  0  0  0  0  0  0  0  0  0  0  0
   -1.0048    0.0454   -0.1068 C   0  0  0  0  0  0  0  0  0  0  0  0
   -0.9983    1.4266   -0.6918 C   0  0  0  0  0  0  0  0  0  0  0  0
    0.3011   -0.1505    0.6279 C   0  0  0  0  0  0  0  0  0  0  0  0
    1.4810    0.0145   -0.2613 C   0  0  0  0  0  0  0  0  0  0  0  0
    1.3989    0.2781   -1.4505 O   0  0  0  0  0  0  0  0  0  0  0  0
    2.8188   -0.1595    0.3728 C   0  0  0  0  0  0  0  0  0  0  0  0
    3.8633    0.0062   -0.5020 O   0  0  0  0  0  0  0  0  0  0  0  0
   -2.2584   -2.0843    0.3955 H   0  0  0  0  0  0  0  0  0  0  0  0
   -3.5784   -1.3403    1.3133 H   0  0  0  0  0  0  0  0  0  0  0  0
   -3.4045   -0.9972   -0.4886 H   0  0  0  0  0  0  0  0  0  0  0  0
   -1.1240   -0.6809   -0.9378 H   0  0  0  0  0  0  0  0  0  0  0  0
   -0.0125    1.9235   -0.5771 H   0  0  0  0  0  0  0  0  0  0  0  0
   -1.3295    1.4657   -1.7481 H   0  0  0  0  0  0  0  0  0  0  0  0
   -1.7347    2.0602   -0.1248 H   0  0  0  0  0  0  0  0  0  0  0  0
    0.3187    0.4999    1.5100 H   0  0  0  0  0  0  0  0  0  0  0  0
    0.3125   -1.2151    0.9677 H   0  0  0  0  0  0  0  0  0  0  0  0
    2.8300   -1.2191    0.7630 H   0  0  0  0  0  0  0  0  0  0  0  0
    2.8718    0.4852    1.2749 H   0  0  0  0  0  0  0  0  0  0  0  0
    4.1703    0.9288   -0.5276 H   0  0  0  0  0  0  0  0  0  0  0  0
  1  2  1  0
  2  3  1  0
  3  4  1  0
  3  5  1  0
  5  6  1  0
  6  7  2  0
  6  8  1  0
  8  9  1  0
  1 10  1  0
  1 11  1  0
  1 12  1  0
  3 13  1  0
  4 14  1  0
  4 15  1  0
  4 16  1  0
  5 17  1  0
  5 18  1  0
  8 19  1  0
  8 20  1  0
  9 21  1  0
M  END
