
     RDKit          3D

 27 26  0  0  0  0  0  0  0  0999 V2000
    2.3488    0.2440    1.1972 C   0  0  0  0  0  0  0  0  0  0  0  0
    0.9947    0.0205    1.1688 O   0  0  0  0  0  0  0  0  0  0  0  0
    0.4521    0.0673   -0.1089 C   0  0  0  0  0  0  0  0  0  0  0  0
    0.7354    1.4603   -0.6510 C   0  0  0  0  0  0  0  0  0  0  0  0
    1.1307   -0.9023   -1.0546 C   0  0  0  0  0  0  0  0  0  0  0  0
   -1.0082   -0.2044    0.0340 C   0  0  0  0  0  0  0  0  0  0  0  0
   -1.6096    0.8535    0.9199 C   0  0  0  0  0  0  0  0  0  0  0  0
   -1.1691   -1.5361    0.7363 C   0  0  0  0  0  0  0  0  0  0  0  0
   -1.7620   -0.2408   -1.2610 C   0  0  0  0  0  0  0  0  0  0  0  0
    2.9301   -0.4925    0.6083 H   0  0  0  0  0  0  0  0  0  0  0  0
    2.6188    1.2948    0.8980 H   0  0  0  0  0  0  0  0  0  0  0  0
    2.6862    0.1452    2.2468 H   0  0  0  0  0  0  0  0  0  0  0  0
    0.6288    2.1940    0.1488 H   0  0  0  0  0  0  0  0  0  0  0  0
    0.1247    1.6831   -1.5381 H   0  0  0  0  0  0  0  0  0  0  0  0
    1.8038    1.4506   -0.9690 H   0  0  0  0  0  0  0  0  0  0  0  0
    0.5724   -0.8433   -2.0194 H   0  0  0  0  0  0  0  0  0  0  0  0
    2.1519   -0.5338   -1.2788 H   0  0  0  0  0  0  0  0  0  0  0  0
    1.1848   -1.9161   -0.6392 H   0  0  0  0  0  0  0  0  0  0  0  0
   -2.4638    0.4781    1.5226 H   0  0  0  0  0  0  0  0  0  0  0  0
   -1.9354    1.7142    0.3015 H   0  0  0  0  0  0  0  0  0  0  0  0
   -0.8674    1.2722    1.6529 H   0  0  0  0  0  0  0  0  0  0  0  0
   -0.5977   -1.4472    1.6953 H   0  0  0  0  0  0  0  0  0  0  0  0
   -0.6707   -2.3114    0.1258 H   0  0  0  0  0  0  0  0  0  0  0  0
   -2.2300   -1.7726    0.9497 H   0  0  0  0  0  0  0  0  0  0  0  0
   -1.4577   -1.0298   -1.9452 H   0  0  0  0  0  0  0  0  0  0  0  0
   -1.7581    0.7809   -1.7339 H   0  0  0  0  0  0  0  0  0  0  0  0
   -2.8333   -0.4281   -1.0066 H   0  0  0  0  0  0  0  0  0  0  0  0
  1  2  1  0
  2  3  1  0
  3  4  1  0
  3  5  1  0
  3  6  1  0
  6  7  1  0
  6  8  1  0
  6  9  1  0
  1 10  1  0
  1 11  1  0
  1 12  1  0
  4 13  1  0
  4 14  1  0
  4 15  1  0
  5 16  1  0
  5 17  1  0
  5 18  1  0
  7 19  1  0
  7 20  1  0
  7 21  1  0
  8 22  1  0
  8 23  1  0
  8 24  1  0
  9 25  1  0
  9 26  1  0
  9 27  1  0
M  END
