
     RDKit          3D

 21 21  0  0  0  0  0  0  0  0999 V2000
    2.2193    0.7717   -0.9786 C   0  0  0  0  0  0  0  0  0  0  0  0
    1.5365   -0.3074   -0.5260 O   0  0  0  0  0  0  0  0  0  0  0  0
    0.6007   -0.1230    0.4343 C   0  0  0  0  0  0  0  0  0  0  0  0
    0.8599   -0.8768    1.7230 C   0  0  0  0  0  0  0  0  0  0  0  0
   -0.6936   -0.6938   -0.0955 C   0  0  0  0  0  0  0  0  0  0  0  0
   -1.1720   -0.0463   -1.3601 C   0  0  0  0  0  0  0  0  0  0  0  0
   -1.8787    0.9551   -0.4939 C   0  0  0  0  0  0  0  0  0  0  0  0
   -2.2162    2.0995   -0.6201 O   0  0  0  0  0  0  0  0  0  0  0  0
   -1.9432   -0.1363    0.5442 C   0  0  0  0  0  0  0  0  0  0  0  0
    2.8080    1.3185   -0.2234 H   0  0  0  0  0  0  0  0  0  0  0  0
    1.5136    1.5230   -1.3881 H   0  0  0  0  0  0  0  0  0  0  0  0
    2.8667    0.4556   -1.8225 H   0  0  0  0  0  0  0  0  0  0  0  0
    0.4717    0.9393    0.7409 H   0  0  0  0  0  0  0  0  0  0  0  0
    0.0023   -0.6171    2.3990 H   0  0  0  0  0  0  0  0  0  0  0  0
    0.7791   -1.9431    1.5085 H   0  0  0  0  0  0  0  0  0  0  0  0
    1.7620   -0.5647    2.2423 H   0  0  0  0  0  0  0  0  0  0  0  0
   -0.6462   -1.7986   -0.1482 H   0  0  0  0  0  0  0  0  0  0  0  0
   -1.9208   -0.6954   -1.8680 H   0  0  0  0  0  0  0  0  0  0  0  0
   -0.4341    0.3487   -2.0598 H   0  0  0  0  0  0  0  0  0  0  0  0
   -2.7903   -0.8233    0.4303 H   0  0  0  0  0  0  0  0  0  0  0  0
   -1.7246    0.2144    1.5617 H   0  0  0  0  0  0  0  0  0  0  0  0
  1  2  1  0
  2  3  1  0
  3  4  1  0
  3  5  1  0
  5  6  1  0
  6  7  1  0
  7  8  2  0
  7  9  1  0
  9  5  1  0
  1 10  1  0
  1 11  1  0
  1 12  1  0
  3 13  1  0
  4 14  1  0
  4 15  1  0
  4 16  1  0
  5 17  1  0
  6 18  1  0
  6 19  1  0
  9 20  1  0
  9 21  1  0
M  END
