
     RDKit          3D

 23 24  0  0  0  0  0  0  0  0999 V2000
   -2.5149    0.7774    0.9361 C   0  0  0  0  0  0  0  0  0  0  0  0
   -1.5207   -0.1574    0.9251 O   0  0  0  0  0  0  0  0  0  0  0  0
   -0.8005   -0.2101   -0.2767 C   0  0  0  0  0  0  0  0  0  0  0  0
   -1.0485   -1.5110   -1.0122 C   0  0  0  0  0  0  0  0  0  0  0  0
    0.5348    0.0409   -0.0915 C   0  0  0  0  0  0  0  0  0  0  0  0
    1.1340    1.3085    0.4783 C   0  0  0  0  0  0  0  0  0  0  0  0
    2.3211    0.4263    0.2030 C   0  0  0  0  0  0  0  0  0  0  0  0
    1.4892   -0.6845    0.8089 C   0  0  0  0  0  0  0  0  0  0  0  0
    1.6381    0.0747   -1.0889 C   0  0  0  0  0  0  0  0  0  0  0  0
   -3.0107    0.7277    1.9275 H   0  0  0  0  0  0  0  0  0  0  0  0
   -2.1653    1.8168    0.7973 H   0  0  0  0  0  0  0  0  0  0  0  0
   -3.2971    0.4897    0.1945 H   0  0  0  0  0  0  0  0  0  0  0  0
   -1.2830    0.5840   -0.9222 H   0  0  0  0  0  0  0  0  0  0  0  0
   -0.1047   -1.8209   -1.5092 H   0  0  0  0  0  0  0  0  0  0  0  0
   -1.3229   -2.3330   -0.3245 H   0  0  0  0  0  0  0  0  0  0  0  0
   -1.8031   -1.4144   -1.8199 H   0  0  0  0  0  0  0  0  0  0  0  0
    0.9235    1.3804    1.5550 H   0  0  0  0  0  0  0  0  0  0  0  0
    1.0241    2.2048   -0.1296 H   0  0  0  0  0  0  0  0  0  0  0  0
    3.2847    0.6153    0.3660 H   0  0  0  0  0  0  0  0  0  0  0  0
    1.2386   -0.5718    1.8651 H   0  0  0  0  0  0  0  0  0  0  0  0
    1.8071   -1.6847    0.4616 H   0  0  0  0  0  0  0  0  0  0  0  0
    1.8823   -0.9274   -1.4964 H   0  0  0  0  0  0  0  0  0  0  0  0
    1.5941    0.8689   -1.8472 H   0  0  0  0  0  0  0  0  0  0  0  0
  1  2  1  0
  2  3  1  0
  3  4  1  0
  3  5  1  0
  5  6  1  0
  6  7  1  0
  7  8  1  0
  7  9  1  0
  8  5  1  0
  9  5  1  0
  1 10  1  0
  1 11  1  0
  1 12  1  0
  3 13  1  0
  4 14  1  0
  4 15  1  0
  4 16  1  0
  6 17  1  0
  6 18  1  0
  7 19  1  0
  8 20  1  0
  8 21  1  0
  9 22  1  0
  9 23  1  0
M  END
