
     RDKit          3D

 20 19  0  0  0  0  0  0  0  0999 V2000
   -1.9932   -0.8433   -0.7769 C   0  0  0  0  0  0  0  0  0  0  0  0
   -0.6612   -0.7233   -1.0561 O   0  0  0  0  0  0  0  0  0  0  0  0
    0.1149   -0.1773   -0.0856 C   0  0  0  0  0  0  0  0  0  0  0  0
    0.1062   -0.9487    1.2215 C   0  0  0  0  0  0  0  0  0  0  0  0
    1.5669   -0.2134   -0.5794 C   0  0  0  0  0  0  0  0  0  0  0  0
    2.4181    0.3388    0.3831 O   0  0  0  0  0  0  0  0  0  0  0  0
   -0.1910    1.2416    0.2656 C   0  0  0  0  0  0  0  0  0  0  0  0
   -0.0670    2.1307   -0.7647 O   0  0  0  0  0  0  0  0  0  0  0  0
   -2.2251   -1.4766    0.1092 H   0  0  0  0  0  0  0  0  0  0  0  0
   -2.5432    0.1264   -0.7314 H   0  0  0  0  0  0  0  0  0  0  0  0
   -2.4582   -1.3915   -1.6488 H   0  0  0  0  0  0  0  0  0  0  0  0
    0.3359   -2.0098    1.0785 H   0  0  0  0  0  0  0  0  0  0  0  0
   -0.7949   -0.7402    1.8102 H   0  0  0  0  0  0  0  0  0  0  0  0
    0.9641   -0.5242    1.8132 H   0  0  0  0  0  0  0  0  0  0  0  0
    1.8461   -1.2810   -0.7548 H   0  0  0  0  0  0  0  0  0  0  0  0
    1.5784    0.3584   -1.5173 H   0  0  0  0  0  0  0  0  0  0  0  0
    3.3182    0.3515   -0.0282 H   0  0  0  0  0  0  0  0  0  0  0  0
   -1.2309    1.2878    0.6925 H   0  0  0  0  0  0  0  0  0  0  0  0
    0.4888    1.5292    1.0954 H   0  0  0  0  0  0  0  0  0  0  0  0
   -0.5726    2.9649   -0.5261 H   0  0  0  0  0  0  0  0  0  0  0  0
  1  2  1  0
  2  3  1  0
  3  4  1  0
  3  5  1  0
  5  6  1  0
  3  7  1  0
  7  8  1  0
  1  9  1  0
  1 10  1  0
  1 11  1  0
  4 12  1  0
  4 13  1  0
  4 14  1  0
  5 15  1  0
  5 16  1  0
  6 17  1  0
  7 18  1  0
  7 19  1  0
  8 20  1  0
M  END
