
     RDKit          3D

 19 19  0  0  0  0  0  0  0  0999 V2000
    3.2655   -0.5739   -0.2852 C   0  0  0  0  0  0  0  0  0  0  0  0
    2.2264   -0.0167    0.4593 O   0  0  0  0  0  0  0  0  0  0  0  0
    0.8979    0.0008    0.0333 C   0  0  0  0  0  0  0  0  0  0  0  0
    0.6759   -0.5244   -1.0849 O   0  0  0  0  0  0  0  0  0  0  0  0
   -0.1731    0.5915    0.8326 C   0  0  0  0  0  0  0  0  0  0  0  0
   -1.5284    0.5471    0.2305 C   0  0  0  0  0  0  0  0  0  0  0  0
   -2.0819   -0.8175   -0.0815 C   0  0  0  0  0  0  0  0  0  0  0  0
   -1.9197   -0.6074   -1.4291 O   0  0  0  0  0  0  0  0  0  0  0  0
   -1.6843    0.7490   -1.2333 C   0  0  0  0  0  0  0  0  0  0  0  0
    2.9488   -1.2845   -1.0559 H   0  0  0  0  0  0  0  0  0  0  0  0
    4.0236   -1.1166    0.3500 H   0  0  0  0  0  0  0  0  0  0  0  0
    3.8500    0.2810   -0.7242 H   0  0  0  0  0  0  0  0  0  0  0  0
   -0.2232    0.0845    1.8395 H   0  0  0  0  0  0  0  0  0  0  0  0
    0.0301    1.6698    1.0983 H   0  0  0  0  0  0  0  0  0  0  0  0
   -2.2977    1.1690    0.7829 H   0  0  0  0  0  0  0  0  0  0  0  0
   -3.1455   -0.9439    0.2223 H   0  0  0  0  0  0  0  0  0  0  0  0
   -1.4553   -1.6615    0.2713 H   0  0  0  0  0  0  0  0  0  0  0  0
   -0.8182    1.0922   -1.8041 H   0  0  0  0  0  0  0  0  0  0  0  0
   -2.5911    1.3616   -1.5220 H   0  0  0  0  0  0  0  0  0  0  0  0
  1  2  1  0
  2  3  1  0
  3  4  2  0
  3  5  1  0
  5  6  1  0
  6  7  1  0
  7  8  1  0
  8  9  1  0
  9  6  1  0
  1 10  1  0
  1 11  1  0
  1 12  1  0
  5 13  1  0
  5 14  1  0
  6 15  1  0
  7 16  1  0
  7 17  1  0
  9 18  1  0
  9 19  1  0
M  END
