
     RDKit          3D

 19 19  0  0  0  0  0  0  0  0999 V2000
    3.3775    0.4512   -0.1164 C   0  0  0  0  0  0  0  0  0  0  0  0
    2.1912    0.0793   -0.7736 O   0  0  0  0  0  0  0  0  0  0  0  0
    0.9386    0.1142   -0.1894 C   0  0  0  0  0  0  0  0  0  0  0  0
    0.8705    0.5046    1.0035 O   0  0  0  0  0  0  0  0  0  0  0  0
   -0.3022   -0.2876   -0.9148 C   0  0  0  0  0  0  0  0  0  0  0  0
   -1.4870   -0.7625   -0.1727 C   0  0  0  0  0  0  0  0  0  0  0  0
   -1.4801   -0.9231    1.3161 C   0  0  0  0  0  0  0  0  0  0  0  0
   -1.4974    0.6372   -0.7026 C   0  0  0  0  0  0  0  0  0  0  0  0
   -2.2923    0.9617   -1.7842 O   0  0  0  0  0  0  0  0  0  0  0  0
    3.2267    0.8084    0.9075 H   0  0  0  0  0  0  0  0  0  0  0  0
    4.0811   -0.3949   -0.1954 H   0  0  0  0  0  0  0  0  0  0  0  0
    3.8500    1.2959   -0.6892 H   0  0  0  0  0  0  0  0  0  0  0  0
   -0.2107   -0.6269   -1.9656 H   0  0  0  0  0  0  0  0  0  0  0  0
   -2.1619   -1.5005   -0.6974 H   0  0  0  0  0  0  0  0  0  0  0  0
   -2.2352   -1.6725    1.6647 H   0  0  0  0  0  0  0  0  0  0  0  0
   -1.7931    0.0393    1.7759 H   0  0  0  0  0  0  0  0  0  0  0  0
   -0.4863   -1.2652    1.7023 H   0  0  0  0  0  0  0  0  0  0  0  0
   -1.3456    1.4878    0.0164 H   0  0  0  0  0  0  0  0  0  0  0  0
   -3.2438    1.0535   -1.5727 H   0  0  0  0  0  0  0  0  0  0  0  0
  1  2  1  0
  2  3  1  0
  3  4  2  0
  3  5  1  0
  5  6  1  0
  6  7  1  0
  6  8  1  0
  8  9  1  0
  8  5  1  0
  1 10  1  0
  1 11  1  0
  1 12  1  0
  5 13  1  0
  6 14  1  0
  7 15  1  0
  7 16  1  0
  7 17  1  0
  8 18  1  0
  9 19  1  0
M  END
