
     RDKit          3D

 19 18  0  0  0  0  0  0  0  0999 V2000
   -2.0021   -0.9709    0.1791 C   0  0  0  0  0  0  0  0  0  0  0  0
   -0.7095   -0.9991   -0.2895 O   0  0  0  0  0  0  0  0  0  0  0  0
   -0.0283    0.1812   -0.1858 C   0  0  0  0  0  0  0  0  0  0  0  0
    0.1093    0.6881    1.2275 C   0  0  0  0  0  0  0  0  0  0  0  0
   -0.7065    1.2631   -0.9685 C   0  0  0  0  0  0  0  0  0  0  0  0
   -0.1537    2.3658   -0.9279 O   0  0  0  0  0  0  0  0  0  0  0  0
    1.3459    0.0066   -0.7574 C   0  0  0  0  0  0  0  0  0  0  0  0
    2.1388   -1.0302   -0.0696 C   0  0  0  0  0  0  0  0  0  0  0  0
    3.2626   -1.2562   -0.4470 O   0  0  0  0  0  0  0  0  0  0  0  0
   -2.6364   -0.2273   -0.3604 H   0  0  0  0  0  0  0  0  0  0  0  0
   -2.4597   -1.9666   -0.0659 H   0  0  0  0  0  0  0  0  0  0  0  0
   -2.0823   -0.8708    1.2793 H   0  0  0  0  0  0  0  0  0  0  0  0
    0.8998    1.4955    1.1870 H   0  0  0  0  0  0  0  0  0  0  0  0
    0.4802   -0.0542    1.9364 H   0  0  0  0  0  0  0  0  0  0  0  0
   -0.7910    1.1621    1.6164 H   0  0  0  0  0  0  0  0  0  0  0  0
   -1.6128    1.1053   -1.5318 H   0  0  0  0  0  0  0  0  0  0  0  0
    1.9286    0.9755   -0.7500 H   0  0  0  0  0  0  0  0  0  0  0  0
    1.2780   -0.2832   -1.8268 H   0  0  0  0  0  0  0  0  0  0  0  0
    1.7393   -1.5846    0.7548 H   0  0  0  0  0  0  0  0  0  0  0  0
  1  2  1  0
  2  3  1  0
  3  4  1  0
  3  5  1  0
  5  6  2  0
  3  7  1  0
  7  8  1  0
  8  9  2  0
  1 10  1  0
  1 11  1  0
  1 12  1  0
  4 13  1  0
  4 14  1  0
  4 15  1  0
  5 16  1  0
  7 17  1  0
  7 18  1  0
  8 19  1  0
M  END
