
     RDKit          3D

 17 16  0  0  0  0  0  0  0  0999 V2000
    2.5909    0.1613   -0.8889 C   0  0  0  0  0  0  0  0  0  0  0  0
    1.1860    0.2996   -0.7787 O   0  0  0  0  0  0  0  0  0  0  0  0
    0.5662   -0.1588    0.3789 C   0  0  0  0  0  0  0  0  0  0  0  0
    1.2610   -0.6789    1.2888 O   0  0  0  0  0  0  0  0  0  0  0  0
   -0.8922   -0.0641    0.5979 C   0  0  0  0  0  0  0  0  0  0  0  0
   -1.6755   -0.6859   -0.5420 C   0  0  0  0  0  0  0  0  0  0  0  0
   -1.2531   -0.5850    1.8138 O   0  0  0  0  0  0  0  0  0  0  0  0
   -1.2365    1.3959    0.6118 C   0  0  0  0  0  0  0  0  0  0  0  0
   -1.7375    1.9332    1.5617 O   0  0  0  0  0  0  0  0  0  0  0  0
    2.8372   -0.4986   -1.7598 H   0  0  0  0  0  0  0  0  0  0  0  0
    2.9944    1.1894   -1.0368 H   0  0  0  0  0  0  0  0  0  0  0  0
    3.0413   -0.2332    0.0587 H   0  0  0  0  0  0  0  0  0  0  0  0
   -1.5340   -0.0561   -1.4394 H   0  0  0  0  0  0  0  0  0  0  0  0
   -1.2715   -1.7001   -0.7662 H   0  0  0  0  0  0  0  0  0  0  0  0
   -2.7285   -0.7429   -0.2054 H   0  0  0  0  0  0  0  0  0  0  0  0
   -1.1244   -1.5640    1.8834 H   0  0  0  0  0  0  0  0  0  0  0  0
   -1.0238    1.9880   -0.2720 H   0  0  0  0  0  0  0  0  0  0  0  0
  1  2  1  0
  2  3  1  0
  3  4  2  0
  3  5  1  0
  5  6  1  0
  5  7  1  0
  5  8  1  0
  8  9  2  0
  1 10  1  0
  1 11  1  0
  1 12  1  0
  6 13  1  0
  6 14  1  0
  6 15  1  0
  7 16  1  0
  8 17  1  0
M  END
