
     RDKit          3D

 22 21  0  0  0  0  0  0  0  0999 V2000
   -2.3267   -1.6497   -0.5223 C   0  0  0  0  0  0  0  0  0  0  0  0
   -2.0676   -0.3097   -0.2949 O   0  0  0  0  0  0  0  0  0  0  0  0
   -0.7832   -0.0652    0.1490 C   0  0  0  0  0  0  0  0  0  0  0  0
   -0.7498    0.5192    1.5477 C   0  0  0  0  0  0  0  0  0  0  0  0
    0.0137    0.8309   -0.7407 C   0  0  0  0  0  0  0  0  0  0  0  0
    1.3900    0.9967   -0.1148 C   0  0  0  0  0  0  0  0  0  0  0  0
    2.0994   -0.3301    0.0254 C   0  0  0  0  0  0  0  0  0  0  0  0
    2.1878    1.8647   -0.8543 O   0  0  0  0  0  0  0  0  0  0  0  0
   -3.3784   -1.7267   -0.8727 H   0  0  0  0  0  0  0  0  0  0  0  0
   -1.6976   -2.0822   -1.3331 H   0  0  0  0  0  0  0  0  0  0  0  0
   -2.2719   -2.2584    0.4063 H   0  0  0  0  0  0  0  0  0  0  0  0
   -0.2734   -1.0494    0.2098 H   0  0  0  0  0  0  0  0  0  0  0  0
   -0.0021    0.0476    2.1978 H   0  0  0  0  0  0  0  0  0  0  0  0
   -0.5947    1.6056    1.5603 H   0  0  0  0  0  0  0  0  0  0  0  0
   -1.7468    0.3327    1.9984 H   0  0  0  0  0  0  0  0  0  0  0  0
   -0.4353    1.8437   -0.8104 H   0  0  0  0  0  0  0  0  0  0  0  0
    0.1695    0.4302   -1.7560 H   0  0  0  0  0  0  0  0  0  0  0  0
    1.3305    1.4289    0.9113 H   0  0  0  0  0  0  0  0  0  0  0  0
    3.2059   -0.1511   -0.0616 H   0  0  0  0  0  0  0  0  0  0  0  0
    1.8409   -1.0320   -0.8025 H   0  0  0  0  0  0  0  0  0  0  0  0
    1.8658   -0.8411    0.9810 H   0  0  0  0  0  0  0  0  0  0  0  0
    2.2241    1.5953   -1.8237 H   0  0  0  0  0  0  0  0  0  0  0  0
  1  2  1  0
  2  3  1  0
  3  4  1  0
  3  5  1  0
  5  6  1  0
  6  7  1  0
  6  8  1  0
  1  9  1  0
  1 10  1  0
  1 11  1  0
  3 12  1  0
  4 13  1  0
  4 14  1  0
  4 15  1  0
  5 16  1  0
  5 17  1  0
  6 18  1  0
  7 19  1  0
  7 20  1  0
  7 21  1  0
  8 22  1  0
M  END
