
     RDKit          3D

 12 11  0  0  0  0  0  0  0  0999 V2000
    2.5726   -1.0181    0.5427 C   0  0  0  0  0  0  0  0  0  0  0  0
    1.2748   -0.4201    0.7220 O   0  0  0  0  0  0  0  0  0  0  0  0
    0.4063   -0.2996   -0.3584 C   0  0  0  0  0  0  0  0  0  0  0  0
    0.8489   -0.7532   -1.4636 O   0  0  0  0  0  0  0  0  0  0  0  0
   -0.8987    0.2868   -0.2754 C   0  0  0  0  0  0  0  0  0  0  0  0
   -2.0158    0.8080   -0.2058 C   0  0  0  0  0  0  0  0  0  0  0  0
   -3.3087    1.4203   -0.1488 C   0  0  0  0  0  0  0  0  0  0  0  0
   -3.4024    2.5041    0.4724 O   0  0  0  0  0  0  0  0  0  0  0  0
    3.3039   -0.4806    1.1677 H   0  0  0  0  0  0  0  0  0  0  0  0
    2.5413   -2.1070    0.7556 H   0  0  0  0  0  0  0  0  0  0  0  0
    2.8633   -0.9474   -0.5477 H   0  0  0  0  0  0  0  0  0  0  0  0
   -4.1855    1.0068   -0.6019 H   0  0  0  0  0  0  0  0  0  0  0  0
  1  2  1  0
  2  3  1  0
  3  4  2  0
  3  5  1  0
  5  6  3  0
  6  7  1  0
  7  8  2  0
  1  9  1  0
  1 10  1  0
  1 11  1  0
  7 12  1  0
M  END
