
     RDKit          3D

 17 18  0  0  0  0  0  0  0  0999 V2000
    3.1929    0.1853   -0.3407 C   0  0  0  0  0  0  0  0  0  0  0  0
    1.8869    0.3491    0.1884 O   0  0  0  0  0  0  0  0  0  0  0  0
    0.9304   -0.6062   -0.0813 C   0  0  0  0  0  0  0  0  0  0  0  0
    1.2479   -1.5860   -0.7843 O   0  0  0  0  0  0  0  0  0  0  0  0
   -0.4093   -0.4467    0.4562 C   0  0  0  0  0  0  0  0  0  0  0  0
   -1.3395   -1.4200    0.1666 O   0  0  0  0  0  0  0  0  0  0  0  0
   -2.2591   -0.5698   -0.4175 C   0  0  0  0  0  0  0  0  0  0  0  0
   -2.6165    0.7278    0.2005 C   0  0  0  0  0  0  0  0  0  0  0  0
   -1.2557    0.5375   -0.3047 C   0  0  0  0  0  0  0  0  0  0  0  0
    3.6868    1.1871   -0.2331 H   0  0  0  0  0  0  0  0  0  0  0  0
    3.1563   -0.0239   -1.4176 H   0  0  0  0  0  0  0  0  0  0  0  0
    3.7620   -0.5689    0.2289 H   0  0  0  0  0  0  0  0  0  0  0  0
   -0.3719   -0.1457    1.5286 H   0  0  0  0  0  0  0  0  0  0  0  0
   -2.7078   -0.8323   -1.3774 H   0  0  0  0  0  0  0  0  0  0  0  0
   -2.7377    0.8363    1.2981 H   0  0  0  0  0  0  0  0  0  0  0  0
   -3.2887    1.3690   -0.3775 H   0  0  0  0  0  0  0  0  0  0  0  0
   -0.8770    1.0072   -1.2285 H   0  0  0  0  0  0  0  0  0  0  0  0
  1  2  1  0
  2  3  1  0
  3  4  2  0
  3  5  1  0
  5  6  1  0
  6  7  1  0
  7  8  1  0
  8  9  1  0
  9  5  1  0
  9  7  1  0
  1 10  1  0
  1 11  1  0
  1 12  1  0
  5 13  1  0
  7 14  1  0
  8 15  1  0
  8 16  1  0
  9 17  1  0
M  END
