
     RDKit          3D

 19 19  0  0  0  0  0  0  0  0999 V2000
    2.2657   -0.8303   -0.1515 C   0  0  0  0  0  0  0  0  0  0  0  0
    1.3935   -0.1252   -0.9700 O   0  0  0  0  0  0  0  0  0  0  0  0
    0.4781    0.5489   -0.1846 C   0  0  0  0  0  0  0  0  0  0  0  0
    0.6429    2.0070   -0.3410 C   0  0  0  0  0  0  0  0  0  0  0  0
   -0.0713    2.7589    0.2696 O   0  0  0  0  0  0  0  0  0  0  0  0
   -0.9518    0.1915   -0.5347 C   0  0  0  0  0  0  0  0  0  0  0  0
   -1.4521   -1.1853   -0.4356 C   0  0  0  0  0  0  0  0  0  0  0  0
   -1.9689   -0.0672    0.4812 C   0  0  0  0  0  0  0  0  0  0  0  0
   -1.7339   -0.2953    1.8028 O   0  0  0  0  0  0  0  0  0  0  0  0
    3.0254   -1.3942   -0.6910 H   0  0  0  0  0  0  0  0  0  0  0  0
    2.7864   -0.1066    0.5275 H   0  0  0  0  0  0  0  0  0  0  0  0
    1.7122   -1.5340    0.5349 H   0  0  0  0  0  0  0  0  0  0  0  0
    0.6998    0.3346    0.8916 H   0  0  0  0  0  0  0  0  0  0  0  0
    1.3946    2.3895   -0.9947 H   0  0  0  0  0  0  0  0  0  0  0  0
   -1.2960    0.7504   -1.4560 H   0  0  0  0  0  0  0  0  0  0  0  0
   -2.2106   -1.5607   -1.1655 H   0  0  0  0  0  0  0  0  0  0  0  0
   -0.8643   -2.0014    0.0106 H   0  0  0  0  0  0  0  0  0  0  0  0
   -3.0177    0.2965    0.2752 H   0  0  0  0  0  0  0  0  0  0  0  0
   -0.8321   -0.1770    2.1308 H   0  0  0  0  0  0  0  0  0  0  0  0
  1  2  1  0
  2  3  1  0
  3  4  1  0
  4  5  2  0
  3  6  1  0
  6  7  1  0
  7  8  1  0
  8  9  1  0
  8  6  1  0
  1 10  1  0
  1 11  1  0
  1 12  1  0
  3 13  1  0
  4 14  1  0
  6 15  1  0
  7 16  1  0
  7 17  1  0
  8 18  1  0
  9 19  1  0
M  END
