
     RDKit          3D

 23 23  0  0  0  0  0  0  0  0999 V2000
    2.2939   -1.2370    0.3508 C   0  0  0  0  0  0  0  0  0  0  0  0
    1.3075   -0.7707   -0.5150 O   0  0  0  0  0  0  0  0  0  0  0  0
    0.6859    0.3746   -0.0236 C   0  0  0  0  0  0  0  0  0  0  0  0
    1.0120    1.4984   -0.9808 C   0  0  0  0  0  0  0  0  0  0  0  0
   -0.7766    0.1274    0.1133 C   0  0  0  0  0  0  0  0  0  0  0  0
   -1.6230    1.2303    0.6242 C   0  0  0  0  0  0  0  0  0  0  0  0
   -1.4328   -0.6291   -1.0196 C   0  0  0  0  0  0  0  0  0  0  0  0
   -2.2169   -1.2776   -0.0365 O   0  0  0  0  0  0  0  0  0  0  0  0
   -1.0802   -1.1799    0.7973 C   0  0  0  0  0  0  0  0  0  0  0  0
    3.0988   -0.4989    0.5289 H   0  0  0  0  0  0  0  0  0  0  0  0
    1.7800   -1.3526    1.3499 H   0  0  0  0  0  0  0  0  0  0  0  0
    2.6587   -2.2298    0.0447 H   0  0  0  0  0  0  0  0  0  0  0  0
    1.1452    0.6134    0.9352 H   0  0  0  0  0  0  0  0  0  0  0  0
    0.9392    1.0893   -2.0299 H   0  0  0  0  0  0  0  0  0  0  0  0
    0.3764    2.3848   -0.8447 H   0  0  0  0  0  0  0  0  0  0  0  0
    2.0777    1.7923   -0.7959 H   0  0  0  0  0  0  0  0  0  0  0  0
   -2.6930    0.9192    0.5266 H   0  0  0  0  0  0  0  0  0  0  0  0
   -1.5366    2.1736    0.0486 H   0  0  0  0  0  0  0  0  0  0  0  0
   -1.4816    1.4418    1.7144 H   0  0  0  0  0  0  0  0  0  0  0  0
   -2.0550   -0.0087   -1.6985 H   0  0  0  0  0  0  0  0  0  0  0  0
   -0.7786   -1.3669   -1.4835 H   0  0  0  0  0  0  0  0  0  0  0  0
   -1.3225   -1.1021    1.8763 H   0  0  0  0  0  0  0  0  0  0  0  0
   -0.3782   -1.9919    0.5176 H   0  0  0  0  0  0  0  0  0  0  0  0
  1  2  1  0
  2  3  1  0
  3  4  1  0
  3  5  1  0
  5  6  1  0
  5  7  1  0
  7  8  1  0
  8  9  1  0
  9  5  1  0
  1 10  1  0
  1 11  1  0
  1 12  1  0
  3 13  1  0
  4 14  1  0
  4 15  1  0
  4 16  1  0
  6 17  1  0
  6 18  1  0
  6 19  1  0
  7 20  1  0
  7 21  1  0
  9 22  1  0
  9 23  1  0
M  END
