
     RDKit          3D

 19 18  0  0  0  0  0  0  0  0999 V2000
   -1.5244   -0.9084   -1.1505 C   0  0  0  0  0  0  0  0  0  0  0  0
   -0.6683   -0.7901   -0.0933 O   0  0  0  0  0  0  0  0  0  0  0  0
    0.1093    0.3200   -0.0576 C   0  0  0  0  0  0  0  0  0  0  0  0
   -0.0647    1.1959    1.1475 C   0  0  0  0  0  0  0  0  0  0  0  0
   -1.4427    1.7199    1.3024 C   0  0  0  0  0  0  0  0  0  0  0  0
   -1.6436    2.4373    2.2643 O   0  0  0  0  0  0  0  0  0  0  0  0
    1.5334   -0.0594   -0.1857 C   0  0  0  0  0  0  0  0  0  0  0  0
    1.9264   -1.4764   -0.3264 C   0  0  0  0  0  0  0  0  0  0  0  0
    2.3881    0.8328   -0.1726 O   0  0  0  0  0  0  0  0  0  0  0  0
   -2.0816   -1.8815   -1.0124 H   0  0  0  0  0  0  0  0  0  0  0  0
   -1.0108   -1.0224   -2.1322 H   0  0  0  0  0  0  0  0  0  0  0  0
   -2.3169   -0.1339   -1.1838 H   0  0  0  0  0  0  0  0  0  0  0  0
   -0.1293    0.9440   -0.9541 H   0  0  0  0  0  0  0  0  0  0  0  0
    0.5802    2.1072    0.9710 H   0  0  0  0  0  0  0  0  0  0  0  0
    0.3307    0.7463    2.0787 H   0  0  0  0  0  0  0  0  0  0  0  0
   -2.2064    1.4693    0.5954 H   0  0  0  0  0  0  0  0  0  0  0  0
    2.8606   -1.4883   -0.9545 H   0  0  0  0  0  0  0  0  0  0  0  0
    1.1573   -2.1032   -0.7899 H   0  0  0  0  0  0  0  0  0  0  0  0
    2.2026   -1.9091    0.6537 H   0  0  0  0  0  0  0  0  0  0  0  0
  1  2  1  0
  2  3  1  0
  3  4  1  0
  4  5  1  0
  5  6  2  0
  3  7  1  0
  7  8  1  0
  7  9  2  0
  1 10  1  0
  1 11  1  0
  1 12  1  0
  3 13  1  0
  4 14  1  0
  4 15  1  0
  5 16  1  0
  8 17  1  0
  8 18  1  0
  8 19  1  0
M  END
