
     RDKit          3D

 23 23  0  0  0  0  0  0  0  0999 V2000
   -2.3009    1.9035    0.2546 C   0  0  0  0  0  0  0  0  0  0  0  0
   -2.0150    0.9352   -0.7030 O   0  0  0  0  0  0  0  0  0  0  0  0
   -1.1510   -0.0031   -0.1594 C   0  0  0  0  0  0  0  0  0  0  0  0
   -1.8058   -1.3701   -0.1480 C   0  0  0  0  0  0  0  0  0  0  0  0
    0.1540   -0.0865   -0.8954 C   0  0  0  0  0  0  0  0  0  0  0  0
    0.9992   -1.1448   -0.1997 C   0  0  0  0  0  0  0  0  0  0  0  0
    2.3227   -1.3085   -0.8536 O   0  0  0  0  0  0  0  0  0  0  0  0
    2.2267   -0.8137    0.4618 C   0  0  0  0  0  0  0  0  0  0  0  0
    2.7700    0.5694    0.6242 C   0  0  0  0  0  0  0  0  0  0  0  0
   -1.3192    2.3691    0.5319 H   0  0  0  0  0  0  0  0  0  0  0  0
   -2.9784    2.6797   -0.1020 H   0  0  0  0  0  0  0  0  0  0  0  0
   -2.7584    1.4352    1.1577 H   0  0  0  0  0  0  0  0  0  0  0  0
   -0.9152    0.2634    0.8926 H   0  0  0  0  0  0  0  0  0  0  0  0
   -1.3897   -1.9291    0.6913 H   0  0  0  0  0  0  0  0  0  0  0  0
   -2.8890   -1.1960    0.0848 H   0  0  0  0  0  0  0  0  0  0  0  0
   -1.6396   -1.9262   -1.0702 H   0  0  0  0  0  0  0  0  0  0  0  0
    0.6722    0.8814   -0.8684 H   0  0  0  0  0  0  0  0  0  0  0  0
   -0.0348   -0.3332   -1.9514 H   0  0  0  0  0  0  0  0  0  0  0  0
    0.5232   -2.1215    0.0112 H   0  0  0  0  0  0  0  0  0  0  0  0
    2.6060   -1.5299    1.2429 H   0  0  0  0  0  0  0  0  0  0  0  0
    3.8910    0.4692    0.6956 H   0  0  0  0  0  0  0  0  0  0  0  0
    2.4502    1.0228    1.6039 H   0  0  0  0  0  0  0  0  0  0  0  0
    2.5818    1.2336   -0.2254 H   0  0  0  0  0  0  0  0  0  0  0  0
  1  2  1  0
  2  3  1  0
  3  4  1  0
  3  5  1  0
  5  6  1  0
  6  7  1  0
  7  8  1  0
  8  9  1  0
  8  6  1  0
  1 10  1  0
  1 11  1  0
  1 12  1  0
  3 13  1  0
  4 14  1  0
  4 15  1  0
  4 16  1  0
  5 17  1  0
  5 18  1  0
  6 19  1  0
  8 20  1  0
  9 21  1  0
  9 22  1  0
  9 23  1  0
M  END
