
     RDKit          3D

 17 17  0  0  0  0  0  0  0  0999 V2000
    3.0849    0.2785    0.1442 C   0  0  0  0  0  0  0  0  0  0  0  0
    1.7321    0.5751    0.4330 O   0  0  0  0  0  0  0  0  0  0  0  0
    0.6633    0.0331   -0.2646 C   0  0  0  0  0  0  0  0  0  0  0  0
    0.9459   -0.7599   -1.1966 O   0  0  0  0  0  0  0  0  0  0  0  0
   -0.7432    0.3677    0.0670 C   0  0  0  0  0  0  0  0  0  0  0  0
   -1.0139    1.2414    1.0959 O   0  0  0  0  0  0  0  0  0  0  0  0
   -1.8115    0.2248   -0.9556 C   0  0  0  0  0  0  0  0  0  0  0  0
   -1.6703   -0.8537    0.0350 C   0  0  0  0  0  0  0  0  0  0  0  0
   -2.6008   -0.9866    1.0684 O   0  0  0  0  0  0  0  0  0  0  0  0
    3.1101   -0.4668   -0.6553 H   0  0  0  0  0  0  0  0  0  0  0  0
    3.6034    1.2248   -0.0868 H   0  0  0  0  0  0  0  0  0  0  0  0
    3.5122   -0.1443    1.0915 H   0  0  0  0  0  0  0  0  0  0  0  0
   -0.5357    2.1029    1.0056 H   0  0  0  0  0  0  0  0  0  0  0  0
   -1.5547   -0.0204   -2.0210 H   0  0  0  0  0  0  0  0  0  0  0  0
   -2.6787    0.9277   -0.9123 H   0  0  0  0  0  0  0  0  0  0  0  0
   -1.2673   -1.8146   -0.3113 H   0  0  0  0  0  0  0  0  0  0  0  0
   -2.7758   -1.9296    1.3041 H   0  0  0  0  0  0  0  0  0  0  0  0
  1  2  1  0
  2  3  1  0
  3  4  2  0
  3  5  1  0
  5  6  1  0
  5  7  1  0
  7  8  1  0
  8  9  1  0
  8  5  1  0
  1 10  1  0
  1 11  1  0
  1 12  1  0
  6 13  1  0
  7 14  1  0
  7 15  1  0
  8 16  1  0
  9 17  1  0
M  END
