
     RDKit          3D

 17 18  0  0  0  0  0  0  0  0999 V2000
    3.1870   -0.1399   -0.2036 C   0  0  0  0  0  0  0  0  0  0  0  0
    1.8866   -0.1582    0.3706 O   0  0  0  0  0  0  0  0  0  0  0  0
    0.7660    0.3078   -0.3244 C   0  0  0  0  0  0  0  0  0  0  0  0
    0.9476    0.7418   -1.4699 O   0  0  0  0  0  0  0  0  0  0  0  0
   -0.5243    0.2377    0.3736 C   0  0  0  0  0  0  0  0  0  0  0  0
   -1.7210    0.7311   -0.3587 C   0  0  0  0  0  0  0  0  0  0  0  0
   -2.5465   -0.1265    0.5550 C   0  0  0  0  0  0  0  0  0  0  0  0
   -1.3963   -0.9414    0.0654 C   0  0  0  0  0  0  0  0  0  0  0  0
   -1.6073   -0.3791   -1.1818 O   0  0  0  0  0  0  0  0  0  0  0  0
    3.1227   -0.2556   -1.3122 H   0  0  0  0  0  0  0  0  0  0  0  0
    3.6171    0.8572    0.0746 H   0  0  0  0  0  0  0  0  0  0  0  0
    3.8237   -0.9190    0.2653 H   0  0  0  0  0  0  0  0  0  0  0  0
   -0.4778    0.4882    1.4317 H   0  0  0  0  0  0  0  0  0  0  0  0
   -1.9281    1.6754   -0.6451 H   0  0  0  0  0  0  0  0  0  0  0  0
   -3.5471   -0.3941    0.2320 H   0  0  0  0  0  0  0  0  0  0  0  0
   -2.4036    0.1836    1.6053 H   0  0  0  0  0  0  0  0  0  0  0  0
   -1.1987   -1.9091    0.2690 H   0  0  0  0  0  0  0  0  0  0  0  0
  1  2  1  0
  2  3  1  0
  3  4  2  0
  3  5  1  0
  5  6  1  0
  6  7  1  0
  7  8  1  0
  8  9  1  0
  8  5  1  0
  9  6  1  0
  1 10  1  0
  1 11  1  0
  1 12  1  0
  5 13  1  0
  6 14  1  0
  7 15  1  0
  7 16  1  0
  8 17  1  0
M  END
