
     RDKit          3D

 17 17  0  0  0  0  0  0  0  0999 V2000
    3.1131   -0.1824    0.5012 C   0  0  0  0  0  0  0  0  0  0  0  0
    1.7600   -0.4862    0.6897 O   0  0  0  0  0  0  0  0  0  0  0  0
    0.8496   -0.2082   -0.2991 C   0  0  0  0  0  0  0  0  0  0  0  0
    1.2425    0.3249   -1.3823 O   0  0  0  0  0  0  0  0  0  0  0  0
   -0.5957   -0.4821   -0.2146 C   0  0  0  0  0  0  0  0  0  0  0  0
   -0.9483   -1.0753    1.0224 O   0  0  0  0  0  0  0  0  0  0  0  0
   -2.2328   -0.5498    0.7595 C   0  0  0  0  0  0  0  0  0  0  0  0
   -1.4866    0.6549    0.1669 C   0  0  0  0  0  0  0  0  0  0  0  0
   -2.1891    1.2759   -0.8326 O   0  0  0  0  0  0  0  0  0  0  0  0
    3.7158   -1.1159    0.6243 H   0  0  0  0  0  0  0  0  0  0  0  0
    3.3918    0.5429    1.3203 H   0  0  0  0  0  0  0  0  0  0  0  0
    3.2801    0.2569   -0.4957 H   0  0  0  0  0  0  0  0  0  0  0  0
   -0.9818   -1.0236   -1.0868 H   0  0  0  0  0  0  0  0  0  0  0  0
   -2.8199   -0.2826    1.6307 H   0  0  0  0  0  0  0  0  0  0  0  0
   -2.7363   -1.1827    0.0207 H   0  0  0  0  0  0  0  0  0  0  0  0
   -1.1230    1.2838    1.0020 H   0  0  0  0  0  0  0  0  0  0  0  0
   -2.2393    2.2494   -0.6131 H   0  0  0  0  0  0  0  0  0  0  0  0
  1  2  1  0
  2  3  1  0
  3  4  2  0
  3  5  1  0
  5  6  1  0
  6  7  1  0
  7  8  1  0
  8  9  1  0
  8  5  1  0
  1 10  1  0
  1 11  1  0
  1 12  1  0
  5 13  1  0
  7 14  1  0
  7 15  1  0
  8 16  1  0
  9 17  1  0
M  END
