
     RDKit          3D

 15 14  0  0  0  0  0  0  0  0999 V2000
    2.9126   -1.8526   -0.8572 C   0  0  0  0  0  0  0  0  0  0  0  0
    1.7438   -1.3546   -0.2369 O   0  0  0  0  0  0  0  0  0  0  0  0
    1.3387   -0.0412   -0.4381 C   0  0  0  0  0  0  0  0  0  0  0  0
    2.0267    0.7276   -1.1904 O   0  0  0  0  0  0  0  0  0  0  0  0
    0.1431    0.4092    0.2180 C   0  0  0  0  0  0  0  0  0  0  0  0
   -0.8644    0.8049    0.7905 C   0  0  0  0  0  0  0  0  0  0  0  0
   -2.0815    1.2664    1.4605 C   0  0  0  0  0  0  0  0  0  0  0  0
   -3.2816    1.0389    0.5903 C   0  0  0  0  0  0  0  0  0  0  0  0
   -3.2177    0.5395   -0.5106 O   0  0  0  0  0  0  0  0  0  0  0  0
    2.6801   -2.5921   -1.6644 H   0  0  0  0  0  0  0  0  0  0  0  0
    3.5791   -2.2858   -0.0756 H   0  0  0  0  0  0  0  0  0  0  0  0
    3.5049   -1.0259   -1.3232 H   0  0  0  0  0  0  0  0  0  0  0  0
   -2.2717    0.7075    2.4063 H   0  0  0  0  0  0  0  0  0  0  0  0
   -1.9629    2.3235    1.7456 H   0  0  0  0  0  0  0  0  0  0  0  0
   -4.2492    1.3348    0.9639 H   0  0  0  0  0  0  0  0  0  0  0  0
  1  2  1  0
  2  3  1  0
  3  4  2  0
  3  5  1  0
  5  6  3  0
  6  7  1  0
  7  8  1  0
  8  9  2  0
  1 10  1  0
  1 11  1  0
  1 12  1  0
  7 13  1  0
  7 14  1  0
  8 15  1  0
M  END
