
     RDKit          3D

 19 18  0  0  0  0  0  0  0  0999 V2000
    1.5786    1.0287   -0.9072 C   0  0  0  0  0  0  0  0  0  0  0  0
    0.6893    0.0140   -1.0144 O   0  0  0  0  0  0  0  0  0  0  0  0
   -0.0337   -0.3507    0.0835 C   0  0  0  0  0  0  0  0  0  0  0  0
    0.8687   -0.7678    1.1772 C   0  0  0  0  0  0  0  0  0  0  0  0
    0.4018   -1.1174    2.2267 O   0  0  0  0  0  0  0  0  0  0  0  0
   -1.0045    0.6968    0.5707 C   0  0  0  0  0  0  0  0  0  0  0  0
   -0.4128    1.8752    0.9542 O   0  0  0  0  0  0  0  0  0  0  0  0
   -0.8333   -1.6479   -0.2059 C   0  0  0  0  0  0  0  0  0  0  0  0
   -1.7054   -1.4236   -1.2764 O   0  0  0  0  0  0  0  0  0  0  0  0
    1.2204    2.0145   -0.6268 H   0  0  0  0  0  0  0  0  0  0  0  0
    2.0282    1.1775   -1.9394 H   0  0  0  0  0  0  0  0  0  0  0  0
    2.4464    0.6935   -0.2917 H   0  0  0  0  0  0  0  0  0  0  0  0
    1.9182   -0.7535    1.0219 H   0  0  0  0  0  0  0  0  0  0  0  0
   -1.8222    0.8400   -0.1699 H   0  0  0  0  0  0  0  0  0  0  0  0
   -1.5002    0.2666    1.4768 H   0  0  0  0  0  0  0  0  0  0  0  0
   -0.9996    2.6168    0.6312 H   0  0  0  0  0  0  0  0  0  0  0  0
   -1.4720   -1.8781    0.6712 H   0  0  0  0  0  0  0  0  0  0  0  0
   -0.1027   -2.4450   -0.4368 H   0  0  0  0  0  0  0  0  0  0  0  0
   -1.2651   -0.8396   -1.9448 H   0  0  0  0  0  0  0  0  0  0  0  0
  1  2  1  0
  2  3  1  0
  3  4  1  0
  4  5  2  0
  3  6  1  0
  6  7  1  0
  3  8  1  0
  8  9  1  0
  1 10  1  0
  1 11  1  0
  1 12  1  0
  4 13  1  0
  6 14  1  0
  6 15  1  0
  7 16  1  0
  8 17  1  0
  8 18  1  0
  9 19  1  0
M  END
