
     RDKit          3D

 21 21  0  0  0  0  0  0  0  0999 V2000
    2.1764   -1.1244    0.1197 C   0  0  0  0  0  0  0  0  0  0  0  0
    1.4644   -0.1921   -0.5957 O   0  0  0  0  0  0  0  0  0  0  0  0
    0.5054    0.4838    0.1179 C   0  0  0  0  0  0  0  0  0  0  0  0
    0.9728    1.9494    0.1488 C   0  0  0  0  0  0  0  0  0  0  0  0
   -0.8025    0.3810   -0.6383 C   0  0  0  0  0  0  0  0  0  0  0  0
   -1.2148   -1.0610   -0.7994 C   0  0  0  0  0  0  0  0  0  0  0  0
   -1.9338   -0.8733    0.5435 C   0  0  0  0  0  0  0  0  0  0  0  0
   -2.0109    0.5665    0.1989 C   0  0  0  0  0  0  0  0  0  0  0  0
   -2.7412    1.4867    0.4797 O   0  0  0  0  0  0  0  0  0  0  0  0
    2.9099   -1.5839   -0.5995 H   0  0  0  0  0  0  0  0  0  0  0  0
    1.5673   -1.9458    0.5065 H   0  0  0  0  0  0  0  0  0  0  0  0
    2.8079   -0.6509    0.9013 H   0  0  0  0  0  0  0  0  0  0  0  0
    0.4187    0.1902    1.1631 H   0  0  0  0  0  0  0  0  0  0  0  0
    0.7483    2.4193    1.1276 H   0  0  0  0  0  0  0  0  0  0  0  0
    0.4678    2.4822   -0.6825 H   0  0  0  0  0  0  0  0  0  0  0  0
    2.0619    2.0251   -0.0252 H   0  0  0  0  0  0  0  0  0  0  0  0
   -0.8170    0.9143   -1.6082 H   0  0  0  0  0  0  0  0  0  0  0  0
   -2.0229   -1.2204   -1.5692 H   0  0  0  0  0  0  0  0  0  0  0  0
   -0.4244   -1.8148   -0.8041 H   0  0  0  0  0  0  0  0  0  0  0  0
   -2.8757   -1.4167    0.6069 H   0  0  0  0  0  0  0  0  0  0  0  0
   -1.2577   -1.0152    1.4083 H   0  0  0  0  0  0  0  0  0  0  0  0
  1  2  1  0
  2  3  1  0
  3  4  1  0
  3  5  1  0
  5  6  1  0
  6  7  1  0
  7  8  1  0
  8  9  2  0
  8  5  1  0
  1 10  1  0
  1 11  1  0
  1 12  1  0
  3 13  1  0
  4 14  1  0
  4 15  1  0
  4 16  1  0
  5 17  1  0
  6 18  1  0
  6 19  1  0
  7 20  1  0
  7 21  1  0
M  END
