
     RDKit          3D

 19 19  0  0  0  0  0  0  0  0999 V2000
    3.4562    0.0344   -0.2579 C   0  0  0  0  0  0  0  0  0  0  0  0
    2.1730   -0.4233    0.1149 O   0  0  0  0  0  0  0  0  0  0  0  0
    1.0095   -0.0449   -0.5252 C   0  0  0  0  0  0  0  0  0  0  0  0
    1.0493    0.7400   -1.4871 O   0  0  0  0  0  0  0  0  0  0  0  0
   -0.2566   -0.5833   -0.0505 C   0  0  0  0  0  0  0  0  0  0  0  0
   -1.4982   -0.1365   -0.7857 C   0  0  0  0  0  0  0  0  0  0  0  0
   -2.2066   -0.2131    0.5756 C   0  0  0  0  0  0  0  0  0  0  0  0
   -3.1638    0.7467    0.7812 O   0  0  0  0  0  0  0  0  0  0  0  0
   -0.8367    0.1226    1.1794 C   0  0  0  0  0  0  0  0  0  0  0  0
    3.6658    1.0014    0.2216 H   0  0  0  0  0  0  0  0  0  0  0  0
    3.4634    0.0860   -1.3702 H   0  0  0  0  0  0  0  0  0  0  0  0
    4.1821   -0.7252    0.1247 H   0  0  0  0  0  0  0  0  0  0  0  0
   -0.2765   -1.7002    0.0565 H   0  0  0  0  0  0  0  0  0  0  0  0
   -1.8827   -0.8568   -1.5211 H   0  0  0  0  0  0  0  0  0  0  0  0
   -1.4389    0.9238   -1.1252 H   0  0  0  0  0  0  0  0  0  0  0  0
   -2.4584   -1.2524    0.8532 H   0  0  0  0  0  0  0  0  0  0  0  0
   -3.6764    0.9660   -0.0177 H   0  0  0  0  0  0  0  0  0  0  0  0
   -0.6828    1.2079    1.1021 H   0  0  0  0  0  0  0  0  0  0  0  0
   -0.6216   -0.3592    2.1313 H   0  0  0  0  0  0  0  0  0  0  0  0
  1  2  1  0
  2  3  1  0
  3  4  2  0
  3  5  1  0
  5  6  1  0
  6  7  1  0
  7  8  1  0
  7  9  1  0
  9  5  1  0
  1 10  1  0
  1 11  1  0
  1 12  1  0
  5 13  1  0
  6 14  1  0
  6 15  1  0
  7 16  1  0
  8 17  1  0
  9 18  1  0
  9 19  1  0
M  END
