
     RDKit          3D

 19 19  0  0  0  0  0  0  0  0999 V2000
    3.4060    0.5309    0.0331 C   0  0  0  0  0  0  0  0  0  0  0  0
    2.1731   -0.1359    0.3093 O   0  0  0  0  0  0  0  0  0  0  0  0
    0.9511    0.4926    0.2064 C   0  0  0  0  0  0  0  0  0  0  0  0
    0.9398    1.7001   -0.1454 O   0  0  0  0  0  0  0  0  0  0  0  0
   -0.3503   -0.1575    0.4821 C   0  0  0  0  0  0  0  0  0  0  0  0
   -0.5526   -1.3346   -0.4409 C   0  0  0  0  0  0  0  0  0  0  0  0
   -1.0030   -0.4331   -1.4075 O   0  0  0  0  0  0  0  0  0  0  0  0
   -1.4540    0.3761   -0.3637 C   0  0  0  0  0  0  0  0  0  0  0  0
   -2.8422    0.0176    0.0577 C   0  0  0  0  0  0  0  0  0  0  0  0
    3.6341    0.4812   -1.0666 H   0  0  0  0  0  0  0  0  0  0  0  0
    4.2120   -0.0462    0.5308 H   0  0  0  0  0  0  0  0  0  0  0  0
    3.3948    1.5718    0.3611 H   0  0  0  0  0  0  0  0  0  0  0  0
   -0.5682   -0.3666    1.5394 H   0  0  0  0  0  0  0  0  0  0  0  0
    0.4258   -1.8051   -0.6758 H   0  0  0  0  0  0  0  0  0  0  0  0
   -1.3641   -2.0167   -0.1446 H   0  0  0  0  0  0  0  0  0  0  0  0
   -1.3694    1.4406   -0.6854 H   0  0  0  0  0  0  0  0  0  0  0  0
   -3.1269   -0.9901   -0.3472 H   0  0  0  0  0  0  0  0  0  0  0  0
   -2.9128   -0.0847    1.1650 H   0  0  0  0  0  0  0  0  0  0  0  0
   -3.5934    0.7595   -0.2659 H   0  0  0  0  0  0  0  0  0  0  0  0
  1  2  1  0
  2  3  1  0
  3  4  2  0
  3  5  1  0
  5  6  1  0
  6  7  1  0
  7  8  1  0
  8  9  1  0
  8  5  1  0
  1 10  1  0
  1 11  1  0
  1 12  1  0
  5 13  1  0
  6 14  1  0
  6 15  1  0
  8 16  1  0
  9 17  1  0
  9 18  1  0
  9 19  1  0
M  END
