
     RDKit          3D

 20 19  0  0  0  0  0  0  0  0999 V2000
    1.6221    1.2272    0.8327 C   0  0  0  0  0  0  0  0  0  0  0  0
    0.9902    0.7258   -0.2999 O   0  0  0  0  0  0  0  0  0  0  0  0
    0.7075   -0.6145   -0.2374 C   0  0  0  0  0  0  0  0  0  0  0  0
    1.3820   -1.4023   -1.3484 C   0  0  0  0  0  0  0  0  0  0  0  0
   -0.7819   -0.8223   -0.3990 C   0  0  0  0  0  0  0  0  0  0  0  0
   -1.5683   -0.1370    0.6605 C   0  0  0  0  0  0  0  0  0  0  0  0
   -2.2815    1.1484    0.4455 C   0  0  0  0  0  0  0  0  0  0  0  0
   -1.6437   -0.6400    1.7680 O   0  0  0  0  0  0  0  0  0  0  0  0
    1.0160    1.0987    1.7511 H   0  0  0  0  0  0  0  0  0  0  0  0
    1.7092    2.3412    0.6680 H   0  0  0  0  0  0  0  0  0  0  0  0
    2.6152    0.7975    0.9995 H   0  0  0  0  0  0  0  0  0  0  0  0
    1.0426   -1.0561    0.7231 H   0  0  0  0  0  0  0  0  0  0  0  0
    0.7576   -2.2555   -1.6926 H   0  0  0  0  0  0  0  0  0  0  0  0
    2.3470   -1.8504   -1.0139 H   0  0  0  0  0  0  0  0  0  0  0  0
    1.5669   -0.7402   -2.2340 H   0  0  0  0  0  0  0  0  0  0  0  0
   -1.1324   -0.3915   -1.3707 H   0  0  0  0  0  0  0  0  0  0  0  0
   -0.9859   -1.9024   -0.4633 H   0  0  0  0  0  0  0  0  0  0  0  0
   -1.6715    1.9316    0.9758 H   0  0  0  0  0  0  0  0  0  0  0  0
   -3.3066    1.1501    0.8694 H   0  0  0  0  0  0  0  0  0  0  0  0
   -2.3843    1.3915   -0.6345 H   0  0  0  0  0  0  0  0  0  0  0  0
  1  2  1  0
  2  3  1  0
  3  4  1  0
  3  5  1  0
  5  6  1  0
  6  7  1  0
  6  8  2  0
  1  9  1  0
  1 10  1  0
  1 11  1  0
  3 12  1  0
  4 13  1  0
  4 14  1  0
  4 15  1  0
  5 16  1  0
  5 17  1  0
  7 18  1  0
  7 19  1  0
  7 20  1  0
M  END
