
     RDKit          3D

 25 24  0  0  0  0  0  0  0  0999 V2000
   -2.4311    1.7931   -0.2920 C   0  0  0  0  0  0  0  0  0  0  0  0
   -1.8036    0.6732   -0.7738 O   0  0  0  0  0  0  0  0  0  0  0  0
   -1.5674   -0.3066    0.1457 C   0  0  0  0  0  0  0  0  0  0  0  0
   -2.2765   -1.5665   -0.3070 C   0  0  0  0  0  0  0  0  0  0  0  0
   -0.0694   -0.6564    0.1664 C   0  0  0  0  0  0  0  0  0  0  0  0
    0.7589    0.5319    0.5239 C   0  0  0  0  0  0  0  0  0  0  0  0
    2.2147    0.1888    0.5575 C   0  0  0  0  0  0  0  0  0  0  0  0
    2.6770   -0.3075   -0.7924 C   0  0  0  0  0  0  0  0  0  0  0  0
    4.0400   -0.6148   -0.7601 O   0  0  0  0  0  0  0  0  0  0  0  0
   -3.4169    1.6145    0.1437 H   0  0  0  0  0  0  0  0  0  0  0  0
   -1.7885    2.3896    0.4074 H   0  0  0  0  0  0  0  0  0  0  0  0
   -2.5912    2.4794   -1.1714 H   0  0  0  0  0  0  0  0  0  0  0  0
   -1.9077   -0.0869    1.1714 H   0  0  0  0  0  0  0  0  0  0  0  0
   -3.2935   -1.6504    0.1224 H   0  0  0  0  0  0  0  0  0  0  0  0
   -1.7018   -2.4402    0.0725 H   0  0  0  0  0  0  0  0  0  0  0  0
   -2.2500   -1.6187   -1.4028 H   0  0  0  0  0  0  0  0  0  0  0  0
    0.0610   -1.5166    0.8285 H   0  0  0  0  0  0  0  0  0  0  0  0
    0.1474   -0.9630   -0.9006 H   0  0  0  0  0  0  0  0  0  0  0  0
    0.5503    1.3362   -0.2286 H   0  0  0  0  0  0  0  0  0  0  0  0
    0.4168    0.9420    1.5051 H   0  0  0  0  0  0  0  0  0  0  0  0
    2.4298   -0.5888    1.3332 H   0  0  0  0  0  0  0  0  0  0  0  0
    2.7854    1.0878    0.8816 H   0  0  0  0  0  0  0  0  0  0  0  0
    2.1201   -1.2692   -0.9987 H   0  0  0  0  0  0  0  0  0  0  0  0
    2.4135    0.4265   -1.5785 H   0  0  0  0  0  0  0  0  0  0  0  0
    4.4827    0.1226   -0.2700 H   0  0  0  0  0  0  0  0  0  0  0  0
  1  2  1  0
  2  3  1  0
  3  4  1  0
  3  5  1  0
  5  6  1  0
  6  7  1  0
  7  8  1  0
  8  9  1  0
  1 10  1  0
  1 11  1  0
  1 12  1  0
  3 13  1  0
  4 14  1  0
  4 15  1  0
  4 16  1  0
  5 17  1  0
  5 18  1  0
  6 19  1  0
  6 20  1  0
  7 21  1  0
  7 22  1  0
  8 23  1  0
  8 24  1  0
  9 25  1  0
M  END
