
     RDKit          3D

 23 23  0  0  0  0  0  0  0  0999 V2000
    2.7642   -0.9249    0.4624 C   0  0  0  0  0  0  0  0  0  0  0  0
    1.6536   -0.2175    0.8488 O   0  0  0  0  0  0  0  0  0  0  0  0
    0.9018    0.1927   -0.2540 C   0  0  0  0  0  0  0  0  0  0  0  0
    0.8393    1.6978   -0.3227 C   0  0  0  0  0  0  0  0  0  0  0  0
   -0.4364   -0.4528   -0.1600 C   0  0  0  0  0  0  0  0  0  0  0  0
   -1.1951   -0.0861    1.0952 C   0  0  0  0  0  0  0  0  0  0  0  0
   -2.5918   -0.4869    0.6604 C   0  0  0  0  0  0  0  0  0  0  0  0
   -2.6211   -0.4997   -0.7062 O   0  0  0  0  0  0  0  0  0  0  0  0
   -1.4253   -0.0076   -1.1914 C   0  0  0  0  0  0  0  0  0  0  0  0
    2.5237   -1.8507   -0.1166 H   0  0  0  0  0  0  0  0  0  0  0  0
    3.2777   -1.2755    1.3839 H   0  0  0  0  0  0  0  0  0  0  0  0
    3.4023   -0.2913   -0.1693 H   0  0  0  0  0  0  0  0  0  0  0  0
    1.4058   -0.1649   -1.1559 H   0  0  0  0  0  0  0  0  0  0  0  0
    0.5453    2.0290   -1.3382 H   0  0  0  0  0  0  0  0  0  0  0  0
    0.2610    2.1559    0.4836 H   0  0  0  0  0  0  0  0  0  0  0  0
    1.8992    2.0611   -0.1830 H   0  0  0  0  0  0  0  0  0  0  0  0
   -0.3238   -1.5350   -0.1833 H   0  0  0  0  0  0  0  0  0  0  0  0
   -1.2262    1.0069    1.2770 H   0  0  0  0  0  0  0  0  0  0  0  0
   -0.8559   -0.6591    1.9784 H   0  0  0  0  0  0  0  0  0  0  0  0
   -3.3760    0.1570    1.1147 H   0  0  0  0  0  0  0  0  0  0  0  0
   -2.7089   -1.5566    1.0061 H   0  0  0  0  0  0  0  0  0  0  0  0
   -1.1980   -0.3911   -2.2002 H   0  0  0  0  0  0  0  0  0  0  0  0
   -1.5154    1.0994   -1.2179 H   0  0  0  0  0  0  0  0  0  0  0  0
  1  2  1  0
  2  3  1  0
  3  4  1  0
  3  5  1  0
  5  6  1  0
  6  7  1  0
  7  8  1  0
  8  9  1  0
  9  5  1  0
  1 10  1  0
  1 11  1  0
  1 12  1  0
  3 13  1  0
  4 14  1  0
  4 15  1  0
  4 16  1  0
  5 17  1  0
  6 18  1  0
  6 19  1  0
  7 20  1  0
  7 21  1  0
  9 22  1  0
  9 23  1  0
M  END
