
     RDKit          3D

 25 25  0  0  0  0  0  0  0  0999 V2000
   -1.8456    1.6923   -0.0858 C   0  0  0  0  0  0  0  0  0  0  0  0
   -1.2715    0.7818    0.7567 O   0  0  0  0  0  0  0  0  0  0  0  0
   -0.8332   -0.3882    0.1744 C   0  0  0  0  0  0  0  0  0  0  0  0
   -0.2403   -1.2972    1.2230 C   0  0  0  0  0  0  0  0  0  0  0  0
   -2.0055   -1.1569   -0.4421 C   0  0  0  0  0  0  0  0  0  0  0  0
    0.2079   -0.0702   -0.8511 C   0  0  0  0  0  0  0  0  0  0  0  0
    1.3537    0.6455   -0.2156 C   0  0  0  0  0  0  0  0  0  0  0  0
    2.2280    0.1512    0.8303 C   0  0  0  0  0  0  0  0  0  0  0  0
    2.7341    0.3725   -0.6100 C   0  0  0  0  0  0  0  0  0  0  0  0
   -2.1524    2.5721    0.5557 H   0  0  0  0  0  0  0  0  0  0  0  0
   -1.1443    2.1221   -0.8445 H   0  0  0  0  0  0  0  0  0  0  0  0
   -2.7383    1.3052   -0.6244 H   0  0  0  0  0  0  0  0  0  0  0  0
   -1.0790   -1.9255    1.6621 H   0  0  0  0  0  0  0  0  0  0  0  0
    0.2581   -0.7244    2.0142 H   0  0  0  0  0  0  0  0  0  0  0  0
    0.4436   -2.0417    0.7972 H   0  0  0  0  0  0  0  0  0  0  0  0
   -1.7883   -2.2318   -0.3850 H   0  0  0  0  0  0  0  0  0  0  0  0
   -2.1617   -0.8936   -1.4978 H   0  0  0  0  0  0  0  0  0  0  0  0
   -2.8838   -0.9526    0.2040 H   0  0  0  0  0  0  0  0  0  0  0  0
   -0.1925    0.5712   -1.6817 H   0  0  0  0  0  0  0  0  0  0  0  0
    0.5319   -1.0214   -1.3562 H   0  0  0  0  0  0  0  0  0  0  0  0
    1.1092    1.7698   -0.1189 H   0  0  0  0  0  0  0  0  0  0  0  0
    2.6270    0.8915    1.5852 H   0  0  0  0  0  0  0  0  0  0  0  0
    2.4238   -0.8665    1.1518 H   0  0  0  0  0  0  0  0  0  0  0  0
    2.9971   -0.5194   -1.2171 H   0  0  0  0  0  0  0  0  0  0  0  0
    3.4217    1.2143   -0.7794 H   0  0  0  0  0  0  0  0  0  0  0  0
  1  2  1  0
  2  3  1  0
  3  4  1  0
  3  5  1  0
  3  6  1  0
  6  7  1  0
  7  8  1  0
  8  9  1  0
  9  7  1  0
  1 10  1  0
  1 11  1  0
  1 12  1  0
  4 13  1  0
  4 14  1  0
  4 15  1  0
  5 16  1  0
  5 17  1  0
  5 18  1  0
  6 19  1  0
  6 20  1  0
  7 21  1  0
  8 22  1  0
  8 23  1  0
  9 24  1  0
  9 25  1  0
M  END
