
     RDKit          3D

 22 21  0  0  0  0  0  0  0  0999 V2000
    2.3067    0.7448    0.3581 C   0  0  0  0  0  0  0  0  0  0  0  0
    0.9535    0.9528    0.3666 O   0  0  0  0  0  0  0  0  0  0  0  0
    0.1882   -0.1544    0.1490 C   0  0  0  0  0  0  0  0  0  0  0  0
    0.4166   -1.2464    1.2023 C   0  0  0  0  0  0  0  0  0  0  0  0
    0.2983   -0.7592   -1.2036 C   0  0  0  0  0  0  0  0  0  0  0  0
   -1.2753    0.2584    0.3440 C   0  0  0  0  0  0  0  0  0  0  0  0
   -1.6727    1.3853   -0.5442 C   0  0  0  0  0  0  0  0  0  0  0  0
   -2.0745   -0.8746    0.1224 O   0  0  0  0  0  0  0  0  0  0  0  0
    2.7937    1.7414    0.5495 H   0  0  0  0  0  0  0  0  0  0  0  0
    2.6694    0.0929    1.1863 H   0  0  0  0  0  0  0  0  0  0  0  0
    2.7188    0.3742   -0.5782 H   0  0  0  0  0  0  0  0  0  0  0  0
    1.4380   -1.6197    1.1883 H   0  0  0  0  0  0  0  0  0  0  0  0
   -0.3231   -2.0361    0.9372 H   0  0  0  0  0  0  0  0  0  0  0  0
    0.0957   -0.8035    2.1641 H   0  0  0  0  0  0  0  0  0  0  0  0
    1.2627   -0.5804   -1.7083 H   0  0  0  0  0  0  0  0  0  0  0  0
    0.2089   -1.8817   -1.1247 H   0  0  0  0  0  0  0  0  0  0  0  0
   -0.5062   -0.4386   -1.8851 H   0  0  0  0  0  0  0  0  0  0  0  0
   -1.4519    0.5419    1.4067 H   0  0  0  0  0  0  0  0  0  0  0  0
   -1.0310    1.4854   -1.4540 H   0  0  0  0  0  0  0  0  0  0  0  0
   -2.7479    1.2485   -0.8293 H   0  0  0  0  0  0  0  0  0  0  0  0
   -1.6347    2.3281    0.0434 H   0  0  0  0  0  0  0  0  0  0  0  0
   -2.6333   -0.7591   -0.6905 H   0  0  0  0  0  0  0  0  0  0  0  0
  1  2  1  0
  2  3  1  0
  3  4  1  0
  3  5  1  0
  3  6  1  0
  6  7  1  0
  6  8  1  0
  1  9  1  0
  1 10  1  0
  1 11  1  0
  4 12  1  0
  4 13  1  0
  4 14  1  0
  5 15  1  0
  5 16  1  0
  5 17  1  0
  6 18  1  0
  7 19  1  0
  7 20  1  0
  7 21  1  0
  8 22  1  0
M  END
