
     RDKit          3D

 24 23  0  0  0  0  0  0  0  0999 V2000
    1.6397    0.7219    1.4692 C   0  0  0  0  0  0  0  0  0  0  0  0
    1.1466   -0.4627    0.9669 O   0  0  0  0  0  0  0  0  0  0  0  0
    0.9372   -0.4018   -0.3848 C   0  0  0  0  0  0  0  0  0  0  0  0
    1.9244   -1.3941   -1.0208 C   0  0  0  0  0  0  0  0  0  0  0  0
   -0.4145   -0.7905   -0.8520 C   0  0  0  0  0  0  0  0  0  0  0  0
   -1.5523    0.0190   -0.3226 C   0  0  0  0  0  0  0  0  0  0  0  0
   -1.4987    1.4656   -0.6469 C   0  0  0  0  0  0  0  0  0  0  0  0
   -1.7256   -0.1321    1.1736 C   0  0  0  0  0  0  0  0  0  0  0  0
    0.9776    1.5874    1.3102 H   0  0  0  0  0  0  0  0  0  0  0  0
    1.7693    0.6110    2.5763 H   0  0  0  0  0  0  0  0  0  0  0  0
    2.6253    0.9504    0.9963 H   0  0  0  0  0  0  0  0  0  0  0  0
    1.2178    0.6149   -0.7674 H   0  0  0  0  0  0  0  0  0  0  0  0
    1.6059   -1.6355   -2.0714 H   0  0  0  0  0  0  0  0  0  0  0  0
    1.9463   -2.3429   -0.4591 H   0  0  0  0  0  0  0  0  0  0  0  0
    2.9345   -0.9464   -1.1138 H   0  0  0  0  0  0  0  0  0  0  0  0
   -0.5942   -1.8528   -0.5278 H   0  0  0  0  0  0  0  0  0  0  0  0
   -0.4133   -0.8240   -1.9586 H   0  0  0  0  0  0  0  0  0  0  0  0
   -2.4797   -0.4098   -0.8076 H   0  0  0  0  0  0  0  0  0  0  0  0
   -1.0746    2.1012    0.1819 H   0  0  0  0  0  0  0  0  0  0  0  0
   -0.9955    1.6827   -1.6100 H   0  0  0  0  0  0  0  0  0  0  0  0
   -2.5454    1.8380   -0.7659 H   0  0  0  0  0  0  0  0  0  0  0  0
   -2.8108   -0.0362    1.3819 H   0  0  0  0  0  0  0  0  0  0  0  0
   -1.2486    0.7348    1.6994 H   0  0  0  0  0  0  0  0  0  0  0  0
   -1.3715   -1.0981    1.5530 H   0  0  0  0  0  0  0  0  0  0  0  0
  1  2  1  0
  2  3  1  0
  3  4  1  0
  3  5  1  0
  5  6  1  0
  6  7  1  0
  6  8  1  0
  1  9  1  0
  1 10  1  0
  1 11  1  0
  3 12  1  0
  4 13  1  0
  4 14  1  0
  4 15  1  0
  5 16  1  0
  5 17  1  0
  6 18  1  0
  7 19  1  0
  7 20  1  0
  7 21  1  0
  8 22  1  0
  8 23  1  0
  8 24  1  0
M  END
