
     RDKit          3D

 20 19  0  0  0  0  0  0  0  0999 V2000
   -2.6727   -0.5991   -0.1481 C   0  0  0  0  0  0  0  0  0  0  0  0
   -1.6343    0.2742   -0.4191 O   0  0  0  0  0  0  0  0  0  0  0  0
   -0.4239   -0.1251    0.1585 C   0  0  0  0  0  0  0  0  0  0  0  0
   -0.0797    0.9989    1.1160 C   0  0  0  0  0  0  0  0  0  0  0  0
    0.0357    2.1613    0.3200 O   0  0  0  0  0  0  0  0  0  0  0  0
    0.5668   -0.2382   -0.9636 C   0  0  0  0  0  0  0  0  0  0  0  0
    1.9390   -0.6605   -0.5526 C   0  0  0  0  0  0  0  0  0  0  0  0
    2.5675    0.1740    0.3352 O   0  0  0  0  0  0  0  0  0  0  0  0
   -2.8852   -0.7145    0.9299 H   0  0  0  0  0  0  0  0  0  0  0  0
   -3.5864   -0.1563   -0.5985 H   0  0  0  0  0  0  0  0  0  0  0  0
   -2.5330   -1.5844   -0.6670 H   0  0  0  0  0  0  0  0  0  0  0  0
   -0.5142   -1.0654    0.7271 H   0  0  0  0  0  0  0  0  0  0  0  0
    0.8159    0.8384    1.7095 H   0  0  0  0  0  0  0  0  0  0  0  0
   -0.9969    1.1537    1.7307 H   0  0  0  0  0  0  0  0  0  0  0  0
    0.9730    2.4228    0.1862 H   0  0  0  0  0  0  0  0  0  0  0  0
    0.2141   -0.9433   -1.7404 H   0  0  0  0  0  0  0  0  0  0  0  0
    0.6166    0.7586   -1.4610 H   0  0  0  0  0  0  0  0  0  0  0  0
    1.9325   -1.7142   -0.2042 H   0  0  0  0  0  0  0  0  0  0  0  0
    2.5592   -0.6693   -1.4882 H   0  0  0  0  0  0  0  0  0  0  0  0
    3.1059   -0.3115    1.0295 H   0  0  0  0  0  0  0  0  0  0  0  0
  1  2  1  0
  2  3  1  0
  3  4  1  0
  4  5  1  0
  3  6  1  0
  6  7  1  0
  7  8  1  0
  1  9  1  0
  1 10  1  0
  1 11  1  0
  3 12  1  0
  4 13  1  0
  4 14  1  0
  5 15  1  0
  6 16  1  0
  6 17  1  0
  7 18  1  0
  7 19  1  0
  8 20  1  0
M  END
