
     RDKit          3D

 23 23  0  0  0  0  0  0  0  0999 V2000
    2.4249    1.4111    0.6327 C   0  0  0  0  0  0  0  0  0  0  0  0
    1.9942    0.6349   -0.4411 O   0  0  0  0  0  0  0  0  0  0  0  0
    1.1226   -0.3464   -0.0319 C   0  0  0  0  0  0  0  0  0  0  0  0
    1.6926   -1.7223   -0.3810 C   0  0  0  0  0  0  0  0  0  0  0  0
   -0.2063   -0.2809   -0.7502 C   0  0  0  0  0  0  0  0  0  0  0  0
   -1.0347   -1.3923   -0.2078 O   0  0  0  0  0  0  0  0  0  0  0  0
   -1.4598   -0.0520   -0.1817 C   0  0  0  0  0  0  0  0  0  0  0  0
   -1.6227    0.5253    1.2267 C   0  0  0  0  0  0  0  0  0  0  0  0
   -2.6325    0.2313   -1.0926 C   0  0  0  0  0  0  0  0  0  0  0  0
    1.5093    1.8711    1.0762 H   0  0  0  0  0  0  0  0  0  0  0  0
    2.9122    0.8143    1.4276 H   0  0  0  0  0  0  0  0  0  0  0  0
    3.0797    2.2275    0.3381 H   0  0  0  0  0  0  0  0  0  0  0  0
    0.9420   -0.3193    1.0608 H   0  0  0  0  0  0  0  0  0  0  0  0
    1.8421   -1.7157   -1.4753 H   0  0  0  0  0  0  0  0  0  0  0  0
    2.6013   -1.9518    0.1944 H   0  0  0  0  0  0  0  0  0  0  0  0
    0.8664   -2.4443   -0.1817 H   0  0  0  0  0  0  0  0  0  0  0  0
   -0.0914   -0.3633   -1.8604 H   0  0  0  0  0  0  0  0  0  0  0  0
   -1.3553    1.6046    1.2051 H   0  0  0  0  0  0  0  0  0  0  0  0
   -2.6936    0.3900    1.4931 H   0  0  0  0  0  0  0  0  0  0  0  0
   -0.9841   -0.0344    1.9522 H   0  0  0  0  0  0  0  0  0  0  0  0
   -3.5477    0.5141   -0.4995 H   0  0  0  0  0  0  0  0  0  0  0  0
   -2.4288    1.0474   -1.8153 H   0  0  0  0  0  0  0  0  0  0  0  0
   -2.9304   -0.6487   -1.6885 H   0  0  0  0  0  0  0  0  0  0  0  0
  1  2  1  0
  2  3  1  0
  3  4  1  0
  3  5  1  0
  5  6  1  0
  6  7  1  0
  7  8  1  0
  7  9  1  0
  7  5  1  0
  1 10  1  0
  1 11  1  0
  1 12  1  0
  3 13  1  0
  4 14  1  0
  4 15  1  0
  4 16  1  0
  5 17  1  0
  8 18  1  0
  8 19  1  0
  8 20  1  0
  9 21  1  0
  9 22  1  0
  9 23  1  0
M  END
