
     RDKit          3D

 20 19  0  0  0  0  0  0  0  0999 V2000
   -2.2777   -1.3653   -0.2067 C   0  0  0  0  0  0  0  0  0  0  0  0
   -1.3942   -0.6158    0.5585 O   0  0  0  0  0  0  0  0  0  0  0  0
   -0.4271    0.0176   -0.1628 C   0  0  0  0  0  0  0  0  0  0  0  0
   -0.5914    1.5167   -0.0570 C   0  0  0  0  0  0  0  0  0  0  0  0
    0.9741   -0.4294    0.1646 C   0  0  0  0  0  0  0  0  0  0  0  0
    1.9890    0.3189   -0.6762 C   0  0  0  0  0  0  0  0  0  0  0  0
    1.3142   -0.2267    1.5968 C   0  0  0  0  0  0  0  0  0  0  0  0
    1.5719    0.9143    1.9401 O   0  0  0  0  0  0  0  0  0  0  0  0
   -1.7858   -2.1702   -0.7858 H   0  0  0  0  0  0  0  0  0  0  0  0
   -2.7408   -0.6370   -0.9345 H   0  0  0  0  0  0  0  0  0  0  0  0
   -3.0993   -1.7931    0.3688 H   0  0  0  0  0  0  0  0  0  0  0  0
   -0.5891   -0.2323   -1.2430 H   0  0  0  0  0  0  0  0  0  0  0  0
   -0.2871    1.9121    0.9341 H   0  0  0  0  0  0  0  0  0  0  0  0
   -1.6888    1.7203   -0.1739 H   0  0  0  0  0  0  0  0  0  0  0  0
   -0.0374    2.0637   -0.8533 H   0  0  0  0  0  0  0  0  0  0  0  0
    1.0580   -1.4999   -0.1193 H   0  0  0  0  0  0  0  0  0  0  0  0
    1.8071    0.1205   -1.7650 H   0  0  0  0  0  0  0  0  0  0  0  0
    1.8520    1.4029   -0.4603 H   0  0  0  0  0  0  0  0  0  0  0  0
    3.0173    0.0256   -0.4333 H   0  0  0  0  0  0  0  0  0  0  0  0
    1.3352   -1.0428    2.3083 H   0  0  0  0  0  0  0  0  0  0  0  0
  1  2  1  0
  2  3  1  0
  3  4  1  0
  3  5  1  0
  5  6  1  0
  5  7  1  0
  7  8  2  0
  1  9  1  0
  1 10  1  0
  1 11  1  0
  3 12  1  0
  4 13  1  0
  4 14  1  0
  4 15  1  0
  5 16  1  0
  6 17  1  0
  6 18  1  0
  6 19  1  0
  7 20  1  0
M  END
