
     RDKit          3D

 23 23  0  0  0  0  0  0  0  0999 V2000
   -2.2833    1.5861    0.6792 C   0  0  0  0  0  0  0  0  0  0  0  0
   -1.8432    0.8173   -0.3805 O   0  0  0  0  0  0  0  0  0  0  0  0
   -0.9459   -0.1533   -0.0333 C   0  0  0  0  0  0  0  0  0  0  0  0
   -1.4258   -1.5594   -0.3164 C   0  0  0  0  0  0  0  0  0  0  0  0
    0.4080   -0.0110   -0.6654 C   0  0  0  0  0  0  0  0  0  0  0  0
    1.2466   -1.1644   -0.1638 C   0  0  0  0  0  0  0  0  0  0  0  0
    2.6123   -0.6544   -0.0643 C   0  0  0  0  0  0  0  0  0  0  0  0
    2.5680    0.6698   -0.0471 C   0  0  0  0  0  0  0  0  0  0  0  0
    1.1763    1.1756   -0.1334 C   0  0  0  0  0  0  0  0  0  0  0  0
   -2.7801    0.9225    1.4216 H   0  0  0  0  0  0  0  0  0  0  0  0
   -1.4962    2.1341    1.1989 H   0  0  0  0  0  0  0  0  0  0  0  0
   -3.0996    2.2512    0.2937 H   0  0  0  0  0  0  0  0  0  0  0  0
   -0.7860   -0.0763    1.0788 H   0  0  0  0  0  0  0  0  0  0  0  0
   -0.9967   -2.2479    0.4687 H   0  0  0  0  0  0  0  0  0  0  0  0
   -2.5099   -1.6618   -0.2939 H   0  0  0  0  0  0  0  0  0  0  0  0
   -1.0453   -1.9572   -1.2797 H   0  0  0  0  0  0  0  0  0  0  0  0
    0.3626   -0.0292   -1.7737 H   0  0  0  0  0  0  0  0  0  0  0  0
    1.1238   -2.0411   -0.8287 H   0  0  0  0  0  0  0  0  0  0  0  0
    0.9016   -1.4208    0.8805 H   0  0  0  0  0  0  0  0  0  0  0  0
    3.4848   -1.3052   -0.0156 H   0  0  0  0  0  0  0  0  0  0  0  0
    3.4357    1.3013    0.0211 H   0  0  0  0  0  0  0  0  0  0  0  0
    0.7774    1.4504    0.8483 H   0  0  0  0  0  0  0  0  0  0  0  0
    1.1147    1.9736   -0.8947 H   0  0  0  0  0  0  0  0  0  0  0  0
  1  2  1  0
  2  3  1  0
  3  4  1  0
  3  5  1  0
  5  6  1  0
  6  7  1  0
  7  8  2  0
  8  9  1  0
  9  5  1  0
  1 10  1  0
  1 11  1  0
  1 12  1  0
  3 13  1  0
  4 14  1  0
  4 15  1  0
  4 16  1  0
  5 17  1  0
  6 18  1  0
  6 19  1  0
  7 20  1  0
  8 21  1  0
  9 22  1  0
  9 23  1  0
M  END
