
     RDKit          3D

 19 18  0  0  0  0  0  0  0  0999 V2000
   -2.4543   -0.8560    0.7291 C   0  0  0  0  0  0  0  0  0  0  0  0
   -1.6414   -0.4467   -0.3102 O   0  0  0  0  0  0  0  0  0  0  0  0
   -0.4289    0.0715    0.0980 C   0  0  0  0  0  0  0  0  0  0  0  0
   -0.3553    1.4995   -0.3774 C   0  0  0  0  0  0  0  0  0  0  0  0
    0.6725   -0.7840   -0.4666 C   0  0  0  0  0  0  0  0  0  0  0  0
    2.0458   -0.3061   -0.0812 C   0  0  0  0  0  0  0  0  0  0  0  0
    2.3330    0.9695   -0.5006 O   0  0  0  0  0  0  0  0  0  0  0  0
   -3.3890   -1.2490    0.2769 H   0  0  0  0  0  0  0  0  0  0  0  0
   -2.0108   -1.7027    1.2991 H   0  0  0  0  0  0  0  0  0  0  0  0
   -2.7420   -0.0092    1.3656 H   0  0  0  0  0  0  0  0  0  0  0  0
   -0.3385    0.0590    1.2146 H   0  0  0  0  0  0  0  0  0  0  0  0
    0.2355    1.6360   -1.2898 H   0  0  0  0  0  0  0  0  0  0  0  0
    0.0064    2.1795    0.4471 H   0  0  0  0  0  0  0  0  0  0  0  0
   -1.3824    1.9035   -0.6193 H   0  0  0  0  0  0  0  0  0  0  0  0
    0.5494   -1.7992   -0.0117 H   0  0  0  0  0  0  0  0  0  0  0  0
    0.6148   -0.8012   -1.5637 H   0  0  0  0  0  0  0  0  0  0  0  0
    2.7746   -0.9953   -0.5576 H   0  0  0  0  0  0  0  0  0  0  0  0
    2.2068   -0.4068    1.0162 H   0  0  0  0  0  0  0  0  0  0  0  0
    3.3036    1.0378   -0.6686 H   0  0  0  0  0  0  0  0  0  0  0  0
  1  2  1  0
  2  3  1  0
  3  4  1  0
  3  5  1  0
  5  6  1  0
  6  7  1  0
  1  8  1  0
  1  9  1  0
  1 10  1  0
  3 11  1  0
  4 12  1  0
  4 13  1  0
  4 14  1  0
  5 15  1  0
  5 16  1  0
  6 17  1  0
  6 18  1  0
  7 19  1  0
M  END
