
     RDKit          3D

 21 22  0  0  0  0  0  0  0  0999 V2000
   -2.3547    1.4247    0.8736 C   0  0  0  0  0  0  0  0  0  0  0  0
   -1.5480    0.3137    1.0877 O   0  0  0  0  0  0  0  0  0  0  0  0
   -0.7361    0.0409   -0.0139 C   0  0  0  0  0  0  0  0  0  0  0  0
   -1.1130   -1.3177   -0.5016 C   0  0  0  0  0  0  0  0  0  0  0  0
    0.6969    0.1086    0.4209 C   0  0  0  0  0  0  0  0  0  0  0  0
    1.6098   -1.0519    0.3453 C   0  0  0  0  0  0  0  0  0  0  0  0
    2.4780   -0.2531   -0.6137 C   0  0  0  0  0  0  0  0  0  0  0  0
    1.6731    0.9835   -0.3423 C   0  0  0  0  0  0  0  0  0  0  0  0
    1.2246    1.2598    0.9434 O   0  0  0  0  0  0  0  0  0  0  0  0
   -2.9782    1.6126    1.7531 H   0  0  0  0  0  0  0  0  0  0  0  0
   -1.7395    2.2926    0.5678 H   0  0  0  0  0  0  0  0  0  0  0  0
   -3.0267    1.1899    0.0215 H   0  0  0  0  0  0  0  0  0  0  0  0
   -0.9075    0.7773   -0.8387 H   0  0  0  0  0  0  0  0  0  0  0  0
   -0.4081   -1.7794   -1.1959 H   0  0  0  0  0  0  0  0  0  0  0  0
   -2.0967   -1.2080   -1.0449 H   0  0  0  0  0  0  0  0  0  0  0  0
   -1.3209   -1.9688    0.3911 H   0  0  0  0  0  0  0  0  0  0  0  0
    1.2473   -2.0028   -0.0250 H   0  0  0  0  0  0  0  0  0  0  0  0
    2.1406   -1.1995    1.3268 H   0  0  0  0  0  0  0  0  0  0  0  0
    2.3418   -0.6033   -1.6569 H   0  0  0  0  0  0  0  0  0  0  0  0
    3.5458   -0.2154   -0.3486 H   0  0  0  0  0  0  0  0  0  0  0  0
    1.2716    1.5962   -1.1497 H   0  0  0  0  0  0  0  0  0  0  0  0
  1  2  1  0
  2  3  1  0
  3  4  1  0
  3  5  1  0
  5  6  1  0
  6  7  1  0
  7  8  1  0
  8  9  1  0
  8  5  1  0
  9  5  1  0
  1 10  1  0
  1 11  1  0
  1 12  1  0
  3 13  1  0
  4 14  1  0
  4 15  1  0
  4 16  1  0
  6 17  1  0
  6 18  1  0
  7 19  1  0
  7 20  1  0
  8 21  1  0
M  END
