
     RDKit          3D

 21 22  0  0  0  0  0  0  0  0999 V2000
   -2.7395   -0.7924   -0.5513 C   0  0  0  0  0  0  0  0  0  0  0  0
   -1.8121    0.1004   -1.0568 O   0  0  0  0  0  0  0  0  0  0  0  0
   -0.8230    0.4407   -0.1414 C   0  0  0  0  0  0  0  0  0  0  0  0
   -0.8586    1.9038    0.2224 C   0  0  0  0  0  0  0  0  0  0  0  0
    0.4853   -0.0164   -0.6749 C   0  0  0  0  0  0  0  0  0  0  0  0
    1.7636    0.1735    0.0279 C   0  0  0  0  0  0  0  0  0  0  0  0
    2.9588   -0.6236   -0.3664 C   0  0  0  0  0  0  0  0  0  0  0  0
    2.2270   -1.7772   -0.5900 O   0  0  0  0  0  0  0  0  0  0  0  0
    1.1475   -1.1680    0.0379 C   0  0  0  0  0  0  0  0  0  0  0  0
   -3.4726   -0.9895   -1.3608 H   0  0  0  0  0  0  0  0  0  0  0  0
   -3.2886   -0.2681    0.2802 H   0  0  0  0  0  0  0  0  0  0  0  0
   -2.3272   -1.7516   -0.2382 H   0  0  0  0  0  0  0  0  0  0  0  0
   -1.0534   -0.1195    0.7887 H   0  0  0  0  0  0  0  0  0  0  0  0
    0.0046    2.1246    0.8702 H   0  0  0  0  0  0  0  0  0  0  0  0
   -1.7664    2.0996    0.8318 H   0  0  0  0  0  0  0  0  0  0  0  0
   -0.7761    2.5649   -0.6590 H   0  0  0  0  0  0  0  0  0  0  0  0
    0.5788   -0.0977   -1.7984 H   0  0  0  0  0  0  0  0  0  0  0  0
    1.8761    0.7931    0.9268 H   0  0  0  0  0  0  0  0  0  0  0  0
    3.6753   -0.7611    0.4932 H   0  0  0  0  0  0  0  0  0  0  0  0
    3.5136   -0.2150   -1.2136 H   0  0  0  0  0  0  0  0  0  0  0  0
    0.6868   -1.6205    0.9176 H   0  0  0  0  0  0  0  0  0  0  0  0
  1  2  1  0
  2  3  1  0
  3  4  1  0
  3  5  1  0
  5  6  1  0
  6  7  1  0
  7  8  1  0
  8  9  1  0
  9  5  1  0
  9  6  1  0
  1 10  1  0
  1 11  1  0
  1 12  1  0
  3 13  1  0
  4 14  1  0
  4 15  1  0
  4 16  1  0
  5 17  1  0
  6 18  1  0
  7 19  1  0
  7 20  1  0
  9 21  1  0
M  END
