
     RDKit          3D

 25 24  0  0  0  0  0  0  0  0999 V2000
   -2.9251   -0.2888   -1.2384 C   0  0  0  0  0  0  0  0  0  0  0  0
   -1.8288    0.3863   -0.7203 O   0  0  0  0  0  0  0  0  0  0  0  0
   -1.1980   -0.3254    0.2668 C   0  0  0  0  0  0  0  0  0  0  0  0
   -1.3618    0.3820    1.5907 C   0  0  0  0  0  0  0  0  0  0  0  0
    0.2009   -0.7247   -0.0470 C   0  0  0  0  0  0  0  0  0  0  0  0
    1.1707    0.3458   -0.3198 C   0  0  0  0  0  0  0  0  0  0  0  0
    1.4154    1.3387    0.7494 C   0  0  0  0  0  0  0  0  0  0  0  0
    2.5045   -0.3210   -0.6696 C   0  0  0  0  0  0  0  0  0  0  0  0
    2.3863   -1.1358   -1.7864 O   0  0  0  0  0  0  0  0  0  0  0  0
   -3.4467    0.2513   -2.0243 H   0  0  0  0  0  0  0  0  0  0  0  0
   -2.5998   -1.3088   -1.5685 H   0  0  0  0  0  0  0  0  0  0  0  0
   -3.6593   -0.4872   -0.4093 H   0  0  0  0  0  0  0  0  0  0  0  0
   -1.7680   -1.2976    0.3863 H   0  0  0  0  0  0  0  0  0  0  0  0
   -2.4295    0.2076    1.9209 H   0  0  0  0  0  0  0  0  0  0  0  0
   -1.2766    1.4811    1.5155 H   0  0  0  0  0  0  0  0  0  0  0  0
   -0.7481   -0.0607    2.3986 H   0  0  0  0  0  0  0  0  0  0  0  0
    0.1699   -1.4092   -0.9204 H   0  0  0  0  0  0  0  0  0  0  0  0
    0.5654   -1.3577    0.8043 H   0  0  0  0  0  0  0  0  0  0  0  0
    0.8902    0.9142   -1.2537 H   0  0  0  0  0  0  0  0  0  0  0  0
    1.3647    0.8547    1.7325 H   0  0  0  0  0  0  0  0  0  0  0  0
    2.4850    1.6934    0.6512 H   0  0  0  0  0  0  0  0  0  0  0  0
    0.8187    2.2679    0.6655 H   0  0  0  0  0  0  0  0  0  0  0  0
    2.8683   -0.9480    0.1849 H   0  0  0  0  0  0  0  0  0  0  0  0
    3.2986    0.4448   -0.8247 H   0  0  0  0  0  0  0  0  0  0  0  0
    3.1032   -0.9029   -2.4208 H   0  0  0  0  0  0  0  0  0  0  0  0
  1  2  1  0
  2  3  1  0
  3  4  1  0
  3  5  1  0
  5  6  1  0
  6  7  1  0
  6  8  1  0
  8  9  1  0
  1 10  1  0
  1 11  1  0
  1 12  1  0
  3 13  1  0
  4 14  1  0
  4 15  1  0
  4 16  1  0
  5 17  1  0
  5 18  1  0
  6 19  1  0
  7 20  1  0
  7 21  1  0
  7 22  1  0
  8 23  1  0
  8 24  1  0
  9 25  1  0
M  END
