
     RDKit          3D

 15 14  0  0  0  0  0  0  0  0999 V2000
   -2.7752    0.4652    0.2195 C   0  0  0  0  0  0  0  0  0  0  0  0
   -1.4587    0.5544    0.7791 O   0  0  0  0  0  0  0  0  0  0  0  0
   -0.3727   -0.0282    0.1905 C   0  0  0  0  0  0  0  0  0  0  0  0
   -0.5963   -0.6629   -0.8964 O   0  0  0  0  0  0  0  0  0  0  0  0
    0.9977    0.0550    0.7577 C   0  0  0  0  0  0  0  0  0  0  0  0
    1.9840   -0.6834   -0.1118 C   0  0  0  0  0  0  0  0  0  0  0  0
    1.9432   -0.0689   -1.3805 O   0  0  0  0  0  0  0  0  0  0  0  0
   -3.1057    1.5042   -0.0407 H   0  0  0  0  0  0  0  0  0  0  0  0
   -3.4700    0.0780    1.0049 H   0  0  0  0  0  0  0  0  0  0  0  0
   -2.8150   -0.2163   -0.6297 H   0  0  0  0  0  0  0  0  0  0  0  0
    1.2543    1.1299    0.8077 H   0  0  0  0  0  0  0  0  0  0  0  0
    1.0535   -0.3958    1.7773 H   0  0  0  0  0  0  0  0  0  0  0  0
    3.0030   -0.5939    0.3166 H   0  0  0  0  0  0  0  0  0  0  0  0
    1.6809   -1.7416   -0.2354 H   0  0  0  0  0  0  0  0  0  0  0  0
    2.6769    0.6042   -1.4086 H   0  0  0  0  0  0  0  0  0  0  0  0
  1  2  1  0
  2  3  1  0
  3  4  2  0
  3  5  1  0
  5  6  1  0
  6  7  1  0
  1  8  1  0
  1  9  1  0
  1 10  1  0
  5 11  1  0
  5 12  1  0
  6 13  1  0
  6 14  1  0
  7 15  1  0
M  END
