
     RDKit          3D

 20 19  0  0  0  0  0  0  0  0999 V2000
    2.9953    0.0898    0.4771 C   0  0  0  0  0  0  0  0  0  0  0  0
    1.6763   -0.4121    0.4665 O   0  0  0  0  0  0  0  0  0  0  0  0
    0.6962    0.3826   -0.1605 C   0  0  0  0  0  0  0  0  0  0  0  0
    1.0414    1.4775   -0.6686 O   0  0  0  0  0  0  0  0  0  0  0  0
   -0.7090   -0.0337   -0.2346 C   0  0  0  0  0  0  0  0  0  0  0  0
   -1.3458   -0.2327    1.1183 C   0  0  0  0  0  0  0  0  0  0  0  0
   -0.7881   -1.3099   -1.0796 C   0  0  0  0  0  0  0  0  0  0  0  0
   -1.4894    1.0271   -0.9737 C   0  0  0  0  0  0  0  0  0  0  0  0
    2.9331    1.1976    0.5509 H   0  0  0  0  0  0  0  0  0  0  0  0
    3.5696   -0.2425    1.3635 H   0  0  0  0  0  0  0  0  0  0  0  0
    3.4726   -0.2424   -0.4659 H   0  0  0  0  0  0  0  0  0  0  0  0
   -0.8518    0.3722    1.8968 H   0  0  0  0  0  0  0  0  0  0  0  0
   -1.4040   -1.3070    1.3813 H   0  0  0  0  0  0  0  0  0  0  0  0
   -2.4176    0.1120    1.0657 H   0  0  0  0  0  0  0  0  0  0  0  0
   -1.8509   -1.5446   -1.1798 H   0  0  0  0  0  0  0  0  0  0  0  0
   -0.1975   -2.1048   -0.6166 H   0  0  0  0  0  0  0  0  0  0  0  0
   -0.4099   -1.0140   -2.0857 H   0  0  0  0  0  0  0  0  0  0  0  0
   -1.5260    1.9177   -0.2996 H   0  0  0  0  0  0  0  0  0  0  0  0
   -2.4853    0.6136   -1.1825 H   0  0  0  0  0  0  0  0  0  0  0  0
   -0.9092    1.2534   -1.9146 H   0  0  0  0  0  0  0  0  0  0  0  0
  1  2  1  0
  2  3  1  0
  3  4  2  0
  3  5  1  0
  5  6  1  0
  5  7  1  0
  5  8  1  0
  1  9  1  0
  1 10  1  0
  1 11  1  0
  6 12  1  0
  6 13  1  0
  6 14  1  0
  7 15  1  0
  7 16  1  0
  7 17  1  0
  8 18  1  0
  8 19  1  0
  8 20  1  0
M  END
