
     RDKit          3D

 12 11  0  0  0  0  0  0  0  0999 V2000
    2.3241    0.3826    0.2917 C   0  0  0  0  0  0  0  0  0  0  0  0
    1.1114   -0.2335    0.6750 O   0  0  0  0  0  0  0  0  0  0  0  0
   -0.0640   -0.0083    0.0057 C   0  0  0  0  0  0  0  0  0  0  0  0
   -0.0149    0.7862   -0.9837 O   0  0  0  0  0  0  0  0  0  0  0  0
   -1.3356   -0.6153    0.3582 C   0  0  0  0  0  0  0  0  0  0  0  0
   -1.4020   -1.3995    1.3288 O   0  0  0  0  0  0  0  0  0  0  0  0
   -2.5359   -0.3300   -0.3951 C   0  0  0  0  0  0  0  0  0  0  0  0
   -2.5200    0.4522   -1.3796 O   0  0  0  0  0  0  0  0  0  0  0  0
    2.2780    1.4323    0.6479 H   0  0  0  0  0  0  0  0  0  0  0  0
    2.4120    0.4457   -0.8280 H   0  0  0  0  0  0  0  0  0  0  0  0
    3.2095   -0.1219    0.7095 H   0  0  0  0  0  0  0  0  0  0  0  0
   -3.4627   -0.7904   -0.1154 H   0  0  0  0  0  0  0  0  0  0  0  0
  1  2  1  0
  2  3  1  0
  3  4  2  0
  3  5  1  0
  5  6  2  0
  5  7  1  0
  7  8  2  0
  1  9  1  0
  1 10  1  0
  1 11  1  0
  7 12  1  0
M  END
