
     RDKit          3D

 17 18  0  0  0  0  0  0  0  0999 V2000
    2.9940    0.4335    0.0524 C   0  0  0  0  0  0  0  0  0  0  0  0
    1.6353    0.1472   -0.2336 O   0  0  0  0  0  0  0  0  0  0  0  0
    0.6286    0.2843    0.7276 C   0  0  0  0  0  0  0  0  0  0  0  0
    1.0437    0.6829    1.8604 O   0  0  0  0  0  0  0  0  0  0  0  0
   -0.6735    0.0133    0.4650 C   0  0  0  0  0  0  0  0  0  0  0  0
   -1.2492   -1.3169    0.0756 C   0  0  0  0  0  0  0  0  0  0  0  0
   -2.3802   -0.3558    0.2188 C   0  0  0  0  0  0  0  0  0  0  0  0
   -1.5636    0.6356   -0.5547 C   0  0  0  0  0  0  0  0  0  0  0  0
   -1.7347    0.1203    1.3521 O   0  0  0  0  0  0  0  0  0  0  0  0
    3.1739    0.5845    1.1290 H   0  0  0  0  0  0  0  0  0  0  0  0
    3.6097   -0.4106   -0.3192 H   0  0  0  0  0  0  0  0  0  0  0  0
    3.3384    1.3545   -0.4742 H   0  0  0  0  0  0  0  0  0  0  0  0
   -1.0098   -1.6892   -0.9205 H   0  0  0  0  0  0  0  0  0  0  0  0
   -1.2376   -2.0511    0.9076 H   0  0  0  0  0  0  0  0  0  0  0  0
   -3.3672   -0.5397    0.1179 H   0  0  0  0  0  0  0  0  0  0  0  0
   -1.8338    1.6771   -0.2802 H   0  0  0  0  0  0  0  0  0  0  0  0
   -1.3741    0.4302   -1.6047 H   0  0  0  0  0  0  0  0  0  0  0  0
  1  2  1  0
  2  3  1  0
  3  4  2  0
  3  5  1  0
  5  6  1  0
  6  7  1  0
  7  8  1  0
  7  9  1  0
  8  5  1  0
  9  5  1  0
  1 10  1  0
  1 11  1  0
  1 12  1  0
  6 13  1  0
  6 14  1  0
  7 15  1  0
  8 16  1  0
  8 17  1  0
M  END
