
     RDKit          3D

 19 18  0  0  0  0  0  0  0  0999 V2000
    3.0692    0.8348   -0.2938 C   0  0  0  0  0  0  0  0  0  0  0  0
    1.6504    0.9026   -0.4845 O   0  0  0  0  0  0  0  0  0  0  0  0
    0.8508   -0.1908   -0.1964 C   0  0  0  0  0  0  0  0  0  0  0  0
    1.4278   -1.2189    0.2308 O   0  0  0  0  0  0  0  0  0  0  0  0
   -0.6191   -0.2217   -0.3586 C   0  0  0  0  0  0  0  0  0  0  0  0
   -1.3081    0.8311    0.4885 C   0  0  0  0  0  0  0  0  0  0  0  0
   -0.9145    2.1113    0.1804 O   0  0  0  0  0  0  0  0  0  0  0  0
   -1.1647   -1.5617    0.0916 C   0  0  0  0  0  0  0  0  0  0  0  0
   -2.5401   -1.6318   -0.0444 O   0  0  0  0  0  0  0  0  0  0  0  0
    3.4719    1.7461    0.1417 H   0  0  0  0  0  0  0  0  0  0  0  0
    3.2713   -0.0470    0.3736 H   0  0  0  0  0  0  0  0  0  0  0  0
    3.5430    0.5588   -1.2700 H   0  0  0  0  0  0  0  0  0  0  0  0
   -0.8539   -0.0278   -1.4131 H   0  0  0  0  0  0  0  0  0  0  0  0
   -1.1255    0.5630    1.5576 H   0  0  0  0  0  0  0  0  0  0  0  0
   -2.4020    0.6758    0.3282 H   0  0  0  0  0  0  0  0  0  0  0  0
   -1.6716    2.5757   -0.2956 H   0  0  0  0  0  0  0  0  0  0  0  0
   -0.7481   -2.3666   -0.5767 H   0  0  0  0  0  0  0  0  0  0  0  0
   -0.9232   -1.7685    1.1397 H   0  0  0  0  0  0  0  0  0  0  0  0
   -3.0135   -1.7646    0.8168 H   0  0  0  0  0  0  0  0  0  0  0  0
  1  2  1  0
  2  3  1  0
  3  4  2  0
  3  5  1  0
  5  6  1  0
  6  7  1  0
  5  8  1  0
  8  9  1  0
  1 10  1  0
  1 11  1  0
  1 12  1  0
  5 13  1  0
  6 14  1  0
  6 15  1  0
  7 16  1  0
  8 17  1  0
  8 18  1  0
  9 19  1  0
M  END
