
     RDKit          3D

 16 15  0  0  0  0  0  0  0  0999 V2000
    2.9675    0.6734   -0.0397 C   0  0  0  0  0  0  0  0  0  0  0  0
    1.9334   -0.2362    0.3282 O   0  0  0  0  0  0  0  0  0  0  0  0
    0.6785   -0.0802   -0.2458 C   0  0  0  0  0  0  0  0  0  0  0  0
    0.5254    0.8639   -1.0746 O   0  0  0  0  0  0  0  0  0  0  0  0
   -0.4018   -1.0247    0.1470 C   0  0  0  0  0  0  0  0  0  0  0  0
   -1.6522   -0.7534   -0.5920 C   0  0  0  0  0  0  0  0  0  0  0  0
   -2.6051    0.3156   -0.2425 C   0  0  0  0  0  0  0  0  0  0  0  0
   -1.9324   -1.4538   -1.5714 O   0  0  0  0  0  0  0  0  0  0  0  0
    3.2099    1.3013    0.8398 H   0  0  0  0  0  0  0  0  0  0  0  0
    3.8308    0.0516   -0.3948 H   0  0  0  0  0  0  0  0  0  0  0  0
    2.6692    1.3659   -0.8479 H   0  0  0  0  0  0  0  0  0  0  0  0
   -0.5263   -0.9046    1.2552 H   0  0  0  0  0  0  0  0  0  0  0  0
   -0.0339   -2.0474   -0.0883 H   0  0  0  0  0  0  0  0  0  0  0  0
   -2.3690    0.8190    0.7337 H   0  0  0  0  0  0  0  0  0  0  0  0
   -2.6299    1.1208   -1.0423 H   0  0  0  0  0  0  0  0  0  0  0  0
   -3.6641   -0.0110   -0.1606 H   0  0  0  0  0  0  0  0  0  0  0  0
  1  2  1  0
  2  3  1  0
  3  4  2  0
  3  5  1  0
  5  6  1  0
  6  7  1  0
  6  8  2  0
  1  9  1  0
  1 10  1  0
  1 11  1  0
  5 12  1  0
  5 13  1  0
  7 14  1  0
  7 15  1  0
  7 16  1  0
M  END
