
     RDKit          3D

 21 20  0  0  0  0  0  0  0  0999 V2000
   -1.9460    0.9362   -2.0085 C   0  0  0  0  0  0  0  0  0  0  0  0
   -1.6495    0.4427   -0.8405 O   0  0  0  0  0  0  0  0  0  0  0  0
   -0.8452   -0.2307   -0.2201 C   0  0  0  0  0  0  0  0  0  0  0  0
   -0.6996   -1.7230   -0.6197 C   0  0  0  0  0  0  0  0  0  0  0  0
   -1.3270   -0.5109    1.3290 C   0  0  0  0  0  0  0  0  0  0  0  0
    0.4795    0.2415    0.1016 C   0  0  0  0  0  0  0  0  0  0  0  0
    1.7441    0.6900    0.4270 C   0  0  0  0  0  0  0  0  0  0  0  0
    3.0364    1.1474    0.7470 C   0  0  0  0  0  0  0  0  0  0  0  0
    3.8205    0.3089    1.4631 O   0  0  0  0  0  0  0  0  0  0  0  0
   -2.1343    0.3722   -2.8964 H   0  0  0  0  0  0  0  0  0  0  0  0
   -3.0946    1.3523   -1.8338 H   0  0  0  0  0  0  0  0  0  0  0  0
   -1.5235    1.9601   -2.2880 H   0  0  0  0  0  0  0  0  0  0  0  0
   -1.5402   -2.2213   -0.1178 H   0  0  0  0  0  0  0  0  0  0  0  0
    0.2941   -2.0222   -0.1658 H   0  0  0  0  0  0  0  0  0  0  0  0
   -0.7763   -1.8317   -1.6902 H   0  0  0  0  0  0  0  0  0  0  0  0
   -0.5240   -1.2482    1.6253 H   0  0  0  0  0  0  0  0  0  0  0  0
   -1.1351    0.3802    1.8971 H   0  0  0  0  0  0  0  0  0  0  0  0
   -2.3104   -0.9365    1.2594 H   0  0  0  0  0  0  0  0  0  0  0  0
    3.0036    2.1885    1.1718 H   0  0  0  0  0  0  0  0  0  0  0  0
    3.5635    1.3136   -0.2919 H   0  0  0  0  0  0  0  0  0  0  0  0
    3.5638   -0.6091    1.6546 H   0  0  0  0  0  0  0  0  0  0  0  0
  1  2  1  0
  2  3  1  0
  3  4  1  0
  3  5  1  0
  3  6  1  0
  6  7  3  0
  7  8  1  0
  8  9  1  0
  1 10  1  0
  1 11  1  0
  1 12  1  0
  4 13  1  0
  4 14  1  0
  4 15  1  0
  5 16  1  0
  5 17  1  0
  5 18  1  0
  8 19  1  0
  8 20  1  0
  9 21  1  0
M  END
