
     RDKit          3D

 18 17  0  0  0  0  0  0  0  0999 V2000
    2.0157   -0.0327   -0.4525 C   0  0  0  0  0  0  0  0  0  0  0  0
    0.8183   -0.6582   -0.6811 O   0  0  0  0  0  0  0  0  0  0  0  0
   -0.2626   -0.1755   -0.0221 C   0  0  0  0  0  0  0  0  0  0  0  0
   -1.4437   -1.0557   -0.4651 C   0  0  0  0  0  0  0  0  0  0  0  0
   -0.5494    1.2350   -0.5260 C   0  0  0  0  0  0  0  0  0  0  0  0
   -0.2035   -0.1497    1.4530 C   0  0  0  0  0  0  0  0  0  0  0  0
    2.7805   -0.5718   -1.0821 H   0  0  0  0  0  0  0  0  0  0  0  0
    2.3667   -0.2334    0.6004 H   0  0  0  0  0  0  0  0  0  0  0  0
    2.0675    1.0158   -0.7327 H   0  0  0  0  0  0  0  0  0  0  0  0
   -1.9089   -0.5940   -1.3545 H   0  0  0  0  0  0  0  0  0  0  0  0
   -2.1395   -1.2324    0.3680 H   0  0  0  0  0  0  0  0  0  0  0  0
   -1.0806   -2.0636   -0.7875 H   0  0  0  0  0  0  0  0  0  0  0  0
   -1.5520    1.3071   -0.9764 H   0  0  0  0  0  0  0  0  0  0  0  0
    0.1824    1.5563   -1.2948 H   0  0  0  0  0  0  0  0  0  0  0  0
   -0.4580    1.9759    0.3094 H   0  0  0  0  0  0  0  0  0  0  0  0
    0.7273   -0.5553    1.8919 H   0  0  0  0  0  0  0  0  0  0  0  0
   -0.2777    0.9038    1.8555 H   0  0  0  0  0  0  0  0  0  0  0  0
   -1.0825   -0.6716    1.8967 H   0  0  0  0  0  0  0  0  0  0  0  0
  1  2  1  0
  2  3  1  0
  3  4  1  0
  3  5  1  0
  3  6  1  0
  1  7  1  0
  1  8  1  0
  1  9  1  0
  4 10  1  0
  4 11  1  0
  4 12  1  0
  5 13  1  0
  5 14  1  0
  5 15  1  0
  6 16  1  0
  6 17  1  0
  6 18  1  0
M  END
