
     RDKit          3D

 14 13  0  0  0  0  0  0  0  0999 V2000
    1.8469   -0.6279    0.3190 C   0  0  0  0  0  0  0  0  0  0  0  0
    0.6894   -0.0035    0.7440 O   0  0  0  0  0  0  0  0  0  0  0  0
   -0.2676    0.1356   -0.2360 C   0  0  0  0  0  0  0  0  0  0  0  0
   -1.5160   -0.5650    0.2668 C   0  0  0  0  0  0  0  0  0  0  0  0
   -0.5185    1.5778   -0.4915 C   0  0  0  0  0  0  0  0  0  0  0  0
   -1.3235    1.9709   -1.3156 O   0  0  0  0  0  0  0  0  0  0  0  0
    2.5249   -0.6704    1.2112 H   0  0  0  0  0  0  0  0  0  0  0  0
    2.2893    0.0122   -0.4770 H   0  0  0  0  0  0  0  0  0  0  0  0
    1.6677   -1.6412   -0.0743 H   0  0  0  0  0  0  0  0  0  0  0  0
    0.0954   -0.2947   -1.1967 H   0  0  0  0  0  0  0  0  0  0  0  0
   -1.5577   -1.5405   -0.2234 H   0  0  0  0  0  0  0  0  0  0  0  0
   -2.4413   -0.0115    0.0294 H   0  0  0  0  0  0  0  0  0  0  0  0
   -1.5091   -0.6741    1.3832 H   0  0  0  0  0  0  0  0  0  0  0  0
    0.0200    2.3322    0.0610 H   0  0  0  0  0  0  0  0  0  0  0  0
  1  2  1  0
  2  3  1  0
  3  4  1  0
  3  5  1  0
  5  6  2  0
  1  7  1  0
  1  8  1  0
  1  9  1  0
  3 10  1  0
  4 11  1  0
  4 12  1  0
  4 13  1  0
  5 14  1  0
M  END
