
     RDKit          3D

 21 20  0  0  0  0  0  0  0  0999 V2000
   -1.1881    1.6748   -1.3683 C   0  0  0  0  0  0  0  0  0  0  0  0
   -1.3115    0.3035   -1.2197 O   0  0  0  0  0  0  0  0  0  0  0  0
   -0.8125   -0.0474    0.0149 C   0  0  0  0  0  0  0  0  0  0  0  0
   -1.9263   -0.6243    0.9003 C   0  0  0  0  0  0  0  0  0  0  0  0
    0.2437   -1.1216   -0.0661 C   0  0  0  0  0  0  0  0  0  0  0  0
    1.4298   -0.7370   -0.8769 C   0  0  0  0  0  0  0  0  0  0  0  0
    2.1293    0.3713   -0.4437 O   0  0  0  0  0  0  0  0  0  0  0  0
    2.7198    0.4221    0.8084 C   0  0  0  0  0  0  0  0  0  0  0  0
    2.5860   -0.5955    1.5306 O   0  0  0  0  0  0  0  0  0  0  0  0
   -1.7843    2.1412   -0.5374 H   0  0  0  0  0  0  0  0  0  0  0  0
   -0.1196    2.0105   -1.2858 H   0  0  0  0  0  0  0  0  0  0  0  0
   -1.5595    2.0390   -2.3494 H   0  0  0  0  0  0  0  0  0  0  0  0
   -0.4391    0.8439    0.5788 H   0  0  0  0  0  0  0  0  0  0  0  0
   -2.1400   -1.6734    0.6081 H   0  0  0  0  0  0  0  0  0  0  0  0
   -1.5767   -0.6615    1.9563 H   0  0  0  0  0  0  0  0  0  0  0  0
   -2.8544   -0.0429    0.7924 H   0  0  0  0  0  0  0  0  0  0  0  0
    0.4872   -1.4252    0.9718 H   0  0  0  0  0  0  0  0  0  0  0  0
   -0.2665   -2.0160   -0.5133 H   0  0  0  0  0  0  0  0  0  0  0  0
    1.0508   -0.5131   -1.9175 H   0  0  0  0  0  0  0  0  0  0  0  0
    2.0552   -1.6550   -1.0101 H   0  0  0  0  0  0  0  0  0  0  0  0
    3.2768    1.3067    1.1533 H   0  0  0  0  0  0  0  0  0  0  0  0
  1  2  1  0
  2  3  1  0
  3  4  1  0
  3  5  1  0
  5  6  1  0
  6  7  1  0
  7  8  1  0
  8  9  2  0
  1 10  1  0
  1 11  1  0
  1 12  1  0
  3 13  1  0
  4 14  1  0
  4 15  1  0
  4 16  1  0
  5 17  1  0
  5 18  1  0
  6 19  1  0
  6 20  1  0
  8 21  1  0
M  END
