
     RDKit          3D

 17 16  0  0  0  0  0  0  0  0999 V2000
   -1.8863    1.8717    0.5443 C   0  0  0  0  0  0  0  0  0  0  0  0
   -1.0779    0.8380    1.0013 O   0  0  0  0  0  0  0  0  0  0  0  0
   -0.5647    0.0602   -0.0074 C   0  0  0  0  0  0  0  0  0  0  0  0
    0.9076    0.0628   -0.0217 C   0  0  0  0  0  0  0  0  0  0  0  0
    2.1234    0.0606   -0.0532 C   0  0  0  0  0  0  0  0  0  0  0  0
    3.5640    0.0558   -0.0654 C   0  0  0  0  0  0  0  0  0  0  0  0
    4.2073   -0.8660   -0.6323 O   0  0  0  0  0  0  0  0  0  0  0  0
   -0.9607   -1.3770    0.2760 C   0  0  0  0  0  0  0  0  0  0  0  0
   -0.4775   -2.2372   -0.7048 O   0  0  0  0  0  0  0  0  0  0  0  0
   -2.7488    1.4177   -0.0248 H   0  0  0  0  0  0  0  0  0  0  0  0
   -1.3604    2.5958   -0.0770 H   0  0  0  0  0  0  0  0  0  0  0  0
   -2.3598    2.3862    1.4059 H   0  0  0  0  0  0  0  0  0  0  0  0
   -0.8791    0.3840   -1.0209 H   0  0  0  0  0  0  0  0  0  0  0  0
    4.1389    0.8459    0.4133 H   0  0  0  0  0  0  0  0  0  0  0  0
   -0.5140   -1.6222    1.2747 H   0  0  0  0  0  0  0  0  0  0  0  0
   -2.0773   -1.4792    0.3575 H   0  0  0  0  0  0  0  0  0  0  0  0
   -0.0346   -2.9970   -0.2362 H   0  0  0  0  0  0  0  0  0  0  0  0
  1  2  1  0
  2  3  1  0
  3  4  1  0
  4  5  3  0
  5  6  1  0
  6  7  2  0
  3  8  1  0
  8  9  1  0
  1 10  1  0
  1 11  1  0
  1 12  1  0
  3 13  1  0
  6 14  1  0
  8 15  1  0
  8 16  1  0
  9 17  1  0
M  END
