
     RDKit          3D

 19 18  0  0  0  0  0  0  0  0999 V2000
    2.6049    1.2750   -0.1931 C   0  0  0  0  0  0  0  0  0  0  0  0
    1.3888    0.7473    0.3453 O   0  0  0  0  0  0  0  0  0  0  0  0
    0.9389   -0.5170    0.0061 C   0  0  0  0  0  0  0  0  0  0  0  0
    1.6472   -1.1772   -0.7947 O   0  0  0  0  0  0  0  0  0  0  0  0
   -0.3113   -1.1038    0.5373 C   0  0  0  0  0  0  0  0  0  0  0  0
   -0.5162   -2.3839    0.0279 O   0  0  0  0  0  0  0  0  0  0  0  0
   -1.5254   -0.2807    0.1731 C   0  0  0  0  0  0  0  0  0  0  0  0
   -1.5174    1.0870    0.7836 C   0  0  0  0  0  0  0  0  0  0  0  0
   -1.6726   -0.2331   -1.1935 O   0  0  0  0  0  0  0  0  0  0  0  0
    2.4457    2.2515   -0.6873 H   0  0  0  0  0  0  0  0  0  0  0  0
    3.3636    1.4380    0.5984 H   0  0  0  0  0  0  0  0  0  0  0  0
    3.0125    0.5173   -0.9247 H   0  0  0  0  0  0  0  0  0  0  0  0
   -0.2592   -1.1893    1.6558 H   0  0  0  0  0  0  0  0  0  0  0  0
   -1.2034   -2.8133    0.5628 H   0  0  0  0  0  0  0  0  0  0  0  0
   -2.4056   -0.8252    0.6187 H   0  0  0  0  0  0  0  0  0  0  0  0
   -2.5815    1.4335    0.8952 H   0  0  0  0  0  0  0  0  0  0  0  0
   -1.1190    1.0441    1.8307 H   0  0  0  0  0  0  0  0  0  0  0  0
   -0.9281    1.8137    0.1784 H   0  0  0  0  0  0  0  0  0  0  0  0
   -1.3620   -1.0840   -1.5783 H   0  0  0  0  0  0  0  0  0  0  0  0
  1  2  1  0
  2  3  1  0
  3  4  2  0
  3  5  1  0
  5  6  1  0
  5  7  1  0
  7  8  1  0
  7  9  1  0
  1 10  1  0
  1 11  1  0
  1 12  1  0
  5 13  1  0
  6 14  1  0
  7 15  1  0
  8 16  1  0
  8 17  1  0
  8 18  1  0
  9 19  1  0
M  END
