
     RDKit          3D

 21 21  0  0  0  0  0  0  0  0999 V2000
   -1.3984   -2.0718   -0.4451 C   0  0  0  0  0  0  0  0  0  0  0  0
   -0.8579   -1.3151    0.5876 O   0  0  0  0  0  0  0  0  0  0  0  0
   -0.1285   -0.2230    0.0981 C   0  0  0  0  0  0  0  0  0  0  0  0
   -0.7028    1.0113    0.7031 C   0  0  0  0  0  0  0  0  0  0  0  0
   -0.0618    2.2793    0.2069 C   0  0  0  0  0  0  0  0  0  0  0  0
   -2.0587    1.0730    0.3070 O   0  0  0  0  0  0  0  0  0  0  0  0
    1.3090   -0.4438    0.5419 C   0  0  0  0  0  0  0  0  0  0  0  0
    2.3968   -0.5505   -0.3753 C   0  0  0  0  0  0  0  0  0  0  0  0
    1.7570   -1.7289   -0.0519 O   0  0  0  0  0  0  0  0  0  0  0  0
   -1.9533   -2.9063    0.0272 H   0  0  0  0  0  0  0  0  0  0  0  0
   -2.1596   -1.4325   -0.9464 H   0  0  0  0  0  0  0  0  0  0  0  0
   -0.6328   -2.4125   -1.1638 H   0  0  0  0  0  0  0  0  0  0  0  0
   -0.1240   -0.1751   -0.9962 H   0  0  0  0  0  0  0  0  0  0  0  0
   -0.6322    0.9554    1.7911 H   0  0  0  0  0  0  0  0  0  0  0  0
   -0.2743    2.4420   -0.8731 H   0  0  0  0  0  0  0  0  0  0  0  0
    1.0115    2.3359    0.3701 H   0  0  0  0  0  0  0  0  0  0  0  0
   -0.5745    3.1221    0.7361 H   0  0  0  0  0  0  0  0  0  0  0  0
   -2.0977    1.1744   -0.6739 H   0  0  0  0  0  0  0  0  0  0  0  0
    1.4897   -0.5131    1.6299 H   0  0  0  0  0  0  0  0  0  0  0  0
    3.4247   -0.3694   -0.0228 H   0  0  0  0  0  0  0  0  0  0  0  0
    2.2677   -0.2514   -1.4504 H   0  0  0  0  0  0  0  0  0  0  0  0
  1  2  1  0
  2  3  1  0
  3  4  1  0
  4  5  1  0
  4  6  1  0
  3  7  1  0
  7  8  1  0
  8  9  1  0
  9  7  1  0
  1 10  1  0
  1 11  1  0
  1 12  1  0
  3 13  1  0
  4 14  1  0
  5 15  1  0
  5 16  1  0
  5 17  1  0
  6 18  1  0
  7 19  1  0
  8 20  1  0
  8 21  1  0
M  END
