
     RDKit          3D

 21 20  0  0  0  0  0  0  0  0999 V2000
    2.9478   -0.7371   -0.1077 C   0  0  0  0  0  0  0  0  0  0  0  0
    2.0705    0.2472   -0.5178 O   0  0  0  0  0  0  0  0  0  0  0  0
    0.7925    0.0812    0.0996 C   0  0  0  0  0  0  0  0  0  0  0  0
    0.5722    1.2950    0.9063 C   0  0  0  0  0  0  0  0  0  0  0  0
    1.4235    2.2006    0.8493 O   0  0  0  0  0  0  0  0  0  0  0  0
   -0.2376   -0.1536   -0.9395 C   0  0  0  0  0  0  0  0  0  0  0  0
   -1.6360   -0.3650   -0.5186 C   0  0  0  0  0  0  0  0  0  0  0  0
   -2.3138    0.7285    0.2201 C   0  0  0  0  0  0  0  0  0  0  0  0
   -1.7506   -1.5582    0.2102 O   0  0  0  0  0  0  0  0  0  0  0  0
    3.1238   -0.7463    0.9835 H   0  0  0  0  0  0  0  0  0  0  0  0
    2.6312   -1.7380   -0.4844 H   0  0  0  0  0  0  0  0  0  0  0  0
    3.9185   -0.5198   -0.5979 H   0  0  0  0  0  0  0  0  0  0  0  0
    0.8808   -0.8196    0.7496 H   0  0  0  0  0  0  0  0  0  0  0  0
   -0.2865    1.4571    1.5544 H   0  0  0  0  0  0  0  0  0  0  0  0
   -0.1459    0.6489   -1.7243 H   0  0  0  0  0  0  0  0  0  0  0  0
    0.0855   -1.0823   -1.5039 H   0  0  0  0  0  0  0  0  0  0  0  0
   -2.2261   -0.5592   -1.4692 H   0  0  0  0  0  0  0  0  0  0  0  0
   -2.4193    0.5561    1.3207 H   0  0  0  0  0  0  0  0  0  0  0  0
   -1.9692    1.7317   -0.0447 H   0  0  0  0  0  0  0  0  0  0  0  0
   -3.4046    0.7243   -0.1230 H   0  0  0  0  0  0  0  0  0  0  0  0
   -2.0564   -1.3916    1.1373 H   0  0  0  0  0  0  0  0  0  0  0  0
  1  2  1  0
  2  3  1  0
  3  4  1  0
  4  5  2  0
  3  6  1  0
  6  7  1  0
  7  8  1  0
  7  9  1  0
  1 10  1  0
  1 11  1  0
  1 12  1  0
  3 13  1  0
  4 14  1  0
  6 15  1  0
  6 16  1  0
  7 17  1  0
  8 18  1  0
  8 19  1  0
  8 20  1  0
  9 21  1  0
M  END
