
     RDKit          3D

 25 25  0  0  0  0  0  0  0  0999 V2000
   -2.8273   -0.6535   -0.9533 C   0  0  0  0  0  0  0  0  0  0  0  0
   -1.7038   -1.0655   -0.2753 O   0  0  0  0  0  0  0  0  0  0  0  0
   -1.0223   -0.0389    0.3630 C   0  0  0  0  0  0  0  0  0  0  0  0
   -1.1075   -0.2119    1.8573 C   0  0  0  0  0  0  0  0  0  0  0  0
    0.3866    0.1055   -0.1287 C   0  0  0  0  0  0  0  0  0  0  0  0
    0.4468    0.4107   -1.6271 C   0  0  0  0  0  0  0  0  0  0  0  0
    1.3647   -0.8703    0.4129 C   0  0  0  0  0  0  0  0  0  0  0  0
    1.4847    0.6074    0.7125 C   0  0  0  0  0  0  0  0  0  0  0  0
    2.6821    1.2564    0.0362 C   0  0  0  0  0  0  0  0  0  0  0  0
   -3.2815   -1.5536   -1.4171 H   0  0  0  0  0  0  0  0  0  0  0  0
   -3.5901   -0.1808   -0.3151 H   0  0  0  0  0  0  0  0  0  0  0  0
   -2.5671    0.0146   -1.8269 H   0  0  0  0  0  0  0  0  0  0  0  0
   -1.6178    0.8946    0.1309 H   0  0  0  0  0  0  0  0  0  0  0  0
   -1.6823    0.5963    2.3595 H   0  0  0  0  0  0  0  0  0  0  0  0
   -0.1189   -0.3160    2.3250 H   0  0  0  0  0  0  0  0  0  0  0  0
   -1.6968   -1.1494    2.0757 H   0  0  0  0  0  0  0  0  0  0  0  0
    0.3278   -0.5258   -2.2057 H   0  0  0  0  0  0  0  0  0  0  0  0
    1.3820    0.9198   -1.8847 H   0  0  0  0  0  0  0  0  0  0  0  0
   -0.3967    1.0665   -1.9248 H   0  0  0  0  0  0  0  0  0  0  0  0
    2.0400   -1.3245   -0.3395 H   0  0  0  0  0  0  0  0  0  0  0  0
    1.1694   -1.4966    1.2896 H   0  0  0  0  0  0  0  0  0  0  0  0
    1.3335    0.9797    1.7444 H   0  0  0  0  0  0  0  0  0  0  0  0
    3.0775    0.6170   -0.7913 H   0  0  0  0  0  0  0  0  0  0  0  0
    3.4841    1.3166    0.8012 H   0  0  0  0  0  0  0  0  0  0  0  0
    2.4330    2.2317   -0.4189 H   0  0  0  0  0  0  0  0  0  0  0  0
  1  2  1  0
  2  3  1  0
  3  4  1  0
  3  5  1  0
  5  6  1  0
  5  7  1  0
  7  8  1  0
  8  9  1  0
  8  5  1  0
  1 10  1  0
  1 11  1  0
  1 12  1  0
  3 13  1  0
  4 14  1  0
  4 15  1  0
  4 16  1  0
  6 17  1  0
  6 18  1  0
  6 19  1  0
  7 20  1  0
  7 21  1  0
  8 22  1  0
  9 23  1  0
  9 24  1  0
  9 25  1  0
M  END
