
     RDKit          3D

 21 21  0  0  0  0  0  0  0  0999 V2000
   -1.9783   -1.3330    0.9640 C   0  0  0  0  0  0  0  0  0  0  0  0
   -1.2599   -0.1735    1.0962 O   0  0  0  0  0  0  0  0  0  0  0  0
   -0.4617    0.0133   -0.0720 C   0  0  0  0  0  0  0  0  0  0  0  0
   -0.9006    1.3396   -0.7128 C   0  0  0  0  0  0  0  0  0  0  0  0
   -0.6883    2.3971    0.1569 O   0  0  0  0  0  0  0  0  0  0  0  0
    0.9701    0.1513    0.2957 C   0  0  0  0  0  0  0  0  0  0  0  0
    1.8828    0.3264   -0.8721 C   0  0  0  0  0  0  0  0  0  0  0  0
    1.8807   -1.0822   -0.9938 O   0  0  0  0  0  0  0  0  0  0  0  0
    1.7627   -1.1319    0.3813 C   0  0  0  0  0  0  0  0  0  0  0  0
   -2.6631   -1.3317    0.0799 H   0  0  0  0  0  0  0  0  0  0  0  0
   -2.5243   -1.6405    1.8571 H   0  0  0  0  0  0  0  0  0  0  0  0
   -1.2339   -2.1542    0.7592 H   0  0  0  0  0  0  0  0  0  0  0  0
   -0.6718   -0.8422   -0.7273 H   0  0  0  0  0  0  0  0  0  0  0  0
   -2.0107    1.2634   -0.9341 H   0  0  0  0  0  0  0  0  0  0  0  0
   -0.3288    1.5097   -1.6289 H   0  0  0  0  0  0  0  0  0  0  0  0
   -1.3032    3.1367   -0.0929 H   0  0  0  0  0  0  0  0  0  0  0  0
    1.2105    0.9022    1.0735 H   0  0  0  0  0  0  0  0  0  0  0  0
    1.4864    0.8564   -1.7314 H   0  0  0  0  0  0  0  0  0  0  0  0
    2.8777    0.7296   -0.5703 H   0  0  0  0  0  0  0  0  0  0  0  0
    2.7296   -0.9353    0.8771 H   0  0  0  0  0  0  0  0  0  0  0  0
    1.2240   -2.0012    0.7947 H   0  0  0  0  0  0  0  0  0  0  0  0
  1  2  1  0
  2  3  1  0
  3  4  1  0
  4  5  1  0
  3  6  1  0
  6  7  1  0
  7  8  1  0
  8  9  1  0
  9  6  1  0
  1 10  1  0
  1 11  1  0
  1 12  1  0
  3 13  1  0
  4 14  1  0
  4 15  1  0
  5 16  1  0
  6 17  1  0
  7 18  1  0
  7 19  1  0
  9 20  1  0
  9 21  1  0
M  END
