
     RDKit          3D

 25 24  0  0  0  0  0  0  0  0999 V2000
   -0.7242   -2.0944    1.1159 C   0  0  0  0  0  0  0  0  0  0  0  0
   -1.0110   -0.7698    1.1090 O   0  0  0  0  0  0  0  0  0  0  0  0
   -0.5699   -0.0184    0.0418 C   0  0  0  0  0  0  0  0  0  0  0  0
   -1.1321   -0.5073   -1.2798 C   0  0  0  0  0  0  0  0  0  0  0  0
   -1.0878    1.3895    0.2666 C   0  0  0  0  0  0  0  0  0  0  0  0
   -0.7215    2.2627   -0.7316 O   0  0  0  0  0  0  0  0  0  0  0  0
    0.9128   -0.0924   -0.0341 C   0  0  0  0  0  0  0  0  0  0  0  0
    1.5164    0.6967   -1.1625 C   0  0  0  0  0  0  0  0  0  0  0  0
    1.5615    0.1806    1.2991 C   0  0  0  0  0  0  0  0  0  0  0  0
    0.3411   -2.3452    1.1098 H   0  0  0  0  0  0  0  0  0  0  0  0
   -1.1959   -2.5216    2.0449 H   0  0  0  0  0  0  0  0  0  0  0  0
   -1.2088   -2.6693    0.2814 H   0  0  0  0  0  0  0  0  0  0  0  0
   -2.1935   -0.8213   -1.1961 H   0  0  0  0  0  0  0  0  0  0  0  0
   -0.4861   -1.2813   -1.7456 H   0  0  0  0  0  0  0  0  0  0  0  0
   -1.1209    0.3605   -1.9728 H   0  0  0  0  0  0  0  0  0  0  0  0
   -2.1988    1.3028    0.3918 H   0  0  0  0  0  0  0  0  0  0  0  0
   -0.7211    1.8121    1.2264 H   0  0  0  0  0  0  0  0  0  0  0  0
   -1.5387    2.7056   -1.0592 H   0  0  0  0  0  0  0  0  0  0  0  0
    1.1703   -1.1631   -0.2911 H   0  0  0  0  0  0  0  0  0  0  0  0
    1.9493    1.6362   -0.7199 H   0  0  0  0  0  0  0  0  0  0  0  0
    0.8231    0.9865   -1.9417 H   0  0  0  0  0  0  0  0  0  0  0  0
    2.3804    0.1794   -1.6407 H   0  0  0  0  0  0  0  0  0  0  0  0
    2.4162    0.8886    1.0880 H   0  0  0  0  0  0  0  0  0  0  0  0
    1.9880   -0.7290    1.7705 H   0  0  0  0  0  0  0  0  0  0  0  0
    0.8513    0.6115    2.0299 H   0  0  0  0  0  0  0  0  0  0  0  0
  1  2  1  0
  2  3  1  0
  3  4  1  0
  3  5  1  0
  5  6  1  0
  3  7  1  0
  7  8  1  0
  7  9  1  0
  1 10  1  0
  1 11  1  0
  1 12  1  0
  4 13  1  0
  4 14  1  0
  4 15  1  0
  5 16  1  0
  5 17  1  0
  6 18  1  0
  7 19  1  0
  8 20  1  0
  8 21  1  0
  8 22  1  0
  9 23  1  0
  9 24  1  0
  9 25  1  0
M  END
