
     RDKit          3D

 23 22  0  0  0  0  0  0  0  0999 V2000
   -2.1989    1.5160   -0.8500 C   0  0  0  0  0  0  0  0  0  0  0  0
   -1.3174    0.5123   -1.2230 O   0  0  0  0  0  0  0  0  0  0  0  0
   -0.8944   -0.1496   -0.1041 C   0  0  0  0  0  0  0  0  0  0  0  0
   -1.5722   -1.5586   -0.2022 C   0  0  0  0  0  0  0  0  0  0  0  0
    0.5875   -0.3520    0.0336 C   0  0  0  0  0  0  0  0  0  0  0  0
    0.8126   -1.0866    1.3323 C   0  0  0  0  0  0  0  0  0  0  0  0
    1.4258    0.8126   -0.1706 C   0  0  0  0  0  0  0  0  0  0  0  0
    2.9112    0.8326   -0.0640 C   0  0  0  0  0  0  0  0  0  0  0  0
    0.9236    1.8836   -0.4543 O   0  0  0  0  0  0  0  0  0  0  0  0
   -1.7033    2.2183   -0.1641 H   0  0  0  0  0  0  0  0  0  0  0  0
   -2.6388    2.0344   -1.7393 H   0  0  0  0  0  0  0  0  0  0  0  0
   -3.0923    1.0927   -0.3126 H   0  0  0  0  0  0  0  0  0  0  0  0
   -1.3053    0.3485    0.7971 H   0  0  0  0  0  0  0  0  0  0  0  0
   -2.5334   -1.4585   -0.7450 H   0  0  0  0  0  0  0  0  0  0  0  0
   -0.8897   -2.1599   -0.8034 H   0  0  0  0  0  0  0  0  0  0  0  0
   -1.7315   -1.9456    0.8191 H   0  0  0  0  0  0  0  0  0  0  0  0
    0.8512   -1.0988   -0.7879 H   0  0  0  0  0  0  0  0  0  0  0  0
    1.8577   -1.2490    1.5814 H   0  0  0  0  0  0  0  0  0  0  0  0
    0.3532   -2.1090    1.1914 H   0  0  0  0  0  0  0  0  0  0  0  0
    0.2148   -0.6089    2.1343 H   0  0  0  0  0  0  0  0  0  0  0  0
    3.3033    1.7852    0.3297 H   0  0  0  0  0  0  0  0  0  0  0  0
    3.3205   -0.0002    0.5064 H   0  0  0  0  0  0  0  0  0  0  0  0
    3.3158    0.7404   -1.1046 H   0  0  0  0  0  0  0  0  0  0  0  0
  1  2  1  0
  2  3  1  0
  3  4  1  0
  3  5  1  0
  5  6  1  0
  5  7  1  0
  7  8  1  0
  7  9  2  0
  1 10  1  0
  1 11  1  0
  1 12  1  0
  3 13  1  0
  4 14  1  0
  4 15  1  0
  4 16  1  0
  5 17  1  0
  6 18  1  0
  6 19  1  0
  6 20  1  0
  8 21  1  0
  8 22  1  0
  8 23  1  0
M  END
