
     RDKit          3D

 17 17  0  0  0  0  0  0  0  0999 V2000
    3.2413    0.0616   -0.0770 C   0  0  0  0  0  0  0  0  0  0  0  0
    1.8690    0.3488    0.0235 O   0  0  0  0  0  0  0  0  0  0  0  0
    0.8619   -0.5927   -0.0304 C   0  0  0  0  0  0  0  0  0  0  0  0
    1.2065   -1.7925   -0.1805 O   0  0  0  0  0  0  0  0  0  0  0  0
   -0.5613   -0.1997    0.0844 C   0  0  0  0  0  0  0  0  0  0  0  0
   -0.9727    1.0330    0.2416 C   0  0  0  0  0  0  0  0  0  0  0  0
   -2.4420    1.0018    0.3118 C   0  0  0  0  0  0  0  0  0  0  0  0
   -2.8075   -0.3326    0.4471 O   0  0  0  0  0  0  0  0  0  0  0  0
   -1.7364   -1.0866    0.0445 C   0  0  0  0  0  0  0  0  0  0  0  0
    3.4560   -0.9760   -0.3923 H   0  0  0  0  0  0  0  0  0  0  0  0
    3.7729    0.7634   -0.7723 H   0  0  0  0  0  0  0  0  0  0  0  0
    3.6855    0.2594    0.9249 H   0  0  0  0  0  0  0  0  0  0  0  0
   -0.3619    1.9026    0.3072 H   0  0  0  0  0  0  0  0  0  0  0  0
   -2.8869    1.4726   -0.5929 H   0  0  0  0  0  0  0  0  0  0  0  0
   -2.8017    1.6191    1.1773 H   0  0  0  0  0  0  0  0  0  0  0  0
   -1.8743   -1.5338   -0.9839 H   0  0  0  0  0  0  0  0  0  0  0  0
   -1.6484   -1.9486    0.7451 H   0  0  0  0  0  0  0  0  0  0  0  0
  1  2  1  0
  2  3  1  0
  3  4  2  0
  3  5  1  0
  5  6  2  0
  6  7  1  0
  7  8  1  0
  8  9  1  0
  9  5  1  0
  1 10  1  0
  1 11  1  0
  1 12  1  0
  6 13  1  0
  7 14  1  0
  7 15  1  0
  9 16  1  0
  9 17  1  0
M  END
