
     RDKit          3D

 23 23  0  0  0  0  0  0  0  0999 V2000
   -2.1763   -1.6062    0.4680 C   0  0  0  0  0  0  0  0  0  0  0  0
   -1.4858   -0.5125    0.9810 O   0  0  0  0  0  0  0  0  0  0  0  0
   -1.2385    0.4536    0.0215 C   0  0  0  0  0  0  0  0  0  0  0  0
   -2.0333    1.6943    0.4525 C   0  0  0  0  0  0  0  0  0  0  0  0
    0.2085    0.8812   -0.0031 C   0  0  0  0  0  0  0  0  0  0  0  0
    1.1512   -0.2502   -0.3003 C   0  0  0  0  0  0  0  0  0  0  0  0
    2.5788    0.2560   -0.3080 C   0  0  0  0  0  0  0  0  0  0  0  0
    2.8036   -1.0847    0.3402 C   0  0  0  0  0  0  0  0  0  0  0  0
    1.5042   -1.0241    0.8286 O   0  0  0  0  0  0  0  0  0  0  0  0
   -2.3341   -2.3299    1.2935 H   0  0  0  0  0  0  0  0  0  0  0  0
   -1.5880   -2.0609   -0.3334 H   0  0  0  0  0  0  0  0  0  0  0  0
   -3.1952   -1.2997    0.1106 H   0  0  0  0  0  0  0  0  0  0  0  0
   -1.6323    0.1825   -0.9733 H   0  0  0  0  0  0  0  0  0  0  0  0
   -1.7318    1.9078    1.5087 H   0  0  0  0  0  0  0  0  0  0  0  0
   -1.6228    2.5294   -0.1495 H   0  0  0  0  0  0  0  0  0  0  0  0
   -3.1066    1.5607    0.3306 H   0  0  0  0  0  0  0  0  0  0  0  0
    0.4315    1.3369    0.9830 H   0  0  0  0  0  0  0  0  0  0  0  0
    0.3292    1.6841   -0.7579 H   0  0  0  0  0  0  0  0  0  0  0  0
    0.8638   -0.9179   -1.1134 H   0  0  0  0  0  0  0  0  0  0  0  0
    2.9565    0.3892   -1.3204 H   0  0  0  0  0  0  0  0  0  0  0  0
    2.6917    1.1107    0.3947 H   0  0  0  0  0  0  0  0  0  0  0  0
    3.0161   -1.8874   -0.3715 H   0  0  0  0  0  0  0  0  0  0  0  0
    3.6096   -1.0130    1.0887 H   0  0  0  0  0  0  0  0  0  0  0  0
  1  2  1  0
  2  3  1  0
  3  4  1  0
  3  5  1  0
  5  6  1  0
  6  7  1  0
  7  8  1  0
  8  9  1  0
  9  6  1  0
  1 10  1  0
  1 11  1  0
  1 12  1  0
  3 13  1  0
  4 14  1  0
  4 15  1  0
  4 16  1  0
  5 17  1  0
  5 18  1  0
  6 19  1  0
  7 20  1  0
  7 21  1  0
  8 22  1  0
  8 23  1  0
M  END
