
     RDKit          3D

 21 20  0  0  0  0  0  0  0  0999 V2000
    2.3604    0.5678   -0.5859 C   0  0  0  0  0  0  0  0  0  0  0  0
    1.3360    0.4818    0.3291 O   0  0  0  0  0  0  0  0  0  0  0  0
    0.4837   -0.5734    0.1363 C   0  0  0  0  0  0  0  0  0  0  0  0
    0.5302   -1.4308    1.3922 C   0  0  0  0  0  0  0  0  0  0  0  0
   -0.9550   -0.1310   -0.0328 C   0  0  0  0  0  0  0  0  0  0  0  0
   -1.3640    0.5884    1.1898 C   0  0  0  0  0  0  0  0  0  0  0  0
   -2.5394    0.7943    1.3774 O   0  0  0  0  0  0  0  0  0  0  0  0
   -1.1221    0.7478   -1.2568 C   0  0  0  0  0  0  0  0  0  0  0  0
   -2.4605    1.1053   -1.3355 O   0  0  0  0  0  0  0  0  0  0  0  0
    3.0130   -0.3367   -0.5818 H   0  0  0  0  0  0  0  0  0  0  0  0
    3.0042    1.4317   -0.2718 H   0  0  0  0  0  0  0  0  0  0  0  0
    2.0329    0.7978   -1.6142 H   0  0  0  0  0  0  0  0  0  0  0  0
    0.7521   -1.2127   -0.7455 H   0  0  0  0  0  0  0  0  0  0  0  0
    1.1968   -2.2939    1.2781 H   0  0  0  0  0  0  0  0  0  0  0  0
    0.8519   -0.8003    2.2690 H   0  0  0  0  0  0  0  0  0  0  0  0
   -0.4876   -1.7944    1.6674 H   0  0  0  0  0  0  0  0  0  0  0  0
   -1.6331   -1.0009   -0.1460 H   0  0  0  0  0  0  0  0  0  0  0  0
   -0.6413    0.9272    1.9059 H   0  0  0  0  0  0  0  0  0  0  0  0
   -0.8838    0.1615   -2.1607 H   0  0  0  0  0  0  0  0  0  0  0  0
   -0.4736    1.6203   -1.1340 H   0  0  0  0  0  0  0  0  0  0  0  0
   -3.0010    0.3501   -1.6801 H   0  0  0  0  0  0  0  0  0  0  0  0
  1  2  1  0
  2  3  1  0
  3  4  1  0
  3  5  1  0
  5  6  1  0
  6  7  2  0
  5  8  1  0
  8  9  1  0
  1 10  1  0
  1 11  1  0
  1 12  1  0
  3 13  1  0
  4 14  1  0
  4 15  1  0
  4 16  1  0
  5 17  1  0
  6 18  1  0
  8 19  1  0
  8 20  1  0
  9 21  1  0
M  END
