
     RDKit          3D

 15 15  0  0  0  0  0  0  0  0999 V2000
    2.8308   -0.2171    0.4330 C   0  0  0  0  0  0  0  0  0  0  0  0
    1.5166    0.1505    0.8060 O   0  0  0  0  0  0  0  0  0  0  0  0
    0.3931   -0.1307    0.0563 C   0  0  0  0  0  0  0  0  0  0  0  0
    0.5481   -0.7481   -1.0177 O   0  0  0  0  0  0  0  0  0  0  0  0
   -0.9807    0.2719    0.4787 C   0  0  0  0  0  0  0  0  0  0  0  0
   -1.8091    0.8572   -0.6177 C   0  0  0  0  0  0  0  0  0  0  0  0
   -2.1168   -0.5110   -0.0347 C   0  0  0  0  0  0  0  0  0  0  0  0
    3.5246    0.6679    0.4185 H   0  0  0  0  0  0  0  0  0  0  0  0
    2.8328   -0.7033   -0.5726 H   0  0  0  0  0  0  0  0  0  0  0  0
    3.2282   -0.9853    1.1545 H   0  0  0  0  0  0  0  0  0  0  0  0
   -1.0438    0.8174    1.4442 H   0  0  0  0  0  0  0  0  0  0  0  0
   -1.4787    0.8041   -1.6752 H   0  0  0  0  0  0  0  0  0  0  0  0
   -2.4686    1.7049   -0.4057 H   0  0  0  0  0  0  0  0  0  0  0  0
   -1.8927   -1.4163   -0.6346 H   0  0  0  0  0  0  0  0  0  0  0  0
   -3.0837   -0.5621    0.4860 H   0  0  0  0  0  0  0  0  0  0  0  0
  1  2  1  0
  2  3  1  0
  3  4  2  0
  3  5  1  0
  5  6  1  0
  6  7  1  0
  7  5  1  0
  1  8  1  0
  1  9  1  0
  1 10  1  0
  5 11  1  0
  6 12  1  0
  6 13  1  0
  7 14  1  0
  7 15  1  0
M  END
