
     RDKit          3D

 23 22  0  0  0  0  0  0  0  0999 V2000
    2.3848   -0.4477   -0.6196 C   0  0  0  0  0  0  0  0  0  0  0  0
    1.2423   -1.1415   -0.3477 O   0  0  0  0  0  0  0  0  0  0  0  0
    0.1785   -0.4077    0.1306 C   0  0  0  0  0  0  0  0  0  0  0  0
    0.4944    0.3049    1.4269 C   0  0  0  0  0  0  0  0  0  0  0  0
   -0.8992   -1.4450    0.4934 C   0  0  0  0  0  0  0  0  0  0  0  0
   -1.2591   -2.1772   -0.6316 O   0  0  0  0  0  0  0  0  0  0  0  0
   -0.3185    0.4999   -0.9395 C   0  0  0  0  0  0  0  0  0  0  0  0
   -1.4901    1.3468   -0.5073 C   0  0  0  0  0  0  0  0  0  0  0  0
   -1.1616    2.1666    0.5839 O   0  0  0  0  0  0  0  0  0  0  0  0
    2.8201    0.0852    0.2492 H   0  0  0  0  0  0  0  0  0  0  0  0
    3.1577   -1.2279   -0.8914 H   0  0  0  0  0  0  0  0  0  0  0  0
    2.2796    0.2045   -1.4795 H   0  0  0  0  0  0  0  0  0  0  0  0
    1.2078   -0.3371    1.9876 H   0  0  0  0  0  0  0  0  0  0  0  0
   -0.4670    0.4192    1.9708 H   0  0  0  0  0  0  0  0  0  0  0  0
    0.9846    1.2628    1.1986 H   0  0  0  0  0  0  0  0  0  0  0  0
   -1.7519   -0.9751    1.0020 H   0  0  0  0  0  0  0  0  0  0  0  0
   -0.3862   -2.1567    1.1870 H   0  0  0  0  0  0  0  0  0  0  0  0
   -2.1093   -2.6345   -0.4404 H   0  0  0  0  0  0  0  0  0  0  0  0
    0.4886    1.1344   -1.3327 H   0  0  0  0  0  0  0  0  0  0  0  0
   -0.6715   -0.1261   -1.7826 H   0  0  0  0  0  0  0  0  0  0  0  0
   -1.7940    2.0355   -1.3219 H   0  0  0  0  0  0  0  0  0  0  0  0
   -2.3469    0.7094   -0.2720 H   0  0  0  0  0  0  0  0  0  0  0  0
   -0.5832    2.9075    0.3363 H   0  0  0  0  0  0  0  0  0  0  0  0
  1  2  1  0
  2  3  1  0
  3  4  1  0
  3  5  1  0
  5  6  1  0
  3  7  1  0
  7  8  1  0
  8  9  1  0
  1 10  1  0
  1 11  1  0
  1 12  1  0
  4 13  1  0
  4 14  1  0
  4 15  1  0
  5 16  1  0
  5 17  1  0
  6 18  1  0
  7 19  1  0
  7 20  1  0
  8 21  1  0
  8 22  1  0
  9 23  1  0
M  END
