
     RDKit          3D

 19 18  0  0  0  0  0  0  0  0999 V2000
   -2.3820    1.4580    0.4166 C   0  0  0  0  0  0  0  0  0  0  0  0
   -1.6124    0.3897    0.8215 O   0  0  0  0  0  0  0  0  0  0  0  0
   -0.7082   -0.0122   -0.1368 C   0  0  0  0  0  0  0  0  0  0  0  0
   -0.9171   -1.4716   -0.5086 C   0  0  0  0  0  0  0  0  0  0  0  0
    0.6556    0.1044    0.4384 C   0  0  0  0  0  0  0  0  0  0  0  0
    0.8142    0.4979    1.5677 O   0  0  0  0  0  0  0  0  0  0  0  0
    1.8314   -0.2739   -0.4046 C   0  0  0  0  0  0  0  0  0  0  0  0
    3.0870   -0.0794    0.3685 C   0  0  0  0  0  0  0  0  0  0  0  0
    3.0376    0.3298    1.5034 O   0  0  0  0  0  0  0  0  0  0  0  0
   -2.9523    1.1593   -0.5006 H   0  0  0  0  0  0  0  0  0  0  0  0
   -1.7145    2.3118    0.2026 H   0  0  0  0  0  0  0  0  0  0  0  0
   -3.1079    1.6771    1.2370 H   0  0  0  0  0  0  0  0  0  0  0  0
   -0.7799    0.6117   -1.0557 H   0  0  0  0  0  0  0  0  0  0  0  0
   -1.9087   -1.5951   -1.0068 H   0  0  0  0  0  0  0  0  0  0  0  0
   -0.7935   -2.1007    0.3792 H   0  0  0  0  0  0  0  0  0  0  0  0
   -0.1485   -1.7181   -1.2652 H   0  0  0  0  0  0  0  0  0  0  0  0
    1.7696   -1.3498   -0.6762 H   0  0  0  0  0  0  0  0  0  0  0  0
    1.7979    0.3625   -1.3005 H   0  0  0  0  0  0  0  0  0  0  0  0
    4.0317   -0.3015   -0.0798 H   0  0  0  0  0  0  0  0  0  0  0  0
  1  2  1  0
  2  3  1  0
  3  4  1  0
  3  5  1  0
  5  6  2  0
  5  7  1  0
  7  8  1  0
  8  9  2  0
  1 10  1  0
  1 11  1  0
  1 12  1  0
  3 13  1  0
  4 14  1  0
  4 15  1  0
  4 16  1  0
  7 17  1  0
  7 18  1  0
  8 19  1  0
M  END
