
     RDKit          3D

 21 21  0  0  0  0  0  0  0  0999 V2000
   -2.4039    0.8993    1.0958 C   0  0  0  0  0  0  0  0  0  0  0  0
   -1.4407   -0.0997    0.9553 O   0  0  0  0  0  0  0  0  0  0  0  0
   -0.7744   -0.0061   -0.2643 C   0  0  0  0  0  0  0  0  0  0  0  0
   -1.0734   -1.2101   -1.0804 C   0  0  0  0  0  0  0  0  0  0  0  0
    0.6451    0.3060   -0.0139 C   0  0  0  0  0  0  0  0  0  0  0  0
    1.4454   -0.6420    0.7654 C   0  0  0  0  0  0  0  0  0  0  0  0
    2.5998   -0.8559   -0.0050 O   0  0  0  0  0  0  0  0  0  0  0  0
    2.6727    0.3479   -0.7033 C   0  0  0  0  0  0  0  0  0  0  0  0
    1.3607    0.4103   -1.2248 O   0  0  0  0  0  0  0  0  0  0  0  0
   -2.8948    0.7699    2.0811 H   0  0  0  0  0  0  0  0  0  0  0  0
   -1.9151    1.8977    1.1128 H   0  0  0  0  0  0  0  0  0  0  0  0
   -3.1396    0.8831    0.2813 H   0  0  0  0  0  0  0  0  0  0  0  0
   -1.2100    0.8687   -0.8058 H   0  0  0  0  0  0  0  0  0  0  0  0
   -0.7717   -1.1040   -2.1488 H   0  0  0  0  0  0  0  0  0  0  0  0
   -0.6523   -2.1546   -0.7067 H   0  0  0  0  0  0  0  0  0  0  0  0
   -2.1762   -1.3463   -1.0981 H   0  0  0  0  0  0  0  0  0  0  0  0
    0.7083    1.3140    0.4483 H   0  0  0  0  0  0  0  0  0  0  0  0
    1.8270   -0.2250    1.7352 H   0  0  0  0  0  0  0  0  0  0  0  0
    0.9857   -1.6077    1.0055 H   0  0  0  0  0  0  0  0  0  0  0  0
    3.4355    0.3693   -1.4760 H   0  0  0  0  0  0  0  0  0  0  0  0
    2.7721    1.1854    0.0464 H   0  0  0  0  0  0  0  0  0  0  0  0
  1  2  1  0
  2  3  1  0
  3  4  1  0
  3  5  1  0
  5  6  1  0
  6  7  1  0
  7  8  1  0
  8  9  1  0
  9  5  1  0
  1 10  1  0
  1 11  1  0
  1 12  1  0
  3 13  1  0
  4 14  1  0
  4 15  1  0
  4 16  1  0
  5 17  1  0
  6 18  1  0
  6 19  1  0
  8 20  1  0
  8 21  1  0
M  END
