
     RDKit          3D

 19 19  0  0  0  0  0  0  0  0999 V2000
    3.4730    0.0756   -0.2117 C   0  0  0  0  0  0  0  0  0  0  0  0
    2.1282    0.2609   -0.5938 O   0  0  0  0  0  0  0  0  0  0  0  0
    1.1217   -0.5313   -0.1125 C   0  0  0  0  0  0  0  0  0  0  0  0
    1.4285   -1.4457    0.6935 O   0  0  0  0  0  0  0  0  0  0  0  0
   -0.3060   -0.3884   -0.4738 C   0  0  0  0  0  0  0  0  0  0  0  0
   -0.8563    0.9677   -0.0775 C   0  0  0  0  0  0  0  0  0  0  0  0
   -2.3513    0.6328   -0.1444 C   0  0  0  0  0  0  0  0  0  0  0  0
   -2.3104   -0.7590    0.4532 C   0  0  0  0  0  0  0  0  0  0  0  0
   -1.0947   -1.3108    0.1522 O   0  0  0  0  0  0  0  0  0  0  0  0
    3.6927   -0.9866    0.0538 H   0  0  0  0  0  0  0  0  0  0  0  0
    4.1832    0.4237   -0.9939 H   0  0  0  0  0  0  0  0  0  0  0  0
    3.6420    0.6639    0.7141 H   0  0  0  0  0  0  0  0  0  0  0  0
   -0.4511   -0.4515   -1.5923 H   0  0  0  0  0  0  0  0  0  0  0  0
   -0.5732    1.7660   -0.7517 H   0  0  0  0  0  0  0  0  0  0  0  0
   -0.6292    1.1983    0.9944 H   0  0  0  0  0  0  0  0  0  0  0  0
   -2.6219    0.5325   -1.2082 H   0  0  0  0  0  0  0  0  0  0  0  0
   -2.9620    1.3320    0.4171 H   0  0  0  0  0  0  0  0  0  0  0  0
   -2.3311   -0.6034    1.5715 H   0  0  0  0  0  0  0  0  0  0  0  0
   -3.1821   -1.3767    0.1292 H   0  0  0  0  0  0  0  0  0  0  0  0
  1  2  1  0
  2  3  1  0
  3  4  2  0
  3  5  1  0
  5  6  1  0
  6  7  1  0
  7  8  1  0
  8  9  1  0
  9  5  1  0
  1 10  1  0
  1 11  1  0
  1 12  1  0
  5 13  1  0
  6 14  1  0
  6 15  1  0
  7 16  1  0
  7 17  1  0
  8 18  1  0
  8 19  1  0
M  END
