
     RDKit          3D

 14 13  0  0  0  0  0  0  0  0999 V2000
   -2.5366   -0.2724    0.3226 C   0  0  0  0  0  0  0  0  0  0  0  0
   -1.3901   -0.8881   -0.2338 O   0  0  0  0  0  0  0  0  0  0  0  0
   -0.2221   -0.1031   -0.3091 C   0  0  0  0  0  0  0  0  0  0  0  0
   -0.2719    1.0795    0.1173 O   0  0  0  0  0  0  0  0  0  0  0  0
    1.0334   -0.6051   -0.8584 C   0  0  0  0  0  0  0  0  0  0  0  0
    2.0262    0.3955   -0.7874 O   0  0  0  0  0  0  0  0  0  0  0  0
    2.4237    0.9247    0.4309 C   0  0  0  0  0  0  0  0  0  0  0  0
    1.8839    0.4959    1.4814 O   0  0  0  0  0  0  0  0  0  0  0  0
   -3.4754   -0.7693   -0.0263 H   0  0  0  0  0  0  0  0  0  0  0  0
   -2.4853   -0.3181    1.4406 H   0  0  0  0  0  0  0  0  0  0  0  0
   -2.5159    0.7912    0.0390 H   0  0  0  0  0  0  0  0  0  0  0  0
    0.9484   -1.0038   -1.8917 H   0  0  0  0  0  0  0  0  0  0  0  0
    1.3828   -1.4331   -0.1968 H   0  0  0  0  0  0  0  0  0  0  0  0
    3.1987    1.7062    0.4716 H   0  0  0  0  0  0  0  0  0  0  0  0
  1  2  1  0
  2  3  1  0
  3  4  2  0
  3  5  1  0
  5  6  1  0
  6  7  1  0
  7  8  2  0
  1  9  1  0
  1 10  1  0
  1 11  1  0
  5 12  1  0
  5 13  1  0
  7 14  1  0
M  END
