
     RDKit          3D

 19 18  0  0  0  0  0  0  0  0999 V2000
    2.1571    0.3617    0.0163 C   0  0  0  0  0  0  0  0  0  0  0  0
    0.9147    0.8712    0.3193 O   0  0  0  0  0  0  0  0  0  0  0  0
   -0.1414    0.1088   -0.0907 C   0  0  0  0  0  0  0  0  0  0  0  0
   -0.1636   -1.2804    0.5032 C   0  0  0  0  0  0  0  0  0  0  0  0
   -0.2942   -0.0027   -1.5753 C   0  0  0  0  0  0  0  0  0  0  0  0
   -1.4034    0.8094    0.4404 C   0  0  0  0  0  0  0  0  0  0  0  0
   -1.2270    0.8202    1.8441 O   0  0  0  0  0  0  0  0  0  0  0  0
    2.9109    1.0937    0.4139 H   0  0  0  0  0  0  0  0  0  0  0  0
    2.3660    0.2447   -1.0498 H   0  0  0  0  0  0  0  0  0  0  0  0
    2.3873   -0.5926    0.5656 H   0  0  0  0  0  0  0  0  0  0  0  0
   -0.0013   -2.0476   -0.3084 H   0  0  0  0  0  0  0  0  0  0  0  0
   -1.1472   -1.5433    0.9459 H   0  0  0  0  0  0  0  0  0  0  0  0
    0.5807   -1.3969    1.3107 H   0  0  0  0  0  0  0  0  0  0  0  0
    0.6493   -0.1652   -2.1163 H   0  0  0  0  0  0  0  0  0  0  0  0
   -0.9374   -0.9021   -1.7899 H   0  0  0  0  0  0  0  0  0  0  0  0
   -0.8851    0.8599   -1.9954 H   0  0  0  0  0  0  0  0  0  0  0  0
   -2.2721    0.1904    0.1879 H   0  0  0  0  0  0  0  0  0  0  0  0
   -1.4286    1.8332    0.0548 H   0  0  0  0  0  0  0  0  0  0  0  0
   -2.0648    0.7376    2.3237 H   0  0  0  0  0  0  0  0  0  0  0  0
  1  2  1  0
  2  3  1  0
  3  4  1  0
  3  5  1  0
  3  6  1  0
  6  7  1  0
  1  8  1  0
  1  9  1  0
  1 10  1  0
  4 11  1  0
  4 12  1  0
  4 13  1  0
  5 14  1  0
  5 15  1  0
  5 16  1  0
  6 17  1  0
  6 18  1  0
  7 19  1  0
M  END
