
     RDKit          3D

 19 19  0  0  0  0  0  0  0  0999 V2000
    2.2828    1.0816    0.3406 C   0  0  0  0  0  0  0  0  0  0  0  0
    1.4402    0.5511   -0.6449 O   0  0  0  0  0  0  0  0  0  0  0  0
    0.5380   -0.3592   -0.1020 C   0  0  0  0  0  0  0  0  0  0  0  0
    0.7434   -1.7208   -0.6927 C   0  0  0  0  0  0  0  0  0  0  0  0
   -0.8516    0.1661   -0.3855 C   0  0  0  0  0  0  0  0  0  0  0  0
   -1.1025    1.4206    0.1661 O   0  0  0  0  0  0  0  0  0  0  0  0
   -2.4189    1.0104    0.3715 C   0  0  0  0  0  0  0  0  0  0  0  0
   -1.9274   -0.3763    0.4456 C   0  0  0  0  0  0  0  0  0  0  0  0
   -2.2833   -1.3944    0.9534 O   0  0  0  0  0  0  0  0  0  0  0  0
    2.9925    1.8029   -0.1110 H   0  0  0  0  0  0  0  0  0  0  0  0
    1.6586    1.5445    1.1354 H   0  0  0  0  0  0  0  0  0  0  0  0
    2.8777    0.2244    0.7325 H   0  0  0  0  0  0  0  0  0  0  0  0
    0.7389   -0.4155    0.9861 H   0  0  0  0  0  0  0  0  0  0  0  0
    1.5979   -2.2388   -0.1898 H   0  0  0  0  0  0  0  0  0  0  0  0
   -0.1391   -2.3744   -0.5357 H   0  0  0  0  0  0  0  0  0  0  0  0
    0.8867   -1.6513   -1.7905 H   0  0  0  0  0  0  0  0  0  0  0  0
   -1.1366    0.1712   -1.4438 H   0  0  0  0  0  0  0  0  0  0  0  0
   -3.0213    1.1723   -0.5437 H   0  0  0  0  0  0  0  0  0  0  0  0
   -2.8762    1.3853    1.3087 H   0  0  0  0  0  0  0  0  0  0  0  0
  1  2  1  0
  2  3  1  0
  3  4  1  0
  3  5  1  0
  5  6  1  0
  6  7  1  0
  7  8  1  0
  8  9  2  0
  8  5  1  0
  1 10  1  0
  1 11  1  0
  1 12  1  0
  3 13  1  0
  4 14  1  0
  4 15  1  0
  4 16  1  0
  5 17  1  0
  7 18  1  0
  7 19  1  0
M  END
