
     RDKit          3D

 18 17  0  0  0  0  0  0  0  0999 V2000
    3.2276    0.6060    0.4945 C   0  0  0  0  0  0  0  0  0  0  0  0
    2.2609   -0.3763    0.1296 O   0  0  0  0  0  0  0  0  0  0  0  0
    0.9234   -0.0525   -0.0948 C   0  0  0  0  0  0  0  0  0  0  0  0
    0.6088    1.1474    0.0396 O   0  0  0  0  0  0  0  0  0  0  0  0
   -0.0887   -1.0414   -0.4702 C   0  0  0  0  0  0  0  0  0  0  0  0
   -1.4601   -0.4611   -0.5710 C   0  0  0  0  0  0  0  0  0  0  0  0
   -1.9929    0.1117    0.7142 C   0  0  0  0  0  0  0  0  0  0  0  0
   -3.2833    0.5976    0.4056 O   0  0  0  0  0  0  0  0  0  0  0  0
    4.0713    0.0852    1.0168 H   0  0  0  0  0  0  0  0  0  0  0  0
    2.8122    1.3876    1.1478 H   0  0  0  0  0  0  0  0  0  0  0  0
    3.5855    1.0687   -0.4607 H   0  0  0  0  0  0  0  0  0  0  0  0
   -0.0813   -1.8135    0.3572 H   0  0  0  0  0  0  0  0  0  0  0  0
    0.1832   -1.6290   -1.3734 H   0  0  0  0  0  0  0  0  0  0  0  0
   -2.1396   -1.2290   -1.0005 H   0  0  0  0  0  0  0  0  0  0  0  0
   -1.4997    0.3849   -1.3136 H   0  0  0  0  0  0  0  0  0  0  0  0
   -2.0835   -0.7214    1.4640 H   0  0  0  0  0  0  0  0  0  0  0  0
   -1.3519    0.8794    1.1206 H   0  0  0  0  0  0  0  0  0  0  0  0
   -3.6919    1.0558    1.1578 H   0  0  0  0  0  0  0  0  0  0  0  0
  1  2  1  0
  2  3  1  0
  3  4  2  0
  3  5  1  0
  5  6  1  0
  6  7  1  0
  7  8  1  0
  1  9  1  0
  1 10  1  0
  1 11  1  0
  5 12  1  0
  5 13  1  0
  6 14  1  0
  6 15  1  0
  7 16  1  0
  7 17  1  0
  8 18  1  0
M  END
