
     RDKit          3D

 20 20  0  0  0  0  0  0  0  0999 V2000
   -2.3521    0.1556   -0.9948 C   0  0  0  0  0  0  0  0  0  0  0  0
   -1.5267   -0.7214   -0.2827 O   0  0  0  0  0  0  0  0  0  0  0  0
   -0.5489    0.0333    0.3679 C   0  0  0  0  0  0  0  0  0  0  0  0
   -0.8224   -0.1363    1.8660 C   0  0  0  0  0  0  0  0  0  0  0  0
    0.8394   -0.4787    0.1239 C   0  0  0  0  0  0  0  0  0  0  0  0
    1.2827   -0.4996   -1.3324 C   0  0  0  0  0  0  0  0  0  0  0  0
    1.9319    0.4045   -0.3391 C   0  0  0  0  0  0  0  0  0  0  0  0
    3.2401    0.1377    0.0754 O   0  0  0  0  0  0  0  0  0  0  0  0
   -2.8507    0.8906   -0.3378 H   0  0  0  0  0  0  0  0  0  0  0  0
   -1.6706    0.7467   -1.6513 H   0  0  0  0  0  0  0  0  0  0  0  0
   -3.1273   -0.3583   -1.5661 H   0  0  0  0  0  0  0  0  0  0  0  0
   -0.6737    1.1105    0.1586 H   0  0  0  0  0  0  0  0  0  0  0  0
   -0.1746    0.5661    2.3962 H   0  0  0  0  0  0  0  0  0  0  0  0
   -1.8848   -0.0716    2.1034 H   0  0  0  0  0  0  0  0  0  0  0  0
   -0.4684   -1.1785    2.1000 H   0  0  0  0  0  0  0  0  0  0  0  0
    1.1778   -1.3362    0.7648 H   0  0  0  0  0  0  0  0  0  0  0  0
    0.6375   -0.0727   -2.1045 H   0  0  0  0  0  0  0  0  0  0  0  0
    1.7962   -1.4495   -1.6510 H   0  0  0  0  0  0  0  0  0  0  0  0
    1.7682    1.4913   -0.5295 H   0  0  0  0  0  0  0  0  0  0  0  0
    3.4264    0.7666    0.8330 H   0  0  0  0  0  0  0  0  0  0  0  0
  1  2  1  0
  2  3  1  0
  3  4  1  0
  3  5  1  0
  5  6  1  0
  6  7  1  0
  7  8  1  0
  7  5  1  0
  1  9  1  0
  1 10  1  0
  1 11  1  0
  3 12  1  0
  4 13  1  0
  4 14  1  0
  4 15  1  0
  5 16  1  0
  6 17  1  0
  6 18  1  0
  7 19  1  0
  8 20  1  0
M  END
