
     RDKit          3D

 23 23  0  0  0  0  0  0  0  0999 V2000
   -2.3326    1.2475   -0.3355 C   0  0  0  0  0  0  0  0  0  0  0  0
   -1.0104    1.1432    0.0248 O   0  0  0  0  0  0  0  0  0  0  0  0
   -0.4403   -0.0854   -0.1965 C   0  0  0  0  0  0  0  0  0  0  0  0
   -0.4726   -0.4902   -1.6477 C   0  0  0  0  0  0  0  0  0  0  0  0
   -1.1842   -1.1502    0.5885 C   0  0  0  0  0  0  0  0  0  0  0  0
    0.9633   -0.0315    0.3546 C   0  0  0  0  0  0  0  0  0  0  0  0
    1.8189    1.0335   -0.3047 C   0  0  0  0  0  0  0  0  0  0  0  0
    2.1388   -0.4836   -0.3694 C   0  0  0  0  0  0  0  0  0  0  0  0
    3.2550   -0.8543    0.4075 O   0  0  0  0  0  0  0  0  0  0  0  0
   -3.0080    0.5476    0.1922 H   0  0  0  0  0  0  0  0  0  0  0  0
   -2.6684    2.2728   -0.0718 H   0  0  0  0  0  0  0  0  0  0  0  0
   -2.4961    1.1567   -1.4373 H   0  0  0  0  0  0  0  0  0  0  0  0
   -1.4879   -0.8335   -1.9200 H   0  0  0  0  0  0  0  0  0  0  0  0
   -0.2634    0.3811   -2.3269 H   0  0  0  0  0  0  0  0  0  0  0  0
    0.2383   -1.2659   -1.9086 H   0  0  0  0  0  0  0  0  0  0  0  0
   -1.8930   -0.7415    1.3128 H   0  0  0  0  0  0  0  0  0  0  0  0
   -0.4823   -1.8033    1.1475 H   0  0  0  0  0  0  0  0  0  0  0  0
   -1.7626   -1.8320   -0.0926 H   0  0  0  0  0  0  0  0  0  0  0  0
    0.9839   -0.0836    1.4705 H   0  0  0  0  0  0  0  0  0  0  0  0
    2.4125    1.6425    0.3918 H   0  0  0  0  0  0  0  0  0  0  0  0
    1.4615    1.4974   -1.2545 H   0  0  0  0  0  0  0  0  0  0  0  0
    2.1700   -0.8827   -1.3763 H   0  0  0  0  0  0  0  0  0  0  0  0
    4.0595   -0.3848    0.0586 H   0  0  0  0  0  0  0  0  0  0  0  0
  1  2  1  0
  2  3  1  0
  3  4  1  0
  3  5  1  0
  3  6  1  0
  6  7  1  0
  7  8  1  0
  8  9  1  0
  8  6  1  0
  1 10  1  0
  1 11  1  0
  1 12  1  0
  4 13  1  0
  4 14  1  0
  4 15  1  0
  5 16  1  0
  5 17  1  0
  5 18  1  0
  6 19  1  0
  7 20  1  0
  7 21  1  0
  8 22  1  0
  9 23  1  0
M  END
