
     RDKit          3D

 19 18  0  0  0  0  0  0  0  0999 V2000
   -3.3337    0.8930   -0.6154 C   0  0  0  0  0  0  0  0  0  0  0  0
   -2.5347    0.0159    0.1886 O   0  0  0  0  0  0  0  0  0  0  0  0
   -1.1893   -0.1237   -0.1783 C   0  0  0  0  0  0  0  0  0  0  0  0
   -0.7307    0.4921   -1.1567 O   0  0  0  0  0  0  0  0  0  0  0  0
   -0.3425   -1.0156    0.6254 C   0  0  0  0  0  0  0  0  0  0  0  0
    1.0803   -1.0667    0.1542 C   0  0  0  0  0  0  0  0  0  0  0  0
    1.6793    0.2886    0.2345 C   0  0  0  0  0  0  0  0  0  0  0  0
    3.0997    0.4664   -0.2157 C   0  0  0  0  0  0  0  0  0  0  0  0
    1.0181    1.1982    0.6536 O   0  0  0  0  0  0  0  0  0  0  0  0
   -2.9488    1.9373   -0.5272 H   0  0  0  0  0  0  0  0  0  0  0  0
   -3.4149    0.5413   -1.6482 H   0  0  0  0  0  0  0  0  0  0  0  0
   -4.3404    0.8938   -0.1311 H   0  0  0  0  0  0  0  0  0  0  0  0
   -0.4211   -0.7500    1.6956 H   0  0  0  0  0  0  0  0  0  0  0  0
   -0.7912   -2.0491    0.5597 H   0  0  0  0  0  0  0  0  0  0  0  0
    1.6426   -1.7874    0.8030 H   0  0  0  0  0  0  0  0  0  0  0  0
    1.1692   -1.4006   -0.8922 H   0  0  0  0  0  0  0  0  0  0  0  0
    3.6657    1.1405    0.4595 H   0  0  0  0  0  0  0  0  0  0  0  0
    3.0493    0.8249   -1.2553 H   0  0  0  0  0  0  0  0  0  0  0  0
    3.6433   -0.4988   -0.2216 H   0  0  0  0  0  0  0  0  0  0  0  0
  1  2  1  0
  2  3  1  0
  3  4  2  0
  3  5  1  0
  5  6  1  0
  6  7  1  0
  7  8  1  0
  7  9  2  0
  1 10  1  0
  1 11  1  0
  1 12  1  0
  5 13  1  0
  5 14  1  0
  6 15  1  0
  6 16  1  0
  8 17  1  0
  8 18  1  0
  8 19  1  0
M  END
