
     RDKit          3D

 21 20  0  0  0  0  0  0  0  0999 V2000
   -2.5140    0.4768    0.7968 C   0  0  0  0  0  0  0  0  0  0  0  0
   -1.3244   -0.2407    0.8029 O   0  0  0  0  0  0  0  0  0  0  0  0
   -0.6653   -0.0607   -0.4025 C   0  0  0  0  0  0  0  0  0  0  0  0
   -0.6235   -1.4226   -1.0685 C   0  0  0  0  0  0  0  0  0  0  0  0
    0.7255    0.4694   -0.1320 C   0  0  0  0  0  0  0  0  0  0  0  0
    0.6513    1.8212    0.4744 C   0  0  0  0  0  0  0  0  0  0  0  0
    0.0649    2.7494   -0.0383 O   0  0  0  0  0  0  0  0  0  0  0  0
    1.4668   -0.3900    0.6499 O   0  0  0  0  0  0  0  0  0  0  0  0
    2.6049   -0.7593   -0.0550 C   0  0  0  0  0  0  0  0  0  0  0  0
   -3.1590    0.1223   -0.0295 H   0  0  0  0  0  0  0  0  0  0  0  0
   -2.9871    0.3192    1.7891 H   0  0  0  0  0  0  0  0  0  0  0  0
   -2.2984    1.5476    0.6250 H   0  0  0  0  0  0  0  0  0  0  0  0
   -1.1871    0.6077   -1.1116 H   0  0  0  0  0  0  0  0  0  0  0  0
    0.1439   -1.4884   -1.8469 H   0  0  0  0  0  0  0  0  0  0  0  0
   -0.4980   -2.2467   -0.3497 H   0  0  0  0  0  0  0  0  0  0  0  0
   -1.6133   -1.5657   -1.5530 H   0  0  0  0  0  0  0  0  0  0  0  0
    1.2665    0.6102   -1.1015 H   0  0  0  0  0  0  0  0  0  0  0  0
    1.1439    1.9867    1.4189 H   0  0  0  0  0  0  0  0  0  0  0  0
    3.2353   -1.4615    0.5523 H   0  0  0  0  0  0  0  0  0  0  0  0
    2.3832   -1.2536   -1.0124 H   0  0  0  0  0  0  0  0  0  0  0  0
    3.1838    0.1786   -0.2509 H   0  0  0  0  0  0  0  0  0  0  0  0
  1  2  1  0
  2  3  1  0
  3  4  1  0
  3  5  1  0
  5  6  1  0
  6  7  2  0
  5  8  1  0
  8  9  1  0
  1 10  1  0
  1 11  1  0
  1 12  1  0
  3 13  1  0
  4 14  1  0
  4 15  1  0
  4 16  1  0
  5 17  1  0
  6 18  1  0
  9 19  1  0
  9 20  1  0
  9 21  1  0
M  END
