
     RDKit          3D

 21 22  0  0  0  0  0  0  0  0999 V2000
    2.4272   -0.9357    0.5241 C   0  0  0  0  0  0  0  0  0  0  0  0
    1.3151   -0.1413    0.7922 O   0  0  0  0  0  0  0  0  0  0  0  0
    0.5772    0.1270   -0.3577 C   0  0  0  0  0  0  0  0  0  0  0  0
    0.6157    1.6229   -0.5694 C   0  0  0  0  0  0  0  0  0  0  0  0
   -0.8219   -0.3765   -0.1207 C   0  0  0  0  0  0  0  0  0  0  0  0
   -1.8684   -0.2352   -1.1802 C   0  0  0  0  0  0  0  0  0  0  0  0
   -2.7810    0.2242   -0.2160 O   0  0  0  0  0  0  0  0  0  0  0  0
   -1.7879    0.3536    0.7178 C   0  0  0  0  0  0  0  0  0  0  0  0
   -1.1795   -0.9190    1.2071 C   0  0  0  0  0  0  0  0  0  0  0  0
    2.0676   -1.8920    0.0946 H   0  0  0  0  0  0  0  0  0  0  0  0
    3.0135   -0.4001   -0.2572 H   0  0  0  0  0  0  0  0  0  0  0  0
    3.0657   -1.0724    1.4169 H   0  0  0  0  0  0  0  0  0  0  0  0
    1.0224   -0.3429   -1.2441 H   0  0  0  0  0  0  0  0  0  0  0  0
    0.4351    2.1799    0.3922 H   0  0  0  0  0  0  0  0  0  0  0  0
    1.6572    1.8872   -0.8645 H   0  0  0  0  0  0  0  0  0  0  0  0
   -0.1195    1.9700   -1.3070 H   0  0  0  0  0  0  0  0  0  0  0  0
   -1.7222    0.5413   -1.9356 H   0  0  0  0  0  0  0  0  0  0  0  0
   -2.1586   -1.2476   -1.5661 H   0  0  0  0  0  0  0  0  0  0  0  0
   -1.5627    1.3194    1.2014 H   0  0  0  0  0  0  0  0  0  0  0  0
   -1.7622   -1.8502    1.2541 H   0  0  0  0  0  0  0  0  0  0  0  0
   -0.4328   -0.8126    2.0181 H   0  0  0  0  0  0  0  0  0  0  0  0
  1  2  1  0
  2  3  1  0
  3  4  1  0
  3  5  1  0
  5  6  1  0
  6  7  1  0
  7  8  1  0
  8  9  1  0
  8  5  1  0
  9  5  1  0
  1 10  1  0
  1 11  1  0
  1 12  1  0
  3 13  1  0
  4 14  1  0
  4 15  1  0
  4 16  1  0
  6 17  1  0
  6 18  1  0
  8 19  1  0
  9 20  1  0
  9 21  1  0
M  END
