
     RDKit          3D

 21 21  0  0  0  0  0  0  0  0999 V2000
   -2.3805   -0.0147    1.4891 C   0  0  0  0  0  0  0  0  0  0  0  0
   -1.7130    0.8827    0.6598 O   0  0  0  0  0  0  0  0  0  0  0  0
   -0.9541    0.1903   -0.2434 C   0  0  0  0  0  0  0  0  0  0  0  0
   -1.3484    0.5579   -1.6826 C   0  0  0  0  0  0  0  0  0  0  0  0
    0.5272    0.4875   -0.1373 C   0  0  0  0  0  0  0  0  0  0  0  0
    1.1739   -0.2706   -1.0977 O   0  0  0  0  0  0  0  0  0  0  0  0
    2.3499   -0.7434   -0.5444 C   0  0  0  0  0  0  0  0  0  0  0  0
    2.3579   -0.2887    0.8754 C   0  0  0  0  0  0  0  0  0  0  0  0
    1.0515    0.1306    1.0937 O   0  0  0  0  0  0  0  0  0  0  0  0
   -3.0126    0.5222    2.2426 H   0  0  0  0  0  0  0  0  0  0  0  0
   -3.1007   -0.6496    0.8998 H   0  0  0  0  0  0  0  0  0  0  0  0
   -1.7043   -0.7304    1.9876 H   0  0  0  0  0  0  0  0  0  0  0  0
   -1.0707   -0.8946   -0.0769 H   0  0  0  0  0  0  0  0  0  0  0  0
   -2.4413    0.6611   -1.6779 H   0  0  0  0  0  0  0  0  0  0  0  0
   -0.9580   -0.2403   -2.3152 H   0  0  0  0  0  0  0  0  0  0  0  0
   -0.8759    1.5396   -1.8966 H   0  0  0  0  0  0  0  0  0  0  0  0
    0.7626    1.5537   -0.3388 H   0  0  0  0  0  0  0  0  0  0  0  0
    2.4650   -1.8332   -0.6156 H   0  0  0  0  0  0  0  0  0  0  0  0
    3.1909   -0.2936   -1.1230 H   0  0  0  0  0  0  0  0  0  0  0  0
    3.0670    0.5548    0.9635 H   0  0  0  0  0  0  0  0  0  0  0  0
    2.6134   -1.1214    1.5379 H   0  0  0  0  0  0  0  0  0  0  0  0
  1  2  1  0
  2  3  1  0
  3  4  1  0
  3  5  1  0
  5  6  1  0
  6  7  1  0
  7  8  1  0
  8  9  1  0
  9  5  1  0
  1 10  1  0
  1 11  1  0
  1 12  1  0
  3 13  1  0
  4 14  1  0
  4 15  1  0
  4 16  1  0
  5 17  1  0
  7 18  1  0
  7 19  1  0
  8 20  1  0
  8 21  1  0
M  END
