
     RDKit          3D

 17 16  0  0  0  0  0  0  0  0999 V2000
    3.1208    0.9745   -0.2367 C   0  0  0  0  0  0  0  0  0  0  0  0
    1.7811    0.5657   -0.1074 O   0  0  0  0  0  0  0  0  0  0  0  0
    1.4463   -0.7546    0.1793 C   0  0  0  0  0  0  0  0  0  0  0  0
    2.4037   -1.5571    0.3155 O   0  0  0  0  0  0  0  0  0  0  0  0
    0.0333   -1.2111    0.3210 C   0  0  0  0  0  0  0  0  0  0  0  0
   -0.8672   -0.1318    0.1251 O   0  0  0  0  0  0  0  0  0  0  0  0
   -2.2385   -0.3238    0.2101 C   0  0  0  0  0  0  0  0  0  0  0  0
   -3.1177    0.8391   -0.0039 C   0  0  0  0  0  0  0  0  0  0  0  0
   -2.7113   -1.4801    0.4670 O   0  0  0  0  0  0  0  0  0  0  0  0
    3.2939    1.2160   -1.3130 H   0  0  0  0  0  0  0  0  0  0  0  0
    3.3743    1.8612    0.3758 H   0  0  0  0  0  0  0  0  0  0  0  0
    3.8383    0.1654    0.0141 H   0  0  0  0  0  0  0  0  0  0  0  0
   -0.0757   -1.6294    1.3360 H   0  0  0  0  0  0  0  0  0  0  0  0
   -0.2171   -1.9859   -0.4253 H   0  0  0  0  0  0  0  0  0  0  0  0
   -4.0894    0.7501    0.5166 H   0  0  0  0  0  0  0  0  0  0  0  0
   -3.3722    0.9765   -1.0878 H   0  0  0  0  0  0  0  0  0  0  0  0
   -2.6025    1.7252    0.4057 H   0  0  0  0  0  0  0  0  0  0  0  0
  1  2  1  0
  2  3  1  0
  3  4  2  0
  3  5  1  0
  5  6  1  0
  6  7  1  0
  7  8  1  0
  7  9  2  0
  1 10  1  0
  1 11  1  0
  1 12  1  0
  5 13  1  0
  5 14  1  0
  8 15  1  0
  8 16  1  0
  8 17  1  0
M  END
