
     RDKit          3D

 21 20  0  0  0  0  0  0  0  0999 V2000
   -3.1716   -0.4154   -0.9362 C   0  0  0  0  0  0  0  0  0  0  0  0
   -2.0845   -1.0859   -0.4617 O   0  0  0  0  0  0  0  0  0  0  0  0
   -1.4315   -0.5674    0.5991 C   0  0  0  0  0  0  0  0  0  0  0  0
   -1.4059   -1.4209    1.8425 C   0  0  0  0  0  0  0  0  0  0  0  0
   -0.0320   -0.2322    0.3019 C   0  0  0  0  0  0  0  0  0  0  0  0
    1.1405    0.0471    0.0748 C   0  0  0  0  0  0  0  0  0  0  0  0
    2.5376    0.3584   -0.1801 C   0  0  0  0  0  0  0  0  0  0  0  0
    2.5720    1.7767   -0.7305 C   0  0  0  0  0  0  0  0  0  0  0  0
    3.3276    0.2374    0.9498 O   0  0  0  0  0  0  0  0  0  0  0  0
   -2.8365    0.6053   -1.2500 H   0  0  0  0  0  0  0  0  0  0  0  0
   -3.7154   -0.8702   -1.7431 H   0  0  0  0  0  0  0  0  0  0  0  0
   -3.8720   -0.2404   -0.0756 H   0  0  0  0  0  0  0  0  0  0  0  0
   -1.9429    0.3786    0.8994 H   0  0  0  0  0  0  0  0  0  0  0  0
   -0.6938   -0.8952    2.5295 H   0  0  0  0  0  0  0  0  0  0  0  0
   -0.9812   -2.4180    1.6739 H   0  0  0  0  0  0  0  0  0  0  0  0
   -2.3732   -1.4371    2.3818 H   0  0  0  0  0  0  0  0  0  0  0  0
    2.9836   -0.2839   -0.9672 H   0  0  0  0  0  0  0  0  0  0  0  0
    1.8590    1.8501   -1.5654 H   0  0  0  0  0  0  0  0  0  0  0  0
    2.2866    2.5278    0.0176 H   0  0  0  0  0  0  0  0  0  0  0  0
    3.5760    2.0127   -1.1166 H   0  0  0  0  0  0  0  0  0  0  0  0
    4.2578    0.0724    0.7245 H   0  0  0  0  0  0  0  0  0  0  0  0
  1  2  1  0
  2  3  1  0
  3  4  1  0
  3  5  1  0
  5  6  3  0
  6  7  1  0
  7  8  1  0
  7  9  1  0
  1 10  1  0
  1 11  1  0
  1 12  1  0
  3 13  1  0
  4 14  1  0
  4 15  1  0
  4 16  1  0
  7 17  1  0
  8 18  1  0
  8 19  1  0
  8 20  1  0
  9 21  1  0
M  END
