
     RDKit          3D

 24 23  0  0  0  0  0  0  0  0999 V2000
    2.6372    0.7266    0.3689 C   0  0  0  0  0  0  0  0  0  0  0  0
    1.3736    0.6799    0.8968 O   0  0  0  0  0  0  0  0  0  0  0  0
    0.5762   -0.3350    0.4879 C   0  0  0  0  0  0  0  0  0  0  0  0
    0.1218   -1.2731    1.5721 C   0  0  0  0  0  0  0  0  0  0  0  0
   -0.6520    0.1262   -0.2786 C   0  0  0  0  0  0  0  0  0  0  0  0
   -0.2617    0.8903   -1.5209 C   0  0  0  0  0  0  0  0  0  0  0  0
   -1.4458   -1.0827   -0.7267 C   0  0  0  0  0  0  0  0  0  0  0  0
   -1.5698    0.9478    0.6079 C   0  0  0  0  0  0  0  0  0  0  0  0
    3.1486    1.6187    0.8129 H   0  0  0  0  0  0  0  0  0  0  0  0
    3.2748   -0.1472    0.6853 H   0  0  0  0  0  0  0  0  0  0  0  0
    2.6948    0.8505   -0.7150 H   0  0  0  0  0  0  0  0  0  0  0  0
    1.1621   -0.9574   -0.2420 H   0  0  0  0  0  0  0  0  0  0  0  0
   -0.7078   -1.8870    1.1555 H   0  0  0  0  0  0  0  0  0  0  0  0
   -0.2875   -0.7595    2.4546 H   0  0  0  0  0  0  0  0  0  0  0  0
    0.9310   -2.0020    1.8222 H   0  0  0  0  0  0  0  0  0  0  0  0
    0.6647    0.4847   -1.9414 H   0  0  0  0  0  0  0  0  0  0  0  0
   -1.0382    0.7992   -2.3214 H   0  0  0  0  0  0  0  0  0  0  0  0
   -0.2246    1.9577   -1.2559 H   0  0  0  0  0  0  0  0  0  0  0  0
   -2.2792   -1.2792   -0.0190 H   0  0  0  0  0  0  0  0  0  0  0  0
   -0.8079   -1.9758   -0.8799 H   0  0  0  0  0  0  0  0  0  0  0  0
   -1.9352   -0.8855   -1.7167 H   0  0  0  0  0  0  0  0  0  0  0  0
   -2.2542    0.3219    1.2075 H   0  0  0  0  0  0  0  0  0  0  0  0
   -2.1683    1.5900   -0.0644 H   0  0  0  0  0  0  0  0  0  0  0  0
   -0.9526    1.5910    1.2717 H   0  0  0  0  0  0  0  0  0  0  0  0
  1  2  1  0
  2  3  1  0
  3  4  1  0
  3  5  1  0
  5  6  1  0
  5  7  1  0
  5  8  1  0
  1  9  1  0
  1 10  1  0
  1 11  1  0
  3 12  1  0
  4 13  1  0
  4 14  1  0
  4 15  1  0
  6 16  1  0
  6 17  1  0
  6 18  1  0
  7 19  1  0
  7 20  1  0
  7 21  1  0
  8 22  1  0
  8 23  1  0
  8 24  1  0
M  END
