
     RDKit          3D

 25 24  0  0  0  0  0  0  0  0999 V2000
   -2.6477    1.0570   -0.2739 C   0  0  0  0  0  0  0  0  0  0  0  0
   -2.0988   -0.1912   -0.3455 O   0  0  0  0  0  0  0  0  0  0  0  0
   -0.7794   -0.2674    0.1681 C   0  0  0  0  0  0  0  0  0  0  0  0
   -0.8778    0.1552    1.6084 C   0  0  0  0  0  0  0  0  0  0  0  0
   -0.4681   -1.7472    0.1188 C   0  0  0  0  0  0  0  0  0  0  0  0
    0.1402    0.5450   -0.6501 C   0  0  0  0  0  0  0  0  0  0  0  0
    1.5635    0.6316   -0.3084 C   0  0  0  0  0  0  0  0  0  0  0  0
    2.3699   -0.6152   -0.2889 C   0  0  0  0  0  0  0  0  0  0  0  0
    3.7119   -0.2813    0.0493 O   0  0  0  0  0  0  0  0  0  0  0  0
   -2.7015    1.4290    0.7835 H   0  0  0  0  0  0  0  0  0  0  0  0
   -2.2484    1.8126   -0.9454 H   0  0  0  0  0  0  0  0  0  0  0  0
   -3.7312    0.9312   -0.5784 H   0  0  0  0  0  0  0  0  0  0  0  0
   -0.1233   -0.3413    2.2577 H   0  0  0  0  0  0  0  0  0  0  0  0
   -0.7794    1.2396    1.7585 H   0  0  0  0  0  0  0  0  0  0  0  0
   -1.8709   -0.1396    2.0097 H   0  0  0  0  0  0  0  0  0  0  0  0
   -1.4227   -2.3307   -0.0118 H   0  0  0  0  0  0  0  0  0  0  0  0
    0.1755   -1.9865   -0.7557 H   0  0  0  0  0  0  0  0  0  0  0  0
   -0.0568   -2.1265    1.0723 H   0  0  0  0  0  0  0  0  0  0  0  0
    0.0673    0.2714   -1.7341 H   0  0  0  0  0  0  0  0  0  0  0  0
   -0.2627    1.6055   -0.6212 H   0  0  0  0  0  0  0  0  0  0  0  0
    2.0377    1.2797   -1.1124 H   0  0  0  0  0  0  0  0  0  0  0  0
    1.8009    1.1919    0.6215 H   0  0  0  0  0  0  0  0  0  0  0  0
    2.0937   -1.3470    0.4937 H   0  0  0  0  0  0  0  0  0  0  0  0
    2.4416   -1.1013   -1.2797 H   0  0  0  0  0  0  0  0  0  0  0  0
    3.6664    0.3253    0.8142 H   0  0  0  0  0  0  0  0  0  0  0  0
  1  2  1  0
  2  3  1  0
  3  4  1  0
  3  5  1  0
  3  6  1  0
  6  7  1  0
  7  8  1  0
  8  9  1  0
  1 10  1  0
  1 11  1  0
  1 12  1  0
  4 13  1  0
  4 14  1  0
  4 15  1  0
  5 16  1  0
  5 17  1  0
  5 18  1  0
  6 19  1  0
  6 20  1  0
  7 21  1  0
  7 22  1  0
  8 23  1  0
  8 24  1  0
  9 25  1  0
M  END
