
     RDKit          3D

 17 17  0  0  0  0  0  0  0  0999 V2000
   -1.8091   -0.9891    0.5985 C   0  0  0  0  0  0  0  0  0  0  0  0
   -0.5863   -0.3304    0.8624 O   0  0  0  0  0  0  0  0  0  0  0  0
   -0.2526    0.3512   -0.3071 C   0  0  0  0  0  0  0  0  0  0  0  0
   -0.1515    1.8298    0.0315 C   0  0  0  0  0  0  0  0  0  0  0  0
    1.1162   -0.0801   -0.7790 C   0  0  0  0  0  0  0  0  0  0  0  0
    1.8647   -0.9996    0.1327 C   0  0  0  0  0  0  0  0  0  0  0  0
    1.3330   -1.4135   -1.0878 O   0  0  0  0  0  0  0  0  0  0  0  0
   -1.6053   -1.6822   -0.2651 H   0  0  0  0  0  0  0  0  0  0  0  0
   -2.1433   -1.5962    1.4505 H   0  0  0  0  0  0  0  0  0  0  0  0
   -2.5885   -0.2690    0.3100 H   0  0  0  0  0  0  0  0  0  0  0  0
   -0.9939    0.2132   -1.1135 H   0  0  0  0  0  0  0  0  0  0  0  0
   -1.1321    2.2681    0.2050 H   0  0  0  0  0  0  0  0  0  0  0  0
    0.5366    1.9415    0.9153 H   0  0  0  0  0  0  0  0  0  0  0  0
    0.4100    2.2928   -0.8205 H   0  0  0  0  0  0  0  0  0  0  0  0
    1.6701    0.7058   -1.3406 H   0  0  0  0  0  0  0  0  0  0  0  0
    1.3743   -1.4338    1.0041 H   0  0  0  0  0  0  0  0  0  0  0  0
    2.9579   -0.8084    0.2037 H   0  0  0  0  0  0  0  0  0  0  0  0
  1  2  1  0
  2  3  1  0
  3  4  1  0
  3  5  1  0
  5  6  1  0
  6  7  1  0
  7  5  1  0
  1  8  1  0
  1  9  1  0
  1 10  1  0
  3 11  1  0
  4 12  1  0
  4 13  1  0
  4 14  1  0
  5 15  1  0
  6 16  1  0
  6 17  1  0
M  END
