
     RDKit          3D

 17 17  0  0  0  0  0  0  0  0999 V2000
   -3.0577    0.3107    0.6504 C   0  0  0  0  0  0  0  0  0  0  0  0
   -1.9039   -0.2565    0.1007 O   0  0  0  0  0  0  0  0  0  0  0  0
   -0.6697    0.3747    0.0517 C   0  0  0  0  0  0  0  0  0  0  0  0
   -0.6117    1.5309    0.5398 O   0  0  0  0  0  0  0  0  0  0  0  0
    0.5329   -0.2238   -0.5244 C   0  0  0  0  0  0  0  0  0  0  0  0
    1.7370    0.6795   -0.4472 C   0  0  0  0  0  0  0  0  0  0  0  0
    2.5548   -0.5738   -0.2435 C   0  0  0  0  0  0  0  0  0  0  0  0
    3.6693   -0.9733   -0.4965 O   0  0  0  0  0  0  0  0  0  0  0  0
    1.3220   -1.1207    0.4371 C   0  0  0  0  0  0  0  0  0  0  0  0
   -2.9705    1.4132    0.7492 H   0  0  0  0  0  0  0  0  0  0  0  0
   -3.3510   -0.1061    1.6155 H   0  0  0  0  0  0  0  0  0  0  0  0
   -3.9126    0.1348   -0.0575 H   0  0  0  0  0  0  0  0  0  0  0  0
    0.4208   -0.7082   -1.5117 H   0  0  0  0  0  0  0  0  0  0  0  0
    1.7345    1.2348    0.5120 H   0  0  0  0  0  0  0  0  0  0  0  0
    1.9920    1.2419   -1.3414 H   0  0  0  0  0  0  0  0  0  0  0  0
    1.2859   -0.7674    1.4763 H   0  0  0  0  0  0  0  0  0  0  0  0
    1.2278   -2.1906    0.2546 H   0  0  0  0  0  0  0  0  0  0  0  0
  1  2  1  0
  2  3  1  0
  3  4  2  0
  3  5  1  0
  5  6  1  0
  6  7  1  0
  7  8  2  0
  7  9  1  0
  9  5  1  0
  1 10  1  0
  1 11  1  0
  1 12  1  0
  5 13  1  0
  6 14  1  0
  6 15  1  0
  9 16  1  0
  9 17  1  0
M  END
