
     RDKit          3D

 22 21  0  0  0  0  0  0  0  0999 V2000
   -2.7986    1.3533    0.1496 C   0  0  0  0  0  0  0  0  0  0  0  0
   -2.1190    0.2322    0.5998 O   0  0  0  0  0  0  0  0  0  0  0  0
   -1.0058   -0.0728   -0.1705 C   0  0  0  0  0  0  0  0  0  0  0  0
   -1.1712   -1.4218   -0.8014 C   0  0  0  0  0  0  0  0  0  0  0  0
    0.2838    0.0275    0.6144 C   0  0  0  0  0  0  0  0  0  0  0  0
    1.4027   -0.3251   -0.3304 C   0  0  0  0  0  0  0  0  0  0  0  0
    2.7577   -0.2626    0.3361 C   0  0  0  0  0  0  0  0  0  0  0  0
    2.9529    1.0218    0.7928 O   0  0  0  0  0  0  0  0  0  0  0  0
   -3.6609    1.5022    0.8322 H   0  0  0  0  0  0  0  0  0  0  0  0
   -3.2308    1.1730   -0.8639 H   0  0  0  0  0  0  0  0  0  0  0  0
   -2.1972    2.2680    0.1737 H   0  0  0  0  0  0  0  0  0  0  0  0
   -0.9539    0.6918   -0.9735 H   0  0  0  0  0  0  0  0  0  0  0  0
   -0.4864   -2.1947   -0.3807 H   0  0  0  0  0  0  0  0  0  0  0  0
   -0.9612   -1.3682   -1.8893 H   0  0  0  0  0  0  0  0  0  0  0  0
   -2.2187   -1.7926   -0.6918 H   0  0  0  0  0  0  0  0  0  0  0  0
    0.4089    1.0990    0.8779 H   0  0  0  0  0  0  0  0  0  0  0  0
    0.2686   -0.5964    1.5240 H   0  0  0  0  0  0  0  0  0  0  0  0
    1.3653    0.4408   -1.1555 H   0  0  0  0  0  0  0  0  0  0  0  0
    1.2921   -1.2963   -0.8170 H   0  0  0  0  0  0  0  0  0  0  0  0
    3.5512   -0.5152   -0.3919 H   0  0  0  0  0  0  0  0  0  0  0  0
    2.7976   -0.9990    1.1574 H   0  0  0  0  0  0  0  0  0  0  0  0
    3.7229    1.0349    1.4081 H   0  0  0  0  0  0  0  0  0  0  0  0
  1  2  1  0
  2  3  1  0
  3  4  1  0
  3  5  1  0
  5  6  1  0
  6  7  1  0
  7  8  1  0
  1  9  1  0
  1 10  1  0
  1 11  1  0
  3 12  1  0
  4 13  1  0
  4 14  1  0
  4 15  1  0
  5 16  1  0
  5 17  1  0
  6 18  1  0
  6 19  1  0
  7 20  1  0
  7 21  1  0
  8 22  1  0
M  END
