
     RDKit          3D

 19 18  0  0  0  0  0  0  0  0999 V2000
    3.5222    0.5507    0.2306 C   0  0  0  0  0  0  0  0  0  0  0  0
    2.1162    0.3606    0.1121 O   0  0  0  0  0  0  0  0  0  0  0  0
    1.5912   -0.8904   -0.1168 C   0  0  0  0  0  0  0  0  0  0  0  0
    2.3745   -1.8709   -0.2207 O   0  0  0  0  0  0  0  0  0  0  0  0
    0.1454   -1.1674   -0.2514 C   0  0  0  0  0  0  0  0  0  0  0  0
   -0.6248   -0.0168   -0.1199 O   0  0  0  0  0  0  0  0  0  0  0  0
   -1.9636   -0.3735   -0.2602 C   0  0  0  0  0  0  0  0  0  0  0  0
   -2.8156    0.8788   -0.1180 C   0  0  0  0  0  0  0  0  0  0  0  0
   -2.6463    1.4843    1.1112 O   0  0  0  0  0  0  0  0  0  0  0  0
    3.9762   -0.2097    0.9024 H   0  0  0  0  0  0  0  0  0  0  0  0
    4.0206    0.5631   -0.7486 H   0  0  0  0  0  0  0  0  0  0  0  0
    3.6636    1.5667    0.6832 H   0  0  0  0  0  0  0  0  0  0  0  0
   -0.0170   -1.6725   -1.2363 H   0  0  0  0  0  0  0  0  0  0  0  0
   -0.1564   -1.8806    0.5240 H   0  0  0  0  0  0  0  0  0  0  0  0
   -2.2981   -1.1076    0.4975 H   0  0  0  0  0  0  0  0  0  0  0  0
   -2.1540   -0.7526   -1.2908 H   0  0  0  0  0  0  0  0  0  0  0  0
   -3.8604    0.5685   -0.2968 H   0  0  0  0  0  0  0  0  0  0  0  0
   -2.5278    1.5452   -0.9602 H   0  0  0  0  0  0  0  0  0  0  0  0
   -2.3458    2.4242    1.0133 H   0  0  0  0  0  0  0  0  0  0  0  0
  1  2  1  0
  2  3  1  0
  3  4  2  0
  3  5  1  0
  5  6  1  0
  6  7  1  0
  7  8  1  0
  8  9  1  0
  1 10  1  0
  1 11  1  0
  1 12  1  0
  5 13  1  0
  5 14  1  0
  7 15  1  0
  7 16  1  0
  8 17  1  0
  8 18  1  0
  9 19  1  0
M  END
