
     RDKit          3D

 17 16  0  0  0  0  0  0  0  0999 V2000
    3.7190    0.1526   -0.0681 C   0  0  0  0  0  0  0  0  0  0  0  0
    2.5632    0.5157   -0.8060 O   0  0  0  0  0  0  0  0  0  0  0  0
    1.2939    0.1904   -0.3107 C   0  0  0  0  0  0  0  0  0  0  0  0
    1.2339   -0.4116    0.7705 O   0  0  0  0  0  0  0  0  0  0  0  0
    0.1406    0.5980   -1.1287 C   0  0  0  0  0  0  0  0  0  0  0  0
   -1.1006    0.1776   -0.4597 C   0  0  0  0  0  0  0  0  0  0  0  0
   -2.1314   -0.1587    0.0756 C   0  0  0  0  0  0  0  0  0  0  0  0
   -3.3696   -0.5721    0.7464 C   0  0  0  0  0  0  0  0  0  0  0  0
   -3.1102   -0.8439    2.0915 O   0  0  0  0  0  0  0  0  0  0  0  0
    3.6622   -0.9075    0.1980 H   0  0  0  0  0  0  0  0  0  0  0  0
    3.8402    0.8178    0.8278 H   0  0  0  0  0  0  0  0  0  0  0  0
    4.6148    0.3285   -0.7053 H   0  0  0  0  0  0  0  0  0  0  0  0
    0.1626    1.6938   -1.2977 H   0  0  0  0  0  0  0  0  0  0  0  0
    0.2356    0.1092   -2.1366 H   0  0  0  0  0  0  0  0  0  0  0  0
   -3.8236   -1.4634    0.2373 H   0  0  0  0  0  0  0  0  0  0  0  0
   -4.0958    0.2903    0.6811 H   0  0  0  0  0  0  0  0  0  0  0  0
   -3.8348   -0.5167    2.6757 H   0  0  0  0  0  0  0  0  0  0  0  0
  1  2  1  0
  2  3  1  0
  3  4  2  0
  3  5  1  0
  5  6  1  0
  6  7  3  0
  7  8  1  0
  8  9  1  0
  1 10  1  0
  1 11  1  0
  1 12  1  0
  5 13  1  0
  5 14  1  0
  8 15  1  0
  8 16  1  0
  9 17  1  0
M  END
