
     RDKit          3D

 21 21  0  0  0  0  0  0  0  0999 V2000
   -1.3653   -1.7939    0.9277 C   0  0  0  0  0  0  0  0  0  0  0  0
   -0.2414   -0.9787    1.0112 O   0  0  0  0  0  0  0  0  0  0  0  0
    0.0948   -0.4456   -0.2464 C   0  0  0  0  0  0  0  0  0  0  0  0
    0.0469    1.0578   -0.0933 C   0  0  0  0  0  0  0  0  0  0  0  0
   -1.3340    1.5191    0.3225 C   0  0  0  0  0  0  0  0  0  0  0  0
   -1.4212    2.8783    0.4729 O   0  0  0  0  0  0  0  0  0  0  0  0
    1.4560   -0.9605   -0.5859 C   0  0  0  0  0  0  0  0  0  0  0  0
    2.6702   -0.2076   -0.5166 C   0  0  0  0  0  0  0  0  0  0  0  0
    2.0414   -0.5762   -1.8093 O   0  0  0  0  0  0  0  0  0  0  0  0
   -1.5577   -2.1683    1.9545 H   0  0  0  0  0  0  0  0  0  0  0  0
   -2.2368   -1.3002    0.4779 H   0  0  0  0  0  0  0  0  0  0  0  0
   -1.1440   -2.6980    0.3148 H   0  0  0  0  0  0  0  0  0  0  0  0
   -0.6026   -0.7843   -1.0399 H   0  0  0  0  0  0  0  0  0  0  0  0
    0.2506    1.5194   -1.0953 H   0  0  0  0  0  0  0  0  0  0  0  0
    0.7737    1.4514    0.6033 H   0  0  0  0  0  0  0  0  0  0  0  0
   -2.1300    1.1283   -0.3481 H   0  0  0  0  0  0  0  0  0  0  0  0
   -1.5283    1.0342    1.3213 H   0  0  0  0  0  0  0  0  0  0  0  0
   -1.7187    3.2743   -0.3864 H   0  0  0  0  0  0  0  0  0  0  0  0
    1.5419   -2.0763   -0.4455 H   0  0  0  0  0  0  0  0  0  0  0  0
    3.6368   -0.7456   -0.3623 H   0  0  0  0  0  0  0  0  0  0  0  0
    2.7677    0.8724   -0.4772 H   0  0  0  0  0  0  0  0  0  0  0  0
  1  2  1  0
  2  3  1  0
  3  4  1  0
  4  5  1  0
  5  6  1  0
  3  7  1  0
  7  8  1  0
  8  9  1  0
  9  7  1  0
  1 10  1  0
  1 11  1  0
  1 12  1  0
  3 13  1  0
  4 14  1  0
  4 15  1  0
  5 16  1  0
  5 17  1  0
  6 18  1  0
  7 19  1  0
  8 20  1  0
  8 21  1  0
M  END
