
     RDKit          3D

 23 23  0  0  0  0  0  0  0  0999 V2000
    1.8232   -1.6666    0.0552 C   0  0  0  0  0  0  0  0  0  0  0  0
    1.1011   -0.6128   -0.4873 O   0  0  0  0  0  0  0  0  0  0  0  0
    0.6884    0.3070    0.4351 C   0  0  0  0  0  0  0  0  0  0  0  0
    1.3156    1.6820    0.2104 C   0  0  0  0  0  0  0  0  0  0  0  0
    0.9309    2.0983   -1.0590 O   0  0  0  0  0  0  0  0  0  0  0  0
   -0.7896    0.4859    0.4721 C   0  0  0  0  0  0  0  0  0  0  0  0
   -1.5549   -0.7656    0.8091 C   0  0  0  0  0  0  0  0  0  0  0  0
   -1.6770   -1.0447   -0.6660 C   0  0  0  0  0  0  0  0  0  0  0  0
   -1.4655    0.4412   -0.9063 C   0  0  0  0  0  0  0  0  0  0  0  0
    2.1267   -2.3714   -0.7341 H   0  0  0  0  0  0  0  0  0  0  0  0
    1.1502   -2.2242    0.7369 H   0  0  0  0  0  0  0  0  0  0  0  0
    2.7410   -1.3403    0.5788 H   0  0  0  0  0  0  0  0  0  0  0  0
    1.0306    0.0032    1.4616 H   0  0  0  0  0  0  0  0  0  0  0  0
    2.4229    1.6364    0.3227 H   0  0  0  0  0  0  0  0  0  0  0  0
    0.9326    2.3436    1.0114 H   0  0  0  0  0  0  0  0  0  0  0  0
    0.7729    3.0594   -1.1158 H   0  0  0  0  0  0  0  0  0  0  0  0
   -1.1305    1.3958    1.0011 H   0  0  0  0  0  0  0  0  0  0  0  0
   -1.0406   -1.5179    1.4104 H   0  0  0  0  0  0  0  0  0  0  0  0
   -2.5607   -0.5030    1.2172 H   0  0  0  0  0  0  0  0  0  0  0  0
   -2.6794   -1.4114   -0.9608 H   0  0  0  0  0  0  0  0  0  0  0  0
   -0.8935   -1.6536   -1.1201 H   0  0  0  0  0  0  0  0  0  0  0  0
   -2.4388    0.9682   -0.9337 H   0  0  0  0  0  0  0  0  0  0  0  0
   -0.8059    0.6903   -1.7389 H   0  0  0  0  0  0  0  0  0  0  0  0
  1  2  1  0
  2  3  1  0
  3  4  1  0
  4  5  1  0
  3  6  1  0
  6  7  1  0
  7  8  1  0
  8  9  1  0
  9  6  1  0
  1 10  1  0
  1 11  1  0
  1 12  1  0
  3 13  1  0
  4 14  1  0
  4 15  1  0
  5 16  1  0
  6 17  1  0
  7 18  1  0
  7 19  1  0
  8 20  1  0
  8 21  1  0
  9 22  1  0
  9 23  1  0
M  END
