
     RDKit          3D

 23 23  0  0  0  0  0  0  0  0999 V2000
   -1.8666    1.7580    0.6557 C   0  0  0  0  0  0  0  0  0  0  0  0
   -1.3187    1.1357   -0.4210 O   0  0  0  0  0  0  0  0  0  0  0  0
   -1.0243   -0.1749   -0.3219 C   0  0  0  0  0  0  0  0  0  0  0  0
   -1.6675   -1.0905   -1.3084 C   0  0  0  0  0  0  0  0  0  0  0  0
    0.4858   -0.3787   -0.4189 C   0  0  0  0  0  0  0  0  0  0  0  0
    1.1091    0.0492   -1.5875 O   0  0  0  0  0  0  0  0  0  0  0  0
    1.1392   -1.4818    0.3022 C   0  0  0  0  0  0  0  0  0  0  0  0
    1.2222   -0.1358    0.9033 C   0  0  0  0  0  0  0  0  0  0  0  0
    2.4349    0.7300    0.7727 C   0  0  0  0  0  0  0  0  0  0  0  0
   -1.2015    1.7181    1.5662 H   0  0  0  0  0  0  0  0  0  0  0  0
   -1.9237    2.8570    0.4167 H   0  0  0  0  0  0  0  0  0  0  0  0
   -2.8956    1.4593    0.9053 H   0  0  0  0  0  0  0  0  0  0  0  0
   -1.3063   -0.5347    0.7042 H   0  0  0  0  0  0  0  0  0  0  0  0
   -2.7369   -0.8971   -1.4776 H   0  0  0  0  0  0  0  0  0  0  0  0
   -1.5762   -2.1409   -0.9614 H   0  0  0  0  0  0  0  0  0  0  0  0
   -1.1490   -1.0434   -2.2870 H   0  0  0  0  0  0  0  0  0  0  0  0
    0.8885   -0.6285   -2.2877 H   0  0  0  0  0  0  0  0  0  0  0  0
    0.5427   -2.2729    0.8286 H   0  0  0  0  0  0  0  0  0  0  0  0
    2.0841   -1.8909   -0.1042 H   0  0  0  0  0  0  0  0  0  0  0  0
    0.5938    0.0080    1.8185 H   0  0  0  0  0  0  0  0  0  0  0  0
    2.2745    1.6406    1.4151 H   0  0  0  0  0  0  0  0  0  0  0  0
    3.3148    0.1887    1.1451 H   0  0  0  0  0  0  0  0  0  0  0  0
    2.5767    1.1255   -0.2579 H   0  0  0  0  0  0  0  0  0  0  0  0
  1  2  1  0
  2  3  1  0
  3  4  1  0
  3  5  1  0
  5  6  1  0
  5  7  1  0
  7  8  1  0
  8  9  1  0
  8  5  1  0
  1 10  1  0
  1 11  1  0
  1 12  1  0
  3 13  1  0
  4 14  1  0
  4 15  1  0
  4 16  1  0
  6 17  1  0
  7 18  1  0
  7 19  1  0
  8 20  1  0
  9 21  1  0
  9 22  1  0
  9 23  1  0
M  END
