
     RDKit          3D

 15 14  0  0  0  0  0  0  0  0999 V2000
    2.1650    0.9406   -0.5502 C   0  0  0  0  0  0  0  0  0  0  0  0
    1.1987   -0.0459   -0.7266 O   0  0  0  0  0  0  0  0  0  0  0  0
    0.5557   -0.2663    0.4837 C   0  0  0  0  0  0  0  0  0  0  0  0
   -0.8811    0.0043    0.2556 C   0  0  0  0  0  0  0  0  0  0  0  0
   -2.0548    0.2193    0.0751 C   0  0  0  0  0  0  0  0  0  0  0  0
   -3.4525    0.4613   -0.1537 C   0  0  0  0  0  0  0  0  0  0  0  0
   -4.1120   -0.2482   -0.9611 O   0  0  0  0  0  0  0  0  0  0  0  0
    0.7325   -1.7173    0.8071 C   0  0  0  0  0  0  0  0  0  0  0  0
    1.3418   -2.4874    0.0853 O   0  0  0  0  0  0  0  0  0  0  0  0
    2.9174    0.6237    0.2128 H   0  0  0  0  0  0  0  0  0  0  0  0
    2.6583    1.1476   -1.5175 H   0  0  0  0  0  0  0  0  0  0  0  0
    1.6595    1.8622   -0.1760 H   0  0  0  0  0  0  0  0  0  0  0  0
    0.9638    0.3816    1.2619 H   0  0  0  0  0  0  0  0  0  0  0  0
   -4.0018    1.2496    0.3448 H   0  0  0  0  0  0  0  0  0  0  0  0
    0.3093   -2.1252    1.7177 H   0  0  0  0  0  0  0  0  0  0  0  0
  1  2  1  0
  2  3  1  0
  3  4  1  0
  4  5  3  0
  5  6  1  0
  6  7  2  0
  3  8  1  0
  8  9  2  0
  1 10  1  0
  1 11  1  0
  1 12  1  0
  3 13  1  0
  6 14  1  0
  8 15  1  0
M  END
