
     RDKit          3D

 19 19  0  0  0  0  0  0  0  0999 V2000
   -3.1330    0.4934   -0.2843 C   0  0  0  0  0  0  0  0  0  0  0  0
   -1.7928    0.2921   -0.6521 O   0  0  0  0  0  0  0  0  0  0  0  0
   -1.1090   -0.9037   -0.4785 C   0  0  0  0  0  0  0  0  0  0  0  0
   -1.7240   -1.8697    0.0401 O   0  0  0  0  0  0  0  0  0  0  0  0
    0.2952   -1.1075   -0.8663 C   0  0  0  0  0  0  0  0  0  0  0  0
    1.2952   -0.9873    0.2752 C   0  0  0  0  0  0  0  0  0  0  0  0
    1.1816    0.4459   -0.1392 C   0  0  0  0  0  0  0  0  0  0  0  0
    2.4506    1.2556   -0.0988 C   0  0  0  0  0  0  0  0  0  0  0  0
    0.9077    0.0104   -1.4346 O   0  0  0  0  0  0  0  0  0  0  0  0
   -3.7616    0.8234   -1.1449 H   0  0  0  0  0  0  0  0  0  0  0  0
   -3.2632    1.2352    0.5273 H   0  0  0  0  0  0  0  0  0  0  0  0
   -3.5854   -0.4572    0.0810 H   0  0  0  0  0  0  0  0  0  0  0  0
    0.5067   -2.0130   -1.4747 H   0  0  0  0  0  0  0  0  0  0  0  0
    0.8838   -1.2066    1.2773 H   0  0  0  0  0  0  0  0  0  0  0  0
    2.2417   -1.4981    0.0509 H   0  0  0  0  0  0  0  0  0  0  0  0
    0.3768    0.9566    0.3870 H   0  0  0  0  0  0  0  0  0  0  0  0
    2.3092    2.0910   -0.8445 H   0  0  0  0  0  0  0  0  0  0  0  0
    3.3399    0.6987   -0.4189 H   0  0  0  0  0  0  0  0  0  0  0  0
    2.5804    1.7408    0.8786 H   0  0  0  0  0  0  0  0  0  0  0  0
  1  2  1  0
  2  3  1  0
  3  4  2  0
  3  5  1  0
  5  6  1  0
  6  7  1  0
  7  8  1  0
  7  9  1  0
  9  5  1  0
  1 10  1  0
  1 11  1  0
  1 12  1  0
  5 13  1  0
  6 14  1  0
  6 15  1  0
  7 16  1  0
  8 17  1  0
  8 18  1  0
  8 19  1  0
M  END
