
     RDKit          3D

 17 16  0  0  0  0  0  0  0  0999 V2000
   -3.3706   -0.2345   -0.0926 C   0  0  0  0  0  0  0  0  0  0  0  0
   -2.0575   -0.6666    0.2623 O   0  0  0  0  0  0  0  0  0  0  0  0
   -1.0039    0.2109    0.0899 C   0  0  0  0  0  0  0  0  0  0  0  0
   -1.1527    1.3809   -0.3675 O   0  0  0  0  0  0  0  0  0  0  0  0
    0.3865   -0.1853    0.4440 C   0  0  0  0  0  0  0  0  0  0  0  0
    1.3130   -0.0746   -0.7473 C   0  0  0  0  0  0  0  0  0  0  0  0
    2.6345   -0.4184   -0.4970 O   0  0  0  0  0  0  0  0  0  0  0  0
    3.4911    0.1750    0.3874 C   0  0  0  0  0  0  0  0  0  0  0  0
    3.0519    1.1468    1.0570 O   0  0  0  0  0  0  0  0  0  0  0  0
   -4.0717   -0.7272    0.6132 H   0  0  0  0  0  0  0  0  0  0  0  0
   -3.6123   -0.6161   -1.1134 H   0  0  0  0  0  0  0  0  0  0  0  0
   -3.4819    0.8631   -0.0477 H   0  0  0  0  0  0  0  0  0  0  0  0
    0.8190    0.4411    1.2547 H   0  0  0  0  0  0  0  0  0  0  0  0
    0.4055   -1.2286    0.7962 H   0  0  0  0  0  0  0  0  0  0  0  0
    1.2404    0.9004   -1.2540 H   0  0  0  0  0  0  0  0  0  0  0  0
    0.8990   -0.8220   -1.4922 H   0  0  0  0  0  0  0  0  0  0  0  0
    4.5096   -0.1451    0.5346 H   0  0  0  0  0  0  0  0  0  0  0  0
  1  2  1  0
  2  3  1  0
  3  4  2  0
  3  5  1  0
  5  6  1  0
  6  7  1  0
  7  8  1  0
  8  9  2  0
  1 10  1  0
  1 11  1  0
  1 12  1  0
  5 13  1  0
  5 14  1  0
  6 15  1  0
  6 16  1  0
  8 17  1  0
M  END
