
     RDKit          3D

 18 18  0  0  0  0  0  0  0  0999 V2000
    3.5192   -0.1238   -0.3613 C   0  0  0  0  0  0  0  0  0  0  0  0
    2.2489    0.5032   -0.2250 O   0  0  0  0  0  0  0  0  0  0  0  0
    1.0813   -0.2140   -0.0007 C   0  0  0  0  0  0  0  0  0  0  0  0
    1.1493   -1.4638    0.0851 O   0  0  0  0  0  0  0  0  0  0  0  0
   -0.1611    0.5711    0.1194 C   0  0  0  0  0  0  0  0  0  0  0  0
   -1.3777   -0.2549    0.3591 C   0  0  0  0  0  0  0  0  0  0  0  0
   -2.7136    0.3702    0.5040 C   0  0  0  0  0  0  0  0  0  0  0  0
   -2.3850   -0.2539   -0.8037 C   0  0  0  0  0  0  0  0  0  0  0  0
    4.1534    0.6077   -0.9148 H   0  0  0  0  0  0  0  0  0  0  0  0
    3.9583   -0.3999    0.6163 H   0  0  0  0  0  0  0  0  0  0  0  0
    3.4391   -1.0181   -0.9961 H   0  0  0  0  0  0  0  0  0  0  0  0
   -0.0609    1.2988    0.9524 H   0  0  0  0  0  0  0  0  0  0  0  0
   -0.3060    1.1473   -0.8126 H   0  0  0  0  0  0  0  0  0  0  0  0
   -1.2342   -1.2605    0.8116 H   0  0  0  0  0  0  0  0  0  0  0  0
   -3.4512   -0.1851    1.1405 H   0  0  0  0  0  0  0  0  0  0  0  0
   -2.8388    1.4620    0.5378 H   0  0  0  0  0  0  0  0  0  0  0  0
   -2.8073   -1.2241   -1.1141 H   0  0  0  0  0  0  0  0  0  0  0  0
   -2.2137    0.4379   -1.6401 H   0  0  0  0  0  0  0  0  0  0  0  0
  1  2  1  0
  2  3  1  0
  3  4  2  0
  3  5  1  0
  5  6  1  0
  6  7  1  0
  7  8  1  0
  8  6  1  0
  1  9  1  0
  1 10  1  0
  1 11  1  0
  5 12  1  0
  5 13  1  0
  6 14  1  0
  7 15  1  0
  7 16  1  0
  8 17  1  0
  8 18  1  0
M  END
