
     RDKit          3D

 21 21  0  0  0  0  0  0  0  0999 V2000
    2.8683    0.2509    0.4346 C   0  0  0  0  0  0  0  0  0  0  0  0
    1.8264   -0.1375   -0.4050 O   0  0  0  0  0  0  0  0  0  0  0  0
    0.6271   -0.3197    0.2937 C   0  0  0  0  0  0  0  0  0  0  0  0
    0.1478   -1.7267    0.2444 C   0  0  0  0  0  0  0  0  0  0  0  0
   -0.3238    0.6971   -0.2074 C   0  0  0  0  0  0  0  0  0  0  0  0
   -0.6431    0.6494   -1.5834 O   0  0  0  0  0  0  0  0  0  0  0  0
   -1.8126    1.3538   -1.1899 C   0  0  0  0  0  0  0  0  0  0  0  0
   -1.7850    0.4406    0.0382 C   0  0  0  0  0  0  0  0  0  0  0  0
   -2.1918   -0.8358   -0.2253 O   0  0  0  0  0  0  0  0  0  0  0  0
    3.7618    0.3666   -0.2124 H   0  0  0  0  0  0  0  0  0  0  0  0
    3.0772   -0.6140    1.0954 H   0  0  0  0  0  0  0  0  0  0  0  0
    2.6795    1.1871    0.9656 H   0  0  0  0  0  0  0  0  0  0  0  0
    0.8579   -0.0917    1.3715 H   0  0  0  0  0  0  0  0  0  0  0  0
   -0.2648   -1.9634   -0.7574 H   0  0  0  0  0  0  0  0  0  0  0  0
    1.0001   -2.4153    0.4954 H   0  0  0  0  0  0  0  0  0  0  0  0
   -0.5958   -1.8826    1.0522 H   0  0  0  0  0  0  0  0  0  0  0  0
   -0.0212    1.7600   -0.0061 H   0  0  0  0  0  0  0  0  0  0  0  0
   -2.6668    1.2022   -1.8496 H   0  0  0  0  0  0  0  0  0  0  0  0
   -1.5243    2.3741   -0.9304 H   0  0  0  0  0  0  0  0  0  0  0  0
   -2.1753    0.9152    0.9574 H   0  0  0  0  0  0  0  0  0  0  0  0
   -2.8414   -1.2102    0.4186 H   0  0  0  0  0  0  0  0  0  0  0  0
  1  2  1  0
  2  3  1  0
  3  4  1  0
  3  5  1  0
  5  6  1  0
  6  7  1  0
  7  8  1  0
  8  9  1  0
  8  5  1  0
  1 10  1  0
  1 11  1  0
  1 12  1  0
  3 13  1  0
  4 14  1  0
  4 15  1  0
  4 16  1  0
  5 17  1  0
  7 18  1  0
  7 19  1  0
  8 20  1  0
  9 21  1  0
M  END
