
     RDKit          3D

 21 21  0  0  0  0  0  0  0  0999 V2000
    3.0880   -0.9643    0.6059 C   0  0  0  0  0  0  0  0  0  0  0  0
    1.8617   -0.4834    0.1428 O   0  0  0  0  0  0  0  0  0  0  0  0
    1.2899    0.7046    0.5634 C   0  0  0  0  0  0  0  0  0  0  0  0
    1.9375    1.3669    1.4094 O   0  0  0  0  0  0  0  0  0  0  0  0
    0.0184    1.2452    0.1098 C   0  0  0  0  0  0  0  0  0  0  0  0
   -1.0539    0.2660   -0.2076 C   0  0  0  0  0  0  0  0  0  0  0  0
   -2.3467    0.9460   -0.6871 C   0  0  0  0  0  0  0  0  0  0  0  0
   -1.3565   -0.7443    0.9104 C   0  0  0  0  0  0  0  0  0  0  0  0
   -0.9200   -1.1380   -0.5152 C   0  0  0  0  0  0  0  0  0  0  0  0
    3.6741   -1.2910   -0.2770 H   0  0  0  0  0  0  0  0  0  0  0  0
    2.9386   -1.7941    1.3290 H   0  0  0  0  0  0  0  0  0  0  0  0
    3.6326   -0.1086    1.0746 H   0  0  0  0  0  0  0  0  0  0  0  0
    0.2346    1.9076   -0.7726 H   0  0  0  0  0  0  0  0  0  0  0  0
   -0.3980    1.9631    0.8748 H   0  0  0  0  0  0  0  0  0  0  0  0
   -2.4897    1.9011   -0.1516 H   0  0  0  0  0  0  0  0  0  0  0  0
   -2.1921    1.0823   -1.7853 H   0  0  0  0  0  0  0  0  0  0  0  0
   -3.2138    0.2913   -0.5367 H   0  0  0  0  0  0  0  0  0  0  0  0
   -0.6257   -0.8390    1.7316 H   0  0  0  0  0  0  0  0  0  0  0  0
   -2.3879   -0.9601    1.1878 H   0  0  0  0  0  0  0  0  0  0  0  0
    0.0128   -1.7291   -0.4995 H   0  0  0  0  0  0  0  0  0  0  0  0
   -1.7038   -1.6222   -1.1457 H   0  0  0  0  0  0  0  0  0  0  0  0
  1  2  1  0
  2  3  1  0
  3  4  2  0
  3  5  1  0
  5  6  1  0
  6  7  1  0
  6  8  1  0
  8  9  1  0
  9  6  1  0
  1 10  1  0
  1 11  1  0
  1 12  1  0
  5 13  1  0
  5 14  1  0
  7 15  1  0
  7 16  1  0
  7 17  1  0
  8 18  1  0
  8 19  1  0
  9 20  1  0
  9 21  1  0
M  END
