
     RDKit          3D

 25 24  0  0  0  0  0  0  0  0999 V2000
   -2.8620   -0.4001    0.7405 C   0  0  0  0  0  0  0  0  0  0  0  0
   -2.0332   -0.0514   -0.3191 O   0  0  0  0  0  0  0  0  0  0  0  0
   -0.7804    0.4109    0.1533 C   0  0  0  0  0  0  0  0  0  0  0  0
   -0.6736    1.8342   -0.2635 C   0  0  0  0  0  0  0  0  0  0  0  0
    0.2575   -0.5130   -0.4249 C   0  0  0  0  0  0  0  0  0  0  0  0
   -0.0222   -1.9569    0.0421 C   0  0  0  0  0  0  0  0  0  0  0  0
    1.6530   -0.2738    0.0986 C   0  0  0  0  0  0  0  0  0  0  0  0
    2.2296    1.0650   -0.1440 C   0  0  0  0  0  0  0  0  0  0  0  0
    2.4837   -1.2417   -0.5072 O   0  0  0  0  0  0  0  0  0  0  0  0
   -3.8388   -0.7626    0.4355 H   0  0  0  0  0  0  0  0  0  0  0  0
   -3.0238    0.4605    1.4258 H   0  0  0  0  0  0  0  0  0  0  0  0
   -2.3288   -1.1735    1.3302 H   0  0  0  0  0  0  0  0  0  0  0  0
   -0.7759    0.3780    1.2616 H   0  0  0  0  0  0  0  0  0  0  0  0
   -1.7095    2.2760   -0.1111 H   0  0  0  0  0  0  0  0  0  0  0  0
   -0.4816    1.9861   -1.3451 H   0  0  0  0  0  0  0  0  0  0  0  0
    0.0238    2.4646    0.2826 H   0  0  0  0  0  0  0  0  0  0  0  0
    0.2657   -0.4385   -1.5224 H   0  0  0  0  0  0  0  0  0  0  0  0
   -0.0473   -1.8958    1.1483 H   0  0  0  0  0  0  0  0  0  0  0  0
   -0.9653   -2.3325   -0.3374 H   0  0  0  0  0  0  0  0  0  0  0  0
    0.8701   -2.5653   -0.2594 H   0  0  0  0  0  0  0  0  0  0  0  0
    1.7235   -0.4933    1.1924 H   0  0  0  0  0  0  0  0  0  0  0  0
    1.8494    1.6092   -1.0120 H   0  0  0  0  0  0  0  0  0  0  0  0
    3.3349    0.9200   -0.3531 H   0  0  0  0  0  0  0  0  0  0  0  0
    2.2340    1.7278    0.7552 H   0  0  0  0  0  0  0  0  0  0  0  0
    2.6171   -1.0337   -1.4724 H   0  0  0  0  0  0  0  0  0  0  0  0
  1  2  1  0
  2  3  1  0
  3  4  1  0
  3  5  1  0
  5  6  1  0
  5  7  1  0
  7  8  1  0
  7  9  1  0
  1 10  1  0
  1 11  1  0
  1 12  1  0
  3 13  1  0
  4 14  1  0
  4 15  1  0
  4 16  1  0
  5 17  1  0
  6 18  1  0
  6 19  1  0
  6 20  1  0
  7 21  1  0
  8 22  1  0
  8 23  1  0
  8 24  1  0
  9 25  1  0
M  END
