
     RDKit          3D

 27 26  0  0  0  0  0  0  0  0999 V2000
    2.8627    1.3711   -0.2873 C   0  0  0  0  0  0  0  0  0  0  0  0
    2.1720    0.1719   -0.3478 O   0  0  0  0  0  0  0  0  0  0  0  0
    0.9969    0.1970    0.4001 C   0  0  0  0  0  0  0  0  0  0  0  0
    1.1637   -0.8496    1.4907 C   0  0  0  0  0  0  0  0  0  0  0  0
   -0.1351   -0.1522   -0.5184 C   0  0  0  0  0  0  0  0  0  0  0  0
    0.1325   -1.5354   -1.0715 C   0  0  0  0  0  0  0  0  0  0  0  0
   -1.4790   -0.1323    0.1649 C   0  0  0  0  0  0  0  0  0  0  0  0
   -1.8348    1.1962    0.7429 C   0  0  0  0  0  0  0  0  0  0  0  0
   -2.5157   -0.4469   -0.9226 C   0  0  0  0  0  0  0  0  0  0  0  0
    3.1259    1.5753    0.7809 H   0  0  0  0  0  0  0  0  0  0  0  0
    3.8330    1.2014   -0.8171 H   0  0  0  0  0  0  0  0  0  0  0  0
    2.3226    2.2178   -0.7535 H   0  0  0  0  0  0  0  0  0  0  0  0
    0.8434    1.1847    0.9031 H   0  0  0  0  0  0  0  0  0  0  0  0
    2.2418   -0.8112    1.8213 H   0  0  0  0  0  0  0  0  0  0  0  0
    1.0241   -1.8743    1.0831 H   0  0  0  0  0  0  0  0  0  0  0  0
    0.5496   -0.6470    2.3758 H   0  0  0  0  0  0  0  0  0  0  0  0
   -0.1270    0.5616   -1.3683 H   0  0  0  0  0  0  0  0  0  0  0  0
    1.2259   -1.7077   -1.1222 H   0  0  0  0  0  0  0  0  0  0  0  0
   -0.2506   -1.5806   -2.1073 H   0  0  0  0  0  0  0  0  0  0  0  0
   -0.3883   -2.2697   -0.4231 H   0  0  0  0  0  0  0  0  0  0  0  0
   -1.5639   -0.8981    0.9469 H   0  0  0  0  0  0  0  0  0  0  0  0
   -1.5395    1.3262    1.7992 H   0  0  0  0  0  0  0  0  0  0  0  0
   -1.4919    2.0580    0.1325 H   0  0  0  0  0  0  0  0  0  0  0  0
   -2.9628    1.2602    0.7417 H   0  0  0  0  0  0  0  0  0  0  0  0
   -2.3291   -1.4510   -1.3664 H   0  0  0  0  0  0  0  0  0  0  0  0
   -2.3380    0.3392   -1.7136 H   0  0  0  0  0  0  0  0  0  0  0  0
   -3.5384   -0.3044   -0.5638 H   0  0  0  0  0  0  0  0  0  0  0  0
  1  2  1  0
  2  3  1  0
  3  4  1  0
  3  5  1  0
  5  6  1  0
  5  7  1  0
  7  8  1  0
  7  9  1  0
  1 10  1  0
  1 11  1  0
  1 12  1  0
  3 13  1  0
  4 14  1  0
  4 15  1  0
  4 16  1  0
  5 17  1  0
  6 18  1  0
  6 19  1  0
  6 20  1  0
  7 21  1  0
  8 22  1  0
  8 23  1  0
  8 24  1  0
  9 25  1  0
  9 26  1  0
  9 27  1  0
M  END
