
     RDKit          3D

 23 23  0  0  0  0  0  0  0  0999 V2000
    2.5935   -0.9616   -0.7227 C   0  0  0  0  0  0  0  0  0  0  0  0
    1.4458   -0.8657    0.0570 O   0  0  0  0  0  0  0  0  0  0  0  0
    1.0693    0.4351    0.2998 C   0  0  0  0  0  0  0  0  0  0  0  0
    1.0688    0.7930    1.7649 C   0  0  0  0  0  0  0  0  0  0  0  0
   -0.2878    0.7434   -0.3362 C   0  0  0  0  0  0  0  0  0  0  0  0
   -1.3640   -0.1581    0.2153 C   0  0  0  0  0  0  0  0  0  0  0  0
   -2.6865    0.1877   -0.4454 C   0  0  0  0  0  0  0  0  0  0  0  0
   -2.1899   -0.4824   -1.5716 O   0  0  0  0  0  0  0  0  0  0  0  0
   -1.6419   -1.3896   -0.6362 C   0  0  0  0  0  0  0  0  0  0  0  0
    2.8568   -2.0248   -0.8910 H   0  0  0  0  0  0  0  0  0  0  0  0
    2.3589   -0.5008   -1.7098 H   0  0  0  0  0  0  0  0  0  0  0  0
    3.4652   -0.4829   -0.2314 H   0  0  0  0  0  0  0  0  0  0  0  0
    1.7985    1.1100   -0.2032 H   0  0  0  0  0  0  0  0  0  0  0  0
    1.8056    1.5878    2.0131 H   0  0  0  0  0  0  0  0  0  0  0  0
    1.3398   -0.0798    2.4080 H   0  0  0  0  0  0  0  0  0  0  0  0
    0.0736    1.1930    2.0547 H   0  0  0  0  0  0  0  0  0  0  0  0
   -0.1469    0.6259   -1.4212 H   0  0  0  0  0  0  0  0  0  0  0  0
   -0.5521    1.7950   -0.1092 H   0  0  0  0  0  0  0  0  0  0  0  0
   -1.3722   -0.3099    1.2867 H   0  0  0  0  0  0  0  0  0  0  0  0
   -3.5397   -0.3909   -0.0399 H   0  0  0  0  0  0  0  0  0  0  0  0
   -2.8571    1.2669   -0.5850 H   0  0  0  0  0  0  0  0  0  0  0  0
   -2.4723   -1.9702   -0.2192 H   0  0  0  0  0  0  0  0  0  0  0  0
   -0.7652   -1.9361   -0.9773 H   0  0  0  0  0  0  0  0  0  0  0  0
  1  2  1  0
  2  3  1  0
  3  4  1  0
  3  5  1  0
  5  6  1  0
  6  7  1  0
  7  8  1  0
  8  9  1  0
  9  6  1  0
  1 10  1  0
  1 11  1  0
  1 12  1  0
  3 13  1  0
  4 14  1  0
  4 15  1  0
  4 16  1  0
  5 17  1  0
  5 18  1  0
  6 19  1  0
  7 20  1  0
  7 21  1  0
  9 22  1  0
  9 23  1  0
M  END
