
     RDKit          3D

 17 16  0  0  0  0  0  0  0  0999 V2000
   -3.1964    0.7482    0.2980 C   0  0  0  0  0  0  0  0  0  0  0  0
   -1.8291    0.6151    0.0121 O   0  0  0  0  0  0  0  0  0  0  0  0
   -1.1673   -0.5881    0.2270 C   0  0  0  0  0  0  0  0  0  0  0  0
   -1.8626   -1.5301    0.6855 O   0  0  0  0  0  0  0  0  0  0  0  0
    0.2902   -0.7631   -0.0675 C   0  0  0  0  0  0  0  0  0  0  0  0
    0.8073    0.4014   -0.5523 O   0  0  0  0  0  0  0  0  0  0  0  0
    2.1481    0.3910   -0.8748 C   0  0  0  0  0  0  0  0  0  0  0  0
    3.0113    0.1217    0.2731 C   0  0  0  0  0  0  0  0  0  0  0  0
    2.6416   -0.0498    1.4001 O   0  0  0  0  0  0  0  0  0  0  0  0
   -3.7271   -0.2335    0.3377 H   0  0  0  0  0  0  0  0  0  0  0  0
   -3.6615    1.2893   -0.5658 H   0  0  0  0  0  0  0  0  0  0  0  0
   -3.4066    1.2439    1.2630 H   0  0  0  0  0  0  0  0  0  0  0  0
    0.7371   -1.1754    0.8437 H   0  0  0  0  0  0  0  0  0  0  0  0
    0.4346   -1.5448   -0.8619 H   0  0  0  0  0  0  0  0  0  0  0  0
    2.3693    1.3706   -1.3703 H   0  0  0  0  0  0  0  0  0  0  0  0
    2.3186   -0.3671   -1.6967 H   0  0  0  0  0  0  0  0  0  0  0  0
    4.0924    0.0708    0.0947 H   0  0  0  0  0  0  0  0  0  0  0  0
  1  2  1  0
  2  3  1  0
  3  4  2  0
  3  5  1  0
  5  6  1  0
  6  7  1  0
  7  8  1  0
  8  9  2  0
  1 10  1  0
  1 11  1  0
  1 12  1  0
  5 13  1  0
  5 14  1  0
  7 15  1  0
  7 16  1  0
  8 17  1  0
M  END
