
     RDKit          3D

 18 17  0  0  0  0  0  0  0  0999 V2000
    1.9995    1.0894   -0.7121 C   0  0  0  0  0  0  0  0  0  0  0  0
    0.7899    0.9736   -0.0434 O   0  0  0  0  0  0  0  0  0  0  0  0
    0.3395   -0.3421    0.0036 C   0  0  0  0  0  0  0  0  0  0  0  0
    0.2747   -0.7366    1.4629 C   0  0  0  0  0  0  0  0  0  0  0  0
   -1.0396   -0.3548   -0.6295 C   0  0  0  0  0  0  0  0  0  0  0  0
   -1.5944   -1.6169   -0.6410 O   0  0  0  0  0  0  0  0  0  0  0  0
   -1.8975    0.6041    0.1217 C   0  0  0  0  0  0  0  0  0  0  0  0
   -1.5160    1.7627    0.2064 O   0  0  0  0  0  0  0  0  0  0  0  0
    2.7598    0.4734   -0.1808 H   0  0  0  0  0  0  0  0  0  0  0  0
    2.2985    2.1698   -0.6229 H   0  0  0  0  0  0  0  0  0  0  0  0
    1.8993    0.7995   -1.7856 H   0  0  0  0  0  0  0  0  0  0  0  0
    1.0239   -1.0473   -0.4969 H   0  0  0  0  0  0  0  0  0  0  0  0
   -0.7285   -0.5578    1.8975 H   0  0  0  0  0  0  0  0  0  0  0  0
    0.5568   -1.7956    1.6337 H   0  0  0  0  0  0  0  0  0  0  0  0
    0.9906   -0.1206    2.0639 H   0  0  0  0  0  0  0  0  0  0  0  0
   -0.9233    0.0014   -1.6587 H   0  0  0  0  0  0  0  0  0  0  0  0
   -2.4230   -1.5698   -1.1810 H   0  0  0  0  0  0  0  0  0  0  0  0
   -2.8103    0.2675    0.5624 H   0  0  0  0  0  0  0  0  0  0  0  0
  1  2  1  0
  2  3  1  0
  3  4  1  0
  3  5  1  0
  5  6  1  0
  5  7  1  0
  7  8  2  0
  1  9  1  0
  1 10  1  0
  1 11  1  0
  3 12  1  0
  4 13  1  0
  4 14  1  0
  4 15  1  0
  5 16  1  0
  6 17  1  0
  7 18  1  0
M  END
