
     RDKit          3D

 21 22  0  0  0  0  0  0  0  0999 V2000
    2.8505   -0.3169   -0.0778 C   0  0  0  0  0  0  0  0  0  0  0  0
    1.6118   -0.8533    0.1987 O   0  0  0  0  0  0  0  0  0  0  0  0
    0.6382    0.0960    0.4758 C   0  0  0  0  0  0  0  0  0  0  0  0
    0.0967    0.0087    1.8604 C   0  0  0  0  0  0  0  0  0  0  0  0
   -0.3840    0.0502   -0.6044 C   0  0  0  0  0  0  0  0  0  0  0  0
   -1.5346    0.9585   -0.5583 C   0  0  0  0  0  0  0  0  0  0  0  0
   -2.2309    0.0187   -1.5099 C   0  0  0  0  0  0  0  0  0  0  0  0
   -1.5859   -0.7913   -0.4157 C   0  0  0  0  0  0  0  0  0  0  0  0
   -2.0685    0.1743    0.4497 O   0  0  0  0  0  0  0  0  0  0  0  0
    3.5362   -1.1662   -0.2810 H   0  0  0  0  0  0  0  0  0  0  0  0
    3.2991    0.2095    0.8145 H   0  0  0  0  0  0  0  0  0  0  0  0
    2.8744    0.3549   -0.9459 H   0  0  0  0  0  0  0  0  0  0  0  0
    1.1577    1.0779    0.3930 H   0  0  0  0  0  0  0  0  0  0  0  0
   -0.5103   -0.8898    2.0594 H   0  0  0  0  0  0  0  0  0  0  0  0
   -0.4532    0.9526    2.0888 H   0  0  0  0  0  0  0  0  0  0  0  0
    0.9569   -0.0121    2.5630 H   0  0  0  0  0  0  0  0  0  0  0  0
    0.0472   -0.0494   -1.6197 H   0  0  0  0  0  0  0  0  0  0  0  0
   -1.5664    1.9671   -0.6111 H   0  0  0  0  0  0  0  0  0  0  0  0
   -3.3152    0.1152   -1.4771 H   0  0  0  0  0  0  0  0  0  0  0  0
   -1.7707   -0.1126   -2.4956 H   0  0  0  0  0  0  0  0  0  0  0  0
   -1.6491   -1.7918   -0.3067 H   0  0  0  0  0  0  0  0  0  0  0  0
  1  2  1  0
  2  3  1  0
  3  4  1  0
  3  5  1  0
  5  6  1  0
  6  7  1  0
  7  8  1  0
  8  9  1  0
  8  5  1  0
  9  6  1  0
  1 10  1  0
  1 11  1  0
  1 12  1  0
  3 13  1  0
  4 14  1  0
  4 15  1  0
  4 16  1  0
  5 17  1  0
  6 18  1  0
  7 19  1  0
  7 20  1  0
  8 21  1  0
M  END
