
     RDKit          3D

 23 22  0  0  0  0  0  0  0  0999 V2000
    1.9825   -1.5714    0.5139 C   0  0  0  0  0  0  0  0  0  0  0  0
    1.2929   -0.5164    1.0965 O   0  0  0  0  0  0  0  0  0  0  0  0
    0.5845    0.1188    0.0840 C   0  0  0  0  0  0  0  0  0  0  0  0
    1.1927    1.5168   -0.0626 C   0  0  0  0  0  0  0  0  0  0  0  0
    0.5027    2.1478   -1.0855 O   0  0  0  0  0  0  0  0  0  0  0  0
   -0.8824    0.2000    0.3595 C   0  0  0  0  0  0  0  0  0  0  0  0
   -1.6330    0.8789   -0.7572 C   0  0  0  0  0  0  0  0  0  0  0  0
   -1.5128   -1.0991    0.7201 C   0  0  0  0  0  0  0  0  0  0  0  0
   -1.4058   -2.0687   -0.2479 O   0  0  0  0  0  0  0  0  0  0  0  0
    1.3185   -2.3125    0.0233 H   0  0  0  0  0  0  0  0  0  0  0  0
    2.6281   -2.1072    1.2565 H   0  0  0  0  0  0  0  0  0  0  0  0
    2.6744   -1.2093   -0.2987 H   0  0  0  0  0  0  0  0  0  0  0  0
    0.7864   -0.4072   -0.8598 H   0  0  0  0  0  0  0  0  0  0  0  0
    1.0216    2.0493    0.9092 H   0  0  0  0  0  0  0  0  0  0  0  0
    2.2441    1.4752   -0.3395 H   0  0  0  0  0  0  0  0  0  0  0  0
    0.3573    3.1060   -0.9353 H   0  0  0  0  0  0  0  0  0  0  0  0
   -1.0107    0.8763    1.2578 H   0  0  0  0  0  0  0  0  0  0  0  0
   -1.7447    1.9646   -0.6447 H   0  0  0  0  0  0  0  0  0  0  0  0
   -2.6773    0.4728   -0.8377 H   0  0  0  0  0  0  0  0  0  0  0  0
   -1.1295    0.6589   -1.7259 H   0  0  0  0  0  0  0  0  0  0  0  0
   -2.6059   -0.9077    0.8713 H   0  0  0  0  0  0  0  0  0  0  0  0
   -1.1352   -1.4218    1.7149 H   0  0  0  0  0  0  0  0  0  0  0  0
   -0.8482   -1.8441   -1.0121 H   0  0  0  0  0  0  0  0  0  0  0  0
  1  2  1  0
  2  3  1  0
  3  4  1  0
  4  5  1  0
  3  6  1  0
  6  7  1  0
  6  8  1  0
  8  9  1  0
  1 10  1  0
  1 11  1  0
  1 12  1  0
  3 13  1  0
  4 14  1  0
  4 15  1  0
  5 16  1  0
  6 17  1  0
  7 18  1  0
  7 19  1  0
  7 20  1  0
  8 21  1  0
  8 22  1  0
  9 23  1  0
M  END
