
     RDKit          3D

 25 25  0  0  0  0  0  0  0  0999 V2000
   -2.5415    1.6633   -0.7449 C   0  0  0  0  0  0  0  0  0  0  0  0
   -2.1982    0.7465    0.2215 O   0  0  0  0  0  0  0  0  0  0  0  0
   -1.2876   -0.2031   -0.2745 C   0  0  0  0  0  0  0  0  0  0  0  0
   -1.9851   -1.5453   -0.1931 C   0  0  0  0  0  0  0  0  0  0  0  0
   -0.0950   -0.1722    0.6475 C   0  0  0  0  0  0  0  0  0  0  0  0
    1.0126   -1.1426    0.2725 C   0  0  0  0  0  0  0  0  0  0  0  0
    1.9711   -0.0729    0.8022 C   0  0  0  0  0  0  0  0  0  0  0  0
    3.2679    0.0297    0.0626 C   0  0  0  0  0  0  0  0  0  0  0  0
    0.9022    0.9304    0.3555 C   0  0  0  0  0  0  0  0  0  0  0  0
   -3.0060    1.1529   -1.5947 H   0  0  0  0  0  0  0  0  0  0  0  0
   -1.6600    2.2196   -1.1435 H   0  0  0  0  0  0  0  0  0  0  0  0
   -3.2153    2.4039   -0.2904 H   0  0  0  0  0  0  0  0  0  0  0  0
   -1.0379   -0.0239   -1.3180 H   0  0  0  0  0  0  0  0  0  0  0  0
   -1.4103   -2.3614   -0.6267 H   0  0  0  0  0  0  0  0  0  0  0  0
   -2.9773   -1.4443   -0.6909 H   0  0  0  0  0  0  0  0  0  0  0  0
   -2.2219   -1.7635    0.8807 H   0  0  0  0  0  0  0  0  0  0  0  0
   -0.3269   -0.2558    1.7116 H   0  0  0  0  0  0  0  0  0  0  0  0
    1.1526   -1.2506   -0.8247 H   0  0  0  0  0  0  0  0  0  0  0  0
    1.0297   -2.0773    0.8480 H   0  0  0  0  0  0  0  0  0  0  0  0
    2.0797   -0.0525    1.8941 H   0  0  0  0  0  0  0  0  0  0  0  0
    4.0253   -0.5464    0.6344 H   0  0  0  0  0  0  0  0  0  0  0  0
    3.1911   -0.3658   -0.9628 H   0  0  0  0  0  0  0  0  0  0  0  0
    3.5598    1.1192    0.0739 H   0  0  0  0  0  0  0  0  0  0  0  0
    0.9517    1.1917   -0.7177 H   0  0  0  0  0  0  0  0  0  0  0  0
    0.8193    1.8203    0.9775 H   0  0  0  0  0  0  0  0  0  0  0  0
  1  2  1  0
  2  3  1  0
  3  4  1  0
  3  5  1  0
  5  6  1  0
  6  7  1  0
  7  8  1  0
  7  9  1  0
  9  5  1  0
  1 10  1  0
  1 11  1  0
  1 12  1  0
  3 13  1  0
  4 14  1  0
  4 15  1  0
  4 16  1  0
  5 17  1  0
  6 18  1  0
  6 19  1  0
  7 20  1  0
  8 21  1  0
  8 22  1  0
  8 23  1  0
  9 24  1  0
  9 25  1  0
M  END
