
     RDKit          3D

 19 18  0  0  0  0  0  0  0  0999 V2000
    3.0223   -0.7731    0.3377 C   0  0  0  0  0  0  0  0  0  0  0  0
    1.7625   -0.1981    0.5910 O   0  0  0  0  0  0  0  0  0  0  0  0
    0.6902   -0.5385   -0.1869 C   0  0  0  0  0  0  0  0  0  0  0  0
    0.8164   -1.3481   -1.1127 O   0  0  0  0  0  0  0  0  0  0  0  0
   -0.6185    0.0709    0.0905 C   0  0  0  0  0  0  0  0  0  0  0  0
   -0.5338    1.5790    0.1272 C   0  0  0  0  0  0  0  0  0  0  0  0
   -0.2668    2.1251   -1.1181 O   0  0  0  0  0  0  0  0  0  0  0  0
   -1.6179   -0.3485   -0.7569 O   0  0  0  0  0  0  0  0  0  0  0  0
   -2.5873   -0.9977   -0.0081 C   0  0  0  0  0  0  0  0  0  0  0  0
    3.8155   -0.3192    0.9603 H   0  0  0  0  0  0  0  0  0  0  0  0
    2.9618   -1.8381    0.6095 H   0  0  0  0  0  0  0  0  0  0  0  0
    3.2467   -0.6556   -0.7375 H   0  0  0  0  0  0  0  0  0  0  0  0
   -0.8622   -0.2274    1.1539 H   0  0  0  0  0  0  0  0  0  0  0  0
   -1.4799    1.9571    0.5436 H   0  0  0  0  0  0  0  0  0  0  0  0
    0.2698    1.8474    0.8230 H   0  0  0  0  0  0  0  0  0  0  0  0
   -0.1616    3.1008   -0.9840 H   0  0  0  0  0  0  0  0  0  0  0  0
   -3.4006   -1.3420   -0.6785 H   0  0  0  0  0  0  0  0  0  0  0  0
   -2.1045   -1.8239    0.5492 H   0  0  0  0  0  0  0  0  0  0  0  0
   -2.9520   -0.2701    0.7455 H   0  0  0  0  0  0  0  0  0  0  0  0
  1  2  1  0
  2  3  1  0
  3  4  2  0
  3  5  1  0
  5  6  1  0
  6  7  1  0
  5  8  1  0
  8  9  1  0
  1 10  1  0
  1 11  1  0
  1 12  1  0
  5 13  1  0
  6 14  1  0
  6 15  1  0
  7 16  1  0
  9 17  1  0
  9 18  1  0
  9 19  1  0
M  END
