
     RDKit          3D

 23 22  0  0  0  0  0  0  0  0999 V2000
    2.4282   -0.6695    0.8534 C   0  0  0  0  0  0  0  0  0  0  0  0
    1.4386   -0.7431   -0.1094 O   0  0  0  0  0  0  0  0  0  0  0  0
    0.6480    0.3878   -0.1665 C   0  0  0  0  0  0  0  0  0  0  0  0
    0.6459    1.0240   -1.5476 C   0  0  0  0  0  0  0  0  0  0  0  0
   -0.7730   -0.0454    0.2043 C   0  0  0  0  0  0  0  0  0  0  0  0
   -1.2761   -1.0972   -0.7792 C   0  0  0  0  0  0  0  0  0  0  0  0
   -1.7333    1.0924    0.1779 C   0  0  0  0  0  0  0  0  0  0  0  0
   -0.6741   -0.7067    1.5270 C   0  0  0  0  0  0  0  0  0  0  0  0
   -1.0504   -0.1498    2.5322 O   0  0  0  0  0  0  0  0  0  0  0  0
    2.9901   -1.6461    0.7906 H   0  0  0  0  0  0  0  0  0  0  0  0
    2.0053   -0.6220    1.8756 H   0  0  0  0  0  0  0  0  0  0  0  0
    3.1600    0.1209    0.6410 H   0  0  0  0  0  0  0  0  0  0  0  0
    0.9318    1.1593    0.5588 H   0  0  0  0  0  0  0  0  0  0  0  0
    1.2371    0.4261   -2.2654 H   0  0  0  0  0  0  0  0  0  0  0  0
    1.0286    2.0624   -1.5321 H   0  0  0  0  0  0  0  0  0  0  0  0
   -0.3899    1.0690   -1.9715 H   0  0  0  0  0  0  0  0  0  0  0  0
   -0.5314   -1.8948   -0.9531 H   0  0  0  0  0  0  0  0  0  0  0  0
   -2.1607   -1.5796   -0.2828 H   0  0  0  0  0  0  0  0  0  0  0  0
   -1.6617   -0.6295   -1.6943 H   0  0  0  0  0  0  0  0  0  0  0  0
   -2.2585    1.1938   -0.8140 H   0  0  0  0  0  0  0  0  0  0  0  0
   -1.1923    2.0276    0.4138 H   0  0  0  0  0  0  0  0  0  0  0  0
   -2.5501    0.9227    0.9282 H   0  0  0  0  0  0  0  0  0  0  0  0
   -0.2619   -1.7021    1.6131 H   0  0  0  0  0  0  0  0  0  0  0  0
  1  2  1  0
  2  3  1  0
  3  4  1  0
  3  5  1  0
  5  6  1  0
  5  7  1  0
  5  8  1  0
  8  9  2  0
  1 10  1  0
  1 11  1  0
  1 12  1  0
  3 13  1  0
  4 14  1  0
  4 15  1  0
  4 16  1  0
  6 17  1  0
  6 18  1  0
  6 19  1  0
  7 20  1  0
  7 21  1  0
  7 22  1  0
  8 23  1  0
M  END
