
     RDKit          3D

 19 19  0  0  0  0  0  0  0  0999 V2000
    3.1456    0.3887    0.8398 C   0  0  0  0  0  0  0  0  0  0  0  0
    1.8478   -0.2025    0.6629 O   0  0  0  0  0  0  0  0  0  0  0  0
    1.2202   -0.1721   -0.5761 C   0  0  0  0  0  0  0  0  0  0  0  0
    1.8541    0.3950   -1.5044 O   0  0  0  0  0  0  0  0  0  0  0  0
   -0.1118   -0.7611   -0.8203 C   0  0  0  0  0  0  0  0  0  0  0  0
   -1.2190    0.2297   -0.8067 C   0  0  0  0  0  0  0  0  0  0  0  0
   -1.5422    1.0662    0.3658 C   0  0  0  0  0  0  0  0  0  0  0  0
   -2.4027   -0.1559    0.0991 C   0  0  0  0  0  0  0  0  0  0  0  0
   -2.2088   -1.1797    1.0107 O   0  0  0  0  0  0  0  0  0  0  0  0
    2.9937    1.4607    0.9523 H   0  0  0  0  0  0  0  0  0  0  0  0
    3.7899    0.1660   -0.0310 H   0  0  0  0  0  0  0  0  0  0  0  0
    3.6337   -0.0946    1.7186 H   0  0  0  0  0  0  0  0  0  0  0  0
   -0.3276   -1.6070   -0.1127 H   0  0  0  0  0  0  0  0  0  0  0  0
   -0.1156   -1.2672   -1.8301 H   0  0  0  0  0  0  0  0  0  0  0  0
   -1.4892    0.6405   -1.8138 H   0  0  0  0  0  0  0  0  0  0  0  0
   -2.0585    2.0247    0.1577 H   0  0  0  0  0  0  0  0  0  0  0  0
   -0.9185    1.0912    1.2777 H   0  0  0  0  0  0  0  0  0  0  0  0
   -3.4196   -0.0143   -0.3084 H   0  0  0  0  0  0  0  0  0  0  0  0
   -2.6714   -2.0083    0.7189 H   0  0  0  0  0  0  0  0  0  0  0  0
  1  2  1  0
  2  3  1  0
  3  4  2  0
  3  5  1  0
  5  6  1  0
  6  7  1  0
  7  8  1  0
  8  9  1  0
  8  6  1  0
  1 10  1  0
  1 11  1  0
  1 12  1  0
  5 13  1  0
  5 14  1  0
  6 15  1  0
  7 16  1  0
  7 17  1  0
  8 18  1  0
  9 19  1  0
M  END
