
     RDKit          3D

 21 21  0  0  0  0  0  0  0  0999 V2000
    2.3532   -0.5973    1.1084 C   0  0  0  0  0  0  0  0  0  0  0  0
    1.3320    0.3464    0.9968 O   0  0  0  0  0  0  0  0  0  0  0  0
    0.7274    0.1701   -0.2159 C   0  0  0  0  0  0  0  0  0  0  0  0
    0.9012    1.4066   -1.0419 C   0  0  0  0  0  0  0  0  0  0  0  0
    0.4520    1.5014   -2.1665 O   0  0  0  0  0  0  0  0  0  0  0  0
   -0.7508   -0.0990   -0.1373 C   0  0  0  0  0  0  0  0  0  0  0  0
   -1.3661   -0.2858   -1.5119 C   0  0  0  0  0  0  0  0  0  0  0  0
   -1.3495   -0.8196    1.0017 C   0  0  0  0  0  0  0  0  0  0  0  0
   -1.6101    0.6541    0.8336 C   0  0  0  0  0  0  0  0  0  0  0  0
    2.8898   -0.5207    2.0602 H   0  0  0  0  0  0  0  0  0  0  0  0
    1.9798   -1.6376    1.0242 H   0  0  0  0  0  0  0  0  0  0  0  0
    3.1043   -0.4735    0.2741 H   0  0  0  0  0  0  0  0  0  0  0  0
    1.1783   -0.6526   -0.8002 H   0  0  0  0  0  0  0  0  0  0  0  0
    1.4398    2.2563   -0.6478 H   0  0  0  0  0  0  0  0  0  0  0  0
   -2.2768   -0.9135   -1.4527 H   0  0  0  0  0  0  0  0  0  0  0  0
   -0.6149   -0.6867   -2.2300 H   0  0  0  0  0  0  0  0  0  0  0  0
   -1.7304    0.7339   -1.8220 H   0  0  0  0  0  0  0  0  0  0  0  0
   -2.1377   -1.5582    0.7799 H   0  0  0  0  0  0  0  0  0  0  0  0
   -0.7374   -1.0780    1.8850 H   0  0  0  0  0  0  0  0  0  0  0  0
   -1.1152    1.3700    1.5061 H   0  0  0  0  0  0  0  0  0  0  0  0
   -2.6690    0.8835    0.5559 H   0  0  0  0  0  0  0  0  0  0  0  0
  1  2  1  0
  2  3  1  0
  3  4  1  0
  4  5  2  0
  3  6  1  0
  6  7  1  0
  6  8  1  0
  8  9  1  0
  9  6  1  0
  1 10  1  0
  1 11  1  0
  1 12  1  0
  3 13  1  0
  4 14  1  0
  7 15  1  0
  7 16  1  0
  7 17  1  0
  8 18  1  0
  8 19  1  0
  9 20  1  0
  9 21  1  0
M  END
