
     RDKit          3D

 19 19  0  0  0  0  0  0  0  0999 V2000
   -2.1140    0.8196    0.1273 C   0  0  0  0  0  0  0  0  0  0  0  0
   -1.3297    0.0573   -0.6882 O   0  0  0  0  0  0  0  0  0  0  0  0
   -0.1122   -0.3138   -0.2178 C   0  0  0  0  0  0  0  0  0  0  0  0
   -0.3528   -1.1287    1.0514 C   0  0  0  0  0  0  0  0  0  0  0  0
    0.4728   -1.2827   -1.2021 C   0  0  0  0  0  0  0  0  0  0  0  0
   -0.1263   -1.6091   -2.2129 O   0  0  0  0  0  0  0  0  0  0  0  0
    0.8310    0.7930    0.1199 C   0  0  0  0  0  0  0  0  0  0  0  0
    2.2179    0.8373   -0.3741 C   0  0  0  0  0  0  0  0  0  0  0  0
    1.2351    1.6974   -0.8523 O   0  0  0  0  0  0  0  0  0  0  0  0
   -1.6941    1.7848    0.4272 H   0  0  0  0  0  0  0  0  0  0  0  0
   -3.0637    1.0312   -0.4070 H   0  0  0  0  0  0  0  0  0  0  0  0
   -2.3995    0.2815    1.0548 H   0  0  0  0  0  0  0  0  0  0  0  0
   -0.6580   -0.4312    1.8536 H   0  0  0  0  0  0  0  0  0  0  0  0
   -1.2155   -1.7884    0.8232 H   0  0  0  0  0  0  0  0  0  0  0  0
    0.5392   -1.6939    1.3567 H   0  0  0  0  0  0  0  0  0  0  0  0
    1.4446   -1.7360   -1.0671 H   0  0  0  0  0  0  0  0  0  0  0  0
    0.7009    1.1662    1.1589 H   0  0  0  0  0  0  0  0  0  0  0  0
    2.6123    0.1679   -1.1546 H   0  0  0  0  0  0  0  0  0  0  0  0
    3.0120    1.3475    0.2031 H   0  0  0  0  0  0  0  0  0  0  0  0
  1  2  1  0
  2  3  1  0
  3  4  1  0
  3  5  1  0
  5  6  2  0
  3  7  1  0
  7  8  1  0
  8  9  1  0
  9  7  1  0
  1 10  1  0
  1 11  1  0
  1 12  1  0
  4 13  1  0
  4 14  1  0
  4 15  1  0
  5 16  1  0
  7 17  1  0
  8 18  1  0
  8 19  1  0
M  END
