
     RDKit          3D

 18 17  0  0  0  0  0  0  0  0999 V2000
    3.0353    0.2417    0.1262 C   0  0  0  0  0  0  0  0  0  0  0  0
    1.7649   -0.1485   -0.2952 O   0  0  0  0  0  0  0  0  0  0  0  0
    0.5995    0.2863    0.3183 C   0  0  0  0  0  0  0  0  0  0  0  0
    0.7035    1.0659    1.2960 O   0  0  0  0  0  0  0  0  0  0  0  0
   -0.6878   -0.1903   -0.2113 C   0  0  0  0  0  0  0  0  0  0  0  0
   -1.5265   -0.8949    0.8421 C   0  0  0  0  0  0  0  0  0  0  0  0
   -1.5562    0.9695   -0.7205 C   0  0  0  0  0  0  0  0  0  0  0  0
   -0.5292   -1.0449   -1.2983 O   0  0  0  0  0  0  0  0  0  0  0  0
    3.3116   -0.2886    1.0364 H   0  0  0  0  0  0  0  0  0  0  0  0
    3.7366    0.0646   -0.7261 H   0  0  0  0  0  0  0  0  0  0  0  0
    3.0164    1.3420    0.2901 H   0  0  0  0  0  0  0  0  0  0  0  0
   -2.5494   -1.0163    0.4029 H   0  0  0  0  0  0  0  0  0  0  0  0
   -1.5334   -0.2822    1.7596 H   0  0  0  0  0  0  0  0  0  0  0  0
   -1.1581   -1.8939    1.0900 H   0  0  0  0  0  0  0  0  0  0  0  0
   -1.8562    1.6435    0.0827 H   0  0  0  0  0  0  0  0  0  0  0  0
   -1.0608    1.4553   -1.5747 H   0  0  0  0  0  0  0  0  0  0  0  0
   -2.4886    0.4621   -1.1027 H   0  0  0  0  0  0  0  0  0  0  0  0
   -1.2216   -1.7711   -1.3156 H   0  0  0  0  0  0  0  0  0  0  0  0
  1  2  1  0
  2  3  1  0
  3  4  2  0
  3  5  1  0
  5  6  1  0
  5  7  1  0
  5  8  1  0
  1  9  1  0
  1 10  1  0
  1 11  1  0
  6 12  1  0
  6 13  1  0
  6 14  1  0
  7 15  1  0
  7 16  1  0
  7 17  1  0
  8 18  1  0
M  END
