
     RDKit          3D

 17 17  0  0  0  0  0  0  0  0999 V2000
    3.1642    0.2731   -0.2586 C   0  0  0  0  0  0  0  0  0  0  0  0
    1.8040    0.6869   -0.3036 O   0  0  0  0  0  0  0  0  0  0  0  0
    0.7678   -0.2219   -0.3604 C   0  0  0  0  0  0  0  0  0  0  0  0
    1.0293   -1.4383   -0.3725 O   0  0  0  0  0  0  0  0  0  0  0  0
   -0.6050    0.2354   -0.4051 C   0  0  0  0  0  0  0  0  0  0  0  0
   -1.6783   -0.8283   -0.4662 C   0  0  0  0  0  0  0  0  0  0  0  0
   -2.4936    0.1758    0.3269 C   0  0  0  0  0  0  0  0  0  0  0  0
   -1.2009    0.6075    0.9343 C   0  0  0  0  0  0  0  0  0  0  0  0
   -0.7376    1.0440    1.9508 O   0  0  0  0  0  0  0  0  0  0  0  0
    3.5504    0.4333    0.7459 H   0  0  0  0  0  0  0  0  0  0  0  0
    3.1785   -0.8262   -0.4696 H   0  0  0  0  0  0  0  0  0  0  0  0
    3.7045    0.8391   -1.0477 H   0  0  0  0  0  0  0  0  0  0  0  0
   -0.8497    1.0528   -1.1129 H   0  0  0  0  0  0  0  0  0  0  0  0
   -1.4783   -1.7137    0.1860 H   0  0  0  0  0  0  0  0  0  0  0  0
   -2.0613   -1.0643   -1.4632 H   0  0  0  0  0  0  0  0  0  0  0  0
   -2.8663    0.9993   -0.3265 H   0  0  0  0  0  0  0  0  0  0  0  0
   -3.2276   -0.2547    1.0206 H   0  0  0  0  0  0  0  0  0  0  0  0
  1  2  1  0
  2  3  1  0
  3  4  2  0
  3  5  1  0
  5  6  1  0
  6  7  1  0
  7  8  1  0
  8  9  2  0
  8  5  1  0
  1 10  1  0
  1 11  1  0
  1 12  1  0
  5 13  1  0
  6 14  1  0
  6 15  1  0
  7 16  1  0
  7 17  1  0
M  END
