
     RDKit          3D

 23 22  0  0  0  0  0  0  0  0999 V2000
    1.0172    2.0072   -0.0616 C   0  0  0  0  0  0  0  0  0  0  0  0
    0.5192    1.0622   -0.9008 O   0  0  0  0  0  0  0  0  0  0  0  0
    0.2249   -0.1622   -0.3971 C   0  0  0  0  0  0  0  0  0  0  0  0
   -0.3141   -0.9944   -1.5768 C   0  0  0  0  0  0  0  0  0  0  0  0
    1.4147   -0.9634    0.0923 C   0  0  0  0  0  0  0  0  0  0  0  0
    2.1272   -0.3744    1.0959 O   0  0  0  0  0  0  0  0  0  0  0  0
   -0.7961   -0.1723    0.7010 C   0  0  0  0  0  0  0  0  0  0  0  0
   -2.0628    0.5273    0.3900 C   0  0  0  0  0  0  0  0  0  0  0  0
   -0.9748   -1.5054    1.0973 O   0  0  0  0  0  0  0  0  0  0  0  0
    0.3049    2.2386    0.7855 H   0  0  0  0  0  0  0  0  0  0  0  0
    1.1189    2.9549   -0.6720 H   0  0  0  0  0  0  0  0  0  0  0  0
    1.9890    1.8387    0.3841 H   0  0  0  0  0  0  0  0  0  0  0  0
    0.4580   -0.8555   -2.3880 H   0  0  0  0  0  0  0  0  0  0  0  0
   -0.3161   -2.0574   -1.3361 H   0  0  0  0  0  0  0  0  0  0  0  0
   -1.2447   -0.5851   -1.9669 H   0  0  0  0  0  0  0  0  0  0  0  0
    2.0579   -1.2578   -0.7809 H   0  0  0  0  0  0  0  0  0  0  0  0
    0.9757   -1.9163    0.5147 H   0  0  0  0  0  0  0  0  0  0  0  0
    3.0952   -0.6240    1.0007 H   0  0  0  0  0  0  0  0  0  0  0  0
   -0.3248    0.3331    1.5887 H   0  0  0  0  0  0  0  0  0  0  0  0
   -2.0629    1.5979    0.7330 H   0  0  0  0  0  0  0  0  0  0  0  0
   -2.3842    0.5147   -0.6471 H   0  0  0  0  0  0  0  0  0  0  0  0
   -2.8839    0.0396    0.9900 H   0  0  0  0  0  0  0  0  0  0  0  0
   -1.9383   -1.6460    1.3541 H   0  0  0  0  0  0  0  0  0  0  0  0
  1  2  1  0
  2  3  1  0
  3  4  1  0
  3  5  1  0
  5  6  1  0
  3  7  1  0
  7  8  1  0
  7  9  1  0
  1 10  1  0
  1 11  1  0
  1 12  1  0
  4 13  1  0
  4 14  1  0
  4 15  1  0
  5 16  1  0
  5 17  1  0
  6 18  1  0
  7 19  1  0
  8 20  1  0
  8 21  1  0
  8 22  1  0
  9 23  1  0
M  END
