
     RDKit          3D

 23 23  0  0  0  0  0  0  0  0999 V2000
    2.1309    1.8086    0.2163 C   0  0  0  0  0  0  0  0  0  0  0  0
    1.4049    0.7879    0.7751 O   0  0  0  0  0  0  0  0  0  0  0  0
    1.0213   -0.1332   -0.2172 C   0  0  0  0  0  0  0  0  0  0  0  0
    1.5967   -1.4513    0.1901 C   0  0  0  0  0  0  0  0  0  0  0  0
   -0.5161   -0.1438   -0.2030 C   0  0  0  0  0  0  0  0  0  0  0  0
   -1.0168    1.1008   -0.4744 O   0  0  0  0  0  0  0  0  0  0  0  0
   -2.3729    1.2379   -0.4906 C   0  0  0  0  0  0  0  0  0  0  0  0
   -1.2133   -1.3149   -0.7807 C   0  0  0  0  0  0  0  0  0  0  0  0
   -1.1310   -1.1052    0.7022 C   0  0  0  0  0  0  0  0  0  0  0  0
    1.4784    2.3104   -0.5438 H   0  0  0  0  0  0  0  0  0  0  0  0
    2.4779    2.5122    0.9777 H   0  0  0  0  0  0  0  0  0  0  0  0
    2.9796    1.3572   -0.3471 H   0  0  0  0  0  0  0  0  0  0  0  0
    1.4054    0.2084   -1.1813 H   0  0  0  0  0  0  0  0  0  0  0  0
    1.2830   -2.3013   -0.4442 H   0  0  0  0  0  0  0  0  0  0  0  0
    1.4721   -1.6400    1.2769 H   0  0  0  0  0  0  0  0  0  0  0  0
    2.7067   -1.3642    0.0122 H   0  0  0  0  0  0  0  0  0  0  0  0
   -2.9289    0.6384   -1.2130 H   0  0  0  0  0  0  0  0  0  0  0  0
   -2.8310    1.1450    0.5238 H   0  0  0  0  0  0  0  0  0  0  0  0
   -2.5753    2.3143   -0.7773 H   0  0  0  0  0  0  0  0  0  0  0  0
   -2.1861   -1.2455   -1.2880 H   0  0  0  0  0  0  0  0  0  0  0  0
   -0.5805   -2.1178   -1.2280 H   0  0  0  0  0  0  0  0  0  0  0  0
   -0.5538   -1.8411    1.2668 H   0  0  0  0  0  0  0  0  0  0  0  0
   -2.0513   -0.7632    1.2503 H   0  0  0  0  0  0  0  0  0  0  0  0
  1  2  1  0
  2  3  1  0
  3  4  1  0
  3  5  1  0
  5  6  1  0
  6  7  1  0
  5  8  1  0
  8  9  1  0
  9  5  1  0
  1 10  1  0
  1 11  1  0
  1 12  1  0
  3 13  1  0
  4 14  1  0
  4 15  1  0
  4 16  1  0
  7 17  1  0
  7 18  1  0
  7 19  1  0
  8 20  1  0
  8 21  1  0
  9 22  1  0
  9 23  1  0
M  END
