
     RDKit          3D

 23 22  0  0  0  0  0  0  0  0999 V2000
    1.0313    2.3710   -0.1339 C   0  0  0  0  0  0  0  0  0  0  0  0
    0.5962    1.3139   -0.9633 O   0  0  0  0  0  0  0  0  0  0  0  0
   -0.0024    0.3113   -0.2083 C   0  0  0  0  0  0  0  0  0  0  0  0
    0.7778   -0.9841   -0.3343 C   0  0  0  0  0  0  0  0  0  0  0  0
    2.1917   -0.8389    0.1568 C   0  0  0  0  0  0  0  0  0  0  0  0
    0.1352   -1.9390    0.4375 O   0  0  0  0  0  0  0  0  0  0  0  0
   -1.4276    0.0675   -0.6771 C   0  0  0  0  0  0  0  0  0  0  0  0
   -2.1329   -0.9455    0.1727 C   0  0  0  0  0  0  0  0  0  0  0  0
   -2.1228    1.2894   -0.5128 O   0  0  0  0  0  0  0  0  0  0  0  0
    0.1692    2.8051    0.4100 H   0  0  0  0  0  0  0  0  0  0  0  0
    1.4562    3.1936   -0.7428 H   0  0  0  0  0  0  0  0  0  0  0  0
    1.8119    2.0329    0.5788 H   0  0  0  0  0  0  0  0  0  0  0  0
    0.0318    0.6315    0.8530 H   0  0  0  0  0  0  0  0  0  0  0  0
    0.8419   -1.2864   -1.4088 H   0  0  0  0  0  0  0  0  0  0  0  0
    2.2812   -0.2657    1.0869 H   0  0  0  0  0  0  0  0  0  0  0  0
    2.8229   -0.3980   -0.6570 H   0  0  0  0  0  0  0  0  0  0  0  0
    2.5907   -1.8871    0.2894 H   0  0  0  0  0  0  0  0  0  0  0  0
    0.5689   -2.8306    0.3731 H   0  0  0  0  0  0  0  0  0  0  0  0
   -1.4123   -0.1584   -1.7450 H   0  0  0  0  0  0  0  0  0  0  0  0
   -2.0962   -1.9703   -0.2516 H   0  0  0  0  0  0  0  0  0  0  0  0
   -1.7958   -0.8718    1.2092 H   0  0  0  0  0  0  0  0  0  0  0  0
   -3.2248   -0.6786    0.1791 H   0  0  0  0  0  0  0  0  0  0  0  0
   -3.0919    1.0382   -0.4786 H   0  0  0  0  0  0  0  0  0  0  0  0
  1  2  1  0
  2  3  1  0
  3  4  1  0
  4  5  1  0
  4  6  1  0
  3  7  1  0
  7  8  1  0
  7  9  1  0
  1 10  1  0
  1 11  1  0
  1 12  1  0
  3 13  1  0
  4 14  1  0
  5 15  1  0
  5 16  1  0
  5 17  1  0
  6 18  1  0
  7 19  1  0
  8 20  1  0
  8 21  1  0
  8 22  1  0
  9 23  1  0
M  END
