
     RDKit          3D

 21 21  0  0  0  0  0  0  0  0999 V2000
    2.0573   -0.7041   -1.1111 C   0  0  0  0  0  0  0  0  0  0  0  0
    1.6433   -0.5978    0.2078 O   0  0  0  0  0  0  0  0  0  0  0  0
    0.4654    0.1744    0.3001 C   0  0  0  0  0  0  0  0  0  0  0  0
    0.7575    1.3597    1.1876 C   0  0  0  0  0  0  0  0  0  0  0  0
    1.7806    2.1240    0.6494 O   0  0  0  0  0  0  0  0  0  0  0  0
   -0.5608   -0.7436    0.9406 C   0  0  0  0  0  0  0  0  0  0  0  0
   -0.7134   -1.9183    0.0401 O   0  0  0  0  0  0  0  0  0  0  0  0
   -1.7994   -1.0863    0.2921 C   0  0  0  0  0  0  0  0  0  0  0  0
   -2.3330   -0.2180   -0.8283 C   0  0  0  0  0  0  0  0  0  0  0  0
    2.9814   -1.3196   -1.1071 H   0  0  0  0  0  0  0  0  0  0  0  0
    1.3174   -1.2573   -1.7328 H   0  0  0  0  0  0  0  0  0  0  0  0
    2.2387    0.3235   -1.4779 H   0  0  0  0  0  0  0  0  0  0  0  0
    0.1944    0.4850   -0.7145 H   0  0  0  0  0  0  0  0  0  0  0  0
    1.0277    0.9787    2.1870 H   0  0  0  0  0  0  0  0  0  0  0  0
   -0.1784    1.9508    1.2787 H   0  0  0  0  0  0  0  0  0  0  0  0
    1.4575    2.9984    0.3016 H   0  0  0  0  0  0  0  0  0  0  0  0
   -0.2909   -1.0278    1.9687 H   0  0  0  0  0  0  0  0  0  0  0  0
   -2.5853   -1.5744    0.8783 H   0  0  0  0  0  0  0  0  0  0  0  0
   -1.5825    0.0103   -1.5970 H   0  0  0  0  0  0  0  0  0  0  0  0
   -3.2239   -0.7012   -1.2908 H   0  0  0  0  0  0  0  0  0  0  0  0
   -2.6535    0.7434   -0.3723 H   0  0  0  0  0  0  0  0  0  0  0  0
  1  2  1  0
  2  3  1  0
  3  4  1  0
  4  5  1  0
  3  6  1  0
  6  7  1  0
  7  8  1  0
  8  9  1  0
  8  6  1  0
  1 10  1  0
  1 11  1  0
  1 12  1  0
  3 13  1  0
  4 14  1  0
  4 15  1  0
  5 16  1  0
  6 17  1  0
  8 18  1  0
  9 19  1  0
  9 20  1  0
  9 21  1  0
M  END
