
     RDKit          3D

 19 19  0  0  0  0  0  0  0  0999 V2000
    3.3929   -0.3462    1.0471 C   0  0  0  0  0  0  0  0  0  0  0  0
    2.5182    0.4137    0.2336 O   0  0  0  0  0  0  0  0  0  0  0  0
    1.2236    0.0502   -0.0599 C   0  0  0  0  0  0  0  0  0  0  0  0
    0.7856   -1.0243    0.4229 O   0  0  0  0  0  0  0  0  0  0  0  0
    0.3327    0.8929   -0.9304 C   0  0  0  0  0  0  0  0  0  0  0  0
   -0.9142    0.3094   -1.0705 O   0  0  0  0  0  0  0  0  0  0  0  0
   -1.4855    0.1875    0.1929 C   0  0  0  0  0  0  0  0  0  0  0  0
   -2.9662    0.3516    0.2283 C   0  0  0  0  0  0  0  0  0  0  0  0
   -2.3396   -1.0051    0.4483 C   0  0  0  0  0  0  0  0  0  0  0  0
    4.1508   -0.9023    0.4560 H   0  0  0  0  0  0  0  0  0  0  0  0
    2.8522   -1.0059    1.7567 H   0  0  0  0  0  0  0  0  0  0  0  0
    3.9795    0.4098    1.6470 H   0  0  0  0  0  0  0  0  0  0  0  0
    0.8375    1.0185   -1.9166 H   0  0  0  0  0  0  0  0  0  0  0  0
    0.2846    1.9081   -0.4766 H   0  0  0  0  0  0  0  0  0  0  0  0
   -0.8932    0.5544    1.0785 H   0  0  0  0  0  0  0  0  0  0  0  0
   -3.5373    0.5379   -0.6932 H   0  0  0  0  0  0  0  0  0  0  0  0
   -3.4136    0.8391    1.1253 H   0  0  0  0  0  0  0  0  0  0  0  0
   -2.4271   -1.7779   -0.3619 H   0  0  0  0  0  0  0  0  0  0  0  0
   -2.3808   -1.4115    1.4661 H   0  0  0  0  0  0  0  0  0  0  0  0
  1  2  1  0
  2  3  1  0
  3  4  2  0
  3  5  1  0
  5  6  1  0
  6  7  1  0
  7  8  1  0
  8  9  1  0
  9  7  1  0
  1 10  1  0
  1 11  1  0
  1 12  1  0
  5 13  1  0
  5 14  1  0
  7 15  1  0
  8 16  1  0
  8 17  1  0
  9 18  1  0
  9 19  1  0
M  END
