
     RDKit          3D

 23 23  0  0  0  0  0  0  0  0999 V2000
    2.0880    1.6542   -0.3589 C   0  0  0  0  0  0  0  0  0  0  0  0
    1.0008    1.0749    0.3053 O   0  0  0  0  0  0  0  0  0  0  0  0
    0.7849   -0.2351   -0.1209 C   0  0  0  0  0  0  0  0  0  0  0  0
    0.9611   -1.1318    1.0698 C   0  0  0  0  0  0  0  0  0  0  0  0
   -0.6089   -0.2991   -0.7055 C   0  0  0  0  0  0  0  0  0  0  0  0
   -0.9477   -1.6851   -1.2018 C   0  0  0  0  0  0  0  0  0  0  0  0
   -1.5797    0.0946    0.3451 C   0  0  0  0  0  0  0  0  0  0  0  0
   -1.6198    1.3493    1.0241 C   0  0  0  0  0  0  0  0  0  0  0  0
   -2.5023    1.1403   -0.1728 O   0  0  0  0  0  0  0  0  0  0  0  0
    2.2066    2.6804    0.0184 H   0  0  0  0  0  0  0  0  0  0  0  0
    1.9272    1.6047   -1.4481 H   0  0  0  0  0  0  0  0  0  0  0  0
    2.9886    1.0639   -0.0584 H   0  0  0  0  0  0  0  0  0  0  0  0
    1.5385   -0.5232   -0.9032 H   0  0  0  0  0  0  0  0  0  0  0  0
    1.7040   -0.6959    1.7880 H   0  0  0  0  0  0  0  0  0  0  0  0
    0.0201   -1.2432    1.6657 H   0  0  0  0  0  0  0  0  0  0  0  0
    1.3676   -2.1198    0.7714 H   0  0  0  0  0  0  0  0  0  0  0  0
   -0.5980    0.3784   -1.5869 H   0  0  0  0  0  0  0  0  0  0  0  0
   -0.1494   -2.1433   -1.7941 H   0  0  0  0  0  0  0  0  0  0  0  0
   -1.8925   -1.6119   -1.7769 H   0  0  0  0  0  0  0  0  0  0  0  0
   -1.2113   -2.2880   -0.2852 H   0  0  0  0  0  0  0  0  0  0  0  0
   -2.2318   -0.7248    0.7287 H   0  0  0  0  0  0  0  0  0  0  0  0
   -0.9856    2.2032    0.7845 H   0  0  0  0  0  0  0  0  0  0  0  0
   -2.2605    1.4570    1.9117 H   0  0  0  0  0  0  0  0  0  0  0  0
  1  2  1  0
  2  3  1  0
  3  4  1  0
  3  5  1  0
  5  6  1  0
  5  7  1  0
  7  8  1  0
  8  9  1  0
  9  7  1  0
  1 10  1  0
  1 11  1  0
  1 12  1  0
  3 13  1  0
  4 14  1  0
  4 15  1  0
  4 16  1  0
  5 17  1  0
  6 18  1  0
  6 19  1  0
  6 20  1  0
  7 21  1  0
  8 22  1  0
  8 23  1  0
M  END
