
     RDKit          3D

 17 17  0  0  0  0  0  0  0  0999 V2000
    2.7164    0.6361   -0.5722 C   0  0  0  0  0  0  0  0  0  0  0  0
    1.6516   -0.2985   -0.4049 O   0  0  0  0  0  0  0  0  0  0  0  0
    0.5653   -0.0011    0.4066 C   0  0  0  0  0  0  0  0  0  0  0  0
    0.5785    1.1205    0.9730 O   0  0  0  0  0  0  0  0  0  0  0  0
   -0.5382   -0.9746    0.5775 C   0  0  0  0  0  0  0  0  0  0  0  0
   -0.2547   -2.1144   -0.1783 O   0  0  0  0  0  0  0  0  0  0  0  0
   -1.8461   -0.4376    0.0956 C   0  0  0  0  0  0  0  0  0  0  0  0
   -2.0850    0.8608   -0.4376 C   0  0  0  0  0  0  0  0  0  0  0  0
   -1.7044   -0.1053   -1.3488 O   0  0  0  0  0  0  0  0  0  0  0  0
    2.4541    1.4334   -1.3040 H   0  0  0  0  0  0  0  0  0  0  0  0
    2.9718    1.1417    0.3835 H   0  0  0  0  0  0  0  0  0  0  0  0
    3.5673    0.0680   -0.9995 H   0  0  0  0  0  0  0  0  0  0  0  0
   -0.6189   -1.3222    1.6324 H   0  0  0  0  0  0  0  0  0  0  0  0
   -0.2091   -1.8164   -1.1287 H   0  0  0  0  0  0  0  0  0  0  0  0
   -2.7039   -1.1170    0.2874 H   0  0  0  0  0  0  0  0  0  0  0  0
   -1.4056    1.7397   -0.2715 H   0  0  0  0  0  0  0  0  0  0  0  0
   -3.1389    1.1870   -0.5654 H   0  0  0  0  0  0  0  0  0  0  0  0
  1  2  1  0
  2  3  1  0
  3  4  2  0
  3  5  1  0
  5  6  1  0
  5  7  1  0
  7  8  1  0
  8  9  1  0
  9  7  1  0
  1 10  1  0
  1 11  1  0
  1 12  1  0
  5 13  1  0
  6 14  1  0
  7 15  1  0
  8 16  1  0
  8 17  1  0
M  END
