
     RDKit          3D

 17 16  0  0  0  0  0  0  0  0999 V2000
   -2.2073   -0.7360    0.2518 C   0  0  0  0  0  0  0  0  0  0  0  0
   -0.9922   -0.2553    0.7453 O   0  0  0  0  0  0  0  0  0  0  0  0
   -0.2402    0.3936   -0.2133 C   0  0  0  0  0  0  0  0  0  0  0  0
    0.0283    1.7722    0.2716 C   0  0  0  0  0  0  0  0  0  0  0  0
   -0.3545    2.2324    1.3297 O   0  0  0  0  0  0  0  0  0  0  0  0
    1.0668   -0.3781   -0.4088 C   0  0  0  0  0  0  0  0  0  0  0  0
    1.8652    0.2376   -1.3699 O   0  0  0  0  0  0  0  0  0  0  0  0
    1.7728   -0.5931    0.8608 C   0  0  0  0  0  0  0  0  0  0  0  0
    2.9335   -0.2427    0.9836 O   0  0  0  0  0  0  0  0  0  0  0  0
   -2.0766   -1.4561   -0.5667 H   0  0  0  0  0  0  0  0  0  0  0  0
   -2.8540    0.0889   -0.1357 H   0  0  0  0  0  0  0  0  0  0  0  0
   -2.7323   -1.1879    1.1274 H   0  0  0  0  0  0  0  0  0  0  0  0
   -0.7578    0.4041   -1.1982 H   0  0  0  0  0  0  0  0  0  0  0  0
    0.6122    2.4173   -0.3709 H   0  0  0  0  0  0  0  0  0  0  0  0
    0.7724   -1.3861   -0.7987 H   0  0  0  0  0  0  0  0  0  0  0  0
    1.8566   -0.2540   -2.2220 H   0  0  0  0  0  0  0  0  0  0  0  0
    1.3070   -1.0570    1.7141 H   0  0  0  0  0  0  0  0  0  0  0  0
  1  2  1  0
  2  3  1  0
  3  4  1  0
  4  5  2  0
  3  6  1  0
  6  7  1  0
  6  8  1  0
  8  9  2  0
  1 10  1  0
  1 11  1  0
  1 12  1  0
  3 13  1  0
  4 14  1  0
  6 15  1  0
  7 16  1  0
  8 17  1  0
M  END
