
     RDKit          3D

 17 16  0  0  0  0  0  0  0  0999 V2000
    2.2156   -0.2774    0.1996 C   0  0  0  0  0  0  0  0  0  0  0  0
    1.0761   -0.6964   -0.4821 O   0  0  0  0  0  0  0  0  0  0  0  0
   -0.0575   -0.0339   -0.1169 C   0  0  0  0  0  0  0  0  0  0  0  0
   -0.4005   -0.1788    1.3218 C   0  0  0  0  0  0  0  0  0  0  0  0
   -1.4091    0.4025    1.6784 O   0  0  0  0  0  0  0  0  0  0  0  0
    0.0098    1.4304   -0.3993 C   0  0  0  0  0  0  0  0  0  0  0  0
   -0.9590    2.1155   -0.1077 O   0  0  0  0  0  0  0  0  0  0  0  0
   -1.2250   -0.6302   -0.8987 C   0  0  0  0  0  0  0  0  0  0  0  0
   -2.4167   -0.0033   -0.5777 O   0  0  0  0  0  0  0  0  0  0  0  0
    2.3716    0.7987   -0.0048 H   0  0  0  0  0  0  0  0  0  0  0  0
    2.0583   -0.4913    1.2741 H   0  0  0  0  0  0  0  0  0  0  0  0
    3.1228   -0.7963   -0.1697 H   0  0  0  0  0  0  0  0  0  0  0  0
    0.1724   -0.7480    2.0392 H   0  0  0  0  0  0  0  0  0  0  0  0
    0.8750    1.8990   -0.8471 H   0  0  0  0  0  0  0  0  0  0  0  0
   -1.3304   -1.7016   -0.6570 H   0  0  0  0  0  0  0  0  0  0  0  0
   -0.9939   -0.4434   -1.9726 H   0  0  0  0  0  0  0  0  0  0  0  0
   -3.1095   -0.6456   -0.2795 H   0  0  0  0  0  0  0  0  0  0  0  0
  1  2  1  0
  2  3  1  0
  3  4  1  0
  4  5  2  0
  3  6  1  0
  6  7  2  0
  3  8  1  0
  8  9  1  0
  1 10  1  0
  1 11  1  0
  1 12  1  0
  4 13  1  0
  6 14  1  0
  8 15  1  0
  8 16  1  0
  9 17  1  0
M  END
