
     RDKit          3D

 19 18  0  0  0  0  0  0  0  0999 V2000
    3.5178    0.5013   -0.2045 C   0  0  0  0  0  0  0  0  0  0  0  0
    2.1757    0.7351   -0.6023 O   0  0  0  0  0  0  0  0  0  0  0  0
    1.1068    0.0210   -0.1028 C   0  0  0  0  0  0  0  0  0  0  0  0
    1.3790   -0.8712    0.7438 O   0  0  0  0  0  0  0  0  0  0  0  0
   -0.2867    0.3034   -0.5519 C   0  0  0  0  0  0  0  0  0  0  0  0
   -1.2917   -0.5789    0.1094 C   0  0  0  0  0  0  0  0  0  0  0  0
   -1.0609   -1.9353   -0.1512 O   0  0  0  0  0  0  0  0  0  0  0  0
   -2.6644   -0.1688   -0.4142 C   0  0  0  0  0  0  0  0  0  0  0  0
   -2.7967    1.2022   -0.1042 O   0  0  0  0  0  0  0  0  0  0  0  0
    3.7118    0.8103    0.8300 H   0  0  0  0  0  0  0  0  0  0  0  0
    4.1540    1.0706   -0.9311 H   0  0  0  0  0  0  0  0  0  0  0  0
    3.7551   -0.5759   -0.3859 H   0  0  0  0  0  0  0  0  0  0  0  0
   -0.3631    0.1615   -1.6422 H   0  0  0  0  0  0  0  0  0  0  0  0
   -0.5079    1.3471   -0.2704 H   0  0  0  0  0  0  0  0  0  0  0  0
   -1.2409   -0.3884    1.2059 H   0  0  0  0  0  0  0  0  0  0  0  0
   -0.6167   -2.3663    0.6162 H   0  0  0  0  0  0  0  0  0  0  0  0
   -2.6632   -0.2591   -1.5200 H   0  0  0  0  0  0  0  0  0  0  0  0
   -3.4721   -0.7605    0.0304 H   0  0  0  0  0  0  0  0  0  0  0  0
   -2.8357    1.7519   -0.9481 H   0  0  0  0  0  0  0  0  0  0  0  0
  1  2  1  0
  2  3  1  0
  3  4  2  0
  3  5  1  0
  5  6  1  0
  6  7  1  0
  6  8  1  0
  8  9  1  0
  1 10  1  0
  1 11  1  0
  1 12  1  0
  5 13  1  0
  5 14  1  0
  6 15  1  0
  7 16  1  0
  8 17  1  0
  8 18  1  0
  9 19  1  0
M  END
