
     RDKit          3D

 23 23  0  0  0  0  0  0  0  0999 V2000
    1.9361   -1.3231   -1.0553 C   0  0  0  0  0  0  0  0  0  0  0  0
    1.2800   -0.1037   -0.8497 O   0  0  0  0  0  0  0  0  0  0  0  0
    0.6002   -0.0679    0.3501 C   0  0  0  0  0  0  0  0  0  0  0  0
    1.1526    0.9840    1.2842 C   0  0  0  0  0  0  0  0  0  0  0  0
    1.0677    2.2456    0.7345 O   0  0  0  0  0  0  0  0  0  0  0  0
   -0.8874    0.0792    0.1445 C   0  0  0  0  0  0  0  0  0  0  0  0
   -1.3877    1.3121   -0.5889 C   0  0  0  0  0  0  0  0  0  0  0  0
   -1.8151   -0.5616    1.1604 C   0  0  0  0  0  0  0  0  0  0  0  0
   -1.6169   -1.1835   -0.2416 C   0  0  0  0  0  0  0  0  0  0  0  0
    2.4482   -1.2521   -2.0378 H   0  0  0  0  0  0  0  0  0  0  0  0
    2.6872   -1.5098   -0.2385 H   0  0  0  0  0  0  0  0  0  0  0  0
    1.2038   -2.1618   -1.0401 H   0  0  0  0  0  0  0  0  0  0  0  0
    0.7596   -1.0503    0.8519 H   0  0  0  0  0  0  0  0  0  0  0  0
    2.2414    0.7360    1.4134 H   0  0  0  0  0  0  0  0  0  0  0  0
    0.6561    0.8728    2.2504 H   0  0  0  0  0  0  0  0  0  0  0  0
    1.9510    2.6291    0.5512 H   0  0  0  0  0  0  0  0  0  0  0  0
   -2.4942    1.2664   -0.6417 H   0  0  0  0  0  0  0  0  0  0  0  0
   -1.1201    2.2487   -0.0885 H   0  0  0  0  0  0  0  0  0  0  0  0
   -0.9146    1.3101   -1.5990 H   0  0  0  0  0  0  0  0  0  0  0  0
   -2.8004   -0.0894    1.3628 H   0  0  0  0  0  0  0  0  0  0  0  0
   -1.3291   -1.1129    1.9922 H   0  0  0  0  0  0  0  0  0  0  0  0
   -2.5158   -1.1259   -0.8795 H   0  0  0  0  0  0  0  0  0  0  0  0
   -1.1023   -2.1420   -0.2745 H   0  0  0  0  0  0  0  0  0  0  0  0
  1  2  1  0
  2  3  1  0
  3  4  1  0
  4  5  1  0
  3  6  1  0
  6  7  1  0
  6  8  1  0
  8  9  1  0
  9  6  1  0
  1 10  1  0
  1 11  1  0
  1 12  1  0
  3 13  1  0
  4 14  1  0
  4 15  1  0
  5 16  1  0
  7 17  1  0
  7 18  1  0
  7 19  1  0
  8 20  1  0
  8 21  1  0
  9 22  1  0
  9 23  1  0
M  END
