
     RDKit          3D

 19 19  0  0  0  0  0  0  0  0999 V2000
    3.0314    0.5350    0.2385 C   0  0  0  0  0  0  0  0  0  0  0  0
    1.6435    0.3517    0.3615 O   0  0  0  0  0  0  0  0  0  0  0  0
    0.7931    0.0003   -0.6453 C   0  0  0  0  0  0  0  0  0  0  0  0
    1.2439   -0.1843   -1.8013 O   0  0  0  0  0  0  0  0  0  0  0  0
   -0.6530   -0.1576   -0.3471 C   0  0  0  0  0  0  0  0  0  0  0  0
   -1.5131   -0.9218   -1.3369 C   0  0  0  0  0  0  0  0  0  0  0  0
   -1.3907    1.0427    0.2575 C   0  0  0  0  0  0  0  0  0  0  0  0
   -1.0680   -0.1297    1.1191 C   0  0  0  0  0  0  0  0  0  0  0  0
   -2.0380   -0.9891    1.5691 O   0  0  0  0  0  0  0  0  0  0  0  0
    3.5678   -0.4058    0.5403 H   0  0  0  0  0  0  0  0  0  0  0  0
    3.3149    1.3134    0.9941 H   0  0  0  0  0  0  0  0  0  0  0  0
    3.3544    0.9238   -0.7361 H   0  0  0  0  0  0  0  0  0  0  0  0
   -2.1994   -0.1885   -1.8430 H   0  0  0  0  0  0  0  0  0  0  0  0
   -0.8229   -1.3141   -2.1260 H   0  0  0  0  0  0  0  0  0  0  0  0
   -2.0679   -1.7598   -0.8676 H   0  0  0  0  0  0  0  0  0  0  0  0
   -0.7804    1.9747    0.3408 H   0  0  0  0  0  0  0  0  0  0  0  0
   -2.4318    1.2345    0.0003 H   0  0  0  0  0  0  0  0  0  0  0  0
   -0.2130    0.0581    1.8288 H   0  0  0  0  0  0  0  0  0  0  0  0
   -1.7708   -1.3835    2.4532 H   0  0  0  0  0  0  0  0  0  0  0  0
  1  2  1  0
  2  3  1  0
  3  4  2  0
  3  5  1  0
  5  6  1  0
  5  7  1  0
  7  8  1  0
  8  9  1  0
  8  5  1  0
  1 10  1  0
  1 11  1  0
  1 12  1  0
  6 13  1  0
  6 14  1  0
  6 15  1  0
  7 16  1  0
  7 17  1  0
  8 18  1  0
  9 19  1  0
M  END
