
     RDKit          3D

 21 22  0  0  0  0  0  0  0  0999 V2000
   -1.6403   -1.6387    0.3311 C   0  0  0  0  0  0  0  0  0  0  0  0
   -0.6488   -0.8168    0.8561 O   0  0  0  0  0  0  0  0  0  0  0  0
   -0.2618    0.1783   -0.0335 C   0  0  0  0  0  0  0  0  0  0  0  0
    1.1946    0.0752   -0.3449 C   0  0  0  0  0  0  0  0  0  0  0  0
    1.7822   -1.1373   -0.9608 C   0  0  0  0  0  0  0  0  0  0  0  0
    1.9602   -0.9414    0.4991 C   0  0  0  0  0  0  0  0  0  0  0  0
   -0.4717    1.5281    0.6217 C   0  0  0  0  0  0  0  0  0  0  0  0
   -1.3899    2.4968    0.0524 C   0  0  0  0  0  0  0  0  0  0  0  0
   -0.0435    2.5618   -0.3694 O   0  0  0  0  0  0  0  0  0  0  0  0
   -1.3161   -2.1550   -0.5940 H   0  0  0  0  0  0  0  0  0  0  0  0
   -1.9325   -2.3376    1.1429 H   0  0  0  0  0  0  0  0  0  0  0  0
   -2.4872   -0.9858    0.0421 H   0  0  0  0  0  0  0  0  0  0  0  0
   -0.8465    0.0944   -0.9932 H   0  0  0  0  0  0  0  0  0  0  0  0
    1.6883    1.0749   -0.5140 H   0  0  0  0  0  0  0  0  0  0  0  0
    1.1186   -1.9346   -1.3288 H   0  0  0  0  0  0  0  0  0  0  0  0
    2.6767   -0.9588   -1.5952 H   0  0  0  0  0  0  0  0  0  0  0  0
    1.3737   -1.6304    1.1387 H   0  0  0  0  0  0  0  0  0  0  0  0
    2.9154   -0.6293    0.9272 H   0  0  0  0  0  0  0  0  0  0  0  0
    0.1366    1.6827    1.5162 H   0  0  0  0  0  0  0  0  0  0  0  0
   -2.1352    2.1096   -0.6768 H   0  0  0  0  0  0  0  0  0  0  0  0
   -1.6729    3.3638    0.6874 H   0  0  0  0  0  0  0  0  0  0  0  0
  1  2  1  0
  2  3  1  0
  3  4  1  0
  4  5  1  0
  5  6  1  0
  3  7  1  0
  7  8  1  0
  8  9  1  0
  6  4  1  0
  9  7  1  0
  1 10  1  0
  1 11  1  0
  1 12  1  0
  3 13  1  0
  4 14  1  0
  5 15  1  0
  5 16  1  0
  6 17  1  0
  6 18  1  0
  7 19  1  0
  8 20  1  0
  8 21  1  0
M  END
