
     RDKit          3D

 21 20  0  0  0  0  0  0  0  0999 V2000
    2.1722    0.1797    0.5363 C   0  0  0  0  0  0  0  0  0  0  0  0
    1.0350    0.8347    0.1700 O   0  0  0  0  0  0  0  0  0  0  0  0
   -0.0842    0.0871    0.0042 C   0  0  0  0  0  0  0  0  0  0  0  0
   -0.4460   -0.6299    1.3027 C   0  0  0  0  0  0  0  0  0  0  0  0
   -0.6809    0.2948    2.3259 O   0  0  0  0  0  0  0  0  0  0  0  0
   -0.0204   -0.9390   -1.0773 C   0  0  0  0  0  0  0  0  0  0  0  0
    0.2122   -0.3576   -2.3022 O   0  0  0  0  0  0  0  0  0  0  0  0
   -1.2314    1.0698   -0.2697 C   0  0  0  0  0  0  0  0  0  0  0  0
   -0.9627    1.8133   -1.4204 O   0  0  0  0  0  0  0  0  0  0  0  0
    2.0351   -0.3432    1.5148 H   0  0  0  0  0  0  0  0  0  0  0  0
    2.9680    0.9385    0.7122 H   0  0  0  0  0  0  0  0  0  0  0  0
    2.5744   -0.5310   -0.1971 H   0  0  0  0  0  0  0  0  0  0  0  0
   -1.4053   -1.1829    1.0944 H   0  0  0  0  0  0  0  0  0  0  0  0
    0.2865   -1.3950    1.5777 H   0  0  0  0  0  0  0  0  0  0  0  0
   -1.5731    0.1466    2.7101 H   0  0  0  0  0  0  0  0  0  0  0  0
   -1.0177   -1.4511   -1.1125 H   0  0  0  0  0  0  0  0  0  0  0  0
    0.7064   -1.7217   -0.7979 H   0  0  0  0  0  0  0  0  0  0  0  0
    0.6285   -1.0133   -2.9273 H   0  0  0  0  0  0  0  0  0  0  0  0
   -1.2535    1.7939    0.5692 H   0  0  0  0  0  0  0  0  0  0  0  0
   -2.1874    0.5244   -0.3994 H   0  0  0  0  0  0  0  0  0  0  0  0
   -1.7556    1.8820   -2.0139 H   0  0  0  0  0  0  0  0  0  0  0  0
  1  2  1  0
  2  3  1  0
  3  4  1  0
  4  5  1  0
  3  6  1  0
  6  7  1  0
  3  8  1  0
  8  9  1  0
  1 10  1  0
  1 11  1  0
  1 12  1  0
  4 13  1  0
  4 14  1  0
  5 15  1  0
  6 16  1  0
  6 17  1  0
  7 18  1  0
  8 19  1  0
  8 20  1  0
  9 21  1  0
M  END
