
     RDKit          3D

 23 23  0  0  0  0  0  0  0  0999 V2000
   -1.9408    1.5695   -0.6365 C   0  0  0  0  0  0  0  0  0  0  0  0
   -1.1688    0.8900    0.2667 O   0  0  0  0  0  0  0  0  0  0  0  0
   -1.0537   -0.4617    0.0754 C   0  0  0  0  0  0  0  0  0  0  0  0
   -1.6187   -1.2393    1.2676 C   0  0  0  0  0  0  0  0  0  0  0  0
    0.3956   -0.8322   -0.0628 C   0  0  0  0  0  0  0  0  0  0  0  0
    1.0269   -0.1243   -1.2361 C   0  0  0  0  0  0  0  0  0  0  0  0
    2.2764    0.0057   -0.3869 C   0  0  0  0  0  0  0  0  0  0  0  0
    2.8602    1.2558   -0.3949 O   0  0  0  0  0  0  0  0  0  0  0  0
    1.3647   -0.1094    0.8460 C   0  0  0  0  0  0  0  0  0  0  0  0
   -1.9427    2.6629   -0.3686 H   0  0  0  0  0  0  0  0  0  0  0  0
   -3.0120    1.2677   -0.6074 H   0  0  0  0  0  0  0  0  0  0  0  0
   -1.6431    1.5004   -1.6924 H   0  0  0  0  0  0  0  0  0  0  0  0
   -1.5850   -0.8006   -0.8434 H   0  0  0  0  0  0  0  0  0  0  0  0
   -0.7956   -1.4617    1.9945 H   0  0  0  0  0  0  0  0  0  0  0  0
   -2.0587   -2.1785    0.8769 H   0  0  0  0  0  0  0  0  0  0  0  0
   -2.4231   -0.6796    1.7773 H   0  0  0  0  0  0  0  0  0  0  0  0
    0.6022   -1.9288   -0.0458 H   0  0  0  0  0  0  0  0  0  0  0  0
    1.1507   -0.8467   -2.0819 H   0  0  0  0  0  0  0  0  0  0  0  0
    0.6031    0.8347   -1.5465 H   0  0  0  0  0  0  0  0  0  0  0  0
    2.9288   -0.8598   -0.5216 H   0  0  0  0  0  0  0  0  0  0  0  0
    3.1892    1.4216    0.5387 H   0  0  0  0  0  0  0  0  0  0  0  0
    0.9628    0.8507    1.1898 H   0  0  0  0  0  0  0  0  0  0  0  0
    1.8816   -0.7362    1.5919 H   0  0  0  0  0  0  0  0  0  0  0  0
  1  2  1  0
  2  3  1  0
  3  4  1  0
  3  5  1  0
  5  6  1  0
  6  7  1  0
  7  8  1  0
  7  9  1  0
  9  5  1  0
  1 10  1  0
  1 11  1  0
  1 12  1  0
  3 13  1  0
  4 14  1  0
  4 15  1  0
  4 16  1  0
  5 17  1  0
  6 18  1  0
  6 19  1  0
  7 20  1  0
  8 21  1  0
  9 22  1  0
  9 23  1  0
M  END
