
     RDKit          3D

 19 19  0  0  0  0  0  0  0  0999 V2000
    2.1795    1.9595   -0.4309 C   0  0  0  0  0  0  0  0  0  0  0  0
    1.1156    1.1986    0.0601 O   0  0  0  0  0  0  0  0  0  0  0  0
    0.7320   -0.0391   -0.3847 C   0  0  0  0  0  0  0  0  0  0  0  0
    1.4260   -0.5173   -1.3340 O   0  0  0  0  0  0  0  0  0  0  0  0
   -0.4124   -0.7754    0.1983 C   0  0  0  0  0  0  0  0  0  0  0  0
   -1.0986   -0.1448    1.2003 O   0  0  0  0  0  0  0  0  0  0  0  0
   -1.6922    1.0294    0.8271 C   0  0  0  0  0  0  0  0  0  0  0  0
   -1.0900   -1.8435   -0.5893 C   0  0  0  0  0  0  0  0  0  0  0  0
   -0.1693   -2.2755    0.4622 C   0  0  0  0  0  0  0  0  0  0  0  0
    1.8813    2.7157   -1.1802 H   0  0  0  0  0  0  0  0  0  0  0  0
    3.0006    1.3653   -0.8709 H   0  0  0  0  0  0  0  0  0  0  0  0
    2.5904    2.5406    0.4371 H   0  0  0  0  0  0  0  0  0  0  0  0
   -2.4126    0.7881    0.0021 H   0  0  0  0  0  0  0  0  0  0  0  0
   -1.0469    1.8249    0.4527 H   0  0  0  0  0  0  0  0  0  0  0  0
   -2.2932    1.3847    1.7148 H   0  0  0  0  0  0  0  0  0  0  0  0
   -2.2010   -1.8585   -0.4632 H   0  0  0  0  0  0  0  0  0  0  0  0
   -0.8085   -2.0104   -1.6608 H   0  0  0  0  0  0  0  0  0  0  0  0
   -0.5195   -2.6900    1.4308 H   0  0  0  0  0  0  0  0  0  0  0  0
    0.8188   -2.6521    0.1283 H   0  0  0  0  0  0  0  0  0  0  0  0
  1  2  1  0
  2  3  1  0
  3  4  2  0
  3  5  1  0
  5  6  1  0
  6  7  1  0
  5  8  1  0
  8  9  1  0
  9  5  1  0
  1 10  1  0
  1 11  1  0
  1 12  1  0
  7 13  1  0
  7 14  1  0
  7 15  1  0
  8 16  1  0
  8 17  1  0
  9 18  1  0
  9 19  1  0
M  END
