
     RDKit          3D

 20 19  0  0  0  0  0  0  0  0999 V2000
    3.1874    0.4605   -0.8045 C   0  0  0  0  0  0  0  0  0  0  0  0
    1.9795   -0.2298   -0.5177 O   0  0  0  0  0  0  0  0  0  0  0  0
    1.1790    0.1032    0.5659 C   0  0  0  0  0  0  0  0  0  0  0  0
    1.6045    1.0658    1.2799 O   0  0  0  0  0  0  0  0  0  0  0  0
   -0.0831   -0.5747    0.9137 C   0  0  0  0  0  0  0  0  0  0  0  0
   -1.2100    0.2871    0.4166 C   0  0  0  0  0  0  0  0  0  0  0  0
   -2.5699   -0.2976    0.7121 C   0  0  0  0  0  0  0  0  0  0  0  0
   -1.0872    0.3456   -1.1055 C   0  0  0  0  0  0  0  0  0  0  0  0
    3.3283    1.3483   -0.1911 H   0  0  0  0  0  0  0  0  0  0  0  0
    4.0617   -0.2530   -0.7937 H   0  0  0  0  0  0  0  0  0  0  0  0
    3.1040    0.7625   -1.8783 H   0  0  0  0  0  0  0  0  0  0  0  0
   -0.1878   -1.5695    0.4392 H   0  0  0  0  0  0  0  0  0  0  0  0
   -0.1140   -0.7226    2.0133 H   0  0  0  0  0  0  0  0  0  0  0  0
   -1.1295    1.3421    0.7675 H   0  0  0  0  0  0  0  0  0  0  0  0
   -3.2217    0.5147    1.1327 H   0  0  0  0  0  0  0  0  0  0  0  0
   -2.5157   -1.1056    1.4674 H   0  0  0  0  0  0  0  0  0  0  0  0
   -3.0736   -0.7008   -0.1808 H   0  0  0  0  0  0  0  0  0  0  0  0
   -0.9927   -0.6988   -1.4626 H   0  0  0  0  0  0  0  0  0  0  0  0
   -0.2165    0.9830   -1.3225 H   0  0  0  0  0  0  0  0  0  0  0  0
   -2.0425    0.8148   -1.4516 H   0  0  0  0  0  0  0  0  0  0  0  0
  1  2  1  0
  2  3  1  0
  3  4  2  0
  3  5  1  0
  5  6  1  0
  6  7  1  0
  6  8  1  0
  1  9  1  0
  1 10  1  0
  1 11  1  0
  5 12  1  0
  5 13  1  0
  6 14  1  0
  7 15  1  0
  7 16  1  0
  7 17  1  0
  8 18  1  0
  8 19  1  0
  8 20  1  0
M  END
