
     RDKit          3D

 25 25  0  0  0  0  0  0  0  0999 V2000
    2.4864    1.6501   -0.4332 C   0  0  0  0  0  0  0  0  0  0  0  0
    1.8595    0.8570    0.5287 O   0  0  0  0  0  0  0  0  0  0  0  0
    1.1982   -0.2309   -0.0422 C   0  0  0  0  0  0  0  0  0  0  0  0
    1.7932   -1.4770    0.5867 C   0  0  0  0  0  0  0  0  0  0  0  0
   -0.2350   -0.1478    0.4028 C   0  0  0  0  0  0  0  0  0  0  0  0
   -1.0911   -1.2624   -0.1337 C   0  0  0  0  0  0  0  0  0  0  0  0
   -2.4789   -0.6719   -0.3276 C   0  0  0  0  0  0  0  0  0  0  0  0
   -2.3758    0.7094    0.2936 C   0  0  0  0  0  0  0  0  0  0  0  0
   -0.9452    1.0727   -0.1312 C   0  0  0  0  0  0  0  0  0  0  0  0
    2.9773    2.4792    0.1267 H   0  0  0  0  0  0  0  0  0  0  0  0
    3.1900    1.0977   -1.0645 H   0  0  0  0  0  0  0  0  0  0  0  0
    1.7071    2.1573   -1.0663 H   0  0  0  0  0  0  0  0  0  0  0  0
    1.3058   -0.2437   -1.1454 H   0  0  0  0  0  0  0  0  0  0  0  0
    1.0278   -2.2848    0.4475 H   0  0  0  0  0  0  0  0  0  0  0  0
    1.8094   -1.2804    1.6922 H   0  0  0  0  0  0  0  0  0  0  0  0
    2.7754   -1.7324    0.1975 H   0  0  0  0  0  0  0  0  0  0  0  0
   -0.2569   -0.1600    1.5023 H   0  0  0  0  0  0  0  0  0  0  0  0
   -1.1241   -2.1092    0.5902 H   0  0  0  0  0  0  0  0  0  0  0  0
   -0.7153   -1.6632   -1.1051 H   0  0  0  0  0  0  0  0  0  0  0  0
   -3.2572   -1.2905    0.1289 H   0  0  0  0  0  0  0  0  0  0  0  0
   -2.6580   -0.4934   -1.4280 H   0  0  0  0  0  0  0  0  0  0  0  0
   -3.1085    1.4162   -0.0787 H   0  0  0  0  0  0  0  0  0  0  0  0
   -2.3427    0.5844    1.3883 H   0  0  0  0  0  0  0  0  0  0  0  0
   -0.9321    1.0141   -1.2277 H   0  0  0  0  0  0  0  0  0  0  0  0
   -0.6093    2.0095    0.2982 H   0  0  0  0  0  0  0  0  0  0  0  0
  1  2  1  0
  2  3  1  0
  3  4  1  0
  3  5  1  0
  5  6  1  0
  6  7  1  0
  7  8  1  0
  8  9  1  0
  9  5  1  0
  1 10  1  0
  1 11  1  0
  1 12  1  0
  3 13  1  0
  4 14  1  0
  4 15  1  0
  4 16  1  0
  5 17  1  0
  6 18  1  0
  6 19  1  0
  7 20  1  0
  7 21  1  0
  8 22  1  0
  8 23  1  0
  9 24  1  0
  9 25  1  0
M  END
