
     RDKit          3D

 19 20  0  0  0  0  0  0  0  0999 V2000
    3.3087    0.4491    0.4543 C   0  0  0  0  0  0  0  0  0  0  0  0
    1.9175    0.3391    0.2811 O   0  0  0  0  0  0  0  0  0  0  0  0
    1.2799   -0.7814   -0.2130 C   0  0  0  0  0  0  0  0  0  0  0  0
    1.9826   -1.7687   -0.5295 O   0  0  0  0  0  0  0  0  0  0  0  0
   -0.1879   -0.8573   -0.3803 C   0  0  0  0  0  0  0  0  0  0  0  0
   -0.9646   -0.1849    0.7131 C   0  0  0  0  0  0  0  0  0  0  0  0
   -2.4574   -0.2710    0.5782 C   0  0  0  0  0  0  0  0  0  0  0  0
   -2.3535    0.5619   -0.6809 C   0  0  0  0  0  0  0  0  0  0  0  0
   -0.8680    0.4120   -0.7070 C   0  0  0  0  0  0  0  0  0  0  0  0
    3.5379    1.0587    1.3694 H   0  0  0  0  0  0  0  0  0  0  0  0
    3.6954    1.0322   -0.4154 H   0  0  0  0  0  0  0  0  0  0  0  0
    3.8056   -0.5321    0.4616 H   0  0  0  0  0  0  0  0  0  0  0  0
   -0.5952   -1.8049   -0.7856 H   0  0  0  0  0  0  0  0  0  0  0  0
   -0.4835    0.3449    1.5270 H   0  0  0  0  0  0  0  0  0  0  0  0
   -2.8596   -1.2888    0.3583 H   0  0  0  0  0  0  0  0  0  0  0  0
   -2.9596    0.2021    1.4246 H   0  0  0  0  0  0  0  0  0  0  0  0
   -2.9203    0.1380   -1.5257 H   0  0  0  0  0  0  0  0  0  0  0  0
   -2.6285    1.6273   -0.4330 H   0  0  0  0  0  0  0  0  0  0  0  0
   -0.2494    1.3237   -0.8224 H   0  0  0  0  0  0  0  0  0  0  0  0
  1  2  1  0
  2  3  1  0
  3  4  2  0
  3  5  1  0
  5  6  1  0
  6  7  1  0
  7  8  1  0
  8  9  1  0
  9  5  1  0
  9  6  1  0
  1 10  1  0
  1 11  1  0
  1 12  1  0
  5 13  1  0
  6 14  1  0
  7 15  1  0
  7 16  1  0
  8 17  1  0
  8 18  1  0
  9 19  1  0
M  END
