
     RDKit          3D

 19 18  0  0  0  0  0  0  0  0999 V2000
    2.5113   -0.7237    0.2802 C   0  0  0  0  0  0  0  0  0  0  0  0
    1.3417   -0.4852   -0.4649 O   0  0  0  0  0  0  0  0  0  0  0  0
    0.5663    0.4432    0.1903 C   0  0  0  0  0  0  0  0  0  0  0  0
    0.3462    1.6726   -0.5941 C   0  0  0  0  0  0  0  0  0  0  0  0
   -0.3337    2.5549   -0.0879 O   0  0  0  0  0  0  0  0  0  0  0  0
   -0.7638   -0.1521    0.6424 C   0  0  0  0  0  0  0  0  0  0  0  0
   -1.4446    0.8863    1.2861 O   0  0  0  0  0  0  0  0  0  0  0  0
   -1.4875   -0.6299   -0.5907 C   0  0  0  0  0  0  0  0  0  0  0  0
   -2.7601   -1.1063   -0.2816 O   0  0  0  0  0  0  0  0  0  0  0  0
    3.1023    0.1929    0.4111 H   0  0  0  0  0  0  0  0  0  0  0  0
    2.1549   -1.0287    1.2967 H   0  0  0  0  0  0  0  0  0  0  0  0
    3.1266   -1.5216   -0.1603 H   0  0  0  0  0  0  0  0  0  0  0  0
    1.0728    0.7655    1.1478 H   0  0  0  0  0  0  0  0  0  0  0  0
    0.7431    1.8533   -1.5883 H   0  0  0  0  0  0  0  0  0  0  0  0
   -0.6275   -0.9449    1.3827 H   0  0  0  0  0  0  0  0  0  0  0  0
   -2.1142    1.2244    0.6526 H   0  0  0  0  0  0  0  0  0  0  0  0
   -1.5386    0.2270   -1.2983 H   0  0  0  0  0  0  0  0  0  0  0  0
   -0.9138   -1.4395   -1.0345 H   0  0  0  0  0  0  0  0  0  0  0  0
   -2.9812   -1.7881   -0.9659 H   0  0  0  0  0  0  0  0  0  0  0  0
  1  2  1  0
  2  3  1  0
  3  4  1  0
  4  5  2  0
  3  6  1  0
  6  7  1  0
  6  8  1  0
  8  9  1  0
  1 10  1  0
  1 11  1  0
  1 12  1  0
  3 13  1  0
  4 14  1  0
  6 15  1  0
  7 16  1  0
  8 17  1  0
  8 18  1  0
  9 19  1  0
M  END
