
     RDKit          3D

 16 16  0  0  0  0  0  0  0  0999 V2000
    2.7966    0.1322    0.3783 C   0  0  0  0  0  0  0  0  0  0  0  0
    1.5071    0.2412   -0.1933 O   0  0  0  0  0  0  0  0  0  0  0  0
    0.4172   -0.4847    0.1764 C   0  0  0  0  0  0  0  0  0  0  0  0
    0.5291   -1.3288    1.0962 O   0  0  0  0  0  0  0  0  0  0  0  0
   -0.9020   -0.3066   -0.4776 C   0  0  0  0  0  0  0  0  0  0  0  0
   -1.3610    1.1311   -0.2871 C   0  0  0  0  0  0  0  0  0  0  0  0
   -2.6161    0.6160    0.0515 O   0  0  0  0  0  0  0  0  0  0  0  0
   -2.0959   -0.6603    0.3700 C   0  0  0  0  0  0  0  0  0  0  0  0
    3.1677    1.0707    0.7944 H   0  0  0  0  0  0  0  0  0  0  0  0
    3.4810   -0.1571   -0.4526 H   0  0  0  0  0  0  0  0  0  0  0  0
    2.8433   -0.6940    1.1211 H   0  0  0  0  0  0  0  0  0  0  0  0
   -0.9520   -0.6572   -1.5273 H   0  0  0  0  0  0  0  0  0  0  0  0
   -1.3007    1.6812   -1.2263 H   0  0  0  0  0  0  0  0  0  0  0  0
   -0.8627    1.6670    0.5424 H   0  0  0  0  0  0  0  0  0  0  0  0
   -1.9233   -0.8365    1.4283 H   0  0  0  0  0  0  0  0  0  0  0  0
   -2.7283   -1.4143   -0.1675 H   0  0  0  0  0  0  0  0  0  0  0  0
  1  2  1  0
  2  3  1  0
  3  4  2  0
  3  5  1  0
  5  6  1  0
  6  7  1  0
  7  8  1  0
  8  5  1  0
  1  9  1  0
  1 10  1  0
  1 11  1  0
  5 12  1  0
  6 13  1  0
  6 14  1  0
  8 15  1  0
  8 16  1  0
M  END
