
     RDKit          3D

 17 16  0  0  0  0  0  0  0  0999 V2000
   -1.8228   -0.8881   -0.8568 C   0  0  0  0  0  0  0  0  0  0  0  0
   -0.8430   -0.8474    0.1369 O   0  0  0  0  0  0  0  0  0  0  0  0
   -0.5633    0.4899    0.4116 C   0  0  0  0  0  0  0  0  0  0  0  0
   -0.7578    0.7513    1.8503 C   0  0  0  0  0  0  0  0  0  0  0  0
   -1.1087   -0.1347    2.5866 O   0  0  0  0  0  0  0  0  0  0  0  0
    0.8475    0.8383    0.0976 C   0  0  0  0  0  0  0  0  0  0  0  0
    1.2183    1.9620    0.2892 O   0  0  0  0  0  0  0  0  0  0  0  0
    1.6896   -0.2646   -0.4379 C   0  0  0  0  0  0  0  0  0  0  0  0
    2.9878    0.1583   -0.7002 O   0  0  0  0  0  0  0  0  0  0  0  0
   -2.7484   -0.3667   -0.4961 H   0  0  0  0  0  0  0  0  0  0  0  0
   -2.0567   -1.9130   -1.1817 H   0  0  0  0  0  0  0  0  0  0  0  0
   -1.4814   -0.3357   -1.7479 H   0  0  0  0  0  0  0  0  0  0  0  0
   -1.1870    1.1709   -0.2259 H   0  0  0  0  0  0  0  0  0  0  0  0
   -0.5843    1.7358    2.2345 H   0  0  0  0  0  0  0  0  0  0  0  0
    1.1733   -0.6904   -1.2973 H   0  0  0  0  0  0  0  0  0  0  0  0
    1.7648   -1.0250    0.3853 H   0  0  0  0  0  0  0  0  0  0  0  0
    3.4723   -0.6410   -1.0484 H   0  0  0  0  0  0  0  0  0  0  0  0
  1  2  1  0
  2  3  1  0
  3  4  1  0
  4  5  2  0
  3  6  1  0
  6  7  2  0
  6  8  1  0
  8  9  1  0
  1 10  1  0
  1 11  1  0
  1 12  1  0
  3 13  1  0
  4 14  1  0
  8 15  1  0
  8 16  1  0
  9 17  1  0
M  END
