
     RDKit          3D

 16 15  0  0  0  0  0  0  0  0999 V2000
    2.0336    0.9546    0.3489 C   0  0  0  0  0  0  0  0  0  0  0  0
    1.2126   -0.1021    0.7384 O   0  0  0  0  0  0  0  0  0  0  0  0
    0.0785   -0.0503   -0.0720 C   0  0  0  0  0  0  0  0  0  0  0  0
    0.0658   -1.3339   -0.8823 C   0  0  0  0  0  0  0  0  0  0  0  0
   -1.1487    0.1115    0.7245 C   0  0  0  0  0  0  0  0  0  0  0  0
   -1.0476    0.1813    1.9736 O   0  0  0  0  0  0  0  0  0  0  0  0
   -2.4238    0.1833    0.0273 C   0  0  0  0  0  0  0  0  0  0  0  0
   -2.5074    0.1128   -1.2081 O   0  0  0  0  0  0  0  0  0  0  0  0
    1.4698    1.8940    0.4984 H   0  0  0  0  0  0  0  0  0  0  0  0
    2.9462    1.0305    0.9704 H   0  0  0  0  0  0  0  0  0  0  0  0
    2.2802    0.7953   -0.7187 H   0  0  0  0  0  0  0  0  0  0  0  0
    0.1113    0.7899   -0.7994 H   0  0  0  0  0  0  0  0  0  0  0  0
    1.1127   -1.5045   -1.2249 H   0  0  0  0  0  0  0  0  0  0  0  0
   -0.2015   -2.1637   -0.2114 H   0  0  0  0  0  0  0  0  0  0  0  0
   -0.6387   -1.2011   -1.7064 H   0  0  0  0  0  0  0  0  0  0  0  0
   -3.3430    0.3025    0.5921 H   0  0  0  0  0  0  0  0  0  0  0  0
  1  2  1  0
  2  3  1  0
  3  4  1  0
  3  5  1  0
  5  6  2  0
  5  7  1  0
  7  8  2  0
  1  9  1  0
  1 10  1  0
  1 11  1  0
  3 12  1  0
  4 13  1  0
  4 14  1  0
  4 15  1  0
  7 16  1  0
M  END
