
     RDKit          3D

 16 15  0  0  0  0  0  0  0  0999 V2000
    1.8361   -0.7801   -1.0018 C   0  0  0  0  0  0  0  0  0  0  0  0
    0.5381   -0.3014   -0.8844 O   0  0  0  0  0  0  0  0  0  0  0  0
    0.2737    0.3324    0.2950 C   0  0  0  0  0  0  0  0  0  0  0  0
   -0.1556    1.7154    0.0216 C   0  0  0  0  0  0  0  0  0  0  0  0
   -0.4422    2.4482    0.9360 O   0  0  0  0  0  0  0  0  0  0  0  0
   -0.8581   -0.4082    0.9974 C   0  0  0  0  0  0  0  0  0  0  0  0
   -2.0641   -0.3862    0.1073 C   0  0  0  0  0  0  0  0  0  0  0  0
   -2.1359   -1.1844   -0.8256 O   0  0  0  0  0  0  0  0  0  0  0  0
    2.0829   -1.5171   -0.2086 H   0  0  0  0  0  0  0  0  0  0  0  0
    1.8947   -1.3053   -1.9768 H   0  0  0  0  0  0  0  0  0  0  0  0
    2.5915    0.0202   -0.9725 H   0  0  0  0  0  0  0  0  0  0  0  0
    1.1475    0.3713    0.9912 H   0  0  0  0  0  0  0  0  0  0  0  0
   -0.2129    2.0688   -0.9849 H   0  0  0  0  0  0  0  0  0  0  0  0
   -0.5697   -1.4628    1.2077 H   0  0  0  0  0  0  0  0  0  0  0  0
   -1.0839    0.0498    1.9824 H   0  0  0  0  0  0  0  0  0  0  0  0
   -2.8421    0.3392    0.3159 H   0  0  0  0  0  0  0  0  0  0  0  0
  1  2  1  0
  2  3  1  0
  3  4  1  0
  4  5  2  0
  3  6  1  0
  6  7  1  0
  7  8  2  0
  1  9  1  0
  1 10  1  0
  1 11  1  0
  3 12  1  0
  4 13  1  0
  6 14  1  0
  6 15  1  0
  7 16  1  0
M  END
