
     RDKit          3D

 23 22  0  0  0  0  0  0  0  0999 V2000
    2.4080   -1.3873   -0.4909 C   0  0  0  0  0  0  0  0  0  0  0  0
    1.3193   -0.5429   -0.8060 O   0  0  0  0  0  0  0  0  0  0  0  0
    1.1370    0.4284    0.1443 C   0  0  0  0  0  0  0  0  0  0  0  0
    1.3977    1.8358   -0.4003 C   0  0  0  0  0  0  0  0  0  0  0  0
   -0.1960    0.4191    0.7685 C   0  0  0  0  0  0  0  0  0  0  0  0
   -0.4212    1.2594    1.6227 O   0  0  0  0  0  0  0  0  0  0  0  0
   -1.2719   -0.5351    0.4305 C   0  0  0  0  0  0  0  0  0  0  0  0
   -1.5909   -0.3572   -1.0600 C   0  0  0  0  0  0  0  0  0  0  0  0
   -2.5471   -0.2049    1.1778 C   0  0  0  0  0  0  0  0  0  0  0  0
    2.2388   -1.8842    0.4671 H   0  0  0  0  0  0  0  0  0  0  0  0
    3.3551   -0.7859   -0.4256 H   0  0  0  0  0  0  0  0  0  0  0  0
    2.5137   -2.1426   -1.2953 H   0  0  0  0  0  0  0  0  0  0  0  0
    1.9247    0.2846    0.9367 H   0  0  0  0  0  0  0  0  0  0  0  0
    0.8716    2.5339    0.2653 H   0  0  0  0  0  0  0  0  0  0  0  0
    1.0177    1.9252   -1.4303 H   0  0  0  0  0  0  0  0  0  0  0  0
    2.4861    2.0045   -0.4100 H   0  0  0  0  0  0  0  0  0  0  0  0
   -1.0220   -1.5812    0.6500 H   0  0  0  0  0  0  0  0  0  0  0  0
   -2.6597   -0.2018   -1.2387 H   0  0  0  0  0  0  0  0  0  0  0  0
   -1.2528   -1.2892   -1.5757 H   0  0  0  0  0  0  0  0  0  0  0  0
   -1.0598    0.5207   -1.4763 H   0  0  0  0  0  0  0  0  0  0  0  0
   -2.4506    0.7751    1.7043 H   0  0  0  0  0  0  0  0  0  0  0  0
   -3.4224   -0.0991    0.5002 H   0  0  0  0  0  0  0  0  0  0  0  0
   -2.7752   -0.9752    1.9417 H   0  0  0  0  0  0  0  0  0  0  0  0
  1  2  1  0
  2  3  1  0
  3  4  1  0
  3  5  1  0
  5  6  2  0
  5  7  1  0
  7  8  1  0
  7  9  1  0
  1 10  1  0
  1 11  1  0
  1 12  1  0
  3 13  1  0
  4 14  1  0
  4 15  1  0
  4 16  1  0
  7 17  1  0
  8 18  1  0
  8 19  1  0
  8 20  1  0
  9 21  1  0
  9 22  1  0
  9 23  1  0
M  END
