
     RDKit          3D

 19 19  0  0  0  0  0  0  0  0999 V2000
   -2.1138   -1.0566    0.7295 C   0  0  0  0  0  0  0  0  0  0  0  0
   -1.3380    0.0750    0.9384 O   0  0  0  0  0  0  0  0  0  0  0  0
   -0.5518    0.4158   -0.1280 C   0  0  0  0  0  0  0  0  0  0  0  0
   -0.9117    1.7749   -0.6799 C   0  0  0  0  0  0  0  0  0  0  0  0
   -0.3047    2.2299   -1.6349 O   0  0  0  0  0  0  0  0  0  0  0  0
    0.8994    0.4601    0.2212 C   0  0  0  0  0  0  0  0  0  0  0  0
    1.5145   -0.8070    0.7259 C   0  0  0  0  0  0  0  0  0  0  0  0
    2.6925   -0.4357    0.0498 O   0  0  0  0  0  0  0  0  0  0  0  0
    1.8532    0.1620   -0.9156 C   0  0  0  0  0  0  0  0  0  0  0  0
   -2.8116   -0.9500   -0.1227 H   0  0  0  0  0  0  0  0  0  0  0  0
   -1.4599   -1.9259    0.5009 H   0  0  0  0  0  0  0  0  0  0  0  0
   -2.6955   -1.2549    1.6462 H   0  0  0  0  0  0  0  0  0  0  0  0
   -0.6993   -0.2970   -0.9568 H   0  0  0  0  0  0  0  0  0  0  0  0
   -1.7069    2.3708   -0.2471 H   0  0  0  0  0  0  0  0  0  0  0  0
    1.2435    1.3202    0.8136 H   0  0  0  0  0  0  0  0  0  0  0  0
    1.6022   -0.7956    1.8190 H   0  0  0  0  0  0  0  0  0  0  0  0
    1.1303   -1.7336    0.2675 H   0  0  0  0  0  0  0  0  0  0  0  0
    1.3709   -0.5795   -1.6030 H   0  0  0  0  0  0  0  0  0  0  0  0
    2.2868    1.0271   -1.4239 H   0  0  0  0  0  0  0  0  0  0  0  0
  1  2  1  0
  2  3  1  0
  3  4  1  0
  4  5  2  0
  3  6  1  0
  6  7  1  0
  7  8  1  0
  8  9  1  0
  9  6  1  0
  1 10  1  0
  1 11  1  0
  1 12  1  0
  3 13  1  0
  4 14  1  0
  6 15  1  0
  7 16  1  0
  7 17  1  0
  9 18  1  0
  9 19  1  0
M  END
