
     RDKit          3D

 19 19  0  0  0  0  0  0  0  0999 V2000
    3.2036    0.6408    0.1397 C   0  0  0  0  0  0  0  0  0  0  0  0
    1.8406    0.5215    0.5064 O   0  0  0  0  0  0  0  0  0  0  0  0
    0.8961   -0.1084   -0.2919 C   0  0  0  0  0  0  0  0  0  0  0  0
    1.2987   -0.5848   -1.3840 O   0  0  0  0  0  0  0  0  0  0  0  0
   -0.5235   -0.2566    0.0441 C   0  0  0  0  0  0  0  0  0  0  0  0
   -1.0323   -1.6987   -0.0809 C   0  0  0  0  0  0  0  0  0  0  0  0
   -1.4748    0.6733   -0.6457 C   0  0  0  0  0  0  0  0  0  0  0  0
   -2.1256    0.7535    0.7382 C   0  0  0  0  0  0  0  0  0  0  0  0
   -0.9100    0.2898    1.2637 O   0  0  0  0  0  0  0  0  0  0  0  0
    3.8488   -0.0740    0.6834 H   0  0  0  0  0  0  0  0  0  0  0  0
    3.3543    0.6118   -0.9592 H   0  0  0  0  0  0  0  0  0  0  0  0
    3.5286    1.6630    0.4704 H   0  0  0  0  0  0  0  0  0  0  0  0
   -1.5048   -2.0282    0.8832 H   0  0  0  0  0  0  0  0  0  0  0  0
   -1.7361   -1.7918   -0.9161 H   0  0  0  0  0  0  0  0  0  0  0  0
   -0.1492   -2.3549   -0.2158 H   0  0  0  0  0  0  0  0  0  0  0  0
   -2.1711    0.2154   -1.3731 H   0  0  0  0  0  0  0  0  0  0  0  0
   -1.0635    1.6499   -0.9096 H   0  0  0  0  0  0  0  0  0  0  0  0
   -2.2992    1.7867    1.0886 H   0  0  0  0  0  0  0  0  0  0  0  0
   -2.9805    0.0918    0.8877 H   0  0  0  0  0  0  0  0  0  0  0  0
  1  2  1  0
  2  3  1  0
  3  4  2  0
  3  5  1  0
  5  6  1  0
  5  7  1  0
  7  8  1  0
  8  9  1  0
  9  5  1  0
  1 10  1  0
  1 11  1  0
  1 12  1  0
  6 13  1  0
  6 14  1  0
  6 15  1  0
  7 16  1  0
  7 17  1  0
  8 18  1  0
  8 19  1  0
M  END
