
     RDKit          3D

 23 22  0  0  0  0  0  0  0  0999 V2000
    2.4711    1.2267   -0.6114 C   0  0  0  0  0  0  0  0  0  0  0  0
    1.5155    0.7749    0.2923 O   0  0  0  0  0  0  0  0  0  0  0  0
    0.8630   -0.3647   -0.1490 C   0  0  0  0  0  0  0  0  0  0  0  0
    1.0494   -1.4187    0.9494 C   0  0  0  0  0  0  0  0  0  0  0  0
   -0.6193   -0.0492   -0.2479 C   0  0  0  0  0  0  0  0  0  0  0  0
   -1.4059   -1.2448   -0.7420 C   0  0  0  0  0  0  0  0  0  0  0  0
   -2.7517   -0.8614   -0.7693 O   0  0  0  0  0  0  0  0  0  0  0  0
   -1.0445    0.3161    1.0240 O   0  0  0  0  0  0  0  0  0  0  0  0
   -1.5089    1.6286    1.0614 C   0  0  0  0  0  0  0  0  0  0  0  0
    2.9296    2.1369   -0.1620 H   0  0  0  0  0  0  0  0  0  0  0  0
    3.3126    0.4835   -0.7187 H   0  0  0  0  0  0  0  0  0  0  0  0
    2.0741    1.4238   -1.6115 H   0  0  0  0  0  0  0  0  0  0  0  0
    1.1955   -0.7271   -1.1252 H   0  0  0  0  0  0  0  0  0  0  0  0
    0.1107   -1.4737    1.5695 H   0  0  0  0  0  0  0  0  0  0  0  0
    1.3026   -2.4068    0.5247 H   0  0  0  0  0  0  0  0  0  0  0  0
    1.8638   -1.1394    1.6375 H   0  0  0  0  0  0  0  0  0  0  0  0
   -0.7328    0.7719   -0.9789 H   0  0  0  0  0  0  0  0  0  0  0  0
   -1.2629   -2.1255   -0.1108 H   0  0  0  0  0  0  0  0  0  0  0  0
   -1.1212   -1.4698   -1.7895 H   0  0  0  0  0  0  0  0  0  0  0  0
   -3.2725   -1.4902   -1.3420 H   0  0  0  0  0  0  0  0  0  0  0  0
   -0.7468    2.3681    0.7689 H   0  0  0  0  0  0  0  0  0  0  0  0
   -1.8036    1.8635    2.0986 H   0  0  0  0  0  0  0  0  0  0  0  0
   -2.4180    1.7770    0.4318 H   0  0  0  0  0  0  0  0  0  0  0  0
  1  2  1  0
  2  3  1  0
  3  4  1  0
  3  5  1  0
  5  6  1  0
  6  7  1  0
  5  8  1  0
  8  9  1  0
  1 10  1  0
  1 11  1  0
  1 12  1  0
  3 13  1  0
  4 14  1  0
  4 15  1  0
  4 16  1  0
  5 17  1  0
  6 18  1  0
  6 19  1  0
  7 20  1  0
  9 21  1  0
  9 22  1  0
  9 23  1  0
M  END
