
     RDKit          3D

 16 16  0  0  0  0  0  0  0  0999 V2000
    3.0582   -0.4679    0.4441 C   0  0  0  0  0  0  0  0  0  0  0  0
    1.6920   -0.2283    0.7812 O   0  0  0  0  0  0  0  0  0  0  0  0
    0.8386    0.4012   -0.1428 C   0  0  0  0  0  0  0  0  0  0  0  0
    1.3582    0.7206   -1.2417 O   0  0  0  0  0  0  0  0  0  0  0  0
   -0.5782    0.6670    0.1660 C   0  0  0  0  0  0  0  0  0  0  0  0
   -1.5095   -0.3345   -0.4674 C   0  0  0  0  0  0  0  0  0  0  0  0
   -2.9751   -0.0715   -0.1563 C   0  0  0  0  0  0  0  0  0  0  0  0
   -2.2566   -1.1761    0.3561 O   0  0  0  0  0  0  0  0  0  0  0  0
    3.3875    0.1753   -0.3924 H   0  0  0  0  0  0  0  0  0  0  0  0
    3.6473   -0.2109    1.3422 H   0  0  0  0  0  0  0  0  0  0  0  0
    3.1892   -1.5349    0.1667 H   0  0  0  0  0  0  0  0  0  0  0  0
   -0.8268    1.6623   -0.2973 H   0  0  0  0  0  0  0  0  0  0  0  0
   -0.7962    0.6993    1.2368 H   0  0  0  0  0  0  0  0  0  0  0  0
   -1.2739   -0.6808   -1.4842 H   0  0  0  0  0  0  0  0  0  0  0  0
   -3.2261    0.6570    0.6451 H   0  0  0  0  0  0  0  0  0  0  0  0
   -3.7284   -0.2780   -0.9562 H   0  0  0  0  0  0  0  0  0  0  0  0
  1  2  1  0
  2  3  1  0
  3  4  2  0
  3  5  1  0
  5  6  1  0
  6  7  1  0
  7  8  1  0
  8  6  1  0
  1  9  1  0
  1 10  1  0
  1 11  1  0
  5 12  1  0
  5 13  1  0
  6 14  1  0
  7 15  1  0
  7 16  1  0
M  END
