
     RDKit          3D

 23 22  0  0  0  0  0  0  0  0999 V2000
   -2.2801    1.2995   -0.5920 C   0  0  0  0  0  0  0  0  0  0  0  0
   -1.6322    0.4108    0.2517 O   0  0  0  0  0  0  0  0  0  0  0  0
   -0.8333   -0.4902   -0.4466 C   0  0  0  0  0  0  0  0  0  0  0  0
   -1.2989   -1.9302   -0.1954 C   0  0  0  0  0  0  0  0  0  0  0  0
   -1.2186   -2.2237    1.1784 O   0  0  0  0  0  0  0  0  0  0  0  0
    0.5618   -0.3955    0.1237 C   0  0  0  0  0  0  0  0  0  0  0  0
    1.1435    0.9896   -0.0134 C   0  0  0  0  0  0  0  0  0  0  0  0
    2.5348    0.9564    0.5909 C   0  0  0  0  0  0  0  0  0  0  0  0
    3.2876    0.0170   -0.1188 O   0  0  0  0  0  0  0  0  0  0  0  0
   -2.8863    1.9719    0.0383 H   0  0  0  0  0  0  0  0  0  0  0  0
   -1.5703    1.9503   -1.1498 H   0  0  0  0  0  0  0  0  0  0  0  0
   -2.8840    0.7775   -1.3749 H   0  0  0  0  0  0  0  0  0  0  0  0
   -0.8632   -0.3314   -1.5368 H   0  0  0  0  0  0  0  0  0  0  0  0
   -2.3378   -2.0869   -0.5270 H   0  0  0  0  0  0  0  0  0  0  0  0
   -0.6195   -2.6515   -0.6917 H   0  0  0  0  0  0  0  0  0  0  0  0
   -2.0460   -1.8606    1.6216 H   0  0  0  0  0  0  0  0  0  0  0  0
    1.2086   -1.1227   -0.3633 H   0  0  0  0  0  0  0  0  0  0  0  0
    0.4888   -0.6766    1.1941 H   0  0  0  0  0  0  0  0  0  0  0  0
    1.2194    1.3009   -1.0634 H   0  0  0  0  0  0  0  0  0  0  0  0
    0.5730    1.7516    0.5277 H   0  0  0  0  0  0  0  0  0  0  0  0
    2.9665    1.9829    0.4222 H   0  0  0  0  0  0  0  0  0  0  0  0
    2.4816    0.7275    1.6723 H   0  0  0  0  0  0  0  0  0  0  0  0
    4.0046   -0.3668    0.4522 H   0  0  0  0  0  0  0  0  0  0  0  0
  1  2  1  0
  2  3  1  0
  3  4  1  0
  4  5  1  0
  3  6  1  0
  6  7  1  0
  7  8  1  0
  8  9  1  0
  1 10  1  0
  1 11  1  0
  1 12  1  0
  3 13  1  0
  4 14  1  0
  4 15  1  0
  5 16  1  0
  6 17  1  0
  6 18  1  0
  7 19  1  0
  7 20  1  0
  8 21  1  0
  8 22  1  0
  9 23  1  0
M  END
