
     RDKit          3D

 23 23  0  0  0  0  0  0  0  0999 V2000
    2.4788   -0.7830    1.4902 C   0  0  0  0  0  0  0  0  0  0  0  0
    1.5192    0.2043    1.3144 O   0  0  0  0  0  0  0  0  0  0  0  0
    1.0856    0.1685    0.0013 C   0  0  0  0  0  0  0  0  0  0  0  0
    1.4765    1.4502   -0.7295 C   0  0  0  0  0  0  0  0  0  0  0  0
   -0.3713   -0.1311   -0.1393 C   0  0  0  0  0  0  0  0  0  0  0  0
   -1.2415    0.8084    0.6902 C   0  0  0  0  0  0  0  0  0  0  0  0
   -2.5818    0.0722    0.5398 C   0  0  0  0  0  0  0  0  0  0  0  0
   -2.1256   -1.3344    0.2038 C   0  0  0  0  0  0  0  0  0  0  0  0
   -0.7413   -1.3535    0.3922 O   0  0  0  0  0  0  0  0  0  0  0  0
    3.3448   -0.6223    0.8177 H   0  0  0  0  0  0  0  0  0  0  0  0
    2.0787   -1.8081    1.2474 H   0  0  0  0  0  0  0  0  0  0  0  0
    2.8721   -0.8459    2.5131 H   0  0  0  0  0  0  0  0  0  0  0  0
    1.6368   -0.6399   -0.5149 H   0  0  0  0  0  0  0  0  0  0  0  0
    1.5962    1.2125   -1.8165 H   0  0  0  0  0  0  0  0  0  0  0  0
    2.4481    1.8115   -0.3710 H   0  0  0  0  0  0  0  0  0  0  0  0
    0.7296    2.2377   -0.6245 H   0  0  0  0  0  0  0  0  0  0  0  0
   -0.6943   -0.0908   -1.1877 H   0  0  0  0  0  0  0  0  0  0  0  0
   -1.2807    1.8195    0.2904 H   0  0  0  0  0  0  0  0  0  0  0  0
   -0.9811    0.7393    1.7528 H   0  0  0  0  0  0  0  0  0  0  0  0
   -3.1546    0.5273   -0.2935 H   0  0  0  0  0  0  0  0  0  0  0  0
   -3.1624    0.1300    1.4627 H   0  0  0  0  0  0  0  0  0  0  0  0
   -2.2815   -1.4645   -0.9020 H   0  0  0  0  0  0  0  0  0  0  0  0
   -2.6503   -2.1078    0.7871 H   0  0  0  0  0  0  0  0  0  0  0  0
  1  2  1  0
  2  3  1  0
  3  4  1  0
  3  5  1  0
  5  6  1  0
  6  7  1  0
  7  8  1  0
  8  9  1  0
  9  5  1  0
  1 10  1  0
  1 11  1  0
  1 12  1  0
  3 13  1  0
  4 14  1  0
  4 15  1  0
  4 16  1  0
  5 17  1  0
  6 18  1  0
  6 19  1  0
  7 20  1  0
  7 21  1  0
  8 22  1  0
  8 23  1  0
M  END
