
     RDKit          3D

 19 18  0  0  0  0  0  0  0  0999 V2000
   -2.3820   -0.7302    1.2180 C   0  0  0  0  0  0  0  0  0  0  0  0
   -1.2327   -1.4742    0.8177 O   0  0  0  0  0  0  0  0  0  0  0  0
   -0.6957   -0.9335   -0.2813 C   0  0  0  0  0  0  0  0  0  0  0  0
    0.2203    0.0743    0.2042 C   0  0  0  0  0  0  0  0  0  0  0  0
    1.0171    0.9741    0.6504 C   0  0  0  0  0  0  0  0  0  0  0  0
    1.9929    2.0838    1.1710 C   0  0  0  0  0  0  0  0  0  0  0  0
    3.2546    1.5303    0.7637 O   0  0  0  0  0  0  0  0  0  0  0  0
   -0.1600   -1.5407   -1.4803 C   0  0  0  0  0  0  0  0  0  0  0  0
    0.4172   -0.4466   -2.2714 O   0  0  0  0  0  0  0  0  0  0  0  0
   -2.1677    0.3339    1.2895 H   0  0  0  0  0  0  0  0  0  0  0  0
   -2.5313   -1.1060    2.3081 H   0  0  0  0  0  0  0  0  0  0  0  0
   -3.2475   -1.0629    0.6477 H   0  0  0  0  0  0  0  0  0  0  0  0
   -1.5527   -0.1850   -0.7481 H   0  0  0  0  0  0  0  0  0  0  0  0
    1.8428    2.3243    2.1310 H   0  0  0  0  0  0  0  0  0  0  0  0
    1.7633    2.9239    0.3749 H   0  0  0  0  0  0  0  0  0  0  0  0
    3.5884    2.2224    0.0473 H   0  0  0  0  0  0  0  0  0  0  0  0
    0.5770   -2.3259   -1.4426 H   0  0  0  0  0  0  0  0  0  0  0  0
   -0.9978   -1.8965   -2.1837 H   0  0  0  0  0  0  0  0  0  0  0  0
    0.2938   -0.7653   -3.2161 H   0  0  0  0  0  0  0  0  0  0  0  0
  1  2  1  0
  2  3  1  0
  3  4  1  0
  4  5  3  0
  5  6  1  0
  6  7  1  0
  3  8  1  0
  8  9  1  0
  1 10  1  0
  1 11  1  0
  1 12  1  0
  3 13  1  0
  6 14  1  0
  6 15  1  0
  7 16  1  0
  8 17  1  0
  8 18  1  0
  9 19  1  0
M  END
