
     RDKit          3D

 25 25  0  0  0  0  0  0  0  0999 V2000
   -2.8879    1.5866    0.2669 C   0  0  0  0  0  0  0  0  0  0  0  0
   -1.7055    1.0077    0.6300 O   0  0  0  0  0  0  0  0  0  0  0  0
   -1.4441   -0.2363    0.1488 C   0  0  0  0  0  0  0  0  0  0  0  0
   -1.2494   -1.3182    1.1428 C   0  0  0  0  0  0  0  0  0  0  0  0
   -0.2725   -0.1614   -0.8077 C   0  0  0  0  0  0  0  0  0  0  0  0
    0.9691    0.3613   -0.1278 C   0  0  0  0  0  0  0  0  0  0  0  0
    2.1199    0.4243   -1.1076 C   0  0  0  0  0  0  0  0  0  0  0  0
    3.0204   -0.0648    0.0357 C   0  0  0  0  0  0  0  0  0  0  0  0
    1.7589   -0.7119    0.6223 C   0  0  0  0  0  0  0  0  0  0  0  0
   -2.8892    1.6673   -0.8582 H   0  0  0  0  0  0  0  0  0  0  0  0
   -2.8712    2.6388    0.6259 H   0  0  0  0  0  0  0  0  0  0  0  0
   -3.7917    1.1266    0.6505 H   0  0  0  0  0  0  0  0  0  0  0  0
   -2.3286   -0.5341   -0.4906 H   0  0  0  0  0  0  0  0  0  0  0  0
   -0.6541   -1.0401    2.0292 H   0  0  0  0  0  0  0  0  0  0  0  0
   -2.2448   -1.7675    1.4302 H   0  0  0  0  0  0  0  0  0  0  0  0
   -0.7005   -2.1500    0.6500 H   0  0  0  0  0  0  0  0  0  0  0  0
   -0.5405    0.4566   -1.6905 H   0  0  0  0  0  0  0  0  0  0  0  0
   -0.0430   -1.2212   -1.1098 H   0  0  0  0  0  0  0  0  0  0  0  0
    0.8455    1.2870    0.4252 H   0  0  0  0  0  0  0  0  0  0  0  0
    2.0491   -0.3933   -1.8713 H   0  0  0  0  0  0  0  0  0  0  0  0
    2.3740    1.4175   -1.4944 H   0  0  0  0  0  0  0  0  0  0  0  0
    3.3909    0.7777    0.6658 H   0  0  0  0  0  0  0  0  0  0  0  0
    3.7914   -0.7935   -0.2832 H   0  0  0  0  0  0  0  0  0  0  0  0
    1.6089   -1.7046    0.1596 H   0  0  0  0  0  0  0  0  0  0  0  0
    1.6950   -0.6544    1.7151 H   0  0  0  0  0  0  0  0  0  0  0  0
  1  2  1  0
  2  3  1  0
  3  4  1  0
  3  5  1  0
  5  6  1  0
  6  7  1  0
  7  8  1  0
  8  9  1  0
  9  6  1  0
  1 10  1  0
  1 11  1  0
  1 12  1  0
  3 13  1  0
  4 14  1  0
  4 15  1  0
  4 16  1  0
  5 17  1  0
  5 18  1  0
  6 19  1  0
  7 20  1  0
  7 21  1  0
  8 22  1  0
  8 23  1  0
  9 24  1  0
  9 25  1  0
M  END
