
     RDKit          3D

 21 21  0  0  0  0  0  0  0  0999 V2000
    1.9409   -1.5835   -0.4857 C   0  0  0  0  0  0  0  0  0  0  0  0
    1.1428   -0.5506   -0.9576 O   0  0  0  0  0  0  0  0  0  0  0  0
    0.3873    0.0420    0.0450 C   0  0  0  0  0  0  0  0  0  0  0  0
    0.7307    1.5303    0.1814 C   0  0  0  0  0  0  0  0  0  0  0  0
    2.0535    1.7240    0.4928 O   0  0  0  0  0  0  0  0  0  0  0  0
   -1.0920    0.0123   -0.2564 C   0  0  0  0  0  0  0  0  0  0  0  0
   -1.4564    0.6731   -1.4297 O   0  0  0  0  0  0  0  0  0  0  0  0
   -1.9770   -1.0323    0.2892 C   0  0  0  0  0  0  0  0  0  0  0  0
   -1.9753    0.2919    0.9579 C   0  0  0  0  0  0  0  0  0  0  0  0
    1.3617   -2.4001   -0.0214 H   0  0  0  0  0  0  0  0  0  0  0  0
    2.7206   -1.2476    0.2239 H   0  0  0  0  0  0  0  0  0  0  0  0
    2.4904   -1.9859   -1.3704 H   0  0  0  0  0  0  0  0  0  0  0  0
    0.5996   -0.4581    1.0182 H   0  0  0  0  0  0  0  0  0  0  0  0
    0.0231    1.9724    0.8966 H   0  0  0  0  0  0  0  0  0  0  0  0
    0.5676    1.9843   -0.8379 H   0  0  0  0  0  0  0  0  0  0  0  0
    2.2784    2.6626    0.2003 H   0  0  0  0  0  0  0  0  0  0  0  0
   -1.0836    0.2381   -2.2311 H   0  0  0  0  0  0  0  0  0  0  0  0
   -1.5789   -1.9196    0.8383 H   0  0  0  0  0  0  0  0  0  0  0  0
   -2.8501   -1.2993   -0.3431 H   0  0  0  0  0  0  0  0  0  0  0  0
   -1.4892    0.3354    1.9542 H   0  0  0  0  0  0  0  0  0  0  0  0
   -2.7942    1.0108    0.8355 H   0  0  0  0  0  0  0  0  0  0  0  0
  1  2  1  0
  2  3  1  0
  3  4  1  0
  4  5  1  0
  3  6  1  0
  6  7  1  0
  6  8  1  0
  8  9  1  0
  9  6  1  0
  1 10  1  0
  1 11  1  0
  1 12  1  0
  3 13  1  0
  4 14  1  0
  4 15  1  0
  5 16  1  0
  7 17  1  0
  8 18  1  0
  8 19  1  0
  9 20  1  0
  9 21  1  0
M  END
