
     RDKit          3D

 17 18  0  0  0  0  0  0  0  0999 V2000
    3.0513   -0.5303   -0.4544 C   0  0  0  0  0  0  0  0  0  0  0  0
    1.7058   -0.8072   -0.1027 O   0  0  0  0  0  0  0  0  0  0  0  0
    0.8337    0.2193    0.1696 C   0  0  0  0  0  0  0  0  0  0  0  0
    1.2765    1.3941    0.0936 O   0  0  0  0  0  0  0  0  0  0  0  0
   -0.5823    0.0248    0.5433 C   0  0  0  0  0  0  0  0  0  0  0  0
   -1.4062    1.2391    0.8507 C   0  0  0  0  0  0  0  0  0  0  0  0
   -1.6837    0.4243   -0.3595 C   0  0  0  0  0  0  0  0  0  0  0  0
   -2.2579   -0.9377   -0.1290 C   0  0  0  0  0  0  0  0  0  0  0  0
   -1.1125   -1.2347    0.6396 O   0  0  0  0  0  0  0  0  0  0  0  0
    3.2894   -1.2395   -1.2977 H   0  0  0  0  0  0  0  0  0  0  0  0
    3.7599   -0.7444    0.3713 H   0  0  0  0  0  0  0  0  0  0  0  0
    3.1771    0.5313   -0.7774 H   0  0  0  0  0  0  0  0  0  0  0  0
   -0.8905    2.2050    0.6496 H   0  0  0  0  0  0  0  0  0  0  0  0
   -2.1094    1.1906    1.7202 H   0  0  0  0  0  0  0  0  0  0  0  0
   -1.4968    0.8022   -1.3796 H   0  0  0  0  0  0  0  0  0  0  0  0
   -2.3720   -1.5546   -1.0262 H   0  0  0  0  0  0  0  0  0  0  0  0
   -3.1825   -0.9823    0.4885 H   0  0  0  0  0  0  0  0  0  0  0  0
  1  2  1  0
  2  3  1  0
  3  4  2  0
  3  5  1  0
  5  6  1  0
  6  7  1  0
  7  8  1  0
  8  9  1  0
  7  5  1  0
  9  5  1  0
  1 10  1  0
  1 11  1  0
  1 12  1  0
  6 13  1  0
  6 14  1  0
  7 15  1  0
  8 16  1  0
  8 17  1  0
M  END
