
     RDKit          3D

 23 22  0  0  0  0  0  0  0  0999 V2000
   -2.5381   -1.5992    0.3239 C   0  0  0  0  0  0  0  0  0  0  0  0
   -1.7775   -0.8746   -0.5569 O   0  0  0  0  0  0  0  0  0  0  0  0
   -0.7448   -0.1250    0.1375 C   0  0  0  0  0  0  0  0  0  0  0  0
   -1.1186    1.2734   -0.1081 C   0  0  0  0  0  0  0  0  0  0  0  0
   -0.4048    2.2735    0.4642 O   0  0  0  0  0  0  0  0  0  0  0  0
    0.4935   -0.7053   -0.3840 C   0  0  0  0  0  0  0  0  0  0  0  0
    1.8248   -0.2687    0.0385 C   0  0  0  0  0  0  0  0  0  0  0  0
    2.2329    1.1516   -0.2233 C   0  0  0  0  0  0  0  0  0  0  0  0
    2.8200   -1.0659   -0.6010 O   0  0  0  0  0  0  0  0  0  0  0  0
   -3.0145   -0.8698    1.0406 H   0  0  0  0  0  0  0  0  0  0  0  0
   -3.3562   -2.0661   -0.2607 H   0  0  0  0  0  0  0  0  0  0  0  0
   -1.9774   -2.3139    0.9332 H   0  0  0  0  0  0  0  0  0  0  0  0
   -0.8991   -0.3820    1.2048 H   0  0  0  0  0  0  0  0  0  0  0  0
   -2.1817    1.3874    0.2826 H   0  0  0  0  0  0  0  0  0  0  0  0
   -1.2492    1.5192   -1.2029 H   0  0  0  0  0  0  0  0  0  0  0  0
   -0.9618    3.0930    0.5115 H   0  0  0  0  0  0  0  0  0  0  0  0
    0.3970   -0.7535   -1.5139 H   0  0  0  0  0  0  0  0  0  0  0  0
    0.4250   -1.8222   -0.1259 H   0  0  0  0  0  0  0  0  0  0  0  0
    2.0377   -0.4808    1.1318 H   0  0  0  0  0  0  0  0  0  0  0  0
    3.3499    1.1980   -0.4876 H   0  0  0  0  0  0  0  0  0  0  0  0
    1.6903    1.6515   -1.0356 H   0  0  0  0  0  0  0  0  0  0  0  0
    2.1849    1.7809    0.6871 H   0  0  0  0  0  0  0  0  0  0  0  0
    2.7675   -2.0013   -0.2559 H   0  0  0  0  0  0  0  0  0  0  0  0
  1  2  1  0
  2  3  1  0
  3  4  1  0
  4  5  1  0
  3  6  1  0
  6  7  1  0
  7  8  1  0
  7  9  1  0
  1 10  1  0
  1 11  1  0
  1 12  1  0
  3 13  1  0
  4 14  1  0
  4 15  1  0
  5 16  1  0
  6 17  1  0
  6 18  1  0
  7 19  1  0
  8 20  1  0
  8 21  1  0
  8 22  1  0
  9 23  1  0
M  END
