
     RDKit          3D

 21 20  0  0  0  0  0  0  0  0999 V2000
    3.6776    0.4578   -0.7671 C   0  0  0  0  0  0  0  0  0  0  0  0
    2.2728    0.2914   -0.5177 O   0  0  0  0  0  0  0  0  0  0  0  0
    1.8503   -0.6548    0.3913 C   0  0  0  0  0  0  0  0  0  0  0  0
    2.7266   -1.3440    0.9736 O   0  0  0  0  0  0  0  0  0  0  0  0
    0.4398   -0.9224    0.7353 C   0  0  0  0  0  0  0  0  0  0  0  0
   -0.5201   -0.0401   -0.0212 C   0  0  0  0  0  0  0  0  0  0  0  0
   -1.9192   -0.4103    0.4176 C   0  0  0  0  0  0  0  0  0  0  0  0
   -2.9643    0.4235   -0.2882 C   0  0  0  0  0  0  0  0  0  0  0  0
   -2.8212    1.7711   -0.0490 O   0  0  0  0  0  0  0  0  0  0  0  0
    3.9307    1.4521   -0.3493 H   0  0  0  0  0  0  0  0  0  0  0  0
    3.9265    0.3769   -1.8249 H   0  0  0  0  0  0  0  0  0  0  0  0
    4.2601   -0.3458   -0.2341 H   0  0  0  0  0  0  0  0  0  0  0  0
    0.2541   -2.0002    0.5110 H   0  0  0  0  0  0  0  0  0  0  0  0
    0.3129   -0.7800    1.8067 H   0  0  0  0  0  0  0  0  0  0  0  0
   -0.3246    1.0087    0.3293 H   0  0  0  0  0  0  0  0  0  0  0  0
   -0.4114   -0.1163   -1.1110 H   0  0  0  0  0  0  0  0  0  0  0  0
   -2.0948   -1.4680    0.2309 H   0  0  0  0  0  0  0  0  0  0  0  0
   -2.0161   -0.2271    1.5073 H   0  0  0  0  0  0  0  0  0  0  0  0
   -2.9129    0.2186   -1.3973 H   0  0  0  0  0  0  0  0  0  0  0  0
   -3.9771    0.0900    0.0134 H   0  0  0  0  0  0  0  0  0  0  0  0
   -3.6893    2.2187   -0.2455 H   0  0  0  0  0  0  0  0  0  0  0  0
  1  2  1  0
  2  3  1  0
  3  4  2  0
  3  5  1  0
  5  6  1  0
  6  7  1  0
  7  8  1  0
  8  9  1  0
  1 10  1  0
  1 11  1  0
  1 12  1  0
  5 13  1  0
  5 14  1  0
  6 15  1  0
  6 16  1  0
  7 17  1  0
  7 18  1  0
  8 19  1  0
  8 20  1  0
  9 21  1  0
M  END
