
     RDKit          3D

 21 21  0  0  0  0  0  0  0  0999 V2000
    3.4489    0.8352   -0.1239 C   0  0  0  0  0  0  0  0  0  0  0  0
    2.2583    0.2495   -0.5529 O   0  0  0  0  0  0  0  0  0  0  0  0
    1.5467   -0.7235    0.1082 C   0  0  0  0  0  0  0  0  0  0  0  0
    2.0049   -1.1375    1.2150 O   0  0  0  0  0  0  0  0  0  0  0  0
    0.2728   -1.3118   -0.4073 C   0  0  0  0  0  0  0  0  0  0  0  0
   -0.9125   -0.7026    0.2619 C   0  0  0  0  0  0  0  0  0  0  0  0
   -2.2914   -1.0768   -0.0346 C   0  0  0  0  0  0  0  0  0  0  0  0
   -1.8015    0.1884   -0.5918 C   0  0  0  0  0  0  0  0  0  0  0  0
   -2.1019    1.5271    0.0350 C   0  0  0  0  0  0  0  0  0  0  0  0
    3.9145    1.3452   -0.9987 H   0  0  0  0  0  0  0  0  0  0  0  0
    3.2775    1.6570    0.6254 H   0  0  0  0  0  0  0  0  0  0  0  0
    4.1723    0.0935    0.2675 H   0  0  0  0  0  0  0  0  0  0  0  0
    0.2754   -2.4192   -0.2831 H   0  0  0  0  0  0  0  0  0  0  0  0
    0.1877   -1.1416   -1.5004 H   0  0  0  0  0  0  0  0  0  0  0  0
   -0.6986   -0.3737    1.3199 H   0  0  0  0  0  0  0  0  0  0  0  0
   -3.0520   -0.9914    0.7915 H   0  0  0  0  0  0  0  0  0  0  0  0
   -2.5655   -1.8851   -0.7571 H   0  0  0  0  0  0  0  0  0  0  0  0
   -1.5469    0.2789   -1.6817 H   0  0  0  0  0  0  0  0  0  0  0  0
   -1.9816    1.4599    1.1444 H   0  0  0  0  0  0  0  0  0  0  0  0
   -1.2991    2.2276   -0.3439 H   0  0  0  0  0  0  0  0  0  0  0  0
   -3.1081    1.9010   -0.1778 H   0  0  0  0  0  0  0  0  0  0  0  0
  1  2  1  0
  2  3  1  0
  3  4  2  0
  3  5  1  0
  5  6  1  0
  6  7  1  0
  7  8  1  0
  8  9  1  0
  8  6  1  0
  1 10  1  0
  1 11  1  0
  1 12  1  0
  5 13  1  0
  5 14  1  0
  6 15  1  0
  7 16  1  0
  7 17  1  0
  8 18  1  0
  9 19  1  0
  9 20  1  0
  9 21  1  0
M  END
