
     RDKit          3D

 19 18  0  0  0  0  0  0  0  0999 V2000
    2.2154    0.9731   -0.9120 C   0  0  0  0  0  0  0  0  0  0  0  0
    1.4482    0.7969    0.2247 O   0  0  0  0  0  0  0  0  0  0  0  0
    0.8304   -0.4493    0.1879 C   0  0  0  0  0  0  0  0  0  0  0  0
    1.4388   -1.3257    1.2511 C   0  0  0  0  0  0  0  0  0  0  0  0
    2.3050   -0.8823    1.9393 O   0  0  0  0  0  0  0  0  0  0  0  0
   -0.6272   -0.4224    0.4939 C   0  0  0  0  0  0  0  0  0  0  0  0
   -1.4756    0.3827   -0.3881 C   0  0  0  0  0  0  0  0  0  0  0  0
   -2.9320    0.4378   -0.1217 C   0  0  0  0  0  0  0  0  0  0  0  0
   -1.0276    0.9960   -1.3154 O   0  0  0  0  0  0  0  0  0  0  0  0
    3.0159    0.1830   -0.9806 H   0  0  0  0  0  0  0  0  0  0  0  0
    2.6966    1.9668   -0.9481 H   0  0  0  0  0  0  0  0  0  0  0  0
    1.6024    0.8845   -1.8243 H   0  0  0  0  0  0  0  0  0  0  0  0
    1.0672   -0.9493   -0.7822 H   0  0  0  0  0  0  0  0  0  0  0  0
    1.0820   -2.3173    1.3626 H   0  0  0  0  0  0  0  0  0  0  0  0
   -0.9834   -1.4946    0.3748 H   0  0  0  0  0  0  0  0  0  0  0  0
   -0.7290   -0.1289    1.5711 H   0  0  0  0  0  0  0  0  0  0  0  0
   -3.1210    0.7387    0.9495 H   0  0  0  0  0  0  0  0  0  0  0  0
   -3.3711   -0.5587   -0.3098 H   0  0  0  0  0  0  0  0  0  0  0  0
   -3.4349    1.1692   -0.7729 H   0  0  0  0  0  0  0  0  0  0  0  0
  1  2  1  0
  2  3  1  0
  3  4  1  0
  4  5  2  0
  3  6  1  0
  6  7  1  0
  7  8  1  0
  7  9  2  0
  1 10  1  0
  1 11  1  0
  1 12  1  0
  3 13  1  0
  4 14  1  0
  6 15  1  0
  6 16  1  0
  8 17  1  0
  8 18  1  0
  8 19  1  0
M  END
