
     RDKit          3D

 19 19  0  0  0  0  0  0  0  0999 V2000
    3.1410    0.2666   -0.4707 C   0  0  0  0  0  0  0  0  0  0  0  0
    1.7357    0.0531   -0.5760 O   0  0  0  0  0  0  0  0  0  0  0  0
    0.9215   -0.0155    0.5455 C   0  0  0  0  0  0  0  0  0  0  0  0
    1.4776    0.1191    1.6620 O   0  0  0  0  0  0  0  0  0  0  0  0
   -0.5323   -0.2337    0.4945 C   0  0  0  0  0  0  0  0  0  0  0  0
   -0.7492   -1.5712   -0.1958 C   0  0  0  0  0  0  0  0  0  0  0  0
   -1.2616    0.8781   -0.2212 C   0  0  0  0  0  0  0  0  0  0  0  0
   -2.6880    0.8312   -0.3653 C   0  0  0  0  0  0  0  0  0  0  0  0
   -2.0845    1.6814    0.7103 O   0  0  0  0  0  0  0  0  0  0  0  0
    3.4322    1.2735   -0.8366 H   0  0  0  0  0  0  0  0  0  0  0  0
    3.7089   -0.5475   -0.9392 H   0  0  0  0  0  0  0  0  0  0  0  0
    3.3965    0.2528    0.6220 H   0  0  0  0  0  0  0  0  0  0  0  0
   -0.9174   -0.3625    1.5244 H   0  0  0  0  0  0  0  0  0  0  0  0
   -0.5625   -2.3715    0.5499 H   0  0  0  0  0  0  0  0  0  0  0  0
   -0.0066   -1.7384   -1.0134 H   0  0  0  0  0  0  0  0  0  0  0  0
   -1.7904   -1.6226   -0.5454 H   0  0  0  0  0  0  0  0  0  0  0  0
   -0.6739    1.5670   -0.8337 H   0  0  0  0  0  0  0  0  0  0  0  0
   -3.3017    0.0503    0.1334 H   0  0  0  0  0  0  0  0  0  0  0  0
   -3.2453    1.4899   -1.0309 H   0  0  0  0  0  0  0  0  0  0  0  0
  1  2  1  0
  2  3  1  0
  3  4  2  0
  3  5  1  0
  5  6  1  0
  5  7  1  0
  7  8  1  0
  8  9  1  0
  9  7  1  0
  1 10  1  0
  1 11  1  0
  1 12  1  0
  5 13  1  0
  6 14  1  0
  6 15  1  0
  6 16  1  0
  7 17  1  0
  8 18  1  0
  8 19  1  0
M  END
