
     RDKit          3D

 16 15  0  0  0  0  0  0  0  0999 V2000
   -2.2458    0.7785    0.2598 C   0  0  0  0  0  0  0  0  0  0  0  0
   -1.3046   -0.1425    0.6738 O   0  0  0  0  0  0  0  0  0  0  0  0
   -0.2414   -0.2019   -0.1912 C   0  0  0  0  0  0  0  0  0  0  0  0
   -0.1229   -1.5631   -0.8321 C   0  0  0  0  0  0  0  0  0  0  0  0
   -0.9513   -2.4006   -0.5135 O   0  0  0  0  0  0  0  0  0  0  0  0
    1.0065    0.1993    0.4819 C   0  0  0  0  0  0  0  0  0  0  0  0
    2.3075    0.2202   -0.2413 C   0  0  0  0  0  0  0  0  0  0  0  0
    0.9927    0.5234    1.6522 O   0  0  0  0  0  0  0  0  0  0  0  0
   -3.0980    0.8134    0.9704 H   0  0  0  0  0  0  0  0  0  0  0  0
   -2.6202    0.4734   -0.7174 H   0  0  0  0  0  0  0  0  0  0  0  0
   -1.8282    1.8095    0.2122 H   0  0  0  0  0  0  0  0  0  0  0  0
   -0.4188    0.5249   -1.0206 H   0  0  0  0  0  0  0  0  0  0  0  0
    0.6615   -1.7770   -1.5389 H   0  0  0  0  0  0  0  0  0  0  0  0
    2.9968    0.9502    0.2302 H   0  0  0  0  0  0  0  0  0  0  0  0
    2.1443    0.5931   -1.2844 H   0  0  0  0  0  0  0  0  0  0  0  0
    2.7218   -0.8007   -0.2414 H   0  0  0  0  0  0  0  0  0  0  0  0
  1  2  1  0
  2  3  1  0
  3  4  1  0
  4  5  2  0
  3  6  1  0
  6  7  1  0
  6  8  2  0
  1  9  1  0
  1 10  1  0
  1 11  1  0
  3 12  1  0
  4 13  1  0
  7 14  1  0
  7 15  1  0
  7 16  1  0
M  END
