
     RDKit          3D

 11 10  0  0  0  0  0  0  0  0999 V2000
    1.9105    0.2819    0.0353 C   0  0  0  0  0  0  0  0  0  0  0  0
    0.5263    0.6177    0.1284 O   0  0  0  0  0  0  0  0  0  0  0  0
   -0.4447   -0.3398   -0.0370 C   0  0  0  0  0  0  0  0  0  0  0  0
   -1.8841   -0.0092    0.0562 C   0  0  0  0  0  0  0  0  0  0  0  0
   -0.0888   -1.5113   -0.2706 O   0  0  0  0  0  0  0  0  0  0  0  0
    2.0129   -0.7022   -0.4733 H   0  0  0  0  0  0  0  0  0  0  0  0
    2.3666    1.1073   -0.5769 H   0  0  0  0  0  0  0  0  0  0  0  0
    2.4028    0.3117    1.0232 H   0  0  0  0  0  0  0  0  0  0  0  0
   -2.1346    0.6725   -0.7827 H   0  0  0  0  0  0  0  0  0  0  0  0
   -2.1722    0.4876    0.9835 H   0  0  0  0  0  0  0  0  0  0  0  0
   -2.4948   -0.9162   -0.0861 H   0  0  0  0  0  0  0  0  0  0  0  0
  1  2  1  0
  2  3  1  0
  3  4  1  0
  3  5  2  0
  1  6  1  0
  1  7  1  0
  1  8  1  0
  4  9  1  0
  4 10  1  0
  4 11  1  0
M  END
