
     RDKit          3D

 15 14  0  0  0  0  0  0  0  0999 V2000
    3.7067   -0.7794    0.1236 C   0  0  0  0  0  0  0  0  0  0  0  0
    2.3394   -0.7536   -0.2484 O   0  0  0  0  0  0  0  0  0  0  0  0
    1.3849   -0.1002    0.4821 C   0  0  0  0  0  0  0  0  0  0  0  0
    1.7777    0.5017    1.5387 O   0  0  0  0  0  0  0  0  0  0  0  0
   -0.0103   -0.0644    0.1172 C   0  0  0  0  0  0  0  0  0  0  0  0
   -1.1930   -0.0393   -0.1708 C   0  0  0  0  0  0  0  0  0  0  0  0
   -2.5794   -0.0044   -0.4837 C   0  0  0  0  0  0  0  0  0  0  0  0
   -3.4679    0.8318    0.3453 C   0  0  0  0  0  0  0  0  0  0  0  0
   -3.0896   -0.6514   -1.4336 O   0  0  0  0  0  0  0  0  0  0  0  0
    3.8623    0.0755    0.8455 H   0  0  0  0  0  0  0  0  0  0  0  0
    3.9579   -1.6960    0.6983 H   0  0  0  0  0  0  0  0  0  0  0  0
    4.3910   -0.6069   -0.7088 H   0  0  0  0  0  0  0  0  0  0  0  0
   -4.5371    0.5485    0.2691 H   0  0  0  0  0  0  0  0  0  0  0  0
   -3.1366    0.8252    1.4207 H   0  0  0  0  0  0  0  0  0  0  0  0
   -3.4061    1.9130    0.0274 H   0  0  0  0  0  0  0  0  0  0  0  0
  1  2  1  0
  2  3  1  0
  3  4  2  0
  3  5  1  0
  5  6  3  0
  6  7  1  0
  7  8  1  0
  7  9  2  0
  1 10  1  0
  1 11  1  0
  1 12  1  0
  8 13  1  0
  8 14  1  0
  8 15  1  0
M  END
