
     RDKit          3D

 25 24  0  0  0  0  0  0  0  0999 V2000
    2.6310    0.8740   -0.3316 C   0  0  0  0  0  0  0  0  0  0  0  0
    1.6232    0.0156   -0.7715 O   0  0  0  0  0  0  0  0  0  0  0  0
    0.7868   -0.3686    0.2668 C   0  0  0  0  0  0  0  0  0  0  0  0
    0.9042   -1.8663    0.4112 C   0  0  0  0  0  0  0  0  0  0  0  0
   -0.6024    0.0810   -0.0528 C   0  0  0  0  0  0  0  0  0  0  0  0
   -0.5793    1.5895   -0.1947 C   0  0  0  0  0  0  0  0  0  0  0  0
   -1.1139   -0.4784   -1.3594 C   0  0  0  0  0  0  0  0  0  0  0  0
   -1.5979   -0.2689    1.0250 C   0  0  0  0  0  0  0  0  0  0  0  0
   -2.8410    0.2050    0.5995 O   0  0  0  0  0  0  0  0  0  0  0  0
    2.1347    1.7680    0.0954 H   0  0  0  0  0  0  0  0  0  0  0  0
    3.2555    1.1609   -1.1850 H   0  0  0  0  0  0  0  0  0  0  0  0
    3.2142    0.3894    0.4864 H   0  0  0  0  0  0  0  0  0  0  0  0
    1.0729    0.0732    1.2374 H   0  0  0  0  0  0  0  0  0  0  0  0
    0.5210   -2.2258    1.4004 H   0  0  0  0  0  0  0  0  0  0  0  0
    1.9986   -2.0974    0.3875 H   0  0  0  0  0  0  0  0  0  0  0  0
    0.4514   -2.4185   -0.4345 H   0  0  0  0  0  0  0  0  0  0  0  0
    0.0450    1.8172   -1.0836 H   0  0  0  0  0  0  0  0  0  0  0  0
   -0.1645    2.0751    0.7110 H   0  0  0  0  0  0  0  0  0  0  0  0
   -1.6141    1.9152   -0.4186 H   0  0  0  0  0  0  0  0  0  0  0  0
   -2.0984    0.0165   -1.5603 H   0  0  0  0  0  0  0  0  0  0  0  0
   -0.4477   -0.1844   -2.1838 H   0  0  0  0  0  0  0  0  0  0  0  0
   -1.2862   -1.5757   -1.3175 H   0  0  0  0  0  0  0  0  0  0  0  0
   -1.3401    0.2088    1.9916 H   0  0  0  0  0  0  0  0  0  0  0  0
   -1.6105   -1.3685    1.1926 H   0  0  0  0  0  0  0  0  0  0  0  0
   -3.3426    0.6630    1.2973 H   0  0  0  0  0  0  0  0  0  0  0  0
  1  2  1  0
  2  3  1  0
  3  4  1  0
  3  5  1  0
  5  6  1  0
  5  7  1  0
  5  8  1  0
  8  9  1  0
  1 10  1  0
  1 11  1  0
  1 12  1  0
  3 13  1  0
  4 14  1  0
  4 15  1  0
  4 16  1  0
  6 17  1  0
  6 18  1  0
  6 19  1  0
  7 20  1  0
  7 21  1  0
  7 22  1  0
  8 23  1  0
  8 24  1  0
  9 25  1  0
M  END
