
     RDKit          3D

 17 16  0  0  0  0  0  0  0  0999 V2000
    2.9560    0.5313    0.4820 C   0  0  0  0  0  0  0  0  0  0  0  0
    1.7226   -0.0197    0.8206 O   0  0  0  0  0  0  0  0  0  0  0  0
    0.5808    0.0329    0.0445 C   0  0  0  0  0  0  0  0  0  0  0  0
    0.6324    0.6142   -1.0507 O   0  0  0  0  0  0  0  0  0  0  0  0
   -0.6370   -0.6218    0.5933 C   0  0  0  0  0  0  0  0  0  0  0  0
   -1.8162   -0.4967   -0.3449 C   0  0  0  0  0  0  0  0  0  0  0  0
   -1.5850   -1.0718   -1.5716 O   0  0  0  0  0  0  0  0  0  0  0  0
   -2.1589    0.9487   -0.4613 C   0  0  0  0  0  0  0  0  0  0  0  0
   -2.2077    1.4862   -1.5590 O   0  0  0  0  0  0  0  0  0  0  0  0
    3.7392   -0.2626    0.6492 H   0  0  0  0  0  0  0  0  0  0  0  0
    3.2404    1.3527    1.1975 H   0  0  0  0  0  0  0  0  0  0  0  0
    3.0488    0.8454   -0.5616 H   0  0  0  0  0  0  0  0  0  0  0  0
   -0.3886   -1.6893    0.7800 H   0  0  0  0  0  0  0  0  0  0  0  0
   -0.8769   -0.1788    1.5678 H   0  0  0  0  0  0  0  0  0  0  0  0
   -2.6741   -0.9893    0.1555 H   0  0  0  0  0  0  0  0  0  0  0  0
   -1.2153   -1.9781   -1.4423 H   0  0  0  0  0  0  0  0  0  0  0  0
   -2.3605    1.4965    0.4568 H   0  0  0  0  0  0  0  0  0  0  0  0
  1  2  1  0
  2  3  1  0
  3  4  2  0
  3  5  1  0
  5  6  1  0
  6  7  1  0
  6  8  1  0
  8  9  2  0
  1 10  1  0
  1 11  1  0
  1 12  1  0
  5 13  1  0
  5 14  1  0
  6 15  1  0
  7 16  1  0
  8 17  1  0
M  END
