
     RDKit          3D

 23 23  0  0  0  0  0  0  0  0999 V2000
   -2.9677    0.9176    0.0154 C   0  0  0  0  0  0  0  0  0  0  0  0
   -1.9621    0.3021   -0.7185 O   0  0  0  0  0  0  0  0  0  0  0  0
   -1.0279   -0.3382    0.0616 C   0  0  0  0  0  0  0  0  0  0  0  0
   -0.8885   -1.8057   -0.2677 C   0  0  0  0  0  0  0  0  0  0  0  0
    0.3170    0.3126   -0.2089 C   0  0  0  0  0  0  0  0  0  0  0  0
    1.5000   -0.2271    0.5386 C   0  0  0  0  0  0  0  0  0  0  0  0
    2.7940   -0.4055   -0.1924 C   0  0  0  0  0  0  0  0  0  0  0  0
    0.9685    1.1073    0.8808 C   0  0  0  0  0  0  0  0  0  0  0  0
    1.5696    2.2744    0.4855 O   0  0  0  0  0  0  0  0  0  0  0  0
   -3.6571    1.3973   -0.7101 H   0  0  0  0  0  0  0  0  0  0  0  0
   -3.5544    0.1147    0.5215 H   0  0  0  0  0  0  0  0  0  0  0  0
   -2.5788    1.6591    0.7364 H   0  0  0  0  0  0  0  0  0  0  0  0
   -1.2781   -0.2280    1.1582 H   0  0  0  0  0  0  0  0  0  0  0  0
   -1.5044   -2.3790    0.4512 H   0  0  0  0  0  0  0  0  0  0  0  0
    0.1559   -2.1528   -0.1235 H   0  0  0  0  0  0  0  0  0  0  0  0
   -1.1906   -2.0195   -1.3135 H   0  0  0  0  0  0  0  0  0  0  0  0
    0.4724    0.5899   -1.2732 H   0  0  0  0  0  0  0  0  0  0  0  0
    1.2786   -1.0355    1.2781 H   0  0  0  0  0  0  0  0  0  0  0  0
    3.6505   -0.0192    0.3970 H   0  0  0  0  0  0  0  0  0  0  0  0
    2.7690    0.0215   -1.2225 H   0  0  0  0  0  0  0  0  0  0  0  0
    2.9611   -1.4962   -0.3284 H   0  0  0  0  0  0  0  0  0  0  0  0
    0.3491    1.2101    1.8042 H   0  0  0  0  0  0  0  0  0  0  0  0
    1.8236    2.1999   -0.4686 H   0  0  0  0  0  0  0  0  0  0  0  0
  1  2  1  0
  2  3  1  0
  3  4  1  0
  3  5  1  0
  5  6  1  0
  6  7  1  0
  6  8  1  0
  8  9  1  0
  8  5  1  0
  1 10  1  0
  1 11  1  0
  1 12  1  0
  3 13  1  0
  4 14  1  0
  4 15  1  0
  4 16  1  0
  5 17  1  0
  6 18  1  0
  7 19  1  0
  7 20  1  0
  7 21  1  0
  8 22  1  0
  9 23  1  0
M  END
