
     RDKit          3D

 18 17  0  0  0  0  0  0  0  0999 V2000
   -2.3793   -0.6425    0.0401 C   0  0  0  0  0  0  0  0  0  0  0  0
   -1.3764    0.0881    0.6463 O   0  0  0  0  0  0  0  0  0  0  0  0
   -0.3450    0.4106   -0.2307 C   0  0  0  0  0  0  0  0  0  0  0  0
   -0.1345    1.8736   -0.2140 C   0  0  0  0  0  0  0  0  0  0  0  0
   -0.8013    2.6067    0.4851 O   0  0  0  0  0  0  0  0  0  0  0  0
    0.8897   -0.3289    0.2665 C   0  0  0  0  0  0  0  0  0  0  0  0
    2.0990   -0.0267   -0.5766 C   0  0  0  0  0  0  0  0  0  0  0  0
    0.5821   -1.6842    0.2401 O   0  0  0  0  0  0  0  0  0  0  0  0
   -2.8593   -0.1023   -0.8131 H   0  0  0  0  0  0  0  0  0  0  0  0
   -3.1946   -0.7538    0.8033 H   0  0  0  0  0  0  0  0  0  0  0  0
   -2.0670   -1.6651   -0.2497 H   0  0  0  0  0  0  0  0  0  0  0  0
   -0.5296    0.0129   -1.2637 H   0  0  0  0  0  0  0  0  0  0  0  0
    0.6288    2.3112   -0.8352 H   0  0  0  0  0  0  0  0  0  0  0  0
    1.0460   -0.0217    1.3360 H   0  0  0  0  0  0  0  0  0  0  0  0
    2.9252   -0.6533   -0.2092 H   0  0  0  0  0  0  0  0  0  0  0  0
    2.3931    1.0372   -0.3900 H   0  0  0  0  0  0  0  0  0  0  0  0
    1.8649   -0.2392   -1.6206 H   0  0  0  0  0  0  0  0  0  0  0  0
    1.2581   -2.2225   -0.2226 H   0  0  0  0  0  0  0  0  0  0  0  0
  1  2  1  0
  2  3  1  0
  3  4  1  0
  4  5  2  0
  3  6  1  0
  6  7  1  0
  6  8  1  0
  1  9  1  0
  1 10  1  0
  1 11  1  0
  3 12  1  0
  4 13  1  0
  6 14  1  0
  7 15  1  0
  7 16  1  0
  7 17  1  0
  8 18  1  0
M  END
