
     RDKit          3D

 17 16  0  0  0  0  0  0  0  0999 V2000
    2.5061    0.9891    0.1837 C   0  0  0  0  0  0  0  0  0  0  0  0
    1.2297    0.4842    0.4801 O   0  0  0  0  0  0  0  0  0  0  0  0
    0.6649   -0.6269   -0.1159 C   0  0  0  0  0  0  0  0  0  0  0  0
    1.3579   -1.2189   -0.9810 O   0  0  0  0  0  0  0  0  0  0  0  0
   -0.6889   -1.1397    0.2111 C   0  0  0  0  0  0  0  0  0  0  0  0
   -0.9826   -2.2750   -0.5753 O   0  0  0  0  0  0  0  0  0  0  0  0
   -1.7647   -0.1223   -0.1797 C   0  0  0  0  0  0  0  0  0  0  0  0
   -1.6152    1.1638    0.5124 C   0  0  0  0  0  0  0  0  0  0  0  0
   -1.9312    1.3233    1.6741 O   0  0  0  0  0  0  0  0  0  0  0  0
    2.8421    1.5815    1.0372 H   0  0  0  0  0  0  0  0  0  0  0  0
    2.5107    1.6700   -0.7078 H   0  0  0  0  0  0  0  0  0  0  0  0
    3.2529    0.1744   -0.0253 H   0  0  0  0  0  0  0  0  0  0  0  0
   -0.8116   -1.4470    1.2556 H   0  0  0  0  0  0  0  0  0  0  0  0
   -0.8473   -1.9414   -1.5234 H   0  0  0  0  0  0  0  0  0  0  0  0
   -1.7670   -0.0090   -1.2901 H   0  0  0  0  0  0  0  0  0  0  0  0
   -2.7481   -0.6128    0.0720 H   0  0  0  0  0  0  0  0  0  0  0  0
   -1.2076    2.0068   -0.0277 H   0  0  0  0  0  0  0  0  0  0  0  0
  1  2  1  0
  2  3  1  0
  3  4  2  0
  3  5  1  0
  5  6  1  0
  5  7  1  0
  7  8  1  0
  8  9  2  0
  1 10  1  0
  1 11  1  0
  1 12  1  0
  5 13  1  0
  6 14  1  0
  7 15  1  0
  7 16  1  0
  8 17  1  0
M  END
