
     RDKit          3D

 17 16  0  0  0  0  0  0  0  0999 V2000
   -1.5175   -1.3502    0.5919 C   0  0  0  0  0  0  0  0  0  0  0  0
   -0.7420   -0.7353   -0.3865 O   0  0  0  0  0  0  0  0  0  0  0  0
   -0.2273    0.4406    0.1554 C   0  0  0  0  0  0  0  0  0  0  0  0
   -0.7981    1.6140   -0.6305 C   0  0  0  0  0  0  0  0  0  0  0  0
    1.2445    0.4527    0.1689 C   0  0  0  0  0  0  0  0  0  0  0  0
    2.0394   -0.6840   -0.3482 C   0  0  0  0  0  0  0  0  0  0  0  0
    1.8234    1.4176    0.6145 O   0  0  0  0  0  0  0  0  0  0  0  0
   -0.8272   -1.5517    1.4498 H   0  0  0  0  0  0  0  0  0  0  0  0
   -2.2428   -0.6020    0.9572 H   0  0  0  0  0  0  0  0  0  0  0  0
   -2.0025   -2.2740    0.2274 H   0  0  0  0  0  0  0  0  0  0  0  0
   -0.5630    0.5852    1.2166 H   0  0  0  0  0  0  0  0  0  0  0  0
   -1.5760    1.2967   -1.3475 H   0  0  0  0  0  0  0  0  0  0  0  0
    0.0600    2.0507   -1.1960 H   0  0  0  0  0  0  0  0  0  0  0  0
   -1.2671    2.3698    0.0319 H   0  0  0  0  0  0  0  0  0  0  0  0
    1.9069   -1.5790    0.3074 H   0  0  0  0  0  0  0  0  0  0  0  0
    3.0973   -0.4590   -0.4753 H   0  0  0  0  0  0  0  0  0  0  0  0
    1.5919   -0.9923   -1.3371 H   0  0  0  0  0  0  0  0  0  0  0  0
  1  2  1  0
  2  3  1  0
  3  4  1  0
  3  5  1  0
  5  6  1  0
  5  7  2  0
  1  8  1  0
  1  9  1  0
  1 10  1  0
  3 11  1  0
  4 12  1  0
  4 13  1  0
  4 14  1  0
  6 15  1  0
  6 16  1  0
  6 17  1  0
M  END
