
     RDKit          3D

 19 19  0  0  0  0  0  0  0  0999 V2000
    2.0217   -1.2012   -0.4512 C   0  0  0  0  0  0  0  0  0  0  0  0
    1.0884   -0.2133   -0.7856 O   0  0  0  0  0  0  0  0  0  0  0  0
    0.5032    0.2663    0.3756 C   0  0  0  0  0  0  0  0  0  0  0  0
    0.8096    1.7346    0.5739 C   0  0  0  0  0  0  0  0  0  0  0  0
   -0.9863    0.0082    0.4128 C   0  0  0  0  0  0  0  0  0  0  0  0
   -1.7011    0.1530   -0.9024 C   0  0  0  0  0  0  0  0  0  0  0  0
   -2.4460   -1.0240   -0.3598 C   0  0  0  0  0  0  0  0  0  0  0  0
   -3.6219   -1.4703   -0.5202 O   0  0  0  0  0  0  0  0  0  0  0  0
   -1.2966   -1.3514    0.3472 O   0  0  0  0  0  0  0  0  0  0  0  0
    2.5255   -1.6278   -1.3154 H   0  0  0  0  0  0  0  0  0  0  0  0
    1.4784   -1.9397    0.1791 H   0  0  0  0  0  0  0  0  0  0  0  0
    2.8277   -0.7617    0.2054 H   0  0  0  0  0  0  0  0  0  0  0  0
    0.9280   -0.2589    1.2697 H   0  0  0  0  0  0  0  0  0  0  0  0
    0.7171    2.3214   -0.3470 H   0  0  0  0  0  0  0  0  0  0  0  0
    0.2012    2.0955    1.4166 H   0  0  0  0  0  0  0  0  0  0  0  0
    1.8765    1.7748    0.9343 H   0  0  0  0  0  0  0  0  0  0  0  0
   -1.4558    0.5573    1.2385 H   0  0  0  0  0  0  0  0  0  0  0  0
   -2.3668    1.0406   -0.9881 H   0  0  0  0  0  0  0  0  0  0  0  0
   -1.1029   -0.1033   -1.7757 H   0  0  0  0  0  0  0  0  0  0  0  0
  1  2  1  0
  2  3  1  0
  3  4  1  0
  3  5  1  0
  5  6  1  0
  6  7  1  0
  7  8  2  0
  7  9  1  0
  9  5  1  0
  1 10  1  0
  1 11  1  0
  1 12  1  0
  3 13  1  0
  4 14  1  0
  4 15  1  0
  4 16  1  0
  5 17  1  0
  6 18  1  0
  6 19  1  0
M  END
