
     RDKit          3D

 22 22  0  0  0  0  0  0  0  0999 V2000
    2.9687    1.0138    0.8222 C   0  0  0  0  0  0  0  0  0  0  0  0
    1.9702    1.1142   -0.1730 O   0  0  0  0  0  0  0  0  0  0  0  0
    0.9965    0.1621    0.0076 C   0  0  0  0  0  0  0  0  0  0  0  0
    0.9109   -0.7552   -1.1987 C   0  0  0  0  0  0  0  0  0  0  0  0
   -0.3550    0.8610    0.1808 C   0  0  0  0  0  0  0  0  0  0  0  0
   -1.3926   -0.2080    0.3753 C   0  0  0  0  0  0  0  0  0  0  0  0
   -2.8291    0.1718    0.5733 C   0  0  0  0  0  0  0  0  0  0  0  0
   -2.3960   -0.3257   -0.7492 C   0  0  0  0  0  0  0  0  0  0  0  0
    3.4064   -0.0129    0.7265 H   0  0  0  0  0  0  0  0  0  0  0  0
    2.5241    1.1003    1.8409 H   0  0  0  0  0  0  0  0  0  0  0  0
    3.7378    1.7772    0.6558 H   0  0  0  0  0  0  0  0  0  0  0  0
    1.2385   -0.4495    0.8930 H   0  0  0  0  0  0  0  0  0  0  0  0
    1.7179   -1.5015   -1.1724 H   0  0  0  0  0  0  0  0  0  0  0  0
    0.9716   -0.1206   -2.1073 H   0  0  0  0  0  0  0  0  0  0  0  0
   -0.0448   -1.2887   -1.1284 H   0  0  0  0  0  0  0  0  0  0  0  0
   -0.3646    1.5134    1.0514 H   0  0  0  0  0  0  0  0  0  0  0  0
   -0.5257    1.4683   -0.7327 H   0  0  0  0  0  0  0  0  0  0  0  0
   -1.0863   -1.1216    0.9175 H   0  0  0  0  0  0  0  0  0  0  0  0
   -3.0043    1.2545    0.6745 H   0  0  0  0  0  0  0  0  0  0  0  0
   -3.4824   -0.4477    1.2051 H   0  0  0  0  0  0  0  0  0  0  0  0
   -2.3594    0.4021   -1.5735 H   0  0  0  0  0  0  0  0  0  0  0  0
   -2.6024   -1.3596   -1.0888 H   0  0  0  0  0  0  0  0  0  0  0  0
  1  2  1  0
  2  3  1  0
  3  4  1  0
  3  5  1  0
  5  6  1  0
  6  7  1  0
  7  8  1  0
  8  6  1  0
  1  9  1  0
  1 10  1  0
  1 11  1  0
  3 12  1  0
  4 13  1  0
  4 14  1  0
  4 15  1  0
  5 16  1  0
  5 17  1  0
  6 18  1  0
  7 19  1  0
  7 20  1  0
  8 21  1  0
  8 22  1  0
M  END
