
     RDKit          3D

 22 21  0  0  0  0  0  0  0  0999 V2000
    1.0058   -1.3324    1.8048 C   0  0  0  0  0  0  0  0  0  0  0  0
    1.2363   -0.8736    0.5185 O   0  0  0  0  0  0  0  0  0  0  0  0
    0.3980    0.1656    0.1512 C   0  0  0  0  0  0  0  0  0  0  0  0
    1.2107    1.3968   -0.0604 C   0  0  0  0  0  0  0  0  0  0  0  0
    1.8600    1.6933    1.1458 O   0  0  0  0  0  0  0  0  0  0  0  0
   -0.4883   -0.1806   -1.0135 C   0  0  0  0  0  0  0  0  0  0  0  0
   -1.3597   -1.3574   -0.6751 C   0  0  0  0  0  0  0  0  0  0  0  0
   -1.2983    0.9618   -1.5129 C   0  0  0  0  0  0  0  0  0  0  0  0
   -0.0169   -1.7158    1.9621 H   0  0  0  0  0  0  0  0  0  0  0  0
    1.2881   -0.5337    2.5045 H   0  0  0  0  0  0  0  0  0  0  0  0
    1.7224   -2.1700    1.9764 H   0  0  0  0  0  0  0  0  0  0  0  0
   -0.2665    0.3567    1.0389 H   0  0  0  0  0  0  0  0  0  0  0  0
    0.6190    2.2645   -0.3956 H   0  0  0  0  0  0  0  0  0  0  0  0
    2.0082    1.1948   -0.7968 H   0  0  0  0  0  0  0  0  0  0  0  0
    1.1968    1.7935    1.8941 H   0  0  0  0  0  0  0  0  0  0  0  0
    0.1986   -0.5059   -1.8444 H   0  0  0  0  0  0  0  0  0  0  0  0
   -2.1900   -1.4450   -1.4039 H   0  0  0  0  0  0  0  0  0  0  0  0
   -1.7300   -1.2117    0.3590 H   0  0  0  0  0  0  0  0  0  0  0  0
   -0.7470   -2.2741   -0.6799 H   0  0  0  0  0  0  0  0  0  0  0  0
   -2.3510    0.6316   -1.6321 H   0  0  0  0  0  0  0  0  0  0  0  0
   -1.3308    1.8358   -0.8265 H   0  0  0  0  0  0  0  0  0  0  0  0
   -0.9654    1.3060   -2.5144 H   0  0  0  0  0  0  0  0  0  0  0  0
  1  2  1  0
  2  3  1  0
  3  4  1  0
  4  5  1  0
  3  6  1  0
  6  7  1  0
  6  8  1  0
  1  9  1  0
  1 10  1  0
  1 11  1  0
  3 12  1  0
  4 13  1  0
  4 14  1  0
  5 15  1  0
  6 16  1  0
  7 17  1  0
  7 18  1  0
  7 19  1  0
  8 20  1  0
  8 21  1  0
  8 22  1  0
M  END
