
     RDKit          3D

 23 23  0  0  0  0  0  0  0  0999 V2000
   -1.2804    1.9718   -0.7482 C   0  0  0  0  0  0  0  0  0  0  0  0
   -1.0763    1.0446    0.2760 O   0  0  0  0  0  0  0  0  0  0  0  0
   -0.7350   -0.2070   -0.1546 C   0  0  0  0  0  0  0  0  0  0  0  0
   -1.9653   -1.1321    0.1141 C   0  0  0  0  0  0  0  0  0  0  0  0
   -1.6052   -2.3928   -0.3262 O   0  0  0  0  0  0  0  0  0  0  0  0
    0.3558   -0.8330    0.6169 C   0  0  0  0  0  0  0  0  0  0  0  0
    1.6749   -0.2039    0.6843 C   0  0  0  0  0  0  0  0  0  0  0  0
    2.3280   -0.0417   -0.7224 C   0  0  0  0  0  0  0  0  0  0  0  0
    2.1182    1.0909    0.2066 C   0  0  0  0  0  0  0  0  0  0  0  0
   -1.5399    2.9334   -0.2970 H   0  0  0  0  0  0  0  0  0  0  0  0
   -0.4680    1.9641   -1.4697 H   0  0  0  0  0  0  0  0  0  0  0  0
   -2.2083    1.6429   -1.3066 H   0  0  0  0  0  0  0  0  0  0  0  0
   -0.6218   -0.2460   -1.2703 H   0  0  0  0  0  0  0  0  0  0  0  0
   -2.8486   -0.7300   -0.3850 H   0  0  0  0  0  0  0  0  0  0  0  0
   -2.0510   -1.1547    1.2195 H   0  0  0  0  0  0  0  0  0  0  0  0
   -2.3505   -2.9008   -0.7148 H   0  0  0  0  0  0  0  0  0  0  0  0
   -0.0548   -0.9837    1.6696 H   0  0  0  0  0  0  0  0  0  0  0  0
    0.4352   -1.9166    0.2665 H   0  0  0  0  0  0  0  0  0  0  0  0
    2.3732   -0.6848    1.4516 H   0  0  0  0  0  0  0  0  0  0  0  0
    3.2742   -0.5645   -0.8435 H   0  0  0  0  0  0  0  0  0  0  0  0
    1.6683   -0.0819   -1.5978 H   0  0  0  0  0  0  0  0  0  0  0  0
    3.0903    1.4950    0.6263 H   0  0  0  0  0  0  0  0  0  0  0  0
    1.4872    1.9309   -0.1155 H   0  0  0  0  0  0  0  0  0  0  0  0
  1  2  1  0
  2  3  1  0
  3  4  1  0
  4  5  1  0
  3  6  1  0
  6  7  1  0
  7  8  1  0
  8  9  1  0
  9  7  1  0
  1 10  1  0
  1 11  1  0
  1 12  1  0
  3 13  1  0
  4 14  1  0
  4 15  1  0
  5 16  1  0
  6 17  1  0
  6 18  1  0
  7 19  1  0
  8 20  1  0
  8 21  1  0
  9 22  1  0
  9 23  1  0
M  END
