
     RDKit          3D

 21 21  0  0  0  0  0  0  0  0999 V2000
   -1.9520   -1.6272    0.2818 C   0  0  0  0  0  0  0  0  0  0  0  0
   -1.0320   -1.0191   -0.5722 O   0  0  0  0  0  0  0  0  0  0  0  0
   -0.1950   -0.1472    0.1423 C   0  0  0  0  0  0  0  0  0  0  0  0
   -0.4031    1.2249   -0.4000 C   0  0  0  0  0  0  0  0  0  0  0  0
   -1.8235    1.6474   -0.2684 C   0  0  0  0  0  0  0  0  0  0  0  0
   -2.5858    1.7575   -1.2117 O   0  0  0  0  0  0  0  0  0  0  0  0
    1.2148   -0.6416    0.0493 C   0  0  0  0  0  0  0  0  0  0  0  0
    2.3107    0.1276    0.7310 C   0  0  0  0  0  0  0  0  0  0  0  0
    2.2538   -0.0936   -0.7928 C   0  0  0  0  0  0  0  0  0  0  0  0
   -2.5817   -0.8513    0.7925 H   0  0  0  0  0  0  0  0  0  0  0  0
   -2.6688   -2.1846   -0.3560 H   0  0  0  0  0  0  0  0  0  0  0  0
   -1.5256   -2.3022    1.0075 H   0  0  0  0  0  0  0  0  0  0  0  0
   -0.4541   -0.1403    1.2196 H   0  0  0  0  0  0  0  0  0  0  0  0
    0.1852    2.0073    0.1151 H   0  0  0  0  0  0  0  0  0  0  0  0
   -0.1542    1.3060   -1.4804 H   0  0  0  0  0  0  0  0  0  0  0  0
   -2.2209    1.8787    0.7365 H   0  0  0  0  0  0  0  0  0  0  0  0
    1.2890   -1.7475    0.2794 H   0  0  0  0  0  0  0  0  0  0  0  0
    1.9804    1.1104    1.1155 H   0  0  0  0  0  0  0  0  0  0  0  0
    3.1680   -0.3597    1.1990 H   0  0  0  0  0  0  0  0  0  0  0  0
    3.0011   -0.7948   -1.2372 H   0  0  0  0  0  0  0  0  0  0  0  0
    2.1938    0.8496   -1.3508 H   0  0  0  0  0  0  0  0  0  0  0  0
  1  2  1  0
  2  3  1  0
  3  4  1  0
  4  5  1  0
  5  6  2  0
  3  7  1  0
  7  8  1  0
  8  9  1  0
  9  7  1  0
  1 10  1  0
  1 11  1  0
  1 12  1  0
  3 13  1  0
  4 14  1  0
  4 15  1  0
  5 16  1  0
  7 17  1  0
  8 18  1  0
  8 19  1  0
  9 20  1  0
  9 21  1  0
M  END
