
     RDKit          3D

 21 22  0  0  0  0  0  0  0  0999 V2000
   -2.1331    1.5492   -0.3069 C   0  0  0  0  0  0  0  0  0  0  0  0
   -1.2147    0.6435   -0.8086 O   0  0  0  0  0  0  0  0  0  0  0  0
   -0.7841   -0.2413    0.1743 C   0  0  0  0  0  0  0  0  0  0  0  0
   -1.2121   -1.6170   -0.1829 C   0  0  0  0  0  0  0  0  0  0  0  0
    0.6651   -0.0462    0.4056 C   0  0  0  0  0  0  0  0  0  0  0  0
    1.5751   -1.2256    0.4626 C   0  0  0  0  0  0  0  0  0  0  0  0
    1.7419   -0.1435   -0.5287 C   0  0  0  0  0  0  0  0  0  0  0  0
    2.2566    1.1698    0.0612 C   0  0  0  0  0  0  0  0  0  0  0  0
    1.0876    1.2019    0.8268 O   0  0  0  0  0  0  0  0  0  0  0  0
   -2.4338    2.2146   -1.1198 H   0  0  0  0  0  0  0  0  0  0  0  0
   -1.6237    2.1015    0.5197 H   0  0  0  0  0  0  0  0  0  0  0  0
   -3.0194    1.0702    0.1423 H   0  0  0  0  0  0  0  0  0  0  0  0
   -1.3157    0.0300    1.1340 H   0  0  0  0  0  0  0  0  0  0  0  0
   -0.6623   -2.0824   -1.0050 H   0  0  0  0  0  0  0  0  0  0  0  0
   -1.2193   -2.2856    0.7278 H   0  0  0  0  0  0  0  0  0  0  0  0
   -2.2836   -1.5739   -0.4922 H   0  0  0  0  0  0  0  0  0  0  0  0
    2.2550   -1.2437    1.3443 H   0  0  0  0  0  0  0  0  0  0  0  0
    1.1123   -2.1835    0.1823 H   0  0  0  0  0  0  0  0  0  0  0  0
    1.7020   -0.2788   -1.6020 H   0  0  0  0  0  0  0  0  0  0  0  0
    3.1231    0.9679    0.7258 H   0  0  0  0  0  0  0  0  0  0  0  0
    2.3828    1.9727   -0.6607 H   0  0  0  0  0  0  0  0  0  0  0  0
  1  2  1  0
  2  3  1  0
  3  4  1  0
  3  5  1  0
  5  6  1  0
  6  7  1  0
  7  8  1  0
  8  9  1  0
  7  5  1  0
  9  5  1  0
  1 10  1  0
  1 11  1  0
  1 12  1  0
  3 13  1  0
  4 14  1  0
  4 15  1  0
  4 16  1  0
  6 17  1  0
  6 18  1  0
  7 19  1  0
  8 20  1  0
  8 21  1  0
M  END
