
     RDKit          3D

 19 19  0  0  0  0  0  0  0  0999 V2000
    2.2946   -0.3060   -1.0033 C   0  0  0  0  0  0  0  0  0  0  0  0
    1.0557   -0.8982   -0.6677 O   0  0  0  0  0  0  0  0  0  0  0  0
    0.4819   -0.2620    0.3935 C   0  0  0  0  0  0  0  0  0  0  0  0
    0.3151   -1.1396    1.5758 C   0  0  0  0  0  0  0  0  0  0  0  0
   -0.1799   -0.7237    2.6002 O   0  0  0  0  0  0  0  0  0  0  0  0
   -0.8510    0.3585    0.0434 C   0  0  0  0  0  0  0  0  0  0  0  0
   -1.8936   -0.5025   -0.6245 C   0  0  0  0  0  0  0  0  0  0  0  0
   -0.9881    1.7849    0.0017 C   0  0  0  0  0  0  0  0  0  0  0  0
   -1.4049    1.0194    1.2213 O   0  0  0  0  0  0  0  0  0  0  0  0
    2.9453   -0.3885   -0.1248 H   0  0  0  0  0  0  0  0  0  0  0  0
    2.0463    0.7648   -1.2380 H   0  0  0  0  0  0  0  0  0  0  0  0
    2.7343   -0.7378   -1.8957 H   0  0  0  0  0  0  0  0  0  0  0  0
    1.1583    0.5749    0.7213 H   0  0  0  0  0  0  0  0  0  0  0  0
    0.6385   -2.1623    1.5239 H   0  0  0  0  0  0  0  0  0  0  0  0
   -2.0835   -1.4030   -0.0113 H   0  0  0  0  0  0  0  0  0  0  0  0
   -2.8393    0.0761   -0.6733 H   0  0  0  0  0  0  0  0  0  0  0  0
   -1.4995   -0.7541   -1.6405 H   0  0  0  0  0  0  0  0  0  0  0  0
   -0.0742    2.4067    0.2184 H   0  0  0  0  0  0  0  0  0  0  0  0
   -1.8561    2.2926   -0.4206 H   0  0  0  0  0  0  0  0  0  0  0  0
  1  2  1  0
  2  3  1  0
  3  4  1  0
  4  5  2  0
  3  6  1  0
  6  7  1  0
  6  8  1  0
  8  9  1  0
  9  6  1  0
  1 10  1  0
  1 11  1  0
  1 12  1  0
  3 13  1  0
  4 14  1  0
  7 15  1  0
  7 16  1  0
  7 17  1  0
  8 18  1  0
  8 19  1  0
M  END
