
     RDKit          3D

 16 16  0  0  0  0  0  0  0  0999 V2000
    2.0827    0.3887    0.7067 C   0  0  0  0  0  0  0  0  0  0  0  0
    1.0349   -0.5261    0.6722 O   0  0  0  0  0  0  0  0  0  0  0  0
    0.1557   -0.3151   -0.3572 C   0  0  0  0  0  0  0  0  0  0  0  0
    0.0674   -1.5492   -1.1801 C   0  0  0  0  0  0  0  0  0  0  0  0
   -0.6394   -1.6513   -2.1632 O   0  0  0  0  0  0  0  0  0  0  0  0
   -1.2295   -0.1206    0.2677 C   0  0  0  0  0  0  0  0  0  0  0  0
   -1.8503    1.1838    0.3519 C   0  0  0  0  0  0  0  0  0  0  0  0
   -2.2881    0.1109   -0.6043 O   0  0  0  0  0  0  0  0  0  0  0  0
    2.6591    0.3328   -0.2280 H   0  0  0  0  0  0  0  0  0  0  0  0
    2.7533    0.0742    1.5338 H   0  0  0  0  0  0  0  0  0  0  0  0
    1.7439    1.4173    0.9523 H   0  0  0  0  0  0  0  0  0  0  0  0
    0.4190    0.5515   -0.9993 H   0  0  0  0  0  0  0  0  0  0  0  0
    0.6541   -2.4167   -0.9099 H   0  0  0  0  0  0  0  0  0  0  0  0
   -1.4369   -0.8712    1.0493 H   0  0  0  0  0  0  0  0  0  0  0  0
   -1.5140    2.0454   -0.2305 H   0  0  0  0  0  0  0  0  0  0  0  0
   -2.6121    1.3455    1.1388 H   0  0  0  0  0  0  0  0  0  0  0  0
  1  2  1  0
  2  3  1  0
  3  4  1  0
  4  5  2  0
  3  6  1  0
  6  7  1  0
  7  8  1  0
  8  6  1  0
  1  9  1  0
  1 10  1  0
  1 11  1  0
  3 12  1  0
  4 13  1  0
  6 14  1  0
  7 15  1  0
  7 16  1  0
M  END
