
     RDKit          3D

 19 18  0  0  0  0  0  0  0  0999 V2000
    2.0927   -0.5867    0.6698 C   0  0  0  0  0  0  0  0  0  0  0  0
    0.8641    0.0719    0.8001 O   0  0  0  0  0  0  0  0  0  0  0  0
    0.1836    0.1379   -0.3947 C   0  0  0  0  0  0  0  0  0  0  0  0
   -0.0750    1.5838   -0.8202 C   0  0  0  0  0  0  0  0  0  0  0  0
   -0.8450    2.2012    0.1837 O   0  0  0  0  0  0  0  0  0  0  0  0
   -1.2056   -0.4917   -0.2694 C   0  0  0  0  0  0  0  0  0  0  0  0
   -1.9365    0.1917    0.7016 O   0  0  0  0  0  0  0  0  0  0  0  0
   -1.1371   -1.9273    0.0105 C   0  0  0  0  0  0  0  0  0  0  0  0
   -1.6887   -2.3617    1.0002 O   0  0  0  0  0  0  0  0  0  0  0  0
    2.6104   -0.6216    1.6441 H   0  0  0  0  0  0  0  0  0  0  0  0
    1.8490   -1.6425    0.4115 H   0  0  0  0  0  0  0  0  0  0  0  0
    2.7325   -0.0968   -0.0878 H   0  0  0  0  0  0  0  0  0  0  0  0
    0.7709   -0.3506   -1.1943 H   0  0  0  0  0  0  0  0  0  0  0  0
   -0.6884    1.6234   -1.7346 H   0  0  0  0  0  0  0  0  0  0  0  0
    0.8615    2.1313   -1.0156 H   0  0  0  0  0  0  0  0  0  0  0  0
   -0.4094    3.0615    0.3970 H   0  0  0  0  0  0  0  0  0  0  0  0
   -1.7091   -0.2582   -1.2467 H   0  0  0  0  0  0  0  0  0  0  0  0
   -1.6673   -0.0849    1.6028 H   0  0  0  0  0  0  0  0  0  0  0  0
   -0.6025   -2.5808   -0.6581 H   0  0  0  0  0  0  0  0  0  0  0  0
  1  2  1  0
  2  3  1  0
  3  4  1  0
  4  5  1  0
  3  6  1  0
  6  7  1  0
  6  8  1  0
  8  9  2  0
  1 10  1  0
  1 11  1  0
  1 12  1  0
  3 13  1  0
  4 14  1  0
  4 15  1  0
  5 16  1  0
  6 17  1  0
  7 18  1  0
  8 19  1  0
M  END
