
     RDKit          3D

 15 15  0  0  0  0  0  0  0  0999 V2000
    2.5138    0.5475    0.2180 C   0  0  0  0  0  0  0  0  0  0  0  0
    1.1605    0.3120    0.2978 O   0  0  0  0  0  0  0  0  0  0  0  0
    0.2441    0.0793   -0.7059 C   0  0  0  0  0  0  0  0  0  0  0  0
    0.5804    0.0691   -1.8752 O   0  0  0  0  0  0  0  0  0  0  0  0
   -1.1570   -0.1837   -0.2117 C   0  0  0  0  0  0  0  0  0  0  0  0
   -1.8509    0.9863    0.3036 C   0  0  0  0  0  0  0  0  0  0  0  0
   -2.4931    1.0547    1.3156 O   0  0  0  0  0  0  0  0  0  0  0  0
   -1.3704   -1.5166    0.2736 C   0  0  0  0  0  0  0  0  0  0  0  0
   -1.8901   -1.0651   -1.0186 O   0  0  0  0  0  0  0  0  0  0  0  0
    2.8087    1.2848   -0.5371 H   0  0  0  0  0  0  0  0  0  0  0  0
    2.8503    0.9080    1.2105 H   0  0  0  0  0  0  0  0  0  0  0  0
    3.0682   -0.3928   -0.0600 H   0  0  0  0  0  0  0  0  0  0  0  0
   -1.7552    1.8910   -0.3424 H   0  0  0  0  0  0  0  0  0  0  0  0
   -0.5594   -2.2521    0.1230 H   0  0  0  0  0  0  0  0  0  0  0  0
   -2.1499   -1.7222    1.0087 H   0  0  0  0  0  0  0  0  0  0  0  0
  1  2  1  0
  2  3  1  0
  3  4  2  0
  3  5  1  0
  5  6  1  0
  6  7  2  0
  5  8  1  0
  8  9  1  0
  9  5  1  0
  1 10  1  0
  1 11  1  0
  1 12  1  0
  6 13  1  0
  8 14  1  0
  8 15  1  0
M  END
