
     RDKit          3D

 23 23  0  0  0  0  0  0  0  0999 V2000
   -1.0259    2.1553    0.9993 C   0  0  0  0  0  0  0  0  0  0  0  0
   -0.7461    1.3497   -0.0710 O   0  0  0  0  0  0  0  0  0  0  0  0
    0.0708    0.2643    0.2435 C   0  0  0  0  0  0  0  0  0  0  0  0
    1.3333    0.3765   -0.5645 C   0  0  0  0  0  0  0  0  0  0  0  0
    2.3188   -0.7186   -0.3352 C   0  0  0  0  0  0  0  0  0  0  0  0
    3.4489   -0.5219   -1.1259 O   0  0  0  0  0  0  0  0  0  0  0  0
   -0.6951   -0.9801   -0.1542 C   0  0  0  0  0  0  0  0  0  0  0  0
   -2.0299   -1.2292    0.5066 C   0  0  0  0  0  0  0  0  0  0  0  0
   -2.0200   -0.8046   -0.8967 C   0  0  0  0  0  0  0  0  0  0  0  0
   -0.1038    2.5980    1.4619 H   0  0  0  0  0  0  0  0  0  0  0  0
   -1.5978    3.0334    0.6065 H   0  0  0  0  0  0  0  0  0  0  0  0
   -1.6468    1.7142    1.7870 H   0  0  0  0  0  0  0  0  0  0  0  0
    0.3458    0.2484    1.3193 H   0  0  0  0  0  0  0  0  0  0  0  0
    1.8231    1.3504   -0.3110 H   0  0  0  0  0  0  0  0  0  0  0  0
    1.0149    0.4264   -1.6417 H   0  0  0  0  0  0  0  0  0  0  0  0
    2.6696   -0.6290    0.7283 H   0  0  0  0  0  0  0  0  0  0  0  0
    1.8990   -1.7204   -0.5367 H   0  0  0  0  0  0  0  0  0  0  0  0
    4.2069   -0.9865   -0.6595 H   0  0  0  0  0  0  0  0  0  0  0  0
   -0.1173   -1.8879   -0.4669 H   0  0  0  0  0  0  0  0  0  0  0  0
   -2.3274   -2.2942    0.7012 H   0  0  0  0  0  0  0  0  0  0  0  0
   -2.3396   -0.5255    1.2955 H   0  0  0  0  0  0  0  0  0  0  0  0
   -2.2455   -1.4837   -1.7413 H   0  0  0  0  0  0  0  0  0  0  0  0
   -2.2359    0.2650   -1.1446 H   0  0  0  0  0  0  0  0  0  0  0  0
  1  2  1  0
  2  3  1  0
  3  4  1  0
  4  5  1  0
  5  6  1  0
  3  7  1  0
  7  8  1  0
  8  9  1  0
  9  7  1  0
  1 10  1  0
  1 11  1  0
  1 12  1  0
  3 13  1  0
  4 14  1  0
  4 15  1  0
  5 16  1  0
  5 17  1  0
  6 18  1  0
  7 19  1  0
  8 20  1  0
  8 21  1  0
  9 22  1  0
  9 23  1  0
M  END
