
     RDKit          3D

 24 23  0  0  0  0  0  0  0  0999 V2000
    2.1414    0.6490   -0.8624 C   0  0  0  0  0  0  0  0  0  0  0  0
    0.7821    0.5135   -0.8396 O   0  0  0  0  0  0  0  0  0  0  0  0
    0.2702   -0.1572    0.2423 C   0  0  0  0  0  0  0  0  0  0  0  0
    0.7718   -1.5673    0.3747 C   0  0  0  0  0  0  0  0  0  0  0  0
    0.5139    0.5441    1.5564 C   0  0  0  0  0  0  0  0  0  0  0  0
   -1.2484   -0.1706    0.0403 C   0  0  0  0  0  0  0  0  0  0  0  0
   -1.6767    1.2822   -0.0076 C   0  0  0  0  0  0  0  0  0  0  0  0
   -1.5441   -0.8909   -1.2373 C   0  0  0  0  0  0  0  0  0  0  0  0
    2.5402    1.2133    0.0309 H   0  0  0  0  0  0  0  0  0  0  0  0
    2.3911    1.3077   -1.7321 H   0  0  0  0  0  0  0  0  0  0  0  0
    2.6993   -0.2958   -1.0308 H   0  0  0  0  0  0  0  0  0  0  0  0
    0.3140   -1.9751    1.3228 H   0  0  0  0  0  0  0  0  0  0  0  0
    1.8525   -1.5394    0.5427 H   0  0  0  0  0  0  0  0  0  0  0  0
    0.4493   -2.2121   -0.4607 H   0  0  0  0  0  0  0  0  0  0  0  0
    1.0043    1.5398    1.4194 H   0  0  0  0  0  0  0  0  0  0  0  0
    1.1545   -0.0522    2.2457 H   0  0  0  0  0  0  0  0  0  0  0  0
   -0.4206    0.7497    2.1191 H   0  0  0  0  0  0  0  0  0  0  0  0
   -1.6650   -0.6792    0.9382 H   0  0  0  0  0  0  0  0  0  0  0  0
   -2.2702    1.5203   -0.9039 H   0  0  0  0  0  0  0  0  0  0  0  0
   -0.8350    1.9848    0.0273 H   0  0  0  0  0  0  0  0  0  0  0  0
   -2.3300    1.5210    0.8776 H   0  0  0  0  0  0  0  0  0  0  0  0
   -0.7302   -0.7235   -1.9692 H   0  0  0  0  0  0  0  0  0  0  0  0
   -1.6400   -1.9781   -1.0068 H   0  0  0  0  0  0  0  0  0  0  0  0
   -2.5244   -0.5840   -1.6869 H   0  0  0  0  0  0  0  0  0  0  0  0
  1  2  1  0
  2  3  1  0
  3  4  1  0
  3  5  1  0
  3  6  1  0
  6  7  1  0
  6  8  1  0
  1  9  1  0
  1 10  1  0
  1 11  1  0
  4 12  1  0
  4 13  1  0
  4 14  1  0
  5 15  1  0
  5 16  1  0
  5 17  1  0
  6 18  1  0
  7 19  1  0
  7 20  1  0
  7 21  1  0
  8 22  1  0
  8 23  1  0
  8 24  1  0
M  END
