
     RDKit          3D

 17 16  0  0  0  0  0  0  0  0999 V2000
   -2.3497   -1.4840   -0.2142 C   0  0  0  0  0  0  0  0  0  0  0  0
   -1.8133   -0.2519    0.0470 O   0  0  0  0  0  0  0  0  0  0  0  0
   -0.7574    0.1017   -0.7472 C   0  0  0  0  0  0  0  0  0  0  0  0
    0.4595    0.3368    0.0467 C   0  0  0  0  0  0  0  0  0  0  0  0
    1.4387    0.5440    0.6812 C   0  0  0  0  0  0  0  0  0  0  0  0
    2.6519    0.7880    1.4912 C   0  0  0  0  0  0  0  0  0  0  0  0
    3.5561   -0.2671    1.3821 O   0  0  0  0  0  0  0  0  0  0  0  0
   -1.0911    1.3320   -1.5075 C   0  0  0  0  0  0  0  0  0  0  0  0
   -2.1545    1.8624   -1.3755 O   0  0  0  0  0  0  0  0  0  0  0  0
   -2.7101   -1.4828   -1.2726 H   0  0  0  0  0  0  0  0  0  0  0  0
   -1.6990   -2.3380   -0.0394 H   0  0  0  0  0  0  0  0  0  0  0  0
   -3.2530   -1.6010    0.4395 H   0  0  0  0  0  0  0  0  0  0  0  0
   -0.5697   -0.7481   -1.4649 H   0  0  0  0  0  0  0  0  0  0  0  0
    2.3221    0.8496    2.5392 H   0  0  0  0  0  0  0  0  0  0  0  0
    3.1746    1.7165    1.1420 H   0  0  0  0  0  0  0  0  0  0  0  0
    3.1458   -1.0917    1.0328 H   0  0  0  0  0  0  0  0  0  0  0  0
   -0.3509    1.7336   -2.1802 H   0  0  0  0  0  0  0  0  0  0  0  0
  1  2  1  0
  2  3  1  0
  3  4  1  0
  4  5  3  0
  5  6  1  0
  6  7  1  0
  3  8  1  0
  8  9  2  0
  1 10  1  0
  1 11  1  0
  1 12  1  0
  3 13  1  0
  6 14  1  0
  6 15  1  0
  7 16  1  0
  8 17  1  0
M  END
