
     RDKit          3D

 21 22  0  0  0  0  0  0  0  0999 V2000
   -2.3188   -1.3632    0.6606 C   0  0  0  0  0  0  0  0  0  0  0  0
   -1.7080   -0.1278    0.9266 O   0  0  0  0  0  0  0  0  0  0  0  0
   -0.9118    0.2880   -0.1211 C   0  0  0  0  0  0  0  0  0  0  0  0
   -1.3767    1.5932   -0.6911 C   0  0  0  0  0  0  0  0  0  0  0  0
    0.5288    0.3745    0.3719 C   0  0  0  0  0  0  0  0  0  0  0  0
    1.0344   -0.8355    0.8383 O   0  0  0  0  0  0  0  0  0  0  0  0
    2.0028   -0.9694   -0.1358 C   0  0  0  0  0  0  0  0  0  0  0  0
    2.9691    0.1255   -0.4161 C   0  0  0  0  0  0  0  0  0  0  0  0
    1.5424    0.3033   -0.7486 C   0  0  0  0  0  0  0  0  0  0  0  0
   -2.9458   -1.6550    1.5272 H   0  0  0  0  0  0  0  0  0  0  0  0
   -1.5741   -2.1716    0.5081 H   0  0  0  0  0  0  0  0  0  0  0  0
   -2.9357   -1.2769   -0.2635 H   0  0  0  0  0  0  0  0  0  0  0  0
   -0.9204   -0.4554   -0.9717 H   0  0  0  0  0  0  0  0  0  0  0  0
   -1.2951    1.6242   -1.8102 H   0  0  0  0  0  0  0  0  0  0  0  0
   -0.6799    2.3880   -0.3224 H   0  0  0  0  0  0  0  0  0  0  0  0
   -2.4205    1.8425   -0.4371 H   0  0  0  0  0  0  0  0  0  0  0  0
    0.6948    1.1815    1.1032 H   0  0  0  0  0  0  0  0  0  0  0  0
    2.0405   -1.9092   -0.7296 H   0  0  0  0  0  0  0  0  0  0  0  0
    3.6473   -0.0656   -1.2744 H   0  0  0  0  0  0  0  0  0  0  0  0
    3.4019    0.7372    0.3991 H   0  0  0  0  0  0  0  0  0  0  0  0
    1.2247    0.3717   -1.7922 H   0  0  0  0  0  0  0  0  0  0  0  0
  1  2  1  0
  2  3  1  0
  3  4  1  0
  3  5  1  0
  5  6  1  0
  6  7  1  0
  7  8  1  0
  8  9  1  0
  9  5  1  0
  9  7  1  0
  1 10  1  0
  1 11  1  0
  1 12  1  0
  3 13  1  0
  4 14  1  0
  4 15  1  0
  4 16  1  0
  5 17  1  0
  7 18  1  0
  8 19  1  0
  8 20  1  0
  9 21  1  0
M  END
