
     RDKit          3D

 23 22  0  0  0  0  0  0  0  0999 V2000
   -2.1663   -1.2806   -0.5036 C   0  0  0  0  0  0  0  0  0  0  0  0
   -0.8908   -0.8886   -0.8649 O   0  0  0  0  0  0  0  0  0  0  0  0
   -0.4710    0.2793   -0.2715 C   0  0  0  0  0  0  0  0  0  0  0  0
   -0.4488    0.1861    1.2500 C   0  0  0  0  0  0  0  0  0  0  0  0
   -1.3014    1.4767   -0.6280 C   0  0  0  0  0  0  0  0  0  0  0  0
    0.9578    0.5281   -0.7790 C   0  0  0  0  0  0  0  0  0  0  0  0
    1.8534   -0.6079   -0.3980 C   0  0  0  0  0  0  0  0  0  0  0  0
    2.7584   -0.4828    0.7863 C   0  0  0  0  0  0  0  0  0  0  0  0
    1.8146   -1.6250   -1.0837 O   0  0  0  0  0  0  0  0  0  0  0  0
   -2.2063   -1.4421    0.5991 H   0  0  0  0  0  0  0  0  0  0  0  0
   -2.3263   -2.2907   -0.9513 H   0  0  0  0  0  0  0  0  0  0  0  0
   -2.9579   -0.5808   -0.8475 H   0  0  0  0  0  0  0  0  0  0  0  0
   -0.3955   -0.8588    1.5584 H   0  0  0  0  0  0  0  0  0  0  0  0
   -1.2877    0.7582    1.6960 H   0  0  0  0  0  0  0  0  0  0  0  0
    0.4961    0.6827    1.6141 H   0  0  0  0  0  0  0  0  0  0  0  0
   -0.6650    2.3168   -1.0223 H   0  0  0  0  0  0  0  0  0  0  0  0
   -1.8203    1.9226    0.2597 H   0  0  0  0  0  0  0  0  0  0  0  0
   -2.0857    1.2634   -1.3863 H   0  0  0  0  0  0  0  0  0  0  0  0
    1.3158    1.4946   -0.3720 H   0  0  0  0  0  0  0  0  0  0  0  0
    0.9566    0.5497   -1.8829 H   0  0  0  0  0  0  0  0  0  0  0  0
    2.8794    0.5997    0.9879 H   0  0  0  0  0  0  0  0  0  0  0  0
    3.7004   -0.9970    0.5819 H   0  0  0  0  0  0  0  0  0  0  0  0
    2.2904   -1.0035    1.6576 H   0  0  0  0  0  0  0  0  0  0  0  0
  1  2  1  0
  2  3  1  0
  3  4  1  0
  3  5  1  0
  3  6  1  0
  6  7  1  0
  7  8  1  0
  7  9  2  0
  1 10  1  0
  1 11  1  0
  1 12  1  0
  4 13  1  0
  4 14  1  0
  4 15  1  0
  5 16  1  0
  5 17  1  0
  5 18  1  0
  6 19  1  0
  6 20  1  0
  8 21  1  0
  8 22  1  0
  8 23  1  0
M  END
