
     RDKit          3D

 23 23  0  0  0  0  0  0  0  0999 V2000
   -3.1252   -1.1092    0.2670 C   0  0  0  0  0  0  0  0  0  0  0  0
   -1.8547   -1.1171   -0.2627 O   0  0  0  0  0  0  0  0  0  0  0  0
   -1.1871    0.0827    0.0175 C   0  0  0  0  0  0  0  0  0  0  0  0
   -0.9547    0.8626   -1.2792 C   0  0  0  0  0  0  0  0  0  0  0  0
    0.0650   -0.1383    0.8028 C   0  0  0  0  0  0  0  0  0  0  0  0
    0.8302    1.1130    1.1405 C   0  0  0  0  0  0  0  0  0  0  0  0
    1.4047    0.0441    0.2001 C   0  0  0  0  0  0  0  0  0  0  0  0
    2.5199   -0.5703    0.7060 O   0  0  0  0  0  0  0  0  0  0  0  0
    3.4306   -0.7709   -0.3270 C   0  0  0  0  0  0  0  0  0  0  0  0
   -3.6945   -0.2480   -0.1915 H   0  0  0  0  0  0  0  0  0  0  0  0
   -3.7085   -2.0052    0.0269 H   0  0  0  0  0  0  0  0  0  0  0  0
   -3.1605   -0.9571    1.3577 H   0  0  0  0  0  0  0  0  0  0  0  0
   -1.8944    0.7083    0.6007 H   0  0  0  0  0  0  0  0  0  0  0  0
   -0.5539    1.8496   -0.9797 H   0  0  0  0  0  0  0  0  0  0  0  0
   -1.9918    0.9768   -1.7164 H   0  0  0  0  0  0  0  0  0  0  0  0
   -0.3172    0.2788   -1.9399 H   0  0  0  0  0  0  0  0  0  0  0  0
   -0.0117   -0.9353    1.5579 H   0  0  0  0  0  0  0  0  0  0  0  0
    0.6229    2.0648    0.6578 H   0  0  0  0  0  0  0  0  0  0  0  0
    1.1974    1.1374    2.1863 H   0  0  0  0  0  0  0  0  0  0  0  0
    1.4132    0.2633   -0.8715 H   0  0  0  0  0  0  0  0  0  0  0  0
    4.3570   -1.2586   -0.0156 H   0  0  0  0  0  0  0  0  0  0  0  0
    2.8889   -1.3374   -1.1210 H   0  0  0  0  0  0  0  0  0  0  0  0
    3.7245    0.1981   -0.8167 H   0  0  0  0  0  0  0  0  0  0  0  0
  1  2  1  0
  2  3  1  0
  3  4  1  0
  3  5  1  0
  5  6  1  0
  6  7  1  0
  7  8  1  0
  8  9  1  0
  7  5  1  0
  1 10  1  0
  1 11  1  0
  1 12  1  0
  3 13  1  0
  4 14  1  0
  4 15  1  0
  4 16  1  0
  5 17  1  0
  6 18  1  0
  6 19  1  0
  7 20  1  0
  9 21  1  0
  9 22  1  0
  9 23  1  0
M  END
