
     RDKit          3D

 25 25  0  0  0  0  0  0  0  0999 V2000
    2.2695    0.8890    0.8822 C   0  0  0  0  0  0  0  0  0  0  0  0
    0.8949    0.6753    0.8439 O   0  0  0  0  0  0  0  0  0  0  0  0
    0.5374   -0.1911   -0.1733 C   0  0  0  0  0  0  0  0  0  0  0  0
    0.9803    0.4197   -1.4965 C   0  0  0  0  0  0  0  0  0  0  0  0
    1.2254   -1.5091    0.0873 C   0  0  0  0  0  0  0  0  0  0  0  0
   -0.9251   -0.4245   -0.2557 C   0  0  0  0  0  0  0  0  0  0  0  0
   -1.7078    0.8618   -0.5075 C   0  0  0  0  0  0  0  0  0  0  0  0
   -2.7611    0.3125    0.4386 C   0  0  0  0  0  0  0  0  0  0  0  0
   -1.6653   -0.5421    1.0541 C   0  0  0  0  0  0  0  0  0  0  0  0
    2.5440    1.5821    1.6978 H   0  0  0  0  0  0  0  0  0  0  0  0
    2.6908    1.2615   -0.0530 H   0  0  0  0  0  0  0  0  0  0  0  0
    2.7746   -0.0814    1.1144 H   0  0  0  0  0  0  0  0  0  0  0  0
    0.1832    0.3162   -2.2775 H   0  0  0  0  0  0  0  0  0  0  0  0
    1.1845    1.4979   -1.4086 H   0  0  0  0  0  0  0  0  0  0  0  0
    1.8412   -0.1718   -1.8405 H   0  0  0  0  0  0  0  0  0  0  0  0
    0.6027   -2.3824   -0.2584 H   0  0  0  0  0  0  0  0  0  0  0  0
    2.1590   -1.5304   -0.4869 H   0  0  0  0  0  0  0  0  0  0  0  0
    1.3947   -1.6824    1.1706 H   0  0  0  0  0  0  0  0  0  0  0  0
   -1.1828   -1.1694   -1.0165 H   0  0  0  0  0  0  0  0  0  0  0  0
   -1.1829    1.7579   -0.1434 H   0  0  0  0  0  0  0  0  0  0  0  0
   -2.0239    0.9899   -1.5423 H   0  0  0  0  0  0  0  0  0  0  0  0
   -3.1675    1.0332    1.1526 H   0  0  0  0  0  0  0  0  0  0  0  0
   -3.4848   -0.2874   -0.1438 H   0  0  0  0  0  0  0  0  0  0  0  0
   -1.1292   -0.0731    1.8905 H   0  0  0  0  0  0  0  0  0  0  0  0
   -2.0518   -1.5519    1.2719 H   0  0  0  0  0  0  0  0  0  0  0  0
  1  2  1  0
  2  3  1  0
  3  4  1  0
  3  5  1  0
  3  6  1  0
  6  7  1  0
  7  8  1  0
  8  9  1  0
  9  6  1  0
  1 10  1  0
  1 11  1  0
  1 12  1  0
  4 13  1  0
  4 14  1  0
  4 15  1  0
  5 16  1  0
  5 17  1  0
  5 18  1  0
  6 19  1  0
  7 20  1  0
  7 21  1  0
  8 22  1  0
  8 23  1  0
  9 24  1  0
  9 25  1  0
M  END
