
     RDKit          3D

 17 17  0  0  0  0  0  0  0  0999 V2000
    2.7869    0.7031   -0.6667 C   0  0  0  0  0  0  0  0  0  0  0  0
    1.4462    0.2346   -0.8553 O   0  0  0  0  0  0  0  0  0  0  0  0
    0.8895   -0.6166    0.0680 C   0  0  0  0  0  0  0  0  0  0  0  0
    1.5834   -0.9586    1.0574 O   0  0  0  0  0  0  0  0  0  0  0  0
   -0.4902   -1.1656   -0.0242 C   0  0  0  0  0  0  0  0  0  0  0  0
   -1.1629   -0.7299   -1.1423 O   0  0  0  0  0  0  0  0  0  0  0  0
   -2.2366    0.0508   -0.7108 C   0  0  0  0  0  0  0  0  0  0  0  0
   -1.6673    0.5350    0.6276 C   0  0  0  0  0  0  0  0  0  0  0  0
   -1.1808   -0.7106    1.0938 O   0  0  0  0  0  0  0  0  0  0  0  0
    2.8779    1.1955    0.3391 H   0  0  0  0  0  0  0  0  0  0  0  0
    3.4569   -0.1779   -0.7508 H   0  0  0  0  0  0  0  0  0  0  0  0
    2.9973    1.4865   -1.4179 H   0  0  0  0  0  0  0  0  0  0  0  0
   -0.4848   -2.2683   -0.0392 H   0  0  0  0  0  0  0  0  0  0  0  0
   -3.1154   -0.5865   -0.4569 H   0  0  0  0  0  0  0  0  0  0  0  0
   -2.4777    0.8781   -1.3788 H   0  0  0  0  0  0  0  0  0  0  0  0
   -2.4251    0.9585    1.2780 H   0  0  0  0  0  0  0  0  0  0  0  0
   -0.7970    1.1718    0.4244 H   0  0  0  0  0  0  0  0  0  0  0  0
  1  2  1  0
  2  3  1  0
  3  4  2  0
  3  5  1  0
  5  6  1  0
  6  7  1  0
  7  8  1  0
  8  9  1  0
  9  5  1  0
  1 10  1  0
  1 11  1  0
  1 12  1  0
  5 13  1  0
  7 14  1  0
  7 15  1  0
  8 16  1  0
  8 17  1  0
M  END
