
     RDKit          3D

 25 25  0  0  0  0  0  0  0  0999 V2000
    2.7480    1.2699   -0.3433 C   0  0  0  0  0  0  0  0  0  0  0  0
    1.7567    0.5600   -1.0096 O   0  0  0  0  0  0  0  0  0  0  0  0
    1.2334   -0.4575   -0.2182 C   0  0  0  0  0  0  0  0  0  0  0  0
    1.5381   -1.7652   -0.9574 C   0  0  0  0  0  0  0  0  0  0  0  0
   -0.2466   -0.3070   -0.1635 C   0  0  0  0  0  0  0  0  0  0  0  0
   -0.8586    0.9560    0.3943 C   0  0  0  0  0  0  0  0  0  0  0  0
   -2.0666    1.5557   -0.2976 C   0  0  0  0  0  0  0  0  0  0  0  0
   -1.0008   -0.3604    1.1083 C   0  0  0  0  0  0  0  0  0  0  0  0
   -2.3337   -1.0753    1.1006 C   0  0  0  0  0  0  0  0  0  0  0  0
    2.3951    1.7501    0.5817 H   0  0  0  0  0  0  0  0  0  0  0  0
    3.0927    2.0784   -1.0193 H   0  0  0  0  0  0  0  0  0  0  0  0
    3.6207    0.6081   -0.1699 H   0  0  0  0  0  0  0  0  0  0  0  0
    1.7422   -0.4414    0.7435 H   0  0  0  0  0  0  0  0  0  0  0  0
    2.6033   -2.0035   -0.9110 H   0  0  0  0  0  0  0  0  0  0  0  0
    1.1894   -1.6075   -2.0158 H   0  0  0  0  0  0  0  0  0  0  0  0
    0.9882   -2.5827   -0.4600 H   0  0  0  0  0  0  0  0  0  0  0  0
   -0.7856   -0.6831   -1.0637 H   0  0  0  0  0  0  0  0  0  0  0  0
   -0.1923    1.7385    0.8312 H   0  0  0  0  0  0  0  0  0  0  0  0
   -2.6880    2.0336    0.4566 H   0  0  0  0  0  0  0  0  0  0  0  0
   -2.6067    0.7839   -0.8983 H   0  0  0  0  0  0  0  0  0  0  0  0
   -1.6957    2.3001   -1.0318 H   0  0  0  0  0  0  0  0  0  0  0  0
   -0.4957   -0.3943    2.0890 H   0  0  0  0  0  0  0  0  0  0  0  0
   -3.1192   -0.5397    0.5672 H   0  0  0  0  0  0  0  0  0  0  0  0
   -2.1625   -2.0458    0.5500 H   0  0  0  0  0  0  0  0  0  0  0  0
   -2.6560   -1.3708    2.1369 H   0  0  0  0  0  0  0  0  0  0  0  0
  1  2  1  0
  2  3  1  0
  3  4  1  0
  3  5  1  0
  5  6  1  0
  6  7  1  0
  6  8  1  0
  8  9  1  0
  8  5  1  0
  1 10  1  0
  1 11  1  0
  1 12  1  0
  3 13  1  0
  4 14  1  0
  4 15  1  0
  4 16  1  0
  5 17  1  0
  6 18  1  0
  7 19  1  0
  7 20  1  0
  7 21  1  0
  8 22  1  0
  9 23  1  0
  9 24  1  0
  9 25  1  0
M  END
