
     RDKit          3D

 23 22  0  0  0  0  0  0  0  0999 V2000
    2.8859    1.1211   -1.0314 C   0  0  0  0  0  0  0  0  0  0  0  0
    2.1243   -0.0214   -1.0186 O   0  0  0  0  0  0  0  0  0  0  0  0
    1.2866   -0.1073    0.0908 C   0  0  0  0  0  0  0  0  0  0  0  0
    1.6155   -1.3934    0.8081 C   0  0  0  0  0  0  0  0  0  0  0  0
   -0.1279   -0.2052   -0.4617 C   0  0  0  0  0  0  0  0  0  0  0  0
   -1.1478   -0.3042    0.6534 C   0  0  0  0  0  0  0  0  0  0  0  0
   -2.5089   -0.3955    0.0491 C   0  0  0  0  0  0  0  0  0  0  0  0
   -3.4078    0.7755    0.0100 C   0  0  0  0  0  0  0  0  0  0  0  0
   -2.8382   -1.4936   -0.4121 O   0  0  0  0  0  0  0  0  0  0  0  0
    3.5118    1.0717   -1.9679 H   0  0  0  0  0  0  0  0  0  0  0  0
    2.2540    2.0152   -1.0080 H   0  0  0  0  0  0  0  0  0  0  0  0
    3.5709    1.1829   -0.1506 H   0  0  0  0  0  0  0  0  0  0  0  0
    1.4339    0.7777    0.7081 H   0  0  0  0  0  0  0  0  0  0  0  0
    1.4250   -2.2421    0.1094 H   0  0  0  0  0  0  0  0  0  0  0  0
    0.9572   -1.4746    1.6881 H   0  0  0  0  0  0  0  0  0  0  0  0
    2.6768   -1.3748    1.1357 H   0  0  0  0  0  0  0  0  0  0  0  0
   -0.3985    0.6862   -1.0579 H   0  0  0  0  0  0  0  0  0  0  0  0
   -0.2567   -1.0779   -1.1133 H   0  0  0  0  0  0  0  0  0  0  0  0
   -1.0692    0.5392    1.3725 H   0  0  0  0  0  0  0  0  0  0  0  0
   -1.0172   -1.2303    1.2508 H   0  0  0  0  0  0  0  0  0  0  0  0
   -3.6400    1.0667    1.0491 H   0  0  0  0  0  0  0  0  0  0  0  0
   -2.9772    1.6163   -0.5902 H   0  0  0  0  0  0  0  0  0  0  0  0
   -4.3524    0.4679   -0.4808 H   0  0  0  0  0  0  0  0  0  0  0  0
  1  2  1  0
  2  3  1  0
  3  4  1  0
  3  5  1  0
  5  6  1  0
  6  7  1  0
  7  8  1  0
  7  9  2  0
  1 10  1  0
  1 11  1  0
  1 12  1  0
  3 13  1  0
  4 14  1  0
  4 15  1  0
  4 16  1  0
  5 17  1  0
  5 18  1  0
  6 19  1  0
  6 20  1  0
  8 21  1  0
  8 22  1  0
  8 23  1  0
M  END
