
     RDKit          3D

 19 18  0  0  0  0  0  0  0  0999 V2000
    3.3781   -0.1612    0.4502 C   0  0  0  0  0  0  0  0  0  0  0  0
    2.2552    0.2812   -0.2475 O   0  0  0  0  0  0  0  0  0  0  0  0
    0.9596   -0.1622   -0.0248 C   0  0  0  0  0  0  0  0  0  0  0  0
    0.8076   -1.0269    0.8770 O   0  0  0  0  0  0  0  0  0  0  0  0
   -0.1883    0.3730   -0.8273 C   0  0  0  0  0  0  0  0  0  0  0  0
   -1.4666   -0.2927   -0.3597 C   0  0  0  0  0  0  0  0  0  0  0  0
   -1.6437    0.0338    1.1085 C   0  0  0  0  0  0  0  0  0  0  0  0
   -2.5630    0.2541   -1.1886 C   0  0  0  0  0  0  0  0  0  0  0  0
   -2.7051    1.4506   -1.2494 O   0  0  0  0  0  0  0  0  0  0  0  0
    4.2231    0.5414    0.1900 H   0  0  0  0  0  0  0  0  0  0  0  0
    3.7154   -1.1688    0.1850 H   0  0  0  0  0  0  0  0  0  0  0  0
    3.2654   -0.0991    1.5533 H   0  0  0  0  0  0  0  0  0  0  0  0
   -0.0403    0.0979   -1.8851 H   0  0  0  0  0  0  0  0  0  0  0  0
   -0.3183    1.4601   -0.6937 H   0  0  0  0  0  0  0  0  0  0  0  0
   -1.3853   -1.3979   -0.4745 H   0  0  0  0  0  0  0  0  0  0  0  0
   -2.6000    0.5755    1.2894 H   0  0  0  0  0  0  0  0  0  0  0  0
   -1.7092   -0.9170    1.6975 H   0  0  0  0  0  0  0  0  0  0  0  0
   -0.7766    0.5740    1.4986 H   0  0  0  0  0  0  0  0  0  0  0  0
   -3.2080   -0.4159   -1.7172 H   0  0  0  0  0  0  0  0  0  0  0  0
  1  2  1  0
  2  3  1  0
  3  4  2  0
  3  5  1  0
  5  6  1  0
  6  7  1  0
  6  8  1  0
  8  9  2  0
  1 10  1  0
  1 11  1  0
  1 12  1  0
  5 13  1  0
  5 14  1  0
  6 15  1  0
  7 16  1  0
  7 17  1  0
  7 18  1  0
  8 19  1  0
M  END
