
     RDKit          3D

 27 26  0  0  0  0  0  0  0  0999 V2000
    3.2494    1.5719   -0.3778 C   0  0  0  0  0  0  0  0  0  0  0  0
    2.3282    0.7672   -1.0205 O   0  0  0  0  0  0  0  0  0  0  0  0
    1.6194   -0.0473   -0.1542 C   0  0  0  0  0  0  0  0  0  0  0  0
    1.9339   -1.4805   -0.5083 C   0  0  0  0  0  0  0  0  0  0  0  0
    0.1485    0.2663   -0.3353 C   0  0  0  0  0  0  0  0  0  0  0  0
   -0.6355   -0.6019    0.5905 C   0  0  0  0  0  0  0  0  0  0  0  0
   -2.1130   -0.4119    0.5320 C   0  0  0  0  0  0  0  0  0  0  0  0
   -2.6469   -0.7051   -0.8559 C   0  0  0  0  0  0  0  0  0  0  0  0
   -2.6108    0.9194    0.9543 C   0  0  0  0  0  0  0  0  0  0  0  0
    2.8138    2.2538    0.3578 H   0  0  0  0  0  0  0  0  0  0  0  0
    3.8021    2.1259   -1.1765 H   0  0  0  0  0  0  0  0  0  0  0  0
    4.0399    0.9759    0.1565 H   0  0  0  0  0  0  0  0  0  0  0  0
    1.9252    0.0968    0.9162 H   0  0  0  0  0  0  0  0  0  0  0  0
    3.0395   -1.5701   -0.5228 H   0  0  0  0  0  0  0  0  0  0  0  0
    1.5725   -1.6543   -1.5344 H   0  0  0  0  0  0  0  0  0  0  0  0
    1.5523   -2.2059    0.2269 H   0  0  0  0  0  0  0  0  0  0  0  0
    0.0517    1.3462   -0.1228 H   0  0  0  0  0  0  0  0  0  0  0  0
   -0.1250    0.0163   -1.3751 H   0  0  0  0  0  0  0  0  0  0  0  0
   -0.4246   -1.6616    0.3144 H   0  0  0  0  0  0  0  0  0  0  0  0
   -0.2477   -0.4797    1.6216 H   0  0  0  0  0  0  0  0  0  0  0  0
   -2.5685   -1.1902    1.2001 H   0  0  0  0  0  0  0  0  0  0  0  0
   -2.3068   -1.6985   -1.2185 H   0  0  0  0  0  0  0  0  0  0  0  0
   -3.7523   -0.6010   -0.8500 H   0  0  0  0  0  0  0  0  0  0  0  0
   -2.2684    0.1184   -1.5144 H   0  0  0  0  0  0  0  0  0  0  0  0
   -2.9269    1.5213    0.0516 H   0  0  0  0  0  0  0  0  0  0  0  0
   -3.5373    0.8137    1.5580 H   0  0  0  0  0  0  0  0  0  0  0  0
   -1.9128    1.5150    1.5633 H   0  0  0  0  0  0  0  0  0  0  0  0
  1  2  1  0
  2  3  1  0
  3  4  1  0
  3  5  1  0
  5  6  1  0
  6  7  1  0
  7  8  1  0
  7  9  1  0
  1 10  1  0
  1 11  1  0
  1 12  1  0
  3 13  1  0
  4 14  1  0
  4 15  1  0
  4 16  1  0
  5 17  1  0
  5 18  1  0
  6 19  1  0
  6 20  1  0
  7 21  1  0
  8 22  1  0
  8 23  1  0
  8 24  1  0
  9 25  1  0
  9 26  1  0
  9 27  1  0
M  END
