
     RDKit          3D

 23 22  0  0  0  0  0  0  0  0999 V2000
    2.4774    0.3813   -0.9571 C   0  0  0  0  0  0  0  0  0  0  0  0
    1.2751    0.8582   -0.4405 O   0  0  0  0  0  0  0  0  0  0  0  0
    0.6690   -0.1064    0.3848 C   0  0  0  0  0  0  0  0  0  0  0  0
    0.5627    0.4925    1.7527 C   0  0  0  0  0  0  0  0  0  0  0  0
   -0.6353   -0.4668   -0.2296 C   0  0  0  0  0  0  0  0  0  0  0  0
   -1.3820   -1.5389    0.5000 C   0  0  0  0  0  0  0  0  0  0  0  0
   -0.3551   -0.9842   -1.5171 O   0  0  0  0  0  0  0  0  0  0  0  0
   -1.5350    0.7303   -0.4607 C   0  0  0  0  0  0  0  0  0  0  0  0
   -0.8748    1.6719   -1.2514 O   0  0  0  0  0  0  0  0  0  0  0  0
    2.2222   -0.5370   -1.5490 H   0  0  0  0  0  0  0  0  0  0  0  0
    3.1530    0.1022   -0.1462 H   0  0  0  0  0  0  0  0  0  0  0  0
    2.8822    1.1774   -1.6127 H   0  0  0  0  0  0  0  0  0  0  0  0
    1.2894   -1.0253    0.4336 H   0  0  0  0  0  0  0  0  0  0  0  0
    0.8591    1.5746    1.7778 H   0  0  0  0  0  0  0  0  0  0  0  0
   -0.4300    0.4226    2.2078 H   0  0  0  0  0  0  0  0  0  0  0  0
    1.2876   -0.0177    2.4506 H   0  0  0  0  0  0  0  0  0  0  0  0
   -1.7635   -1.1125    1.4444 H   0  0  0  0  0  0  0  0  0  0  0  0
   -2.2664   -1.8238   -0.1257 H   0  0  0  0  0  0  0  0  0  0  0  0
   -0.7851   -2.4427    0.6349 H   0  0  0  0  0  0  0  0  0  0  0  0
   -1.1572   -1.5202   -1.7775 H   0  0  0  0  0  0  0  0  0  0  0  0
   -1.8018    1.1569    0.5094 H   0  0  0  0  0  0  0  0  0  0  0  0
   -2.4493    0.4457   -1.0210 H   0  0  0  0  0  0  0  0  0  0  0  0
   -1.2424    2.5619   -1.0078 H   0  0  0  0  0  0  0  0  0  0  0  0
  1  2  1  0
  2  3  1  0
  3  4  1  0
  3  5  1  0
  5  6  1  0
  5  7  1  0
  5  8  1  0
  8  9  1  0
  1 10  1  0
  1 11  1  0
  1 12  1  0
  3 13  1  0
  4 14  1  0
  4 15  1  0
  4 16  1  0
  6 17  1  0
  6 18  1  0
  6 19  1  0
  7 20  1  0
  8 21  1  0
  8 22  1  0
  9 23  1  0
M  END
