
     RDKit          3D

 21 20  0  0  0  0  0  0  0  0999 V2000
   -2.8465    1.3412    1.3945 C   0  0  0  0  0  0  0  0  0  0  0  0
   -1.9419    0.2828    1.3047 O   0  0  0  0  0  0  0  0  0  0  0  0
   -1.6734   -0.0590   -0.0200 C   0  0  0  0  0  0  0  0  0  0  0  0
   -2.0160   -1.5075   -0.2147 C   0  0  0  0  0  0  0  0  0  0  0  0
   -0.2570    0.2055   -0.2924 C   0  0  0  0  0  0  0  0  0  0  0  0
    0.9259    0.4062   -0.5270 C   0  0  0  0  0  0  0  0  0  0  0  0
    2.3244    0.6688   -0.8075 C   0  0  0  0  0  0  0  0  0  0  0  0
    3.0739   -0.5863   -1.1660 C   0  0  0  0  0  0  0  0  0  0  0  0
    4.4045   -0.2042   -1.4132 O   0  0  0  0  0  0  0  0  0  0  0  0
   -3.7757    1.0182    0.9045 H   0  0  0  0  0  0  0  0  0  0  0  0
   -2.4219    2.2792    0.9705 H   0  0  0  0  0  0  0  0  0  0  0  0
   -3.0266    1.5394    2.4629 H   0  0  0  0  0  0  0  0  0  0  0  0
   -2.2440    0.5917   -0.7274 H   0  0  0  0  0  0  0  0  0  0  0  0
   -2.8946   -1.8047    0.4221 H   0  0  0  0  0  0  0  0  0  0  0  0
   -1.1707   -2.1843    0.0482 H   0  0  0  0  0  0  0  0  0  0  0  0
   -2.2780   -1.7506   -1.2714 H   0  0  0  0  0  0  0  0  0  0  0  0
    2.8614    1.1358    0.0438 H   0  0  0  0  0  0  0  0  0  0  0  0
    2.4233    1.3810   -1.6573 H   0  0  0  0  0  0  0  0  0  0  0  0
    2.6045   -1.0479   -2.0318 H   0  0  0  0  0  0  0  0  0  0  0  0
    3.0092   -1.2795   -0.2869 H   0  0  0  0  0  0  0  0  0  0  0  0
    4.9192   -0.4257   -0.6036 H   0  0  0  0  0  0  0  0  0  0  0  0
  1  2  1  0
  2  3  1  0
  3  4  1  0
  3  5  1  0
  5  6  3  0
  6  7  1  0
  7  8  1  0
  8  9  1  0
  1 10  1  0
  1 11  1  0
  1 12  1  0
  3 13  1  0
  4 14  1  0
  4 15  1  0
  4 16  1  0
  7 17  1  0
  7 18  1  0
  8 19  1  0
  8 20  1  0
  9 21  1  0
M  END
