
     RDKit          3D

 25 25  0  0  0  0  0  0  0  0999 V2000
   -1.8175    2.0573    0.1338 C   0  0  0  0  0  0  0  0  0  0  0  0
   -0.7190    1.5438   -0.5485 O   0  0  0  0  0  0  0  0  0  0  0  0
   -0.1619    0.4511    0.1491 C   0  0  0  0  0  0  0  0  0  0  0  0
   -0.3152   -0.7362   -0.7195 C   0  0  0  0  0  0  0  0  0  0  0  0
    0.1958   -2.0321   -0.1939 C   0  0  0  0  0  0  0  0  0  0  0  0
   -1.8288   -0.9253   -0.9281 C   0  0  0  0  0  0  0  0  0  0  0  0
    1.2221    0.8630    0.5237 C   0  0  0  0  0  0  0  0  0  0  0  0
    2.1602   -0.0053    1.2710 C   0  0  0  0  0  0  0  0  0  0  0  0
    2.4526    0.4125   -0.1224 C   0  0  0  0  0  0  0  0  0  0  0  0
   -1.5212    2.4136    1.1646 H   0  0  0  0  0  0  0  0  0  0  0  0
   -2.6343    1.3518    0.2870 H   0  0  0  0  0  0  0  0  0  0  0  0
   -2.2378    2.9532   -0.3612 H   0  0  0  0  0  0  0  0  0  0  0  0
   -0.7861    0.3140    1.0642 H   0  0  0  0  0  0  0  0  0  0  0  0
    0.0752   -0.5245   -1.7446 H   0  0  0  0  0  0  0  0  0  0  0  0
   -0.0941   -2.1318    0.8763 H   0  0  0  0  0  0  0  0  0  0  0  0
    1.2367   -2.2754   -0.4111 H   0  0  0  0  0  0  0  0  0  0  0  0
   -0.3959   -2.8544   -0.7022 H   0  0  0  0  0  0  0  0  0  0  0  0
   -2.2647   -0.1469   -1.5466 H   0  0  0  0  0  0  0  0  0  0  0  0
   -2.3363   -1.0154    0.0526 H   0  0  0  0  0  0  0  0  0  0  0  0
   -1.9756   -1.9086   -1.4392 H   0  0  0  0  0  0  0  0  0  0  0  0
    1.2507    1.9381    0.8878 H   0  0  0  0  0  0  0  0  0  0  0  0
    2.8488    0.4423    2.0500 H   0  0  0  0  0  0  0  0  0  0  0  0
    1.9411   -1.0555    1.5255 H   0  0  0  0  0  0  0  0  0  0  0  0
    3.2923    1.1546   -0.2832 H   0  0  0  0  0  0  0  0  0  0  0  0
    2.4129   -0.2837   -0.9850 H   0  0  0  0  0  0  0  0  0  0  0  0
  1  2  1  0
  2  3  1  0
  3  4  1  0
  4  5  1  0
  4  6  1  0
  3  7  1  0
  7  8  1  0
  8  9  1  0
  9  7  1  0
  1 10  1  0
  1 11  1  0
  1 12  1  0
  3 13  1  0
  4 14  1  0
  5 15  1  0
  5 16  1  0
  5 17  1  0
  6 18  1  0
  6 19  1  0
  6 20  1  0
  7 21  1  0
  8 22  1  0
  8 23  1  0
  9 24  1  0
  9 25  1  0
M  END
