
     RDKit          3D

 16 15  0  0  0  0  0  0  0  0999 V2000
   -1.9718    1.3755   -0.8137 C   0  0  0  0  0  0  0  0  0  0  0  0
   -1.0393    0.3867   -1.1100 O   0  0  0  0  0  0  0  0  0  0  0  0
   -0.5629   -0.2309    0.0380 C   0  0  0  0  0  0  0  0  0  0  0  0
   -0.7923   -1.7229   -0.0012 C   0  0  0  0  0  0  0  0  0  0  0  0
    0.8999   -0.0328    0.0996 C   0  0  0  0  0  0  0  0  0  0  0  0
    2.0942    0.1474    0.1395 C   0  0  0  0  0  0  0  0  0  0  0  0
    3.5129    0.3682    0.1628 C   0  0  0  0  0  0  0  0  0  0  0  0
    4.3104   -0.6045    0.1513 O   0  0  0  0  0  0  0  0  0  0  0  0
   -2.8530    0.9674   -0.2751 H   0  0  0  0  0  0  0  0  0  0  0  0
   -2.2768    1.8125   -1.8022 H   0  0  0  0  0  0  0  0  0  0  0  0
   -1.5005    2.2206   -0.2602 H   0  0  0  0  0  0  0  0  0  0  0  0
   -1.0665    0.2422    0.9020 H   0  0  0  0  0  0  0  0  0  0  0  0
   -1.8175   -1.8615   -0.4553 H   0  0  0  0  0  0  0  0  0  0  0  0
   -0.8745   -2.1659    1.0221 H   0  0  0  0  0  0  0  0  0  0  0  0
   -0.0125   -2.2581   -0.5448 H   0  0  0  0  0  0  0  0  0  0  0  0
    3.9501    1.3559    0.1906 H   0  0  0  0  0  0  0  0  0  0  0  0
  1  2  1  0
  2  3  1  0
  3  4  1  0
  3  5  1  0
  5  6  3  0
  6  7  1  0
  7  8  2  0
  1  9  1  0
  1 10  1  0
  1 11  1  0
  3 12  1  0
  4 13  1  0
  4 14  1  0
  4 15  1  0
  7 16  1  0
M  END
