
     RDKit          3D

 21 20  0  0  0  0  0  0  0  0999 V2000
   -2.2029    0.5628    1.3075 C   0  0  0  0  0  0  0  0  0  0  0  0
   -1.0920    0.8652    0.5009 O   0  0  0  0  0  0  0  0  0  0  0  0
   -0.8361   -0.1521   -0.4074 C   0  0  0  0  0  0  0  0  0  0  0  0
   -1.0019    0.4058   -1.8013 C   0  0  0  0  0  0  0  0  0  0  0  0
    0.5448   -0.7225   -0.1825 C   0  0  0  0  0  0  0  0  0  0  0  0
    0.5890   -1.2198    1.1070 O   0  0  0  0  0  0  0  0  0  0  0  0
    1.6200    0.2269   -0.4883 C   0  0  0  0  0  0  0  0  0  0  0  0
    2.6385    0.5920    0.5190 C   0  0  0  0  0  0  0  0  0  0  0  0
    1.6893    0.7312   -1.5836 O   0  0  0  0  0  0  0  0  0  0  0  0
   -2.0321   -0.3652    1.8797 H   0  0  0  0  0  0  0  0  0  0  0  0
   -3.0543    0.4212    0.5899 H   0  0  0  0  0  0  0  0  0  0  0  0
   -2.4138    1.4200    1.9743 H   0  0  0  0  0  0  0  0  0  0  0  0
   -1.5798   -0.9456   -0.2603 H   0  0  0  0  0  0  0  0  0  0  0  0
   -0.6909    1.4672   -1.8069 H   0  0  0  0  0  0  0  0  0  0  0  0
   -2.0556    0.3159   -2.0811 H   0  0  0  0  0  0  0  0  0  0  0  0
   -0.3917   -0.2196   -2.4904 H   0  0  0  0  0  0  0  0  0  0  0  0
    0.6628   -1.5954   -0.8843 H   0  0  0  0  0  0  0  0  0  0  0  0
    0.9044   -0.5616    1.7751 H   0  0  0  0  0  0  0  0  0  0  0  0
    2.9869   -0.3623    0.9942 H   0  0  0  0  0  0  0  0  0  0  0  0
    3.4958    1.1378    0.0537 H   0  0  0  0  0  0  0  0  0  0  0  0
    2.2197    1.2765    1.2849 H   0  0  0  0  0  0  0  0  0  0  0  0
  1  2  1  0
  2  3  1  0
  3  4  1  0
  3  5  1  0
  5  6  1  0
  5  7  1  0
  7  8  1  0
  7  9  2  0
  1 10  1  0
  1 11  1  0
  1 12  1  0
  3 13  1  0
  4 14  1  0
  4 15  1  0
  4 16  1  0
  5 17  1  0
  6 18  1  0
  8 19  1  0
  8 20  1  0
  8 21  1  0
M  END
