
     RDKit          3D

 17 16  0  0  0  0  0  0  0  0999 V2000
    2.2075   -0.7267   -0.5441 C   0  0  0  0  0  0  0  0  0  0  0  0
    1.1759   -0.7285    0.3268 O   0  0  0  0  0  0  0  0  0  0  0  0
   -0.0178   -0.2162   -0.0292 C   0  0  0  0  0  0  0  0  0  0  0  0
   -0.1989    1.0469    0.8358 C   0  0  0  0  0  0  0  0  0  0  0  0
    0.8451    1.9199    0.5521 O   0  0  0  0  0  0  0  0  0  0  0  0
   -1.1993   -1.0453    0.1202 C   0  0  0  0  0  0  0  0  0  0  0  0
   -1.2275   -2.2016    0.6100 O   0  0  0  0  0  0  0  0  0  0  0  0
   -2.4825   -0.5404   -0.3203 C   0  0  0  0  0  0  0  0  0  0  0  0
   -2.5871    0.6050   -0.8468 O   0  0  0  0  0  0  0  0  0  0  0  0
    2.0834   -1.2585   -1.4807 H   0  0  0  0  0  0  0  0  0  0  0  0
    2.4664    0.3379   -0.8000 H   0  0  0  0  0  0  0  0  0  0  0  0
    3.1009   -1.1512   -0.0374 H   0  0  0  0  0  0  0  0  0  0  0  0
    0.0234    0.1635   -1.0699 H   0  0  0  0  0  0  0  0  0  0  0  0
   -0.0843    0.6887    1.9021 H   0  0  0  0  0  0  0  0  0  0  0  0
   -1.1906    1.4677    0.7604 H   0  0  0  0  0  0  0  0  0  0  0  0
    0.4881    2.7765    0.2309 H   0  0  0  0  0  0  0  0  0  0  0  0
   -3.4027   -1.1376   -0.2100 H   0  0  0  0  0  0  0  0  0  0  0  0
  1  2  1  0
  2  3  1  0
  3  4  1  0
  4  5  1  0
  3  6  1  0
  6  7  2  0
  6  8  1  0
  8  9  2  0
  1 10  1  0
  1 11  1  0
  1 12  1  0
  3 13  1  0
  4 14  1  0
  4 15  1  0
  5 16  1  0
  8 17  1  0
M  END
