
     RDKit          3D

 21 20  0  0  0  0  0  0  0  0999 V2000
    2.4748   -0.2980   -0.9425 C   0  0  0  0  0  0  0  0  0  0  0  0
    1.7508    0.3173    0.0592 O   0  0  0  0  0  0  0  0  0  0  0  0
    0.4436    0.6026   -0.3030 C   0  0  0  0  0  0  0  0  0  0  0  0
    0.2653    2.0772   -0.2022 C   0  0  0  0  0  0  0  0  0  0  0  0
    1.1761    2.8256    0.1501 O   0  0  0  0  0  0  0  0  0  0  0  0
   -0.5528   -0.0990    0.6039 C   0  0  0  0  0  0  0  0  0  0  0  0
   -0.3825   -1.5875    0.5453 C   0  0  0  0  0  0  0  0  0  0  0  0
   -1.9508    0.2222    0.1188 C   0  0  0  0  0  0  0  0  0  0  0  0
   -2.8378   -0.4404    0.9770 O   0  0  0  0  0  0  0  0  0  0  0  0
    2.0709   -1.2553   -1.2807 H   0  0  0  0  0  0  0  0  0  0  0  0
    3.4904   -0.4966   -0.5336 H   0  0  0  0  0  0  0  0  0  0  0  0
    2.6099    0.3375   -1.8433 H   0  0  0  0  0  0  0  0  0  0  0  0
    0.2510    0.2694   -1.3428 H   0  0  0  0  0  0  0  0  0  0  0  0
   -0.6722    2.5724   -0.4322 H   0  0  0  0  0  0  0  0  0  0  0  0
   -0.4829    0.2573    1.6433 H   0  0  0  0  0  0  0  0  0  0  0  0
   -0.1000   -1.9048   -0.4763 H   0  0  0  0  0  0  0  0  0  0  0  0
   -1.3417   -2.1112    0.8218 H   0  0  0  0  0  0  0  0  0  0  0  0
    0.4173   -1.9562    1.2272 H   0  0  0  0  0  0  0  0  0  0  0  0
   -2.1137   -0.0925   -0.9265 H   0  0  0  0  0  0  0  0  0  0  0  0
   -2.1227    1.3189    0.2609 H   0  0  0  0  0  0  0  0  0  0  0  0
   -2.3932   -0.5589    1.8755 H   0  0  0  0  0  0  0  0  0  0  0  0
  1  2  1  0
  2  3  1  0
  3  4  1  0
  4  5  2  0
  3  6  1  0
  6  7  1  0
  6  8  1  0
  8  9  1  0
  1 10  1  0
  1 11  1  0
  1 12  1  0
  3 13  1  0
  4 14  1  0
  6 15  1  0
  7 16  1  0
  7 17  1  0
  7 18  1  0
  8 19  1  0
  8 20  1  0
  9 21  1  0
M  END
