
     RDKit          3D

 19 18  0  0  0  0  0  0  0  0999 V2000
    2.4646    0.2780    0.7458 C   0  0  0  0  0  0  0  0  0  0  0  0
    1.1345   -0.0837    0.7889 O   0  0  0  0  0  0  0  0  0  0  0  0
    0.5776   -0.3140   -0.4659 C   0  0  0  0  0  0  0  0  0  0  0  0
    0.1558   -1.6880   -0.7099 C   0  0  0  0  0  0  0  0  0  0  0  0
   -0.3071   -1.9682   -1.8014 O   0  0  0  0  0  0  0  0  0  0  0  0
   -0.4192    0.7549   -0.7887 C   0  0  0  0  0  0  0  0  0  0  0  0
   -1.5586    0.9003    0.1417 C   0  0  0  0  0  0  0  0  0  0  0  0
   -2.4304   -0.2710    0.3031 C   0  0  0  0  0  0  0  0  0  0  0  0
   -3.3984   -0.1943    1.0821 O   0  0  0  0  0  0  0  0  0  0  0  0
    2.9101    0.4600    1.7182 H   0  0  0  0  0  0  0  0  0  0  0  0
    3.0104   -0.5849    0.2629 H   0  0  0  0  0  0  0  0  0  0  0  0
    2.6038    1.1254    0.0274 H   0  0  0  0  0  0  0  0  0  0  0  0
    1.4390   -0.1223   -1.1855 H   0  0  0  0  0  0  0  0  0  0  0  0
    0.2283   -2.4794    0.0212 H   0  0  0  0  0  0  0  0  0  0  0  0
    0.1474    1.7284   -0.7814 H   0  0  0  0  0  0  0  0  0  0  0  0
   -0.7732    0.6484   -1.8351 H   0  0  0  0  0  0  0  0  0  0  0  0
   -2.2168    1.7197   -0.2778 H   0  0  0  0  0  0  0  0  0  0  0  0
   -1.2236    1.3140    1.1214 H   0  0  0  0  0  0  0  0  0  0  0  0
   -2.3442   -1.2234   -0.1783 H   0  0  0  0  0  0  0  0  0  0  0  0
  1  2  1  0
  2  3  1  0
  3  4  1  0
  4  5  2  0
  3  6  1  0
  6  7  1  0
  7  8  1  0
  8  9  2  0
  1 10  1  0
  1 11  1  0
  1 12  1  0
  3 13  1  0
  4 14  1  0
  6 15  1  0
  6 16  1  0
  7 17  1  0
  7 18  1  0
  8 19  1  0
M  END
