
     RDKit          3D

 19 19  0  0  0  0  0  0  0  0999 V2000
    2.5578   -0.3863    0.3615 C   0  0  0  0  0  0  0  0  0  0  0  0
    1.3740    0.2315    0.7419 O   0  0  0  0  0  0  0  0  0  0  0  0
    0.3891    0.1343   -0.2533 C   0  0  0  0  0  0  0  0  0  0  0  0
   -0.0201    1.5385   -0.6018 C   0  0  0  0  0  0  0  0  0  0  0  0
   -0.7365   -0.6734    0.3136 C   0  0  0  0  0  0  0  0  0  0  0  0
   -1.9133   -0.9184   -0.5604 C   0  0  0  0  0  0  0  0  0  0  0  0
   -2.7091   -0.7984    0.6270 O   0  0  0  0  0  0  0  0  0  0  0  0
   -1.7143    0.0302    1.1406 C   0  0  0  0  0  0  0  0  0  0  0  0
   -1.7577    0.9645    1.9696 O   0  0  0  0  0  0  0  0  0  0  0  0
    3.0056    0.0402   -0.5514 H   0  0  0  0  0  0  0  0  0  0  0  0
    2.3099   -1.4746    0.2043 H   0  0  0  0  0  0  0  0  0  0  0  0
    3.2458   -0.3283    1.2177 H   0  0  0  0  0  0  0  0  0  0  0  0
    0.8046   -0.4213   -1.1139 H   0  0  0  0  0  0  0  0  0  0  0  0
    0.9082    2.0785   -0.9115 H   0  0  0  0  0  0  0  0  0  0  0  0
   -0.7136    1.5957   -1.4545 H   0  0  0  0  0  0  0  0  0  0  0  0
   -0.3918    2.0171    0.3197 H   0  0  0  0  0  0  0  0  0  0  0  0
   -0.3887   -1.6018    0.7956 H   0  0  0  0  0  0  0  0  0  0  0  0
   -2.2108   -0.1103   -1.2506 H   0  0  0  0  0  0  0  0  0  0  0  0
   -2.0391   -1.9178   -0.9944 H   0  0  0  0  0  0  0  0  0  0  0  0
  1  2  1  0
  2  3  1  0
  3  4  1  0
  3  5  1  0
  5  6  1  0
  6  7  1  0
  7  8  1  0
  8  9  2  0
  8  5  1  0
  1 10  1  0
  1 11  1  0
  1 12  1  0
  3 13  1  0
  4 14  1  0
  4 15  1  0
  4 16  1  0
  5 17  1  0
  6 18  1  0
  6 19  1  0
M  END
