
     RDKit          3D

 16 15  0  0  0  0  0  0  0  0999 V2000
    2.6023    0.0641    0.1926 C   0  0  0  0  0  0  0  0  0  0  0  0
    1.2475   -0.2300    0.3595 O   0  0  0  0  0  0  0  0  0  0  0  0
    0.3309    0.3232   -0.5260 C   0  0  0  0  0  0  0  0  0  0  0  0
    0.7754    1.0647   -1.4372 O   0  0  0  0  0  0  0  0  0  0  0  0
   -1.1201    0.0788   -0.4411 C   0  0  0  0  0  0  0  0  0  0  0  0
   -1.5702    0.5849    0.9378 C   0  0  0  0  0  0  0  0  0  0  0  0
   -1.4561   -1.3459   -0.5988 C   0  0  0  0  0  0  0  0  0  0  0  0
   -2.4588   -1.6338   -1.2255 O   0  0  0  0  0  0  0  0  0  0  0  0
    3.0977    0.4406    1.1189 H   0  0  0  0  0  0  0  0  0  0  0  0
    2.8011    0.8266   -0.5961 H   0  0  0  0  0  0  0  0  0  0  0  0
    3.1333   -0.8582   -0.1317 H   0  0  0  0  0  0  0  0  0  0  0  0
   -1.6248    0.7042   -1.2051 H   0  0  0  0  0  0  0  0  0  0  0  0
   -1.7027    1.6728    0.8649 H   0  0  0  0  0  0  0  0  0  0  0  0
   -2.4813    0.0364    1.1975 H   0  0  0  0  0  0  0  0  0  0  0  0
   -0.7299    0.4039    1.6688 H   0  0  0  0  0  0  0  0  0  0  0  0
   -0.8443   -2.1323   -0.1785 H   0  0  0  0  0  0  0  0  0  0  0  0
  1  2  1  0
  2  3  1  0
  3  4  2  0
  3  5  1  0
  5  6  1  0
  5  7  1  0
  7  8  2  0
  1  9  1  0
  1 10  1  0
  1 11  1  0
  5 12  1  0
  6 13  1  0
  6 14  1  0
  6 15  1  0
  7 16  1  0
M  END
