
     RDKit          3D

 20 21  0  0  0  0  0  0  0  0999 V2000
    2.7505    0.2573    0.0884 C   0  0  0  0  0  0  0  0  0  0  0  0
    1.4748    0.6449    0.4795 O   0  0  0  0  0  0  0  0  0  0  0  0
    0.5590   -0.0754   -0.2570 C   0  0  0  0  0  0  0  0  0  0  0  0
   -0.4147    0.8893   -0.9689 C   0  0  0  0  0  0  0  0  0  0  0  0
   -1.7010    0.3940   -0.3966 C   0  0  0  0  0  0  0  0  0  0  0  0
   -1.5204   -1.1287   -0.4038 C   0  0  0  0  0  0  0  0  0  0  0  0
   -0.4255   -0.8279    0.5831 C   0  0  0  0  0  0  0  0  0  0  0  0
   -1.3402    0.2990    1.0828 C   0  0  0  0  0  0  0  0  0  0  0  0
    2.9232   -0.8376    0.2622 H   0  0  0  0  0  0  0  0  0  0  0  0
    2.8534    0.4414   -0.9849 H   0  0  0  0  0  0  0  0  0  0  0  0
    3.5379    0.8226    0.6215 H   0  0  0  0  0  0  0  0  0  0  0  0
    1.0088   -0.7821   -0.9756 H   0  0  0  0  0  0  0  0  0  0  0  0
   -0.3647    0.7689   -2.0586 H   0  0  0  0  0  0  0  0  0  0  0  0
   -0.2537    1.9300   -0.6255 H   0  0  0  0  0  0  0  0  0  0  0  0
   -2.6332    0.7927   -0.6747 H   0  0  0  0  0  0  0  0  0  0  0  0
   -2.3824   -1.6918   -0.0233 H   0  0  0  0  0  0  0  0  0  0  0  0
   -1.1116   -1.4634   -1.3839 H   0  0  0  0  0  0  0  0  0  0  0  0
   -0.1120   -1.5574    1.2785 H   0  0  0  0  0  0  0  0  0  0  0  0
   -2.1397   -0.0174    1.7466 H   0  0  0  0  0  0  0  0  0  0  0  0
   -0.7085    1.1417    1.4020 H   0  0  0  0  0  0  0  0  0  0  0  0
  1  2  1  0
  2  3  1  0
  3  4  1  0
  4  5  1  0
  5  6  1  0
  6  7  1  0
  7  8  1  0
  7  3  1  0
  8  5  1  0
  1  9  1  0
  1 10  1  0
  1 11  1  0
  3 12  1  0
  4 13  1  0
  4 14  1  0
  5 15  1  0
  6 16  1  0
  6 17  1  0
  7 18  1  0
  8 19  1  0
  8 20  1  0
M  END
