
     RDKit          3D

 23 24  0  0  0  0  0  0  0  0999 V2000
    1.8615   -1.2676    0.6761 C   0  0  0  0  0  0  0  0  0  0  0  0
    0.8864   -1.3010   -0.2715 O   0  0  0  0  0  0  0  0  0  0  0  0
    0.3301   -0.0489   -0.4686 C   0  0  0  0  0  0  0  0  0  0  0  0
   -0.7183   -0.2168   -1.5278 C   0  0  0  0  0  0  0  0  0  0  0  0
   -1.6655   -1.1464   -0.7327 C   0  0  0  0  0  0  0  0  0  0  0  0
   -1.3586   -0.8219    0.7470 C   0  0  0  0  0  0  0  0  0  0  0  0
   -0.7052    0.4870    0.5775 C   0  0  0  0  0  0  0  0  0  0  0  0
    0.6159    0.9654    0.4523 C   0  0  0  0  0  0  0  0  0  0  0  0
    0.8081    2.4357    0.0078 C   0  0  0  0  0  0  0  0  0  0  0  0
    2.6867   -0.5537    0.4424 H   0  0  0  0  0  0  0  0  0  0  0  0
    2.3492   -2.2979    0.6651 H   0  0  0  0  0  0  0  0  0  0  0  0
    1.4587   -1.0982    1.6798 H   0  0  0  0  0  0  0  0  0  0  0  0
   -0.3655   -0.7978   -2.3803 H   0  0  0  0  0  0  0  0  0  0  0  0
   -1.2414    0.7094   -1.7988 H   0  0  0  0  0  0  0  0  0  0  0  0
   -2.7165   -0.9055   -0.9408 H   0  0  0  0  0  0  0  0  0  0  0  0
   -1.4266   -2.2046   -0.9443 H   0  0  0  0  0  0  0  0  0  0  0  0
   -0.7842   -1.6297    1.1882 H   0  0  0  0  0  0  0  0  0  0  0  0
   -2.3379   -0.6969    1.2842 H   0  0  0  0  0  0  0  0  0  0  0  0
   -1.4889    1.2139    0.1808 H   0  0  0  0  0  0  0  0  0  0  0  0
    1.2949    0.7920    1.3132 H   0  0  0  0  0  0  0  0  0  0  0  0
    0.0222    2.7251   -0.7111 H   0  0  0  0  0  0  0  0  0  0  0  0
    0.6670    3.0593    0.9153 H   0  0  0  0  0  0  0  0  0  0  0  0
    1.8277    2.5992   -0.3539 H   0  0  0  0  0  0  0  0  0  0  0  0
  1  2  1  0
  2  3  1  0
  3  4  1  0
  4  5  1  0
  5  6  1  0
  6  7  1  0
  7  8  1  0
  8  9  1  0
  7  3  1  0
  8  3  1  0
  1 10  1  0
  1 11  1  0
  1 12  1  0
  4 13  1  0
  4 14  1  0
  5 15  1  0
  5 16  1  0
  6 17  1  0
  6 18  1  0
  7 19  1  0
  8 20  1  0
  9 21  1  0
  9 22  1  0
  9 23  1  0
M  END
