
     RDKit          3D

 21 23  0  0  0  0  0  0  0  0999 V2000
    2.5016    0.6539    0.3000 C   0  0  0  0  0  0  0  0  0  0  0  0
    1.3069    0.9739    0.9433 O   0  0  0  0  0  0  0  0  0  0  0  0
    0.2784    0.3203    0.3202 C   0  0  0  0  0  0  0  0  0  0  0  0
    0.3580   -1.1938    0.3005 C   0  0  0  0  0  0  0  0  0  0  0  0
   -1.0121   -1.5764   -0.2221 C   0  0  0  0  0  0  0  0  0  0  0  0
   -1.9389   -0.4231    0.1515 C   0  0  0  0  0  0  0  0  0  0  0  0
   -1.5825    0.8639   -0.5042 C   0  0  0  0  0  0  0  0  0  0  0  0
   -0.1602    0.9282   -1.0094 C   0  0  0  0  0  0  0  0  0  0  0  0
   -1.1018    0.5585    0.8339 C   0  0  0  0  0  0  0  0  0  0  0  0
    2.4364    0.9761   -0.7723 H   0  0  0  0  0  0  0  0  0  0  0  0
    2.7049   -0.4299    0.4003 H   0  0  0  0  0  0  0  0  0  0  0  0
    3.3013    1.2778    0.7532 H   0  0  0  0  0  0  0  0  0  0  0  0
    1.1762   -1.5819   -0.3046 H   0  0  0  0  0  0  0  0  0  0  0  0
    0.3868   -1.5327    1.3686 H   0  0  0  0  0  0  0  0  0  0  0  0
   -0.9613   -1.5855   -1.3446 H   0  0  0  0  0  0  0  0  0  0  0  0
   -1.3664   -2.5332    0.1802 H   0  0  0  0  0  0  0  0  0  0  0  0
   -2.9324   -0.6318    0.5417 H   0  0  0  0  0  0  0  0  0  0  0  0
   -2.2955    1.6531   -0.7073 H   0  0  0  0  0  0  0  0  0  0  0  0
    0.1911    1.9605   -1.1215 H   0  0  0  0  0  0  0  0  0  0  0  0
    0.0348    0.2397   -1.8506 H   0  0  0  0  0  0  0  0  0  0  0  0
   -1.3250    1.0823    1.7432 H   0  0  0  0  0  0  0  0  0  0  0  0
  1  2  1  0
  2  3  1  0
  3  4  1  0
  4  5  1  0
  5  6  1  0
  6  7  1  0
  7  8  1  0
  7  9  1  0
  8  3  1  0
  9  3  1  0
  9  6  1  0
  1 10  1  0
  1 11  1  0
  1 12  1  0
  4 13  1  0
  4 14  1  0
  5 15  1  0
  5 16  1  0
  6 17  1  0
  7 18  1  0
  8 19  1  0
  8 20  1  0
  9 21  1  0
M  END
