
     RDKit          3D

 19 20  0  0  0  0  0  0  0  0999 V2000
    2.4836   -0.2819    0.2571 C   0  0  0  0  0  0  0  0  0  0  0  0
    1.2275   -0.5415   -0.2345 O   0  0  0  0  0  0  0  0  0  0  0  0
    0.3923    0.5323   -0.3091 C   0  0  0  0  0  0  0  0  0  0  0  0
   -0.3103    0.6802   -1.6336 C   0  0  0  0  0  0  0  0  0  0  0  0
   -1.2114   -0.3817   -1.6225 O   0  0  0  0  0  0  0  0  0  0  0  0
   -1.7840   -0.3418   -0.3664 C   0  0  0  0  0  0  0  0  0  0  0  0
   -1.1878   -1.2082    0.6815 C   0  0  0  0  0  0  0  0  0  0  0  0
   -0.8072    0.2169    0.5952 C   0  0  0  0  0  0  0  0  0  0  0  0
   -1.2352    1.1630    1.4890 O   0  0  0  0  0  0  0  0  0  0  0  0
    2.4974    0.1263    1.2852 H   0  0  0  0  0  0  0  0  0  0  0  0
    3.0503    0.3226   -0.4696 H   0  0  0  0  0  0  0  0  0  0  0  0
    3.0189   -1.2705    0.3135 H   0  0  0  0  0  0  0  0  0  0  0  0
    0.8479    1.4850    0.0431 H   0  0  0  0  0  0  0  0  0  0  0  0
    0.3616    0.6797   -2.4930 H   0  0  0  0  0  0  0  0  0  0  0  0
   -0.9259    1.6151   -1.5736 H   0  0  0  0  0  0  0  0  0  0  0  0
   -2.8305   -0.0671   -0.2370 H   0  0  0  0  0  0  0  0  0  0  0  0
   -0.4139   -1.9485    0.3714 H   0  0  0  0  0  0  0  0  0  0  0  0
   -1.8254   -1.5692    1.4989 H   0  0  0  0  0  0  0  0  0  0  0  0
   -1.3478    0.7895    2.4045 H   0  0  0  0  0  0  0  0  0  0  0  0
  1  2  1  0
  2  3  1  0
  3  4  1  0
  4  5  1  0
  5  6  1  0
  6  7  1  0
  7  8  1  0
  8  9  1  0
  8  3  1  0
  8  6  1  0
  1 10  1  0
  1 11  1  0
  1 12  1  0
  3 13  1  0
  4 14  1  0
  4 15  1  0
  6 16  1  0
  7 17  1  0
  7 18  1  0
  9 19  1  0
M  END
