
     RDKit          3D

 21 22  0  0  0  0  0  0  0  0999 V2000
   -0.1065    2.4912   -1.0221 C   0  0  0  0  0  0  0  0  0  0  0  0
    0.2681    1.5591   -0.0804 O   0  0  0  0  0  0  0  0  0  0  0  0
   -0.2563    0.3185   -0.2315 C   0  0  0  0  0  0  0  0  0  0  0  0
   -0.7425   -0.4141    0.9847 C   0  0  0  0  0  0  0  0  0  0  0  0
   -2.0340   -1.1547    0.6620 C   0  0  0  0  0  0  0  0  0  0  0  0
    0.4487   -1.3583    0.7886 C   0  0  0  0  0  0  0  0  0  0  0  0
    0.3370   -2.0849   -0.4300 O   0  0  0  0  0  0  0  0  0  0  0  0
    0.8248   -0.7306   -0.3445 C   0  0  0  0  0  0  0  0  0  0  0  0
    2.1227   -0.4369   -0.9865 C   0  0  0  0  0  0  0  0  0  0  0  0
    0.4096    3.4490   -0.7529 H   0  0  0  0  0  0  0  0  0  0  0  0
    0.2413    2.2313   -2.0335 H   0  0  0  0  0  0  0  0  0  0  0  0
   -1.1949    2.7330   -0.9899 H   0  0  0  0  0  0  0  0  0  0  0  0
   -0.9214    0.2554   -1.1155 H   0  0  0  0  0  0  0  0  0  0  0  0
   -0.7331    0.1151    1.9327 H   0  0  0  0  0  0  0  0  0  0  0  0
   -2.5442   -1.5220    1.5695 H   0  0  0  0  0  0  0  0  0  0  0  0
   -2.6634   -0.4413    0.0728 H   0  0  0  0  0  0  0  0  0  0  0  0
   -1.8080   -2.0043   -0.0024 H   0  0  0  0  0  0  0  0  0  0  0  0
    0.9108   -1.8314    1.6453 H   0  0  0  0  0  0  0  0  0  0  0  0
    2.0706    0.5082   -1.5773 H   0  0  0  0  0  0  0  0  0  0  0  0
    2.3952   -1.3035   -1.6396 H   0  0  0  0  0  0  0  0  0  0  0  0
    2.9754   -0.3788   -0.2493 H   0  0  0  0  0  0  0  0  0  0  0  0
  1  2  1  0
  2  3  1  0
  3  4  1  0
  4  5  1  0
  4  6  1  0
  6  7  1  0
  7  8  1  0
  8  9  1  0
  8  3  1  0
  8  6  1  0
  1 10  1  0
  1 11  1  0
  1 12  1  0
  3 13  1  0
  4 14  1  0
  5 15  1  0
  5 16  1  0
  5 17  1  0
  6 18  1  0
  9 19  1  0
  9 20  1  0
  9 21  1  0
M  END
