
     RDKit          3D

 19 19  0  0  0  0  0  0  0  0999 V2000
    2.3804   -0.1206   -0.2350 C   0  0  0  0  0  0  0  0  0  0  0  0
    1.1737   -0.2372   -0.8840 O   0  0  0  0  0  0  0  0  0  0  0  0
    0.0833   -0.0729   -0.0456 C   0  0  0  0  0  0  0  0  0  0  0  0
    0.1199    1.2955    0.5869 C   0  0  0  0  0  0  0  0  0  0  0  0
   -0.2759   -1.1946    0.8098 C   0  0  0  0  0  0  0  0  0  0  0  0
    0.3151   -1.9830    1.5146 O   0  0  0  0  0  0  0  0  0  0  0  0
   -1.6997   -0.9753    0.4594 C   0  0  0  0  0  0  0  0  0  0  0  0
   -1.2277   -0.2479   -0.7833 C   0  0  0  0  0  0  0  0  0  0  0  0
   -1.9089    0.9311   -1.0580 O   0  0  0  0  0  0  0  0  0  0  0  0
    3.2008   -0.2622   -0.9608 H   0  0  0  0  0  0  0  0  0  0  0  0
    2.4254   -0.9248    0.5439 H   0  0  0  0  0  0  0  0  0  0  0  0
    2.5279    0.8887    0.2276 H   0  0  0  0  0  0  0  0  0  0  0  0
    0.8940    1.3634    1.3622 H   0  0  0  0  0  0  0  0  0  0  0  0
   -0.8647    1.5945    1.0115 H   0  0  0  0  0  0  0  0  0  0  0  0
    0.3463    2.0143   -0.2294 H   0  0  0  0  0  0  0  0  0  0  0  0
   -2.2816   -1.8506    0.1814 H   0  0  0  0  0  0  0  0  0  0  0  0
   -2.1879   -0.2975    1.1870 H   0  0  0  0  0  0  0  0  0  0  0  0
   -1.1055   -0.9436   -1.6377 H   0  0  0  0  0  0  0  0  0  0  0  0
   -1.9148    1.0228   -2.0506 H   0  0  0  0  0  0  0  0  0  0  0  0
  1  2  1  0
  2  3  1  0
  3  4  1  0
  3  5  1  0
  5  6  2  0
  5  7  1  0
  7  8  1  0
  8  9  1  0
  8  3  1  0
  1 10  1  0
  1 11  1  0
  1 12  1  0
  4 13  1  0
  4 14  1  0
  4 15  1  0
  7 16  1  0
  7 17  1  0
  8 18  1  0
  9 19  1  0
M  END
