
     RDKit          3D

 23 23  0  0  0  0  0  0  0  0999 V2000
   -2.8398    1.1547    0.9754 C   0  0  0  0  0  0  0  0  0  0  0  0
   -1.6571    0.4349    1.0413 O   0  0  0  0  0  0  0  0  0  0  0  0
   -1.2004   -0.0123   -0.1712 C   0  0  0  0  0  0  0  0  0  0  0  0
   -0.3538   -1.2470   -0.2466 C   0  0  0  0  0  0  0  0  0  0  0  0
   -0.4030   -2.0783   -1.5157 C   0  0  0  0  0  0  0  0  0  0  0  0
    0.3279    0.0450   -0.3396 C   0  0  0  0  0  0  0  0  0  0  0  0
    1.1268    0.4997    0.8635 C   0  0  0  0  0  0  0  0  0  0  0  0
    2.5945    0.4928    0.5139 C   0  0  0  0  0  0  0  0  0  0  0  0
    2.8026    1.3667   -0.5581 O   0  0  0  0  0  0  0  0  0  0  0  0
   -3.6733    0.5631    0.5504 H   0  0  0  0  0  0  0  0  0  0  0  0
   -2.6304    2.0825    0.3938 H   0  0  0  0  0  0  0  0  0  0  0  0
   -3.0959    1.4409    2.0227 H   0  0  0  0  0  0  0  0  0  0  0  0
   -1.7855    0.2221   -1.0939 H   0  0  0  0  0  0  0  0  0  0  0  0
   -0.3527   -1.8562    0.6710 H   0  0  0  0  0  0  0  0  0  0  0  0
   -1.3921   -2.5535   -1.6720 H   0  0  0  0  0  0  0  0  0  0  0  0
    0.3382   -2.9001   -1.4303 H   0  0  0  0  0  0  0  0  0  0  0  0
   -0.1112   -1.4538   -2.4012 H   0  0  0  0  0  0  0  0  0  0  0  0
    0.7053    0.4117   -1.2976 H   0  0  0  0  0  0  0  0  0  0  0  0
    0.9002   -0.0596    1.7767 H   0  0  0  0  0  0  0  0  0  0  0  0
    0.8472    1.5735    1.0306 H   0  0  0  0  0  0  0  0  0  0  0  0
    3.2249    0.8579    1.3407 H   0  0  0  0  0  0  0  0  0  0  0  0
    2.8569   -0.5459    0.2067 H   0  0  0  0  0  0  0  0  0  0  0  0
    3.7707    1.5612   -0.6604 H   0  0  0  0  0  0  0  0  0  0  0  0
  1  2  1  0
  2  3  1  0
  3  4  1  0
  4  5  1  0
  4  6  1  0
  6  7  1  0
  7  8  1  0
  8  9  1  0
  6  3  1  0
  1 10  1  0
  1 11  1  0
  1 12  1  0
  3 13  1  0
  4 14  1  0
  5 15  1  0
  5 16  1  0
  5 17  1  0
  6 18  1  0
  7 19  1  0
  7 20  1  0
  8 21  1  0
  8 22  1  0
  9 23  1  0
M  END
