
     RDKit          3D

 21 21  0  0  0  0  0  0  0  0999 V2000
    2.4441   -1.0020    0.9455 C   0  0  0  0  0  0  0  0  0  0  0  0
    1.7539   -1.0190   -0.2466 O   0  0  0  0  0  0  0  0  0  0  0  0
    0.9466    0.0639   -0.4595 C   0  0  0  0  0  0  0  0  0  0  0  0
    0.5189    0.5226   -1.7909 C   0  0  0  0  0  0  0  0  0  0  0  0
    0.2855    1.8898   -1.9363 O   0  0  0  0  0  0  0  0  0  0  0  0
   -0.4290   -0.2964   -1.0223 C   0  0  0  0  0  0  0  0  0  0  0  0
   -1.6200    0.3118   -0.3187 C   0  0  0  0  0  0  0  0  0  0  0  0
   -1.5941   -0.1572    1.1194 C   0  0  0  0  0  0  0  0  0  0  0  0
   -2.6611    0.3554    1.8531 O   0  0  0  0  0  0  0  0  0  0  0  0
    3.0550   -1.9388    0.9809 H   0  0  0  0  0  0  0  0  0  0  0  0
    3.1766   -0.1711    1.0280 H   0  0  0  0  0  0  0  0  0  0  0  0
    1.7869   -1.0425    1.8439 H   0  0  0  0  0  0  0  0  0  0  0  0
    0.9588    0.8131    0.3642 H   0  0  0  0  0  0  0  0  0  0  0  0
    1.0052    0.0878   -2.7094 H   0  0  0  0  0  0  0  0  0  0  0  0
    0.8015    2.3579   -1.2346 H   0  0  0  0  0  0  0  0  0  0  0  0
   -0.5991   -1.3219   -1.3849 H   0  0  0  0  0  0  0  0  0  0  0  0
   -1.4899    1.4297   -0.3185 H   0  0  0  0  0  0  0  0  0  0  0  0
   -2.5647    0.0745   -0.8089 H   0  0  0  0  0  0  0  0  0  0  0  0
   -1.6168   -1.2720    1.1114 H   0  0  0  0  0  0  0  0  0  0  0  0
   -0.6505    0.1374    1.5974 H   0  0  0  0  0  0  0  0  0  0  0  0
   -3.5079    0.1771    1.3867 H   0  0  0  0  0  0  0  0  0  0  0  0
  1  2  1  0
  2  3  1  0
  3  4  1  0
  4  5  1  0
  4  6  1  0
  6  7  1  0
  7  8  1  0
  8  9  1  0
  6  3  1  0
  1 10  1  0
  1 11  1  0
  1 12  1  0
  3 13  1  0
  4 14  1  0
  5 15  1  0
  6 16  1  0
  7 17  1  0
  7 18  1  0
  8 19  1  0
  8 20  1  0
  9 21  1  0
M  END
