
     RDKit          3D

 25 25  0  0  0  0  0  0  0  0999 V2000
    2.3573    1.2819    0.4880 C   0  0  0  0  0  0  0  0  0  0  0  0
    1.0042    1.1819    0.3750 O   0  0  0  0  0  0  0  0  0  0  0  0
    0.5029   -0.0833    0.1009 C   0  0  0  0  0  0  0  0  0  0  0  0
   -1.0071   -0.0447    0.0189 C   0  0  0  0  0  0  0  0  0  0  0  0
   -1.6564   -1.3290   -0.2675 C   0  0  0  0  0  0  0  0  0  0  0  0
   -1.5079    0.5067    1.3387 C   0  0  0  0  0  0  0  0  0  0  0  0
   -1.3354    1.0174   -1.0363 C   0  0  0  0  0  0  0  0  0  0  0  0
    1.1814   -0.8001   -1.0773 C   0  0  0  0  0  0  0  0  0  0  0  0
    1.2508   -1.3166    0.3176 C   0  0  0  0  0  0  0  0  0  0  0  0
    2.7960    0.6517    1.2956 H   0  0  0  0  0  0  0  0  0  0  0  0
    2.5805    2.3383    0.7732 H   0  0  0  0  0  0  0  0  0  0  0  0
    2.8850    1.0889   -0.4433 H   0  0  0  0  0  0  0  0  0  0  0  0
   -2.3924   -1.1753   -1.1111 H   0  0  0  0  0  0  0  0  0  0  0  0
   -1.0134   -2.1570   -0.5736 H   0  0  0  0  0  0  0  0  0  0  0  0
   -2.2936   -1.6817    0.5853 H   0  0  0  0  0  0  0  0  0  0  0  0
   -1.3534    1.6119    1.3104 H   0  0  0  0  0  0  0  0  0  0  0  0
   -0.8918    0.0837    2.1577 H   0  0  0  0  0  0  0  0  0  0  0  0
   -2.5814    0.2624    1.4704 H   0  0  0  0  0  0  0  0  0  0  0  0
   -2.4119    1.2257   -1.0739 H   0  0  0  0  0  0  0  0  0  0  0  0
   -0.7380    1.9214   -0.7438 H   0  0  0  0  0  0  0  0  0  0  0  0
   -0.9240    0.6599   -2.0143 H   0  0  0  0  0  0  0  0  0  0  0  0
    0.5112   -1.3893   -1.7384 H   0  0  0  0  0  0  0  0  0  0  0  0
    2.0606   -0.3696   -1.5557 H   0  0  0  0  0  0  0  0  0  0  0  0
    0.7252   -2.2492    0.6167 H   0  0  0  0  0  0  0  0  0  0  0  0
    2.2516   -1.2361    0.7871 H   0  0  0  0  0  0  0  0  0  0  0  0
  1  2  1  0
  2  3  1  0
  3  4  1  0
  4  5  1  0
  4  6  1  0
  4  7  1  0
  3  8  1  0
  8  9  1  0
  9  3  1  0
  1 10  1  0
  1 11  1  0
  1 12  1  0
  5 13  1  0
  5 14  1  0
  5 15  1  0
  6 16  1  0
  6 17  1  0
  6 18  1  0
  7 19  1  0
  7 20  1  0
  7 21  1  0
  8 22  1  0
  8 23  1  0
  9 24  1  0
  9 25  1  0
M  END
