
     RDKit          3D

 17 18  0  0  0  0  0  0  0  0999 V2000
    2.5284    0.6134   -0.1035 C   0  0  0  0  0  0  0  0  0  0  0  0
    1.1379    0.6157   -0.3158 O   0  0  0  0  0  0  0  0  0  0  0  0
    0.5746   -0.4348    0.4037 C   0  0  0  0  0  0  0  0  0  0  0  0
   -0.6004   -1.1659   -0.1331 C   0  0  0  0  0  0  0  0  0  0  0  0
   -1.4592   -0.6029   -1.1828 C   0  0  0  0  0  0  0  0  0  0  0  0
   -1.9931    0.5401   -0.7840 C   0  0  0  0  0  0  0  0  0  0  0  0
   -1.5766    0.8975    0.5607 C   0  0  0  0  0  0  0  0  0  0  0  0
   -1.8110    1.9313    1.2347 O   0  0  0  0  0  0  0  0  0  0  0  0
   -0.7617   -0.2635    1.0366 C   0  0  0  0  0  0  0  0  0  0  0  0
    2.9423   -0.3626   -0.4562 H   0  0  0  0  0  0  0  0  0  0  0  0
    2.6906    0.7351    0.9882 H   0  0  0  0  0  0  0  0  0  0  0  0
    3.0256    1.3947   -0.7033 H   0  0  0  0  0  0  0  0  0  0  0  0
    1.2795   -1.0667    0.9945 H   0  0  0  0  0  0  0  0  0  0  0  0
   -0.6547   -2.2784   -0.0042 H   0  0  0  0  0  0  0  0  0  0  0  0
   -1.6601   -1.0348   -2.1751 H   0  0  0  0  0  0  0  0  0  0  0  0
   -2.6707    1.1537   -1.3875 H   0  0  0  0  0  0  0  0  0  0  0  0
   -0.9914   -0.6720    2.0271 H   0  0  0  0  0  0  0  0  0  0  0  0
  1  2  1  0
  2  3  1  0
  3  4  1  0
  4  5  1  0
  5  6  2  0
  6  7  1  0
  7  8  2  0
  7  9  1  0
  9  3  1  0
  9  4  1  0
  1 10  1  0
  1 11  1  0
  1 12  1  0
  3 13  1  0
  4 14  1  0
  5 15  1  0
  6 16  1  0
  9 17  1  0
M  END
