
     RDKit          3D

 18 18  0  0  0  0  0  0  0  0999 V2000
    2.5411   -0.0105   -0.4764 C   0  0  0  0  0  0  0  0  0  0  0  0
    1.2485   -0.5688   -0.5563 O   0  0  0  0  0  0  0  0  0  0  0  0
    0.4589    0.0250    0.4045 C   0  0  0  0  0  0  0  0  0  0  0  0
   -0.3020   -0.8645    1.2916 C   0  0  0  0  0  0  0  0  0  0  0  0
   -0.2072   -1.9040    1.9243 O   0  0  0  0  0  0  0  0  0  0  0  0
   -1.4615    0.0697    1.1641 C   0  0  0  0  0  0  0  0  0  0  0  0
   -0.8344    0.6189   -0.1005 C   0  0  0  0  0  0  0  0  0  0  0  0
   -1.4085   -0.0458   -1.3137 C   0  0  0  0  0  0  0  0  0  0  0  0
    2.9926   -0.1846    0.5295 H   0  0  0  0  0  0  0  0  0  0  0  0
    2.3784    1.0966   -0.6171 H   0  0  0  0  0  0  0  0  0  0  0  0
    3.2044   -0.4157   -1.2674 H   0  0  0  0  0  0  0  0  0  0  0  0
    0.9997    0.7962    1.0186 H   0  0  0  0  0  0  0  0  0  0  0  0
   -1.4681    0.7677    2.0273 H   0  0  0  0  0  0  0  0  0  0  0  0
   -2.4082   -0.4837    0.9937 H   0  0  0  0  0  0  0  0  0  0  0  0
   -0.8903    1.7013   -0.1387 H   0  0  0  0  0  0  0  0  0  0  0  0
   -0.8142    0.0897   -2.2198 H   0  0  0  0  0  0  0  0  0  0  0  0
   -2.4011    0.4354   -1.5093 H   0  0  0  0  0  0  0  0  0  0  0  0
   -1.6283   -1.1228   -1.1544 H   0  0  0  0  0  0  0  0  0  0  0  0
  1  2  1  0
  2  3  1  0
  3  4  1  0
  4  5  2  0
  4  6  1  0
  6  7  1  0
  7  8  1  0
  7  3  1  0
  1  9  1  0
  1 10  1  0
  1 11  1  0
  3 12  1  0
  6 13  1  0
  6 14  1  0
  7 15  1  0
  8 16  1  0
  8 17  1  0
  8 18  1  0
M  END
