
     RDKit          3D

 21 22  0  0  0  0  0  0  0  0999 V2000
    2.4197   -0.9730   -0.6381 C   0  0  0  0  0  0  0  0  0  0  0  0
    1.5867   -0.3900    0.2986 O   0  0  0  0  0  0  0  0  0  0  0  0
    0.6189    0.4235   -0.2463 C   0  0  0  0  0  0  0  0  0  0  0  0
    0.4248    1.7158    0.5329 C   0  0  0  0  0  0  0  0  0  0  0  0
    0.5299    1.5640    1.8824 O   0  0  0  0  0  0  0  0  0  0  0  0
   -0.6396    1.0514    1.4072 C   0  0  0  0  0  0  0  0  0  0  0  0
   -0.7345    0.0108    0.3569 C   0  0  0  0  0  0  0  0  0  0  0  0
   -1.8248    0.3770   -0.6529 C   0  0  0  0  0  0  0  0  0  0  0  0
   -0.7861   -1.4221    0.8037 C   0  0  0  0  0  0  0  0  0  0  0  0
    1.8654   -1.6056   -1.3522 H   0  0  0  0  0  0  0  0  0  0  0  0
    3.1923   -1.5545   -0.1002 H   0  0  0  0  0  0  0  0  0  0  0  0
    2.9187   -0.1764   -1.1974 H   0  0  0  0  0  0  0  0  0  0  0  0
    0.6007    0.5289   -1.3381 H   0  0  0  0  0  0  0  0  0  0  0  0
    0.0584    2.6074    0.0415 H   0  0  0  0  0  0  0  0  0  0  0  0
   -1.5564    1.6057    1.6453 H   0  0  0  0  0  0  0  0  0  0  0  0
   -1.7388    1.4880   -0.8204 H   0  0  0  0  0  0  0  0  0  0  0  0
   -1.6435   -0.0958   -1.6239 H   0  0  0  0  0  0  0  0  0  0  0  0
   -2.8056    0.1657   -0.2162 H   0  0  0  0  0  0  0  0  0  0  0  0
   -1.8647   -1.6909    0.9188 H   0  0  0  0  0  0  0  0  0  0  0  0
   -0.2197   -1.5608    1.7313 H   0  0  0  0  0  0  0  0  0  0  0  0
   -0.4017   -2.0690   -0.0216 H   0  0  0  0  0  0  0  0  0  0  0  0
  1  2  1  0
  2  3  1  0
  3  4  1  0
  4  5  1  0
  5  6  1  0
  6  7  1  0
  7  8  1  0
  7  9  1  0
  7  3  1  0
  6  4  1  0
  1 10  1  0
  1 11  1  0
  1 12  1  0
  3 13  1  0
  4 14  1  0
  6 15  1  0
  8 16  1  0
  8 17  1  0
  8 18  1  0
  9 19  1  0
  9 20  1  0
  9 21  1  0
M  END
