
     RDKit          3D

 20 21  0  0  0  0  0  0  0  0999 V2000
    2.5197   -0.4892    0.1559 C   0  0  0  0  0  0  0  0  0  0  0  0
    1.6597    0.3596   -0.4642 O   0  0  0  0  0  0  0  0  0  0  0  0
    0.3707    0.2092   -0.2407 C   0  0  0  0  0  0  0  0  0  0  0  0
   -0.3691   -1.0475   -0.5639 C   0  0  0  0  0  0  0  0  0  0  0  0
   -1.7928   -0.5995   -0.1706 C   0  0  0  0  0  0  0  0  0  0  0  0
   -1.4836    0.7751    0.3266 C   0  0  0  0  0  0  0  0  0  0  0  0
   -0.2101    0.5698    1.1273 C   0  0  0  0  0  0  0  0  0  0  0  0
   -0.5561    1.2698   -0.7952 C   0  0  0  0  0  0  0  0  0  0  0  0
    2.4075   -0.3949    1.2568 H   0  0  0  0  0  0  0  0  0  0  0  0
    3.5762   -0.1549   -0.0551 H   0  0  0  0  0  0  0  0  0  0  0  0
    2.3820   -1.5615   -0.1105 H   0  0  0  0  0  0  0  0  0  0  0  0
   -0.3301   -1.3197   -1.6401 H   0  0  0  0  0  0  0  0  0  0  0  0
   -0.0385   -1.8881    0.0781 H   0  0  0  0  0  0  0  0  0  0  0  0
   -2.2422   -1.2710    0.5565 H   0  0  0  0  0  0  0  0  0  0  0  0
   -2.4112   -0.4882   -1.0939 H   0  0  0  0  0  0  0  0  0  0  0  0
   -2.2296    1.4279    0.6818 H   0  0  0  0  0  0  0  0  0  0  0  0
    0.2042    1.5176    1.5469 H   0  0  0  0  0  0  0  0  0  0  0  0
   -0.2137   -0.2519    1.8400 H   0  0  0  0  0  0  0  0  0  0  0  0
   -0.2162    2.3031   -0.6767 H   0  0  0  0  0  0  0  0  0  0  0  0
   -1.0267    1.0346   -1.7591 H   0  0  0  0  0  0  0  0  0  0  0  0
  1  2  1  0
  2  3  1  0
  3  4  1  0
  4  5  1  0
  5  6  1  0
  6  7  1  0
  6  8  1  0
  7  3  1  0
  8  3  1  0
  1  9  1  0
  1 10  1  0
  1 11  1  0
  4 12  1  0
  4 13  1  0
  5 14  1  0
  5 15  1  0
  6 16  1  0
  7 17  1  0
  7 18  1  0
  8 19  1  0
  8 20  1  0
M  END
