
     RDKit          3D

 21 22  0  0  0  0  0  0  0  0999 V2000
    2.9276   -0.2334   -0.4068 C   0  0  0  0  0  0  0  0  0  0  0  0
    1.6214   -0.6266   -0.7711 O   0  0  0  0  0  0  0  0  0  0  0  0
    0.7274    0.0401    0.0305 C   0  0  0  0  0  0  0  0  0  0  0  0
   -0.2724    0.8707   -0.8040 C   0  0  0  0  0  0  0  0  0  0  0  0
   -1.5491    0.3549   -0.2139 C   0  0  0  0  0  0  0  0  0  0  0  0
   -2.7246    0.8495   -0.5723 O   0  0  0  0  0  0  0  0  0  0  0  0
   -1.2510    0.1880    1.2833 C   0  0  0  0  0  0  0  0  0  0  0  0
   -0.2360   -0.8329    0.7603 C   0  0  0  0  0  0  0  0  0  0  0  0
   -1.3213   -1.1495   -0.2801 C   0  0  0  0  0  0  0  0  0  0  0  0
    3.0358    0.8600   -0.5465 H   0  0  0  0  0  0  0  0  0  0  0  0
    3.1281   -0.4922    0.6688 H   0  0  0  0  0  0  0  0  0  0  0  0
    3.6918   -0.7122   -1.0408 H   0  0  0  0  0  0  0  0  0  0  0  0
    1.2497    0.7084    0.7504 H   0  0  0  0  0  0  0  0  0  0  0  0
   -0.1018    1.9388   -0.6730 H   0  0  0  0  0  0  0  0  0  0  0  0
   -0.1820    0.5868   -1.8903 H   0  0  0  0  0  0  0  0  0  0  0  0
   -2.9134    1.7038   -0.1532 H   0  0  0  0  0  0  0  0  0  0  0  0
   -2.0836   -0.2610    1.8243 H   0  0  0  0  0  0  0  0  0  0  0  0
   -0.7688    1.0790    1.7391 H   0  0  0  0  0  0  0  0  0  0  0  0
    0.0777   -1.6057    1.4034 H   0  0  0  0  0  0  0  0  0  0  0  0
   -0.9256   -1.5096   -1.2460 H   0  0  0  0  0  0  0  0  0  0  0  0
   -2.1298   -1.7568    0.1379 H   0  0  0  0  0  0  0  0  0  0  0  0
  1  2  1  0
  2  3  1  0
  3  4  1  0
  4  5  1  0
  5  6  1  0
  5  7  1  0
  7  8  1  0
  8  9  1  0
  8  3  1  0
  9  5  1  0
  1 10  1  0
  1 11  1  0
  1 12  1  0
  3 13  1  0
  4 14  1  0
  4 15  1  0
  6 16  1  0
  7 17  1  0
  7 18  1  0
  8 19  1  0
  9 20  1  0
  9 21  1  0
M  END
