
     RDKit          3D

 21 21  0  0  0  0  0  0  0  0999 V2000
    2.1055   -1.0823   -0.4828 C   0  0  0  0  0  0  0  0  0  0  0  0
    1.6732    0.2106   -0.5791 O   0  0  0  0  0  0  0  0  0  0  0  0
    0.3961    0.4644   -0.1891 C   0  0  0  0  0  0  0  0  0  0  0  0
    0.1545    1.9665   -0.3928 C   0  0  0  0  0  0  0  0  0  0  0  0
    0.0175    0.1008    1.1942 C   0  0  0  0  0  0  0  0  0  0  0  0
   -1.4761   -0.2249    1.0900 C   0  0  0  0  0  0  0  0  0  0  0  0
   -1.6293   -0.8911   -0.2720 C   0  0  0  0  0  0  0  0  0  0  0  0
   -0.5402   -0.2979   -1.0887 C   0  0  0  0  0  0  0  0  0  0  0  0
   -0.3767   -0.3786   -2.2895 O   0  0  0  0  0  0  0  0  0  0  0  0
    3.1654   -1.1257   -0.8404 H   0  0  0  0  0  0  0  0  0  0  0  0
    2.1417   -1.3611    0.5950 H   0  0  0  0  0  0  0  0  0  0  0  0
    1.4560   -1.7324   -1.0848 H   0  0  0  0  0  0  0  0  0  0  0  0
   -0.2998    2.1220   -1.4023 H   0  0  0  0  0  0  0  0  0  0  0  0
   -0.4981    2.3340    0.4065 H   0  0  0  0  0  0  0  0  0  0  0  0
    1.1120    2.5283   -0.3369 H   0  0  0  0  0  0  0  0  0  0  0  0
    0.4871   -0.7825    1.6254 H   0  0  0  0  0  0  0  0  0  0  0  0
    0.0981    0.9916    1.8701 H   0  0  0  0  0  0  0  0  0  0  0  0
   -1.7773   -0.9459    1.8938 H   0  0  0  0  0  0  0  0  0  0  0  0
   -2.0701    0.6979    1.1381 H   0  0  0  0  0  0  0  0  0  0  0  0
   -1.5250   -1.9751   -0.1444 H   0  0  0  0  0  0  0  0  0  0  0  0
   -2.6147   -0.6186   -0.7104 H   0  0  0  0  0  0  0  0  0  0  0  0
  1  2  1  0
  2  3  1  0
  3  4  1  0
  3  5  1  0
  5  6  1  0
  6  7  1  0
  7  8  1  0
  8  9  2  0
  8  3  1  0
  1 10  1  0
  1 11  1  0
  1 12  1  0
  4 13  1  0
  4 14  1  0
  4 15  1  0
  5 16  1  0
  5 17  1  0
  6 18  1  0
  6 19  1  0
  7 20  1  0
  7 21  1  0
M  END
