
     RDKit          3D

 20 21  0  0  0  0  0  0  0  0999 V2000
   -2.3716   -1.0665    0.3010 C   0  0  0  0  0  0  0  0  0  0  0  0
   -1.1501   -1.3571   -0.2295 O   0  0  0  0  0  0  0  0  0  0  0  0
   -0.2025   -0.3898   -0.1839 C   0  0  0  0  0  0  0  0  0  0  0  0
   -0.4227    0.9264   -0.8559 C   0  0  0  0  0  0  0  0  0  0  0  0
    0.2191    1.6296    0.3241 C   0  0  0  0  0  0  0  0  0  0  0  0
    0.2652    0.2938    1.0248 C   0  0  0  0  0  0  0  0  0  0  0  0
    1.1079   -0.7499    0.4093 C   0  0  0  0  0  0  0  0  0  0  0  0
    2.3655   -0.4108   -0.3518 C   0  0  0  0  0  0  0  0  0  0  0  0
   -3.0196   -1.9723    0.1776 H   0  0  0  0  0  0  0  0  0  0  0  0
   -2.3730   -0.7294    1.3447 H   0  0  0  0  0  0  0  0  0  0  0  0
   -2.8290   -0.2331   -0.2943 H   0  0  0  0  0  0  0  0  0  0  0  0
    0.0910    1.0685   -1.8229 H   0  0  0  0  0  0  0  0  0  0  0  0
   -1.4993    1.1657   -0.9422 H   0  0  0  0  0  0  0  0  0  0  0  0
   -0.4677    2.3798    0.7925 H   0  0  0  0  0  0  0  0  0  0  0  0
    1.2356    2.0480    0.1187 H   0  0  0  0  0  0  0  0  0  0  0  0
   -0.1998    0.1951    2.0128 H   0  0  0  0  0  0  0  0  0  0  0  0
    1.1631   -1.7044    0.9509 H   0  0  0  0  0  0  0  0  0  0  0  0
    2.2999    0.5513   -0.8860 H   0  0  0  0  0  0  0  0  0  0  0  0
    2.5254   -1.2127   -1.1171 H   0  0  0  0  0  0  0  0  0  0  0  0
    3.2627   -0.4319    0.3011 H   0  0  0  0  0  0  0  0  0  0  0  0
  1  2  1  0
  2  3  1  0
  3  4  1  0
  4  5  1  0
  5  6  1  0
  6  7  1  0
  7  8  1  0
  6  3  1  0
  7  3  1  0
  1  9  1  0
  1 10  1  0
  1 11  1  0
  4 12  1  0
  4 13  1  0
  5 14  1  0
  5 15  1  0
  6 16  1  0
  7 17  1  0
  8 18  1  0
  8 19  1  0
  8 20  1  0
M  END
