
     RDKit          3D

 21 22  0  0  0  0  0  0  0  0999 V2000
    2.2805   -0.2949   -0.9176 C   0  0  0  0  0  0  0  0  0  0  0  0
    1.2084   -1.0046   -0.4903 O   0  0  0  0  0  0  0  0  0  0  0  0
    0.2428   -0.3813    0.1925 C   0  0  0  0  0  0  0  0  0  0  0  0
   -0.8825   -1.2986    0.6004 C   0  0  0  0  0  0  0  0  0  0  0  0
   -1.8953   -1.0958   -0.4457 C   0  0  0  0  0  0  0  0  0  0  0  0
   -1.6443    0.0284   -1.0851 C   0  0  0  0  0  0  0  0  0  0  0  0
   -0.4561    0.7206   -0.5705 C   0  0  0  0  0  0  0  0  0  0  0  0
   -0.6022    1.4542    0.7391 C   0  0  0  0  0  0  0  0  0  0  0  0
    0.5530    0.5997    1.2579 C   0  0  0  0  0  0  0  0  0  0  0  0
    2.0579    0.5411   -1.6027 H   0  0  0  0  0  0  0  0  0  0  0  0
    2.9486   -0.9865   -1.4879 H   0  0  0  0  0  0  0  0  0  0  0  0
    2.8764    0.0252   -0.0319 H   0  0  0  0  0  0  0  0  0  0  0  0
   -1.2598   -1.0505    1.6220 H   0  0  0  0  0  0  0  0  0  0  0  0
   -0.4869   -2.3469    0.6039 H   0  0  0  0  0  0  0  0  0  0  0  0
   -2.7197   -1.7668   -0.6574 H   0  0  0  0  0  0  0  0  0  0  0  0
   -2.2522    0.4006   -1.9042 H   0  0  0  0  0  0  0  0  0  0  0  0
    0.1641    1.2678   -1.2782 H   0  0  0  0  0  0  0  0  0  0  0  0
   -0.3693    2.5352    0.7145 H   0  0  0  0  0  0  0  0  0  0  0  0
   -1.5728    1.2596    1.2088 H   0  0  0  0  0  0  0  0  0  0  0  0
    1.5056    1.1219    1.2419 H   0  0  0  0  0  0  0  0  0  0  0  0
    0.3037    0.2719    2.2905 H   0  0  0  0  0  0  0  0  0  0  0  0
  1  2  1  0
  2  3  1  0
  3  4  1  0
  4  5  1  0
  5  6  2  0
  6  7  1  0
  7  8  1  0
  8  9  1  0
  7  3  1  0
  9  3  1  0
  1 10  1  0
  1 11  1  0
  1 12  1  0
  4 13  1  0
  4 14  1  0
  5 15  1  0
  6 16  1  0
  7 17  1  0
  8 18  1  0
  8 19  1  0
  9 20  1  0
  9 21  1  0
M  END
