
     RDKit          3D

 19 19  0  0  0  0  0  0  0  0999 V2000
    2.5990    0.1953    0.0944 C   0  0  0  0  0  0  0  0  0  0  0  0
    1.3481   -0.0379    0.7099 O   0  0  0  0  0  0  0  0  0  0  0  0
    0.4274   -0.4959   -0.2497 C   0  0  0  0  0  0  0  0  0  0  0  0
   -0.1392   -1.6940    0.0913 O   0  0  0  0  0  0  0  0  0  0  0  0
   -1.5046   -1.6146   -0.1460 C   0  0  0  0  0  0  0  0  0  0  0  0
   -1.8120   -0.1891    0.3284 C   0  0  0  0  0  0  0  0  0  0  0  0
   -0.6606    0.5364   -0.3375 C   0  0  0  0  0  0  0  0  0  0  0  0
   -0.3066    1.7937    0.3668 C   0  0  0  0  0  0  0  0  0  0  0  0
   -0.8965    2.8248    0.1649 O   0  0  0  0  0  0  0  0  0  0  0  0
    2.5332    0.9455   -0.6978 H   0  0  0  0  0  0  0  0  0  0  0  0
    3.2562    0.6119    0.8870 H   0  0  0  0  0  0  0  0  0  0  0  0
    2.9402   -0.8029   -0.2509 H   0  0  0  0  0  0  0  0  0  0  0  0
    0.9369   -0.5516   -1.2434 H   0  0  0  0  0  0  0  0  0  0  0  0
   -2.0644   -2.3670    0.4057 H   0  0  0  0  0  0  0  0  0  0  0  0
   -1.6957   -1.6076   -1.2400 H   0  0  0  0  0  0  0  0  0  0  0  0
   -1.7055   -0.2066    1.4390 H   0  0  0  0  0  0  0  0  0  0  0  0
   -2.7909    0.1555   -0.0159 H   0  0  0  0  0  0  0  0  0  0  0  0
   -0.9720    0.7297   -1.3876 H   0  0  0  0  0  0  0  0  0  0  0  0
    0.5071    1.7745    1.0814 H   0  0  0  0  0  0  0  0  0  0  0  0
  1  2  1  0
  2  3  1  0
  3  4  1  0
  4  5  1  0
  5  6  1  0
  6  7  1  0
  7  8  1  0
  8  9  2  0
  7  3  1  0
  1 10  1  0
  1 11  1  0
  1 12  1  0
  3 13  1  0
  5 14  1  0
  5 15  1  0
  6 16  1  0
  6 17  1  0
  7 18  1  0
  8 19  1  0
M  END
