
     RDKit          3D

 21 21  0  0  0  0  0  0  0  0999 V2000
    2.0020   -0.7910   -0.4287 C   0  0  0  0  0  0  0  0  0  0  0  0
    1.4065   -0.1022    0.6033 O   0  0  0  0  0  0  0  0  0  0  0  0
    0.2705    0.5880    0.2613 C   0  0  0  0  0  0  0  0  0  0  0  0
    0.4887    1.6690   -0.7458 C   0  0  0  0  0  0  0  0  0  0  0  0
   -0.1441    1.2010    1.4743 O   0  0  0  0  0  0  0  0  0  0  0  0
   -0.5240    0.0567    2.1758 C   0  0  0  0  0  0  0  0  0  0  0  0
   -1.3987   -0.5996    1.1753 C   0  0  0  0  0  0  0  0  0  0  0  0
   -0.9014   -0.2668   -0.0151 C   0  0  0  0  0  0  0  0  0  0  0  0
   -1.4929   -0.7246   -1.2992 C   0  0  0  0  0  0  0  0  0  0  0  0
    2.8997   -1.2965   -0.0110 H   0  0  0  0  0  0  0  0  0  0  0  0
    2.3028   -0.0557   -1.2060 H   0  0  0  0  0  0  0  0  0  0  0  0
    1.3624   -1.5571   -0.8857 H   0  0  0  0  0  0  0  0  0  0  0  0
    0.0696    1.4423   -1.7449 H   0  0  0  0  0  0  0  0  0  0  0  0
    0.0434    2.6352   -0.4117 H   0  0  0  0  0  0  0  0  0  0  0  0
    1.5773    1.8369   -0.8814 H   0  0  0  0  0  0  0  0  0  0  0  0
   -1.0638    0.3876    3.0796 H   0  0  0  0  0  0  0  0  0  0  0  0
    0.3275   -0.6151    2.3976 H   0  0  0  0  0  0  0  0  0  0  0  0
   -2.2676   -1.2235    1.4030 H   0  0  0  0  0  0  0  0  0  0  0  0
   -1.0408   -1.7056   -1.5891 H   0  0  0  0  0  0  0  0  0  0  0  0
   -1.3363    0.0089   -2.1189 H   0  0  0  0  0  0  0  0  0  0  0  0
   -2.5811   -0.8880   -1.2326 H   0  0  0  0  0  0  0  0  0  0  0  0
  1  2  1  0
  2  3  1  0
  3  4  1  0
  3  5  1  0
  5  6  1  0
  6  7  1  0
  7  8  2  0
  8  9  1  0
  8  3  1  0
  1 10  1  0
  1 11  1  0
  1 12  1  0
  4 13  1  0
  4 14  1  0
  4 15  1  0
  6 16  1  0
  6 17  1  0
  7 18  1  0
  9 19  1  0
  9 20  1  0
  9 21  1  0
M  END
