
     RDKit          3D

 19 20  0  0  0  0  0  0  0  0999 V2000
    3.1604   -0.3415    0.0118 C   0  0  0  0  0  0  0  0  0  0  0  0
    2.0599    0.4902   -0.1376 O   0  0  0  0  0  0  0  0  0  0  0  0
    0.8600   -0.1578   -0.1343 C   0  0  0  0  0  0  0  0  0  0  0  0
   -0.0056    0.3583    1.0225 C   0  0  0  0  0  0  0  0  0  0  0  0
   -1.3582   -0.1861    0.6255 C   0  0  0  0  0  0  0  0  0  0  0  0
   -2.2021    0.6275   -0.2854 C   0  0  0  0  0  0  0  0  0  0  0  0
   -3.5526    0.2835   -0.3016 O   0  0  0  0  0  0  0  0  0  0  0  0
   -1.2129   -0.3084   -0.8818 C   0  0  0  0  0  0  0  0  0  0  0  0
    0.0397    0.1428   -1.2135 O   0  0  0  0  0  0  0  0  0  0  0  0
    3.2212   -1.0963   -0.8105 H   0  0  0  0  0  0  0  0  0  0  0  0
    3.1841   -0.8388    1.0082 H   0  0  0  0  0  0  0  0  0  0  0  0
    4.0643    0.2993   -0.0603 H   0  0  0  0  0  0  0  0  0  0  0  0
    0.9083   -1.2480   -0.0151 H   0  0  0  0  0  0  0  0  0  0  0  0
   -0.0705    1.4687    0.9236 H   0  0  0  0  0  0  0  0  0  0  0  0
    0.3466    0.0173    1.9933 H   0  0  0  0  0  0  0  0  0  0  0  0
   -1.7536   -1.0837    1.1459 H   0  0  0  0  0  0  0  0  0  0  0  0
   -1.9914    1.7324   -0.2919 H   0  0  0  0  0  0  0  0  0  0  0  0
   -4.0556    1.0400   -0.6992 H   0  0  0  0  0  0  0  0  0  0  0  0
   -1.6419   -1.1995   -1.3811 H   0  0  0  0  0  0  0  0  0  0  0  0
  1  2  1  0
  2  3  1  0
  3  4  1  0
  4  5  1  0
  5  6  1  0
  6  7  1  0
  6  8  1  0
  8  9  1  0
  9  3  1  0
  8  5  1  0
  1 10  1  0
  1 11  1  0
  1 12  1  0
  3 13  1  0
  4 14  1  0
  4 15  1  0
  5 16  1  0
  6 17  1  0
  7 18  1  0
  8 19  1  0
M  END
