
     RDKit          3D

 21 21  0  0  0  0  0  0  0  0999 V2000
    2.7154    0.1168    0.8171 C   0  0  0  0  0  0  0  0  0  0  0  0
    1.3132    0.1411    0.8360 O   0  0  0  0  0  0  0  0  0  0  0  0
    0.8442   -0.6101   -0.2265 C   0  0  0  0  0  0  0  0  0  0  0  0
   -0.2331   -1.6114    0.0965 C   0  0  0  0  0  0  0  0  0  0  0  0
   -1.2746   -0.6134   -0.4240 C   0  0  0  0  0  0  0  0  0  0  0  0
   -1.8856    0.1047    0.7493 C   0  0  0  0  0  0  0  0  0  0  0  0
   -2.8386    1.0287    0.3915 O   0  0  0  0  0  0  0  0  0  0  0  0
   -0.1506    0.0995   -1.1199 C   0  0  0  0  0  0  0  0  0  0  0  0
   -0.1401    1.4740   -1.0282 O   0  0  0  0  0  0  0  0  0  0  0  0
    3.0664    0.5572   -0.1622 H   0  0  0  0  0  0  0  0  0  0  0  0
    3.0640   -0.9368    0.7990 H   0  0  0  0  0  0  0  0  0  0  0  0
    3.1281    0.6901    1.6762 H   0  0  0  0  0  0  0  0  0  0  0  0
    1.6573   -1.0572   -0.8470 H   0  0  0  0  0  0  0  0  0  0  0  0
   -0.3529   -1.8568    1.1722 H   0  0  0  0  0  0  0  0  0  0  0  0
   -0.1988   -2.5468   -0.4828 H   0  0  0  0  0  0  0  0  0  0  0  0
   -1.9905   -1.1255   -1.0969 H   0  0  0  0  0  0  0  0  0  0  0  0
   -1.0637    0.5029    1.3603 H   0  0  0  0  0  0  0  0  0  0  0  0
   -2.4149   -0.6751    1.3710 H   0  0  0  0  0  0  0  0  0  0  0  0
   -3.6262    0.5451    0.0422 H   0  0  0  0  0  0  0  0  0  0  0  0
   -0.0935   -0.2455   -2.1803 H   0  0  0  0  0  0  0  0  0  0  0  0
    0.4746    1.8072   -1.7435 H   0  0  0  0  0  0  0  0  0  0  0  0
  1  2  1  0
  2  3  1  0
  3  4  1  0
  4  5  1  0
  5  6  1  0
  6  7  1  0
  5  8  1  0
  8  9  1  0
  8  3  1  0
  1 10  1  0
  1 11  1  0
  1 12  1  0
  3 13  1  0
  4 14  1  0
  4 15  1  0
  5 16  1  0
  6 17  1  0
  6 18  1  0
  7 19  1  0
  8 20  1  0
  9 21  1  0
M  END
