
     RDKit          3D

 19 20  0  0  0  0  0  0  0  0999 V2000
    2.2500    0.0390   -0.7595 C   0  0  0  0  0  0  0  0  0  0  0  0
    0.9554   -0.1154   -1.1523 O   0  0  0  0  0  0  0  0  0  0  0  0
   -0.0092    0.2306   -0.2878 C   0  0  0  0  0  0  0  0  0  0  0  0
   -1.4000    0.0195   -0.8232 C   0  0  0  0  0  0  0  0  0  0  0  0
   -1.9157   -1.1616   -0.0879 C   0  0  0  0  0  0  0  0  0  0  0  0
   -1.1564   -1.3875    0.9706 C   0  0  0  0  0  0  0  0  0  0  0  0
   -0.0730   -0.4051    1.0588 C   0  0  0  0  0  0  0  0  0  0  0  0
   -0.5469    0.8330    1.5548 O   0  0  0  0  0  0  0  0  0  0  0  0
    0.0947    1.5012    0.4846 C   0  0  0  0  0  0  0  0  0  0  0  0
    2.5331   -0.5462    0.1482 H   0  0  0  0  0  0  0  0  0  0  0  0
    2.9033   -0.3665   -1.5866 H   0  0  0  0  0  0  0  0  0  0  0  0
    2.5691    1.1147   -0.6653 H   0  0  0  0  0  0  0  0  0  0  0  0
   -1.3944   -0.2187   -1.9061 H   0  0  0  0  0  0  0  0  0  0  0  0
   -2.0495    0.9020   -0.6015 H   0  0  0  0  0  0  0  0  0  0  0  0
   -2.8020   -1.7325   -0.4141 H   0  0  0  0  0  0  0  0  0  0  0  0
   -1.3137   -2.1925    1.6797 H   0  0  0  0  0  0  0  0  0  0  0  0
    0.8509   -0.6839    1.5505 H   0  0  0  0  0  0  0  0  0  0  0  0
    1.0897    1.8767    0.7241 H   0  0  0  0  0  0  0  0  0  0  0  0
   -0.5854    2.2933    0.1131 H   0  0  0  0  0  0  0  0  0  0  0  0
  1  2  1  0
  2  3  1  0
  3  4  1  0
  4  5  1  0
  5  6  2  0
  6  7  1  0
  7  8  1  0
  8  9  1  0
  7  3  1  0
  9  3  1  0
  1 10  1  0
  1 11  1  0
  1 12  1  0
  4 13  1  0
  4 14  1  0
  5 15  1  0
  6 16  1  0
  7 17  1  0
  9 18  1  0
  9 19  1  0
M  END
