
     RDKit          3D

 21 22  0  0  0  0  0  0  0  0999 V2000
   -3.1119    0.2006   -1.2863 C   0  0  0  0  0  0  0  0  0  0  0  0
   -2.4119   -0.4449   -0.2451 O   0  0  0  0  0  0  0  0  0  0  0  0
   -1.2012    0.1463    0.0024 C   0  0  0  0  0  0  0  0  0  0  0  0
   -0.8993    0.4755    1.4488 C   0  0  0  0  0  0  0  0  0  0  0  0
    0.4530   -0.1342    1.3792 C   0  0  0  0  0  0  0  0  0  0  0  0
    1.2967   -0.0983    0.1613 C   0  0  0  0  0  0  0  0  0  0  0  0
    2.4857   -0.8087    0.2543 O   0  0  0  0  0  0  0  0  0  0  0  0
    3.4929   -0.1945   -0.4422 C   0  0  0  0  0  0  0  0  0  0  0  0
   -0.0034   -0.7909    0.0561 C   0  0  0  0  0  0  0  0  0  0  0  0
   -4.0686   -0.3413   -1.4140 H   0  0  0  0  0  0  0  0  0  0  0  0
   -3.3831    1.2378   -0.9889 H   0  0  0  0  0  0  0  0  0  0  0  0
   -2.5070    0.1939   -2.2323 H   0  0  0  0  0  0  0  0  0  0  0  0
   -0.9695    1.0330   -0.6539 H   0  0  0  0  0  0  0  0  0  0  0  0
   -1.5997   -0.1243    2.0970 H   0  0  0  0  0  0  0  0  0  0  0  0
   -0.9582    1.5243    1.7344 H   0  0  0  0  0  0  0  0  0  0  0  0
    0.7298   -0.7942    2.2087 H   0  0  0  0  0  0  0  0  0  0  0  0
    1.3846    0.8203   -0.4511 H   0  0  0  0  0  0  0  0  0  0  0  0
    3.6517    0.8213   -0.0261 H   0  0  0  0  0  0  0  0  0  0  0  0
    3.3186   -0.1058   -1.5276 H   0  0  0  0  0  0  0  0  0  0  0  0
    4.4408   -0.7542   -0.2124 H   0  0  0  0  0  0  0  0  0  0  0  0
   -0.1400   -1.8616    0.1378 H   0  0  0  0  0  0  0  0  0  0  0  0
  1  2  1  0
  2  3  1  0
  3  4  1  0
  4  5  1  0
  5  6  1  0
  6  7  1  0
  7  8  1  0
  6  9  1  0
  9  3  1  0
  9  5  1  0
  1 10  1  0
  1 11  1  0
  1 12  1  0
  3 13  1  0
  4 14  1  0
  4 15  1  0
  5 16  1  0
  6 17  1  0
  8 18  1  0
  8 19  1  0
  8 20  1  0
  9 21  1  0
M  END
