
     RDKit          3D

 19 19  0  0  0  0  0  0  0  0999 V2000
   -2.1707   -1.2591    0.4063 C   0  0  0  0  0  0  0  0  0  0  0  0
   -0.8802   -1.0989   -0.0008 O   0  0  0  0  0  0  0  0  0  0  0  0
   -0.3263    0.1369    0.0772 C   0  0  0  0  0  0  0  0  0  0  0  0
    1.1190    0.1721   -0.4140 C   0  0  0  0  0  0  0  0  0  0  0  0
    1.9281   -0.6966    0.3568 O   0  0  0  0  0  0  0  0  0  0  0  0
    3.2721   -0.7610    0.0142 C   0  0  0  0  0  0  0  0  0  0  0  0
    3.7258   -0.0609   -0.9513 O   0  0  0  0  0  0  0  0  0  0  0  0
   -0.6458    0.9295    1.3309 C   0  0  0  0  0  0  0  0  0  0  0  0
   -1.0731    1.3979   -0.0170 C   0  0  0  0  0  0  0  0  0  0  0  0
   -2.4114   -2.3547    0.2374 H   0  0  0  0  0  0  0  0  0  0  0  0
   -2.2382   -1.1592    1.5306 H   0  0  0  0  0  0  0  0  0  0  0  0
   -2.9086   -0.6048   -0.0576 H   0  0  0  0  0  0  0  0  0  0  0  0
    1.4777    1.2077   -0.4315 H   0  0  0  0  0  0  0  0  0  0  0  0
    1.1156   -0.2356   -1.4461 H   0  0  0  0  0  0  0  0  0  0  0  0
    3.9763   -1.3948    0.5411 H   0  0  0  0  0  0  0  0  0  0  0  0
   -1.4709    0.6371    1.9979 H   0  0  0  0  0  0  0  0  0  0  0  0
    0.1952    1.4179    1.8649 H   0  0  0  0  0  0  0  0  0  0  0  0
   -0.5284    2.2915   -0.3858 H   0  0  0  0  0  0  0  0  0  0  0  0
   -2.1564    1.4350   -0.2619 H   0  0  0  0  0  0  0  0  0  0  0  0
  1  2  1  0
  2  3  1  0
  3  4  1  0
  4  5  1  0
  5  6  1  0
  6  7  2  0
  3  8  1  0
  8  9  1  0
  9  3  1  0
  1 10  1  0
  1 11  1  0
  1 12  1  0
  4 13  1  0
  4 14  1  0
  6 15  1  0
  8 16  1  0
  8 17  1  0
  9 18  1  0
  9 19  1  0
M  END
