
     RDKit          3D

 15 15  0  0  0  0  0  0  0  0999 V2000
    2.0338   -0.4079    0.1125 C   0  0  0  0  0  0  0  0  0  0  0  0
    0.7975   -0.8856   -0.1238 O   0  0  0  0  0  0  0  0  0  0  0  0
   -0.2918   -0.1004   -0.2054 C   0  0  0  0  0  0  0  0  0  0  0  0
   -0.0948    1.1852   -0.9045 C   0  0  0  0  0  0  0  0  0  0  0  0
   -0.6740    1.5059   -1.9188 O   0  0  0  0  0  0  0  0  0  0  0  0
   -1.6173   -0.7710   -0.1883 C   0  0  0  0  0  0  0  0  0  0  0  0
   -1.1896    0.0060    0.9934 C   0  0  0  0  0  0  0  0  0  0  0  0
    2.3418    0.3384   -0.7559 H   0  0  0  0  0  0  0  0  0  0  0  0
    2.7895   -1.1971    0.1492 H   0  0  0  0  0  0  0  0  0  0  0  0
    2.1328    0.2029    1.0510 H   0  0  0  0  0  0  0  0  0  0  0  0
    0.6119    1.9302   -0.4873 H   0  0  0  0  0  0  0  0  0  0  0  0
   -1.7064   -1.8495   -0.0457 H   0  0  0  0  0  0  0  0  0  0  0  0
   -2.4555   -0.3508   -0.7929 H   0  0  0  0  0  0  0  0  0  0  0  0
   -1.7177    0.9520    1.1863 H   0  0  0  0  0  0  0  0  0  0  0  0
   -0.9602   -0.5582    1.9303 H   0  0  0  0  0  0  0  0  0  0  0  0
  1  2  1  0
  2  3  1  0
  3  4  1  0
  4  5  2  0
  3  6  1  0
  6  7  1  0
  7  3  1  0
  1  8  1  0
  1  9  1  0
  1 10  1  0
  4 11  1  0
  6 12  1  0
  6 13  1  0
  7 14  1  0
  7 15  1  0
M  END
