
     RDKit          3D

 22 22  0  0  0  0  0  0  0  0999 V2000
    2.4919    0.1755    1.1664 C   0  0  0  0  0  0  0  0  0  0  0  0
    1.4380   -0.6298    0.7471 O   0  0  0  0  0  0  0  0  0  0  0  0
    0.7031    0.0593   -0.1693 C   0  0  0  0  0  0  0  0  0  0  0  0
    0.5397   -0.7568   -1.4355 C   0  0  0  0  0  0  0  0  0  0  0  0
   -0.9190   -0.4039   -1.4247 C   0  0  0  0  0  0  0  0  0  0  0  0
   -0.7895    0.0719    0.0075 C   0  0  0  0  0  0  0  0  0  0  0  0
   -1.3568   -0.9450    0.9503 C   0  0  0  0  0  0  0  0  0  0  0  0
   -1.3716    1.4381    0.1602 C   0  0  0  0  0  0  0  0  0  0  0  0
    3.1406   -0.3199    1.9190 H   0  0  0  0  0  0  0  0  0  0  0  0
    3.0860    0.4151    0.2427 H   0  0  0  0  0  0  0  0  0  0  0  0
    2.0761    1.0998    1.6345 H   0  0  0  0  0  0  0  0  0  0  0  0
    1.1061    1.0666   -0.3579 H   0  0  0  0  0  0  0  0  0  0  0  0
    1.0744   -0.3295   -2.3019 H   0  0  0  0  0  0  0  0  0  0  0  0
    0.7780   -1.8316   -1.3348 H   0  0  0  0  0  0  0  0  0  0  0  0
   -1.5425   -1.2948   -1.5767 H   0  0  0  0  0  0  0  0  0  0  0  0
   -1.2225    0.3849   -2.1501 H   0  0  0  0  0  0  0  0  0  0  0  0
   -1.2449   -0.6625    2.0157 H   0  0  0  0  0  0  0  0  0  0  0  0
   -2.4559   -0.9955    0.7617 H   0  0  0  0  0  0  0  0  0  0  0  0
   -0.9607   -1.9466    0.7802 H   0  0  0  0  0  0  0  0  0  0  0  0
   -2.4632    1.4103   -0.1201 H   0  0  0  0  0  0  0  0  0  0  0  0
   -1.1986    1.9093    1.1276 H   0  0  0  0  0  0  0  0  0  0  0  0
   -0.9089    2.0851   -0.6420 H   0  0  0  0  0  0  0  0  0  0  0  0
  1  2  1  0
  2  3  1  0
  3  4  1  0
  4  5  1  0
  5  6  1  0
  6  7  1  0
  6  8  1  0
  6  3  1  0
  1  9  1  0
  1 10  1  0
  1 11  1  0
  3 12  1  0
  4 13  1  0
  4 14  1  0
  5 15  1  0
  5 16  1  0
  7 17  1  0
  7 18  1  0
  7 19  1  0
  8 20  1  0
  8 21  1  0
  8 22  1  0
M  END
