
     RDKit          3D

 17 17  0  0  0  0  0  0  0  0999 V2000
   -2.4270   -0.0385    0.3763 C   0  0  0  0  0  0  0  0  0  0  0  0
   -1.0839    0.1487    0.6839 O   0  0  0  0  0  0  0  0  0  0  0  0
   -0.3303   -0.2071   -0.4041 C   0  0  0  0  0  0  0  0  0  0  0  0
    0.8201   -1.1417   -0.1539 C   0  0  0  0  0  0  0  0  0  0  0  0
    1.7401    0.0796   -0.1785 C   0  0  0  0  0  0  0  0  0  0  0  0
    2.1310    0.4055    1.1178 O   0  0  0  0  0  0  0  0  0  0  0  0
    0.6373    0.9042   -0.7461 C   0  0  0  0  0  0  0  0  0  0  0  0
   -2.6492   -1.1107    0.1174 H   0  0  0  0  0  0  0  0  0  0  0  0
   -3.0905    0.1929    1.2383 H   0  0  0  0  0  0  0  0  0  0  0  0
   -2.7307    0.5415   -0.5238 H   0  0  0  0  0  0  0  0  0  0  0  0
   -0.9600   -0.5494   -1.2444 H   0  0  0  0  0  0  0  0  0  0  0  0
    0.9970   -1.8190   -1.0145 H   0  0  0  0  0  0  0  0  0  0  0  0
    0.8135   -1.6797    0.8118 H   0  0  0  0  0  0  0  0  0  0  0  0
    2.5891   -0.0268   -0.8968 H   0  0  0  0  0  0  0  0  0  0  0  0
    2.4128    1.3548    1.1582 H   0  0  0  0  0  0  0  0  0  0  0  0
    0.4962    1.8386   -0.1724 H   0  0  0  0  0  0  0  0  0  0  0  0
    0.6346    1.1069   -1.8150 H   0  0  0  0  0  0  0  0  0  0  0  0
  1  2  1  0
  2  3  1  0
  3  4  1  0
  4  5  1  0
  5  6  1  0
  5  7  1  0
  7  3  1  0
  1  8  1  0
  1  9  1  0
  1 10  1  0
  3 11  1  0
  4 12  1  0
  4 13  1  0
  5 14  1  0
  6 15  1  0
  7 16  1  0
  7 17  1  0
M  END
