
     RDKit          3D

 23 23  0  0  0  0  0  0  0  0999 V2000
    3.0169    0.2980   -0.9311 C   0  0  0  0  0  0  0  0  0  0  0  0
    1.6590    0.6177   -1.1668 O   0  0  0  0  0  0  0  0  0  0  0  0
    0.9130   -0.2752   -0.4681 C   0  0  0  0  0  0  0  0  0  0  0  0
   -0.2474   -0.9240   -1.2199 C   0  0  0  0  0  0  0  0  0  0  0  0
   -0.9330   -0.9652    0.1042 C   0  0  0  0  0  0  0  0  0  0  0  0
   -2.4066   -0.7843    0.1475 C   0  0  0  0  0  0  0  0  0  0  0  0
   -0.1722    0.3241    0.4334 C   0  0  0  0  0  0  0  0  0  0  0  0
   -0.7884    1.5710   -0.1186 C   0  0  0  0  0  0  0  0  0  0  0  0
    0.2606    0.4365    1.7237 O   0  0  0  0  0  0  0  0  0  0  0  0
    3.2434    0.3704    0.1579 H   0  0  0  0  0  0  0  0  0  0  0  0
    3.6855    0.9695   -1.4757 H   0  0  0  0  0  0  0  0  0  0  0  0
    3.1213   -0.7629   -1.2275 H   0  0  0  0  0  0  0  0  0  0  0  0
    1.4558   -1.0491    0.1266 H   0  0  0  0  0  0  0  0  0  0  0  0
   -0.6933   -0.2901   -2.0033 H   0  0  0  0  0  0  0  0  0  0  0  0
    0.0918   -1.8733   -1.6424 H   0  0  0  0  0  0  0  0  0  0  0  0
   -0.5924   -1.8008    0.7090 H   0  0  0  0  0  0  0  0  0  0  0  0
   -2.7312    0.1700   -0.3212 H   0  0  0  0  0  0  0  0  0  0  0  0
   -2.7025   -0.7079    1.2174 H   0  0  0  0  0  0  0  0  0  0  0  0
   -2.9176   -1.6694   -0.2575 H   0  0  0  0  0  0  0  0  0  0  0  0
   -1.5283    1.9368    0.6090 H   0  0  0  0  0  0  0  0  0  0  0  0
    0.0065    2.3405   -0.3203 H   0  0  0  0  0  0  0  0  0  0  0  0
   -1.3091    1.4235   -1.0733 H   0  0  0  0  0  0  0  0  0  0  0  0
   -0.4317    0.6441    2.3684 H   0  0  0  0  0  0  0  0  0  0  0  0
  1  2  1  0
  2  3  1  0
  3  4  1  0
  4  5  1  0
  5  6  1  0
  5  7  1  0
  7  8  1  0
  7  9  1  0
  7  3  1  0
  1 10  1  0
  1 11  1  0
  1 12  1  0
  3 13  1  0
  4 14  1  0
  4 15  1  0
  5 16  1  0
  6 17  1  0
  6 18  1  0
  6 19  1  0
  8 20  1  0
  8 21  1  0
  8 22  1  0
  9 23  1  0
M  END
