
     RDKit          3D

 21 22  0  0  0  0  0  0  0  0999 V2000
    3.2462   -0.2093    0.4651 C   0  0  0  0  0  0  0  0  0  0  0  0
    1.9353    0.1267    0.7872 O   0  0  0  0  0  0  0  0  0  0  0  0
    1.1834    0.0958   -0.3693 C   0  0  0  0  0  0  0  0  0  0  0  0
    0.3198    1.3719   -0.5257 C   0  0  0  0  0  0  0  0  0  0  0  0
   -0.2180   -0.0513   -0.2847 C   0  0  0  0  0  0  0  0  0  0  0  0
   -1.2273   -0.5027   -1.2315 C   0  0  0  0  0  0  0  0  0  0  0  0
   -2.2545   -0.1528   -0.1428 C   0  0  0  0  0  0  0  0  0  0  0  0
   -3.2771   -1.0450   -0.0041 O   0  0  0  0  0  0  0  0  0  0  0  0
   -1.0974   -0.3251    0.8534 C   0  0  0  0  0  0  0  0  0  0  0  0
    3.9236   -0.2103    1.3345 H   0  0  0  0  0  0  0  0  0  0  0  0
    3.2441   -1.1831   -0.0780 H   0  0  0  0  0  0  0  0  0  0  0  0
    3.6506    0.5542   -0.2410 H   0  0  0  0  0  0  0  0  0  0  0  0
    1.7129   -0.1717   -1.2902 H   0  0  0  0  0  0  0  0  0  0  0  0
    0.1755    2.0151    0.3381 H   0  0  0  0  0  0  0  0  0  0  0  0
    0.1832    1.7673   -1.5465 H   0  0  0  0  0  0  0  0  0  0  0  0
   -1.3763    0.0788   -2.1675 H   0  0  0  0  0  0  0  0  0  0  0  0
   -1.3256   -1.5950   -1.4447 H   0  0  0  0  0  0  0  0  0  0  0  0
   -2.5158    0.9269   -0.1674 H   0  0  0  0  0  0  0  0  0  0  0  0
   -4.1421   -0.5400   -0.1019 H   0  0  0  0  0  0  0  0  0  0  0  0
   -1.1118    0.4227    1.6779 H   0  0  0  0  0  0  0  0  0  0  0  0
   -1.0288   -1.3732    1.2094 H   0  0  0  0  0  0  0  0  0  0  0  0
  1  2  1  0
  2  3  1  0
  3  4  1  0
  4  5  1  0
  5  6  1  0
  6  7  1  0
  7  8  1  0
  7  9  1  0
  5  3  1  0
  9  5  1  0
  1 10  1  0
  1 11  1  0
  1 12  1  0
  3 13  1  0
  4 14  1  0
  4 15  1  0
  6 16  1  0
  6 17  1  0
  7 18  1  0
  8 19  1  0
  9 20  1  0
  9 21  1  0
M  END
