
     RDKit          3D

 23 23  0  0  0  0  0  0  0  0999 V2000
    3.3734    0.3220   -0.3071 C   0  0  0  0  0  0  0  0  0  0  0  0
    2.2135   -0.4359   -0.2158 O   0  0  0  0  0  0  0  0  0  0  0  0
    1.0820    0.3063   -0.0016 C   0  0  0  0  0  0  0  0  0  0  0  0
   -0.0732    0.0272   -0.9680 C   0  0  0  0  0  0  0  0  0  0  0  0
   -0.9901   -0.2265    0.1730 C   0  0  0  0  0  0  0  0  0  0  0  0
   -1.7326   -1.5182    0.0216 C   0  0  0  0  0  0  0  0  0  0  0  0
   -1.8937    0.9034    0.5907 C   0  0  0  0  0  0  0  0  0  0  0  0
   -2.7439    1.3133   -0.4243 O   0  0  0  0  0  0  0  0  0  0  0  0
    0.2172   -0.2802    1.0871 C   0  0  0  0  0  0  0  0  0  0  0  0
    4.2072   -0.4011   -0.4798 H   0  0  0  0  0  0  0  0  0  0  0  0
    3.3663    0.9881   -1.2071 H   0  0  0  0  0  0  0  0  0  0  0  0
    3.5744    0.8978    0.6207 H   0  0  0  0  0  0  0  0  0  0  0  0
    1.2094    1.4034    0.0740 H   0  0  0  0  0  0  0  0  0  0  0  0
   -0.3103    0.8393   -1.6501 H   0  0  0  0  0  0  0  0  0  0  0  0
    0.1869   -0.8882   -1.5506 H   0  0  0  0  0  0  0  0  0  0  0  0
   -1.0285   -2.3133   -0.2813 H   0  0  0  0  0  0  0  0  0  0  0  0
   -2.3556   -1.7744    0.8831 H   0  0  0  0  0  0  0  0  0  0  0  0
   -2.4428   -1.3794   -0.8434 H   0  0  0  0  0  0  0  0  0  0  0  0
   -1.3335    1.7934    0.9510 H   0  0  0  0  0  0  0  0  0  0  0  0
   -2.5032    0.5522    1.4493 H   0  0  0  0  0  0  0  0  0  0  0  0
   -2.6350    0.7541   -1.2426 H   0  0  0  0  0  0  0  0  0  0  0  0
    0.1822    0.4294    1.9474 H   0  0  0  0  0  0  0  0  0  0  0  0
    0.4299   -1.3127    1.3737 H   0  0  0  0  0  0  0  0  0  0  0  0
  1  2  1  0
  2  3  1  0
  3  4  1  0
  4  5  1  0
  5  6  1  0
  5  7  1  0
  7  8  1  0
  5  9  1  0
  9  3  1  0
  1 10  1  0
  1 11  1  0
  1 12  1  0
  3 13  1  0
  4 14  1  0
  4 15  1  0
  6 16  1  0
  6 17  1  0
  6 18  1  0
  7 19  1  0
  7 20  1  0
  8 21  1  0
  9 22  1  0
  9 23  1  0
M  END
