
     RDKit          3D

 21 22  0  0  0  0  0  0  0  0999 V2000
   -3.1990   -0.6491   -0.2041 C   0  0  0  0  0  0  0  0  0  0  0  0
   -2.0087   -0.5993   -0.9013 O   0  0  0  0  0  0  0  0  0  0  0  0
   -0.9064   -0.3613   -0.1436 C   0  0  0  0  0  0  0  0  0  0  0  0
    0.1039    0.5979   -0.6560 C   0  0  0  0  0  0  0  0  0  0  0  0
    0.8972    1.4733    0.2872 C   0  0  0  0  0  0  0  0  0  0  0  0
    2.3206    0.9502    0.2816 C   0  0  0  0  0  0  0  0  0  0  0  0
    2.4400   -0.3069    0.7934 O   0  0  0  0  0  0  0  0  0  0  0  0
    1.3812   -1.1431    0.6222 C   0  0  0  0  0  0  0  0  0  0  0  0
    0.4572   -0.8118   -0.4955 C   0  0  0  0  0  0  0  0  0  0  0  0
   -3.2345   -1.4320    0.5664 H   0  0  0  0  0  0  0  0  0  0  0  0
   -4.0700   -0.6446   -0.8885 H   0  0  0  0  0  0  0  0  0  0  0  0
   -3.2714    0.3260    0.3586 H   0  0  0  0  0  0  0  0  0  0  0  0
   -1.1282   -0.2379    0.9565 H   0  0  0  0  0  0  0  0  0  0  0  0
   -0.0893    1.0417   -1.6476 H   0  0  0  0  0  0  0  0  0  0  0  0
    0.9107    2.5197   -0.0150 H   0  0  0  0  0  0  0  0  0  0  0  0
    0.5336    1.4213    1.3253 H   0  0  0  0  0  0  0  0  0  0  0  0
    2.9240    1.6743    0.8678 H   0  0  0  0  0  0  0  0  0  0  0  0
    2.7126    0.9543   -0.7666 H   0  0  0  0  0  0  0  0  0  0  0  0
    1.7925   -2.1757    0.4765 H   0  0  0  0  0  0  0  0  0  0  0  0
    0.7957   -1.2145    1.5821 H   0  0  0  0  0  0  0  0  0  0  0  0
    0.6383   -1.3824   -1.4372 H   0  0  0  0  0  0  0  0  0  0  0  0
  1  2  1  0
  2  3  1  0
  3  4  1  0
  4  5  1  0
  5  6  1  0
  6  7  1  0
  7  8  1  0
  8  9  1  0
  9  3  1  0
  9  4  1  0
  1 10  1  0
  1 11  1  0
  1 12  1  0
  3 13  1  0
  4 14  1  0
  5 15  1  0
  5 16  1  0
  6 17  1  0
  6 18  1  0
  8 19  1  0
  8 20  1  0
  9 21  1  0
M  END
