
     RDKit          3D

 19 20  0  0  0  0  0  0  0  0999 V2000
    2.6154   -0.9368    0.1742 C   0  0  0  0  0  0  0  0  0  0  0  0
    1.2991   -0.9810    0.6851 O   0  0  0  0  0  0  0  0  0  0  0  0
    0.5965    0.0179    0.0698 C   0  0  0  0  0  0  0  0  0  0  0  0
   -0.1002    0.9349    1.0111 C   0  0  0  0  0  0  0  0  0  0  0  0
    0.3107    1.5300    1.9578 O   0  0  0  0  0  0  0  0  0  0  0  0
   -1.4748    0.9427    0.4861 C   0  0  0  0  0  0  0  0  0  0  0  0
   -1.2775    0.8894   -1.0183 C   0  0  0  0  0  0  0  0  0  0  0  0
   -0.6155   -0.4540   -0.6908 C   0  0  0  0  0  0  0  0  0  0  0  0
   -1.7237   -0.5688    0.3629 C   0  0  0  0  0  0  0  0  0  0  0  0
    3.2398   -1.7239    0.6337 H   0  0  0  0  0  0  0  0  0  0  0  0
    2.5537   -1.2039   -0.9211 H   0  0  0  0  0  0  0  0  0  0  0  0
    3.0485    0.0757    0.2458 H   0  0  0  0  0  0  0  0  0  0  0  0
    1.2135    0.6109   -0.6667 H   0  0  0  0  0  0  0  0  0  0  0  0
   -2.2295    1.5416    0.8972 H   0  0  0  0  0  0  0  0  0  0  0  0
   -2.1977    0.7512   -1.5857 H   0  0  0  0  0  0  0  0  0  0  0  0
   -0.5664    1.6533   -1.3739 H   0  0  0  0  0  0  0  0  0  0  0  0
   -0.5472   -1.1859   -1.4437 H   0  0  0  0  0  0  0  0  0  0  0  0
   -1.4450   -1.1216    1.2594 H   0  0  0  0  0  0  0  0  0  0  0  0
   -2.6997   -0.7715   -0.0830 H   0  0  0  0  0  0  0  0  0  0  0  0
  1  2  1  0
  2  3  1  0
  3  4  1  0
  4  5  2  0
  4  6  1  0
  6  7  1  0
  7  8  1  0
  8  9  1  0
  8  3  1  0
  9  6  1  0
  1 10  1  0
  1 11  1  0
  1 12  1  0
  3 13  1  0
  6 14  1  0
  7 15  1  0
  7 16  1  0
  8 17  1  0
  9 18  1  0
  9 19  1  0
M  END
