
     RDKit          3D

 19 19  0  0  0  0  0  0  0  0999 V2000
    1.6895    0.8187    1.0720 C   0  0  0  0  0  0  0  0  0  0  0  0
    0.3972    0.9016    0.6035 O   0  0  0  0  0  0  0  0  0  0  0  0
   -0.0484   -0.1835   -0.0886 C   0  0  0  0  0  0  0  0  0  0  0  0
   -1.4332   -0.0071   -0.5488 C   0  0  0  0  0  0  0  0  0  0  0  0
   -2.1588    1.2337   -0.2426 C   0  0  0  0  0  0  0  0  0  0  0  0
   -1.9578   -0.8899   -1.1759 O   0  0  0  0  0  0  0  0  0  0  0  0
    0.8406   -0.7471   -1.1573 C   0  0  0  0  0  0  0  0  0  0  0  0
    1.5099   -1.4631   -0.1511 O   0  0  0  0  0  0  0  0  0  0  0  0
    0.2734   -1.5361    0.5036 C   0  0  0  0  0  0  0  0  0  0  0  0
    1.9088    1.7685    1.6106 H   0  0  0  0  0  0  0  0  0  0  0  0
    2.3881    0.7866    0.2143 H   0  0  0  0  0  0  0  0  0  0  0  0
    1.8106   -0.0245    1.7583 H   0  0  0  0  0  0  0  0  0  0  0  0
   -3.1349    1.2723   -0.7638 H   0  0  0  0  0  0  0  0  0  0  0  0
   -1.5626    2.1071   -0.5941 H   0  0  0  0  0  0  0  0  0  0  0  0
   -2.3288    1.3915    0.8419 H   0  0  0  0  0  0  0  0  0  0  0  0
    0.2649   -1.4743   -1.7782 H   0  0  0  0  0  0  0  0  0  0  0  0
    1.4456   -0.0508   -1.7326 H   0  0  0  0  0  0  0  0  0  0  0  0
    0.4199   -1.5656    1.5855 H   0  0  0  0  0  0  0  0  0  0  0  0
   -0.3241   -2.3380    0.0434 H   0  0  0  0  0  0  0  0  0  0  0  0
  1  2  1  0
  2  3  1  0
  3  4  1  0
  4  5  1  0
  4  6  2  0
  3  7  1  0
  7  8  1  0
  8  9  1  0
  9  3  1  0
  1 10  1  0
  1 11  1  0
  1 12  1  0
  5 13  1  0
  5 14  1  0
  5 15  1  0
  7 16  1  0
  7 17  1  0
  9 18  1  0
  9 19  1  0
M  END
