
     RDKit          3D

 21 21  0  0  0  0  0  0  0  0999 V2000
    3.3041    0.0448    0.0884 C   0  0  0  0  0  0  0  0  0  0  0  0
    2.1185   -0.5835   -0.2564 O   0  0  0  0  0  0  0  0  0  0  0  0
    1.0137    0.2470   -0.0958 C   0  0  0  0  0  0  0  0  0  0  0  0
    0.0554   -0.3518    0.9089 C   0  0  0  0  0  0  0  0  0  0  0  0
   -1.2774    0.1523    0.3495 C   0  0  0  0  0  0  0  0  0  0  0  0
   -2.4154   -0.7585    0.7053 C   0  0  0  0  0  0  0  0  0  0  0  0
   -1.4655    1.4584    0.8015 O   0  0  0  0  0  0  0  0  0  0  0  0
   -0.9694    0.1603   -1.1310 C   0  0  0  0  0  0  0  0  0  0  0  0
    0.3694    0.3587   -1.2910 O   0  0  0  0  0  0  0  0  0  0  0  0
    4.1174   -0.7050   -0.0769 H   0  0  0  0  0  0  0  0  0  0  0  0
    3.3615    0.3113    1.1651 H   0  0  0  0  0  0  0  0  0  0  0  0
    3.5225    0.9437   -0.5104 H   0  0  0  0  0  0  0  0  0  0  0  0
    1.2866    1.2507    0.2759 H   0  0  0  0  0  0  0  0  0  0  0  0
    0.0885   -1.4662    0.9005 H   0  0  0  0  0  0  0  0  0  0  0  0
    0.2307   -0.0191    1.9311 H   0  0  0  0  0  0  0  0  0  0  0  0
   -2.1052   -1.6354    1.3071 H   0  0  0  0  0  0  0  0  0  0  0  0
   -2.9304   -1.1451   -0.1944 H   0  0  0  0  0  0  0  0  0  0  0  0
   -3.1525   -0.1618    1.2832 H   0  0  0  0  0  0  0  0  0  0  0  0
   -2.2393    1.8361    0.2857 H   0  0  0  0  0  0  0  0  0  0  0  0
   -1.6209    0.9013   -1.6087 H   0  0  0  0  0  0  0  0  0  0  0  0
   -1.2924   -0.8383   -1.5193 H   0  0  0  0  0  0  0  0  0  0  0  0
  1  2  1  0
  2  3  1  0
  3  4  1  0
  4  5  1  0
  5  6  1  0
  5  7  1  0
  5  8  1  0
  8  9  1  0
  9  3  1  0
  1 10  1  0
  1 11  1  0
  1 12  1  0
  3 13  1  0
  4 14  1  0
  4 15  1  0
  6 16  1  0
  6 17  1  0
  6 18  1  0
  7 19  1  0
  8 20  1  0
  8 21  1  0
M  END
