
     RDKit          3D

 19 19  0  0  0  0  0  0  0  0999 V2000
    2.5339    0.5820    0.0254 C   0  0  0  0  0  0  0  0  0  0  0  0
    1.4412    0.2652   -0.7776 O   0  0  0  0  0  0  0  0  0  0  0  0
    0.3487   -0.0960   -0.0270 C   0  0  0  0  0  0  0  0  0  0  0  0
   -0.0779   -1.5352   -0.3345 C   0  0  0  0  0  0  0  0  0  0  0  0
   -1.5610   -1.5182   -0.1803 C   0  0  0  0  0  0  0  0  0  0  0  0
   -1.9243   -0.1105   -0.4085 C   0  0  0  0  0  0  0  0  0  0  0  0
   -0.8644    0.6562   -0.3207 C   0  0  0  0  0  0  0  0  0  0  0  0
   -0.9551    2.1203   -0.5096 C   0  0  0  0  0  0  0  0  0  0  0  0
    0.0807    2.8050   -0.4162 O   0  0  0  0  0  0  0  0  0  0  0  0
    3.3976    0.8685   -0.6025 H   0  0  0  0  0  0  0  0  0  0  0  0
    2.3324    1.4393    0.6930 H   0  0  0  0  0  0  0  0  0  0  0  0
    2.8318   -0.2680    0.6436 H   0  0  0  0  0  0  0  0  0  0  0  0
    0.6341   -0.0381    1.0494 H   0  0  0  0  0  0  0  0  0  0  0  0
    0.3876   -2.2340    0.3781 H   0  0  0  0  0  0  0  0  0  0  0  0
    0.2212   -1.7955   -1.3632 H   0  0  0  0  0  0  0  0  0  0  0  0
   -2.0844   -2.2072   -0.8743 H   0  0  0  0  0  0  0  0  0  0  0  0
   -1.8963   -1.7937    0.8441 H   0  0  0  0  0  0  0  0  0  0  0  0
   -2.9624    0.2293   -0.6238 H   0  0  0  0  0  0  0  0  0  0  0  0
   -1.8833    2.6306   -0.7266 H   0  0  0  0  0  0  0  0  0  0  0  0
  1  2  1  0
  2  3  1  0
  3  4  1  0
  4  5  1  0
  5  6  1  0
  6  7  2  0
  7  8  1  0
  8  9  2  0
  7  3  1  0
  1 10  1  0
  1 11  1  0
  1 12  1  0
  3 13  1  0
  4 14  1  0
  4 15  1  0
  5 16  1  0
  5 17  1  0
  6 18  1  0
  8 19  1  0
M  END
