
     RDKit          3D

 21 23  0  0  0  0  0  0  0  0999 V2000
    3.0411   -0.0052   -0.2330 C   0  0  0  0  0  0  0  0  0  0  0  0
    1.7847    0.3282   -0.7245 O   0  0  0  0  0  0  0  0  0  0  0  0
    0.7711   -0.1660    0.0652 C   0  0  0  0  0  0  0  0  0  0  0  0
   -0.0418    0.9701    0.6224 C   0  0  0  0  0  0  0  0  0  0  0  0
   -1.4378    0.4442    0.6601 C   0  0  0  0  0  0  0  0  0  0  0  0
   -2.1161    0.7451   -0.6779 C   0  0  0  0  0  0  0  0  0  0  0  0
   -1.4893   -0.5349   -1.1863 C   0  0  0  0  0  0  0  0  0  0  0  0
   -1.3850   -0.9793    0.2018 C   0  0  0  0  0  0  0  0  0  0  0  0
   -0.2057   -1.0299   -0.6661 C   0  0  0  0  0  0  0  0  0  0  0  0
    3.1404    0.4185    0.7753 H   0  0  0  0  0  0  0  0  0  0  0  0
    3.1909   -1.1075   -0.1994 H   0  0  0  0  0  0  0  0  0  0  0  0
    3.8169    0.3910   -0.9198 H   0  0  0  0  0  0  0  0  0  0  0  0
    1.2395   -0.7265    0.9264 H   0  0  0  0  0  0  0  0  0  0  0  0
    0.0788    1.8350   -0.0763 H   0  0  0  0  0  0  0  0  0  0  0  0
    0.3268    1.3202    1.6088 H   0  0  0  0  0  0  0  0  0  0  0  0
   -2.0362    0.6183    1.5425 H   0  0  0  0  0  0  0  0  0  0  0  0
   -3.2171    0.7045   -0.5329 H   0  0  0  0  0  0  0  0  0  0  0  0
   -1.7252    1.6733   -1.1372 H   0  0  0  0  0  0  0  0  0  0  0  0
   -1.9652   -1.0898   -1.9949 H   0  0  0  0  0  0  0  0  0  0  0  0
   -1.8853   -1.7924    0.6689 H   0  0  0  0  0  0  0  0  0  0  0  0
    0.1145   -2.0170   -0.9974 H   0  0  0  0  0  0  0  0  0  0  0  0
  1  2  1  0
  2  3  1  0
  3  4  1  0
  4  5  1  0
  5  6  1  0
  6  7  1  0
  7  8  1  0
  8  9  1  0
  9  3  1  0
  8  5  1  0
  9  7  1  0
  1 10  1  0
  1 11  1  0
  1 12  1  0
  3 13  1  0
  4 14  1  0
  4 15  1  0
  5 16  1  0
  6 17  1  0
  6 18  1  0
  7 19  1  0
  8 20  1  0
  9 21  1  0
M  END
