
     RDKit          3D

 21 21  0  0  0  0  0  0  0  0999 V2000
    1.7063    1.3985    0.3270 C   0  0  0  0  0  0  0  0  0  0  0  0
    0.5483    0.8296    0.7757 O   0  0  0  0  0  0  0  0  0  0  0  0
    0.1493   -0.3306    0.1761 C   0  0  0  0  0  0  0  0  0  0  0  0
   -1.1625   -0.8652    0.7750 C   0  0  0  0  0  0  0  0  0  0  0  0
   -2.2303    0.1994    0.5672 C   0  0  0  0  0  0  0  0  0  0  0  0
   -1.8507    1.3861    1.2117 O   0  0  0  0  0  0  0  0  0  0  0  0
    0.1898   -0.4871   -1.3129 C   0  0  0  0  0  0  0  0  0  0  0  0
    1.0438   -1.3361   -0.3941 C   0  0  0  0  0  0  0  0  0  0  0  0
    2.3934   -1.1721   -0.5790 O   0  0  0  0  0  0  0  0  0  0  0  0
    1.6677    1.6611   -0.7316 H   0  0  0  0  0  0  0  0  0  0  0  0
    1.8134    2.3726    0.8930 H   0  0  0  0  0  0  0  0  0  0  0  0
    2.6228    0.8323    0.5933 H   0  0  0  0  0  0  0  0  0  0  0  0
   -1.4736   -1.7772    0.2658 H   0  0  0  0  0  0  0  0  0  0  0  0
   -1.0521   -0.9918    1.8727 H   0  0  0  0  0  0  0  0  0  0  0  0
   -3.1865   -0.1610    0.9730 H   0  0  0  0  0  0  0  0  0  0  0  0
   -2.3811    0.4081   -0.5046 H   0  0  0  0  0  0  0  0  0  0  0  0
   -2.1111    2.1873    0.6638 H   0  0  0  0  0  0  0  0  0  0  0  0
    0.6224    0.3416   -1.8712 H   0  0  0  0  0  0  0  0  0  0  0  0
   -0.6035   -1.0444   -1.8477 H   0  0  0  0  0  0  0  0  0  0  0  0
    0.7523   -2.4230   -0.2872 H   0  0  0  0  0  0  0  0  0  0  0  0
    2.5418   -1.0278   -1.5657 H   0  0  0  0  0  0  0  0  0  0  0  0
  1  2  1  0
  2  3  1  0
  3  4  1  0
  4  5  1  0
  5  6  1  0
  3  7  1  0
  7  8  1  0
  8  9  1  0
  8  3  1  0
  1 10  1  0
  1 11  1  0
  1 12  1  0
  4 13  1  0
  4 14  1  0
  5 15  1  0
  5 16  1  0
  6 17  1  0
  7 18  1  0
  7 19  1  0
  8 20  1  0
  9 21  1  0
M  END
