
     RDKit          3D

 17 20  0  0  0  0  0  0  0  0999 V2000
    2.5087    0.2992   -0.2355 C   0  0  0  0  0  0  0  0  0  0  0  0
    1.4382    0.6582    0.5731 O   0  0  0  0  0  0  0  0  0  0  0  0
    0.2501    0.1508    0.2247 C   0  0  0  0  0  0  0  0  0  0  0  0
   -0.1461   -1.2410    0.1196 C   0  0  0  0  0  0  0  0  0  0  0  0
   -1.1355   -1.3754   -0.8497 O   0  0  0  0  0  0  0  0  0  0  0  0
   -1.7747   -0.1284   -0.9040 C   0  0  0  0  0  0  0  0  0  0  0  0
   -1.8152    0.3547    0.4798 C   0  0  0  0  0  0  0  0  0  0  0  0
   -0.8274    0.8974   -0.4857 C   0  0  0  0  0  0  0  0  0  0  0  0
   -0.7494   -0.3891    1.1669 C   0  0  0  0  0  0  0  0  0  0  0  0
    2.5671   -0.8275   -0.1750 H   0  0  0  0  0  0  0  0  0  0  0  0
    2.3346    0.5943   -1.2791 H   0  0  0  0  0  0  0  0  0  0  0  0
    3.4742    0.6825    0.1480 H   0  0  0  0  0  0  0  0  0  0  0  0
    0.4037   -2.1098    0.4514 H   0  0  0  0  0  0  0  0  0  0  0  0
   -2.6153    0.0002   -1.5704 H   0  0  0  0  0  0  0  0  0  0  0  0
   -2.5235    1.0224    0.9170 H   0  0  0  0  0  0  0  0  0  0  0  0
   -0.7663    1.9155   -0.8040 H   0  0  0  0  0  0  0  0  0  0  0  0
   -0.6231   -0.5041    2.2229 H   0  0  0  0  0  0  0  0  0  0  0  0
  1  2  1  0
  2  3  1  0
  3  4  1  0
  4  5  1  0
  5  6  1  0
  6  7  1  0
  7  8  1  0
  7  9  1  0
  8  3  1  0
  9  3  1  0
  9  4  1  0
  8  6  1  0
  1 10  1  0
  1 11  1  0
  1 12  1  0
  4 13  1  0
  6 14  1  0
  7 15  1  0
  8 16  1  0
  9 17  1  0
M  END
