
     RDKit          3D

 21 22  0  0  0  0  0  0  0  0999 V2000
    2.6044    0.4818    0.4635 C   0  0  0  0  0  0  0  0  0  0  0  0
    1.4059   -0.0660    0.9563 O   0  0  0  0  0  0  0  0  0  0  0  0
    0.5340   -0.1522   -0.0983 C   0  0  0  0  0  0  0  0  0  0  0  0
   -0.0491   -1.5198   -0.3071 C   0  0  0  0  0  0  0  0  0  0  0  0
   -1.1114   -1.6546    0.7535 C   0  0  0  0  0  0  0  0  0  0  0  0
   -1.7011   -0.5837   -0.1068 C   0  0  0  0  0  0  0  0  0  0  0  0
   -1.1006   -1.2409   -1.2021 O   0  0  0  0  0  0  0  0  0  0  0  0
   -0.7863    0.5909    0.1844 C   0  0  0  0  0  0  0  0  0  0  0  0
   -0.9888    1.7459   -0.7232 C   0  0  0  0  0  0  0  0  0  0  0  0
    2.9631   -0.2333   -0.3304 H   0  0  0  0  0  0  0  0  0  0  0  0
    3.3636    0.5824    1.2616 H   0  0  0  0  0  0  0  0  0  0  0  0
    2.3972    1.4306   -0.0692 H   0  0  0  0  0  0  0  0  0  0  0  0
    0.9573    0.2129   -1.0481 H   0  0  0  0  0  0  0  0  0  0  0  0
    0.5861   -2.3459   -0.5231 H   0  0  0  0  0  0  0  0  0  0  0  0
   -1.6067   -2.6275    0.7672 H   0  0  0  0  0  0  0  0  0  0  0  0
   -0.7224   -1.2765    1.7250 H   0  0  0  0  0  0  0  0  0  0  0  0
   -2.7500   -0.4252   -0.1346 H   0  0  0  0  0  0  0  0  0  0  0  0
   -0.8630    0.8113    1.2542 H   0  0  0  0  0  0  0  0  0  0  0  0
   -1.4926    1.5011   -1.6757 H   0  0  0  0  0  0  0  0  0  0  0  0
   -0.0398    2.2499   -0.9718 H   0  0  0  0  0  0  0  0  0  0  0  0
   -1.5997    2.5186   -0.1751 H   0  0  0  0  0  0  0  0  0  0  0  0
  1  2  1  0
  2  3  1  0
  3  4  1  0
  4  5  1  0
  5  6  1  0
  6  7  1  0
  6  8  1  0
  8  9  1  0
  8  3  1  0
  7  4  1  0
  1 10  1  0
  1 11  1  0
  1 12  1  0
  3 13  1  0
  4 14  1  0
  5 15  1  0
  5 16  1  0
  6 17  1  0
  8 18  1  0
  9 19  1  0
  9 20  1  0
  9 21  1  0
M  END
