
     RDKit          3D

 23 23  0  0  0  0  0  0  0  0999 V2000
    2.1399    1.6220    0.9356 C   0  0  0  0  0  0  0  0  0  0  0  0
    1.0415    0.7551    1.1401 O   0  0  0  0  0  0  0  0  0  0  0  0
    0.7884    0.0143    0.0178 C   0  0  0  0  0  0  0  0  0  0  0  0
    0.8837   -1.5002    0.2479 C   0  0  0  0  0  0  0  0  0  0  0  0
   -0.6284   -1.5177    0.2746 C   0  0  0  0  0  0  0  0  0  0  0  0
   -0.6112   -0.1582   -0.4154 C   0  0  0  0  0  0  0  0  0  0  0  0
   -0.7347   -0.2199   -1.9167 C   0  0  0  0  0  0  0  0  0  0  0  0
   -1.6563    0.7364    0.1797 C   0  0  0  0  0  0  0  0  0  0  0  0
   -1.7540    0.6249    1.5630 O   0  0  0  0  0  0  0  0  0  0  0  0
    1.8382    2.2735    0.0876 H   0  0  0  0  0  0  0  0  0  0  0  0
    3.0163    1.0033    0.6391 H   0  0  0  0  0  0  0  0  0  0  0  0
    2.3525    2.1955    1.8500 H   0  0  0  0  0  0  0  0  0  0  0  0
    1.5127    0.2686   -0.8032 H   0  0  0  0  0  0  0  0  0  0  0  0
    1.3621   -1.6928    1.2381 H   0  0  0  0  0  0  0  0  0  0  0  0
    1.3570   -2.0590   -0.5624 H   0  0  0  0  0  0  0  0  0  0  0  0
   -0.9747   -1.4844    1.3228 H   0  0  0  0  0  0  0  0  0  0  0  0
   -1.0931   -2.3072   -0.3576 H   0  0  0  0  0  0  0  0  0  0  0  0
    0.2744   -0.2470   -2.3962 H   0  0  0  0  0  0  0  0  0  0  0  0
   -1.3226   -1.1388   -2.1525 H   0  0  0  0  0  0  0  0  0  0  0  0
   -1.2561    0.6450   -2.3452 H   0  0  0  0  0  0  0  0  0  0  0  0
   -2.6416    0.4645   -0.2533 H   0  0  0  0  0  0  0  0  0  0  0  0
   -1.4959    1.8107   -0.0496 H   0  0  0  0  0  0  0  0  0  0  0  0
   -2.3980   -0.0886    1.7559 H   0  0  0  0  0  0  0  0  0  0  0  0
  1  2  1  0
  2  3  1  0
  3  4  1  0
  4  5  1  0
  5  6  1  0
  6  7  1  0
  6  8  1  0
  8  9  1  0
  6  3  1  0
  1 10  1  0
  1 11  1  0
  1 12  1  0
  3 13  1  0
  4 14  1  0
  4 15  1  0
  5 16  1  0
  5 17  1  0
  7 18  1  0
  7 19  1  0
  7 20  1  0
  8 21  1  0
  8 22  1  0
  9 23  1  0
M  END
