
     RDKit          3D

 17 17  0  0  0  0  0  0  0  0999 V2000
    2.7079   -0.1688   -0.0361 C   0  0  0  0  0  0  0  0  0  0  0  0
    1.4511   -0.0485   -0.6272 O   0  0  0  0  0  0  0  0  0  0  0  0
    0.4360    0.0414    0.2951 C   0  0  0  0  0  0  0  0  0  0  0  0
   -0.3613   -1.1072    0.1638 O   0  0  0  0  0  0  0  0  0  0  0  0
   -1.3991   -0.8553   -0.7114 C   0  0  0  0  0  0  0  0  0  0  0  0
   -2.3835    0.0350    0.0606 C   0  0  0  0  0  0  0  0  0  0  0  0
   -1.7407    1.3210    0.0760 O   0  0  0  0  0  0  0  0  0  0  0  0
   -0.3539    1.2804    0.1411 C   0  0  0  0  0  0  0  0  0  0  0  0
    0.2758    2.3646    0.0645 O   0  0  0  0  0  0  0  0  0  0  0  0
    2.8009   -1.0640    0.6023 H   0  0  0  0  0  0  0  0  0  0  0  0
    3.4515   -0.2752   -0.8542 H   0  0  0  0  0  0  0  0  0  0  0  0
    2.9515    0.7097    0.5926 H   0  0  0  0  0  0  0  0  0  0  0  0
    0.8217   -0.0001    1.3542 H   0  0  0  0  0  0  0  0  0  0  0  0
   -1.0224   -0.2473   -1.5814 H   0  0  0  0  0  0  0  0  0  0  0  0
   -1.8737   -1.7398   -1.1238 H   0  0  0  0  0  0  0  0  0  0  0  0
   -2.3966   -0.3186    1.1161 H   0  0  0  0  0  0  0  0  0  0  0  0
   -3.3651    0.0726   -0.4127 H   0  0  0  0  0  0  0  0  0  0  0  0
  1  2  1  0
  2  3  1  0
  3  4  1  0
  4  5  1  0
  5  6  1  0
  6  7  1  0
  7  8  1  0
  8  9  2  0
  8  3  1  0
  1 10  1  0
  1 11  1  0
  1 12  1  0
  3 13  1  0
  5 14  1  0
  5 15  1  0
  6 16  1  0
  6 17  1  0
M  END
