
     RDKit          3D

 21 21  0  0  0  0  0  0  0  0999 V2000
    2.1931   -0.9431    0.2819 C   0  0  0  0  0  0  0  0  0  0  0  0
    1.1440   -1.0472   -0.5858 O   0  0  0  0  0  0  0  0  0  0  0  0
    0.1191   -0.2010   -0.3650 C   0  0  0  0  0  0  0  0  0  0  0  0
    0.3608    1.2581   -0.4224 C   0  0  0  0  0  0  0  0  0  0  0  0
    1.2530    1.7701    0.4766 O   0  0  0  0  0  0  0  0  0  0  0  0
   -0.6987   -0.5687    0.8846 C   0  0  0  0  0  0  0  0  0  0  0  0
   -2.0186    0.0579    0.4871 C   0  0  0  0  0  0  0  0  0  0  0  0
   -2.0411    0.1762   -0.8744 O   0  0  0  0  0  0  0  0  0  0  0  0
   -0.9762   -0.5061   -1.4109 C   0  0  0  0  0  0  0  0  0  0  0  0
    1.8814   -1.1118    1.3477 H   0  0  0  0  0  0  0  0  0  0  0  0
    2.6883    0.0402    0.2337 H   0  0  0  0  0  0  0  0  0  0  0  0
    2.9593   -1.7542    0.1145 H   0  0  0  0  0  0  0  0  0  0  0  0
    0.6868    1.5133   -1.4535 H   0  0  0  0  0  0  0  0  0  0  0  0
   -0.6329    1.7698   -0.3129 H   0  0  0  0  0  0  0  0  0  0  0  0
    0.8884    2.5930    0.8738 H   0  0  0  0  0  0  0  0  0  0  0  0
   -0.7890   -1.6654    0.8986 H   0  0  0  0  0  0  0  0  0  0  0  0
   -0.2686   -0.1270    1.7869 H   0  0  0  0  0  0  0  0  0  0  0  0
   -2.8153   -0.6111    0.8670 H   0  0  0  0  0  0  0  0  0  0  0  0
   -2.0576    1.0620    0.9663 H   0  0  0  0  0  0  0  0  0  0  0  0
   -1.1691   -1.6007   -1.4067 H   0  0  0  0  0  0  0  0  0  0  0  0
   -0.7070   -0.1045   -2.3870 H   0  0  0  0  0  0  0  0  0  0  0  0
  1  2  1  0
  2  3  1  0
  3  4  1  0
  4  5  1  0
  3  6  1  0
  6  7  1  0
  7  8  1  0
  8  9  1  0
  9  3  1  0
  1 10  1  0
  1 11  1  0
  1 12  1  0
  4 13  1  0
  4 14  1  0
  5 15  1  0
  6 16  1  0
  6 17  1  0
  7 18  1  0
  7 19  1  0
  9 20  1  0
  9 21  1  0
M  END
