
     RDKit          3D

 21 22  0  0  0  0  0  0  0  0999 V2000
    2.9970   -0.0266    0.2345 C   0  0  0  0  0  0  0  0  0  0  0  0
    1.6505    0.0693    0.6244 O   0  0  0  0  0  0  0  0  0  0  0  0
    0.8288    0.3838   -0.4238 C   0  0  0  0  0  0  0  0  0  0  0  0
   -0.2589    1.3763   -0.1813 C   0  0  0  0  0  0  0  0  0  0  0  0
   -0.9441    0.7441   -1.2283 O   0  0  0  0  0  0  0  0  0  0  0  0
   -0.4840   -0.3409   -0.5014 C   0  0  0  0  0  0  0  0  0  0  0  0
   -0.6797   -1.6757   -0.7677 C   0  0  0  0  0  0  0  0  0  0  0  0
   -0.9126    0.4091    0.7268 C   0  0  0  0  0  0  0  0  0  0  0  0
   -2.4065    0.6233    0.8166 C   0  0  0  0  0  0  0  0  0  0  0  0
    3.0799   -0.8290   -0.5410 H   0  0  0  0  0  0  0  0  0  0  0  0
    3.5536   -0.4216    1.1263 H   0  0  0  0  0  0  0  0  0  0  0  0
    3.4108    0.9205   -0.1155 H   0  0  0  0  0  0  0  0  0  0  0  0
    1.3195    0.5193   -1.4217 H   0  0  0  0  0  0  0  0  0  0  0  0
   -0.1629    2.3760   -0.0775 H   0  0  0  0  0  0  0  0  0  0  0  0
   -0.9440   -1.9209   -1.8300 H   0  0  0  0  0  0  0  0  0  0  0  0
   -1.5091   -2.1551   -0.1672 H   0  0  0  0  0  0  0  0  0  0  0  0
    0.2148   -2.3303   -0.5452 H   0  0  0  0  0  0  0  0  0  0  0  0
   -0.4164    0.1536    1.6686 H   0  0  0  0  0  0  0  0  0  0  0  0
   -2.7612    1.3426    0.0313 H   0  0  0  0  0  0  0  0  0  0  0  0
   -2.6102    1.1144    1.7926 H   0  0  0  0  0  0  0  0  0  0  0  0
   -2.9654   -0.3323    0.7796 H   0  0  0  0  0  0  0  0  0  0  0  0
  1  2  1  0
  2  3  1  0
  3  4  1  0
  4  5  1  0
  5  6  1  0
  6  7  1  0
  6  8  1  0
  8  9  1  0
  6  3  1  0
  8  4  1  0
  1 10  1  0
  1 11  1  0
  1 12  1  0
  3 13  1  0
  4 14  1  0
  7 15  1  0
  7 16  1  0
  7 17  1  0
  8 18  1  0
  9 19  1  0
  9 20  1  0
  9 21  1  0
M  END
