
     RDKit          3D

 20 21  0  0  0  0  0  0  0  0999 V2000
    2.9119    0.4168    0.0448 C   0  0  0  0  0  0  0  0  0  0  0  0
    1.6368    0.8795    0.3565 O   0  0  0  0  0  0  0  0  0  0  0  0
    0.7195   -0.0214   -0.0989 C   0  0  0  0  0  0  0  0  0  0  0  0
   -0.3342   -0.3875    0.9576 C   0  0  0  0  0  0  0  0  0  0  0  0
   -1.1987   -1.5644    0.6727 C   0  0  0  0  0  0  0  0  0  0  0  0
   -1.5672   -0.9293   -0.6520 C   0  0  0  0  0  0  0  0  0  0  0  0
   -0.7032    0.2658   -0.3138 C   0  0  0  0  0  0  0  0  0  0  0  0
   -1.2763    1.6347   -0.3936 C   0  0  0  0  0  0  0  0  0  0  0  0
    3.7167    1.0789    0.3736 H   0  0  0  0  0  0  0  0  0  0  0  0
    2.9245    0.2221   -1.0483 H   0  0  0  0  0  0  0  0  0  0  0  0
    3.1164   -0.5813    0.5296 H   0  0  0  0  0  0  0  0  0  0  0  0
    1.1118   -0.9262   -0.6146 H   0  0  0  0  0  0  0  0  0  0  0  0
   -0.4081    0.2056    1.8641 H   0  0  0  0  0  0  0  0  0  0  0  0
   -0.6011   -2.5028    0.5506 H   0  0  0  0  0  0  0  0  0  0  0  0
   -2.0119   -1.6609    1.4033 H   0  0  0  0  0  0  0  0  0  0  0  0
   -2.6400   -0.7099   -0.7869 H   0  0  0  0  0  0  0  0  0  0  0  0
   -1.1581   -1.4378   -1.5475 H   0  0  0  0  0  0  0  0  0  0  0  0
   -1.8346    1.7539   -1.3564 H   0  0  0  0  0  0  0  0  0  0  0  0
   -1.9593    1.8959    0.4367 H   0  0  0  0  0  0  0  0  0  0  0  0
   -0.4448    2.3682   -0.3775 H   0  0  0  0  0  0  0  0  0  0  0  0
  1  2  1  0
  2  3  1  0
  3  4  1  0
  4  5  1  0
  5  6  1  0
  6  7  1  0
  7  8  1  0
  7  3  1  0
  7  4  1  0
  1  9  1  0
  1 10  1  0
  1 11  1  0
  3 12  1  0
  4 13  1  0
  5 14  1  0
  5 15  1  0
  6 16  1  0
  6 17  1  0
  8 18  1  0
  8 19  1  0
  8 20  1  0
M  END
