
     RDKit          3D

 17 19  0  0  0  0  0  0  0  0999 V2000
    2.3369    0.1943    0.2685 C   0  0  0  0  0  0  0  0  0  0  0  0
    1.4677   -0.7376    0.7972 O   0  0  0  0  0  0  0  0  0  0  0  0
    0.1893   -0.4197    0.4509 C   0  0  0  0  0  0  0  0  0  0  0  0
   -0.3819    0.9073    0.8806 C   0  0  0  0  0  0  0  0  0  0  0  0
   -1.4659    1.1654    0.1683 C   0  0  0  0  0  0  0  0  0  0  0  0
   -1.7255    0.0595   -0.7912 C   0  0  0  0  0  0  0  0  0  0  0  0
   -2.1241   -1.0762   -0.0898 O   0  0  0  0  0  0  0  0  0  0  0  0
   -0.8319   -1.4638    0.1821 C   0  0  0  0  0  0  0  0  0  0  0  0
   -0.3683   -0.5688   -0.8949 C   0  0  0  0  0  0  0  0  0  0  0  0
    2.2776    0.2331   -0.8431 H   0  0  0  0  0  0  0  0  0  0  0  0
    1.9648    1.2024    0.6115 H   0  0  0  0  0  0  0  0  0  0  0  0
    3.3570    0.0587    0.6476 H   0  0  0  0  0  0  0  0  0  0  0  0
    0.0851    1.4929    1.6586 H   0  0  0  0  0  0  0  0  0  0  0  0
   -2.0854    2.0406    0.2529 H   0  0  0  0  0  0  0  0  0  0  0  0
   -2.2553    0.2992   -1.7011 H   0  0  0  0  0  0  0  0  0  0  0  0
   -0.5598   -2.5371    0.1980 H   0  0  0  0  0  0  0  0  0  0  0  0
    0.1195   -0.8502   -1.7959 H   0  0  0  0  0  0  0  0  0  0  0  0
  1  2  1  0
  2  3  1  0
  3  4  1  0
  4  5  2  0
  5  6  1  0
  6  7  1  0
  7  8  1  0
  8  9  1  0
  8  3  1  0
  9  3  1  0
  9  6  1  0
  1 10  1  0
  1 11  1  0
  1 12  1  0
  4 13  1  0
  5 14  1  0
  6 15  1  0
  8 16  1  0
  9 17  1  0
M  END
