
     RDKit          3D

 19 19  0  0  0  0  0  0  0  0999 V2000
   -2.6256    0.5614    0.1282 C   0  0  0  0  0  0  0  0  0  0  0  0
   -1.2972    0.9582    0.0999 O   0  0  0  0  0  0  0  0  0  0  0  0
   -0.4155   -0.1004   -0.0165 C   0  0  0  0  0  0  0  0  0  0  0  0
    0.4141   -0.0046   -1.2879 C   0  0  0  0  0  0  0  0  0  0  0  0
    1.6119   -0.8681   -0.9045 C   0  0  0  0  0  0  0  0  0  0  0  0
    1.9198   -0.3599    0.4512 C   0  0  0  0  0  0  0  0  0  0  0  0
    3.0263   -0.2024    0.9046 O   0  0  0  0  0  0  0  0  0  0  0  0
    0.6218   -0.0951    1.1096 C   0  0  0  0  0  0  0  0  0  0  0  0
    0.5491    1.1120    1.7501 O   0  0  0  0  0  0  0  0  0  0  0  0
   -2.9275    0.0154   -0.7890 H   0  0  0  0  0  0  0  0  0  0  0  0
   -2.7866   -0.0924    1.0348 H   0  0  0  0  0  0  0  0  0  0  0  0
   -3.2521    1.4652    0.1954 H   0  0  0  0  0  0  0  0  0  0  0  0
   -0.9503   -1.0707   -0.0650 H   0  0  0  0  0  0  0  0  0  0  0  0
    0.8110    1.0137   -1.4473 H   0  0  0  0  0  0  0  0  0  0  0  0
   -0.1188   -0.4090   -2.1587 H   0  0  0  0  0  0  0  0  0  0  0  0
    2.4453   -0.7693   -1.6154 H   0  0  0  0  0  0  0  0  0  0  0  0
    1.2421   -1.9324   -0.8419 H   0  0  0  0  0  0  0  0  0  0  0  0
    0.3777   -0.8990    1.8450 H   0  0  0  0  0  0  0  0  0  0  0  0
    1.3547    1.6773    1.6074 H   0  0  0  0  0  0  0  0  0  0  0  0
  1  2  1  0
  2  3  1  0
  3  4  1  0
  4  5  1  0
  5  6  1  0
  6  7  2  0
  6  8  1  0
  8  9  1  0
  8  3  1  0
  1 10  1  0
  1 11  1  0
  1 12  1  0
  3 13  1  0
  4 14  1  0
  4 15  1  0
  5 16  1  0
  5 17  1  0
  8 18  1  0
  9 19  1  0
M  END
