
     RDKit          3D

 21 21  0  0  0  0  0  0  0  0999 V2000
    2.3334    0.5269    1.1547 C   0  0  0  0  0  0  0  0  0  0  0  0
    1.7137   -0.2042    0.1703 O   0  0  0  0  0  0  0  0  0  0  0  0
    0.4873    0.1988   -0.2075 C   0  0  0  0  0  0  0  0  0  0  0  0
    0.2160    0.4096   -1.6797 C   0  0  0  0  0  0  0  0  0  0  0  0
    0.3653    1.7095   -2.0960 O   0  0  0  0  0  0  0  0  0  0  0  0
   -1.2438    0.0809   -1.3193 C   0  0  0  0  0  0  0  0  0  0  0  0
   -0.6282   -0.8145   -0.2325 C   0  0  0  0  0  0  0  0  0  0  0  0
   -1.4494   -0.8034    1.0068 C   0  0  0  0  0  0  0  0  0  0  0  0
   -0.3259   -2.0404   -0.7856 O   0  0  0  0  0  0  0  0  0  0  0  0
    3.3268    0.0517    1.3344 H   0  0  0  0  0  0  0  0  0  0  0  0
    2.5550    1.5770    0.8710 H   0  0  0  0  0  0  0  0  0  0  0  0
    1.8004    0.4659    2.1339 H   0  0  0  0  0  0  0  0  0  0  0  0
    0.1584    1.0958    0.3611 H   0  0  0  0  0  0  0  0  0  0  0  0
    0.5815   -0.3846   -2.3483 H   0  0  0  0  0  0  0  0  0  0  0  0
   -0.4017    2.2810   -1.8694 H   0  0  0  0  0  0  0  0  0  0  0  0
   -1.7813   -0.4911   -2.0708 H   0  0  0  0  0  0  0  0  0  0  0  0
   -1.7326    0.9709   -0.8943 H   0  0  0  0  0  0  0  0  0  0  0  0
   -2.5249   -0.8283    0.7264 H   0  0  0  0  0  0  0  0  0  0  0  0
   -1.2416    0.1297    1.5653 H   0  0  0  0  0  0  0  0  0  0  0  0
   -1.2122   -1.6517    1.6760 H   0  0  0  0  0  0  0  0  0  0  0  0
   -0.9964   -2.2795   -1.4967 H   0  0  0  0  0  0  0  0  0  0  0  0
  1  2  1  0
  2  3  1  0
  3  4  1  0
  4  5  1  0
  4  6  1  0
  6  7  1  0
  7  8  1  0
  7  9  1  0
  7  3  1  0
  1 10  1  0
  1 11  1  0
  1 12  1  0
  3 13  1  0
  4 14  1  0
  5 15  1  0
  6 16  1  0
  6 17  1  0
  8 18  1  0
  8 19  1  0
  8 20  1  0
  9 21  1  0
M  END
