
     RDKit          3D

 23 24  0  0  0  0  0  0  0  0999 V2000
    3.4241   -0.6191   -0.4005 C   0  0  0  0  0  0  0  0  0  0  0  0
    2.0800   -0.8669   -0.5000 O   0  0  0  0  0  0  0  0  0  0  0  0
    1.2737    0.1120    0.1044 C   0  0  0  0  0  0  0  0  0  0  0  0
    0.0952    0.5212   -0.5699 C   0  0  0  0  0  0  0  0  0  0  0  0
   -0.8860    1.5876   -0.3334 C   0  0  0  0  0  0  0  0  0  0  0  0
   -2.1169    0.8737    0.2554 C   0  0  0  0  0  0  0  0  0  0  0  0
   -2.1100   -0.6074   -0.0893 C   0  0  0  0  0  0  0  0  0  0  0  0
   -0.9088   -1.3133    0.5672 C   0  0  0  0  0  0  0  0  0  0  0  0
    0.0871   -0.2453    0.7936 C   0  0  0  0  0  0  0  0  0  0  0  0
    3.9680   -1.4244   -0.8936 H   0  0  0  0  0  0  0  0  0  0  0  0
    3.7215    0.3902   -0.7452 H   0  0  0  0  0  0  0  0  0  0  0  0
    3.6868   -0.6450    0.6927 H   0  0  0  0  0  0  0  0  0  0  0  0
    1.9193    0.9168    0.5562 H   0  0  0  0  0  0  0  0  0  0  0  0
   -0.1911   -0.0790   -1.4857 H   0  0  0  0  0  0  0  0  0  0  0  0
   -0.4977    2.2476    0.4986 H   0  0  0  0  0  0  0  0  0  0  0  0
   -1.1545    2.2132   -1.1895 H   0  0  0  0  0  0  0  0  0  0  0  0
   -3.0205    1.2900   -0.2254 H   0  0  0  0  0  0  0  0  0  0  0  0
   -2.1510    0.9613    1.3469 H   0  0  0  0  0  0  0  0  0  0  0  0
   -3.0658   -1.0093    0.2920 H   0  0  0  0  0  0  0  0  0  0  0  0
   -2.1070   -0.7765   -1.1857 H   0  0  0  0  0  0  0  0  0  0  0  0
   -1.2968   -1.7261    1.5228 H   0  0  0  0  0  0  0  0  0  0  0  0
   -0.5736   -2.1566   -0.0521 H   0  0  0  0  0  0  0  0  0  0  0  0
   -0.1759    0.3551    1.7119 H   0  0  0  0  0  0  0  0  0  0  0  0
  1  2  1  0
  2  3  1  0
  3  4  1  0
  4  5  1  0
  5  6  1  0
  6  7  1  0
  7  8  1  0
  8  9  1  0
  9  3  1  0
  9  4  1  0
  1 10  1  0
  1 11  1  0
  1 12  1  0
  3 13  1  0
  4 14  1  0
  5 15  1  0
  5 16  1  0
  6 17  1  0
  6 18  1  0
  7 19  1  0
  7 20  1  0
  8 21  1  0
  8 22  1  0
  9 23  1  0
M  END
