
     RDKit          3D

 19 20  0  0  0  0  0  0  0  0999 V2000
    2.4949   -0.2456   -0.2798 C   0  0  0  0  0  0  0  0  0  0  0  0
    1.4721    0.4130   -0.8885 O   0  0  0  0  0  0  0  0  0  0  0  0
    0.2385    0.1876   -0.4661 C   0  0  0  0  0  0  0  0  0  0  0  0
   -0.3046   -1.1928   -0.5372 C   0  0  0  0  0  0  0  0  0  0  0  0
   -1.3578   -1.2401    0.2704 C   0  0  0  0  0  0  0  0  0  0  0  0
   -1.5210    0.0990    0.8726 C   0  0  0  0  0  0  0  0  0  0  0  0
   -1.8693    1.0131   -0.2301 C   0  0  0  0  0  0  0  0  0  0  0  0
   -0.8156    1.0913   -1.0371 C   0  0  0  0  0  0  0  0  0  0  0  0
   -0.0273    0.4705    1.0258 C   0  0  0  0  0  0  0  0  0  0  0  0
    3.4521    0.0809   -0.7794 H   0  0  0  0  0  0  0  0  0  0  0  0
    2.5790    0.1037    0.7622 H   0  0  0  0  0  0  0  0  0  0  0  0
    2.4675   -1.3475   -0.3711 H   0  0  0  0  0  0  0  0  0  0  0  0
    0.0839   -2.0093   -1.1350 H   0  0  0  0  0  0  0  0  0  0  0  0
   -1.9707   -2.1001    0.4455 H   0  0  0  0  0  0  0  0  0  0  0  0
   -2.0760    0.1702    1.7701 H   0  0  0  0  0  0  0  0  0  0  0  0
   -2.7885    1.5420   -0.3960 H   0  0  0  0  0  0  0  0  0  0  0  0
   -0.6553    1.6582   -1.9388 H   0  0  0  0  0  0  0  0  0  0  0  0
    0.1012    1.5311    1.2382 H   0  0  0  0  0  0  0  0  0  0  0  0
    0.4969   -0.2253    1.6744 H   0  0  0  0  0  0  0  0  0  0  0  0
  1  2  1  0
  2  3  1  0
  3  4  1  0
  4  5  2  0
  5  6  1  0
  6  7  1  0
  7  8  2  0
  6  9  1  0
  8  3  1  0
  9  3  1  0
  1 10  1  0
  1 11  1  0
  1 12  1  0
  4 13  1  0
  5 14  1  0
  6 15  1  0
  7 16  1  0
  8 17  1  0
  9 18  1  0
  9 19  1  0
M  END
