
     RDKit          3D

 21 22  0  0  0  0  0  0  0  0999 V2000
    2.4551   -0.4588    0.7363 C   0  0  0  0  0  0  0  0  0  0  0  0
    1.6980   -0.3536   -0.4153 O   0  0  0  0  0  0  0  0  0  0  0  0
    0.3942   -0.0561   -0.2196 C   0  0  0  0  0  0  0  0  0  0  0  0
   -0.4437   -0.9941    0.5926 C   0  0  0  0  0  0  0  0  0  0  0  0
   -1.8987   -0.7773    0.1533 C   0  0  0  0  0  0  0  0  0  0  0  0
   -2.1669    0.5344   -0.1115 O   0  0  0  0  0  0  0  0  0  0  0  0
   -1.1558    1.2395   -0.7106 C   0  0  0  0  0  0  0  0  0  0  0  0
    0.0583    1.3545    0.2237 C   0  0  0  0  0  0  0  0  0  0  0  0
   -0.2968    0.2721   -1.5364 C   0  0  0  0  0  0  0  0  0  0  0  0
    2.0729   -1.2486    1.4026 H   0  0  0  0  0  0  0  0  0  0  0  0
    2.5315    0.5142    1.2791 H   0  0  0  0  0  0  0  0  0  0  0  0
    3.4958   -0.7261    0.4226 H   0  0  0  0  0  0  0  0  0  0  0  0
   -0.1603   -2.0469    0.5010 H   0  0  0  0  0  0  0  0  0  0  0  0
   -0.4134   -0.6287    1.6518 H   0  0  0  0  0  0  0  0  0  0  0  0
   -2.1311   -1.4719   -0.6920 H   0  0  0  0  0  0  0  0  0  0  0  0
   -2.5530   -1.1126    0.9950 H   0  0  0  0  0  0  0  0  0  0  0  0
   -1.4427    2.1537   -1.2127 H   0  0  0  0  0  0  0  0  0  0  0  0
    0.7761    2.1225   -0.0549 H   0  0  0  0  0  0  0  0  0  0  0  0
   -0.3015    1.4451    1.2534 H   0  0  0  0  0  0  0  0  0  0  0  0
    0.3410    0.7839   -2.2660 H   0  0  0  0  0  0  0  0  0  0  0  0
   -0.8590   -0.5452   -1.9924 H   0  0  0  0  0  0  0  0  0  0  0  0
  1  2  1  0
  2  3  1  0
  3  4  1  0
  4  5  1  0
  5  6  1  0
  6  7  1  0
  7  8  1  0
  7  9  1  0
  8  3  1  0
  9  3  1  0
  1 10  1  0
  1 11  1  0
  1 12  1  0
  4 13  1  0
  4 14  1  0
  5 15  1  0
  5 16  1  0
  7 17  1  0
  8 18  1  0
  8 19  1  0
  9 20  1  0
  9 21  1  0
M  END
