
     RDKit          3D

 21 22  0  0  0  0  0  0  0  0999 V2000
    2.3635    0.1023   -0.1327 C   0  0  0  0  0  0  0  0  0  0  0  0
    1.1969   -0.3483   -0.6924 O   0  0  0  0  0  0  0  0  0  0  0  0
    0.1085   -0.3780    0.1344 C   0  0  0  0  0  0  0  0  0  0  0  0
    0.2731   -1.2462    1.3256 C   0  0  0  0  0  0  0  0  0  0  0  0
   -1.1418   -0.6397   -0.7110 C   0  0  0  0  0  0  0  0  0  0  0  0
   -0.9435    0.4286   -1.7541 C   0  0  0  0  0  0  0  0  0  0  0  0
   -0.6077    1.4964   -1.0062 C   0  0  0  0  0  0  0  0  0  0  0  0
   -0.5890    0.9383    0.3731 C   0  0  0  0  0  0  0  0  0  0  0  0
   -1.8923    0.1292    0.3310 C   0  0  0  0  0  0  0  0  0  0  0  0
    2.7385   -0.4656    0.7189 H   0  0  0  0  0  0  0  0  0  0  0  0
    2.3351    1.1674    0.1622 H   0  0  0  0  0  0  0  0  0  0  0  0
    3.1519    0.0374   -0.9301 H   0  0  0  0  0  0  0  0  0  0  0  0
    1.1313   -0.8287    1.9169 H   0  0  0  0  0  0  0  0  0  0  0  0
    0.5314   -2.2903    1.0495 H   0  0  0  0  0  0  0  0  0  0  0  0
   -0.5693   -1.2943    2.0082 H   0  0  0  0  0  0  0  0  0  0  0  0
   -1.3865   -1.6123   -0.9908 H   0  0  0  0  0  0  0  0  0  0  0  0
   -1.0415    0.3698   -2.8293 H   0  0  0  0  0  0  0  0  0  0  0  0
   -0.3959    2.5104   -1.2720 H   0  0  0  0  0  0  0  0  0  0  0  0
   -0.3785    1.5312    1.2050 H   0  0  0  0  0  0  0  0  0  0  0  0
   -2.6869    0.7453   -0.1470 H   0  0  0  0  0  0  0  0  0  0  0  0
   -2.1972   -0.3528    1.2408 H   0  0  0  0  0  0  0  0  0  0  0  0
  1  2  1  0
  2  3  1  0
  3  4  1  0
  3  5  1  0
  5  6  1  0
  6  7  2  0
  7  8  1  0
  8  9  1  0
  8  3  1  0
  9  5  1  0
  1 10  1  0
  1 11  1  0
  1 12  1  0
  4 13  1  0
  4 14  1  0
  4 15  1  0
  5 16  1  0
  6 17  1  0
  7 18  1  0
  8 19  1  0
  9 20  1  0
  9 21  1  0
M  END
