
     RDKit          3D

 19 20  0  0  0  0  0  0  0  0999 V2000
    2.7956    0.4347   -0.0866 C   0  0  0  0  0  0  0  0  0  0  0  0
    1.5438    0.6688   -0.6296 O   0  0  0  0  0  0  0  0  0  0  0  0
    0.6420   -0.2468   -0.1478 C   0  0  0  0  0  0  0  0  0  0  0  0
   -0.3354   -0.7809   -1.1325 C   0  0  0  0  0  0  0  0  0  0  0  0
   -1.2266   -1.8519   -0.6058 C   0  0  0  0  0  0  0  0  0  0  0  0
   -1.4173   -3.0474   -0.7332 O   0  0  0  0  0  0  0  0  0  0  0  0
   -1.8800   -0.7864    0.2400 C   0  0  0  0  0  0  0  0  0  0  0  0
   -0.7775    0.1691   -0.1117 C   0  0  0  0  0  0  0  0  0  0  0  0
   -1.1042    1.6001   -0.4082 C   0  0  0  0  0  0  0  0  0  0  0  0
    3.1729   -0.5926   -0.3420 H   0  0  0  0  0  0  0  0  0  0  0  0
    2.6868    0.4638    1.0134 H   0  0  0  0  0  0  0  0  0  0  0  0
    3.5488    1.1794   -0.4012 H   0  0  0  0  0  0  0  0  0  0  0  0
    1.0383   -1.0051    0.5750 H   0  0  0  0  0  0  0  0  0  0  0  0
   -0.2807   -0.5759   -2.2002 H   0  0  0  0  0  0  0  0  0  0  0  0
   -2.8694   -0.5538   -0.2362 H   0  0  0  0  0  0  0  0  0  0  0  0
   -1.9063   -0.9974    1.3089 H   0  0  0  0  0  0  0  0  0  0  0  0
   -0.5053    2.2664    0.2642 H   0  0  0  0  0  0  0  0  0  0  0  0
   -0.9455    1.9014   -1.4443 H   0  0  0  0  0  0  0  0  0  0  0  0
   -2.1800    1.7545   -0.1309 H   0  0  0  0  0  0  0  0  0  0  0  0
  1  2  1  0
  2  3  1  0
  3  4  1  0
  4  5  1  0
  5  6  2  0
  5  7  1  0
  7  8  1  0
  8  9  1  0
  8  3  1  0
  8  4  1  0
  1 10  1  0
  1 11  1  0
  1 12  1  0
  3 13  1  0
  4 14  1  0
  7 15  1  0
  7 16  1  0
  9 17  1  0
  9 18  1  0
  9 19  1  0
M  END
