
     RDKit          3D

 19 19  0  0  0  0  0  0  0  0999 V2000
    2.6089    0.5874   -0.1411 C   0  0  0  0  0  0  0  0  0  0  0  0
    1.4883    0.0582   -0.6804 O   0  0  0  0  0  0  0  0  0  0  0  0
    0.4758   -0.3344    0.0856 C   0  0  0  0  0  0  0  0  0  0  0  0
   -0.2182   -1.6243   -0.1146 C   0  0  0  0  0  0  0  0  0  0  0  0
   -1.1721   -0.9186   -1.0470 C   0  0  0  0  0  0  0  0  0  0  0  0
   -1.8715   -1.2732   -1.9723 O   0  0  0  0  0  0  0  0  0  0  0  0
   -0.8356    0.3376   -0.3007 C   0  0  0  0  0  0  0  0  0  0  0  0
   -1.7072    0.5817    0.9140 C   0  0  0  0  0  0  0  0  0  0  0  0
   -0.7310    1.3989   -1.1594 O   0  0  0  0  0  0  0  0  0  0  0  0
    3.3162    0.8423   -0.9590 H   0  0  0  0  0  0  0  0  0  0  0  0
    3.1494   -0.0048    0.5895 H   0  0  0  0  0  0  0  0  0  0  0  0
    2.3768    1.5757    0.3545 H   0  0  0  0  0  0  0  0  0  0  0  0
    0.6903   -0.1655    1.1797 H   0  0  0  0  0  0  0  0  0  0  0  0
    0.3136   -2.4658   -0.5416 H   0  0  0  0  0  0  0  0  0  0  0  0
   -0.7950   -1.9424    0.7796 H   0  0  0  0  0  0  0  0  0  0  0  0
   -1.1098    1.2659    1.5817 H   0  0  0  0  0  0  0  0  0  0  0  0
   -1.8732   -0.3523    1.4648 H   0  0  0  0  0  0  0  0  0  0  0  0
   -2.6395    1.0803    0.6383 H   0  0  0  0  0  0  0  0  0  0  0  0
   -1.4663    1.3532   -1.8064 H   0  0  0  0  0  0  0  0  0  0  0  0
  1  2  1  0
  2  3  1  0
  3  4  1  0
  4  5  1  0
  5  6  2  0
  5  7  1  0
  7  8  1  0
  7  9  1  0
  7  3  1  0
  1 10  1  0
  1 11  1  0
  1 12  1  0
  3 13  1  0
  4 14  1  0
  4 15  1  0
  8 16  1  0
  8 17  1  0
  8 18  1  0
  9 19  1  0
M  END
