
     RDKit          3D

 21 21  0  0  0  0  0  0  0  0999 V2000
    2.5405    0.7724    0.1060 C   0  0  0  0  0  0  0  0  0  0  0  0
    1.3370    0.6818   -0.5769 O   0  0  0  0  0  0  0  0  0  0  0  0
    0.6529   -0.4356   -0.1176 C   0  0  0  0  0  0  0  0  0  0  0  0
    0.1039   -1.3342   -1.2083 C   0  0  0  0  0  0  0  0  0  0  0  0
   -1.1671   -1.4562   -0.3562 C   0  0  0  0  0  0  0  0  0  0  0  0
   -1.1361   -2.5179    0.5336 O   0  0  0  0  0  0  0  0  0  0  0  0
   -0.8068   -0.1231    0.2434 C   0  0  0  0  0  0  0  0  0  0  0  0
   -1.2124    0.9848   -0.4385 O   0  0  0  0  0  0  0  0  0  0  0  0
   -1.6712    2.0205    0.3581 C   0  0  0  0  0  0  0  0  0  0  0  0
    2.3891    0.8727    1.2095 H   0  0  0  0  0  0  0  0  0  0  0  0
    3.1429    1.6433   -0.2012 H   0  0  0  0  0  0  0  0  0  0  0  0
    3.0715   -0.1929   -0.0313 H   0  0  0  0  0  0  0  0  0  0  0  0
    1.2013   -0.9717    0.6525 H   0  0  0  0  0  0  0  0  0  0  0  0
   -0.1288   -0.8421   -2.1623 H   0  0  0  0  0  0  0  0  0  0  0  0
    0.6618   -2.2891   -1.2603 H   0  0  0  0  0  0  0  0  0  0  0  0
   -2.1012   -1.4326   -0.9160 H   0  0  0  0  0  0  0  0  0  0  0  0
   -0.5037   -2.3950    1.2648 H   0  0  0  0  0  0  0  0  0  0  0  0
   -0.9044   -0.0290    1.3240 H   0  0  0  0  0  0  0  0  0  0  0  0
   -0.9176    2.3955    1.0677 H   0  0  0  0  0  0  0  0  0  0  0  0
   -2.6483    1.7805    0.8465 H   0  0  0  0  0  0  0  0  0  0  0  0
   -1.9033    2.8682   -0.3373 H   0  0  0  0  0  0  0  0  0  0  0  0
  1  2  1  0
  2  3  1  0
  3  4  1  0
  4  5  1  0
  5  6  1  0
  5  7  1  0
  7  8  1  0
  8  9  1  0
  7  3  1  0
  1 10  1  0
  1 11  1  0
  1 12  1  0
  3 13  1  0
  4 14  1  0
  4 15  1  0
  5 16  1  0
  6 17  1  0
  7 18  1  0
  9 19  1  0
  9 20  1  0
  9 21  1  0
M  END
