
     RDKit          3D

 19 20  0  0  0  0  0  0  0  0999 V2000
    2.3857    0.0913   -0.4134 C   0  0  0  0  0  0  0  0  0  0  0  0
    1.5329   -0.3535    0.5694 O   0  0  0  0  0  0  0  0  0  0  0  0
    0.2640   -0.1979    0.2676 C   0  0  0  0  0  0  0  0  0  0  0  0
   -0.8056   -0.6490    1.2697 C   0  0  0  0  0  0  0  0  0  0  0  0
   -1.9984   -0.2546    0.4731 C   0  0  0  0  0  0  0  0  0  0  0  0
   -3.1449   -0.3972    0.7578 O   0  0  0  0  0  0  0  0  0  0  0  0
   -1.4167    0.3380   -0.7185 C   0  0  0  0  0  0  0  0  0  0  0  0
   -0.2736    1.1689   -0.1593 C   0  0  0  0  0  0  0  0  0  0  0  0
   -0.3253   -0.7064   -1.0234 C   0  0  0  0  0  0  0  0  0  0  0  0
    2.2327   -0.4412   -1.3715 H   0  0  0  0  0  0  0  0  0  0  0  0
    3.4303   -0.0402   -0.0242 H   0  0  0  0  0  0  0  0  0  0  0  0
    2.2586    1.1981   -0.5105 H   0  0  0  0  0  0  0  0  0  0  0  0
   -0.6922   -0.0655    2.1994 H   0  0  0  0  0  0  0  0  0  0  0  0
   -0.6913   -1.7240    1.3774 H   0  0  0  0  0  0  0  0  0  0  0  0
   -1.9827    0.7056   -1.5241 H   0  0  0  0  0  0  0  0  0  0  0  0
    0.3199    1.6860   -0.9178 H   0  0  0  0  0  0  0  0  0  0  0  0
   -0.6128    1.8018    0.6693 H   0  0  0  0  0  0  0  0  0  0  0  0
    0.1814   -0.4136   -1.9464 H   0  0  0  0  0  0  0  0  0  0  0  0
   -0.6622   -1.7467   -0.9246 H   0  0  0  0  0  0  0  0  0  0  0  0
  1  2  1  0
  2  3  1  0
  3  4  1  0
  4  5  1  0
  5  6  2  0
  5  7  1  0
  7  8  1  0
  7  9  1  0
  8  3  1  0
  9  3  1  0
  1 10  1  0
  1 11  1  0
  1 12  1  0
  4 13  1  0
  4 14  1  0
  7 15  1  0
  8 16  1  0
  8 17  1  0
  9 18  1  0
  9 19  1  0
M  END
