
     RDKit          3D

 17 18  0  0  0  0  0  0  0  0999 V2000
    2.5178   -0.4207   -0.0493 C   0  0  0  0  0  0  0  0  0  0  0  0
    1.2578   -1.0603   -0.0918 O   0  0  0  0  0  0  0  0  0  0  0  0
    0.3108   -0.0735   -0.0177 C   0  0  0  0  0  0  0  0  0  0  0  0
   -0.8973   -0.2122   -0.8916 C   0  0  0  0  0  0  0  0  0  0  0  0
   -1.3081   -1.2802   -0.0095 C   0  0  0  0  0  0  0  0  0  0  0  0
   -1.7822   -2.3648   -0.0446 O   0  0  0  0  0  0  0  0  0  0  0  0
   -0.8182   -0.2878    0.9435 C   0  0  0  0  0  0  0  0  0  0  0  0
   -1.5579    0.7186    0.1034 C   0  0  0  0  0  0  0  0  0  0  0  0
   -1.0348    2.0106    0.1255 O   0  0  0  0  0  0  0  0  0  0  0  0
    2.6210    0.1513    0.9017 H   0  0  0  0  0  0  0  0  0  0  0  0
    2.5613    0.2742   -0.8959 H   0  0  0  0  0  0  0  0  0  0  0  0
    3.3397   -1.1425   -0.0854 H   0  0  0  0  0  0  0  0  0  0  0  0
    0.6810    0.9666    0.0564 H   0  0  0  0  0  0  0  0  0  0  0  0
   -0.9479   -0.1316   -1.8879 H   0  0  0  0  0  0  0  0  0  0  0  0
   -0.7789   -0.3357    1.9399 H   0  0  0  0  0  0  0  0  0  0  0  0
   -2.6537    0.6631    0.1607 H   0  0  0  0  0  0  0  0  0  0  0  0
   -1.5103    2.5250   -0.5687 H   0  0  0  0  0  0  0  0  0  0  0  0
  1  2  1  0
  2  3  1  0
  3  4  1  0
  4  5  1  0
  5  6  2  0
  5  7  1  0
  7  8  1  0
  8  9  1  0
  7  3  1  0
  8  4  1  0
  1 10  1  0
  1 11  1  0
  1 12  1  0
  3 13  1  0
  4 14  1  0
  7 15  1  0
  8 16  1  0
  9 17  1  0
M  END
