
     RDKit          3D

 21 22  0  0  0  0  0  0  0  0999 V2000
    2.4846    0.7296    1.2452 C   0  0  0  0  0  0  0  0  0  0  0  0
    1.8517   -0.3898    0.7007 O   0  0  0  0  0  0  0  0  0  0  0  0
    0.7306   -0.0074   -0.0337 C   0  0  0  0  0  0  0  0  0  0  0  0
    0.8460   -0.6158   -1.4373 C   0  0  0  0  0  0  0  0  0  0  0  0
   -0.6232   -0.9655   -1.3346 C   0  0  0  0  0  0  0  0  0  0  0  0
   -0.4979   -0.8388    0.1710 C   0  0  0  0  0  0  0  0  0  0  0  0
   -1.6934   -0.1804    0.7505 C   0  0  0  0  0  0  0  0  0  0  0  0
   -2.3818    0.9581    0.1475 C   0  0  0  0  0  0  0  0  0  0  0  0
   -1.6057    1.1048    1.2905 O   0  0  0  0  0  0  0  0  0  0  0  0
    3.3676    0.3651    1.8176 H   0  0  0  0  0  0  0  0  0  0  0  0
    1.8171    1.3325    1.8820 H   0  0  0  0  0  0  0  0  0  0  0  0
    2.8554    1.3919    0.4200 H   0  0  0  0  0  0  0  0  0  0  0  0
    0.5993    1.0810   -0.0182 H   0  0  0  0  0  0  0  0  0  0  0  0
    1.0072    0.1051   -2.2394 H   0  0  0  0  0  0  0  0  0  0  0  0
    1.4595   -1.5376   -1.4526 H   0  0  0  0  0  0  0  0  0  0  0  0
   -1.3066   -0.2338   -1.8021 H   0  0  0  0  0  0  0  0  0  0  0  0
   -0.8558   -2.0206   -1.5868 H   0  0  0  0  0  0  0  0  0  0  0  0
   -0.2405   -1.7873    0.6640 H   0  0  0  0  0  0  0  0  0  0  0  0
   -2.3062   -0.8553    1.3990 H   0  0  0  0  0  0  0  0  0  0  0  0
   -3.4882    0.9710    0.2213 H   0  0  0  0  0  0  0  0  0  0  0  0
   -2.0198    1.3933   -0.8046 H   0  0  0  0  0  0  0  0  0  0  0  0
  1  2  1  0
  2  3  1  0
  3  4  1  0
  4  5  1  0
  5  6  1  0
  6  7  1  0
  7  8  1  0
  8  9  1  0
  6  3  1  0
  9  7  1  0
  1 10  1  0
  1 11  1  0
  1 12  1  0
  3 13  1  0
  4 14  1  0
  4 15  1  0
  5 16  1  0
  5 17  1  0
  6 18  1  0
  7 19  1  0
  8 20  1  0
  8 21  1  0
M  END
