
     RDKit          3D

 21 23  0  0  0  0  0  0  0  0999 V2000
    2.8121    0.1489    0.2865 C   0  0  0  0  0  0  0  0  0  0  0  0
    1.4821    0.2570    0.7061 O   0  0  0  0  0  0  0  0  0  0  0  0
    0.6611   -0.0798   -0.3574 C   0  0  0  0  0  0  0  0  0  0  0  0
   -0.3435   -1.0797    0.1266 C   0  0  0  0  0  0  0  0  0  0  0  0
   -0.9231   -0.2763    1.3021 C   0  0  0  0  0  0  0  0  0  0  0  0
   -1.2879    0.9879    0.5049 C   0  0  0  0  0  0  0  0  0  0  0  0
   -1.6199    0.5756   -0.8612 C   0  0  0  0  0  0  0  0  0  0  0  0
   -1.4815   -0.9545   -0.8427 C   0  0  0  0  0  0  0  0  0  0  0  0
   -0.2799    1.1181   -0.5622 C   0  0  0  0  0  0  0  0  0  0  0  0
    2.9443   -0.9161   -0.0199 H   0  0  0  0  0  0  0  0  0  0  0  0
    2.9367    0.8342   -0.5688 H   0  0  0  0  0  0  0  0  0  0  0  0
    3.5066    0.4258    1.1116 H   0  0  0  0  0  0  0  0  0  0  0  0
    1.1830   -0.3508   -1.2711 H   0  0  0  0  0  0  0  0  0  0  0  0
   -0.0049   -2.0494    0.3727 H   0  0  0  0  0  0  0  0  0  0  0  0
   -0.1440   -0.0825    2.0424 H   0  0  0  0  0  0  0  0  0  0  0  0
   -1.8038   -0.8070    1.6544 H   0  0  0  0  0  0  0  0  0  0  0  0
   -1.7217    1.8363    1.0274 H   0  0  0  0  0  0  0  0  0  0  0  0
   -2.3486    1.0423   -1.5080 H   0  0  0  0  0  0  0  0  0  0  0  0
   -2.3991   -1.3233   -0.3640 H   0  0  0  0  0  0  0  0  0  0  0  0
   -1.2798   -1.3578   -1.8380 H   0  0  0  0  0  0  0  0  0  0  0  0
    0.1117    2.0509   -0.9414 H   0  0  0  0  0  0  0  0  0  0  0  0
  1  2  1  0
  2  3  1  0
  3  4  1  0
  4  5  1  0
  5  6  1  0
  6  7  1  0
  7  8  1  0
  7  9  1  0
  9  3  1  0
  8  4  1  0
  9  6  1  0
  1 10  1  0
  1 11  1  0
  1 12  1  0
  3 13  1  0
  4 14  1  0
  5 15  1  0
  5 16  1  0
  6 17  1  0
  7 18  1  0
  8 19  1  0
  8 20  1  0
  9 21  1  0
M  END
