
     RDKit          3D

 19 20  0  0  0  0  0  0  0  0999 V2000
   -2.4434    0.2220   -1.1144 C   0  0  0  0  0  0  0  0  0  0  0  0
   -1.0544    0.3108   -0.9520 O   0  0  0  0  0  0  0  0  0  0  0  0
   -0.6621   -0.4582    0.1401 C   0  0  0  0  0  0  0  0  0  0  0  0
    0.6304   -1.2253    0.0768 C   0  0  0  0  0  0  0  0  0  0  0  0
    0.6892   -2.4560    0.7637 O   0  0  0  0  0  0  0  0  0  0  0  0
    0.4722   -0.0203    0.9837 C   0  0  0  0  0  0  0  0  0  0  0  0
    1.2728    1.1889    0.6709 C   0  0  0  0  0  0  0  0  0  0  0  0
    1.9755    1.2582   -0.6535 C   0  0  0  0  0  0  0  0  0  0  0  0
    2.6516    1.0557    0.5448 O   0  0  0  0  0  0  0  0  0  0  0  0
   -2.7894    0.8109   -1.9600 H   0  0  0  0  0  0  0  0  0  0  0  0
   -2.9672    0.4670   -0.1792 H   0  0  0  0  0  0  0  0  0  0  0  0
   -2.6748   -0.8581   -1.3293 H   0  0  0  0  0  0  0  0  0  0  0  0
   -1.4758   -0.9879    0.6743 H   0  0  0  0  0  0  0  0  0  0  0  0
    1.2209   -1.2335   -0.8239 H   0  0  0  0  0  0  0  0  0  0  0  0
   -0.2261   -2.7250    1.0363 H   0  0  0  0  0  0  0  0  0  0  0  0
    0.3933   -0.2286    2.0907 H   0  0  0  0  0  0  0  0  0  0  0  0
    0.8986    2.1953    1.0207 H   0  0  0  0  0  0  0  0  0  0  0  0
    2.0221    0.4345   -1.3680 H   0  0  0  0  0  0  0  0  0  0  0  0
    2.0666    2.2495   -1.1554 H   0  0  0  0  0  0  0  0  0  0  0  0
  1  2  1  0
  2  3  1  0
  3  4  1  0
  4  5  1  0
  4  6  1  0
  6  7  1  0
  7  8  1  0
  8  9  1  0
  6  3  1  0
  9  7  1  0
  1 10  1  0
  1 11  1  0
  1 12  1  0
  3 13  1  0
  4 14  1  0
  5 15  1  0
  6 16  1  0
  7 17  1  0
  8 18  1  0
  8 19  1  0
M  END
