
     RDKit          3D

 19 21  0  0  0  0  0  0  0  0999 V2000
    2.7774   -0.1705   -0.6437 C   0  0  0  0  0  0  0  0  0  0  0  0
    1.5116    0.3638   -0.8518 O   0  0  0  0  0  0  0  0  0  0  0  0
    0.6821   -0.1327    0.1485 C   0  0  0  0  0  0  0  0  0  0  0  0
   -0.2564    0.8518    0.7536 C   0  0  0  0  0  0  0  0  0  0  0  0
   -1.1237    1.7311   -0.1161 C   0  0  0  0  0  0  0  0  0  0  0  0
   -2.4661    1.4422   -0.0961 O   0  0  0  0  0  0  0  0  0  0  0  0
   -1.5881    0.6567   -0.8595 C   0  0  0  0  0  0  0  0  0  0  0  0
   -0.7606   -0.3374   -0.0953 C   0  0  0  0  0  0  0  0  0  0  0  0
   -1.4393   -1.4559    0.6626 C   0  0  0  0  0  0  0  0  0  0  0  0
    3.5160    0.1666   -1.3935 H   0  0  0  0  0  0  0  0  0  0  0  0
    3.0954    0.1980    0.3760 H   0  0  0  0  0  0  0  0  0  0  0  0
    2.6601   -1.2720   -0.6047 H   0  0  0  0  0  0  0  0  0  0  0  0
    1.1579   -0.8046    0.8592 H   0  0  0  0  0  0  0  0  0  0  0  0
   -0.4807    0.8241    1.8319 H   0  0  0  0  0  0  0  0  0  0  0  0
   -0.7405    2.6635   -0.5344 H   0  0  0  0  0  0  0  0  0  0  0  0
   -1.8223    0.5263   -1.9124 H   0  0  0  0  0  0  0  0  0  0  0  0
   -2.5322   -1.2972    0.7703 H   0  0  0  0  0  0  0  0  0  0  0  0
   -1.2199   -2.3995    0.1115 H   0  0  0  0  0  0  0  0  0  0  0  0
   -0.9706   -1.5542    1.6583 H   0  0  0  0  0  0  0  0  0  0  0  0
  1  2  1  0
  2  3  1  0
  3  4  1  0
  4  5  1  0
  5  6  1  0
  6  7  1  0
  7  8  1  0
  8  9  1  0
  8  3  1  0
  8  4  1  0
  7  5  1  0
  1 10  1  0
  1 11  1  0
  1 12  1  0
  3 13  1  0
  4 14  1  0
  5 15  1  0
  7 16  1  0
  9 17  1  0
  9 18  1  0
  9 19  1  0
M  END
