
     RDKit          3D

 17 17  0  0  0  0  0  0  0  0999 V2000
   -2.7788    0.1764   -0.0267 C   0  0  0  0  0  0  0  0  0  0  0  0
   -1.5417    0.3477    0.5521 O   0  0  0  0  0  0  0  0  0  0  0  0
   -0.4992   -0.0978   -0.2567 C   0  0  0  0  0  0  0  0  0  0  0  0
    0.2313   -1.0637    0.4357 O   0  0  0  0  0  0  0  0  0  0  0  0
    1.4524   -1.0671   -0.2362 C   0  0  0  0  0  0  0  0  0  0  0  0
    1.8164    0.4054   -0.2018 C   0  0  0  0  0  0  0  0  0  0  0  0
    2.3010    0.6988    1.0518 O   0  0  0  0  0  0  0  0  0  0  0  0
    0.4785    1.0299   -0.4551 C   0  0  0  0  0  0  0  0  0  0  0  0
    0.2199    2.1697   -0.7507 O   0  0  0  0  0  0  0  0  0  0  0  0
   -2.9112    0.7098   -0.9842 H   0  0  0  0  0  0  0  0  0  0  0  0
   -3.0074   -0.9022   -0.2524 H   0  0  0  0  0  0  0  0  0  0  0  0
   -3.5474    0.5295    0.6677 H   0  0  0  0  0  0  0  0  0  0  0  0
   -0.8550   -0.5035   -1.2069 H   0  0  0  0  0  0  0  0  0  0  0  0
    2.2252   -1.6455    0.3252 H   0  0  0  0  0  0  0  0  0  0  0  0
    1.3699   -1.3768   -1.2853 H   0  0  0  0  0  0  0  0  0  0  0  0
    2.5128    0.6815   -1.0178 H   0  0  0  0  0  0  0  0  0  0  0  0
    2.5334   -0.0921    1.5936 H   0  0  0  0  0  0  0  0  0  0  0  0
  1  2  1  0
  2  3  1  0
  3  4  1  0
  4  5  1  0
  5  6  1  0
  6  7  1  0
  6  8  1  0
  8  9  2  0
  8  3  1  0
  1 10  1  0
  1 11  1  0
  1 12  1  0
  3 13  1  0
  5 14  1  0
  5 15  1  0
  6 16  1  0
  7 17  1  0
M  END
