
     RDKit          3D

 21 22  0  0  0  0  0  0  0  0999 V2000
    2.9877    0.3125   -0.2432 C   0  0  0  0  0  0  0  0  0  0  0  0
    1.7575    0.6138    0.3474 O   0  0  0  0  0  0  0  0  0  0  0  0
    0.7561   -0.1468   -0.2140 C   0  0  0  0  0  0  0  0  0  0  0  0
   -0.2644    0.7445   -0.8619 C   0  0  0  0  0  0  0  0  0  0  0  0
   -1.5072    0.7049   -0.0190 C   0  0  0  0  0  0  0  0  0  0  0  0
   -2.5244   -0.3371   -0.3969 C   0  0  0  0  0  0  0  0  0  0  0  0
   -2.4152   -0.8603    0.8954 O   0  0  0  0  0  0  0  0  0  0  0  0
   -1.2273   -0.1846    1.1623 C   0  0  0  0  0  0  0  0  0  0  0  0
    0.0156   -0.9735    0.8172 C   0  0  0  0  0  0  0  0  0  0  0  0
    3.2252   -0.7784   -0.0865 H   0  0  0  0  0  0  0  0  0  0  0  0
    2.9723    0.4440   -1.3452 H   0  0  0  0  0  0  0  0  0  0  0  0
    3.8040    0.9032    0.1960 H   0  0  0  0  0  0  0  0  0  0  0  0
    1.1835   -0.7999   -0.9874 H   0  0  0  0  0  0  0  0  0  0  0  0
   -0.4386    0.4878   -1.9108 H   0  0  0  0  0  0  0  0  0  0  0  0
    0.0956    1.8080   -0.8564 H   0  0  0  0  0  0  0  0  0  0  0  0
   -1.9229    1.6739    0.2783 H   0  0  0  0  0  0  0  0  0  0  0  0
   -3.5077    0.1505   -0.5990 H   0  0  0  0  0  0  0  0  0  0  0  0
   -2.2136   -1.0904   -1.1277 H   0  0  0  0  0  0  0  0  0  0  0  0
   -1.2110    0.3285    2.1327 H   0  0  0  0  0  0  0  0  0  0  0  0
    0.6321   -1.0246    1.7382 H   0  0  0  0  0  0  0  0  0  0  0  0
   -0.1974   -1.9760    0.4454 H   0  0  0  0  0  0  0  0  0  0  0  0
  1  2  1  0
  2  3  1  0
  3  4  1  0
  4  5  1  0
  5  6  1  0
  6  7  1  0
  7  8  1  0
  8  9  1  0
  9  3  1  0
  8  5  1  0
  1 10  1  0
  1 11  1  0
  1 12  1  0
  3 13  1  0
  4 14  1  0
  4 15  1  0
  5 16  1  0
  6 17  1  0
  6 18  1  0
  8 19  1  0
  9 20  1  0
  9 21  1  0
M  END
