
     RDKit          3D

 21 21  0  0  0  0  0  0  0  0999 V2000
    2.4244    1.0095   -0.7028 C   0  0  0  0  0  0  0  0  0  0  0  0
    1.6291    0.5691    0.3279 O   0  0  0  0  0  0  0  0  0  0  0  0
    0.5389   -0.1484   -0.0954 C   0  0  0  0  0  0  0  0  0  0  0  0
    0.5384   -1.5428    0.5468 C   0  0  0  0  0  0  0  0  0  0  0  0
   -0.8654   -1.9353    0.2968 C   0  0  0  0  0  0  0  0  0  0  0  0
   -1.2067   -3.0013   -0.1455 O   0  0  0  0  0  0  0  0  0  0  0  0
   -1.6682   -0.7632    0.7027 C   0  0  0  0  0  0  0  0  0  0  0  0
   -0.7353    0.4212    0.4938 C   0  0  0  0  0  0  0  0  0  0  0  0
   -1.4102    1.3872   -0.4455 C   0  0  0  0  0  0  0  0  0  0  0  0
    2.8402    0.1903   -1.3263 H   0  0  0  0  0  0  0  0  0  0  0  0
    1.9594    1.7287   -1.3785 H   0  0  0  0  0  0  0  0  0  0  0  0
    3.3262    1.4943   -0.2259 H   0  0  0  0  0  0  0  0  0  0  0  0
    0.4870   -0.2497   -1.1983 H   0  0  0  0  0  0  0  0  0  0  0  0
    1.2764   -2.2025    0.1042 H   0  0  0  0  0  0  0  0  0  0  0  0
    0.6523   -1.3698    1.6296 H   0  0  0  0  0  0  0  0  0  0  0  0
   -1.8260   -0.8399    1.8135 H   0  0  0  0  0  0  0  0  0  0  0  0
   -2.6164   -0.6564    0.1591 H   0  0  0  0  0  0  0  0  0  0  0  0
   -0.4801    0.9302    1.4320 H   0  0  0  0  0  0  0  0  0  0  0  0
   -1.1133    1.2713   -1.4941 H   0  0  0  0  0  0  0  0  0  0  0  0
   -2.5171    1.2491   -0.3398 H   0  0  0  0  0  0  0  0  0  0  0  0
   -1.2335    2.4585   -0.1542 H   0  0  0  0  0  0  0  0  0  0  0  0
  1  2  1  0
  2  3  1  0
  3  4  1  0
  4  5  1  0
  5  6  2  0
  5  7  1  0
  7  8  1  0
  8  9  1  0
  8  3  1  0
  1 10  1  0
  1 11  1  0
  1 12  1  0
  3 13  1  0
  4 14  1  0
  4 15  1  0
  7 16  1  0
  7 17  1  0
  8 18  1  0
  9 19  1  0
  9 20  1  0
  9 21  1  0
M  END
