
     RDKit          3D

 20 21  0  0  0  0  0  0  0  0999 V2000
    2.3558   -0.0197   -1.2110 C   0  0  0  0  0  0  0  0  0  0  0  0
    1.3705    0.4223   -0.3466 O   0  0  0  0  0  0  0  0  0  0  0  0
    0.4671   -0.5809   -0.0033 C   0  0  0  0  0  0  0  0  0  0  0  0
    0.3555   -0.6758    1.5192 C   0  0  0  0  0  0  0  0  0  0  0  0
   -0.8953    0.1665    1.4003 C   0  0  0  0  0  0  0  0  0  0  0  0
   -2.0331   -0.5095    0.7305 C   0  0  0  0  0  0  0  0  0  0  0  0
   -0.9347   -0.0975   -0.1417 C   0  0  0  0  0  0  0  0  0  0  0  0
   -1.1478    1.1483   -1.0013 C   0  0  0  0  0  0  0  0  0  0  0  0
    1.9625   -0.4065   -2.1714 H   0  0  0  0  0  0  0  0  0  0  0  0
    3.0593    0.8260   -1.3606 H   0  0  0  0  0  0  0  0  0  0  0  0
    2.9487   -0.7962   -0.6552 H   0  0  0  0  0  0  0  0  0  0  0  0
    0.6923   -1.5668   -0.4832 H   0  0  0  0  0  0  0  0  0  0  0  0
    0.0613   -1.6993    1.8663 H   0  0  0  0  0  0  0  0  0  0  0  0
    1.1952   -0.2152    2.0601 H   0  0  0  0  0  0  0  0  0  0  0  0
   -0.8940    1.2167    1.6762 H   0  0  0  0  0  0  0  0  0  0  0  0
   -2.9652    0.0637    0.6769 H   0  0  0  0  0  0  0  0  0  0  0  0
   -2.1823   -1.5704    1.0181 H   0  0  0  0  0  0  0  0  0  0  0  0
   -0.4350    1.9074   -0.5942 H   0  0  0  0  0  0  0  0  0  0  0  0
   -2.1701    1.5142   -0.9545 H   0  0  0  0  0  0  0  0  0  0  0  0
   -0.8107    0.8727   -2.0247 H   0  0  0  0  0  0  0  0  0  0  0  0
  1  2  1  0
  2  3  1  0
  3  4  1  0
  4  5  1  0
  5  6  1  0
  6  7  1  0
  7  8  1  0
  7  3  1  0
  7  5  1  0
  1  9  1  0
  1 10  1  0
  1 11  1  0
  3 12  1  0
  4 13  1  0
  4 14  1  0
  5 15  1  0
  6 16  1  0
  6 17  1  0
  8 18  1  0
  8 19  1  0
  8 20  1  0
M  END
