
     RDKit          3D

 19 20  0  0  0  0  0  0  0  0999 V2000
    2.5567   -0.8377   -0.0525 C   0  0  0  0  0  0  0  0  0  0  0  0
    1.5734   -0.0493   -0.6799 O   0  0  0  0  0  0  0  0  0  0  0  0
    0.6473    0.3963    0.2312 C   0  0  0  0  0  0  0  0  0  0  0  0
    0.3366    1.8607    0.2136 C   0  0  0  0  0  0  0  0  0  0  0  0
   -0.8622    1.6462   -0.5054 O   0  0  0  0  0  0  0  0  0  0  0  0
   -0.7868    0.3383   -0.1558 C   0  0  0  0  0  0  0  0  0  0  0  0
   -1.7285   -0.3738    0.7012 C   0  0  0  0  0  0  0  0  0  0  0  0
   -1.4518   -0.7803   -0.7772 C   0  0  0  0  0  0  0  0  0  0  0  0
   -2.5265   -0.6355   -1.6247 O   0  0  0  0  0  0  0  0  0  0  0  0
    3.0729   -0.2435    0.7107 H   0  0  0  0  0  0  0  0  0  0  0  0
    3.2427   -1.1920   -0.8602 H   0  0  0  0  0  0  0  0  0  0  0  0
    2.0727   -1.7249    0.4468 H   0  0  0  0  0  0  0  0  0  0  0  0
    0.8778    0.0385    1.2530 H   0  0  0  0  0  0  0  0  0  0  0  0
    1.0833    2.4217   -0.3831 H   0  0  0  0  0  0  0  0  0  0  0  0
    0.1987    2.3525    1.1863 H   0  0  0  0  0  0  0  0  0  0  0  0
   -2.7149    0.1038    0.8885 H   0  0  0  0  0  0  0  0  0  0  0  0
   -1.2885   -1.0426    1.4754 H   0  0  0  0  0  0  0  0  0  0  0  0
   -0.9099   -1.7563   -0.8806 H   0  0  0  0  0  0  0  0  0  0  0  0
   -3.3930   -0.5221   -1.1872 H   0  0  0  0  0  0  0  0  0  0  0  0
  1  2  1  0
  2  3  1  0
  3  4  1  0
  4  5  1  0
  5  6  1  0
  6  7  1  0
  7  8  1  0
  8  9  1  0
  6  3  1  0
  8  6  1  0
  1 10  1  0
  1 11  1  0
  1 12  1  0
  3 13  1  0
  4 14  1  0
  4 15  1  0
  7 16  1  0
  7 17  1  0
  8 18  1  0
  9 19  1  0
M  END
