
     RDKit          3D

 21 21  0  0  0  0  0  0  0  0999 V2000
    2.0813   -1.2915    0.5161 C   0  0  0  0  0  0  0  0  0  0  0  0
    1.6607    0.0114    0.5903 O   0  0  0  0  0  0  0  0  0  0  0  0
    0.5230    0.2987   -0.1257 C   0  0  0  0  0  0  0  0  0  0  0  0
   -0.7174   -0.4824    0.2694 C   0  0  0  0  0  0  0  0  0  0  0  0
   -1.9197   -0.1064   -0.5663 C   0  0  0  0  0  0  0  0  0  0  0  0
   -1.0783   -0.2586    1.6890 C   0  0  0  0  0  0  0  0  0  0  0  0
   -1.9902    0.4824    2.0456 O   0  0  0  0  0  0  0  0  0  0  0  0
    0.3312    1.8014   -0.3636 C   0  0  0  0  0  0  0  0  0  0  0  0
    0.5351    0.8271   -1.4938 C   0  0  0  0  0  0  0  0  0  0  0  0
    1.3075   -1.9876    0.8978 H   0  0  0  0  0  0  0  0  0  0  0  0
    2.4336   -1.5936   -0.4904 H   0  0  0  0  0  0  0  0  0  0  0  0
    2.9549   -1.4069    1.1924 H   0  0  0  0  0  0  0  0  0  0  0  0
   -0.5325   -1.5675    0.1261 H   0  0  0  0  0  0  0  0  0  0  0  0
   -2.1664    0.9590   -0.5358 H   0  0  0  0  0  0  0  0  0  0  0  0
   -2.7931   -0.6294   -0.0752 H   0  0  0  0  0  0  0  0  0  0  0  0
   -1.8639   -0.5253   -1.6016 H   0  0  0  0  0  0  0  0  0  0  0  0
   -0.5257   -0.7622    2.4754 H   0  0  0  0  0  0  0  0  0  0  0  0
   -0.6410    2.2554   -0.1702 H   0  0  0  0  0  0  0  0  0  0  0  0
    1.2197    2.4670   -0.2038 H   0  0  0  0  0  0  0  0  0  0  0  0
   -0.3263    0.6987   -2.1431 H   0  0  0  0  0  0  0  0  0  0  0  0
    1.5074    0.8104   -2.0327 H   0  0  0  0  0  0  0  0  0  0  0  0
  1  2  1  0
  2  3  1  0
  3  4  1  0
  4  5  1  0
  4  6  1  0
  6  7  2  0
  3  8  1  0
  8  9  1  0
  9  3  1  0
  1 10  1  0
  1 11  1  0
  1 12  1  0
  4 13  1  0
  5 14  1  0
  5 15  1  0
  5 16  1  0
  6 17  1  0
  8 18  1  0
  8 19  1  0
  9 20  1  0
  9 21  1  0
M  END
