
     RDKit          3D

 19 20  0  0  0  0  0  0  0  0999 V2000
   -1.5869   -1.6444    0.3565 C   0  0  0  0  0  0  0  0  0  0  0  0
   -0.7300   -1.1490   -0.5589 O   0  0  0  0  0  0  0  0  0  0  0  0
   -0.1150    0.0363   -0.3721 C   0  0  0  0  0  0  0  0  0  0  0  0
   -1.0562    1.2328   -0.2262 C   0  0  0  0  0  0  0  0  0  0  0  0
   -1.8860    1.0544    0.8778 O   0  0  0  0  0  0  0  0  0  0  0  0
    1.1700    0.2291    0.3631 C   0  0  0  0  0  0  0  0  0  0  0  0
    2.5423   -0.1682   -0.0323 C   0  0  0  0  0  0  0  0  0  0  0  0
    2.0428   -0.7852   -1.1742 O   0  0  0  0  0  0  0  0  0  0  0  0
    1.1150    0.2614   -1.0184 C   0  0  0  0  0  0  0  0  0  0  0  0
   -1.1821   -1.8170    1.3683 H   0  0  0  0  0  0  0  0  0  0  0  0
   -1.9050   -2.6623   -0.0370 H   0  0  0  0  0  0  0  0  0  0  0  0
   -2.5550   -1.1212    0.4846 H   0  0  0  0  0  0  0  0  0  0  0  0
   -0.4666    2.1517   -0.0434 H   0  0  0  0  0  0  0  0  0  0  0  0
   -1.6578    1.3680   -1.1603 H   0  0  0  0  0  0  0  0  0  0  0  0
   -2.3108    1.9152    1.0999 H   0  0  0  0  0  0  0  0  0  0  0  0
    0.9711    0.0358    1.3575 H   0  0  0  0  0  0  0  0  0  0  0  0
    3.1133   -0.8207    0.6393 H   0  0  0  0  0  0  0  0  0  0  0  0
    3.1454    0.7230   -0.3362 H   0  0  0  0  0  0  0  0  0  0  0  0
    1.3513    1.1603   -1.5880 H   0  0  0  0  0  0  0  0  0  0  0  0
  1  2  1  0
  2  3  1  0
  3  4  1  0
  4  5  1  0
  3  6  1  0
  6  7  1  0
  7  8  1  0
  8  9  1  0
  9  3  1  0
  9  6  1  0
  1 10  1  0
  1 11  1  0
  1 12  1  0
  4 13  1  0
  4 14  1  0
  5 15  1  0
  6 16  1  0
  7 17  1  0
  7 18  1  0
  9 19  1  0
M  END
