
     RDKit          3D

 21 23  0  0  0  0  0  0  0  0999 V2000
    2.3272    0.6563   -0.6156 C   0  0  0  0  0  0  0  0  0  0  0  0
    1.4244    0.9891    0.3581 O   0  0  0  0  0  0  0  0  0  0  0  0
    0.4754    0.0636    0.6641 C   0  0  0  0  0  0  0  0  0  0  0  0
    0.8626   -1.2715    1.1677 C   0  0  0  0  0  0  0  0  0  0  0  0
    0.2730   -1.1893   -0.1862 C   0  0  0  0  0  0  0  0  0  0  0  0
   -1.2194   -0.9599   -0.2306 C   0  0  0  0  0  0  0  0  0  0  0  0
   -1.9577   -0.5455    0.9714 C   0  0  0  0  0  0  0  0  0  0  0  0
   -0.9501    0.4018    0.4189 C   0  0  0  0  0  0  0  0  0  0  0  0
   -1.3553    1.5538   -0.4389 C   0  0  0  0  0  0  0  0  0  0  0  0
    1.8936    0.4448   -1.6001 H   0  0  0  0  0  0  0  0  0  0  0  0
    3.0123    1.5377   -0.7741 H   0  0  0  0  0  0  0  0  0  0  0  0
    3.0308   -0.1638   -0.2890 H   0  0  0  0  0  0  0  0  0  0  0  0
    1.9106   -1.5657    1.2079 H   0  0  0  0  0  0  0  0  0  0  0  0
    0.2296   -1.7966    1.9236 H   0  0  0  0  0  0  0  0  0  0  0  0
    0.8550   -1.2165   -1.1008 H   0  0  0  0  0  0  0  0  0  0  0  0
   -1.7275   -0.9987   -1.1969 H   0  0  0  0  0  0  0  0  0  0  0  0
   -1.6747   -1.0647    1.9164 H   0  0  0  0  0  0  0  0  0  0  0  0
   -3.0279   -0.3816    0.8701 H   0  0  0  0  0  0  0  0  0  0  0  0
   -1.1491    1.3197   -1.5063 H   0  0  0  0  0  0  0  0  0  0  0  0
   -2.4434    1.6980   -0.3376 H   0  0  0  0  0  0  0  0  0  0  0  0
   -0.7895    2.4891   -0.2134 H   0  0  0  0  0  0  0  0  0  0  0  0
  1  2  1  0
  2  3  1  0
  3  4  1  0
  4  5  1  0
  5  6  1  0
  6  7  1  0
  7  8  1  0
  8  9  1  0
  5  3  1  0
  8  6  1  0
  8  3  1  0
  1 10  1  0
  1 11  1  0
  1 12  1  0
  4 13  1  0
  4 14  1  0
  5 15  1  0
  6 16  1  0
  7 17  1  0
  7 18  1  0
  9 19  1  0
  9 20  1  0
  9 21  1  0
M  END
