
     RDKit          3D

 21 22  0  0  0  0  0  0  0  0999 V2000
    2.5720   -0.7615   -0.2222 C   0  0  0  0  0  0  0  0  0  0  0  0
    1.4918   -0.4793    0.6081 O   0  0  0  0  0  0  0  0  0  0  0  0
    0.3963   -0.1529   -0.1639 C   0  0  0  0  0  0  0  0  0  0  0  0
   -0.1456   -1.1248   -1.1352 C   0  0  0  0  0  0  0  0  0  0  0  0
   -1.4532   -1.1452   -1.0275 C   0  0  0  0  0  0  0  0  0  0  0  0
   -1.9208   -0.2161    0.0003 C   0  0  0  0  0  0  0  0  0  0  0  0
   -0.7390    0.6057    0.3834 C   0  0  0  0  0  0  0  0  0  0  0  0
   -0.7394    1.0977    1.8148 C   0  0  0  0  0  0  0  0  0  0  0  0
    0.1576    1.2754   -0.5795 C   0  0  0  0  0  0  0  0  0  0  0  0
    2.8459    0.1067   -0.8659 H   0  0  0  0  0  0  0  0  0  0  0  0
    3.4738   -1.0677    0.3174 H   0  0  0  0  0  0  0  0  0  0  0  0
    2.3136   -1.5821   -0.9487 H   0  0  0  0  0  0  0  0  0  0  0  0
    0.4134   -1.7276   -1.8263 H   0  0  0  0  0  0  0  0  0  0  0  0
   -2.1395   -1.7783   -1.6283 H   0  0  0  0  0  0  0  0  0  0  0  0
   -2.7973    0.3913   -0.3114 H   0  0  0  0  0  0  0  0  0  0  0  0
   -2.1737   -0.8369    0.9079 H   0  0  0  0  0  0  0  0  0  0  0  0
   -1.7707    1.0630    2.2222 H   0  0  0  0  0  0  0  0  0  0  0  0
   -0.4596    2.1807    1.7826 H   0  0  0  0  0  0  0  0  0  0  0  0
   -0.0088    0.6015    2.4477 H   0  0  0  0  0  0  0  0  0  0  0  0
   -0.1370    1.4972   -1.6224 H   0  0  0  0  0  0  0  0  0  0  0  0
    0.8202    2.0532   -0.1531 H   0  0  0  0  0  0  0  0  0  0  0  0
  1  2  1  0
  2  3  1  0
  3  4  1  0
  4  5  2  0
  5  6  1  0
  6  7  1  0
  7  8  1  0
  7  9  1  0
  7  3  1  0
  9  3  1  0
  1 10  1  0
  1 11  1  0
  1 12  1  0
  4 13  1  0
  5 14  1  0
  6 15  1  0
  6 16  1  0
  8 17  1  0
  8 18  1  0
  8 19  1  0
  9 20  1  0
  9 21  1  0
M  END
