
     RDKit          3D

 21 22  0  0  0  0  0  0  0  0999 V2000
    2.7609    1.2460   -0.6423 C   0  0  0  0  0  0  0  0  0  0  0  0
    2.1202    0.5070    0.3510 O   0  0  0  0  0  0  0  0  0  0  0  0
    1.0327   -0.2077   -0.1455 C   0  0  0  0  0  0  0  0  0  0  0  0
    0.6804   -1.5349    0.3779 C   0  0  0  0  0  0  0  0  0  0  0  0
   -0.1265   -0.3399    0.7713 C   0  0  0  0  0  0  0  0  0  0  0  0
   -1.5340   -0.3127    0.2480 C   0  0  0  0  0  0  0  0  0  0  0  0
   -2.5189   -0.4474    1.2199 O   0  0  0  0  0  0  0  0  0  0  0  0
   -1.8420   -0.6205   -1.1637 C   0  0  0  0  0  0  0  0  0  0  0  0
   -1.8286    0.8089   -0.7972 C   0  0  0  0  0  0  0  0  0  0  0  0
    3.5976    1.7784   -0.1897 H   0  0  0  0  0  0  0  0  0  0  0  0
    2.0216    2.0053   -0.9877 H   0  0  0  0  0  0  0  0  0  0  0  0
    3.1400    0.6158   -1.4652 H   0  0  0  0  0  0  0  0  0  0  0  0
    0.8768   -0.0576   -1.2373 H   0  0  0  0  0  0  0  0  0  0  0  0
    0.2390   -2.2979   -0.3220 H   0  0  0  0  0  0  0  0  0  0  0  0
    1.2606   -2.0182    1.1934 H   0  0  0  0  0  0  0  0  0  0  0  0
   -0.0110    0.0423    1.8078 H   0  0  0  0  0  0  0  0  0  0  0  0
   -2.2738    0.1465    1.9882 H   0  0  0  0  0  0  0  0  0  0  0  0
   -1.0669   -1.0188   -1.8471 H   0  0  0  0  0  0  0  0  0  0  0  0
   -2.8495   -1.0630   -1.3579 H   0  0  0  0  0  0  0  0  0  0  0  0
   -2.7544    1.3878   -0.6437 H   0  0  0  0  0  0  0  0  0  0  0  0
   -0.9243    1.3806   -1.1382 H   0  0  0  0  0  0  0  0  0  0  0  0
  1  2  1  0
  2  3  1  0
  3  4  1  0
  4  5  1  0
  5  6  1  0
  6  7  1  0
  6  8  1  0
  8  9  1  0
  5  3  1  0
  9  6  1  0
  1 10  1  0
  1 11  1  0
  1 12  1  0
  3 13  1  0
  4 14  1  0
  4 15  1  0
  5 16  1  0
  7 17  1  0
  8 18  1  0
  8 19  1  0
  9 20  1  0
  9 21  1  0
M  END
