
     RDKit          3D

 17 18  0  0  0  0  0  0  0  0999 V2000
    2.6849   -0.0106   -0.7889 C   0  0  0  0  0  0  0  0  0  0  0  0
    1.3318    0.2758   -0.9528 O   0  0  0  0  0  0  0  0  0  0  0  0
    0.5970   -0.2036    0.1060 C   0  0  0  0  0  0  0  0  0  0  0  0
   -0.3347   -1.1942   -0.3233 O   0  0  0  0  0  0  0  0  0  0  0  0
   -1.4046   -0.3955   -0.6211 C   0  0  0  0  0  0  0  0  0  0  0  0
   -2.6160   -0.0611    0.0015 C   0  0  0  0  0  0  0  0  0  0  0  0
   -1.5220    0.1690    0.8581 C   0  0  0  0  0  0  0  0  0  0  0  0
   -0.2464    0.8385    0.7550 C   0  0  0  0  0  0  0  0  0  0  0  0
    0.0666    1.9419    1.0972 O   0  0  0  0  0  0  0  0  0  0  0  0
    3.2653    0.3808   -1.6483 H   0  0  0  0  0  0  0  0  0  0  0  0
    2.8655   -1.1180   -0.6837 H   0  0  0  0  0  0  0  0  0  0  0  0
    3.1081    0.4333    0.1389 H   0  0  0  0  0  0  0  0  0  0  0  0
    1.2039   -0.7200    0.8811 H   0  0  0  0  0  0  0  0  0  0  0  0
   -1.0492    0.3546   -1.3962 H   0  0  0  0  0  0  0  0  0  0  0  0
   -3.3417   -0.8921    0.2287 H   0  0  0  0  0  0  0  0  0  0  0  0
   -3.2066    0.8232   -0.3472 H   0  0  0  0  0  0  0  0  0  0  0  0
   -1.4018   -0.6220    1.6712 H   0  0  0  0  0  0  0  0  0  0  0  0
  1  2  1  0
  2  3  1  0
  3  4  1  0
  4  5  1  0
  5  6  1  0
  6  7  1  0
  7  8  1  0
  8  9  2  0
  8  3  1  0
  7  5  1  0
  1 10  1  0
  1 11  1  0
  1 12  1  0
  3 13  1  0
  5 14  1  0
  6 15  1  0
  6 16  1  0
  7 17  1  0
M  END
