
     RDKit          3D

 17 18  0  0  0  0  0  0  0  0999 V2000
    2.0526   -0.8105   -0.2089 C   0  0  0  0  0  0  0  0  0  0  0  0
    0.9349   -0.3605   -0.9427 O   0  0  0  0  0  0  0  0  0  0  0  0
    0.1652    0.3779   -0.0019 C   0  0  0  0  0  0  0  0  0  0  0  0
   -0.1882   -0.5681    1.0776 C   0  0  0  0  0  0  0  0  0  0  0  0
    0.1021   -0.6885    2.2258 O   0  0  0  0  0  0  0  0  0  0  0  0
   -1.0100   -1.1732   -0.0281 C   0  0  0  0  0  0  0  0  0  0  0  0
   -1.4046    0.2785   -0.2026 C   0  0  0  0  0  0  0  0  0  0  0  0
   -0.6119    1.3919   -0.6206 C   0  0  0  0  0  0  0  0  0  0  0  0
   -0.6045    2.6450    0.0470 O   0  0  0  0  0  0  0  0  0  0  0  0
    1.6586   -1.4310    0.6102 H   0  0  0  0  0  0  0  0  0  0  0  0
    2.7413   -1.3638   -0.8687 H   0  0  0  0  0  0  0  0  0  0  0  0
    2.5978    0.0394    0.2587 H   0  0  0  0  0  0  0  0  0  0  0  0
   -1.8482   -1.7998    0.3037 H   0  0  0  0  0  0  0  0  0  0  0  0
   -0.4703   -1.6493   -0.8350 H   0  0  0  0  0  0  0  0  0  0  0  0
   -1.9984    0.5514    0.7319 H   0  0  0  0  0  0  0  0  0  0  0  0
   -0.5977    1.5879   -1.7351 H   0  0  0  0  0  0  0  0  0  0  0  0
   -1.5188    2.9726    0.1886 H   0  0  0  0  0  0  0  0  0  0  0  0
  1  2  1  0
  2  3  1  0
  3  4  1  0
  4  5  2  0
  4  6  1  0
  6  7  1  0
  7  8  1  0
  8  9  1  0
  7  3  1  0
  8  3  1  0
  1 10  1  0
  1 11  1  0
  1 12  1  0
  6 13  1  0
  6 14  1  0
  7 15  1  0
  8 16  1  0
  9 17  1  0
M  END
