
     RDKit          3D

 19 20  0  0  0  0  0  0  0  0999 V2000
    2.3403    0.0513   -0.0775 C   0  0  0  0  0  0  0  0  0  0  0  0
    1.2654    0.1115    0.7932 O   0  0  0  0  0  0  0  0  0  0  0  0
    0.0462   -0.0437    0.2095 C   0  0  0  0  0  0  0  0  0  0  0  0
   -0.3016    1.0001   -0.8579 C   0  0  0  0  0  0  0  0  0  0  0  0
   -0.3071    2.2827   -0.3377 O   0  0  0  0  0  0  0  0  0  0  0  0
   -1.0510   -0.0824    1.2545 C   0  0  0  0  0  0  0  0  0  0  0  0
   -1.6109   -1.2698    0.5109 C   0  0  0  0  0  0  0  0  0  0  0  0
   -0.8177   -2.3820    0.5066 O   0  0  0  0  0  0  0  0  0  0  0  0
   -0.3192   -1.4047   -0.3038 C   0  0  0  0  0  0  0  0  0  0  0  0
    3.2737    0.1896    0.5068 H   0  0  0  0  0  0  0  0  0  0  0  0
    2.4343   -0.9606   -0.5623 H   0  0  0  0  0  0  0  0  0  0  0  0
    2.3247    0.8017   -0.8667 H   0  0  0  0  0  0  0  0  0  0  0  0
   -1.2913    0.7707   -1.3031 H   0  0  0  0  0  0  0  0  0  0  0  0
    0.4301    0.9139   -1.7108 H   0  0  0  0  0  0  0  0  0  0  0  0
   -1.1439    2.4100    0.1769 H   0  0  0  0  0  0  0  0  0  0  0  0
   -0.6489   -0.4374    2.2470 H   0  0  0  0  0  0  0  0  0  0  0  0
   -1.6974    0.8031    1.3055 H   0  0  0  0  0  0  0  0  0  0  0  0
   -2.5077   -1.1778   -0.0962 H   0  0  0  0  0  0  0  0  0  0  0  0
   -0.4183   -1.5761   -1.3950 H   0  0  0  0  0  0  0  0  0  0  0  0
  1  2  1  0
  2  3  1  0
  3  4  1  0
  4  5  1  0
  3  6  1  0
  6  7  1  0
  7  8  1  0
  8  9  1  0
  9  3  1  0
  9  7  1  0
  1 10  1  0
  1 11  1  0
  1 12  1  0
  4 13  1  0
  4 14  1  0
  5 15  1  0
  6 16  1  0
  6 17  1  0
  7 18  1  0
  9 19  1  0
M  END
