
     RDKit          3D

 20 21  0  0  0  0  0  0  0  0999 V2000
    2.7152    1.5248    0.6053 C   0  0  0  0  0  0  0  0  0  0  0  0
    2.1132    0.3261    0.3000 O   0  0  0  0  0  0  0  0  0  0  0  0
    0.7936    0.2331    0.6322 C   0  0  0  0  0  0  0  0  0  0  0  0
    0.3506   -0.9314    1.4442 C   0  0  0  0  0  0  0  0  0  0  0  0
   -0.8298   -1.1615    0.5576 C   0  0  0  0  0  0  0  0  0  0  0  0
   -1.6195   -0.0942   -0.0477 C   0  0  0  0  0  0  0  0  0  0  0  0
   -2.5681   -0.4527   -1.1514 C   0  0  0  0  0  0  0  0  0  0  0  0
   -0.1749   -0.1632   -0.4343 C   0  0  0  0  0  0  0  0  0  0  0  0
    3.7839    1.4445    0.2747 H   0  0  0  0  0  0  0  0  0  0  0  0
    2.7366    1.7804    1.6655 H   0  0  0  0  0  0  0  0  0  0  0  0
    2.3014    2.3874    0.0080 H   0  0  0  0  0  0  0  0  0  0  0  0
    0.4515    1.1927    1.1070 H   0  0  0  0  0  0  0  0  0  0  0  0
    0.1451   -0.6704    2.4981 H   0  0  0  0  0  0  0  0  0  0  0  0
    1.0450   -1.8007    1.4259 H   0  0  0  0  0  0  0  0  0  0  0  0
   -0.9951   -2.1880    0.1809 H   0  0  0  0  0  0  0  0  0  0  0  0
   -1.9215    0.8037    0.5470 H   0  0  0  0  0  0  0  0  0  0  0  0
   -3.3873   -1.1228   -0.7872 H   0  0  0  0  0  0  0  0  0  0  0  0
   -2.0564   -1.0165   -1.9571 H   0  0  0  0  0  0  0  0  0  0  0  0
   -3.0199    0.4489   -1.6482 H   0  0  0  0  0  0  0  0  0  0  0  0
    0.1364   -0.5404   -1.4042 H   0  0  0  0  0  0  0  0  0  0  0  0
  1  2  1  0
  2  3  1  0
  3  4  1  0
  4  5  1  0
  5  6  1  0
  6  7  1  0
  6  8  1  0
  8  3  1  0
  8  5  1  0
  1  9  1  0
  1 10  1  0
  1 11  1  0
  3 12  1  0
  4 13  1  0
  4 14  1  0
  5 15  1  0
  6 16  1  0
  7 17  1  0
  7 18  1  0
  7 19  1  0
  8 20  1  0
M  END
