
     RDKit          3D

 19 20  0  0  0  0  0  0  0  0999 V2000
    2.7553   -0.5645   -0.0267 C   0  0  0  0  0  0  0  0  0  0  0  0
    1.6556    0.2335   -0.3333 O   0  0  0  0  0  0  0  0  0  0  0  0
    0.4728   -0.3029    0.1658 C   0  0  0  0  0  0  0  0  0  0  0  0
   -0.4309    0.7250    0.7991 C   0  0  0  0  0  0  0  0  0  0  0  0
   -0.4966    2.0605    0.1217 C   0  0  0  0  0  0  0  0  0  0  0  0
   -0.8224    1.3756   -1.0695 O   0  0  0  0  0  0  0  0  0  0  0  0
   -0.7652    0.1334   -0.4985 C   0  0  0  0  0  0  0  0  0  0  0  0
   -1.9376   -0.7708   -0.7140 C   0  0  0  0  0  0  0  0  0  0  0  0
   -1.7795   -2.0060   -0.0935 O   0  0  0  0  0  0  0  0  0  0  0  0
    2.5709   -1.5671   -0.4918 H   0  0  0  0  0  0  0  0  0  0  0  0
    3.6415   -0.0596   -0.4633 H   0  0  0  0  0  0  0  0  0  0  0  0
    2.8289   -0.6539    1.0899 H   0  0  0  0  0  0  0  0  0  0  0  0
    0.5158   -1.2484    0.7213 H   0  0  0  0  0  0  0  0  0  0  0  0
   -0.9541    0.5222    1.7312 H   0  0  0  0  0  0  0  0  0  0  0  0
    0.5033    2.5278   -0.0263 H   0  0  0  0  0  0  0  0  0  0  0  0
   -1.2908    2.7319    0.4852 H   0  0  0  0  0  0  0  0  0  0  0  0
   -2.0032   -0.9839   -1.8145 H   0  0  0  0  0  0  0  0  0  0  0  0
   -2.8793   -0.2692   -0.4475 H   0  0  0  0  0  0  0  0  0  0  0  0
   -1.5845   -1.8836    0.8646 H   0  0  0  0  0  0  0  0  0  0  0  0
  1  2  1  0
  2  3  1  0
  3  4  1  0
  4  5  1  0
  5  6  1  0
  6  7  1  0
  7  8  1  0
  8  9  1  0
  7  3  1  0
  7  4  1  0
  1 10  1  0
  1 11  1  0
  1 12  1  0
  3 13  1  0
  4 14  1  0
  5 15  1  0
  5 16  1  0
  8 17  1  0
  8 18  1  0
  9 19  1  0
M  END
