
     RDKit          3D

 21 22  0  0  0  0  0  0  0  0999 V2000
   -3.1658    0.0976    0.3093 C   0  0  0  0  0  0  0  0  0  0  0  0
   -2.0542   -0.1054   -0.4931 O   0  0  0  0  0  0  0  0  0  0  0  0
   -0.8641   -0.1377    0.1818 C   0  0  0  0  0  0  0  0  0  0  0  0
   -0.1230   -1.4283    0.0029 C   0  0  0  0  0  0  0  0  0  0  0  0
    1.2716   -1.0879    0.4805 C   0  0  0  0  0  0  0  0  0  0  0  0
    1.2967   -0.3019    1.6221 O   0  0  0  0  0  0  0  0  0  0  0  0
    1.3941    0.4117    0.4413 C   0  0  0  0  0  0  0  0  0  0  0  0
    2.7241    0.9394   -0.0033 C   0  0  0  0  0  0  0  0  0  0  0  0
    0.1325    0.8957   -0.2477 C   0  0  0  0  0  0  0  0  0  0  0  0
   -3.2966   -0.6811    1.0693 H   0  0  0  0  0  0  0  0  0  0  0  0
   -3.2104    1.1082    0.7411 H   0  0  0  0  0  0  0  0  0  0  0  0
   -4.0564    0.0249   -0.3771 H   0  0  0  0  0  0  0  0  0  0  0  0
   -1.0408    0.0110    1.2738 H   0  0  0  0  0  0  0  0  0  0  0  0
   -0.1094   -1.7669   -1.0523 H   0  0  0  0  0  0  0  0  0  0  0  0
   -0.5073   -2.2467    0.6610 H   0  0  0  0  0  0  0  0  0  0  0  0
    2.1214   -1.7271    0.2235 H   0  0  0  0  0  0  0  0  0  0  0  0
    3.4936    0.1793    0.2525 H   0  0  0  0  0  0  0  0  0  0  0  0
    2.7828    1.1172   -1.0779 H   0  0  0  0  0  0  0  0  0  0  0  0
    3.0143    1.8741    0.5307 H   0  0  0  0  0  0  0  0  0  0  0  0
    0.3357    0.8992   -1.3236 H   0  0  0  0  0  0  0  0  0  0  0  0
   -0.1390    1.9246    0.0775 H   0  0  0  0  0  0  0  0  0  0  0  0
  1  2  1  0
  2  3  1  0
  3  4  1  0
  4  5  1  0
  5  6  1  0
  6  7  1  0
  7  8  1  0
  7  9  1  0
  9  3  1  0
  7  5  1  0
  1 10  1  0
  1 11  1  0
  1 12  1  0
  3 13  1  0
  4 14  1  0
  4 15  1  0
  5 16  1  0
  8 17  1  0
  8 18  1  0
  8 19  1  0
  9 20  1  0
  9 21  1  0
M  END
