
     RDKit          3D

 21 22  0  0  0  0  0  0  0  0999 V2000
    2.7348    0.7727    0.6236 C   0  0  0  0  0  0  0  0  0  0  0  0
    1.4674    0.4683    1.1342 O   0  0  0  0  0  0  0  0  0  0  0  0
    0.7540   -0.1771    0.1469 C   0  0  0  0  0  0  0  0  0  0  0  0
    0.2503   -1.4149    0.6357 O   0  0  0  0  0  0  0  0  0  0  0  0
   -0.9400   -1.6689   -0.0440 C   0  0  0  0  0  0  0  0  0  0  0  0
   -0.9778   -0.6298   -1.0841 C   0  0  0  0  0  0  0  0  0  0  0  0
   -1.4041    0.7036   -1.1556 C   0  0  0  0  0  0  0  0  0  0  0  0
   -0.5470    0.5109   -0.0702 C   0  0  0  0  0  0  0  0  0  0  0  0
   -1.2621    0.4803    1.2925 C   0  0  0  0  0  0  0  0  0  0  0  0
    3.3075    1.2848    1.4001 H   0  0  0  0  0  0  0  0  0  0  0  0
    2.6219    1.4729   -0.2337 H   0  0  0  0  0  0  0  0  0  0  0  0
    3.2228   -0.1547    0.2847 H   0  0  0  0  0  0  0  0  0  0  0  0
    1.2970   -0.3132   -0.7886 H   0  0  0  0  0  0  0  0  0  0  0  0
   -1.8238   -1.7724    0.5817 H   0  0  0  0  0  0  0  0  0  0  0  0
   -0.7969   -2.6940   -0.5047 H   0  0  0  0  0  0  0  0  0  0  0  0
   -0.2017   -0.8808   -1.8790 H   0  0  0  0  0  0  0  0  0  0  0  0
   -2.5072    0.8997   -1.0052 H   0  0  0  0  0  0  0  0  0  0  0  0
   -1.0613    1.3999   -1.9778 H   0  0  0  0  0  0  0  0  0  0  0  0
   -2.3119    0.8017    1.2282 H   0  0  0  0  0  0  0  0  0  0  0  0
   -0.7412    1.3183    1.8496 H   0  0  0  0  0  0  0  0  0  0  0  0
   -1.0806   -0.4073    1.8793 H   0  0  0  0  0  0  0  0  0  0  0  0
  1  2  1  0
  2  3  1  0
  3  4  1  0
  4  5  1  0
  5  6  1  0
  6  7  1  0
  7  8  1  0
  8  9  1  0
  8  3  1  0
  8  6  1  0
  1 10  1  0
  1 11  1  0
  1 12  1  0
  3 13  1  0
  5 14  1  0
  5 15  1  0
  6 16  1  0
  7 17  1  0
  7 18  1  0
  9 19  1  0
  9 20  1  0
  9 21  1  0
M  END
