
     RDKit          3D

 21 22  0  0  0  0  0  0  0  0999 V2000
    2.8908    0.5987   -0.4777 C   0  0  0  0  0  0  0  0  0  0  0  0
    1.9019   -0.2686   -0.8544 O   0  0  0  0  0  0  0  0  0  0  0  0
    0.8153   -0.2627   -0.2366 C   0  0  0  0  0  0  0  0  0  0  0  0
   -0.1564    0.8855   -0.0827 C   0  0  0  0  0  0  0  0  0  0  0  0
   -0.7840   -0.2251    0.7237 C   0  0  0  0  0  0  0  0  0  0  0  0
   -1.8734   -0.2327    1.3305 O   0  0  0  0  0  0  0  0  0  0  0  0
   -2.9725   -0.0115    0.5018 C   0  0  0  0  0  0  0  0  0  0  0  0
    0.5949   -0.4820    1.2466 C   0  0  0  0  0  0  0  0  0  0  0  0
   -0.3781   -1.1295   -0.4391 C   0  0  0  0  0  0  0  0  0  0  0  0
    2.5086    1.6308   -0.5805 H   0  0  0  0  0  0  0  0  0  0  0  0
    3.7670    0.4267   -1.1478 H   0  0  0  0  0  0  0  0  0  0  0  0
    3.2274    0.3608    0.5518 H   0  0  0  0  0  0  0  0  0  0  0  0
    0.2558    1.6832    0.5558 H   0  0  0  0  0  0  0  0  0  0  0  0
   -0.6894    1.2002   -0.9796 H   0  0  0  0  0  0  0  0  0  0  0  0
   -3.0018   -0.8194   -0.2707 H   0  0  0  0  0  0  0  0  0  0  0  0
   -2.7885    0.9291   -0.0650 H   0  0  0  0  0  0  0  0  0  0  0  0
   -3.9203    0.0016    1.0428 H   0  0  0  0  0  0  0  0  0  0  0  0
    0.8035   -1.5030    1.6073 H   0  0  0  0  0  0  0  0  0  0  0  0
    0.9499    0.3533    1.8575 H   0  0  0  0  0  0  0  0  0  0  0  0
   -0.1761   -2.1703   -0.1539 H   0  0  0  0  0  0  0  0  0  0  0  0
   -0.9746   -0.9654   -1.3553 H   0  0  0  0  0  0  0  0  0  0  0  0
  1  2  1  0
  2  3  1  0
  3  4  1  0
  4  5  1  0
  5  6  1  0
  6  7  1  0
  5  8  1  0
  5  9  1  0
  8  3  1  0
  9  3  1  0
  1 10  1  0
  1 11  1  0
  1 12  1  0
  4 13  1  0
  4 14  1  0
  7 15  1  0
  7 16  1  0
  7 17  1  0
  8 18  1  0
  8 19  1  0
  9 20  1  0
  9 21  1  0
M  END
