
     RDKit          3D

 21 21  0  0  0  0  0  0  0  0999 V2000
    2.5172   -1.0370   -0.9159 C   0  0  0  0  0  0  0  0  0  0  0  0
    1.4294   -0.1733   -0.9851 O   0  0  0  0  0  0  0  0  0  0  0  0
    0.8064   -0.1327    0.2249 C   0  0  0  0  0  0  0  0  0  0  0  0
    0.5475    1.3209    0.7099 C   0  0  0  0  0  0  0  0  0  0  0  0
   -0.5550    0.3346    0.4656 C   0  0  0  0  0  0  0  0  0  0  0  0
   -1.2426   -0.1460    1.7329 C   0  0  0  0  0  0  0  0  0  0  0  0
   -1.5016    0.7172   -0.6354 C   0  0  0  0  0  0  0  0  0  0  0  0
   -1.7713   -0.4085   -1.5679 C   0  0  0  0  0  0  0  0  0  0  0  0
   -2.5295   -0.1891   -2.4926 O   0  0  0  0  0  0  0  0  0  0  0  0
    2.1943   -2.0783   -0.6439 H   0  0  0  0  0  0  0  0  0  0  0  0
    3.1386   -1.0232   -1.8374 H   0  0  0  0  0  0  0  0  0  0  0  0
    3.2256   -0.7439   -0.0892 H   0  0  0  0  0  0  0  0  0  0  0  0
    1.2587   -0.7668    1.0112 H   0  0  0  0  0  0  0  0  0  0  0  0
    0.8341    1.5637    1.7504 H   0  0  0  0  0  0  0  0  0  0  0  0
    0.7304    2.1437    0.0049 H   0  0  0  0  0  0  0  0  0  0  0  0
   -1.9265    0.6875    2.0377 H   0  0  0  0  0  0  0  0  0  0  0  0
   -1.7703   -1.0930    1.5827 H   0  0  0  0  0  0  0  0  0  0  0  0
   -0.4548   -0.2546    2.5044 H   0  0  0  0  0  0  0  0  0  0  0  0
   -2.4504    1.0600   -0.1687 H   0  0  0  0  0  0  0  0  0  0  0  0
   -1.1297    1.6128   -1.2006 H   0  0  0  0  0  0  0  0  0  0  0  0
   -1.3505   -1.3940   -1.4877 H   0  0  0  0  0  0  0  0  0  0  0  0
  1  2  1  0
  2  3  1  0
  3  4  1  0
  4  5  1  0
  5  6  1  0
  5  7  1  0
  7  8  1  0
  8  9  2  0
  5  3  1  0
  1 10  1  0
  1 11  1  0
  1 12  1  0
  3 13  1  0
  4 14  1  0
  4 15  1  0
  6 16  1  0
  6 17  1  0
  6 18  1  0
  7 19  1  0
  7 20  1  0
  8 21  1  0
M  END
