
     RDKit          3D

 23 24  0  0  0  0  0  0  0  0999 V2000
    2.1275   -1.0925    0.7024 C   0  0  0  0  0  0  0  0  0  0  0  0
    1.8868    0.1267    0.1369 O   0  0  0  0  0  0  0  0  0  0  0  0
    0.5998    0.3909   -0.2194 C   0  0  0  0  0  0  0  0  0  0  0  0
    0.5687    1.7969   -0.8248 C   0  0  0  0  0  0  0  0  0  0  0  0
   -0.0115   -0.5319   -1.2083 C   0  0  0  0  0  0  0  0  0  0  0  0
   -1.2684   -1.1102   -0.5973 C   0  0  0  0  0  0  0  0  0  0  0  0
   -1.3898   -0.5635    0.7870 C   0  0  0  0  0  0  0  0  0  0  0  0
   -1.7116    0.9201    0.8420 C   0  0  0  0  0  0  0  0  0  0  0  0
   -0.3126    0.4278    0.9909 C   0  0  0  0  0  0  0  0  0  0  0  0
    1.8567   -1.9575    0.0270 H   0  0  0  0  0  0  0  0  0  0  0  0
    3.2252   -1.1920    0.8510 H   0  0  0  0  0  0  0  0  0  0  0  0
    1.6730   -1.2301    1.7109 H   0  0  0  0  0  0  0  0  0  0  0  0
    1.5412    2.3159   -0.6939 H   0  0  0  0  0  0  0  0  0  0  0  0
    0.4047    1.7449   -1.9361 H   0  0  0  0  0  0  0  0  0  0  0  0
   -0.2016    2.4287   -0.3721 H   0  0  0  0  0  0  0  0  0  0  0  0
    0.6203   -1.3747   -1.5182 H   0  0  0  0  0  0  0  0  0  0  0  0
   -0.3154   -0.0145   -2.1649 H   0  0  0  0  0  0  0  0  0  0  0  0
   -1.2734   -2.2166   -0.6238 H   0  0  0  0  0  0  0  0  0  0  0  0
   -2.1806   -0.7945   -1.1666 H   0  0  0  0  0  0  0  0  0  0  0  0
   -1.7458   -1.2148    1.6071 H   0  0  0  0  0  0  0  0  0  0  0  0
   -2.0076    1.4378   -0.0878 H   0  0  0  0  0  0  0  0  0  0  0  0
   -2.2169    1.2437    1.7538 H   0  0  0  0  0  0  0  0  0  0  0  0
    0.1314    0.4594    2.0041 H   0  0  0  0  0  0  0  0  0  0  0  0
  1  2  1  0
  2  3  1  0
  3  4  1  0
  3  5  1  0
  5  6  1  0
  6  7  1  0
  7  8  1  0
  8  9  1  0
  9  3  1  0
  9  7  1  0
  1 10  1  0
  1 11  1  0
  1 12  1  0
  4 13  1  0
  4 14  1  0
  4 15  1  0
  5 16  1  0
  5 17  1  0
  6 18  1  0
  6 19  1  0
  7 20  1  0
  8 21  1  0
  8 22  1  0
  9 23  1  0
M  END
