
     RDKit          3D

 21 22  0  0  0  0  0  0  0  0999 V2000
    2.6702   -0.1575   -0.5860 C   0  0  0  0  0  0  0  0  0  0  0  0
    1.6456   -0.9655   -0.1965 O   0  0  0  0  0  0  0  0  0  0  0  0
    0.4293   -0.3999   -0.0669 C   0  0  0  0  0  0  0  0  0  0  0  0
    0.2929    0.6924    0.9292 C   0  0  0  0  0  0  0  0  0  0  0  0
   -0.9538    1.4328    0.4199 C   0  0  0  0  0  0  0  0  0  0  0  0
   -1.3543    0.5556   -0.7374 C   0  0  0  0  0  0  0  0  0  0  0  0
   -1.8831   -0.7358   -0.1766 C   0  0  0  0  0  0  0  0  0  0  0  0
   -0.6093   -1.4773    0.1948 C   0  0  0  0  0  0  0  0  0  0  0  0
   -0.0827    0.1791   -1.2317 O   0  0  0  0  0  0  0  0  0  0  0  0
    3.5988   -0.7918   -0.6408 H   0  0  0  0  0  0  0  0  0  0  0  0
    2.5355    0.3761   -1.5297 H   0  0  0  0  0  0  0  0  0  0  0  0
    2.8947    0.5740    0.2435 H   0  0  0  0  0  0  0  0  0  0  0  0
    1.1367    1.4022    0.8690 H   0  0  0  0  0  0  0  0  0  0  0  0
    0.1121    0.2923    1.9326 H   0  0  0  0  0  0  0  0  0  0  0  0
   -0.7063    2.4681    0.1129 H   0  0  0  0  0  0  0  0  0  0  0  0
   -1.7595    1.4024    1.1703 H   0  0  0  0  0  0  0  0  0  0  0  0
   -1.9774    1.0284   -1.4793 H   0  0  0  0  0  0  0  0  0  0  0  0
   -2.4259   -0.4895    0.7712 H   0  0  0  0  0  0  0  0  0  0  0  0
   -2.5251   -1.2970   -0.8593 H   0  0  0  0  0  0  0  0  0  0  0  0
   -0.4296   -2.3612   -0.4156 H   0  0  0  0  0  0  0  0  0  0  0  0
   -0.6089   -1.7280    1.2763 H   0  0  0  0  0  0  0  0  0  0  0  0
  1  2  1  0
  2  3  1  0
  3  4  1  0
  4  5  1  0
  5  6  1  0
  6  7  1  0
  7  8  1  0
  6  9  1  0
  8  3  1  0
  9  3  1  0
  1 10  1  0
  1 11  1  0
  1 12  1  0
  4 13  1  0
  4 14  1  0
  5 15  1  0
  5 16  1  0
  6 17  1  0
  7 18  1  0
  7 19  1  0
  8 20  1  0
  8 21  1  0
M  END
