
     RDKit          3D

 19 21  0  0  0  0  0  0  0  0999 V2000
    2.6689    0.3255   -0.2339 C   0  0  0  0  0  0  0  0  0  0  0  0
    1.3242    0.5023   -0.6346 O   0  0  0  0  0  0  0  0  0  0  0  0
    0.5435   -0.1204    0.3011 C   0  0  0  0  0  0  0  0  0  0  0  0
   -0.4133   -1.1385   -0.2801 C   0  0  0  0  0  0  0  0  0  0  0  0
   -1.3690   -0.2110   -1.0342 C   0  0  0  0  0  0  0  0  0  0  0  0
   -1.7207    0.7040    0.1502 C   0  0  0  0  0  0  0  0  0  0  0  0
   -1.5869   -0.2173    1.2870 C   0  0  0  0  0  0  0  0  0  0  0  0
   -1.1644   -1.4552    0.8251 O   0  0  0  0  0  0  0  0  0  0  0  0
   -0.4916    0.7884    0.9327 C   0  0  0  0  0  0  0  0  0  0  0  0
    3.3755    0.7893   -0.9201 H   0  0  0  0  0  0  0  0  0  0  0  0
    2.7153    0.7732    0.7973 H   0  0  0  0  0  0  0  0  0  0  0  0
    2.7964   -0.7713   -0.1120 H   0  0  0  0  0  0  0  0  0  0  0  0
    1.1044   -0.5994    1.1212 H   0  0  0  0  0  0  0  0  0  0  0  0
    0.0102   -1.9205   -0.8534 H   0  0  0  0  0  0  0  0  0  0  0  0
   -0.8180    0.3497   -1.7864 H   0  0  0  0  0  0  0  0  0  0  0  0
   -2.2564   -0.7482   -1.4025 H   0  0  0  0  0  0  0  0  0  0  0  0
   -2.4711    1.4669    0.0380 H   0  0  0  0  0  0  0  0  0  0  0  0
   -2.0285   -0.0814    2.2624 H   0  0  0  0  0  0  0  0  0  0  0  0
   -0.2188    1.5638    1.6283 H   0  0  0  0  0  0  0  0  0  0  0  0
  1  2  1  0
  2  3  1  0
  3  4  1  0
  4  5  1  0
  5  6  1  0
  6  7  1  0
  7  8  1  0
  7  9  1  0
  9  3  1  0
  8  4  1  0
  9  6  1  0
  1 10  1  0
  1 11  1  0
  1 12  1  0
  3 13  1  0
  4 14  1  0
  5 15  1  0
  5 16  1  0
  6 17  1  0
  7 18  1  0
  9 19  1  0
M  END
