
     RDKit          3D

 23 23  0  0  0  0  0  0  0  0999 V2000
    1.9107   -1.8209    0.4094 C   0  0  0  0  0  0  0  0  0  0  0  0
    0.6717   -1.1928    0.5473 O   0  0  0  0  0  0  0  0  0  0  0  0
    0.5110   -0.2625   -0.4797 C   0  0  0  0  0  0  0  0  0  0  0  0
   -0.7669   -0.5592   -1.2679 C   0  0  0  0  0  0  0  0  0  0  0  0
   -1.8297   -0.8590   -0.2561 C   0  0  0  0  0  0  0  0  0  0  0  0
   -2.0621    0.3314    0.6040 C   0  0  0  0  0  0  0  0  0  0  0  0
   -0.9335    1.2773    0.6522 C   0  0  0  0  0  0  0  0  0  0  0  0
    0.2711    1.0587    0.1707 C   0  0  0  0  0  0  0  0  0  0  0  0
    1.3950    2.0217    0.2279 C   0  0  0  0  0  0  0  0  0  0  0  0
    2.6992   -1.0352    0.4695 H   0  0  0  0  0  0  0  0  0  0  0  0
    2.1100   -2.5424    1.1975 H   0  0  0  0  0  0  0  0  0  0  0  0
    1.9393   -2.3507   -0.5668 H   0  0  0  0  0  0  0  0  0  0  0  0
    1.3942   -0.2590   -1.1334 H   0  0  0  0  0  0  0  0  0  0  0  0
   -1.0454    0.4015   -1.7664 H   0  0  0  0  0  0  0  0  0  0  0  0
   -0.6223   -1.3461   -2.0109 H   0  0  0  0  0  0  0  0  0  0  0  0
   -1.6015   -1.7742    0.3336 H   0  0  0  0  0  0  0  0  0  0  0  0
   -2.7640   -1.1044   -0.8346 H   0  0  0  0  0  0  0  0  0  0  0  0
   -2.3417    0.0483    1.6552 H   0  0  0  0  0  0  0  0  0  0  0  0
   -2.9431    0.8914    0.2012 H   0  0  0  0  0  0  0  0  0  0  0  0
   -1.1091    2.2407    1.1268 H   0  0  0  0  0  0  0  0  0  0  0  0
    2.1840    1.6619    0.9374 H   0  0  0  0  0  0  0  0  0  0  0  0
    1.1003    3.0211    0.5720 H   0  0  0  0  0  0  0  0  0  0  0  0
    1.8328    2.1523   -0.7888 H   0  0  0  0  0  0  0  0  0  0  0  0
  1  2  1  0
  2  3  1  0
  3  4  1  0
  4  5  1  0
  5  6  1  0
  6  7  1  0
  7  8  2  0
  8  9  1  0
  8  3  1  0
  1 10  1  0
  1 11  1  0
  1 12  1  0
  3 13  1  0
  4 14  1  0
  4 15  1  0
  5 16  1  0
  5 17  1  0
  6 18  1  0
  6 19  1  0
  7 20  1  0
  9 21  1  0
  9 22  1  0
  9 23  1  0
M  END
