
     RDKit          3D

 19 19  0  0  0  0  0  0  0  0999 V2000
    2.8732    0.7309   -0.1338 C   0  0  0  0  0  0  0  0  0  0  0  0
    1.6528    0.6352    0.5299 O   0  0  0  0  0  0  0  0  0  0  0  0
    0.7954   -0.0844   -0.2964 C   0  0  0  0  0  0  0  0  0  0  0  0
    0.2178   -1.2660    0.4425 C   0  0  0  0  0  0  0  0  0  0  0  0
   -1.2154   -1.1821    0.1526 C   0  0  0  0  0  0  0  0  0  0  0  0
   -2.0737   -1.9469    0.5206 O   0  0  0  0  0  0  0  0  0  0  0  0
   -1.4237    0.0139   -0.6761 C   0  0  0  0  0  0  0  0  0  0  0  0
   -2.5412    0.8852   -0.1532 C   0  0  0  0  0  0  0  0  0  0  0  0
   -0.2550    0.7581   -0.6268 O   0  0  0  0  0  0  0  0  0  0  0  0
    3.2248   -0.3086   -0.2953 H   0  0  0  0  0  0  0  0  0  0  0  0
    3.5979    1.3358    0.4473 H   0  0  0  0  0  0  0  0  0  0  0  0
    2.7243    1.1715   -1.1535 H   0  0  0  0  0  0  0  0  0  0  0  0
    1.2949   -0.3818   -1.2350 H   0  0  0  0  0  0  0  0  0  0  0  0
    0.3541   -1.1675    1.5466 H   0  0  0  0  0  0  0  0  0  0  0  0
    0.7065   -2.1851    0.1181 H   0  0  0  0  0  0  0  0  0  0  0  0
   -1.5941   -0.2941   -1.7156 H   0  0  0  0  0  0  0  0  0  0  0  0
   -2.3142    1.0847    0.9249 H   0  0  0  0  0  0  0  0  0  0  0  0
   -2.5130    1.8345   -0.7458 H   0  0  0  0  0  0  0  0  0  0  0  0
   -3.5115    0.3669   -0.2460 H   0  0  0  0  0  0  0  0  0  0  0  0
  1  2  1  0
  2  3  1  0
  3  4  1  0
  4  5  1  0
  5  6  2  0
  5  7  1  0
  7  8  1  0
  7  9  1  0
  9  3  1  0
  1 10  1  0
  1 11  1  0
  1 12  1  0
  3 13  1  0
  4 14  1  0
  4 15  1  0
  7 16  1  0
  8 17  1  0
  8 18  1  0
  8 19  1  0
M  END
