
     RDKit          3D

 21 22  0  0  0  0  0  0  0  0999 V2000
    3.1613    0.7524    0.0866 C   0  0  0  0  0  0  0  0  0  0  0  0
    2.1445    0.1609    0.8101 O   0  0  0  0  0  0  0  0  0  0  0  0
    0.9735   -0.0060    0.1002 C   0  0  0  0  0  0  0  0  0  0  0  0
    0.2816   -1.3207    0.4231 C   0  0  0  0  0  0  0  0  0  0  0  0
   -0.5788   -1.8364   -0.6420 C   0  0  0  0  0  0  0  0  0  0  0  0
   -1.6764   -1.1025   -0.7498 C   0  0  0  0  0  0  0  0  0  0  0  0
   -1.6355   -0.0046    0.2654 C   0  0  0  0  0  0  0  0  0  0  0  0
   -2.1266    1.2976   -0.2599 C   0  0  0  0  0  0  0  0  0  0  0  0
   -0.2768    0.0130    0.8548 C   0  0  0  0  0  0  0  0  0  0  0  0
    3.4434    0.1612   -0.8155 H   0  0  0  0  0  0  0  0  0  0  0  0
    4.0626    0.7698    0.7339 H   0  0  0  0  0  0  0  0  0  0  0  0
    2.9488    1.7966   -0.1972 H   0  0  0  0  0  0  0  0  0  0  0  0
    0.9473    0.3373   -0.9570 H   0  0  0  0  0  0  0  0  0  0  0  0
    0.6400   -1.9434    1.2466 H   0  0  0  0  0  0  0  0  0  0  0  0
   -0.3761   -2.6902   -1.2678 H   0  0  0  0  0  0  0  0  0  0  0  0
   -2.5025   -1.2252   -1.4378 H   0  0  0  0  0  0  0  0  0  0  0  0
   -2.3577   -0.3290    1.0719 H   0  0  0  0  0  0  0  0  0  0  0  0
   -2.7109    1.8294    0.5235 H   0  0  0  0  0  0  0  0  0  0  0  0
   -2.8289    1.0883   -1.0966 H   0  0  0  0  0  0  0  0  0  0  0  0
   -1.3041    1.9425   -0.6160 H   0  0  0  0  0  0  0  0  0  0  0  0
   -0.2287    0.3090    1.9234 H   0  0  0  0  0  0  0  0  0  0  0  0
  1  2  1  0
  2  3  1  0
  3  4  1  0
  4  5  1  0
  5  6  2  0
  6  7  1  0
  7  8  1  0
  7  9  1  0
  9  3  1  0
  9  4  1  0
  1 10  1  0
  1 11  1  0
  1 12  1  0
  3 13  1  0
  4 14  1  0
  5 15  1  0
  6 16  1  0
  7 17  1  0
  8 18  1  0
  8 19  1  0
  8 20  1  0
  9 21  1  0
M  END
