
     RDKit          3D

 22 22  0  0  0  0  0  0  0  0999 V2000
    1.8656    1.1725   -0.7628 C   0  0  0  0  0  0  0  0  0  0  0  0
    0.8746    0.9412    0.1640 O   0  0  0  0  0  0  0  0  0  0  0  0
    0.4669   -0.3571    0.2781 C   0  0  0  0  0  0  0  0  0  0  0  0
    1.4298   -1.4508    0.6732 C   0  0  0  0  0  0  0  0  0  0  0  0
   -0.7154   -0.7188   -0.5913 C   0  0  0  0  0  0  0  0  0  0  0  0
   -1.3100    0.2991   -1.5153 C   0  0  0  0  0  0  0  0  0  0  0  0
   -0.9277   -0.5552    0.8549 C   0  0  0  0  0  0  0  0  0  0  0  0
   -1.5997    0.6722    1.4281 C   0  0  0  0  0  0  0  0  0  0  0  0
    1.6276    0.9097   -1.7857 H   0  0  0  0  0  0  0  0  0  0  0  0
    2.8018    0.7092   -0.3676 H   0  0  0  0  0  0  0  0  0  0  0  0
    2.0680    2.2763   -0.7473 H   0  0  0  0  0  0  0  0  0  0  0  0
    1.4545   -2.2259   -0.1152 H   0  0  0  0  0  0  0  0  0  0  0  0
    2.4194   -1.0580    0.9078 H   0  0  0  0  0  0  0  0  0  0  0  0
    1.0836   -1.9927    1.6021 H   0  0  0  0  0  0  0  0  0  0  0  0
   -0.7487   -1.7648   -1.0155 H   0  0  0  0  0  0  0  0  0  0  0  0
   -2.2504   -0.1278   -1.9213 H   0  0  0  0  0  0  0  0  0  0  0  0
   -1.5728    1.2491   -1.0341 H   0  0  0  0  0  0  0  0  0  0  0  0
   -0.6662    0.5413   -2.3872 H   0  0  0  0  0  0  0  0  0  0  0  0
   -1.1518   -1.4763    1.4218 H   0  0  0  0  0  0  0  0  0  0  0  0
   -1.2346    1.6136    0.9447 H   0  0  0  0  0  0  0  0  0  0  0  0
   -2.6846    0.5945    1.4755 H   0  0  0  0  0  0  0  0  0  0  0  0
   -1.2299    0.7487    2.4929 H   0  0  0  0  0  0  0  0  0  0  0  0
  1  2  1  0
  2  3  1  0
  3  4  1  0
  3  5  1  0
  5  6  1  0
  5  7  1  0
  7  8  1  0
  7  3  1  0
  1  9  1  0
  1 10  1  0
  1 11  1  0
  4 12  1  0
  4 13  1  0
  4 14  1  0
  5 15  1  0
  6 16  1  0
  6 17  1  0
  6 18  1  0
  7 19  1  0
  8 20  1  0
  8 21  1  0
  8 22  1  0
M  END
