
     RDKit          3D

 21 22  0  0  0  0  0  0  0  0999 V2000
   -2.6536    1.0237   -0.9630 C   0  0  0  0  0  0  0  0  0  0  0  0
   -1.3009    0.8141   -0.6442 O   0  0  0  0  0  0  0  0  0  0  0  0
   -1.1249   -0.4307   -0.0658 C   0  0  0  0  0  0  0  0  0  0  0  0
    0.1361   -1.1204   -0.5337 C   0  0  0  0  0  0  0  0  0  0  0  0
    0.1510   -1.7755    0.8090 C   0  0  0  0  0  0  0  0  0  0  0  0
   -0.2003   -0.3442    1.1158 C   0  0  0  0  0  0  0  0  0  0  0  0
    0.8555    0.0240    0.1181 C   0  0  0  0  0  0  0  0  0  0  0  0
    2.1561   -0.1798    0.4835 O   0  0  0  0  0  0  0  0  0  0  0  0
    2.8761    0.9722    0.1679 C   0  0  0  0  0  0  0  0  0  0  0  0
   -2.7700    2.0118   -1.4182 H   0  0  0  0  0  0  0  0  0  0  0  0
   -3.2610    0.9595   -0.0210 H   0  0  0  0  0  0  0  0  0  0  0  0
   -2.9351    0.2432   -1.6971 H   0  0  0  0  0  0  0  0  0  0  0  0
   -2.0072   -1.0572    0.0627 H   0  0  0  0  0  0  0  0  0  0  0  0
    0.3017   -1.5227   -1.4313 H   0  0  0  0  0  0  0  0  0  0  0  0
   -0.6978   -2.4761    0.9309 H   0  0  0  0  0  0  0  0  0  0  0  0
    1.1152   -2.1265    1.1880 H   0  0  0  0  0  0  0  0  0  0  0  0
   -0.3808    0.0623    2.0080 H   0  0  0  0  0  0  0  0  0  0  0  0
    0.6389    1.0025   -0.3295 H   0  0  0  0  0  0  0  0  0  0  0  0
    3.9455    0.8698    0.4417 H   0  0  0  0  0  0  0  0  0  0  0  0
    2.7455    1.1970   -0.9195 H   0  0  0  0  0  0  0  0  0  0  0  0
    2.4103    1.8529    0.6978 H   0  0  0  0  0  0  0  0  0  0  0  0
  1  2  1  0
  2  3  1  0
  3  4  1  0
  4  5  1  0
  5  6  1  0
  6  7  1  0
  7  8  1  0
  8  9  1  0
  6  3  1  0
  7  4  1  0
  1 10  1  0
  1 11  1  0
  1 12  1  0
  3 13  1  0
  4 14  1  0
  5 15  1  0
  5 16  1  0
  6 17  1  0
  7 18  1  0
  9 19  1  0
  9 20  1  0
  9 21  1  0
M  END
