
     RDKit          3D

 23 23  0  0  0  0  0  0  0  0999 V2000
   -1.7231    1.7482   -0.0729 C   0  0  0  0  0  0  0  0  0  0  0  0
   -1.5121    0.5017   -0.6035 O   0  0  0  0  0  0  0  0  0  0  0  0
   -0.5484   -0.2570   -0.0071 C   0  0  0  0  0  0  0  0  0  0  0  0
    0.8039    0.3450   -0.0339 C   0  0  0  0  0  0  0  0  0  0  0  0
    1.2982    0.5908   -1.4409 C   0  0  0  0  0  0  0  0  0  0  0  0
    1.8425   -0.4599    0.7191 C   0  0  0  0  0  0  0  0  0  0  0  0
   -0.6484   -1.7045   -0.4337 C   0  0  0  0  0  0  0  0  0  0  0  0
   -0.3417   -2.0633    0.8781 O   0  0  0  0  0  0  0  0  0  0  0  0
   -0.9832   -0.9001    1.2837 C   0  0  0  0  0  0  0  0  0  0  0  0
   -2.5288    2.3069   -0.5998 H   0  0  0  0  0  0  0  0  0  0  0  0
   -1.9916    1.6646    0.9783 H   0  0  0  0  0  0  0  0  0  0  0  0
   -0.8108    2.3720   -0.1818 H   0  0  0  0  0  0  0  0  0  0  0  0
    0.7723    1.3276    0.4765 H   0  0  0  0  0  0  0  0  0  0  0  0
    0.8753   -0.1193   -2.1716 H   0  0  0  0  0  0  0  0  0  0  0  0
    2.3978    0.5490   -1.4512 H   0  0  0  0  0  0  0  0  0  0  0  0
    1.0071    1.6144   -1.7911 H   0  0  0  0  0  0  0  0  0  0  0  0
    2.1845   -1.3521    0.1541 H   0  0  0  0  0  0  0  0  0  0  0  0
    1.4693   -0.8306    1.6882 H   0  0  0  0  0  0  0  0  0  0  0  0
    2.7422    0.1491    0.9455 H   0  0  0  0  0  0  0  0  0  0  0  0
   -1.7055   -1.9576   -0.6660 H   0  0  0  0  0  0  0  0  0  0  0  0
    0.0976   -2.0393   -1.1750 H   0  0  0  0  0  0  0  0  0  0  0  0
   -2.0693   -1.0532    1.3006 H   0  0  0  0  0  0  0  0  0  0  0  0
   -0.6278   -0.4326    2.2046 H   0  0  0  0  0  0  0  0  0  0  0  0
  1  2  1  0
  2  3  1  0
  3  4  1  0
  4  5  1  0
  4  6  1  0
  3  7  1  0
  7  8  1  0
  8  9  1  0
  9  3  1  0
  1 10  1  0
  1 11  1  0
  1 12  1  0
  4 13  1  0
  5 14  1  0
  5 15  1  0
  5 16  1  0
  6 17  1  0
  6 18  1  0
  6 19  1  0
  7 20  1  0
  7 21  1  0
  9 22  1  0
  9 23  1  0
M  END
