
     RDKit          3D

 21 22  0  0  0  0  0  0  0  0999 V2000
    3.1808   -0.4019   -0.6001 C   0  0  0  0  0  0  0  0  0  0  0  0
    2.0002    0.2441   -0.9105 O   0  0  0  0  0  0  0  0  0  0  0  0
    1.0499    0.1423    0.0886 C   0  0  0  0  0  0  0  0  0  0  0  0
    0.2915    1.4157    0.3884 C   0  0  0  0  0  0  0  0  0  0  0  0
   -1.0249    0.7669    0.1693 C   0  0  0  0  0  0  0  0  0  0  0  0
   -1.9355    1.4475   -0.6161 O   0  0  0  0  0  0  0  0  0  0  0  0
   -1.3227   -0.6328    0.4755 C   0  0  0  0  0  0  0  0  0  0  0  0
   -2.5944   -1.2157   -0.1051 C   0  0  0  0  0  0  0  0  0  0  0  0
   -0.2457   -0.3959   -0.4883 C   0  0  0  0  0  0  0  0  0  0  0  0
    3.5863    0.0656    0.3291 H   0  0  0  0  0  0  0  0  0  0  0  0
    3.8755   -0.2433   -1.4628 H   0  0  0  0  0  0  0  0  0  0  0  0
    3.0484   -1.4825   -0.3849 H   0  0  0  0  0  0  0  0  0  0  0  0
    1.3376   -0.4239    0.9853 H   0  0  0  0  0  0  0  0  0  0  0  0
    0.4850    1.8565    1.3845 H   0  0  0  0  0  0  0  0  0  0  0  0
    0.5057    2.1753   -0.3928 H   0  0  0  0  0  0  0  0  0  0  0  0
   -2.1485    2.2928   -0.1444 H   0  0  0  0  0  0  0  0  0  0  0  0
   -1.0611   -0.9997    1.4839 H   0  0  0  0  0  0  0  0  0  0  0  0
   -2.6448   -1.0722   -1.2046 H   0  0  0  0  0  0  0  0  0  0  0  0
   -2.5299   -2.3294    0.0598 H   0  0  0  0  0  0  0  0  0  0  0  0
   -3.4722   -0.7738    0.4063 H   0  0  0  0  0  0  0  0  0  0  0  0
   -0.3811   -0.4358   -1.5758 H   0  0  0  0  0  0  0  0  0  0  0  0
  1  2  1  0
  2  3  1  0
  3  4  1  0
  4  5  1  0
  5  6  1  0
  5  7  1  0
  7  8  1  0
  7  9  1  0
  9  3  1  0
  9  5  1  0
  1 10  1  0
  1 11  1  0
  1 12  1  0
  3 13  1  0
  4 14  1  0
  4 15  1  0
  6 16  1  0
  7 17  1  0
  8 18  1  0
  8 19  1  0
  8 20  1  0
  9 21  1  0
M  END
