
     RDKit          3D

 21 22  0  0  0  0  0  0  0  0999 V2000
   -0.3564    2.4404   -0.0306 C   0  0  0  0  0  0  0  0  0  0  0  0
   -0.3091    1.2083   -0.6528 O   0  0  0  0  0  0  0  0  0  0  0  0
    0.1636    0.2450    0.2425 C   0  0  0  0  0  0  0  0  0  0  0  0
   -0.6613    0.0770    1.4547 C   0  0  0  0  0  0  0  0  0  0  0  0
   -0.7428   -0.9912    0.4686 C   0  0  0  0  0  0  0  0  0  0  0  0
   -1.7988   -1.1591   -0.5481 C   0  0  0  0  0  0  0  0  0  0  0  0
    0.3943   -1.8278    0.4125 O   0  0  0  0  0  0  0  0  0  0  0  0
    0.9338   -0.8516   -0.3990 C   0  0  0  0  0  0  0  0  0  0  0  0
    2.4213   -0.8065   -0.3092 C   0  0  0  0  0  0  0  0  0  0  0  0
    0.6617    2.7650    0.3306 H   0  0  0  0  0  0  0  0  0  0  0  0
   -1.1209    2.5138    0.7650 H   0  0  0  0  0  0  0  0  0  0  0  0
   -0.6428    3.2143   -0.7926 H   0  0  0  0  0  0  0  0  0  0  0  0
   -0.1988   -0.1980    2.4366 H   0  0  0  0  0  0  0  0  0  0  0  0
   -1.5719    0.7034    1.5911 H   0  0  0  0  0  0  0  0  0  0  0  0
   -2.8216   -1.2591   -0.1339 H   0  0  0  0  0  0  0  0  0  0  0  0
   -1.6093   -2.1328   -1.0875 H   0  0  0  0  0  0  0  0  0  0  0  0
   -1.7947   -0.3873   -1.3528 H   0  0  0  0  0  0  0  0  0  0  0  0
    0.6172   -1.0460   -1.4600 H   0  0  0  0  0  0  0  0  0  0  0  0
    2.7659   -0.6469    0.7137 H   0  0  0  0  0  0  0  0  0  0  0  0
    2.8553   -0.0647   -1.0106 H   0  0  0  0  0  0  0  0  0  0  0  0
    2.8153   -1.7964   -0.6380 H   0  0  0  0  0  0  0  0  0  0  0  0
  1  2  1  0
  2  3  1  0
  3  4  1  0
  4  5  1  0
  5  6  1  0
  5  7  1  0
  7  8  1  0
  8  9  1  0
  5  3  1  0
  8  3  1  0
  1 10  1  0
  1 11  1  0
  1 12  1  0
  4 13  1  0
  4 14  1  0
  6 15  1  0
  6 16  1  0
  6 17  1  0
  8 18  1  0
  9 19  1  0
  9 20  1  0
  9 21  1  0
M  END
