
     RDKit          3D

 19 20  0  0  0  0  0  0  0  0999 V2000
    2.8250    0.2362   -0.1188 C   0  0  0  0  0  0  0  0  0  0  0  0
    1.5989   -0.2644    0.2820 O   0  0  0  0  0  0  0  0  0  0  0  0
    0.5527    0.6104    0.0360 C   0  0  0  0  0  0  0  0  0  0  0  0
   -0.1348    0.7744    1.2386 O   0  0  0  0  0  0  0  0  0  0  0  0
   -1.1881   -0.0930    1.2669 C   0  0  0  0  0  0  0  0  0  0  0  0
   -2.2699    0.5013    0.3493 C   0  0  0  0  0  0  0  0  0  0  0  0
   -1.6651    0.5004   -0.8849 O   0  0  0  0  0  0  0  0  0  0  0  0
   -0.4614   -0.1605   -0.8070 C   0  0  0  0  0  0  0  0  0  0  0  0
   -0.7820   -1.2071    0.2805 C   0  0  0  0  0  0  0  0  0  0  0  0
    3.1179    1.1648    0.3679 H   0  0  0  0  0  0  0  0  0  0  0  0
    2.7985    0.3151   -1.2349 H   0  0  0  0  0  0  0  0  0  0  0  0
    3.5774   -0.5680    0.0935 H   0  0  0  0  0  0  0  0  0  0  0  0
    0.8573    1.5483   -0.4307 H   0  0  0  0  0  0  0  0  0  0  0  0
   -1.5434   -0.4475    2.2016 H   0  0  0  0  0  0  0  0  0  0  0  0
   -2.6125    1.4756    0.7021 H   0  0  0  0  0  0  0  0  0  0  0  0
   -3.1057   -0.2575    0.4057 H   0  0  0  0  0  0  0  0  0  0  0  0
   -0.0736   -0.5833   -1.7043 H   0  0  0  0  0  0  0  0  0  0  0  0
    0.1311   -1.7097    0.5853 H   0  0  0  0  0  0  0  0  0  0  0  0
   -1.6224   -1.8356    0.0042 H   0  0  0  0  0  0  0  0  0  0  0  0
  1  2  1  0
  2  3  1  0
  3  4  1  0
  4  5  1  0
  5  6  1  0
  6  7  1  0
  7  8  1  0
  8  9  1  0
  8  3  1  0
  9  5  1  0
  1 10  1  0
  1 11  1  0
  1 12  1  0
  3 13  1  0
  5 14  1  0
  6 15  1  0
  6 16  1  0
  8 17  1  0
  9 18  1  0
  9 19  1  0
M  END
