
     RDKit          3D

 21 22  0  0  0  0  0  0  0  0999 V2000
    3.1787   -0.5907    0.1896 C   0  0  0  0  0  0  0  0  0  0  0  0
    1.9311   -0.7432   -0.3217 O   0  0  0  0  0  0  0  0  0  0  0  0
    0.8896   -0.1660    0.2819 C   0  0  0  0  0  0  0  0  0  0  0  0
   -0.3991   -0.8423    0.4885 C   0  0  0  0  0  0  0  0  0  0  0  0
   -1.1835    0.2530   -0.2011 C   0  0  0  0  0  0  0  0  0  0  0  0
   -2.1793   -0.1122   -1.2678 C   0  0  0  0  0  0  0  0  0  0  0  0
   -3.1426   -0.9399   -0.7184 O   0  0  0  0  0  0  0  0  0  0  0  0
   -0.8085    1.6772   -0.0170 C   0  0  0  0  0  0  0  0  0  0  0  0
    0.1779    0.8112   -0.6550 C   0  0  0  0  0  0  0  0  0  0  0  0
    3.5043    0.4903    0.2342 H   0  0  0  0  0  0  0  0  0  0  0  0
    3.3682   -1.0420    1.1615 H   0  0  0  0  0  0  0  0  0  0  0  0
    3.8991   -1.0634   -0.5255 H   0  0  0  0  0  0  0  0  0  0  0  0
    1.1963    0.4096    1.1948 H   0  0  0  0  0  0  0  0  0  0  0  0
   -0.5964   -1.8029   -0.0094 H   0  0  0  0  0  0  0  0  0  0  0  0
   -0.7250   -0.9029    1.5493 H   0  0  0  0  0  0  0  0  0  0  0  0
   -1.6967   -0.5799   -2.1471 H   0  0  0  0  0  0  0  0  0  0  0  0
   -2.6833    0.8156   -1.5864 H   0  0  0  0  0  0  0  0  0  0  0  0
   -3.1813   -0.8418    0.2483 H   0  0  0  0  0  0  0  0  0  0  0  0
   -1.3552    2.3935   -0.6473 H   0  0  0  0  0  0  0  0  0  0  0  0
   -0.5304    2.0548    1.0090 H   0  0  0  0  0  0  0  0  0  0  0  0
    0.3360    0.7219   -1.7364 H   0  0  0  0  0  0  0  0  0  0  0  0
  1  2  1  0
  2  3  1  0
  3  4  1  0
  4  5  1  0
  5  6  1  0
  6  7  1  0
  5  8  1  0
  8  9  1  0
  9  3  1  0
  9  5  1  0
  1 10  1  0
  1 11  1  0
  1 12  1  0
  3 13  1  0
  4 14  1  0
  4 15  1  0
  6 16  1  0
  6 17  1  0
  7 18  1  0
  8 19  1  0
  8 20  1  0
  9 21  1  0
M  END
