
     RDKit          3D

 21 21  0  0  0  0  0  0  0  0999 V2000
    2.4201   -0.6880   -0.8211 C   0  0  0  0  0  0  0  0  0  0  0  0
    1.9057    0.2385    0.0545 O   0  0  0  0  0  0  0  0  0  0  0  0
    0.5590    0.2393    0.2008 C   0  0  0  0  0  0  0  0  0  0  0  0
    0.1795    1.3808    1.1332 C   0  0  0  0  0  0  0  0  0  0  0  0
   -0.0341   -1.0169    0.7630 C   0  0  0  0  0  0  0  0  0  0  0  0
   -1.3725   -0.7531    1.0442 O   0  0  0  0  0  0  0  0  0  0  0  0
   -2.0592   -0.4006   -0.0988 C   0  0  0  0  0  0  0  0  0  0  0  0
   -1.4264    0.6890   -0.8917 C   0  0  0  0  0  0  0  0  0  0  0  0
   -0.0550    0.4957   -1.0160 O   0  0  0  0  0  0  0  0  0  0  0  0
    2.0616   -0.5916   -1.8541 H   0  0  0  0  0  0  0  0  0  0  0  0
    2.2203   -1.7202   -0.4519 H   0  0  0  0  0  0  0  0  0  0  0  0
    3.5233   -0.5832   -0.8471 H   0  0  0  0  0  0  0  0  0  0  0  0
   -0.8249    1.2200    1.5748 H   0  0  0  0  0  0  0  0  0  0  0  0
    0.9646    1.4592    1.9039 H   0  0  0  0  0  0  0  0  0  0  0  0
    0.2305    2.3183    0.5369 H   0  0  0  0  0  0  0  0  0  0  0  0
   -0.0192   -1.8686    0.0604 H   0  0  0  0  0  0  0  0  0  0  0  0
    0.4681   -1.3673    1.6917 H   0  0  0  0  0  0  0  0  0  0  0  0
   -2.1329   -1.3061   -0.7416 H   0  0  0  0  0  0  0  0  0  0  0  0
   -3.0971   -0.1209    0.1686 H   0  0  0  0  0  0  0  0  0  0  0  0
   -1.8498    0.6669   -1.9218 H   0  0  0  0  0  0  0  0  0  0  0  0
   -1.6617    1.7090   -0.4879 H   0  0  0  0  0  0  0  0  0  0  0  0
  1  2  1  0
  2  3  1  0
  3  4  1  0
  3  5  1  0
  5  6  1  0
  6  7  1  0
  7  8  1  0
  8  9  1  0
  9  3  1  0
  1 10  1  0
  1 11  1  0
  1 12  1  0
  4 13  1  0
  4 14  1  0
  4 15  1  0
  5 16  1  0
  5 17  1  0
  7 18  1  0
  7 19  1  0
  8 20  1  0
  8 21  1  0
M  END
