
     RDKit          3D

 20 21  0  0  0  0  0  0  0  0999 V2000
    2.3728    0.3540    0.3510 C   0  0  0  0  0  0  0  0  0  0  0  0
    1.4699    0.5883   -0.6163 O   0  0  0  0  0  0  0  0  0  0  0  0
    0.2173    0.1077   -0.4915 C   0  0  0  0  0  0  0  0  0  0  0  0
    0.0578   -1.3717   -0.3751 C   0  0  0  0  0  0  0  0  0  0  0  0
   -0.8595   -1.1690    0.8161 C   0  0  0  0  0  0  0  0  0  0  0  0
   -0.5854    0.3059    0.7175 C   0  0  0  0  0  0  0  0  0  0  0  0
   -1.6475    1.0718   -0.0410 C   0  0  0  0  0  0  0  0  0  0  0  0
   -0.8488    0.7995   -1.3071 C   0  0  0  0  0  0  0  0  0  0  0  0
    2.5298   -0.7544    0.4867 H   0  0  0  0  0  0  0  0  0  0  0  0
    2.1542    0.7648    1.3484 H   0  0  0  0  0  0  0  0  0  0  0  0
    3.3550    0.7729    0.0455 H   0  0  0  0  0  0  0  0  0  0  0  0
   -0.4848   -1.8483   -1.2377 H   0  0  0  0  0  0  0  0  0  0  0  0
    0.9686   -1.9345   -0.1423 H   0  0  0  0  0  0  0  0  0  0  0  0
   -0.4594   -1.6299    1.7449 H   0  0  0  0  0  0  0  0  0  0  0  0
   -1.9184   -1.3796    0.6332 H   0  0  0  0  0  0  0  0  0  0  0  0
   -0.1687    0.7919    1.5956 H   0  0  0  0  0  0  0  0  0  0  0  0
   -1.7030    2.1485    0.2218 H   0  0  0  0  0  0  0  0  0  0  0  0
   -2.6139    0.5645    0.0292 H   0  0  0  0  0  0  0  0  0  0  0  0
   -1.3501    0.0918   -1.9921 H   0  0  0  0  0  0  0  0  0  0  0  0
   -0.4860    1.7258   -1.7865 H   0  0  0  0  0  0  0  0  0  0  0  0
  1  2  1  0
  2  3  1  0
  3  4  1  0
  4  5  1  0
  5  6  1  0
  6  7  1  0
  7  8  1  0
  6  3  1  0
  8  3  1  0
  1  9  1  0
  1 10  1  0
  1 11  1  0
  4 12  1  0
  4 13  1  0
  5 14  1  0
  5 15  1  0
  6 16  1  0
  7 17  1  0
  7 18  1  0
  8 19  1  0
  8 20  1  0
M  END
