
     RDKit          3D

 21 22  0  0  0  0  0  0  0  0999 V2000
   -2.7210   -0.1830    0.1817 C   0  0  0  0  0  0  0  0  0  0  0  0
   -1.7549    0.5461    0.7975 O   0  0  0  0  0  0  0  0  0  0  0  0
   -0.4755    0.3143    0.4664 C   0  0  0  0  0  0  0  0  0  0  0  0
    0.4801    1.1706    1.2046 C   0  0  0  0  0  0  0  0  0  0  0  0
    1.7658    1.0004    0.9772 C   0  0  0  0  0  0  0  0  0  0  0  0
    2.1861   -0.0641    0.0146 C   0  0  0  0  0  0  0  0  0  0  0  0
    0.9875   -0.6621   -0.6444 C   0  0  0  0  0  0  0  0  0  0  0  0
   -0.0762    0.3919   -0.9877 C   0  0  0  0  0  0  0  0  0  0  0  0
    0.0166   -1.1195    0.4418 C   0  0  0  0  0  0  0  0  0  0  0  0
   -2.6684   -1.2740    0.3194 H   0  0  0  0  0  0  0  0  0  0  0  0
   -2.8443    0.0626   -0.9107 H   0  0  0  0  0  0  0  0  0  0  0  0
   -3.7125    0.1223    0.6330 H   0  0  0  0  0  0  0  0  0  0  0  0
    0.1471    1.9047    1.9005 H   0  0  0  0  0  0  0  0  0  0  0  0
    2.5188    1.5976    1.4575 H   0  0  0  0  0  0  0  0  0  0  0  0
    2.9359    0.3246   -0.6766 H   0  0  0  0  0  0  0  0  0  0  0  0
    2.6875   -0.8692    0.6171 H   0  0  0  0  0  0  0  0  0  0  0  0
    1.1653   -1.3868   -1.4385 H   0  0  0  0  0  0  0  0  0  0  0  0
   -0.8268   -0.0024   -1.6759 H   0  0  0  0  0  0  0  0  0  0  0  0
    0.3492    1.3806   -1.2585 H   0  0  0  0  0  0  0  0  0  0  0  0
   -0.7210   -1.8134    0.0473 H   0  0  0  0  0  0  0  0  0  0  0  0
    0.5607   -1.4414    1.3438 H   0  0  0  0  0  0  0  0  0  0  0  0
  1  2  1  0
  2  3  1  0
  3  4  1  0
  4  5  2  0
  5  6  1  0
  6  7  1  0
  7  8  1  0
  7  9  1  0
  8  3  1  0
  9  3  1  0
  1 10  1  0
  1 11  1  0
  1 12  1  0
  4 13  1  0
  5 14  1  0
  6 15  1  0
  6 16  1  0
  7 17  1  0
  8 18  1  0
  8 19  1  0
  9 20  1  0
  9 21  1  0
M  END
