
     RDKit          3D

 19 20  0  0  0  0  0  0  0  0999 V2000
    3.0890   -0.1963   -0.3869 C   0  0  0  0  0  0  0  0  0  0  0  0
    1.8043    0.0191   -0.8143 O   0  0  0  0  0  0  0  0  0  0  0  0
    0.9070   -0.1326    0.2337 C   0  0  0  0  0  0  0  0  0  0  0  0
   -0.2016    0.7219    0.3026 C   0  0  0  0  0  0  0  0  0  0  0  0
   -1.3653    1.0349   -0.5730 C   0  0  0  0  0  0  0  0  0  0  0  0
   -2.4137    0.1264    0.1246 C   0  0  0  0  0  0  0  0  0  0  0  0
   -1.5764   -0.9482    0.7207 C   0  0  0  0  0  0  0  0  0  0  0  0
   -1.8958   -1.7178    1.5756 O   0  0  0  0  0  0  0  0  0  0  0  0
   -0.3155   -0.8371    0.0318 C   0  0  0  0  0  0  0  0  0  0  0  0
    3.2410   -1.2161    0.0278 H   0  0  0  0  0  0  0  0  0  0  0  0
    3.4153    0.5343    0.3822 H   0  0  0  0  0  0  0  0  0  0  0  0
    3.7929   -0.0792   -1.2375 H   0  0  0  0  0  0  0  0  0  0  0  0
    1.4487   -0.3977    1.1905 H   0  0  0  0  0  0  0  0  0  0  0  0
   -0.4947    1.0464    1.3521 H   0  0  0  0  0  0  0  0  0  0  0  0
   -1.6848    2.0894   -0.4817 H   0  0  0  0  0  0  0  0  0  0  0  0
   -1.2459    0.6760   -1.5944 H   0  0  0  0  0  0  0  0  0  0  0  0
   -3.0582   -0.3274   -0.6529 H   0  0  0  0  0  0  0  0  0  0  0  0
   -2.9608    0.7174    0.8588 H   0  0  0  0  0  0  0  0  0  0  0  0
   -0.4856   -1.1134   -1.0597 H   0  0  0  0  0  0  0  0  0  0  0  0
  1  2  1  0
  2  3  1  0
  3  4  1  0
  4  5  1  0
  5  6  1  0
  6  7  1  0
  7  8  2  0
  7  9  1  0
  9  3  1  0
  9  4  1  0
  1 10  1  0
  1 11  1  0
  1 12  1  0
  3 13  1  0
  4 14  1  0
  5 15  1  0
  5 16  1  0
  6 17  1  0
  6 18  1  0
  9 19  1  0
M  END
