
     RDKit          3D

 21 22  0  0  0  0  0  0  0  0999 V2000
    2.7259   -0.7279   -0.4667 C   0  0  0  0  0  0  0  0  0  0  0  0
    1.4443   -1.1885   -0.2919 O   0  0  0  0  0  0  0  0  0  0  0  0
    0.6429   -0.3960    0.4836 C   0  0  0  0  0  0  0  0  0  0  0  0
   -0.7584   -0.8895    0.6811 C   0  0  0  0  0  0  0  0  0  0  0  0
   -1.5757    0.1114   -0.0687 C   0  0  0  0  0  0  0  0  0  0  0  0
   -2.9099    0.3388    0.6148 C   0  0  0  0  0  0  0  0  0  0  0  0
   -0.8793    1.2931   -0.0388 O   0  0  0  0  0  0  0  0  0  0  0  0
    0.4697    1.0159   -0.0186 C   0  0  0  0  0  0  0  0  0  0  0  0
    1.1295    0.6958    1.3229 C   0  0  0  0  0  0  0  0  0  0  0  0
    3.2645   -0.6261    0.4961 H   0  0  0  0  0  0  0  0  0  0  0  0
    3.2701   -1.5099   -1.0674 H   0  0  0  0  0  0  0  0  0  0  0  0
    2.7297    0.1799   -1.0752 H   0  0  0  0  0  0  0  0  0  0  0  0
   -0.9309   -1.8862    0.1939 H   0  0  0  0  0  0  0  0  0  0  0  0
   -1.0329   -0.9510    1.7482 H   0  0  0  0  0  0  0  0  0  0  0  0
   -1.7870   -0.1715   -1.1106 H   0  0  0  0  0  0  0  0  0  0  0  0
   -3.3316   -0.5689    1.0584 H   0  0  0  0  0  0  0  0  0  0  0  0
   -3.5770    0.8536   -0.0886 H   0  0  0  0  0  0  0  0  0  0  0  0
   -2.7151    1.0515    1.4528 H   0  0  0  0  0  0  0  0  0  0  0  0
    1.1596    1.4418   -0.7546 H   0  0  0  0  0  0  0  0  0  0  0  0
    2.1801    0.9484    1.4727 H   0  0  0  0  0  0  0  0  0  0  0  0
    0.4815    0.9853    2.1829 H   0  0  0  0  0  0  0  0  0  0  0  0
  1  2  1  0
  2  3  1  0
  3  4  1  0
  4  5  1  0
  5  6  1  0
  5  7  1  0
  7  8  1  0
  8  9  1  0
  8  3  1  0
  9  3  1  0
  1 10  1  0
  1 11  1  0
  1 12  1  0
  4 13  1  0
  4 14  1  0
  5 15  1  0
  6 16  1  0
  6 17  1  0
  6 18  1  0
  8 19  1  0
  9 20  1  0
  9 21  1  0
M  END
