
     RDKit          3D

 21 21  0  0  0  0  0  0  0  0999 V2000
    3.2284   -0.7411    0.3214 C   0  0  0  0  0  0  0  0  0  0  0  0
    1.9922   -0.4540    0.8597 O   0  0  0  0  0  0  0  0  0  0  0  0
    1.0541   -0.0320   -0.0531 C   0  0  0  0  0  0  0  0  0  0  0  0
   -0.1616   -0.8575   -0.1028 C   0  0  0  0  0  0  0  0  0  0  0  0
   -1.3532   -0.3001   -0.0722 C   0  0  0  0  0  0  0  0  0  0  0  0
   -2.6114   -1.1312   -0.1223 C   0  0  0  0  0  0  0  0  0  0  0  0
   -1.5622    1.1744    0.0128 C   0  0  0  0  0  0  0  0  0  0  0  0
   -0.2799    1.8157   -0.4760 C   0  0  0  0  0  0  0  0  0  0  0  0
    0.7611    1.3075    0.2723 O   0  0  0  0  0  0  0  0  0  0  0  0
    3.8840   -1.0664    1.1566 H   0  0  0  0  0  0  0  0  0  0  0  0
    3.7235    0.1783   -0.1046 H   0  0  0  0  0  0  0  0  0  0  0  0
    3.2283   -1.5506   -0.4182 H   0  0  0  0  0  0  0  0  0  0  0  0
    1.4678    0.0056   -1.0989 H   0  0  0  0  0  0  0  0  0  0  0  0
   -0.0915   -1.9194   -0.1643 H   0  0  0  0  0  0  0  0  0  0  0  0
   -2.9154   -1.2366    0.9593 H   0  0  0  0  0  0  0  0  0  0  0  0
   -2.4254   -2.0939   -0.6015 H   0  0  0  0  0  0  0  0  0  0  0  0
   -3.4167   -0.5969   -0.6685 H   0  0  0  0  0  0  0  0  0  0  0  0
   -1.6852    1.4231    1.0753 H   0  0  0  0  0  0  0  0  0  0  0  0
   -2.3764    1.5135   -0.6402 H   0  0  0  0  0  0  0  0  0  0  0  0
   -0.1292    1.6604   -1.5646 H   0  0  0  0  0  0  0  0  0  0  0  0
   -0.3310    2.9013   -0.2729 H   0  0  0  0  0  0  0  0  0  0  0  0
  1  2  1  0
  2  3  1  0
  3  4  1  0
  4  5  2  0
  5  6  1  0
  5  7  1  0
  7  8  1  0
  8  9  1  0
  9  3  1  0
  1 10  1  0
  1 11  1  0
  1 12  1  0
  3 13  1  0
  4 14  1  0
  6 15  1  0
  6 16  1  0
  6 17  1  0
  7 18  1  0
  7 19  1  0
  8 20  1  0
  8 21  1  0
M  END
