
     RDKit          3D

 18 18  0  0  0  0  0  0  0  0999 V2000
   -2.5423   -0.6308    0.4500 C   0  0  0  0  0  0  0  0  0  0  0  0
   -1.3597   -0.0008    0.7435 O   0  0  0  0  0  0  0  0  0  0  0  0
   -0.6208    0.1314   -0.4212 C   0  0  0  0  0  0  0  0  0  0  0  0
    0.1673    1.4327   -0.4874 C   0  0  0  0  0  0  0  0  0  0  0  0
    0.1063    2.0632   -1.7111 O   0  0  0  0  0  0  0  0  0  0  0  0
    0.9112    0.1653   -0.3051 C   0  0  0  0  0  0  0  0  0  0  0  0
    1.3893   -0.1885    0.9264 O   0  0  0  0  0  0  0  0  0  0  0  0
    2.4686   -1.0462    0.8947 C   0  0  0  0  0  0  0  0  0  0  0  0
   -3.1641   -0.7561    1.3578 H   0  0  0  0  0  0  0  0  0  0  0  0
   -3.1349    0.0094   -0.2442 H   0  0  0  0  0  0  0  0  0  0  0  0
   -2.3841   -1.5941   -0.0449 H   0  0  0  0  0  0  0  0  0  0  0  0
   -1.0574   -0.2617   -1.3568 H   0  0  0  0  0  0  0  0  0  0  0  0
    0.1367    2.1231    0.3759 H   0  0  0  0  0  0  0  0  0  0  0  0
   -0.7345    2.5903   -1.7377 H   0  0  0  0  0  0  0  0  0  0  0  0
    1.4691   -0.2959   -1.1615 H   0  0  0  0  0  0  0  0  0  0  0  0
    2.2752   -2.0017    0.4019 H   0  0  0  0  0  0  0  0  0  0  0  0
    3.2968   -0.5177    0.3593 H   0  0  0  0  0  0  0  0  0  0  0  0
    2.7775   -1.2219    1.9603 H   0  0  0  0  0  0  0  0  0  0  0  0
  1  2  1  0
  2  3  1  0
  3  4  1  0
  4  5  1  0
  4  6  1  0
  6  7  1  0
  7  8  1  0
  6  3  1  0
  1  9  1  0
  1 10  1  0
  1 11  1  0
  3 12  1  0
  4 13  1  0
  5 14  1  0
  6 15  1  0
  8 16  1  0
  8 17  1  0
  8 18  1  0
M  END
