
     RDKit          3D

 19 20  0  0  0  0  0  0  0  0999 V2000
    2.6821   -0.0888   -0.3983 C   0  0  0  0  0  0  0  0  0  0  0  0
    1.4245    0.3989   -0.7639 O   0  0  0  0  0  0  0  0  0  0  0  0
    0.6878    0.6151    0.3841 C   0  0  0  0  0  0  0  0  0  0  0  0
   -0.3887    1.6888    0.3908 C   0  0  0  0  0  0  0  0  0  0  0  0
   -0.7509    0.3214    0.3086 C   0  0  0  0  0  0  0  0  0  0  0  0
   -1.3228   -0.4973    1.2223 O   0  0  0  0  0  0  0  0  0  0  0  0
   -1.2193   -1.5220    0.2505 C   0  0  0  0  0  0  0  0  0  0  0  0
   -1.4091   -0.4080   -0.7865 C   0  0  0  0  0  0  0  0  0  0  0  0
   -2.7943   -0.1551   -0.8786 O   0  0  0  0  0  0  0  0  0  0  0  0
    2.5916   -1.0510    0.1673 H   0  0  0  0  0  0  0  0  0  0  0  0
    3.3497   -0.2018   -1.2817 H   0  0  0  0  0  0  0  0  0  0  0  0
    3.1531    0.6260    0.3076 H   0  0  0  0  0  0  0  0  0  0  0  0
    1.1735    0.3839    1.3632 H   0  0  0  0  0  0  0  0  0  0  0  0
   -0.4736    2.3457   -0.4944 H   0  0  0  0  0  0  0  0  0  0  0  0
   -0.5328    2.2519    1.3521 H   0  0  0  0  0  0  0  0  0  0  0  0
   -2.0037   -2.2673    0.2797 H   0  0  0  0  0  0  0  0  0  0  0  0
   -0.1704   -1.8616    0.2404 H   0  0  0  0  0  0  0  0  0  0  0  0
   -0.8905   -0.5558   -1.7250 H   0  0  0  0  0  0  0  0  0  0  0  0
   -3.1062   -0.0230    0.0619 H   0  0  0  0  0  0  0  0  0  0  0  0
  1  2  1  0
  2  3  1  0
  3  4  1  0
  4  5  1  0
  5  6  1  0
  6  7  1  0
  7  8  1  0
  8  9  1  0
  5  3  1  0
  8  5  1  0
  1 10  1  0
  1 11  1  0
  1 12  1  0
  3 13  1  0
  4 14  1  0
  4 15  1  0
  7 16  1  0
  7 17  1  0
  8 18  1  0
  9 19  1  0
M  END
