
     RDKit          3D

 19 19  0  0  0  0  0  0  0  0999 V2000
    2.4847   -0.6562    0.3484 C   0  0  0  0  0  0  0  0  0  0  0  0
    1.2528   -0.8160   -0.2801 O   0  0  0  0  0  0  0  0  0  0  0  0
    0.2028   -0.3342    0.4617 C   0  0  0  0  0  0  0  0  0  0  0  0
   -0.8505   -1.3409    0.7109 C   0  0  0  0  0  0  0  0  0  0  0  0
   -0.8796   -2.1408    1.6131 O   0  0  0  0  0  0  0  0  0  0  0  0
   -1.8634   -1.1846   -0.3534 C   0  0  0  0  0  0  0  0  0  0  0  0
   -1.7099    0.2520   -0.7167 C   0  0  0  0  0  0  0  0  0  0  0  0
   -0.5573    0.7324   -0.2639 C   0  0  0  0  0  0  0  0  0  0  0  0
   -0.1241    2.1331   -0.4704 C   0  0  0  0  0  0  0  0  0  0  0  0
    2.7216    0.3993    0.5552 H   0  0  0  0  0  0  0  0  0  0  0  0
    3.2952   -1.0397   -0.3042 H   0  0  0  0  0  0  0  0  0  0  0  0
    2.4908   -1.1858    1.3277 H   0  0  0  0  0  0  0  0  0  0  0  0
    0.6305    0.0753    1.4117 H   0  0  0  0  0  0  0  0  0  0  0  0
   -1.6855   -1.8488   -1.2227 H   0  0  0  0  0  0  0  0  0  0  0  0
   -2.9017   -1.3318    0.0131 H   0  0  0  0  0  0  0  0  0  0  0  0
   -2.4583    0.8010   -1.2765 H   0  0  0  0  0  0  0  0  0  0  0  0
    0.9692    2.2635   -0.4430 H   0  0  0  0  0  0  0  0  0  0  0  0
   -0.4809    2.4748   -1.4676 H   0  0  0  0  0  0  0  0  0  0  0  0
   -0.5364    2.7475    0.3568 H   0  0  0  0  0  0  0  0  0  0  0  0
  1  2  1  0
  2  3  1  0
  3  4  1  0
  4  5  2  0
  4  6  1  0
  6  7  1  0
  7  8  2  0
  8  9  1  0
  8  3  1  0
  1 10  1  0
  1 11  1  0
  1 12  1  0
  3 13  1  0
  6 14  1  0
  6 15  1  0
  7 16  1  0
  9 17  1  0
  9 18  1  0
  9 19  1  0
M  END
