
     RDKit          3D

 19 19  0  0  0  0  0  0  0  0999 V2000
    2.6202   -0.3360    0.2721 C   0  0  0  0  0  0  0  0  0  0  0  0
    1.4461    0.2201    0.7623 O   0  0  0  0  0  0  0  0  0  0  0  0
    0.4287    0.2577   -0.1745 C   0  0  0  0  0  0  0  0  0  0  0  0
   -0.0702    1.6360   -0.4125 C   0  0  0  0  0  0  0  0  0  0  0  0
    0.5156    2.5516   -1.0435 O   0  0  0  0  0  0  0  0  0  0  0  0
   -1.3703    1.7621    0.2124 C   0  0  0  0  0  0  0  0  0  0  0  0
   -1.7705    0.5918    0.6815 C   0  0  0  0  0  0  0  0  0  0  0  0
   -0.7789   -0.4593    0.4233 C   0  0  0  0  0  0  0  0  0  0  0  0
   -1.2642   -1.4959   -0.5492 C   0  0  0  0  0  0  0  0  0  0  0  0
    3.3541   -0.3091    1.1134 H   0  0  0  0  0  0  0  0  0  0  0  0
    3.0361    0.3317   -0.5088 H   0  0  0  0  0  0  0  0  0  0  0  0
    2.5222   -1.3836   -0.0374 H   0  0  0  0  0  0  0  0  0  0  0  0
    0.7082   -0.1572   -1.1572 H   0  0  0  0  0  0  0  0  0  0  0  0
   -1.9325    2.6803    0.2851 H   0  0  0  0  0  0  0  0  0  0  0  0
   -2.7131    0.4491    1.1882 H   0  0  0  0  0  0  0  0  0  0  0  0
   -0.4993   -0.9750    1.3859 H   0  0  0  0  0  0  0  0  0  0  0  0
   -0.7818   -1.4257   -1.5420 H   0  0  0  0  0  0  0  0  0  0  0  0
   -2.3534   -1.3947   -0.7181 H   0  0  0  0  0  0  0  0  0  0  0  0
   -1.0971   -2.5438   -0.1810 H   0  0  0  0  0  0  0  0  0  0  0  0
  1  2  1  0
  2  3  1  0
  3  4  1  0
  4  5  2  0
  4  6  1  0
  6  7  2  0
  7  8  1  0
  8  9  1  0
  8  3  1  0
  1 10  1  0
  1 11  1  0
  1 12  1  0
  3 13  1  0
  6 14  1  0
  7 15  1  0
  8 16  1  0
  9 17  1  0
  9 18  1  0
  9 19  1  0
M  END
