
     RDKit          3D

 23 23  0  0  0  0  0  0  0  0999 V2000
    2.7770   -0.3600    0.0247 C   0  0  0  0  0  0  0  0  0  0  0  0
    1.4495   -0.3822    0.4438 O   0  0  0  0  0  0  0  0  0  0  0  0
    0.6236   -0.0239   -0.5963 C   0  0  0  0  0  0  0  0  0  0  0  0
   -0.3552   -1.0972   -0.9850 C   0  0  0  0  0  0  0  0  0  0  0  0
   -1.4201   -1.3525    0.0244 C   0  0  0  0  0  0  0  0  0  0  0  0
   -1.9036   -0.2099    0.8036 C   0  0  0  0  0  0  0  0  0  0  0  0
   -1.0836    1.0156    0.8267 C   0  0  0  0  0  0  0  0  0  0  0  0
   -0.1730    1.2287   -0.3175 C   0  0  0  0  0  0  0  0  0  0  0  0
    0.7620    2.2212    0.0349 O   0  0  0  0  0  0  0  0  0  0  0  0
    2.9826    0.6916   -0.3050 H   0  0  0  0  0  0  0  0  0  0  0  0
    3.4771   -0.7310    0.7709 H   0  0  0  0  0  0  0  0  0  0  0  0
    2.8217   -0.9620   -0.9232 H   0  0  0  0  0  0  0  0  0  0  0  0
    1.2325    0.1917   -1.5066 H   0  0  0  0  0  0  0  0  0  0  0  0
    0.2344   -2.0233   -1.1820 H   0  0  0  0  0  0  0  0  0  0  0  0
   -0.7973   -0.7987   -1.9578 H   0  0  0  0  0  0  0  0  0  0  0  0
   -2.2725   -1.8438   -0.5348 H   0  0  0  0  0  0  0  0  0  0  0  0
   -1.0481   -2.1856    0.6922 H   0  0  0  0  0  0  0  0  0  0  0  0
   -2.0401   -0.5428    1.8767 H   0  0  0  0  0  0  0  0  0  0  0  0
   -2.9561    0.0493    0.4805 H   0  0  0  0  0  0  0  0  0  0  0  0
   -0.4679    1.0879    1.7718 H   0  0  0  0  0  0  0  0  0  0  0  0
   -1.7623    1.9170    0.8911 H   0  0  0  0  0  0  0  0  0  0  0  0
   -0.6651    1.5241   -1.2618 H   0  0  0  0  0  0  0  0  0  0  0  0
    0.5847    2.5857    0.9287 H   0  0  0  0  0  0  0  0  0  0  0  0
  1  2  1  0
  2  3  1  0
  3  4  1  0
  4  5  1  0
  5  6  1  0
  6  7  1  0
  7  8  1  0
  8  9  1  0
  8  3  1  0
  1 10  1  0
  1 11  1  0
  1 12  1  0
  3 13  1  0
  4 14  1  0
  4 15  1  0
  5 16  1  0
  5 17  1  0
  6 18  1  0
  6 19  1  0
  7 20  1  0
  7 21  1  0
  8 22  1  0
  9 23  1  0
M  END
