
     RDKit          3D

 17 17  0  0  0  0  0  0  0  0999 V2000
    2.4264   -0.2068   -0.5566 C   0  0  0  0  0  0  0  0  0  0  0  0
    1.0405   -0.3276   -0.7482 O   0  0  0  0  0  0  0  0  0  0  0  0
    0.3585    0.3193    0.2449 C   0  0  0  0  0  0  0  0  0  0  0  0
   -0.9326    0.9989   -0.0185 C   0  0  0  0  0  0  0  0  0  0  0  0
   -1.3579    2.0491    0.7471 O   0  0  0  0  0  0  0  0  0  0  0  0
   -0.8732   -0.3387    0.7417 C   0  0  0  0  0  0  0  0  0  0  0  0
   -1.1112   -0.3101    2.1006 O   0  0  0  0  0  0  0  0  0  0  0  0
   -1.5055   -1.4420   -0.0053 C   0  0  0  0  0  0  0  0  0  0  0  0
   -1.3880   -1.5999   -1.2068 O   0  0  0  0  0  0  0  0  0  0  0  0
    2.9893   -0.7288   -1.3579 H   0  0  0  0  0  0  0  0  0  0  0  0
    2.7155    0.8737   -0.4755 H   0  0  0  0  0  0  0  0  0  0  0  0
    2.7017   -0.7601    0.3882 H   0  0  0  0  0  0  0  0  0  0  0  0
    0.9936    0.8190    1.0171 H   0  0  0  0  0  0  0  0  0  0  0  0
   -1.2915    1.0031   -1.0562 H   0  0  0  0  0  0  0  0  0  0  0  0
   -1.0730    2.9316    0.4579 H   0  0  0  0  0  0  0  0  0  0  0  0
   -1.5820   -1.1218    2.3913 H   0  0  0  0  0  0  0  0  0  0  0  0
   -2.1105   -2.1590    0.5315 H   0  0  0  0  0  0  0  0  0  0  0  0
  1  2  1  0
  2  3  1  0
  3  4  1  0
  4  5  1  0
  4  6  1  0
  6  7  1  0
  6  8  1  0
  8  9  2  0
  6  3  1  0
  1 10  1  0
  1 11  1  0
  1 12  1  0
  3 13  1  0
  4 14  1  0
  5 15  1  0
  7 16  1  0
  8 17  1  0
M  END
