
     RDKit          3D

 19 21  0  0  0  0  0  0  0  0999 V2000
    2.6589   -0.7431    0.2259 C   0  0  0  0  0  0  0  0  0  0  0  0
    1.3167   -1.1372    0.1727 O   0  0  0  0  0  0  0  0  0  0  0  0
    0.4923   -0.0509    0.1112 C   0  0  0  0  0  0  0  0  0  0  0  0
   -0.7379   -0.0952    0.9993 C   0  0  0  0  0  0  0  0  0  0  0  0
   -1.3534   -0.9716   -0.0935 C   0  0  0  0  0  0  0  0  0  0  0  0
   -0.5344   -0.0591   -1.0176 C   0  0  0  0  0  0  0  0  0  0  0  0
   -1.1965    1.2602   -0.8214 C   0  0  0  0  0  0  0  0  0  0  0  0
   -0.6289    2.2017    0.0537 O   0  0  0  0  0  0  0  0  0  0  0  0
   -1.3732    1.2314    0.7108 C   0  0  0  0  0  0  0  0  0  0  0  0
    3.2618   -1.6678    0.2737 H   0  0  0  0  0  0  0  0  0  0  0  0
    2.8289   -0.0815    1.1088 H   0  0  0  0  0  0  0  0  0  0  0  0
    2.9516   -0.1486   -0.6649 H   0  0  0  0  0  0  0  0  0  0  0  0
    1.0143    0.9233    0.1141 H   0  0  0  0  0  0  0  0  0  0  0  0
   -0.6669   -0.4765    1.9772 H   0  0  0  0  0  0  0  0  0  0  0  0
   -0.9405   -1.9837   -0.1032 H   0  0  0  0  0  0  0  0  0  0  0  0
   -2.4345   -0.8566   -0.1945 H   0  0  0  0  0  0  0  0  0  0  0  0
   -0.2561   -0.4221   -1.9634 H   0  0  0  0  0  0  0  0  0  0  0  0
   -2.0620    1.5679   -1.4238 H   0  0  0  0  0  0  0  0  0  0  0  0
   -2.3401    1.5093    1.1285 H   0  0  0  0  0  0  0  0  0  0  0  0
  1  2  1  0
  2  3  1  0
  3  4  1  0
  4  5  1  0
  5  6  1  0
  6  7  1  0
  7  8  1  0
  8  9  1  0
  6  3  1  0
  9  7  1  0
  9  4  1  0
  1 10  1  0
  1 11  1  0
  1 12  1  0
  3 13  1  0
  4 14  1  0
  5 15  1  0
  5 16  1  0
  6 17  1  0
  7 18  1  0
  9 19  1  0
M  END
