
     RDKit          3D

 23 23  0  0  0  0  0  0  0  0999 V2000
    2.5322    1.3127    0.0068 C   0  0  0  0  0  0  0  0  0  0  0  0
    1.5724    0.4969    0.6225 O   0  0  0  0  0  0  0  0  0  0  0  0
    1.3871   -0.6940   -0.0742 C   0  0  0  0  0  0  0  0  0  0  0  0
    1.1922   -1.9485    0.6879 C   0  0  0  0  0  0  0  0  0  0  0  0
    0.0434   -1.3078   -0.1368 C   0  0  0  0  0  0  0  0  0  0  0  0
   -1.0974   -0.8420    0.6875 C   0  0  0  0  0  0  0  0  0  0  0  0
   -1.4851    0.5960    0.4591 C   0  0  0  0  0  0  0  0  0  0  0  0
   -1.8906    0.8436   -0.9796 C   0  0  0  0  0  0  0  0  0  0  0  0
   -2.6521    0.8078    1.2310 O   0  0  0  0  0  0  0  0  0  0  0  0
    2.2069    1.5607   -1.0239 H   0  0  0  0  0  0  0  0  0  0  0  0
    3.5214    0.8091   -0.0331 H   0  0  0  0  0  0  0  0  0  0  0  0
    2.5692    2.2540    0.5899 H   0  0  0  0  0  0  0  0  0  0  0  0
    2.0244   -0.7801   -0.9786 H   0  0  0  0  0  0  0  0  0  0  0  0
    1.5896   -2.9092    0.3329 H   0  0  0  0  0  0  0  0  0  0  0  0
    1.1443   -1.8535    1.7748 H   0  0  0  0  0  0  0  0  0  0  0  0
   -0.2092   -1.8649   -1.0648 H   0  0  0  0  0  0  0  0  0  0  0  0
   -0.9263   -0.9874    1.7749 H   0  0  0  0  0  0  0  0  0  0  0  0
   -1.9902   -1.4537    0.4385 H   0  0  0  0  0  0  0  0  0  0  0  0
   -0.7448    1.3210    0.7855 H   0  0  0  0  0  0  0  0  0  0  0  0
   -2.5416    0.0404   -1.3459 H   0  0  0  0  0  0  0  0  0  0  0  0
   -2.4503    1.8155   -1.0024 H   0  0  0  0  0  0  0  0  0  0  0  0
   -0.9786    1.0042   -1.5786 H   0  0  0  0  0  0  0  0  0  0  0  0
   -2.8170    1.7792    1.2522 H   0  0  0  0  0  0  0  0  0  0  0  0
  1  2  1  0
  2  3  1  0
  3  4  1  0
  4  5  1  0
  5  6  1  0
  6  7  1  0
  7  8  1  0
  7  9  1  0
  5  3  1  0
  1 10  1  0
  1 11  1  0
  1 12  1  0
  3 13  1  0
  4 14  1  0
  4 15  1  0
  5 16  1  0
  6 17  1  0
  6 18  1  0
  7 19  1  0
  8 20  1  0
  8 21  1  0
  8 22  1  0
  9 23  1  0
M  END
