
     RDKit          3D

 21 22  0  0  0  0  0  0  0  0999 V2000
    3.1432   -0.8430    0.6007 C   0  0  0  0  0  0  0  0  0  0  0  0
    2.3471   -0.1088   -0.2682 O   0  0  0  0  0  0  0  0  0  0  0  0
    1.0031   -0.3346   -0.1183 C   0  0  0  0  0  0  0  0  0  0  0  0
    0.0893   -0.1977   -1.2716 C   0  0  0  0  0  0  0  0  0  0  0  0
   -1.2292   -0.8444   -1.2792 C   0  0  0  0  0  0  0  0  0  0  0  0
   -2.3508   -0.3495   -0.7846 C   0  0  0  0  0  0  0  0  0  0  0  0
   -2.2982    0.9906   -0.1532 C   0  0  0  0  0  0  0  0  0  0  0  0
   -1.0150    0.9644    0.6922 C   0  0  0  0  0  0  0  0  0  0  0  0
    0.1340    0.8971   -0.2671 C   0  0  0  0  0  0  0  0  0  0  0  0
    2.8925   -0.5949    1.6513 H   0  0  0  0  0  0  0  0  0  0  0  0
    2.9458   -1.9170    0.4061 H   0  0  0  0  0  0  0  0  0  0  0  0
    4.2004   -0.5974    0.3475 H   0  0  0  0  0  0  0  0  0  0  0  0
    0.7443   -1.0706    0.6745 H   0  0  0  0  0  0  0  0  0  0  0  0
    0.5847   -0.0454   -2.2653 H   0  0  0  0  0  0  0  0  0  0  0  0
   -1.2784   -1.8490   -1.7497 H   0  0  0  0  0  0  0  0  0  0  0  0
   -3.2642   -0.8939   -0.8367 H   0  0  0  0  0  0  0  0  0  0  0  0
   -2.0927    1.7720   -0.9404 H   0  0  0  0  0  0  0  0  0  0  0  0
   -3.1798    1.2265    0.4558 H   0  0  0  0  0  0  0  0  0  0  0  0
   -1.0926    0.0653    1.3337 H   0  0  0  0  0  0  0  0  0  0  0  0
   -0.9150    1.8782    1.2826 H   0  0  0  0  0  0  0  0  0  0  0  0
    0.6315    1.8522   -0.5376 H   0  0  0  0  0  0  0  0  0  0  0  0
  1  2  1  0
  2  3  1  0
  3  4  1  0
  4  5  1  0
  5  6  2  0
  6  7  1  0
  7  8  1  0
  8  9  1  0
  9  3  1  0
  9  4  1  0
  1 10  1  0
  1 11  1  0
  1 12  1  0
  3 13  1  0
  4 14  1  0
  5 15  1  0
  6 16  1  0
  7 17  1  0
  7 18  1  0
  8 19  1  0
  8 20  1  0
  9 21  1  0
M  END
