
     RDKit          3D

 19 19  0  0  0  0  0  0  0  0999 V2000
    3.0432   -0.3584    0.6388 C   0  0  0  0  0  0  0  0  0  0  0  0
    1.8465   -0.7375    0.0368 O   0  0  0  0  0  0  0  0  0  0  0  0
    1.0050    0.3523   -0.0024 C   0  0  0  0  0  0  0  0  0  0  0  0
    0.5632    0.5891   -1.3831 C   0  0  0  0  0  0  0  0  0  0  0  0
   -0.6868    0.1545   -1.4697 C   0  0  0  0  0  0  0  0  0  0  0  0
   -1.0951   -0.3791   -0.1430 C   0  0  0  0  0  0  0  0  0  0  0  0
   -2.5052    0.0398    0.2016 C   0  0  0  0  0  0  0  0  0  0  0  0
   -2.8153   -0.4171    1.4621 O   0  0  0  0  0  0  0  0  0  0  0  0
   -0.1564    0.1325    0.7463 O   0  0  0  0  0  0  0  0  0  0  0  0
    2.8664    0.0093    1.6907 H   0  0  0  0  0  0  0  0  0  0  0  0
    3.5442    0.4782    0.1056 H   0  0  0  0  0  0  0  0  0  0  0  0
    3.7379   -1.2225    0.7606 H   0  0  0  0  0  0  0  0  0  0  0  0
    1.5014    1.2339    0.4525 H   0  0  0  0  0  0  0  0  0  0  0  0
    1.1113    1.0351   -2.2265 H   0  0  0  0  0  0  0  0  0  0  0  0
   -1.3081    0.1912   -2.3855 H   0  0  0  0  0  0  0  0  0  0  0  0
   -1.0647   -1.4812   -0.2237 H   0  0  0  0  0  0  0  0  0  0  0  0
   -2.6001    1.1456    0.2119 H   0  0  0  0  0  0  0  0  0  0  0  0
   -3.1787   -0.4421   -0.5279 H   0  0  0  0  0  0  0  0  0  0  0  0
   -3.8088   -0.3236    1.5645 H   0  0  0  0  0  0  0  0  0  0  0  0
  1  2  1  0
  2  3  1  0
  3  4  1  0
  4  5  2  0
  5  6  1  0
  6  7  1  0
  7  8  1  0
  6  9  1  0
  9  3  1  0
  1 10  1  0
  1 11  1  0
  1 12  1  0
  3 13  1  0
  4 14  1  0
  5 15  1  0
  6 16  1  0
  7 17  1  0
  7 18  1  0
  8 19  1  0
M  END
