
     RDKit          3D

 18 19  0  0  0  0  0  0  0  0999 V2000
    2.6303   -0.1655    0.1366 C   0  0  0  0  0  0  0  0  0  0  0  0
    1.4498   -0.4054   -0.5261 O   0  0  0  0  0  0  0  0  0  0  0  0
    0.3178   -0.1069    0.1838 C   0  0  0  0  0  0  0  0  0  0  0  0
   -0.4857   -1.3927    0.2814 C   0  0  0  0  0  0  0  0  0  0  0  0
   -1.8074   -1.0692    0.1549 O   0  0  0  0  0  0  0  0  0  0  0  0
   -1.8904    0.0629   -0.6061 C   0  0  0  0  0  0  0  0  0  0  0  0
   -1.7922    1.3570    0.1767 C   0  0  0  0  0  0  0  0  0  0  0  0
   -0.6302    0.8067   -0.5423 C   0  0  0  0  0  0  0  0  0  0  0  0
    2.7431   -0.7416    1.0794 H   0  0  0  0  0  0  0  0  0  0  0  0
    3.4537   -0.5524   -0.5325 H   0  0  0  0  0  0  0  0  0  0  0  0
    2.8525    0.9192    0.2678 H   0  0  0  0  0  0  0  0  0  0  0  0
    0.5246    0.2903    1.2036 H   0  0  0  0  0  0  0  0  0  0  0  0
   -0.2225   -1.8776    1.2388 H   0  0  0  0  0  0  0  0  0  0  0  0
   -0.2231   -2.0847   -0.5589 H   0  0  0  0  0  0  0  0  0  0  0  0
   -2.4152    0.0589   -1.5805 H   0  0  0  0  0  0  0  0  0  0  0  0
   -2.3646    2.1827   -0.2842 H   0  0  0  0  0  0  0  0  0  0  0  0
   -1.9098    1.3025    1.2727 H   0  0  0  0  0  0  0  0  0  0  0  0
   -0.2307    1.4160   -1.3651 H   0  0  0  0  0  0  0  0  0  0  0  0
  1  2  1  0
  2  3  1  0
  3  4  1  0
  4  5  1  0
  5  6  1  0
  6  7  1  0
  7  8  1  0
  8  3  1  0
  8  6  1  0
  1  9  1  0
  1 10  1  0
  1 11  1  0
  3 12  1  0
  4 13  1  0
  4 14  1  0
  6 15  1  0
  7 16  1  0
  7 17  1  0
  8 18  1  0
M  END
