
     RDKit          3D

 19 20  0  0  0  0  0  0  0  0999 V2000
    2.7133   -0.1262   -0.0477 C   0  0  0  0  0  0  0  0  0  0  0  0
    1.4383   -0.5587    0.2528 O   0  0  0  0  0  0  0  0  0  0  0  0
    0.4416    0.3006   -0.1439 C   0  0  0  0  0  0  0  0  0  0  0  0
   -0.6568   -0.4999   -0.8572 C   0  0  0  0  0  0  0  0  0  0  0  0
   -0.9344   -1.5604    0.1318 C   0  0  0  0  0  0  0  0  0  0  0  0
   -0.9417   -0.8753    1.3033 C   0  0  0  0  0  0  0  0  0  0  0  0
   -0.6735    0.5060    0.8732 C   0  0  0  0  0  0  0  0  0  0  0  0
   -1.5824    0.6099   -0.3602 C   0  0  0  0  0  0  0  0  0  0  0  0
   -1.4742    1.7975   -1.0499 O   0  0  0  0  0  0  0  0  0  0  0  0
    2.9447    0.8523    0.4411 H   0  0  0  0  0  0  0  0  0  0  0  0
    3.4168   -0.9234    0.2906 H   0  0  0  0  0  0  0  0  0  0  0  0
    2.8288   -0.0621   -1.1533 H   0  0  0  0  0  0  0  0  0  0  0  0
    0.7267    1.2251   -0.6476 H   0  0  0  0  0  0  0  0  0  0  0  0
   -0.5712   -0.6886   -1.8794 H   0  0  0  0  0  0  0  0  0  0  0  0
   -1.0990   -2.6272    0.0156 H   0  0  0  0  0  0  0  0  0  0  0  0
   -1.1007   -1.2296    2.3026 H   0  0  0  0  0  0  0  0  0  0  0  0
   -0.6320    1.3097    1.5408 H   0  0  0  0  0  0  0  0  0  0  0  0
   -2.5886    0.1949   -0.2187 H   0  0  0  0  0  0  0  0  0  0  0  0
   -2.2559    2.3553   -0.7941 H   0  0  0  0  0  0  0  0  0  0  0  0
  1  2  1  0
  2  3  1  0
  3  4  1  0
  4  5  1  0
  5  6  2  0
  6  7  1  0
  7  8  1  0
  8  9  1  0
  7  3  1  0
  8  4  1  0
  1 10  1  0
  1 11  1  0
  1 12  1  0
  3 13  1  0
  4 14  1  0
  5 15  1  0
  6 16  1  0
  7 17  1  0
  8 18  1  0
  9 19  1  0
M  END
