
     RDKit          3D

 21 21  0  0  0  0  0  0  0  0999 V2000
    1.7230    1.7613    0.3700 C   0  0  0  0  0  0  0  0  0  0  0  0
    1.4225    0.6469    1.1169 O   0  0  0  0  0  0  0  0  0  0  0  0
    0.5739   -0.2113    0.3941 C   0  0  0  0  0  0  0  0  0  0  0  0
    1.1814   -0.6961   -0.9074 C   0  0  0  0  0  0  0  0  0  0  0  0
   -0.0355   -1.3668    1.2388 C   0  0  0  0  0  0  0  0  0  0  0  0
   -0.8552   -0.2522    0.6814 C   0  0  0  0  0  0  0  0  0  0  0  0
   -1.9275   -0.5394   -0.3178 C   0  0  0  0  0  0  0  0  0  0  0  0
   -1.9324    0.4513   -1.4218 C   0  0  0  0  0  0  0  0  0  0  0  0
   -1.1451    1.3761   -1.4641 O   0  0  0  0  0  0  0  0  0  0  0  0
    0.8737    2.3829    0.0663 H   0  0  0  0  0  0  0  0  0  0  0  0
    2.2870    1.4635   -0.5427 H   0  0  0  0  0  0  0  0  0  0  0  0
    2.3636    2.4394    1.0089 H   0  0  0  0  0  0  0  0  0  0  0  0
    1.2743    0.1038   -1.6650 H   0  0  0  0  0  0  0  0  0  0  0  0
    0.6169   -1.5660   -1.3214 H   0  0  0  0  0  0  0  0  0  0  0  0
    2.1855   -1.1215   -0.6267 H   0  0  0  0  0  0  0  0  0  0  0  0
   -0.1789   -2.3379    0.7232 H   0  0  0  0  0  0  0  0  0  0  0  0
    0.2293   -1.3772    2.3056 H   0  0  0  0  0  0  0  0  0  0  0  0
   -1.1841    0.4864    1.4753 H   0  0  0  0  0  0  0  0  0  0  0  0
   -2.9235   -0.4446    0.2002 H   0  0  0  0  0  0  0  0  0  0  0  0
   -1.9048   -1.5844   -0.6929 H   0  0  0  0  0  0  0  0  0  0  0  0
   -2.6442    0.3856   -2.2370 H   0  0  0  0  0  0  0  0  0  0  0  0
  1  2  1  0
  2  3  1  0
  3  4  1  0
  3  5  1  0
  5  6  1  0
  6  7  1  0
  7  8  1  0
  8  9  2  0
  6  3  1  0
  1 10  1  0
  1 11  1  0
  1 12  1  0
  4 13  1  0
  4 14  1  0
  4 15  1  0
  5 16  1  0
  5 17  1  0
  6 18  1  0
  7 19  1  0
  7 20  1  0
  8 21  1  0
M  END
