
     RDKit          3D

 21 21  0  0  0  0  0  0  0  0999 V2000
    3.0889    0.0270    0.4684 C   0  0  0  0  0  0  0  0  0  0  0  0
    1.7331   -0.1867    0.8089 O   0  0  0  0  0  0  0  0  0  0  0  0
    0.9923    0.1181   -0.3045 C   0  0  0  0  0  0  0  0  0  0  0  0
   -0.0860    1.1364   -0.0144 C   0  0  0  0  0  0  0  0  0  0  0  0
   -1.2233    0.5379    0.2356 C   0  0  0  0  0  0  0  0  0  0  0  0
   -2.5300    1.2102    0.5678 C   0  0  0  0  0  0  0  0  0  0  0  0
   -1.0401   -0.9096    0.1487 C   0  0  0  0  0  0  0  0  0  0  0  0
   -2.1332   -1.5414   -0.4320 O   0  0  0  0  0  0  0  0  0  0  0  0
    0.1413   -1.0689   -0.7794 C   0  0  0  0  0  0  0  0  0  0  0  0
    3.7311   -0.1995    1.3174 H   0  0  0  0  0  0  0  0  0  0  0  0
    3.1801    1.1053    0.1441 H   0  0  0  0  0  0  0  0  0  0  0  0
    3.2857   -0.6094   -0.4252 H   0  0  0  0  0  0  0  0  0  0  0  0
    1.5789    0.4434   -1.1696 H   0  0  0  0  0  0  0  0  0  0  0  0
    0.0778    2.2172   -0.0172 H   0  0  0  0  0  0  0  0  0  0  0  0
   -3.3776    0.5231    0.4282 H   0  0  0  0  0  0  0  0  0  0  0  0
   -2.4872    1.6394    1.6045 H   0  0  0  0  0  0  0  0  0  0  0  0
   -2.7090    2.0832   -0.0983 H   0  0  0  0  0  0  0  0  0  0  0  0
   -0.8437   -1.4087    1.1105 H   0  0  0  0  0  0  0  0  0  0  0  0
   -1.8772   -2.1547   -1.1673 H   0  0  0  0  0  0  0  0  0  0  0  0
   -0.1778   -0.9380   -1.8141 H   0  0  0  0  0  0  0  0  0  0  0  0
    0.6760   -2.0242   -0.6121 H   0  0  0  0  0  0  0  0  0  0  0  0
  1  2  1  0
  2  3  1  0
  3  4  1  0
  4  5  2  0
  5  6  1  0
  5  7  1  0
  7  8  1  0
  7  9  1  0
  9  3  1  0
  1 10  1  0
  1 11  1  0
  1 12  1  0
  3 13  1  0
  4 14  1  0
  6 15  1  0
  6 16  1  0
  6 17  1  0
  7 18  1  0
  8 19  1  0
  9 20  1  0
  9 21  1  0
M  END
