
     RDKit          3D

 21 21  0  0  0  0  0  0  0  0999 V2000
   -3.1086   -0.7924   -0.1755 C   0  0  0  0  0  0  0  0  0  0  0  0
   -2.2142   -0.1709    0.7226 O   0  0  0  0  0  0  0  0  0  0  0  0
   -1.0561    0.0710    0.0336 C   0  0  0  0  0  0  0  0  0  0  0  0
   -0.5723    1.5043    0.1449 C   0  0  0  0  0  0  0  0  0  0  0  0
    0.8836    1.2940   -0.2059 C   0  0  0  0  0  0  0  0  0  0  0  0
    1.2541    0.0796    0.1136 C   0  0  0  0  0  0  0  0  0  0  0  0
    2.5998   -0.5742   -0.0498 C   0  0  0  0  0  0  0  0  0  0  0  0
    3.4536    0.3611   -0.6293 O   0  0  0  0  0  0  0  0  0  0  0  0
    0.0991   -0.6262    0.7103 C   0  0  0  0  0  0  0  0  0  0  0  0
   -4.0830   -1.0196    0.3262 H   0  0  0  0  0  0  0  0  0  0  0  0
   -2.7132   -1.7642   -0.5335 H   0  0  0  0  0  0  0  0  0  0  0  0
   -3.2308   -0.1472   -1.0674 H   0  0  0  0  0  0  0  0  0  0  0  0
   -1.0597   -0.2501   -1.0183 H   0  0  0  0  0  0  0  0  0  0  0  0
   -1.0618    2.1259   -0.6065 H   0  0  0  0  0  0  0  0  0  0  0  0
   -0.6971    1.8949    1.1555 H   0  0  0  0  0  0  0  0  0  0  0  0
    1.5337    2.0356   -0.6567 H   0  0  0  0  0  0  0  0  0  0  0  0
    2.9241   -0.8138    1.0048 H   0  0  0  0  0  0  0  0  0  0  0  0
    2.5419   -1.5156   -0.6037 H   0  0  0  0  0  0  0  0  0  0  0  0
    4.2709    0.4197   -0.0533 H   0  0  0  0  0  0  0  0  0  0  0  0
    0.1106   -1.7140    0.5234 H   0  0  0  0  0  0  0  0  0  0  0  0
    0.1254   -0.3978    1.8103 H   0  0  0  0  0  0  0  0  0  0  0  0
  1  2  1  0
  2  3  1  0
  3  4  1  0
  4  5  1  0
  5  6  2  0
  6  7  1  0
  7  8  1  0
  6  9  1  0
  9  3  1  0
  1 10  1  0
  1 11  1  0
  1 12  1  0
  3 13  1  0
  4 14  1  0
  4 15  1  0
  5 16  1  0
  7 17  1  0
  7 18  1  0
  8 19  1  0
  9 20  1  0
  9 21  1  0
M  END
