
     RDKit          3D

 19 20  0  0  0  0  0  0  0  0999 V2000
    2.9636   -0.6300   -0.0362 C   0  0  0  0  0  0  0  0  0  0  0  0
    1.6780   -1.1358   -0.3383 O   0  0  0  0  0  0  0  0  0  0  0  0
    0.7904   -0.1423   -0.0573 C   0  0  0  0  0  0  0  0  0  0  0  0
   -0.4745   -0.5038    0.6497 C   0  0  0  0  0  0  0  0  0  0  0  0
   -0.9169   -1.1154   -0.6202 C   0  0  0  0  0  0  0  0  0  0  0  0
   -1.4839   -2.1053   -1.0502 O   0  0  0  0  0  0  0  0  0  0  0  0
   -0.2879    0.1403   -1.0578 C   0  0  0  0  0  0  0  0  0  0  0  0
   -1.0003    0.7946    0.0969 C   0  0  0  0  0  0  0  0  0  0  0  0
   -2.4748    0.9220   -0.0234 C   0  0  0  0  0  0  0  0  0  0  0  0
    3.7551   -1.3469   -0.2252 H   0  0  0  0  0  0  0  0  0  0  0  0
    3.1440    0.3003   -0.6045 H   0  0  0  0  0  0  0  0  0  0  0  0
    2.9408   -0.3496    1.0392 H   0  0  0  0  0  0  0  0  0  0  0  0
    1.2039    0.8169    0.3303 H   0  0  0  0  0  0  0  0  0  0  0  0
   -0.5925   -0.8581    1.5766 H   0  0  0  0  0  0  0  0  0  0  0  0
   -0.1898    0.4985   -1.9865 H   0  0  0  0  0  0  0  0  0  0  0  0
   -0.5206    1.6755    0.5369 H   0  0  0  0  0  0  0  0  0  0  0  0
   -2.9727    0.0123   -0.3575 H   0  0  0  0  0  0  0  0  0  0  0  0
   -2.8790    1.2259    0.9705 H   0  0  0  0  0  0  0  0  0  0  0  0
   -2.6829    1.8011   -0.6971 H   0  0  0  0  0  0  0  0  0  0  0  0
  1  2  1  0
  2  3  1  0
  3  4  1  0
  4  5  1  0
  5  6  2  0
  5  7  1  0
  7  8  1  0
  8  9  1  0
  7  3  1  0
  8  4  1  0
  1 10  1  0
  1 11  1  0
  1 12  1  0
  3 13  1  0
  4 14  1  0
  7 15  1  0
  8 16  1  0
  9 17  1  0
  9 18  1  0
  9 19  1  0
M  END
