
     RDKit          3D

 21 21  0  0  0  0  0  0  0  0999 V2000
    3.4690    0.1973    0.1090 C   0  0  0  0  0  0  0  0  0  0  0  0
    2.2272    0.1164    0.7175 O   0  0  0  0  0  0  0  0  0  0  0  0
    1.1809    0.0314   -0.1885 C   0  0  0  0  0  0  0  0  0  0  0  0
    0.2841   -1.1211    0.0884 C   0  0  0  0  0  0  0  0  0  0  0  0
   -0.9524   -0.6867   -0.1373 C   0  0  0  0  0  0  0  0  0  0  0  0
   -2.1861   -1.5158    0.0165 C   0  0  0  0  0  0  0  0  0  0  0  0
   -0.8577    0.7399   -0.5580 C   0  0  0  0  0  0  0  0  0  0  0  0
   -1.9656    1.5364    0.0952 C   0  0  0  0  0  0  0  0  0  0  0  0
    0.3428    1.1180    0.0490 O   0  0  0  0  0  0  0  0  0  0  0  0
    3.7225   -0.6515   -0.5259 H   0  0  0  0  0  0  0  0  0  0  0  0
    3.4588    1.1617   -0.4802 H   0  0  0  0  0  0  0  0  0  0  0  0
    4.2083    0.3859    0.9295 H   0  0  0  0  0  0  0  0  0  0  0  0
    1.5335    0.0440   -1.2455 H   0  0  0  0  0  0  0  0  0  0  0  0
    0.5684   -2.1013    0.4046 H   0  0  0  0  0  0  0  0  0  0  0  0
   -2.0241   -2.2865    0.8242 H   0  0  0  0  0  0  0  0  0  0  0  0
   -2.4209   -2.0712   -0.9211 H   0  0  0  0  0  0  0  0  0  0  0  0
   -3.0274   -0.8752    0.3233 H   0  0  0  0  0  0  0  0  0  0  0  0
   -0.8214    0.8414   -1.6450 H   0  0  0  0  0  0  0  0  0  0  0  0
   -2.9702    1.1154   -0.1243 H   0  0  0  0  0  0  0  0  0  0  0  0
   -1.8028    1.4478    1.1973 H   0  0  0  0  0  0  0  0  0  0  0  0
   -1.9669    2.5737   -0.2574 H   0  0  0  0  0  0  0  0  0  0  0  0
  1  2  1  0
  2  3  1  0
  3  4  1  0
  4  5  2  0
  5  6  1  0
  5  7  1  0
  7  8  1  0
  7  9  1  0
  9  3  1  0
  1 10  1  0
  1 11  1  0
  1 12  1  0
  3 13  1  0
  4 14  1  0
  6 15  1  0
  6 16  1  0
  6 17  1  0
  7 18  1  0
  8 19  1  0
  8 20  1  0
  8 21  1  0
M  END
