
     RDKit          3D

 19 19  0  0  0  0  0  0  0  0999 V2000
    2.5398   -0.8035    0.2908 C   0  0  0  0  0  0  0  0  0  0  0  0
    1.2604   -0.5740    0.8392 O   0  0  0  0  0  0  0  0  0  0  0  0
    0.5294    0.0901   -0.1253 C   0  0  0  0  0  0  0  0  0  0  0  0
    0.0122    1.3635    0.4713 C   0  0  0  0  0  0  0  0  0  0  0  0
   -1.1869    1.6426   -0.0063 C   0  0  0  0  0  0  0  0  0  0  0  0
   -1.5782    0.5813   -0.9653 C   0  0  0  0  0  0  0  0  0  0  0  0
   -0.7823   -0.5967   -0.4500 C   0  0  0  0  0  0  0  0  0  0  0  0
   -1.4122   -1.1677    0.7656 C   0  0  0  0  0  0  0  0  0  0  0  0
   -0.9574   -1.0399    1.8918 O   0  0  0  0  0  0  0  0  0  0  0  0
    2.9375    0.2290    0.0654 H   0  0  0  0  0  0  0  0  0  0  0  0
    3.2097   -1.3104    0.9999 H   0  0  0  0  0  0  0  0  0  0  0  0
    2.3690   -1.3735   -0.6470 H   0  0  0  0  0  0  0  0  0  0  0  0
    1.0667    0.2853   -1.0553 H   0  0  0  0  0  0  0  0  0  0  0  0
    0.5846    1.9539    1.2032 H   0  0  0  0  0  0  0  0  0  0  0  0
   -1.7459    2.5394    0.3053 H   0  0  0  0  0  0  0  0  0  0  0  0
   -2.6679    0.3921   -0.9717 H   0  0  0  0  0  0  0  0  0  0  0  0
   -1.1934    0.8494   -1.9783 H   0  0  0  0  0  0  0  0  0  0  0  0
   -0.6577   -1.3336   -1.2619 H   0  0  0  0  0  0  0  0  0  0  0  0
   -2.3277   -1.7272    0.6288 H   0  0  0  0  0  0  0  0  0  0  0  0
  1  2  1  0
  2  3  1  0
  3  4  1  0
  4  5  2  0
  5  6  1  0
  6  7  1  0
  7  8  1  0
  8  9  2  0
  7  3  1  0
  1 10  1  0
  1 11  1  0
  1 12  1  0
  3 13  1  0
  4 14  1  0
  5 15  1  0
  6 16  1  0
  6 17  1  0
  7 18  1  0
  8 19  1  0
M  END
