
     RDKit          3D

 21 22  0  0  0  0  0  0  0  0999 V2000
   -1.6766   -1.5821    0.2335 C   0  0  0  0  0  0  0  0  0  0  0  0
   -0.5327   -1.3620   -0.4917 O   0  0  0  0  0  0  0  0  0  0  0  0
   -0.1640   -0.0517   -0.6063 C   0  0  0  0  0  0  0  0  0  0  0  0
   -1.0727    0.9599   -1.2525 C   0  0  0  0  0  0  0  0  0  0  0  0
   -1.0702    1.7285    0.0436 C   0  0  0  0  0  0  0  0  0  0  0  0
    0.0234    0.8445    0.5562 C   0  0  0  0  0  0  0  0  0  0  0  0
    1.1808    0.4526   -0.2580 C   0  0  0  0  0  0  0  0  0  0  0  0
    2.2103   -0.4148    0.3989 C   0  0  0  0  0  0  0  0  0  0  0  0
    2.5381   -1.5306   -0.3766 O   0  0  0  0  0  0  0  0  0  0  0  0
   -2.5746   -1.0725   -0.2027 H   0  0  0  0  0  0  0  0  0  0  0  0
   -1.5563   -1.3944    1.2999 H   0  0  0  0  0  0  0  0  0  0  0  0
   -1.9141   -2.6824    0.1340 H   0  0  0  0  0  0  0  0  0  0  0  0
   -0.5168    1.5243   -2.0341 H   0  0  0  0  0  0  0  0  0  0  0  0
   -2.0472    0.5961   -1.5930 H   0  0  0  0  0  0  0  0  0  0  0  0
   -2.0207    1.5142    0.5931 H   0  0  0  0  0  0  0  0  0  0  0  0
   -0.8491    2.7992   -0.0189 H   0  0  0  0  0  0  0  0  0  0  0  0
   -0.0437    0.4754    1.5977 H   0  0  0  0  0  0  0  0  0  0  0  0
    1.6206    1.1434   -1.0362 H   0  0  0  0  0  0  0  0  0  0  0  0
    1.9239   -0.7022    1.4307 H   0  0  0  0  0  0  0  0  0  0  0  0
    3.1415    0.1809    0.4973 H   0  0  0  0  0  0  0  0  0  0  0  0
    3.3998   -1.4263   -0.8249 H   0  0  0  0  0  0  0  0  0  0  0  0
  1  2  1  0
  2  3  1  0
  3  4  1  0
  4  5  1  0
  5  6  1  0
  6  7  1  0
  7  8  1  0
  8  9  1  0
  6  3  1  0
  7  3  1  0
  1 10  1  0
  1 11  1  0
  1 12  1  0
  4 13  1  0
  4 14  1  0
  5 15  1  0
  5 16  1  0
  6 17  1  0
  7 18  1  0
  8 19  1  0
  8 20  1  0
  9 21  1  0
M  END
