
     RDKit          3D

 21 21  0  0  0  0  0  0  0  0999 V2000
    2.2007    0.1961    0.1831 C   0  0  0  0  0  0  0  0  0  0  0  0
    1.1830   -0.6554    0.4910 O   0  0  0  0  0  0  0  0  0  0  0  0
   -0.0852   -0.2259    0.2720 C   0  0  0  0  0  0  0  0  0  0  0  0
   -1.1393   -1.2218    0.6319 C   0  0  0  0  0  0  0  0  0  0  0  0
   -0.9304   -2.4434   -0.1857 C   0  0  0  0  0  0  0  0  0  0  0  0
   -1.6839   -3.3696   -0.0410 O   0  0  0  0  0  0  0  0  0  0  0  0
   -0.3960    0.4425   -1.0349 C   0  0  0  0  0  0  0  0  0  0  0  0
   -0.3212    1.8063   -0.3676 C   0  0  0  0  0  0  0  0  0  0  0  0
   -0.3634    1.0917    0.9601 C   0  0  0  0  0  0  0  0  0  0  0  0
    2.1811    1.1499    0.7352 H   0  0  0  0  0  0  0  0  0  0  0  0
    2.2662    0.4502   -0.8969 H   0  0  0  0  0  0  0  0  0  0  0  0
    3.1607   -0.3234    0.4431 H   0  0  0  0  0  0  0  0  0  0  0  0
   -1.0933   -1.4555    1.7237 H   0  0  0  0  0  0  0  0  0  0  0  0
   -2.1635   -0.8588    0.4120 H   0  0  0  0  0  0  0  0  0  0  0  0
   -0.1265   -2.5041   -0.8917 H   0  0  0  0  0  0  0  0  0  0  0  0
   -1.4278    0.2866   -1.4119 H   0  0  0  0  0  0  0  0  0  0  0  0
    0.3192    0.2848   -1.8492 H   0  0  0  0  0  0  0  0  0  0  0  0
   -1.2215    2.4504   -0.5359 H   0  0  0  0  0  0  0  0  0  0  0  0
    0.5993    2.3614   -0.5984 H   0  0  0  0  0  0  0  0  0  0  0  0
    0.4047    1.3853    1.6931 H   0  0  0  0  0  0  0  0  0  0  0  0
   -1.3632    1.1526    1.4542 H   0  0  0  0  0  0  0  0  0  0  0  0
  1  2  1  0
  2  3  1  0
  3  4  1  0
  4  5  1  0
  5  6  2  0
  3  7  1  0
  7  8  1  0
  8  9  1  0
  9  3  1  0
  1 10  1  0
  1 11  1  0
  1 12  1  0
  4 13  1  0
  4 14  1  0
  5 15  1  0
  7 16  1  0
  7 17  1  0
  8 18  1  0
  8 19  1  0
  9 20  1  0
  9 21  1  0
M  END
