
     RDKit          3D

 23 24  0  0  0  0  0  0  0  0999 V2000
   -3.1778   -0.1038   -0.2883 C   0  0  0  0  0  0  0  0  0  0  0  0
   -1.9419    0.1393    0.3129 O   0  0  0  0  0  0  0  0  0  0  0  0
   -0.9001   -0.4612   -0.3596 C   0  0  0  0  0  0  0  0  0  0  0  0
   -0.1512   -1.3402    0.5908 C   0  0  0  0  0  0  0  0  0  0  0  0
    1.2642   -0.8475    0.6667 C   0  0  0  0  0  0  0  0  0  0  0  0
    1.3460    0.3700   -0.2002 C   0  0  0  0  0  0  0  0  0  0  0  0
    2.0086    1.6284    0.3248 C   0  0  0  0  0  0  0  0  0  0  0  0
    1.2560    0.1324   -1.6631 C   0  0  0  0  0  0  0  0  0  0  0  0
    0.0692    0.5618   -0.8930 C   0  0  0  0  0  0  0  0  0  0  0  0
   -3.9717    0.4036    0.2971 H   0  0  0  0  0  0  0  0  0  0  0  0
   -3.2053    0.3668   -1.3148 H   0  0  0  0  0  0  0  0  0  0  0  0
   -3.4255   -1.1606   -0.3798 H   0  0  0  0  0  0  0  0  0  0  0  0
   -1.2965   -1.0152   -1.2493 H   0  0  0  0  0  0  0  0  0  0  0  0
   -0.1547   -2.4087    0.2887 H   0  0  0  0  0  0  0  0  0  0  0  0
   -0.5702   -1.2777    1.6382 H   0  0  0  0  0  0  0  0  0  0  0  0
    1.6137   -0.6851    1.7042 H   0  0  0  0  0  0  0  0  0  0  0  0
    1.9561   -1.6140    0.2305 H   0  0  0  0  0  0  0  0  0  0  0  0
    1.7480    2.4590   -0.3641 H   0  0  0  0  0  0  0  0  0  0  0  0
    1.6698    1.8988    1.3272 H   0  0  0  0  0  0  0  0  0  0  0  0
    3.1187    1.4772    0.3898 H   0  0  0  0  0  0  0  0  0  0  0  0
    1.7693    0.8588   -2.3019 H   0  0  0  0  0  0  0  0  0  0  0  0
    1.3348   -0.9159   -2.0226 H   0  0  0  0  0  0  0  0  0  0  0  0
   -0.3599    1.5339   -1.1344 H   0  0  0  0  0  0  0  0  0  0  0  0
  1  2  1  0
  2  3  1  0
  3  4  1  0
  4  5  1  0
  5  6  1  0
  6  7  1  0
  6  8  1  0
  8  9  1  0
  9  3  1  0
  9  6  1  0
  1 10  1  0
  1 11  1  0
  1 12  1  0
  3 13  1  0
  4 14  1  0
  4 15  1  0
  5 16  1  0
  5 17  1  0
  7 18  1  0
  7 19  1  0
  7 20  1  0
  8 21  1  0
  8 22  1  0
  9 23  1  0
M  END
