
     RDKit          3D

 21 23  0  0  0  0  0  0  0  0999 V2000
    2.5954    1.1024    0.7143 C   0  0  0  0  0  0  0  0  0  0  0  0
    1.6369    0.1734    1.0956 O   0  0  0  0  0  0  0  0  0  0  0  0
    0.6885    0.0837    0.1005 C   0  0  0  0  0  0  0  0  0  0  0  0
    0.5358   -1.2886   -0.4785 C   0  0  0  0  0  0  0  0  0  0  0  0
   -0.9750   -1.5459   -0.4887 C   0  0  0  0  0  0  0  0  0  0  0  0
   -1.8719   -0.4028   -0.7779 C   0  0  0  0  0  0  0  0  0  0  0  0
   -1.5432    0.9968   -0.3712 C   0  0  0  0  0  0  0  0  0  0  0  0
   -0.6587    0.4409    0.7174 C   0  0  0  0  0  0  0  0  0  0  0  0
   -1.4558   -0.8148    0.6671 C   0  0  0  0  0  0  0  0  0  0  0  0
    3.0473    0.7341   -0.2380 H   0  0  0  0  0  0  0  0  0  0  0  0
    3.4210    1.1993    1.4502 H   0  0  0  0  0  0  0  0  0  0  0  0
    2.1449    2.1129    0.5317 H   0  0  0  0  0  0  0  0  0  0  0  0
    0.9267    0.7720   -0.7512 H   0  0  0  0  0  0  0  0  0  0  0  0
    1.0403   -1.9996    0.2237 H   0  0  0  0  0  0  0  0  0  0  0  0
    0.9414   -1.4072   -1.4887 H   0  0  0  0  0  0  0  0  0  0  0  0
   -1.3066   -2.5236   -0.8233 H   0  0  0  0  0  0  0  0  0  0  0  0
   -2.9143   -0.6226   -1.0052 H   0  0  0  0  0  0  0  0  0  0  0  0
   -1.0078    1.5184   -1.1880 H   0  0  0  0  0  0  0  0  0  0  0  0
   -2.3762    1.5742    0.0799 H   0  0  0  0  0  0  0  0  0  0  0  0
   -0.6298    0.9732    1.6592 H   0  0  0  0  0  0  0  0  0  0  0  0
   -2.2390   -1.0765    1.3458 H   0  0  0  0  0  0  0  0  0  0  0  0
  1  2  1  0
  2  3  1  0
  3  4  1  0
  4  5  1  0
  5  6  1  0
  6  7  1  0
  7  8  1  0
  8  9  1  0
  8  3  1  0
  9  5  1  0
  9  6  1  0
  1 10  1  0
  1 11  1  0
  1 12  1  0
  3 13  1  0
  4 14  1  0
  4 15  1  0
  5 16  1  0
  6 17  1  0
  7 18  1  0
  7 19  1  0
  8 20  1  0
  9 21  1  0
M  END
