
     RDKit          3D

 21 22  0  0  0  0  0  0  0  0999 V2000
    2.2555    1.0546    0.6370 C   0  0  0  0  0  0  0  0  0  0  0  0
    0.8943    0.9813    0.4516 O   0  0  0  0  0  0  0  0  0  0  0  0
    0.4617   -0.2139   -0.0836 C   0  0  0  0  0  0  0  0  0  0  0  0
    0.9652   -0.6558   -1.4400 C   0  0  0  0  0  0  0  0  0  0  0  0
    0.0136   -1.3257    0.8839 C   0  0  0  0  0  0  0  0  0  0  0  0
   -0.9539   -0.5303    0.2028 C   0  0  0  0  0  0  0  0  0  0  0  0
   -1.8998    0.4448    0.8047 C   0  0  0  0  0  0  0  0  0  0  0  0
   -2.3521    0.4564   -0.6606 C   0  0  0  0  0  0  0  0  0  0  0  0
   -1.8608   -0.8700   -0.7356 O   0  0  0  0  0  0  0  0  0  0  0  0
    2.8467    0.9402   -0.2820 H   0  0  0  0  0  0  0  0  0  0  0  0
    2.4811    2.0705    1.0323 H   0  0  0  0  0  0  0  0  0  0  0  0
    2.5228    0.3310    1.4356 H   0  0  0  0  0  0  0  0  0  0  0  0
    0.4090   -0.2028   -2.2744 H   0  0  0  0  0  0  0  0  0  0  0  0
    0.8662   -1.7662   -1.5367 H   0  0  0  0  0  0  0  0  0  0  0  0
    2.0417   -0.4331   -1.5758 H   0  0  0  0  0  0  0  0  0  0  0  0
    0.2898   -2.3450    0.6078 H   0  0  0  0  0  0  0  0  0  0  0  0
    0.2473   -1.0739    1.9580 H   0  0  0  0  0  0  0  0  0  0  0  0
   -2.7034    0.0353    1.4438 H   0  0  0  0  0  0  0  0  0  0  0  0
   -1.3965    1.3508    1.1376 H   0  0  0  0  0  0  0  0  0  0  0  0
   -1.7025    1.1919   -1.2017 H   0  0  0  0  0  0  0  0  0  0  0  0
   -3.4258    0.5598   -0.8047 H   0  0  0  0  0  0  0  0  0  0  0  0
  1  2  1  0
  2  3  1  0
  3  4  1  0
  3  5  1  0
  5  6  1  0
  6  7  1  0
  7  8  1  0
  8  9  1  0
  6  3  1  0
  9  6  1  0
  1 10  1  0
  1 11  1  0
  1 12  1  0
  4 13  1  0
  4 14  1  0
  4 15  1  0
  5 16  1  0
  5 17  1  0
  7 18  1  0
  7 19  1  0
  8 20  1  0
  8 21  1  0
M  END
