
     RDKit          3D

 21 22  0  0  0  0  0  0  0  0999 V2000
    2.7526    0.4152   -0.2596 C   0  0  0  0  0  0  0  0  0  0  0  0
    1.4534    0.8023   -0.0518 O   0  0  0  0  0  0  0  0  0  0  0  0
    0.5505   -0.2248    0.0376 C   0  0  0  0  0  0  0  0  0  0  0  0
   -0.3984   -0.1001    1.1918 C   0  0  0  0  0  0  0  0  0  0  0  0
   -1.6362   -0.8512    0.7235 C   0  0  0  0  0  0  0  0  0  0  0  0
   -1.6806    0.2673   -0.3266 C   0  0  0  0  0  0  0  0  0  0  0  0
   -1.1760    1.1580    0.8158 C   0  0  0  0  0  0  0  0  0  0  0  0
   -0.4557   -0.0317   -1.1180 C   0  0  0  0  0  0  0  0  0  0  0  0
   -0.5601   -1.2184   -1.8571 O   0  0  0  0  0  0  0  0  0  0  0  0
    2.8511   -0.1612   -1.2151 H   0  0  0  0  0  0  0  0  0  0  0  0
    3.3624    1.3474   -0.3670 H   0  0  0  0  0  0  0  0  0  0  0  0
    3.1859   -0.1692    0.5770 H   0  0  0  0  0  0  0  0  0  0  0  0
    0.9883   -1.2349   -0.0698 H   0  0  0  0  0  0  0  0  0  0  0  0
   -0.0705   -0.2164    2.1873 H   0  0  0  0  0  0  0  0  0  0  0  0
   -1.4552   -1.8482    0.3074 H   0  0  0  0  0  0  0  0  0  0  0  0
   -2.4906   -0.7253    1.4004 H   0  0  0  0  0  0  0  0  0  0  0  0
   -2.6046    0.4983   -0.7735 H   0  0  0  0  0  0  0  0  0  0  0  0
   -1.9762    1.3637    1.5513 H   0  0  0  0  0  0  0  0  0  0  0  0
   -0.5648    2.0020    0.5006 H   0  0  0  0  0  0  0  0  0  0  0  0
   -0.1877    0.8067   -1.7542 H   0  0  0  0  0  0  0  0  0  0  0  0
    0.1124   -1.8794   -1.5001 H   0  0  0  0  0  0  0  0  0  0  0  0
  1  2  1  0
  2  3  1  0
  3  4  1  0
  4  5  1  0
  5  6  1  0
  6  7  1  0
  6  8  1  0
  8  9  1  0
  8  3  1  0
  7  4  1  0
  1 10  1  0
  1 11  1  0
  1 12  1  0
  3 13  1  0
  4 14  1  0
  5 15  1  0
  5 16  1  0
  6 17  1  0
  7 18  1  0
  7 19  1  0
  8 20  1  0
  9 21  1  0
M  END
