
     RDKit          3D

 19 20  0  0  0  0  0  0  0  0999 V2000
    2.2435    1.1714    0.6087 C   0  0  0  0  0  0  0  0  0  0  0  0
    1.4333    0.5163   -0.2960 O   0  0  0  0  0  0  0  0  0  0  0  0
    0.3347   -0.0922    0.2940 C   0  0  0  0  0  0  0  0  0  0  0  0
    0.0343   -1.4867   -0.2316 C   0  0  0  0  0  0  0  0  0  0  0  0
    1.1208   -2.1773   -0.7017 O   0  0  0  0  0  0  0  0  0  0  0  0
   -0.9385   -0.9548   -1.2241 C   0  0  0  0  0  0  0  0  0  0  0  0
   -0.8299    0.2906   -1.7831 O   0  0  0  0  0  0  0  0  0  0  0  0
   -0.9194    0.3535   -0.4208 C   0  0  0  0  0  0  0  0  0  0  0  0
   -2.1251    0.7727    0.3126 C   0  0  0  0  0  0  0  0  0  0  0  0
    3.0825    1.6187    0.0450 H   0  0  0  0  0  0  0  0  0  0  0  0
    2.6953    0.3876    1.2694 H   0  0  0  0  0  0  0  0  0  0  0  0
    1.7174    1.9283    1.1930 H   0  0  0  0  0  0  0  0  0  0  0  0
    0.2404    0.0159    1.3852 H   0  0  0  0  0  0  0  0  0  0  0  0
   -0.4976   -2.0682    0.5649 H   0  0  0  0  0  0  0  0  0  0  0  0
    1.6940   -1.5479   -1.2078 H   0  0  0  0  0  0  0  0  0  0  0  0
   -1.9172   -1.4468   -1.3879 H   0  0  0  0  0  0  0  0  0  0  0  0
   -2.3488    1.8675    0.1726 H   0  0  0  0  0  0  0  0  0  0  0  0
   -3.0524    0.2333    0.0496 H   0  0  0  0  0  0  0  0  0  0  0  0
   -1.9673    0.6179    1.3970 H   0  0  0  0  0  0  0  0  0  0  0  0
  1  2  1  0
  2  3  1  0
  3  4  1  0
  4  5  1  0
  4  6  1  0
  6  7  1  0
  7  8  1  0
  8  9  1  0
  8  3  1  0
  8  6  1  0
  1 10  1  0
  1 11  1  0
  1 12  1  0
  3 13  1  0
  4 14  1  0
  5 15  1  0
  6 16  1  0
  9 17  1  0
  9 18  1  0
  9 19  1  0
M  END
