
     RDKit          3D

 21 22  0  0  0  0  0  0  0  0999 V2000
    2.5639   -0.5746    0.0741 C   0  0  0  0  0  0  0  0  0  0  0  0
    1.4522   -0.7584    0.8702 O   0  0  0  0  0  0  0  0  0  0  0  0
    0.3145   -0.2071    0.3426 C   0  0  0  0  0  0  0  0  0  0  0  0
    0.3065    1.2614    0.0934 C   0  0  0  0  0  0  0  0  0  0  0  0
   -1.0861    1.7201   -0.1684 C   0  0  0  0  0  0  0  0  0  0  0  0
   -1.9724    0.7859   -0.4964 C   0  0  0  0  0  0  0  0  0  0  0  0
   -1.6349   -0.6400   -0.2329 C   0  0  0  0  0  0  0  0  0  0  0  0
   -0.9226   -0.6495    1.1282 C   0  0  0  0  0  0  0  0  0  0  0  0
   -0.2912   -0.9739   -0.8405 C   0  0  0  0  0  0  0  0  0  0  0  0
    2.7841    0.4968   -0.0846 H   0  0  0  0  0  0  0  0  0  0  0  0
    3.4286   -1.0281    0.6160 H   0  0  0  0  0  0  0  0  0  0  0  0
    2.4419   -1.1296   -0.8960 H   0  0  0  0  0  0  0  0  0  0  0  0
    0.6870    1.7694    0.9919 H   0  0  0  0  0  0  0  0  0  0  0  0
    0.8914    1.5031   -0.8192 H   0  0  0  0  0  0  0  0  0  0  0  0
   -1.3651    2.7846   -0.0928 H   0  0  0  0  0  0  0  0  0  0  0  0
   -2.9165    1.0310   -0.9424 H   0  0  0  0  0  0  0  0  0  0  0  0
   -2.4274   -1.3652   -0.3480 H   0  0  0  0  0  0  0  0  0  0  0  0
   -1.2663    0.1602    1.8030 H   0  0  0  0  0  0  0  0  0  0  0  0
   -0.8187   -1.6487    1.5758 H   0  0  0  0  0  0  0  0  0  0  0  0
   -0.0767   -0.4845   -1.8007 H   0  0  0  0  0  0  0  0  0  0  0  0
   -0.0921   -2.0527   -0.7734 H   0  0  0  0  0  0  0  0  0  0  0  0
  1  2  1  0
  2  3  1  0
  3  4  1  0
  4  5  1  0
  5  6  2  0
  6  7  1  0
  7  8  1  0
  7  9  1  0
  8  3  1  0
  9  3  1  0
  1 10  1  0
  1 11  1  0
  1 12  1  0
  4 13  1  0
  4 14  1  0
  5 15  1  0
  6 16  1  0
  7 17  1  0
  8 18  1  0
  8 19  1  0
  9 20  1  0
  9 21  1  0
M  END
