
     RDKit          3D

 21 23  0  0  0  0  0  0  0  0999 V2000
    3.2238   -0.6521   -0.1907 C   0  0  0  0  0  0  0  0  0  0  0  0
    2.0795   -0.4181    0.5613 O   0  0  0  0  0  0  0  0  0  0  0  0
    1.1353    0.2505   -0.1988 C   0  0  0  0  0  0  0  0  0  0  0  0
    0.3566    1.3696    0.4150 C   0  0  0  0  0  0  0  0  0  0  0  0
   -0.2461    0.0177    0.0401 C   0  0  0  0  0  0  0  0  0  0  0  0
   -0.9323   -0.8208    1.0109 C   0  0  0  0  0  0  0  0  0  0  0  0
   -2.2090   -0.7000    0.1662 C   0  0  0  0  0  0  0  0  0  0  0  0
   -2.6426    0.6732   -0.2256 C   0  0  0  0  0  0  0  0  0  0  0  0
   -1.4024    0.0502   -0.8422 C   0  0  0  0  0  0  0  0  0  0  0  0
    2.9887   -1.2817   -1.0993 H   0  0  0  0  0  0  0  0  0  0  0  0
    3.6446    0.3274   -0.4928 H   0  0  0  0  0  0  0  0  0  0  0  0
    4.0030   -1.1516    0.4173 H   0  0  0  0  0  0  0  0  0  0  0  0
    1.4643    0.4669   -1.2388 H   0  0  0  0  0  0  0  0  0  0  0  0
    0.0596    2.2411   -0.1901 H   0  0  0  0  0  0  0  0  0  0  0  0
    0.3550    1.5436    1.5013 H   0  0  0  0  0  0  0  0  0  0  0  0
   -1.0596   -0.4496    2.0553 H   0  0  0  0  0  0  0  0  0  0  0  0
   -0.6601   -1.8964    1.0530 H   0  0  0  0  0  0  0  0  0  0  0  0
   -2.7761   -1.5942   -0.0768 H   0  0  0  0  0  0  0  0  0  0  0  0
   -3.5096    0.7617   -0.8679 H   0  0  0  0  0  0  0  0  0  0  0  0
   -2.4671    1.4872    0.5253 H   0  0  0  0  0  0  0  0  0  0  0  0
   -1.4054   -0.2245   -1.8999 H   0  0  0  0  0  0  0  0  0  0  0  0
  1  2  1  0
  2  3  1  0
  3  4  1  0
  4  5  1  0
  5  6  1  0
  6  7  1  0
  7  8  1  0
  8  9  1  0
  5  3  1  0
  9  7  1  0
  9  5  1  0
  1 10  1  0
  1 11  1  0
  1 12  1  0
  3 13  1  0
  4 14  1  0
  4 15  1  0
  6 16  1  0
  6 17  1  0
  7 18  1  0
  8 19  1  0
  8 20  1  0
  9 21  1  0
M  END
