
     RDKit          3D

 17 17  0  0  0  0  0  0  0  0999 V2000
    2.0883   -0.1417   -0.4927 C   0  0  0  0  0  0  0  0  0  0  0  0
    0.8129   -0.0590   -0.8923 O   0  0  0  0  0  0  0  0  0  0  0  0
   -0.1684    0.3183   -0.0255 C   0  0  0  0  0  0  0  0  0  0  0  0
    0.1696    1.4928    0.7582 C   0  0  0  0  0  0  0  0  0  0  0  0
   -0.5642    2.4693    0.8472 O   0  0  0  0  0  0  0  0  0  0  0  0
   -0.9471   -0.7421    0.7538 C   0  0  0  0  0  0  0  0  0  0  0  0
   -0.7573   -2.0520    0.4187 O   0  0  0  0  0  0  0  0  0  0  0  0
   -1.5885    0.1266   -0.3518 C   0  0  0  0  0  0  0  0  0  0  0  0
   -2.1053   -0.5788   -1.3926 O   0  0  0  0  0  0  0  0  0  0  0  0
    2.4953    0.8672   -0.1595 H   0  0  0  0  0  0  0  0  0  0  0  0
    2.3899   -0.7808    0.3402 H   0  0  0  0  0  0  0  0  0  0  0  0
    2.7815   -0.3911   -1.3952 H   0  0  0  0  0  0  0  0  0  0  0  0
    1.1292    1.5260    1.3428 H   0  0  0  0  0  0  0  0  0  0  0  0
   -1.2021   -0.5258    1.7837 H   0  0  0  0  0  0  0  0  0  0  0  0
    0.1121   -2.4051    0.5227 H   0  0  0  0  0  0  0  0  0  0  0  0
   -2.2876    0.8930    0.0706 H   0  0  0  0  0  0  0  0  0  0  0  0
   -2.3583   -0.0171   -2.1283 H   0  0  0  0  0  0  0  0  0  0  0  0
  1  2  1  0
  2  3  1  0
  3  4  1  0
  4  5  2  0
  3  6  1  0
  6  7  1  0
  6  8  1  0
  8  9  1  0
  8  3  1  0
  1 10  1  0
  1 11  1  0
  1 12  1  0
  4 13  1  0
  6 14  1  0
  7 15  1  0
  8 16  1  0
  9 17  1  0
M  END
