
     RDKit          3D

 19 20  0  0  0  0  0  0  0  0999 V2000
    2.7956   -0.1783   -0.1136 C   0  0  0  0  0  0  0  0  0  0  0  0
    1.6295   -0.1498    0.6419 O   0  0  0  0  0  0  0  0  0  0  0  0
    0.5701    0.3752   -0.1156 C   0  0  0  0  0  0  0  0  0  0  0  0
    0.0014    1.4828    0.5316 O   0  0  0  0  0  0  0  0  0  0  0  0
   -1.2743    1.5517   -0.0266 C   0  0  0  0  0  0  0  0  0  0  0  0
   -1.7600    0.1209   -0.0232 C   0  0  0  0  0  0  0  0  0  0  0  0
   -1.3334   -0.7576    1.1111 C   0  0  0  0  0  0  0  0  0  0  0  0
   -0.5140   -0.6661   -0.1153 C   0  0  0  0  0  0  0  0  0  0  0  0
   -0.3624   -1.7355   -0.9570 O   0  0  0  0  0  0  0  0  0  0  0  0
    3.5932   -0.6038    0.5447 H   0  0  0  0  0  0  0  0  0  0  0  0
    3.0518    0.8610   -0.4357 H   0  0  0  0  0  0  0  0  0  0  0  0
    2.6524   -0.8465   -0.9772 H   0  0  0  0  0  0  0  0  0  0  0  0
    0.8956    0.6484   -1.1393 H   0  0  0  0  0  0  0  0  0  0  0  0
   -1.9580    2.1752    0.6107 H   0  0  0  0  0  0  0  0  0  0  0  0
   -1.2237    1.9172   -1.0653 H   0  0  0  0  0  0  0  0  0  0  0  0
   -2.6628   -0.1170   -0.6108 H   0  0  0  0  0  0  0  0  0  0  0  0
   -1.0407   -0.1929    2.0304 H   0  0  0  0  0  0  0  0  0  0  0  0
   -1.8716   -1.6853    1.3184 H   0  0  0  0  0  0  0  0  0  0  0  0
   -1.1888   -2.1998   -1.2093 H   0  0  0  0  0  0  0  0  0  0  0  0
  1  2  1  0
  2  3  1  0
  3  4  1  0
  4  5  1  0
  5  6  1  0
  6  7  1  0
  7  8  1  0
  8  9  1  0
  8  3  1  0
  8  6  1  0
  1 10  1  0
  1 11  1  0
  1 12  1  0
  3 13  1  0
  5 14  1  0
  5 15  1  0
  6 16  1  0
  7 17  1  0
  7 18  1  0
  9 19  1  0
M  END
