
     RDKit          3D

 23 23  0  0  0  0  0  0  0  0999 V2000
    3.1909    0.5676   -0.0868 C   0  0  0  0  0  0  0  0  0  0  0  0
    2.1232    0.0963   -0.8227 O   0  0  0  0  0  0  0  0  0  0  0  0
    0.9943   -0.1441   -0.0637 C   0  0  0  0  0  0  0  0  0  0  0  0
    0.4999   -1.5710   -0.2072 C   0  0  0  0  0  0  0  0  0  0  0  0
   -1.0127   -1.5904   -0.2223 C   0  0  0  0  0  0  0  0  0  0  0  0
   -1.5870   -0.5353    0.7115 C   0  0  0  0  0  0  0  0  0  0  0  0
   -1.0162    0.8227    0.3846 C   0  0  0  0  0  0  0  0  0  0  0  0
   -2.0827    1.7303   -0.2387 C   0  0  0  0  0  0  0  0  0  0  0  0
   -0.0226    0.6749   -0.5663 O   0  0  0  0  0  0  0  0  0  0  0  0
    4.0341    0.7219   -0.8043 H   0  0  0  0  0  0  0  0  0  0  0  0
    2.9001    1.5329    0.3843 H   0  0  0  0  0  0  0  0  0  0  0  0
    3.4996   -0.1279    0.7340 H   0  0  0  0  0  0  0  0  0  0  0  0
    1.1114    0.0732    1.0040 H   0  0  0  0  0  0  0  0  0  0  0  0
    0.8456   -2.2129    0.6185 H   0  0  0  0  0  0  0  0  0  0  0  0
    0.9021   -1.9215   -1.2000 H   0  0  0  0  0  0  0  0  0  0  0  0
   -1.3386   -1.3703   -1.2688 H   0  0  0  0  0  0  0  0  0  0  0  0
   -1.4435   -2.5585    0.0492 H   0  0  0  0  0  0  0  0  0  0  0  0
   -1.3216   -0.8475    1.7439 H   0  0  0  0  0  0  0  0  0  0  0  0
   -2.6707   -0.5026    0.5469 H   0  0  0  0  0  0  0  0  0  0  0  0
   -0.6291    1.2759    1.3288 H   0  0  0  0  0  0  0  0  0  0  0  0
   -1.5922    2.4497   -0.9457 H   0  0  0  0  0  0  0  0  0  0  0  0
   -2.5937    2.3155    0.5348 H   0  0  0  0  0  0  0  0  0  0  0  0
   -2.7905    1.1211   -0.8521 H   0  0  0  0  0  0  0  0  0  0  0  0
  1  2  1  0
  2  3  1  0
  3  4  1  0
  4  5  1  0
  5  6  1  0
  6  7  1  0
  7  8  1  0
  7  9  1  0
  9  3  1  0
  1 10  1  0
  1 11  1  0
  1 12  1  0
  3 13  1  0
  4 14  1  0
  4 15  1  0
  5 16  1  0
  5 17  1  0
  6 18  1  0
  6 19  1  0
  7 20  1  0
  8 21  1  0
  8 22  1  0
  8 23  1  0
M  END
