
     RDKit          3D

 21 22  0  0  0  0  0  0  0  0999 V2000
    3.0208   -0.2305    0.0327 C   0  0  0  0  0  0  0  0  0  0  0  0
    1.8014   -0.1069    0.6688 O   0  0  0  0  0  0  0  0  0  0  0  0
    0.7525    0.1744   -0.2121 C   0  0  0  0  0  0  0  0  0  0  0  0
    0.2407    1.3759    0.0927 O   0  0  0  0  0  0  0  0  0  0  0  0
   -1.0357    1.6879   -0.2086 C   0  0  0  0  0  0  0  0  0  0  0  0
   -2.0345    0.6239   -0.3189 C   0  0  0  0  0  0  0  0  0  0  0  0
   -1.5762   -0.7728   -0.0843 C   0  0  0  0  0  0  0  0  0  0  0  0
   -0.8652   -1.1805    1.1512 C   0  0  0  0  0  0  0  0  0  0  0  0
   -0.1569   -0.9982   -0.1853 C   0  0  0  0  0  0  0  0  0  0  0  0
    3.3033    0.6931   -0.5009 H   0  0  0  0  0  0  0  0  0  0  0  0
    3.7762   -0.4640    0.7838 H   0  0  0  0  0  0  0  0  0  0  0  0
    2.9904   -1.0400   -0.7158 H   0  0  0  0  0  0  0  0  0  0  0  0
    1.2205    0.2219   -1.2297 H   0  0  0  0  0  0  0  0  0  0  0  0
   -1.3732    2.4437    0.5651 H   0  0  0  0  0  0  0  0  0  0  0  0
   -1.0055    2.3085   -1.1540 H   0  0  0  0  0  0  0  0  0  0  0  0
   -2.9087    0.8033    0.3766 H   0  0  0  0  0  0  0  0  0  0  0  0
   -2.5128    0.6442   -1.3429 H   0  0  0  0  0  0  0  0  0  0  0  0
   -2.2542   -1.5600   -0.5076 H   0  0  0  0  0  0  0  0  0  0  0  0
   -0.6859   -0.4738    1.9648 H   0  0  0  0  0  0  0  0  0  0  0  0
   -0.9477   -2.2357    1.4974 H   0  0  0  0  0  0  0  0  0  0  0  0
    0.2507   -1.9146   -0.6730 H   0  0  0  0  0  0  0  0  0  0  0  0
  1  2  1  0
  2  3  1  0
  3  4  1  0
  4  5  1  0
  5  6  1  0
  6  7  1  0
  7  8  1  0
  8  9  1  0
  9  3  1  0
  9  7  1  0
  1 10  1  0
  1 11  1  0
  1 12  1  0
  3 13  1  0
  5 14  1  0
  5 15  1  0
  6 16  1  0
  6 17  1  0
  7 18  1  0
  8 19  1  0
  8 20  1  0
  9 21  1  0
M  END
