
     RDKit          3D

 21 23  0  0  0  0  0  0  0  0999 V2000
    2.4255    0.1296   -0.8923 C   0  0  0  0  0  0  0  0  0  0  0  0
    1.9562    0.9198    0.1350 O   0  0  0  0  0  0  0  0  0  0  0  0
    0.8526    0.4090    0.7741 C   0  0  0  0  0  0  0  0  0  0  0  0
    0.2662    1.1725    1.8898 C   0  0  0  0  0  0  0  0  0  0  0  0
   -0.4969    1.1231    0.6092 C   0  0  0  0  0  0  0  0  0  0  0  0
   -1.1874   -0.1849    0.3335 C   0  0  0  0  0  0  0  0  0  0  0  0
   -2.1127   -0.2384   -0.8323 C   0  0  0  0  0  0  0  0  0  0  0  0
   -0.8955   -1.3770    1.1530 C   0  0  0  0  0  0  0  0  0  0  0  0
    0.1738   -0.8368    0.2699 C   0  0  0  0  0  0  0  0  0  0  0  0
    2.7287   -0.8868   -0.5536 H   0  0  0  0  0  0  0  0  0  0  0  0
    1.6817    0.0743   -1.7085 H   0  0  0  0  0  0  0  0  0  0  0  0
    3.3865    0.6061   -1.2450 H   0  0  0  0  0  0  0  0  0  0  0  0
   -0.2496    0.6759    2.7457 H   0  0  0  0  0  0  0  0  0  0  0  0
    0.7061    2.1464    2.1337 H   0  0  0  0  0  0  0  0  0  0  0  0
   -0.4646    1.9120   -0.1338 H   0  0  0  0  0  0  0  0  0  0  0  0
   -1.6090   -0.7308   -1.6805 H   0  0  0  0  0  0  0  0  0  0  0  0
   -3.0133   -0.8383   -0.5120 H   0  0  0  0  0  0  0  0  0  0  0  0
   -2.5114    0.7666   -1.0862 H   0  0  0  0  0  0  0  0  0  0  0  0
   -1.3788   -2.3174    0.8168 H   0  0  0  0  0  0  0  0  0  0  0  0
   -0.6881   -1.2556    2.2459 H   0  0  0  0  0  0  0  0  0  0  0  0
    0.4300   -1.2692   -0.6925 H   0  0  0  0  0  0  0  0  0  0  0  0
  1  2  1  0
  2  3  1  0
  3  4  1  0
  4  5  1  0
  5  6  1  0
  6  7  1  0
  6  8  1  0
  8  9  1  0
  5  3  1  0
  9  6  1  0
  9  3  1  0
  1 10  1  0
  1 11  1  0
  1 12  1  0
  4 13  1  0
  4 14  1  0
  5 15  1  0
  7 16  1  0
  7 17  1  0
  7 18  1  0
  8 19  1  0
  8 20  1  0
  9 21  1  0
M  END
