
     RDKit          3D

 17 17  0  0  0  0  0  0  0  0999 V2000
   -2.6721    0.2107    0.3973 C   0  0  0  0  0  0  0  0  0  0  0  0
   -1.3276    0.2426    0.7043 O   0  0  0  0  0  0  0  0  0  0  0  0
   -0.5030    0.1690   -0.4087 C   0  0  0  0  0  0  0  0  0  0  0  0
    0.3601   -1.0650   -0.2319 C   0  0  0  0  0  0  0  0  0  0  0  0
    1.5935   -0.9427   -0.8604 O   0  0  0  0  0  0  0  0  0  0  0  0
    2.3652   -0.0927   -0.0315 C   0  0  0  0  0  0  0  0  0  0  0  0
    1.6741    1.2136   -0.0296 C   0  0  0  0  0  0  0  0  0  0  0  0
    2.2391    2.2445    0.3856 O   0  0  0  0  0  0  0  0  0  0  0  0
    0.3782    1.2748   -0.5000 O   0  0  0  0  0  0  0  0  0  0  0  0
   -3.2296    0.2750    1.3531 H   0  0  0  0  0  0  0  0  0  0  0  0
   -2.8777   -0.8139   -0.0186 H   0  0  0  0  0  0  0  0  0  0  0  0
   -3.0113    0.9755   -0.2939 H   0  0  0  0  0  0  0  0  0  0  0  0
   -1.0963    0.0967   -1.3564 H   0  0  0  0  0  0  0  0  0  0  0  0
   -0.2197   -1.9383   -0.5845 H   0  0  0  0  0  0  0  0  0  0  0  0
    0.5800   -1.2213    0.8596 H   0  0  0  0  0  0  0  0  0  0  0  0
    3.4134   -0.0407   -0.3659 H   0  0  0  0  0  0  0  0  0  0  0  0
    2.3337   -0.5877    0.9814 H   0  0  0  0  0  0  0  0  0  0  0  0
  1  2  1  0
  2  3  1  0
  3  4  1  0
  4  5  1  0
  5  6  1  0
  6  7  1  0
  7  8  2  0
  7  9  1  0
  9  3  1  0
  1 10  1  0
  1 11  1  0
  1 12  1  0
  3 13  1  0
  4 14  1  0
  4 15  1  0
  6 16  1  0
  6 17  1  0
M  END
