
     RDKit          3D

 21 22  0  0  0  0  0  0  0  0999 V2000
    3.2509   -0.0895   -0.6963 C   0  0  0  0  0  0  0  0  0  0  0  0
    2.3305    0.5000    0.1584 O   0  0  0  0  0  0  0  0  0  0  0  0
    1.1398   -0.1752    0.2363 C   0  0  0  0  0  0  0  0  0  0  0  0
    0.5452   -0.1926    1.6572 C   0  0  0  0  0  0  0  0  0  0  0  0
   -0.1037    0.5711    0.5198 C   0  0  0  0  0  0  0  0  0  0  0  0
   -1.4469    0.1014    0.1047 C   0  0  0  0  0  0  0  0  0  0  0  0
   -2.5953    1.0204    0.4987 C   0  0  0  0  0  0  0  0  0  0  0  0
   -1.7124   -0.8959   -0.8904 C   0  0  0  0  0  0  0  0  0  0  0  0
   -1.7364   -1.2938    0.5084 O   0  0  0  0  0  0  0  0  0  0  0  0
    2.8220   -0.1295   -1.7163 H   0  0  0  0  0  0  0  0  0  0  0  0
    3.5746   -1.0895   -0.3351 H   0  0  0  0  0  0  0  0  0  0  0  0
    4.1289    0.5876   -0.7519 H   0  0  0  0  0  0  0  0  0  0  0  0
    1.0075   -1.1046   -0.3658 H   0  0  0  0  0  0  0  0  0  0  0  0
    0.1002   -1.1540    1.9789 H   0  0  0  0  0  0  0  0  0  0  0  0
    1.0613    0.3475    2.4495 H   0  0  0  0  0  0  0  0  0  0  0  0
    0.0109    1.6665    0.6202 H   0  0  0  0  0  0  0  0  0  0  0  0
   -2.2665    2.0525    0.6805 H   0  0  0  0  0  0  0  0  0  0  0  0
   -3.0202    0.6404    1.4573 H   0  0  0  0  0  0  0  0  0  0  0  0
   -3.3981    1.0259   -0.2629 H   0  0  0  0  0  0  0  0  0  0  0  0
   -0.9545   -1.4168   -1.5022 H   0  0  0  0  0  0  0  0  0  0  0  0
   -2.7379   -0.9718   -1.3004 H   0  0  0  0  0  0  0  0  0  0  0  0
  1  2  1  0
  2  3  1  0
  3  4  1  0
  4  5  1  0
  5  6  1  0
  6  7  1  0
  6  8  1  0
  8  9  1  0
  5  3  1  0
  9  6  1  0
  1 10  1  0
  1 11  1  0
  1 12  1  0
  3 13  1  0
  4 14  1  0
  4 15  1  0
  5 16  1  0
  7 17  1  0
  7 18  1  0
  7 19  1  0
  8 20  1  0
  8 21  1  0
M  END
