
     RDKit          3D

 19 20  0  0  0  0  0  0  0  0999 V2000
   -2.2972   -0.6827   -0.1011 C   0  0  0  0  0  0  0  0  0  0  0  0
   -1.3136   -0.3922   -1.0547 O   0  0  0  0  0  0  0  0  0  0  0  0
   -0.2762    0.2653   -0.3365 C   0  0  0  0  0  0  0  0  0  0  0  0
   -0.8409    1.5396    0.3020 C   0  0  0  0  0  0  0  0  0  0  0  0
    1.0783    0.2937   -0.7911 C   0  0  0  0  0  0  0  0  0  0  0  0
    2.3605   -0.0379   -0.0055 C   0  0  0  0  0  0  0  0  0  0  0  0
    1.7374   -1.3785    0.0079 C   0  0  0  0  0  0  0  0  0  0  0  0
    2.0018   -2.5058   -0.1986 O   0  0  0  0  0  0  0  0  0  0  0  0
    0.5639   -0.5889    0.4257 C   0  0  0  0  0  0  0  0  0  0  0  0
   -1.8294   -1.3331    0.6576 H   0  0  0  0  0  0  0  0  0  0  0  0
   -2.7187    0.2452    0.3385 H   0  0  0  0  0  0  0  0  0  0  0  0
   -3.1231   -1.1722   -0.6526 H   0  0  0  0  0  0  0  0  0  0  0  0
   -1.6531    1.9755   -0.3149 H   0  0  0  0  0  0  0  0  0  0  0  0
   -0.0544    2.3185    0.3745 H   0  0  0  0  0  0  0  0  0  0  0  0
   -1.2670    1.3073    1.3008 H   0  0  0  0  0  0  0  0  0  0  0  0
    1.1909   -0.2911   -1.7626 H   0  0  0  0  0  0  0  0  0  0  0  0
    2.3504    0.4927    0.9682 H   0  0  0  0  0  0  0  0  0  0  0  0
    3.2548    0.1017   -0.6029 H   0  0  0  0  0  0  0  0  0  0  0  0
    0.8354   -0.1572    1.4454 H   0  0  0  0  0  0  0  0  0  0  0  0
  1  2  1  0
  2  3  1  0
  3  4  1  0
  3  5  1  0
  5  6  1  0
  6  7  1  0
  7  8  2  0
  7  9  1  0
  9  3  1  0
  9  5  1  0
  1 10  1  0
  1 11  1  0
  1 12  1  0
  4 13  1  0
  4 14  1  0
  4 15  1  0
  5 16  1  0
  6 17  1  0
  6 18  1  0
  9 19  1  0
M  END
