
     RDKit          3D

 19 19  0  0  0  0  0  0  0  0999 V2000
    1.9562    0.5845   -0.7880 C   0  0  0  0  0  0  0  0  0  0  0  0
    0.6451    0.8641   -0.5326 O   0  0  0  0  0  0  0  0  0  0  0  0
   -0.1159   -0.1223   -0.0094 C   0  0  0  0  0  0  0  0  0  0  0  0
   -0.1710   -1.3091   -0.9083 C   0  0  0  0  0  0  0  0  0  0  0  0
    0.0724   -0.4278    1.4320 C   0  0  0  0  0  0  0  0  0  0  0  0
   -0.3300    0.7847    2.0540 O   0  0  0  0  0  0  0  0  0  0  0  0
   -1.3219    1.3713    1.2507 C   0  0  0  0  0  0  0  0  0  0  0  0
   -1.9332    2.4425    1.4044 O   0  0  0  0  0  0  0  0  0  0  0  0
   -1.5483    0.4385    0.0923 C   0  0  0  0  0  0  0  0  0  0  0  0
    2.0497   -0.2497   -1.5143 H   0  0  0  0  0  0  0  0  0  0  0  0
    2.4207    1.4684   -1.2722 H   0  0  0  0  0  0  0  0  0  0  0  0
    2.5702    0.3363    0.0885 H   0  0  0  0  0  0  0  0  0  0  0  0
   -0.4475   -0.9466   -1.9283 H   0  0  0  0  0  0  0  0  0  0  0  0
    0.8191   -1.7904   -0.9905 H   0  0  0  0  0  0  0  0  0  0  0  0
   -0.9575   -2.0397   -0.6305 H   0  0  0  0  0  0  0  0  0  0  0  0
   -0.7011   -1.1874    1.7204 H   0  0  0  0  0  0  0  0  0  0  0  0
    1.0387   -0.7888    1.7393 H   0  0  0  0  0  0  0  0  0  0  0  0
   -2.1959   -0.3778    0.4325 H   0  0  0  0  0  0  0  0  0  0  0  0
   -1.8497    0.9494   -0.8110 H   0  0  0  0  0  0  0  0  0  0  0  0
  1  2  1  0
  2  3  1  0
  3  4  1  0
  3  5  1  0
  5  6  1  0
  6  7  1  0
  7  8  2  0
  7  9  1  0
  9  3  1  0
  1 10  1  0
  1 11  1  0
  1 12  1  0
  4 13  1  0
  4 14  1  0
  4 15  1  0
  5 16  1  0
  5 17  1  0
  9 18  1  0
  9 19  1  0
M  END
