
     RDKit          3D

 20 21  0  0  0  0  0  0  0  0999 V2000
    2.1847   -0.5089   -0.4633 C   0  0  0  0  0  0  0  0  0  0  0  0
    1.5281    0.6467   -0.1812 O   0  0  0  0  0  0  0  0  0  0  0  0
    0.2039    0.5790    0.1237 C   0  0  0  0  0  0  0  0  0  0  0  0
   -0.2913    2.0140    0.3928 C   0  0  0  0  0  0  0  0  0  0  0  0
   -0.2629   -0.2907    1.2352 C   0  0  0  0  0  0  0  0  0  0  0  0
   -1.4577   -0.6545    0.3605 C   0  0  0  0  0  0  0  0  0  0  0  0
   -1.1008   -1.4918   -0.8014 C   0  0  0  0  0  0  0  0  0  0  0  0
   -0.7012   -0.0984   -0.8553 C   0  0  0  0  0  0  0  0  0  0  0  0
    2.1471   -1.1959    0.3844 H   0  0  0  0  0  0  0  0  0  0  0  0
    3.2641   -0.2792   -0.6349 H   0  0  0  0  0  0  0  0  0  0  0  0
    1.8005   -0.9641   -1.3976 H   0  0  0  0  0  0  0  0  0  0  0  0
   -0.0225    2.3274    1.4204 H   0  0  0  0  0  0  0  0  0  0  0  0
    0.2139    2.6823   -0.3373 H   0  0  0  0  0  0  0  0  0  0  0  0
   -1.3913    2.0532    0.2041 H   0  0  0  0  0  0  0  0  0  0  0  0
    0.3710   -1.1708    1.3561 H   0  0  0  0  0  0  0  0  0  0  0  0
   -0.5257    0.2087    2.1867 H   0  0  0  0  0  0  0  0  0  0  0  0
   -2.4457   -0.2780    0.5816 H   0  0  0  0  0  0  0  0  0  0  0  0
   -1.9127   -1.8177   -1.4582 H   0  0  0  0  0  0  0  0  0  0  0  0
   -0.3853   -2.3283   -0.5679 H   0  0  0  0  0  0  0  0  0  0  0  0
   -1.2160    0.5671   -1.5485 H   0  0  0  0  0  0  0  0  0  0  0  0
  1  2  1  0
  2  3  1  0
  3  4  1  0
  3  5  1  0
  5  6  1  0
  6  7  1  0
  7  8  1  0
  8  3  1  0
  8  6  1  0
  1  9  1  0
  1 10  1  0
  1 11  1  0
  4 12  1  0
  4 13  1  0
  4 14  1  0
  5 15  1  0
  5 16  1  0
  6 17  1  0
  7 18  1  0
  7 19  1  0
  8 20  1  0
M  END
