
     RDKit          3D

 20 21  0  0  0  0  0  0  0  0999 V2000
   -2.9445   -0.1321   -0.3865 C   0  0  0  0  0  0  0  0  0  0  0  0
   -1.7506    0.5229   -0.3102 O   0  0  0  0  0  0  0  0  0  0  0  0
   -0.6236   -0.1492   -0.1841 C   0  0  0  0  0  0  0  0  0  0  0  0
    0.1947    0.1559    1.0853 C   0  0  0  0  0  0  0  0  0  0  0  0
    1.4101    0.7487    0.4873 C   0  0  0  0  0  0  0  0  0  0  0  0
    2.6476    0.2619    0.0606 C   0  0  0  0  0  0  0  0  0  0  0  0
    1.5936   -0.4121   -0.5755 C   0  0  0  0  0  0  0  0  0  0  0  0
    0.3915   -0.0008   -1.3325 C   0  0  0  0  0  0  0  0  0  0  0  0
   -3.8269    0.4785   -0.4888 H   0  0  0  0  0  0  0  0  0  0  0  0
   -2.9101   -0.8800   -1.2162 H   0  0  0  0  0  0  0  0  0  0  0  0
   -3.0618   -0.7396    0.5468 H   0  0  0  0  0  0  0  0  0  0  0  0
   -0.8388   -1.2480   -0.1568 H   0  0  0  0  0  0  0  0  0  0  0  0
    0.3523   -0.7400    1.6891 H   0  0  0  0  0  0  0  0  0  0  0  0
   -0.3973    0.9118    1.6681 H   0  0  0  0  0  0  0  0  0  0  0  0
    1.1275    1.7604    0.0559 H   0  0  0  0  0  0  0  0  0  0  0  0
    3.2938   -0.2842    0.8093 H   0  0  0  0  0  0  0  0  0  0  0  0
    3.3278    0.8975   -0.5684 H   0  0  0  0  0  0  0  0  0  0  0  0
    1.3950   -1.4586   -0.1731 H   0  0  0  0  0  0  0  0  0  0  0  0
    0.1869   -0.7325   -2.1385 H   0  0  0  0  0  0  0  0  0  0  0  0
    0.4328    1.0395   -1.6593 H   0  0  0  0  0  0  0  0  0  0  0  0
  1  2  1  0
  2  3  1  0
  3  4  1  0
  4  5  1  0
  5  6  1  0
  6  7  1  0
  7  8  1  0
  8  3  1  0
  7  5  1  0
  1  9  1  0
  1 10  1  0
  1 11  1  0
  3 12  1  0
  4 13  1  0
  4 14  1  0
  5 15  1  0
  6 16  1  0
  6 17  1  0
  7 18  1  0
  8 19  1  0
  8 20  1  0
M  END
