
     RDKit          3D

 23 24  0  0  0  0  0  0  0  0999 V2000
   -3.2462    0.0104   -0.4124 C   0  0  0  0  0  0  0  0  0  0  0  0
   -2.2023   -0.1708    0.4806 O   0  0  0  0  0  0  0  0  0  0  0  0
   -0.9641   -0.1333   -0.0624 C   0  0  0  0  0  0  0  0  0  0  0  0
   -0.0303   -1.2753    0.2262 C   0  0  0  0  0  0  0  0  0  0  0  0
    1.0759   -0.3360    0.5628 C   0  0  0  0  0  0  0  0  0  0  0  0
    1.8758   -0.5144    1.8196 C   0  0  0  0  0  0  0  0  0  0  0  0
    1.3333    0.8913   -0.2197 C   0  0  0  0  0  0  0  0  0  0  0  0
    1.3524    0.7569   -1.7212 C   0  0  0  0  0  0  0  0  0  0  0  0
    0.0420    0.8060    0.5176 C   0  0  0  0  0  0  0  0  0  0  0  0
   -3.0817    1.0311   -0.8696 H   0  0  0  0  0  0  0  0  0  0  0  0
   -4.2252    0.0639    0.0757 H   0  0  0  0  0  0  0  0  0  0  0  0
   -3.2113   -0.6951   -1.2699 H   0  0  0  0  0  0  0  0  0  0  0  0
   -1.0299    0.0449   -1.1771 H   0  0  0  0  0  0  0  0  0  0  0  0
    0.1461   -1.9180   -0.6592 H   0  0  0  0  0  0  0  0  0  0  0  0
   -0.2986   -1.9070    1.1022 H   0  0  0  0  0  0  0  0  0  0  0  0
    2.3429    0.4656    2.1106 H   0  0  0  0  0  0  0  0  0  0  0  0
    2.7355   -1.1754    1.5691 H   0  0  0  0  0  0  0  0  0  0  0  0
    1.3324   -0.9901    2.6363 H   0  0  0  0  0  0  0  0  0  0  0  0
    2.0570    1.6056    0.1763 H   0  0  0  0  0  0  0  0  0  0  0  0
    0.7921   -0.1239   -2.0789 H   0  0  0  0  0  0  0  0  0  0  0  0
    0.9079    1.6516   -2.2342 H   0  0  0  0  0  0  0  0  0  0  0  0
    2.4171    0.5965   -2.0413 H   0  0  0  0  0  0  0  0  0  0  0  0
   -0.1209    1.3156    1.4689 H   0  0  0  0  0  0  0  0  0  0  0  0
  1  2  1  0
  2  3  1  0
  3  4  1  0
  4  5  1  0
  5  6  1  0
  5  7  1  0
  7  8  1  0
  7  9  1  0
  9  3  1  0
  9  5  1  0
  1 10  1  0
  1 11  1  0
  1 12  1  0
  3 13  1  0
  4 14  1  0
  4 15  1  0
  6 16  1  0
  6 17  1  0
  6 18  1  0
  7 19  1  0
  8 20  1  0
  8 21  1  0
  8 22  1  0
  9 23  1  0
M  END
