
     RDKit          3D

 19 20  0  0  0  0  0  0  0  0999 V2000
   -2.7620    0.5721    0.2906 C   0  0  0  0  0  0  0  0  0  0  0  0
   -1.3620    0.6864    0.2032 O   0  0  0  0  0  0  0  0  0  0  0  0
   -0.7778   -0.5431   -0.0729 C   0  0  0  0  0  0  0  0  0  0  0  0
    0.2900   -0.7813    0.9295 C   0  0  0  0  0  0  0  0  0  0  0  0
    1.4281   -0.2795    0.5128 C   0  0  0  0  0  0  0  0  0  0  0  0
    2.7790    0.2133    0.2203 C   0  0  0  0  0  0  0  0  0  0  0  0
    2.4808   -0.0773   -1.1427 O   0  0  0  0  0  0  0  0  0  0  0  0
    1.2148    0.3719   -0.8420 C   0  0  0  0  0  0  0  0  0  0  0  0
    0.0379   -0.4032   -1.3712 C   0  0  0  0  0  0  0  0  0  0  0  0
   -3.1258    0.1909   -0.6998 H   0  0  0  0  0  0  0  0  0  0  0  0
   -3.1632    1.5864    0.4843 H   0  0  0  0  0  0  0  0  0  0  0  0
   -3.0275   -0.1396    1.0938 H   0  0  0  0  0  0  0  0  0  0  0  0
   -1.4894   -1.3663   -0.1719 H   0  0  0  0  0  0  0  0  0  0  0  0
    0.1055   -1.3171    1.8898 H   0  0  0  0  0  0  0  0  0  0  0  0
    2.8414    1.3185    0.3841 H   0  0  0  0  0  0  0  0  0  0  0  0
    3.6266   -0.3461    0.6221 H   0  0  0  0  0  0  0  0  0  0  0  0
    1.1385    1.4545   -0.8218 H   0  0  0  0  0  0  0  0  0  0  0  0
    0.3169   -1.3781   -1.7766 H   0  0  0  0  0  0  0  0  0  0  0  0
   -0.5517    0.2376   -2.0348 H   0  0  0  0  0  0  0  0  0  0  0  0
  1  2  1  0
  2  3  1  0
  3  4  1  0
  4  5  2  0
  5  6  1  0
  6  7  1  0
  7  8  1  0
  8  9  1  0
  9  3  1  0
  8  5  1  0
  1 10  1  0
  1 11  1  0
  1 12  1  0
  3 13  1  0
  4 14  1  0
  6 15  1  0
  6 16  1  0
  8 17  1  0
  9 18  1  0
  9 19  1  0
M  END
