
     RDKit          3D

 17 18  0  0  0  0  0  0  0  0999 V2000
   -2.1369   -0.3953   -0.5352 C   0  0  0  0  0  0  0  0  0  0  0  0
   -1.4725    0.3277    0.4009 O   0  0  0  0  0  0  0  0  0  0  0  0
   -0.1180    0.2090    0.4279 C   0  0  0  0  0  0  0  0  0  0  0  0
    0.4409   -1.1528    0.6749 C   0  0  0  0  0  0  0  0  0  0  0  0
    1.8048   -1.0443    0.3575 O   0  0  0  0  0  0  0  0  0  0  0  0
    1.9619   -0.0911   -0.6335 C   0  0  0  0  0  0  0  0  0  0  0  0
    2.9115   -0.0583   -1.4455 O   0  0  0  0  0  0  0  0  0  0  0  0
    0.8082    0.8348   -0.5202 C   0  0  0  0  0  0  0  0  0  0  0  0
    0.6404    1.4257    0.8494 C   0  0  0  0  0  0  0  0  0  0  0  0
   -3.2373   -0.1733   -0.4094 H   0  0  0  0  0  0  0  0  0  0  0  0
   -1.9189   -0.1004   -1.5919 H   0  0  0  0  0  0  0  0  0  0  0  0
   -1.9934   -1.4958   -0.4822 H   0  0  0  0  0  0  0  0  0  0  0  0
    0.3264   -1.4795    1.7428 H   0  0  0  0  0  0  0  0  0  0  0  0
   -0.0780   -1.9202    0.0712 H   0  0  0  0  0  0  0  0  0  0  0  0
    0.4894    1.3886   -1.4108 H   0  0  0  0  0  0  0  0  0  0  0  0
    0.1021    2.3779    0.9131 H   0  0  0  0  0  0  0  0  0  0  0  0
    1.4696    1.3473    1.5908 H   0  0  0  0  0  0  0  0  0  0  0  0
  1  2  1  0
  2  3  1  0
  3  4  1  0
  4  5  1  0
  5  6  1  0
  6  7  2  0
  6  8  1  0
  8  9  1  0
  8  3  1  0
  9  3  1  0
  1 10  1  0
  1 11  1  0
  1 12  1  0
  4 13  1  0
  4 14  1  0
  8 15  1  0
  9 16  1  0
  9 17  1  0
M  END
