
     RDKit          3D

 21 22  0  0  0  0  0  0  0  0999 V2000
    2.5879   -0.1633   -0.2173 C   0  0  0  0  0  0  0  0  0  0  0  0
    1.6102    0.0410   -1.2063 O   0  0  0  0  0  0  0  0  0  0  0  0
    0.3972    0.1818   -0.5212 C   0  0  0  0  0  0  0  0  0  0  0  0
    0.0155   -0.9940    0.2985 C   0  0  0  0  0  0  0  0  0  0  0  0
   -1.4631   -1.3095    0.2765 C   0  0  0  0  0  0  0  0  0  0  0  0
   -2.1781    0.0420    0.3999 C   0  0  0  0  0  0  0  0  0  0  0  0
   -1.9511    0.6991   -0.7787 O   0  0  0  0  0  0  0  0  0  0  0  0
   -0.6459    1.0583   -0.9981 C   0  0  0  0  0  0  0  0  0  0  0  0
    0.2215    1.5684    0.0727 C   0  0  0  0  0  0  0  0  0  0  0  0
    2.6222    0.7175    0.4845 H   0  0  0  0  0  0  0  0  0  0  0  0
    2.3445   -1.0426    0.3962 H   0  0  0  0  0  0  0  0  0  0  0  0
    3.6023   -0.2226   -0.6615 H   0  0  0  0  0  0  0  0  0  0  0  0
    0.3704   -0.8106    1.3476 H   0  0  0  0  0  0  0  0  0  0  0  0
    0.5409   -1.9195   -0.0242 H   0  0  0  0  0  0  0  0  0  0  0  0
   -1.6803   -1.7521   -0.7269 H   0  0  0  0  0  0  0  0  0  0  0  0
   -1.7107   -1.9753    1.1031 H   0  0  0  0  0  0  0  0  0  0  0  0
   -3.2702   -0.0987    0.5210 H   0  0  0  0  0  0  0  0  0  0  0  0
   -1.8157    0.5439    1.3023 H   0  0  0  0  0  0  0  0  0  0  0  0
   -0.4916    1.5132   -2.0215 H   0  0  0  0  0  0  0  0  0  0  0  0
    0.9487    2.3636   -0.1822 H   0  0  0  0  0  0  0  0  0  0  0  0
   -0.0546    1.5594    1.1355 H   0  0  0  0  0  0  0  0  0  0  0  0
  1  2  1  0
  2  3  1  0
  3  4  1  0
  4  5  1  0
  5  6  1  0
  6  7  1  0
  7  8  1  0
  8  9  1  0
  8  3  1  0
  9  3  1  0
  1 10  1  0
  1 11  1  0
  1 12  1  0
  4 13  1  0
  4 14  1  0
  5 15  1  0
  5 16  1  0
  6 17  1  0
  6 18  1  0
  8 19  1  0
  9 20  1  0
  9 21  1  0
M  END
