
     RDKit          3D

 19 21  0  0  0  0  0  0  0  0999 V2000
    2.6603   -0.1359    0.0657 C   0  0  0  0  0  0  0  0  0  0  0  0
    1.6038    0.3952    0.8008 O   0  0  0  0  0  0  0  0  0  0  0  0
    0.4163    0.1880    0.1713 C   0  0  0  0  0  0  0  0  0  0  0  0
    0.1721    0.7559   -1.2272 C   0  0  0  0  0  0  0  0  0  0  0  0
   -1.1828    0.5970   -1.4475 O   0  0  0  0  0  0  0  0  0  0  0  0
   -1.8387    0.4652   -0.2515 C   0  0  0  0  0  0  0  0  0  0  0  0
   -1.8855   -1.0229    0.1306 C   0  0  0  0  0  0  0  0  0  0  0  0
   -0.4963   -0.8846    0.6523 C   0  0  0  0  0  0  0  0  0  0  0  0
   -0.8151    0.6172    0.8196 C   0  0  0  0  0  0  0  0  0  0  0  0
    2.4656   -1.2338   -0.0338 H   0  0  0  0  0  0  0  0  0  0  0  0
    2.6822    0.3388   -0.9412 H   0  0  0  0  0  0  0  0  0  0  0  0
    3.6287   -0.0098    0.5907 H   0  0  0  0  0  0  0  0  0  0  0  0
    0.3960    1.8573   -1.1128 H   0  0  0  0  0  0  0  0  0  0  0  0
    0.8049    0.2786   -1.9844 H   0  0  0  0  0  0  0  0  0  0  0  0
   -2.7899    0.9803   -0.1285 H   0  0  0  0  0  0  0  0  0  0  0  0
   -2.0513   -1.6404   -0.7489 H   0  0  0  0  0  0  0  0  0  0  0  0
   -2.6073   -1.1607    0.9789 H   0  0  0  0  0  0  0  0  0  0  0  0
   -0.1960   -1.4211    1.5527 H   0  0  0  0  0  0  0  0  0  0  0  0
   -0.9670    1.0357    1.7796 H   0  0  0  0  0  0  0  0  0  0  0  0
  1  2  1  0
  2  3  1  0
  3  4  1  0
  4  5  1  0
  5  6  1  0
  6  7  1  0
  7  8  1  0
  8  9  1  0
  8  3  1  0
  9  3  1  0
  9  6  1  0
  1 10  1  0
  1 11  1  0
  1 12  1  0
  4 13  1  0
  4 14  1  0
  6 15  1  0
  7 16  1  0
  7 17  1  0
  8 18  1  0
  9 19  1  0
M  END
