
     RDKit          3D

 20 20  0  0  0  0  0  0  0  0999 V2000
    2.5376    0.9291   -0.1429 C   0  0  0  0  0  0  0  0  0  0  0  0
    1.1559    0.9422   -0.4279 O   0  0  0  0  0  0  0  0  0  0  0  0
    0.5181   -0.1379    0.1254 C   0  0  0  0  0  0  0  0  0  0  0  0
   -0.5657   -0.8580   -0.5988 C   0  0  0  0  0  0  0  0  0  0  0  0
   -0.6898   -2.3613   -0.4517 C   0  0  0  0  0  0  0  0  0  0  0  0
   -0.8406    0.0113    0.6200 C   0  0  0  0  0  0  0  0  0  0  0  0
   -1.7016    1.1967    0.3776 C   0  0  0  0  0  0  0  0  0  0  0  0
   -1.1649    2.3846    0.8760 O   0  0  0  0  0  0  0  0  0  0  0  0
    3.0547    1.7816   -0.5769 H   0  0  0  0  0  0  0  0  0  0  0  0
    2.9104   -0.0496   -0.4796 H   0  0  0  0  0  0  0  0  0  0  0  0
    2.6478    1.0136    0.9702 H   0  0  0  0  0  0  0  0  0  0  0  0
    1.2014   -0.8278    0.6973 H   0  0  0  0  0  0  0  0  0  0  0  0
   -0.9135   -0.4954   -1.5895 H   0  0  0  0  0  0  0  0  0  0  0  0
    0.1906   -2.7984   -1.0093 H   0  0  0  0  0  0  0  0  0  0  0  0
   -0.5878   -2.5785    0.6322 H   0  0  0  0  0  0  0  0  0  0  0  0
   -1.6461   -2.6973   -0.8630 H   0  0  0  0  0  0  0  0  0  0  0  0
   -1.1045   -0.5351    1.5736 H   0  0  0  0  0  0  0  0  0  0  0  0
   -2.7414    1.0669    0.7544 H   0  0  0  0  0  0  0  0  0  0  0  0
   -1.8024    1.3539   -0.7157 H   0  0  0  0  0  0  0  0  0  0  0  0
   -0.4580    2.6592    0.2286 H   0  0  0  0  0  0  0  0  0  0  0  0
  1  2  1  0
  2  3  1  0
  3  4  1  0
  4  5  1  0
  4  6  1  0
  6  7  1  0
  7  8  1  0
  6  3  1  0
  1  9  1  0
  1 10  1  0
  1 11  1  0
  3 12  1  0
  4 13  1  0
  5 14  1  0
  5 15  1  0
  5 16  1  0
  6 17  1  0
  7 18  1  0
  7 19  1  0
  8 20  1  0
M  END
