
     RDKit          3D

 19 19  0  0  0  0  0  0  0  0999 V2000
    2.6283    0.2484   -0.1849 C   0  0  0  0  0  0  0  0  0  0  0  0
    1.3154    0.5175   -0.5883 O   0  0  0  0  0  0  0  0  0  0  0  0
    0.4320   -0.2430    0.1542 C   0  0  0  0  0  0  0  0  0  0  0  0
   -0.6687   -0.9167   -0.6173 C   0  0  0  0  0  0  0  0  0  0  0  0
   -0.4969   -1.0034   -1.9827 O   0  0  0  0  0  0  0  0  0  0  0  0
   -1.6478    0.0766   -0.1064 C   0  0  0  0  0  0  0  0  0  0  0  0
   -2.0865    1.0504   -0.9779 O   0  0  0  0  0  0  0  0  0  0  0  0
   -0.6049    0.6361    0.8283 C   0  0  0  0  0  0  0  0  0  0  0  0
   -0.8713    0.2256    2.1398 O   0  0  0  0  0  0  0  0  0  0  0  0
    3.2807    0.8894   -0.8183 H   0  0  0  0  0  0  0  0  0  0  0  0
    2.8382   -0.8138   -0.4735 H   0  0  0  0  0  0  0  0  0  0  0  0
    2.7876    0.3631    0.8872 H   0  0  0  0  0  0  0  0  0  0  0  0
    0.9489   -0.8978    0.9045 H   0  0  0  0  0  0  0  0  0  0  0  0
   -0.8261   -1.9551   -0.2062 H   0  0  0  0  0  0  0  0  0  0  0  0
   -0.2405   -1.9317   -2.2669 H   0  0  0  0  0  0  0  0  0  0  0  0
   -2.5080   -0.4260    0.3742 H   0  0  0  0  0  0  0  0  0  0  0  0
   -2.8916    1.4709   -0.5525 H   0  0  0  0  0  0  0  0  0  0  0  0
   -0.4007    1.7208    0.7278 H   0  0  0  0  0  0  0  0  0  0  0  0
   -0.9881    0.9888    2.7589 H   0  0  0  0  0  0  0  0  0  0  0  0
  1  2  1  0
  2  3  1  0
  3  4  1  0
  4  5  1  0
  4  6  1  0
  6  7  1  0
  6  8  1  0
  8  9  1  0
  8  3  1  0
  1 10  1  0
  1 11  1  0
  1 12  1  0
  3 13  1  0
  4 14  1  0
  5 15  1  0
  6 16  1  0
  7 17  1  0
  8 18  1  0
  9 19  1  0
M  END
