
     RDKit          3D

 19 21  0  0  0  0  0  0  0  0999 V2000
    2.4244    0.6095    0.4836 C   0  0  0  0  0  0  0  0  0  0  0  0
    1.1165    0.4763    1.0045 O   0  0  0  0  0  0  0  0  0  0  0  0
    0.2649   -0.0894    0.0871 C   0  0  0  0  0  0  0  0  0  0  0  0
    0.6650   -1.4861   -0.3772 C   0  0  0  0  0  0  0  0  0  0  0  0
   -0.5031   -1.3764    0.5091 C   0  0  0  0  0  0  0  0  0  0  0  0
   -1.7592   -0.8065   -0.1636 C   0  0  0  0  0  0  0  0  0  0  0  0
   -1.0287    0.4822   -0.2687 C   0  0  0  0  0  0  0  0  0  0  0  0
   -1.4936    1.6704   -0.7131 C   0  0  0  0  0  0  0  0  0  0  0  0
   -1.4868    1.4385    0.7750 O   0  0  0  0  0  0  0  0  0  0  0  0
    2.3846    1.2595   -0.4198 H   0  0  0  0  0  0  0  0  0  0  0  0
    2.8552   -0.3705    0.1990 H   0  0  0  0  0  0  0  0  0  0  0  0
    3.0822    1.0977    1.2241 H   0  0  0  0  0  0  0  0  0  0  0  0
    1.5633   -1.9369    0.0326 H   0  0  0  0  0  0  0  0  0  0  0  0
    0.4354   -1.7588   -1.4407 H   0  0  0  0  0  0  0  0  0  0  0  0
   -0.4967   -1.5454    1.5801 H   0  0  0  0  0  0  0  0  0  0  0  0
   -1.9465   -1.2348   -1.1769 H   0  0  0  0  0  0  0  0  0  0  0  0
   -2.6368   -0.8388    0.5213 H   0  0  0  0  0  0  0  0  0  0  0  0
   -0.8788    2.5743   -0.8849 H   0  0  0  0  0  0  0  0  0  0  0  0
   -2.5612    1.8353   -0.9715 H   0  0  0  0  0  0  0  0  0  0  0  0
  1  2  1  0
  2  3  1  0
  3  4  1  0
  4  5  1  0
  5  6  1  0
  6  7  1  0
  7  8  1  0
  8  9  1  0
  5  3  1  0
  9  7  1  0
  7  3  1  0
  1 10  1  0
  1 11  1  0
  1 12  1  0
  4 13  1  0
  4 14  1  0
  5 15  1  0
  6 16  1  0
  6 17  1  0
  8 18  1  0
  8 19  1  0
M  END
