
     RDKit          3D

 21 21  0  0  0  0  0  0  0  0999 V2000
    2.2016   -1.2152   -0.4846 C   0  0  0  0  0  0  0  0  0  0  0  0
    1.0909   -0.4359   -0.8142 O   0  0  0  0  0  0  0  0  0  0  0  0
    0.8864    0.5024    0.1596 C   0  0  0  0  0  0  0  0  0  0  0  0
    0.8185    1.8901   -0.4952 C   0  0  0  0  0  0  0  0  0  0  0  0
   -0.5571    1.6209   -0.6932 O   0  0  0  0  0  0  0  0  0  0  0  0
   -0.5129    0.8959    0.4766 C   0  0  0  0  0  0  0  0  0  0  0  0
   -1.5207   -0.2049    0.6233 C   0  0  0  0  0  0  0  0  0  0  0  0
   -1.4589   -1.2458   -0.4409 C   0  0  0  0  0  0  0  0  0  0  0  0
   -2.7955    0.4004    0.5477 O   0  0  0  0  0  0  0  0  0  0  0  0
    1.9753   -1.6998    0.4882 H   0  0  0  0  0  0  0  0  0  0  0  0
    2.3814   -2.0267   -1.2197 H   0  0  0  0  0  0  0  0  0  0  0  0
    3.1138   -0.6178   -0.3554 H   0  0  0  0  0  0  0  0  0  0  0  0
    1.6094    0.4746    0.9982 H   0  0  0  0  0  0  0  0  0  0  0  0
    0.9385    2.6603    0.2783 H   0  0  0  0  0  0  0  0  0  0  0  0
    1.4011    1.9903   -1.4143 H   0  0  0  0  0  0  0  0  0  0  0  0
   -0.5464    1.5664    1.3534 H   0  0  0  0  0  0  0  0  0  0  0  0
   -1.4365   -0.6441    1.6303 H   0  0  0  0  0  0  0  0  0  0  0  0
   -2.4185   -1.8348   -0.3824 H   0  0  0  0  0  0  0  0  0  0  0  0
   -1.4263   -0.7873   -1.4406 H   0  0  0  0  0  0  0  0  0  0  0  0
   -0.6073   -1.9386   -0.2479 H   0  0  0  0  0  0  0  0  0  0  0  0
   -3.1368    0.6495    1.4327 H   0  0  0  0  0  0  0  0  0  0  0  0
  1  2  1  0
  2  3  1  0
  3  4  1  0
  4  5  1  0
  5  6  1  0
  6  7  1  0
  7  8  1  0
  7  9  1  0
  6  3  1  0
  1 10  1  0
  1 11  1  0
  1 12  1  0
  3 13  1  0
  4 14  1  0
  4 15  1  0
  6 16  1  0
  7 17  1  0
  8 18  1  0
  8 19  1  0
  8 20  1  0
  9 21  1  0
M  END
