
     RDKit          3D

 14 14  0  0  0  0  0  0  0  0999 V2000
   -2.1664    0.4780   -0.0626 C   0  0  0  0  0  0  0  0  0  0  0  0
   -0.9378    0.2209   -0.6588 O   0  0  0  0  0  0  0  0  0  0  0  0
   -0.0016    0.0815    0.3265 C   0  0  0  0  0  0  0  0  0  0  0  0
    0.9333   -1.1269    0.0841 C   0  0  0  0  0  0  0  0  0  0  0  0
    1.4450    0.2451    0.1228 C   0  0  0  0  0  0  0  0  0  0  0  0
    1.9204    0.7852   -1.0937 O   0  0  0  0  0  0  0  0  0  0  0  0
   -2.0694    1.4228    0.5300 H   0  0  0  0  0  0  0  0  0  0  0  0
   -2.4445   -0.3024    0.6846 H   0  0  0  0  0  0  0  0  0  0  0  0
   -2.9955    0.5183   -0.7872 H   0  0  0  0  0  0  0  0  0  0  0  0
   -0.3817    0.1945    1.3628 H   0  0  0  0  0  0  0  0  0  0  0  0
    0.8987   -1.6278   -0.8946 H   0  0  0  0  0  0  0  0  0  0  0  0
    1.0016   -1.8210    0.9486 H   0  0  0  0  0  0  0  0  0  0  0  0
    2.0208    0.6498    0.9815 H   0  0  0  0  0  0  0  0  0  0  0  0
    2.7770    0.2821   -1.2698 H   0  0  0  0  0  0  0  0  0  0  0  0
  1  2  1  0
  2  3  1  0
  3  4  1  0
  4  5  1  0
  5  6  1  0
  5  3  1  0
  1  7  1  0
  1  8  1  0
  1  9  1  0
  3 10  1  0
  4 11  1  0
  4 12  1  0
  5 13  1  0
  6 14  1  0
M  END
