
     RDKit          3D

 17 17  0  0  0  0  0  0  0  0999 V2000
    2.6190    0.3358    0.2048 C   0  0  0  0  0  0  0  0  0  0  0  0
    1.3461    0.2239    0.7201 O   0  0  0  0  0  0  0  0  0  0  0  0
    0.4176   -0.0087   -0.3246 C   0  0  0  0  0  0  0  0  0  0  0  0
   -0.3829   -1.2335   -0.2338 C   0  0  0  0  0  0  0  0  0  0  0  0
   -0.9674    0.1849   -0.0267 C   0  0  0  0  0  0  0  0  0  0  0  0
   -1.3704    0.4016    1.4134 C   0  0  0  0  0  0  0  0  0  0  0  0
   -1.7346    1.5078    1.7105 O   0  0  0  0  0  0  0  0  0  0  0  0
   -2.1320    0.3486   -0.9295 C   0  0  0  0  0  0  0  0  0  0  0  0
   -2.2454    1.3476   -1.6978 O   0  0  0  0  0  0  0  0  0  0  0  0
    3.0459   -0.6328   -0.1968 H   0  0  0  0  0  0  0  0  0  0  0  0
    2.5638    0.9911   -0.7774 H   0  0  0  0  0  0  0  0  0  0  0  0
    3.3545    0.8616    0.8069 H   0  0  0  0  0  0  0  0  0  0  0  0
    0.8708    0.0888   -1.3431 H   0  0  0  0  0  0  0  0  0  0  0  0
   -0.4453   -1.8548    0.6363 H   0  0  0  0  0  0  0  0  0  0  0  0
   -0.6907   -1.7665   -1.1735 H   0  0  0  0  0  0  0  0  0  0  0  0
   -1.3242   -0.4034    2.1842 H   0  0  0  0  0  0  0  0  0  0  0  0
   -2.9249   -0.3919   -0.9730 H   0  0  0  0  0  0  0  0  0  0  0  0
  1  2  1  0
  2  3  1  0
  3  4  1  0
  4  5  1  0
  5  6  1  0
  6  7  2  0
  5  8  1  0
  8  9  2  0
  5  3  1  0
  1 10  1  0
  1 11  1  0
  1 12  1  0
  3 13  1  0
  4 14  1  0
  4 15  1  0
  6 16  1  0
  8 17  1  0
M  END
