
     RDKit          3D

 21 22  0  0  0  0  0  0  0  0999 V2000
    3.3336    0.5808   -0.1001 C   0  0  0  0  0  0  0  0  0  0  0  0
    2.0626    0.5572   -0.7148 O   0  0  0  0  0  0  0  0  0  0  0  0
    1.2036   -0.1465    0.1092 C   0  0  0  0  0  0  0  0  0  0  0  0
    0.3831   -1.1841   -0.6448 C   0  0  0  0  0  0  0  0  0  0  0  0
   -0.8456   -0.5557   -0.1099 C   0  0  0  0  0  0  0  0  0  0  0  0
   -0.0733    0.5877    0.4691 C   0  0  0  0  0  0  0  0  0  0  0  0
   -1.6406   -1.3469    0.6897 O   0  0  0  0  0  0  0  0  0  0  0  0
   -2.1495   -0.5810   -0.4749 C   0  0  0  0  0  0  0  0  0  0  0  0
   -3.0946    0.5552   -0.0530 C   0  0  0  0  0  0  0  0  0  0  0  0
    3.2471    1.0857    0.8993 H   0  0  0  0  0  0  0  0  0  0  0  0
    3.7203   -0.4344    0.0437 H   0  0  0  0  0  0  0  0  0  0  0  0
    4.0251    1.2260   -0.6921 H   0  0  0  0  0  0  0  0  0  0  0  0
    1.6714   -0.5354    1.0519 H   0  0  0  0  0  0  0  0  0  0  0  0
    0.6102   -2.2023   -0.2173 H   0  0  0  0  0  0  0  0  0  0  0  0
    0.5320   -1.1813   -1.7423 H   0  0  0  0  0  0  0  0  0  0  0  0
   -0.2733    0.6733    1.5586 H   0  0  0  0  0  0  0  0  0  0  0  0
   -0.2226    1.5512   -0.0560 H   0  0  0  0  0  0  0  0  0  0  0  0
   -2.5909   -1.2480   -1.2476 H   0  0  0  0  0  0  0  0  0  0  0  0
   -3.0296    0.7336    1.0418 H   0  0  0  0  0  0  0  0  0  0  0  0
   -4.1215    0.3564   -0.4035 H   0  0  0  0  0  0  0  0  0  0  0  0
   -2.7475    1.5084   -0.5266 H   0  0  0  0  0  0  0  0  0  0  0  0
  1  2  1  0
  2  3  1  0
  3  4  1  0
  4  5  1  0
  5  6  1  0
  5  7  1  0
  7  8  1  0
  8  9  1  0
  6  3  1  0
  8  5  1  0
  1 10  1  0
  1 11  1  0
  1 12  1  0
  3 13  1  0
  4 14  1  0
  4 15  1  0
  6 16  1  0
  6 17  1  0
  8 18  1  0
  9 19  1  0
  9 20  1  0
  9 21  1  0
M  END
