
     RDKit          3D

 23 24  0  0  0  0  0  0  0  0999 V2000
    3.2606   -0.2190    0.2483 C   0  0  0  0  0  0  0  0  0  0  0  0
    2.1525    0.5517   -0.0478 O   0  0  0  0  0  0  0  0  0  0  0  0
    0.9618   -0.0228    0.3681 C   0  0  0  0  0  0  0  0  0  0  0  0
    0.1326    0.8773    1.2180 C   0  0  0  0  0  0  0  0  0  0  0  0
   -1.3016    0.6706    0.8775 C   0  0  0  0  0  0  0  0  0  0  0  0
   -1.8783    1.2429   -0.3849 C   0  0  0  0  0  0  0  0  0  0  0  0
   -1.2865   -0.1085   -0.3680 C   0  0  0  0  0  0  0  0  0  0  0  0
   -2.1451   -1.3470   -0.3686 C   0  0  0  0  0  0  0  0  0  0  0  0
    0.1122   -0.2400   -0.8632 C   0  0  0  0  0  0  0  0  0  0  0  0
    4.1499    0.3371   -0.1287 H   0  0  0  0  0  0  0  0  0  0  0  0
    3.2338   -1.1737   -0.3230 H   0  0  0  0  0  0  0  0  0  0  0  0
    3.4120   -0.3776    1.3307 H   0  0  0  0  0  0  0  0  0  0  0  0
    1.1186   -0.9968    0.8628 H   0  0  0  0  0  0  0  0  0  0  0  0
    0.4128    1.9509    1.1361 H   0  0  0  0  0  0  0  0  0  0  0  0
    0.2573    0.6194    2.3102 H   0  0  0  0  0  0  0  0  0  0  0  0
   -2.0458    0.4447    1.6776 H   0  0  0  0  0  0  0  0  0  0  0  0
   -1.2682    2.0719   -0.8117 H   0  0  0  0  0  0  0  0  0  0  0  0
   -2.9635    1.3146   -0.4729 H   0  0  0  0  0  0  0  0  0  0  0  0
   -2.9792   -1.2057    0.3571 H   0  0  0  0  0  0  0  0  0  0  0  0
   -2.5111   -1.4956   -1.4021 H   0  0  0  0  0  0  0  0  0  0  0  0
   -1.5029   -2.1897   -0.0375 H   0  0  0  0  0  0  0  0  0  0  0  0
    0.3219   -1.2519   -1.2986 H   0  0  0  0  0  0  0  0  0  0  0  0
    0.3560    0.5472   -1.5898 H   0  0  0  0  0  0  0  0  0  0  0  0
  1  2  1  0
  2  3  1  0
  3  4  1  0
  4  5  1  0
  5  6  1  0
  6  7  1  0
  7  8  1  0
  7  9  1  0
  9  3  1  0
  7  5  1  0
  1 10  1  0
  1 11  1  0
  1 12  1  0
  3 13  1  0
  4 14  1  0
  4 15  1  0
  5 16  1  0
  6 17  1  0
  6 18  1  0
  8 19  1  0
  8 20  1  0
  8 21  1  0
  9 22  1  0
  9 23  1  0
M  END
