
     RDKit          3D

 18 20  0  0  0  0  0  0  0  0999 V2000
    2.2602    0.4944   -0.1251 C   0  0  0  0  0  0  0  0  0  0  0  0
    1.4115    0.5138    0.9739 O   0  0  0  0  0  0  0  0  0  0  0  0
    0.2177   -0.1352    0.7567 C   0  0  0  0  0  0  0  0  0  0  0  0
    0.3106   -1.6152    0.4010 C   0  0  0  0  0  0  0  0  0  0  0  0
   -0.2068   -0.6360   -0.5576 C   0  0  0  0  0  0  0  0  0  0  0  0
   -1.6055   -0.1583   -0.2903 C   0  0  0  0  0  0  0  0  0  0  0  0
   -1.8397    1.2721   -0.0018 C   0  0  0  0  0  0  0  0  0  0  0  0
   -1.0910    0.4968    1.0117 C   0  0  0  0  0  0  0  0  0  0  0  0
    1.7764    0.9907   -1.0016 H   0  0  0  0  0  0  0  0  0  0  0  0
    3.1401    1.1256    0.1308 H   0  0  0  0  0  0  0  0  0  0  0  0
    2.6489   -0.5072   -0.3503 H   0  0  0  0  0  0  0  0  0  0  0  0
    1.3148   -2.0100    0.2458 H   0  0  0  0  0  0  0  0  0  0  0  0
   -0.4150   -2.2835    0.9289 H   0  0  0  0  0  0  0  0  0  0  0  0
    0.2993   -0.3769   -1.5027 H   0  0  0  0  0  0  0  0  0  0  0  0
   -2.3849   -0.9330   -0.1300 H   0  0  0  0  0  0  0  0  0  0  0  0
   -1.3565    2.0166   -0.6550 H   0  0  0  0  0  0  0  0  0  0  0  0
   -2.8871    1.5269    0.2620 H   0  0  0  0  0  0  0  0  0  0  0  0
   -1.5928    0.2183    1.9495 H   0  0  0  0  0  0  0  0  0  0  0  0
  1  2  1  0
  2  3  1  0
  3  4  1  0
  4  5  1  0
  5  6  1  0
  6  7  1  0
  7  8  1  0
  5  3  1  0
  8  6  1  0
  8  3  1  0
  1  9  1  0
  1 10  1  0
  1 11  1  0
  4 12  1  0
  4 13  1  0
  5 14  1  0
  6 15  1  0
  7 16  1  0
  7 17  1  0
  8 18  1  0
M  END
