
     RDKit          3D

 19 20  0  0  0  0  0  0  0  0999 V2000
    2.6881   -0.0691   -0.4055 C   0  0  0  0  0  0  0  0  0  0  0  0
    1.4557   -0.7125   -0.3109 O   0  0  0  0  0  0  0  0  0  0  0  0
    0.4702    0.2117   -0.4816 C   0  0  0  0  0  0  0  0  0  0  0  0
   -0.5682   -0.1002   -1.5014 C   0  0  0  0  0  0  0  0  0  0  0  0
   -0.5111   -0.4849   -2.6550 O   0  0  0  0  0  0  0  0  0  0  0  0
   -1.6808    0.2268   -0.6032 C   0  0  0  0  0  0  0  0  0  0  0  0
   -1.5995    1.2371    0.4575 C   0  0  0  0  0  0  0  0  0  0  0  0
   -0.6488    0.1406    0.5482 C   0  0  0  0  0  0  0  0  0  0  0  0
   -0.7982   -1.0648    1.3928 C   0  0  0  0  0  0  0  0  0  0  0  0
    2.7093    0.3832   -1.4391 H   0  0  0  0  0  0  0  0  0  0  0  0
    2.7423    0.8272    0.2760 H   0  0  0  0  0  0  0  0  0  0  0  0
    3.5422   -0.7155   -0.2229 H   0  0  0  0  0  0  0  0  0  0  0  0
    0.8363    1.2451   -0.6538 H   0  0  0  0  0  0  0  0  0  0  0  0
   -2.5234   -0.4710   -0.5837 H   0  0  0  0  0  0  0  0  0  0  0  0
   -1.1540    2.2570    0.2621 H   0  0  0  0  0  0  0  0  0  0  0  0
   -2.4161    1.2791    1.1786 H   0  0  0  0  0  0  0  0  0  0  0  0
    0.1497   -1.3754    1.8658 H   0  0  0  0  0  0  0  0  0  0  0  0
   -1.5914   -0.8830    2.1377 H   0  0  0  0  0  0  0  0  0  0  0  0
   -1.1024   -1.9314    0.7382 H   0  0  0  0  0  0  0  0  0  0  0  0
  1  2  1  0
  2  3  1  0
  3  4  1  0
  4  5  2  0
  4  6  1  0
  6  7  1  0
  7  8  1  0
  8  9  1  0
  8  3  1  0
  8  6  1  0
  1 10  1  0
  1 11  1  0
  1 12  1  0
  3 13  1  0
  6 14  1  0
  7 15  1  0
  7 16  1  0
  9 17  1  0
  9 18  1  0
  9 19  1  0
M  END
