
     RDKit          3D

 21 22  0  0  0  0  0  0  0  0999 V2000
    2.5761   -0.8515    0.3922 C   0  0  0  0  0  0  0  0  0  0  0  0
    1.5420   -0.1830   -0.2497 O   0  0  0  0  0  0  0  0  0  0  0  0
    0.5909    0.2874    0.6618 C   0  0  0  0  0  0  0  0  0  0  0  0
    0.3679    1.7643    0.4036 C   0  0  0  0  0  0  0  0  0  0  0  0
   -0.8593    1.3447   -0.3998 C   0  0  0  0  0  0  0  0  0  0  0  0
   -1.9559    0.7994    0.3982 C   0  0  0  0  0  0  0  0  0  0  0  0
   -0.7868   -0.0752    0.2198 C   0  0  0  0  0  0  0  0  0  0  0  0
   -0.9024   -1.2340   -0.7301 C   0  0  0  0  0  0  0  0  0  0  0  0
   -2.2444   -1.4560   -1.0544 O   0  0  0  0  0  0  0  0  0  0  0  0
    3.2787   -1.1875   -0.3989 H   0  0  0  0  0  0  0  0  0  0  0  0
    3.0984   -0.1264    1.0307 H   0  0  0  0  0  0  0  0  0  0  0  0
    2.1852   -1.7324    0.9536 H   0  0  0  0  0  0  0  0  0  0  0  0
    0.8603    0.0292    1.7025 H   0  0  0  0  0  0  0  0  0  0  0  0
    0.0269    2.3414    1.2820 H   0  0  0  0  0  0  0  0  0  0  0  0
    1.1509    2.2517   -0.2124 H   0  0  0  0  0  0  0  0  0  0  0  0
   -0.8140    1.3467   -1.4886 H   0  0  0  0  0  0  0  0  0  0  0  0
   -2.1510    1.2988    1.3888 H   0  0  0  0  0  0  0  0  0  0  0  0
   -2.8762    0.5089   -0.1094 H   0  0  0  0  0  0  0  0  0  0  0  0
   -0.3274   -0.9566   -1.6526 H   0  0  0  0  0  0  0  0  0  0  0  0
   -0.4216   -2.1315   -0.2875 H   0  0  0  0  0  0  0  0  0  0  0  0
   -2.3382   -2.0385   -1.8498 H   0  0  0  0  0  0  0  0  0  0  0  0
  1  2  1  0
  2  3  1  0
  3  4  1  0
  4  5  1  0
  5  6  1  0
  6  7  1  0
  7  8  1  0
  8  9  1  0
  7  3  1  0
  7  5  1  0
  1 10  1  0
  1 11  1  0
  1 12  1  0
  3 13  1  0
  4 14  1  0
  4 15  1  0
  5 16  1  0
  6 17  1  0
  6 18  1  0
  8 19  1  0
  8 20  1  0
  9 21  1  0
M  END
