
     RDKit          3D

 20 20  0  0  0  0  0  0  0  0999 V2000
    3.1195    0.3672    0.7135 C   0  0  0  0  0  0  0  0  0  0  0  0
    1.9968    0.7900    0.0015 O   0  0  0  0  0  0  0  0  0  0  0  0
    0.8682    0.1109    0.3812 C   0  0  0  0  0  0  0  0  0  0  0  0
   -0.3535    0.9966    0.6683 C   0  0  0  0  0  0  0  0  0  0  0  0
   -1.1706   -0.1223    0.0713 C   0  0  0  0  0  0  0  0  0  0  0  0
   -2.3234    0.2974   -0.7903 C   0  0  0  0  0  0  0  0  0  0  0  0
   -2.9513   -0.8625   -1.2462 O   0  0  0  0  0  0  0  0  0  0  0  0
    0.0607   -0.4097   -0.8041 C   0  0  0  0  0  0  0  0  0  0  0  0
    3.9758    0.9696    0.3391 H   0  0  0  0  0  0  0  0  0  0  0  0
    3.0056    0.4963    1.8068 H   0  0  0  0  0  0  0  0  0  0  0  0
    3.3760   -0.6930    0.4473 H   0  0  0  0  0  0  0  0  0  0  0  0
    1.0538   -0.6356    1.1703 H   0  0  0  0  0  0  0  0  0  0  0  0
   -0.5152    1.2091    1.7295 H   0  0  0  0  0  0  0  0  0  0  0  0
   -0.3217    1.8847    0.0171 H   0  0  0  0  0  0  0  0  0  0  0  0
   -1.3785   -0.9054    0.8072 H   0  0  0  0  0  0  0  0  0  0  0  0
   -1.9544    0.8264   -1.6907 H   0  0  0  0  0  0  0  0  0  0  0  0
   -3.0419    0.9616   -0.2719 H   0  0  0  0  0  0  0  0  0  0  0  0
   -3.7693   -1.0558   -0.6852 H   0  0  0  0  0  0  0  0  0  0  0  0
    0.2163   -1.4559   -1.0498 H   0  0  0  0  0  0  0  0  0  0  0  0
    0.1072    0.3314   -1.6148 H   0  0  0  0  0  0  0  0  0  0  0  0
  1  2  1  0
  2  3  1  0
  3  4  1  0
  4  5  1  0
  5  6  1  0
  6  7  1  0
  5  8  1  0
  8  3  1  0
  1  9  1  0
  1 10  1  0
  1 11  1  0
  3 12  1  0
  4 13  1  0
  4 14  1  0
  5 15  1  0
  6 16  1  0
  6 17  1  0
  7 18  1  0
  8 19  1  0
  8 20  1  0
M  END
