
     RDKit          3D

 17 18  0  0  0  0  0  0  0  0999 V2000
    2.5080    0.3821    0.4324 C   0  0  0  0  0  0  0  0  0  0  0  0
    1.5909    0.0987   -0.5356 O   0  0  0  0  0  0  0  0  0  0  0  0
    0.2907    0.0461   -0.1657 C   0  0  0  0  0  0  0  0  0  0  0  0
   -0.4333   -1.2279   -0.4394 C   0  0  0  0  0  0  0  0  0  0  0  0
   -1.8547   -0.8270   -0.0714 C   0  0  0  0  0  0  0  0  0  0  0  0
   -2.6733   -0.3093   -1.0618 O   0  0  0  0  0  0  0  0  0  0  0  0
   -1.9613    0.6548   -0.3897 C   0  0  0  0  0  0  0  0  0  0  0  0
   -0.5942    1.0321   -0.8477 C   0  0  0  0  0  0  0  0  0  0  0  0
   -0.2767    1.9166   -1.5880 O   0  0  0  0  0  0  0  0  0  0  0  0
    2.2856    1.3895    0.8785 H   0  0  0  0  0  0  0  0  0  0  0  0
    3.5018    0.5176   -0.0724 H   0  0  0  0  0  0  0  0  0  0  0  0
    2.6459   -0.3660    1.2041 H   0  0  0  0  0  0  0  0  0  0  0  0
    0.2138    0.2565    0.9211 H   0  0  0  0  0  0  0  0  0  0  0  0
   -0.4712   -1.5044   -1.5055 H   0  0  0  0  0  0  0  0  0  0  0  0
   -0.0954   -2.0849    0.1764 H   0  0  0  0  0  0  0  0  0  0  0  0
   -2.2776   -1.2180    0.8580 H   0  0  0  0  0  0  0  0  0  0  0  0
   -2.3991    1.2437    0.4230 H   0  0  0  0  0  0  0  0  0  0  0  0
  1  2  1  0
  2  3  1  0
  3  4  1  0
  4  5  1  0
  5  6  1  0
  6  7  1  0
  7  8  1  0
  8  9  2  0
  8  3  1  0
  7  5  1  0
  1 10  1  0
  1 11  1  0
  1 12  1  0
  3 13  1  0
  4 14  1  0
  4 15  1  0
  5 16  1  0
  7 17  1  0
M  END
