
     RDKit          3D

 17 17  0  0  0  0  0  0  0  0999 V2000
   -2.0234   -0.5304   -0.0463 C   0  0  0  0  0  0  0  0  0  0  0  0
   -0.7609   -0.9954    0.2034 O   0  0  0  0  0  0  0  0  0  0  0  0
    0.2686   -0.1203    0.0786 C   0  0  0  0  0  0  0  0  0  0  0  0
    1.6295   -0.7656    0.3783 C   0  0  0  0  0  0  0  0  0  0  0  0
    1.7706   -1.7979   -0.5455 O   0  0  0  0  0  0  0  0  0  0  0  0
    0.2719    1.0692   -0.7742 C   0  0  0  0  0  0  0  0  0  0  0  0
    0.0938    1.2533    0.7261 C   0  0  0  0  0  0  0  0  0  0  0  0
   -2.7101   -1.4183    0.1077 H   0  0  0  0  0  0  0  0  0  0  0  0
   -2.3284    0.1739    0.7538 H   0  0  0  0  0  0  0  0  0  0  0  0
   -2.2067   -0.1720   -1.0614 H   0  0  0  0  0  0  0  0  0  0  0  0
    1.5410   -1.1483    1.4163 H   0  0  0  0  0  0  0  0  0  0  0  0
    2.4394   -0.0169    0.2616 H   0  0  0  0  0  0  0  0  0  0  0  0
    1.2956   -1.5694   -1.3607 H   0  0  0  0  0  0  0  0  0  0  0  0
    1.2544    1.4159   -1.1495 H   0  0  0  0  0  0  0  0  0  0  0  0
   -0.5771    1.4018   -1.3798 H   0  0  0  0  0  0  0  0  0  0  0  0
    0.9425    1.6622    1.3075 H   0  0  0  0  0  0  0  0  0  0  0  0
   -0.9006    1.5583    1.0841 H   0  0  0  0  0  0  0  0  0  0  0  0
  1  2  1  0
  2  3  1  0
  3  4  1  0
  4  5  1  0
  3  6  1  0
  6  7  1  0
  7  3  1  0
  1  8  1  0
  1  9  1  0
  1 10  1  0
  4 11  1  0
  4 12  1  0
  5 13  1  0
  6 14  1  0
  6 15  1  0
  7 16  1  0
  7 17  1  0
M  END
