
     RDKit          3D

 19 19  0  0  0  0  0  0  0  0999 V2000
   -2.1843    1.2679   -0.7797 C   0  0  0  0  0  0  0  0  0  0  0  0
   -1.2965    0.2168   -1.0950 O   0  0  0  0  0  0  0  0  0  0  0  0
   -0.6713   -0.1152    0.0736 C   0  0  0  0  0  0  0  0  0  0  0  0
   -0.6858   -1.6078    0.4238 C   0  0  0  0  0  0  0  0  0  0  0  0
    0.6573   -1.3072    1.1103 C   0  0  0  0  0  0  0  0  0  0  0  0
    0.8445   -0.2751   -0.0110 C   0  0  0  0  0  0  0  0  0  0  0  0
    1.5870    0.8456    0.3381 O   0  0  0  0  0  0  0  0  0  0  0  0
    2.6684    1.2213   -0.4287 C   0  0  0  0  0  0  0  0  0  0  0  0
    3.0103    0.5738   -1.4490 O   0  0  0  0  0  0  0  0  0  0  0  0
   -1.5751    2.0880   -0.3863 H   0  0  0  0  0  0  0  0  0  0  0  0
   -2.8231    0.9133    0.0702 H   0  0  0  0  0  0  0  0  0  0  0  0
   -2.8155    1.5415   -1.6283 H   0  0  0  0  0  0  0  0  0  0  0  0
   -0.9504    0.4509    0.9761 H   0  0  0  0  0  0  0  0  0  0  0  0
   -1.4924   -1.8825    1.1084 H   0  0  0  0  0  0  0  0  0  0  0  0
   -0.4972   -2.2704   -0.4261 H   0  0  0  0  0  0  0  0  0  0  0  0
    1.3686   -2.1277    1.1040 H   0  0  0  0  0  0  0  0  0  0  0  0
    0.4575   -0.7930    2.0610 H   0  0  0  0  0  0  0  0  0  0  0  0
    1.1675   -0.8333   -0.9207 H   0  0  0  0  0  0  0  0  0  0  0  0
    3.2306    2.0931   -0.1407 H   0  0  0  0  0  0  0  0  0  0  0  0
  1  2  1  0
  2  3  1  0
  3  4  1  0
  4  5  1  0
  5  6  1  0
  6  7  1  0
  7  8  1  0
  8  9  2  0
  6  3  1  0
  1 10  1  0
  1 11  1  0
  1 12  1  0
  3 13  1  0
  4 14  1  0
  4 15  1  0
  5 16  1  0
  5 17  1  0
  6 18  1  0
  8 19  1  0
M  END
