
     RDKit          3D

 19 20  0  0  0  0  0  0  0  0999 V2000
   -1.3220    2.0059    0.3832 C   0  0  0  0  0  0  0  0  0  0  0  0
   -1.1042    1.0487   -0.5826 O   0  0  0  0  0  0  0  0  0  0  0  0
   -0.2975    0.0055   -0.1478 C   0  0  0  0  0  0  0  0  0  0  0  0
    1.0694    0.4230    0.2909 C   0  0  0  0  0  0  0  0  0  0  0  0
    2.2957   -0.1746   -0.0915 C   0  0  0  0  0  0  0  0  0  0  0  0
    1.8649    1.0830   -0.7584 O   0  0  0  0  0  0  0  0  0  0  0  0
   -0.9139   -1.0466    0.7708 C   0  0  0  0  0  0  0  0  0  0  0  0
   -0.6131   -1.3345   -0.6528 C   0  0  0  0  0  0  0  0  0  0  0  0
    0.3722   -2.2865   -0.8800 O   0  0  0  0  0  0  0  0  0  0  0  0
   -0.3920    2.4922    0.7514 H   0  0  0  0  0  0  0  0  0  0  0  0
   -1.9250    2.8137   -0.0776 H   0  0  0  0  0  0  0  0  0  0  0  0
   -1.9323    1.6004    1.2207 H   0  0  0  0  0  0  0  0  0  0  0  0
    1.0541    1.1158    1.1694 H   0  0  0  0  0  0  0  0  0  0  0  0
    3.1944   -0.0494    0.5263 H   0  0  0  0  0  0  0  0  0  0  0  0
    2.3395   -0.9417   -0.8892 H   0  0  0  0  0  0  0  0  0  0  0  0
   -1.9394   -0.7854    1.1025 H   0  0  0  0  0  0  0  0  0  0  0  0
   -0.3026   -1.5236    1.5381 H   0  0  0  0  0  0  0  0  0  0  0  0
   -1.5018   -1.4416   -1.3070 H   0  0  0  0  0  0  0  0  0  0  0  0
    0.0535   -3.0042   -1.4835 H   0  0  0  0  0  0  0  0  0  0  0  0
  1  2  1  0
  2  3  1  0
  3  4  1  0
  4  5  1  0
  5  6  1  0
  3  7  1  0
  7  8  1  0
  8  9  1  0
  8  3  1  0
  6  4  1  0
  1 10  1  0
  1 11  1  0
  1 12  1  0
  4 13  1  0
  5 14  1  0
  5 15  1  0
  7 16  1  0
  7 17  1  0
  8 18  1  0
  9 19  1  0
M  END
