
     RDKit          3D

 25 25  0  0  0  0  0  0  0  0999 V2000
    3.0155   -0.7422    0.4157 C   0  0  0  0  0  0  0  0  0  0  0  0
    1.7230   -0.5904    0.8572 O   0  0  0  0  0  0  0  0  0  0  0  0
    0.8116   -0.2932   -0.1200 C   0  0  0  0  0  0  0  0  0  0  0  0
   -0.2986   -1.3166   -0.1523 C   0  0  0  0  0  0  0  0  0  0  0  0
   -1.5432   -0.5791   -0.6189 C   0  0  0  0  0  0  0  0  0  0  0  0
   -2.6954   -1.0894    0.2441 C   0  0  0  0  0  0  0  0  0  0  0  0
   -1.3207    0.8566   -0.2512 C   0  0  0  0  0  0  0  0  0  0  0  0
    0.0675    0.9602    0.2949 C   0  0  0  0  0  0  0  0  0  0  0  0
    0.7356    2.2159   -0.1820 C   0  0  0  0  0  0  0  0  0  0  0  0
    3.4396    0.1530   -0.0772 H   0  0  0  0  0  0  0  0  0  0  0  0
    3.6516   -0.9108    1.3265 H   0  0  0  0  0  0  0  0  0  0  0  0
    3.1361   -1.6537   -0.2009 H   0  0  0  0  0  0  0  0  0  0  0  0
    1.2292   -0.2132   -1.1386 H   0  0  0  0  0  0  0  0  0  0  0  0
   -0.0481   -2.0838   -0.9335 H   0  0  0  0  0  0  0  0  0  0  0  0
   -0.4437   -1.7836    0.8469 H   0  0  0  0  0  0  0  0  0  0  0  0
   -1.7640   -0.7461   -1.6768 H   0  0  0  0  0  0  0  0  0  0  0  0
   -2.3399   -1.2162    1.3068 H   0  0  0  0  0  0  0  0  0  0  0  0
   -3.1005   -2.0353   -0.1123 H   0  0  0  0  0  0  0  0  0  0  0  0
   -3.4333   -0.2704    0.2808 H   0  0  0  0  0  0  0  0  0  0  0  0
   -2.0363    1.2229    0.5220 H   0  0  0  0  0  0  0  0  0  0  0  0
   -1.4966    1.5059   -1.1421 H   0  0  0  0  0  0  0  0  0  0  0  0
    0.0133    0.9520    1.4214 H   0  0  0  0  0  0  0  0  0  0  0  0
    1.3108    2.0419   -1.1228 H   0  0  0  0  0  0  0  0  0  0  0  0
   -0.0117    3.0013   -0.4165 H   0  0  0  0  0  0  0  0  0  0  0  0
    1.3983    2.6144    0.6287 H   0  0  0  0  0  0  0  0  0  0  0  0
  1  2  1  0
  2  3  1  0
  3  4  1  0
  4  5  1  0
  5  6  1  0
  5  7  1  0
  7  8  1  0
  8  9  1  0
  8  3  1  0
  1 10  1  0
  1 11  1  0
  1 12  1  0
  3 13  1  0
  4 14  1  0
  4 15  1  0
  5 16  1  0
  6 17  1  0
  6 18  1  0
  6 19  1  0
  7 20  1  0
  7 21  1  0
  8 22  1  0
  9 23  1  0
  9 24  1  0
  9 25  1  0
M  END
