
     RDKit          3D

 21 22  0  0  0  0  0  0  0  0999 V2000
    2.8148   -0.5464    0.1289 C   0  0  0  0  0  0  0  0  0  0  0  0
    1.8864    0.0878    0.9177 O   0  0  0  0  0  0  0  0  0  0  0  0
    0.6701    0.3087    0.2999 C   0  0  0  0  0  0  0  0  0  0  0  0
    0.3124    1.7278    0.1767 C   0  0  0  0  0  0  0  0  0  0  0  0
   -0.9933    1.8424    0.3026 C   0  0  0  0  0  0  0  0  0  0  0  0
   -1.6468    0.5436    0.5211 C   0  0  0  0  0  0  0  0  0  0  0  0
   -1.7721   -0.3975   -0.6252 C   0  0  0  0  0  0  0  0  0  0  0  0
   -1.0931   -1.4623    0.2496 C   0  0  0  0  0  0  0  0  0  0  0  0
   -0.4851   -0.3060    1.0139 C   0  0  0  0  0  0  0  0  0  0  0  0
    2.4074   -1.5477   -0.1768 H   0  0  0  0  0  0  0  0  0  0  0  0
    3.7154   -0.7077    0.7686 H   0  0  0  0  0  0  0  0  0  0  0  0
    3.1412    0.0369   -0.7538 H   0  0  0  0  0  0  0  0  0  0  0  0
    0.6839   -0.0885   -0.7612 H   0  0  0  0  0  0  0  0  0  0  0  0
    1.0650    2.5177    0.0069 H   0  0  0  0  0  0  0  0  0  0  0  0
   -1.5626    2.7825    0.2554 H   0  0  0  0  0  0  0  0  0  0  0  0
   -2.5360    0.5430    1.1728 H   0  0  0  0  0  0  0  0  0  0  0  0
   -1.2076   -0.1111   -1.5112 H   0  0  0  0  0  0  0  0  0  0  0  0
   -2.8209   -0.6808   -0.8794 H   0  0  0  0  0  0  0  0  0  0  0  0
   -1.8123   -2.0428    0.8629 H   0  0  0  0  0  0  0  0  0  0  0  0
   -0.3508   -2.0707   -0.3101 H   0  0  0  0  0  0  0  0  0  0  0  0
   -0.4160   -0.4289    2.0917 H   0  0  0  0  0  0  0  0  0  0  0  0
  1  2  1  0
  2  3  1  0
  3  4  1  0
  4  5  2  0
  5  6  1  0
  6  7  1  0
  7  8  1  0
  8  9  1  0
  9  3  1  0
  9  6  1  0
  1 10  1  0
  1 11  1  0
  1 12  1  0
  3 13  1  0
  4 14  1  0
  5 15  1  0
  6 16  1  0
  7 17  1  0
  7 18  1  0
  8 19  1  0
  8 20  1  0
  9 21  1  0
M  END
