
     RDKit          3D

 21 22  0  0  0  0  0  0  0  0999 V2000
    2.7112    0.7062   -0.0935 C   0  0  0  0  0  0  0  0  0  0  0  0
    1.5801    0.2198   -0.7482 O   0  0  0  0  0  0  0  0  0  0  0  0
    0.7530   -0.3339    0.1948 C   0  0  0  0  0  0  0  0  0  0  0  0
    0.0731   -1.6273   -0.1765 C   0  0  0  0  0  0  0  0  0  0  0  0
   -0.7187   -0.8053   -1.1524 C   0  0  0  0  0  0  0  0  0  0  0  0
   -0.7026    0.0377    0.1277 C   0  0  0  0  0  0  0  0  0  0  0  0
   -1.2669    1.2692    0.2695 C   0  0  0  0  0  0  0  0  0  0  0  0
   -2.6683    1.2481    0.1476 O   0  0  0  0  0  0  0  0  0  0  0  0
   -0.9702   -1.2350    0.8407 C   0  0  0  0  0  0  0  0  0  0  0  0
    2.4025    1.4860    0.6617 H   0  0  0  0  0  0  0  0  0  0  0  0
    3.1376   -0.1230    0.5350 H   0  0  0  0  0  0  0  0  0  0  0  0
    3.4505    1.1505   -0.7635 H   0  0  0  0  0  0  0  0  0  0  0  0
    1.1257   -0.2880    1.2320 H   0  0  0  0  0  0  0  0  0  0  0  0
    0.4903   -2.5227   -0.3102 H   0  0  0  0  0  0  0  0  0  0  0  0
   -0.1856   -0.3748   -1.9980 H   0  0  0  0  0  0  0  0  0  0  0  0
   -1.7058   -1.2486   -1.3461 H   0  0  0  0  0  0  0  0  0  0  0  0
   -0.9406    2.0051   -0.5260 H   0  0  0  0  0  0  0  0  0  0  0  0
   -1.0578    1.7949    1.2231 H   0  0  0  0  0  0  0  0  0  0  0  0
   -2.9891    1.5934   -0.6992 H   0  0  0  0  0  0  0  0  0  0  0  0
   -1.9545   -1.7084    0.7094 H   0  0  0  0  0  0  0  0  0  0  0  0
   -0.5638   -1.2439    1.8723 H   0  0  0  0  0  0  0  0  0  0  0  0
  1  2  1  0
  2  3  1  0
  3  4  1  0
  4  5  1  0
  5  6  1  0
  6  7  1  0
  7  8  1  0
  6  9  1  0
  6  3  1  0
  9  4  1  0
  1 10  1  0
  1 11  1  0
  1 12  1  0
  3 13  1  0
  4 14  1  0
  5 15  1  0
  5 16  1  0
  7 17  1  0
  7 18  1  0
  8 19  1  0
  9 20  1  0
  9 21  1  0
M  END
