
     RDKit          3D

 19 20  0  0  0  0  0  0  0  0999 V2000
    2.5871    0.6482    0.4142 C   0  0  0  0  0  0  0  0  0  0  0  0
    1.2418    0.4772    0.6322 O   0  0  0  0  0  0  0  0  0  0  0  0
    0.5425   -0.0186   -0.4236 C   0  0  0  0  0  0  0  0  0  0  0  0
   -0.1490   -1.3226    0.0014 C   0  0  0  0  0  0  0  0  0  0  0  0
   -1.5677   -1.0559   -0.3834 C   0  0  0  0  0  0  0  0  0  0  0  0
   -2.1443   -0.0935    0.5968 C   0  0  0  0  0  0  0  0  0  0  0  0
   -1.5456    1.0680    0.3400 C   0  0  0  0  0  0  0  0  0  0  0  0
   -0.6545    0.8042   -0.8213 C   0  0  0  0  0  0  0  0  0  0  0  0
   -1.4036   -0.1933   -1.4952 O   0  0  0  0  0  0  0  0  0  0  0  0
    2.8189    1.3511   -0.4194 H   0  0  0  0  0  0  0  0  0  0  0  0
    3.1409   -0.2872    0.2058 H   0  0  0  0  0  0  0  0  0  0  0  0
    3.0224    1.0532    1.3707 H   0  0  0  0  0  0  0  0  0  0  0  0
    1.1240   -0.2263   -1.3266 H   0  0  0  0  0  0  0  0  0  0  0  0
    0.3035   -2.1978   -0.4950 H   0  0  0  0  0  0  0  0  0  0  0  0
   -0.1154   -1.3976    1.1171 H   0  0  0  0  0  0  0  0  0  0  0  0
   -2.1791   -1.9134   -0.5918 H   0  0  0  0  0  0  0  0  0  0  0  0
   -2.8821   -0.3517    1.3264 H   0  0  0  0  0  0  0  0  0  0  0  0
   -1.6979    1.9934    0.8826 H   0  0  0  0  0  0  0  0  0  0  0  0
   -0.4418    1.6626   -1.4357 H   0  0  0  0  0  0  0  0  0  0  0  0
  1  2  1  0
  2  3  1  0
  3  4  1  0
  4  5  1  0
  5  6  1  0
  6  7  2  0
  7  8  1  0
  8  9  1  0
  8  3  1  0
  9  5  1  0
  1 10  1  0
  1 11  1  0
  1 12  1  0
  3 13  1  0
  4 14  1  0
  4 15  1  0
  5 16  1  0
  6 17  1  0
  7 18  1  0
  8 19  1  0
M  END
