
     RDKit          3D

 19 19  0  0  0  0  0  0  0  0999 V2000
    2.8660    0.1490   -0.1623 C   0  0  0  0  0  0  0  0  0  0  0  0
    1.5674    0.3131   -0.6915 O   0  0  0  0  0  0  0  0  0  0  0  0
    0.6147   -0.1724    0.2038 C   0  0  0  0  0  0  0  0  0  0  0  0
   -0.3122    0.9230    0.6766 C   0  0  0  0  0  0  0  0  0  0  0  0
   -1.7159    0.4900    0.3889 C   0  0  0  0  0  0  0  0  0  0  0  0
   -1.6539   -0.7700   -0.4461 C   0  0  0  0  0  0  0  0  0  0  0  0
   -2.0940   -0.4813   -1.7546 O   0  0  0  0  0  0  0  0  0  0  0  0
   -0.2522   -1.2075   -0.4191 C   0  0  0  0  0  0  0  0  0  0  0  0
    0.1496   -2.2720   -0.8474 O   0  0  0  0  0  0  0  0  0  0  0  0
    3.6289    0.5293   -0.8610 H   0  0  0  0  0  0  0  0  0  0  0  0
    2.9774    0.7129    0.7925 H   0  0  0  0  0  0  0  0  0  0  0  0
    3.0594   -0.9357   -0.0290 H   0  0  0  0  0  0  0  0  0  0  0  0
    1.1406   -0.5670    1.1129 H   0  0  0  0  0  0  0  0  0  0  0  0
   -0.0757    1.9081    0.2176 H   0  0  0  0  0  0  0  0  0  0  0  0
   -0.2402    1.0889    1.7810 H   0  0  0  0  0  0  0  0  0  0  0  0
   -2.2908    0.2693    1.3076 H   0  0  0  0  0  0  0  0  0  0  0  0
   -2.2881    1.2708   -0.1578 H   0  0  0  0  0  0  0  0  0  0  0  0
   -2.3668   -1.5335   -0.0500 H   0  0  0  0  0  0  0  0  0  0  0  0
   -2.7144    0.2851   -1.6564 H   0  0  0  0  0  0  0  0  0  0  0  0
  1  2  1  0
  2  3  1  0
  3  4  1  0
  4  5  1  0
  5  6  1  0
  6  7  1  0
  6  8  1  0
  8  9  2  0
  8  3  1  0
  1 10  1  0
  1 11  1  0
  1 12  1  0
  3 13  1  0
  4 14  1  0
  4 15  1  0
  5 16  1  0
  5 17  1  0
  6 18  1  0
  7 19  1  0
M  END
