
     RDKit          3D

 17 18  0  0  0  0  0  0  0  0999 V2000
    2.4703    0.3355   -0.0076 C   0  0  0  0  0  0  0  0  0  0  0  0
    1.4868   -0.5854    0.2100 O   0  0  0  0  0  0  0  0  0  0  0  0
    0.2688   -0.3450    0.0551 C   0  0  0  0  0  0  0  0  0  0  0  0
   -0.8648   -1.3348    0.2839 C   0  0  0  0  0  0  0  0  0  0  0  0
   -1.5470   -0.0688   -0.1225 C   0  0  0  0  0  0  0  0  0  0  0  0
   -2.7779    0.1599   -0.2042 O   0  0  0  0  0  0  0  0  0  0  0  0
   -0.5869    0.6098    0.8575 C   0  0  0  0  0  0  0  0  0  0  0  0
   -0.4858    0.0964   -1.0985 C   0  0  0  0  0  0  0  0  0  0  0  0
   -0.3422    0.4226   -2.2353 O   0  0  0  0  0  0  0  0  0  0  0  0
    3.4550   -0.1718    0.2138 H   0  0  0  0  0  0  0  0  0  0  0  0
    2.5607    0.6650   -1.0667 H   0  0  0  0  0  0  0  0  0  0  0  0
    2.4225    1.1850    0.6960 H   0  0  0  0  0  0  0  0  0  0  0  0
   -1.0157   -1.5409    1.3466 H   0  0  0  0  0  0  0  0  0  0  0  0
   -0.8884   -2.1750   -0.4107 H   0  0  0  0  0  0  0  0  0  0  0  0
   -3.0454    0.7920   -0.9145 H   0  0  0  0  0  0  0  0  0  0  0  0
   -0.4266    1.6751    0.6656 H   0  0  0  0  0  0  0  0  0  0  0  0
   -0.6833    0.2803    1.8913 H   0  0  0  0  0  0  0  0  0  0  0  0
  1  2  1  0
  2  3  1  0
  3  4  1  0
  4  5  1  0
  5  6  1  0
  5  7  1  0
  5  8  1  0
  8  9  2  0
  7  3  1  0
  8  3  1  0
  1 10  1  0
  1 11  1  0
  1 12  1  0
  4 13  1  0
  4 14  1  0
  6 15  1  0
  7 16  1  0
  7 17  1  0
M  END
