
     RDKit          3D

 19 21  0  0  0  0  0  0  0  0999 V2000
    2.5403    0.1273   -0.4282 C   0  0  0  0  0  0  0  0  0  0  0  0
    1.2480    0.3503   -0.9529 O   0  0  0  0  0  0  0  0  0  0  0  0
    0.3467   -0.0312    0.0034 C   0  0  0  0  0  0  0  0  0  0  0  0
    0.3281   -1.4146    0.4932 C   0  0  0  0  0  0  0  0  0  0  0  0
   -0.8044   -0.9976   -0.4525 C   0  0  0  0  0  0  0  0  0  0  0  0
   -1.9425   -0.1914    0.1028 C   0  0  0  0  0  0  0  0  0  0  0  0
   -1.6933    1.2432   -0.2643 C   0  0  0  0  0  0  0  0  0  0  0  0
   -0.5527    0.9938    0.6639 C   0  0  0  0  0  0  0  0  0  0  0  0
   -1.4323    0.1466    1.3797 O   0  0  0  0  0  0  0  0  0  0  0  0
    2.6943   -0.9410   -0.1768 H   0  0  0  0  0  0  0  0  0  0  0  0
    3.3136    0.5132   -1.1394 H   0  0  0  0  0  0  0  0  0  0  0  0
    2.5952    0.6842    0.5399 H   0  0  0  0  0  0  0  0  0  0  0  0
    0.0232   -1.5949    1.5545 H   0  0  0  0  0  0  0  0  0  0  0  0
    1.0445   -2.1222    0.0337 H   0  0  0  0  0  0  0  0  0  0  0  0
   -0.7800   -1.3165   -1.4903 H   0  0  0  0  0  0  0  0  0  0  0  0
   -2.9373   -0.5815    0.0657 H   0  0  0  0  0  0  0  0  0  0  0  0
   -2.4403    1.8960    0.1859 H   0  0  0  0  0  0  0  0  0  0  0  0
   -1.4466    1.4386   -1.3218 H   0  0  0  0  0  0  0  0  0  0  0  0
   -0.1045    1.7979    1.2032 H   0  0  0  0  0  0  0  0  0  0  0  0
  1  2  1  0
  2  3  1  0
  3  4  1  0
  4  5  1  0
  5  6  1  0
  6  7  1  0
  7  8  1  0
  8  9  1  0
  5  3  1  0
  9  6  1  0
  8  3  1  0
  1 10  1  0
  1 11  1  0
  1 12  1  0
  4 13  1  0
  4 14  1  0
  5 15  1  0
  6 16  1  0
  7 17  1  0
  7 18  1  0
  8 19  1  0
M  END
