
     RDKit          3D

 19 20  0  0  0  0  0  0  0  0999 V2000
    2.5194   -0.3838   -0.4330 C   0  0  0  0  0  0  0  0  0  0  0  0
    1.1596   -0.7080   -0.5907 O   0  0  0  0  0  0  0  0  0  0  0  0
    0.4075    0.2589    0.0406 C   0  0  0  0  0  0  0  0  0  0  0  0
   -0.7354    0.8184   -0.8190 C   0  0  0  0  0  0  0  0  0  0  0  0
   -1.3897   -0.4201   -1.2539 C   0  0  0  0  0  0  0  0  0  0  0  0
   -1.4183   -1.1633   -0.1424 C   0  0  0  0  0  0  0  0  0  0  0  0
   -0.7732   -0.2879    0.8585 C   0  0  0  0  0  0  0  0  0  0  0  0
   -0.5971   -0.6393    2.1068 O   0  0  0  0  0  0  0  0  0  0  0  0
   -1.4247    1.0632    0.5253 C   0  0  0  0  0  0  0  0  0  0  0  0
    3.1731   -1.1377   -0.9274 H   0  0  0  0  0  0  0  0  0  0  0  0
    2.8057   -0.2496    0.6140 H   0  0  0  0  0  0  0  0  0  0  0  0
    2.7076    0.5718   -0.9630 H   0  0  0  0  0  0  0  0  0  0  0  0
    0.9564    1.0770    0.5351 H   0  0  0  0  0  0  0  0  0  0  0  0
   -0.5451    1.6245   -1.4555 H   0  0  0  0  0  0  0  0  0  0  0  0
   -1.7598   -0.6703   -2.2389 H   0  0  0  0  0  0  0  0  0  0  0  0
   -1.8068   -2.1596    0.0249 H   0  0  0  0  0  0  0  0  0  0  0  0
    0.2596   -0.5298    2.5543 H   0  0  0  0  0  0  0  0  0  0  0  0
   -1.0101    1.9091    1.0815 H   0  0  0  0  0  0  0  0  0  0  0  0
   -2.5285    1.0264    0.4829 H   0  0  0  0  0  0  0  0  0  0  0  0
  1  2  1  0
  2  3  1  0
  3  4  1  0
  4  5  1  0
  5  6  2  0
  6  7  1  0
  7  8  1  0
  7  9  1  0
  7  3  1  0
  9  4  1  0
  1 10  1  0
  1 11  1  0
  1 12  1  0
  3 13  1  0
  4 14  1  0
  5 15  1  0
  6 16  1  0
  8 17  1  0
  9 18  1  0
  9 19  1  0
M  END
