
     RDKit          3D

 21 22  0  0  0  0  0  0  0  0999 V2000
    3.0522   -0.5963    0.3154 C   0  0  0  0  0  0  0  0  0  0  0  0
    1.8766   -0.0646    0.8216 O   0  0  0  0  0  0  0  0  0  0  0  0
    0.9230   -0.0003   -0.2019 C   0  0  0  0  0  0  0  0  0  0  0  0
    0.0075    1.0557   -0.3037 C   0  0  0  0  0  0  0  0  0  0  0  0
   -1.4093    1.2572   -0.7368 C   0  0  0  0  0  0  0  0  0  0  0  0
   -1.9991    1.0808    0.6666 C   0  0  0  0  0  0  0  0  0  0  0  0
   -1.3201    0.0635    1.2002 C   0  0  0  0  0  0  0  0  0  0  0  0
   -0.3781   -0.3746    0.2084 C   0  0  0  0  0  0  0  0  0  0  0  0
   -1.0913   -1.2722   -0.8274 C   0  0  0  0  0  0  0  0  0  0  0  0
    2.8904   -1.6341   -0.0931 H   0  0  0  0  0  0  0  0  0  0  0  0
    3.8507   -0.5675    1.0766 H   0  0  0  0  0  0  0  0  0  0  0  0
    3.3346    0.0396   -0.5590 H   0  0  0  0  0  0  0  0  0  0  0  0
    1.3428   -0.3919   -1.1638 H   0  0  0  0  0  0  0  0  0  0  0  0
    0.1995    1.8454    0.4935 H   0  0  0  0  0  0  0  0  0  0  0  0
   -1.5511    2.2986   -1.0841 H   0  0  0  0  0  0  0  0  0  0  0  0
   -1.8195    0.5573   -1.4463 H   0  0  0  0  0  0  0  0  0  0  0  0
   -2.7891    1.6914    1.0548 H   0  0  0  0  0  0  0  0  0  0  0  0
   -1.5374   -0.2744    2.2102 H   0  0  0  0  0  0  0  0  0  0  0  0
   -0.7158   -2.3084   -0.5694 H   0  0  0  0  0  0  0  0  0  0  0  0
   -0.7041   -1.0943   -1.8502 H   0  0  0  0  0  0  0  0  0  0  0  0
   -2.1624   -1.3108   -0.7265 H   0  0  0  0  0  0  0  0  0  0  0  0
  1  2  1  0
  2  3  1  0
  3  4  1  0
  4  5  1  0
  5  6  1  0
  6  7  2  0
  7  8  1  0
  8  9  1  0
  8  3  1  0
  8  4  1  0
  1 10  1  0
  1 11  1  0
  1 12  1  0
  3 13  1  0
  4 14  1  0
  5 15  1  0
  5 16  1  0
  6 17  1  0
  7 18  1  0
  9 19  1  0
  9 20  1  0
  9 21  1  0
M  END
