
     RDKit          3D

 19 21  0  0  0  0  0  0  0  0999 V2000
    2.5524    0.3589   -0.0507 C   0  0  0  0  0  0  0  0  0  0  0  0
    1.4269    0.9970    0.4000 O   0  0  0  0  0  0  0  0  0  0  0  0
    0.2719    0.2710    0.3984 C   0  0  0  0  0  0  0  0  0  0  0  0
   -0.9416    1.0139    0.9037 C   0  0  0  0  0  0  0  0  0  0  0  0
   -2.1461    0.4114    0.2368 C   0  0  0  0  0  0  0  0  0  0  0  0
   -2.4078   -0.9522    0.4087 O   0  0  0  0  0  0  0  0  0  0  0  0
   -1.7310   -0.3984   -0.7949 C   0  0  0  0  0  0  0  0  0  0  0  0
   -0.2238   -0.5149   -0.7342 C   0  0  0  0  0  0  0  0  0  0  0  0
    0.3721   -1.1848    0.4868 C   0  0  0  0  0  0  0  0  0  0  0  0
    2.4142    0.0234   -1.1128 H   0  0  0  0  0  0  0  0  0  0  0  0
    3.3731    1.1356   -0.0506 H   0  0  0  0  0  0  0  0  0  0  0  0
    2.9016   -0.4374    0.6137 H   0  0  0  0  0  0  0  0  0  0  0  0
   -1.0101    0.9854    2.0240 H   0  0  0  0  0  0  0  0  0  0  0  0
   -0.8490    2.0583    0.5254 H   0  0  0  0  0  0  0  0  0  0  0  0
   -3.0609    1.0363    0.3378 H   0  0  0  0  0  0  0  0  0  0  0  0
   -2.2037   -0.7167   -1.7364 H   0  0  0  0  0  0  0  0  0  0  0  0
    0.3019   -0.6671   -1.6735 H   0  0  0  0  0  0  0  0  0  0  0  0
   -0.3616   -1.7231    1.1288 H   0  0  0  0  0  0  0  0  0  0  0  0
    1.3215   -1.6965    0.3784 H   0  0  0  0  0  0  0  0  0  0  0  0
  1  2  1  0
  2  3  1  0
  3  4  1  0
  4  5  1  0
  5  6  1  0
  6  7  1  0
  7  8  1  0
  8  9  1  0
  8  3  1  0
  9  3  1  0
  7  5  1  0
  1 10  1  0
  1 11  1  0
  1 12  1  0
  4 13  1  0
  4 14  1  0
  5 15  1  0
  7 16  1  0
  8 17  1  0
  9 18  1  0
  9 19  1  0
M  END
