
     RDKit          3D

 20 20  0  0  0  0  0  0  0  0999 V2000
    2.3157    1.0327   -0.2513 C   0  0  0  0  0  0  0  0  0  0  0  0
    1.2055    0.7803    0.5145 O   0  0  0  0  0  0  0  0  0  0  0  0
    0.4003   -0.2254    0.0824 C   0  0  0  0  0  0  0  0  0  0  0  0
    0.1465   -1.3066    1.1184 C   0  0  0  0  0  0  0  0  0  0  0  0
   -1.3048   -1.6516    0.8442 C   0  0  0  0  0  0  0  0  0  0  0  0
   -1.6669   -0.9501   -0.3050 O   0  0  0  0  0  0  0  0  0  0  0  0
   -1.0438    0.2735   -0.0868 C   0  0  0  0  0  0  0  0  0  0  0  0
   -1.1804    1.2449   -1.1939 C   0  0  0  0  0  0  0  0  0  0  0  0
    2.8723    1.8700    0.2182 H   0  0  0  0  0  0  0  0  0  0  0  0
    3.0067    0.1573   -0.2219 H   0  0  0  0  0  0  0  0  0  0  0  0
    2.0906    1.3493   -1.2868 H   0  0  0  0  0  0  0  0  0  0  0  0
    0.7630   -0.7043   -0.8419 H   0  0  0  0  0  0  0  0  0  0  0  0
    0.8140   -2.1586    0.9724 H   0  0  0  0  0  0  0  0  0  0  0  0
    0.1882   -0.8951    2.1516 H   0  0  0  0  0  0  0  0  0  0  0  0
   -1.9803   -1.2964    1.6589 H   0  0  0  0  0  0  0  0  0  0  0  0
   -1.4576   -2.7425    0.7367 H   0  0  0  0  0  0  0  0  0  0  0  0
   -1.3568    0.6445    0.8999 H   0  0  0  0  0  0  0  0  0  0  0  0
   -0.2663    1.3944   -1.7978 H   0  0  0  0  0  0  0  0  0  0  0  0
   -1.4824    2.2371   -0.7474 H   0  0  0  0  0  0  0  0  0  0  0  0
   -2.0634    0.9468   -1.8142 H   0  0  0  0  0  0  0  0  0  0  0  0
  1  2  1  0
  2  3  1  0
  3  4  1  0
  4  5  1  0
  5  6  1  0
  6  7  1  0
  7  8  1  0
  7  3  1  0
  1  9  1  0
  1 10  1  0
  1 11  1  0
  3 12  1  0
  4 13  1  0
  4 14  1  0
  5 15  1  0
  5 16  1  0
  7 17  1  0
  8 18  1  0
  8 19  1  0
  8 20  1  0
M  END
