
     RDKit          3D

 15 15  0  0  0  0  0  0  0  0999 V2000
    2.2743    0.0743    0.4928 C   0  0  0  0  0  0  0  0  0  0  0  0
    1.1161   -0.4378   -0.0553 O   0  0  0  0  0  0  0  0  0  0  0  0
   -0.0199    0.2731    0.2454 C   0  0  0  0  0  0  0  0  0  0  0  0
   -1.2565   -0.5927    0.5613 C   0  0  0  0  0  0  0  0  0  0  0  0
   -1.0818   -1.9880    0.4453 O   0  0  0  0  0  0  0  0  0  0  0  0
   -1.2026    0.2544   -0.6516 C   0  0  0  0  0  0  0  0  0  0  0  0
   -2.0442    1.3613   -0.6677 O   0  0  0  0  0  0  0  0  0  0  0  0
    2.5067    1.1043    0.1734 H   0  0  0  0  0  0  0  0  0  0  0  0
    2.2855    0.0454    1.6096 H   0  0  0  0  0  0  0  0  0  0  0  0
    3.1102   -0.5753    0.1546 H   0  0  0  0  0  0  0  0  0  0  0  0
    0.1133    1.1666    0.8850 H   0  0  0  0  0  0  0  0  0  0  0  0
   -1.9014   -0.2803    1.3980 H   0  0  0  0  0  0  0  0  0  0  0  0
   -1.2989   -2.4183    1.2955 H   0  0  0  0  0  0  0  0  0  0  0  0
   -1.0736   -0.1919   -1.6707 H   0  0  0  0  0  0  0  0  0  0  0  0
   -1.5272    2.2049   -0.5045 H   0  0  0  0  0  0  0  0  0  0  0  0
  1  2  1  0
  2  3  1  0
  3  4  1  0
  4  5  1  0
  4  6  1  0
  6  7  1  0
  6  3  1  0
  1  8  1  0
  1  9  1  0
  1 10  1  0
  3 11  1  0
  4 12  1  0
  5 13  1  0
  6 14  1  0
  7 15  1  0
M  END
