
     RDKit          3D

 21 21  0  0  0  0  0  0  0  0999 V2000
   -2.9279   -0.3852   -0.8008 C   0  0  0  0  0  0  0  0  0  0  0  0
   -1.8329   -0.9782   -0.2171 O   0  0  0  0  0  0  0  0  0  0  0  0
   -0.8760   -0.0067    0.0502 C   0  0  0  0  0  0  0  0  0  0  0  0
   -0.4674    0.0176    1.4987 C   0  0  0  0  0  0  0  0  0  0  0  0
    0.9032   -0.0476    1.5581 O   0  0  0  0  0  0  0  0  0  0  0  0
    1.3712    0.4235    0.3325 C   0  0  0  0  0  0  0  0  0  0  0  0
    2.8128    0.0947    0.0972 C   0  0  0  0  0  0  0  0  0  0  0  0
    0.4403   -0.2973   -0.6279 C   0  0  0  0  0  0  0  0  0  0  0  0
    0.5155    0.2222   -1.9112 O   0  0  0  0  0  0  0  0  0  0  0  0
   -3.3782    0.3901   -0.1220 H   0  0  0  0  0  0  0  0  0  0  0  0
   -2.7057    0.1389   -1.7531 H   0  0  0  0  0  0  0  0  0  0  0  0
   -3.7141   -1.1626   -0.9114 H   0  0  0  0  0  0  0  0  0  0  0  0
   -1.1878    1.0037   -0.2531 H   0  0  0  0  0  0  0  0  0  0  0  0
   -0.9817   -0.8167    2.0021 H   0  0  0  0  0  0  0  0  0  0  0  0
   -0.8088    0.9466    1.9704 H   0  0  0  0  0  0  0  0  0  0  0  0
    1.1412    1.4972    0.2468 H   0  0  0  0  0  0  0  0  0  0  0  0
    2.9831   -0.4032   -0.8752 H   0  0  0  0  0  0  0  0  0  0  0  0
    3.1947   -0.4709    0.9596 H   0  0  0  0  0  0  0  0  0  0  0  0
    3.3701    1.0570    0.0788 H   0  0  0  0  0  0  0  0  0  0  0  0
    0.6945   -1.3679   -0.5653 H   0  0  0  0  0  0  0  0  0  0  0  0
    1.4538    0.1449   -2.2052 H   0  0  0  0  0  0  0  0  0  0  0  0
  1  2  1  0
  2  3  1  0
  3  4  1  0
  4  5  1  0
  5  6  1  0
  6  7  1  0
  6  8  1  0
  8  9  1  0
  8  3  1  0
  1 10  1  0
  1 11  1  0
  1 12  1  0
  3 13  1  0
  4 14  1  0
  4 15  1  0
  6 16  1  0
  7 17  1  0
  7 18  1  0
  7 19  1  0
  8 20  1  0
  9 21  1  0
M  END
