
     RDKit          3D

 21 22  0  0  0  0  0  0  0  0999 V2000
    2.6629   -0.4067   -0.2862 C   0  0  0  0  0  0  0  0  0  0  0  0
    1.3917   -0.7689   -0.6314 O   0  0  0  0  0  0  0  0  0  0  0  0
    0.4048   -0.1284   -0.2055 C   0  0  0  0  0  0  0  0  0  0  0  0
   -0.0078    0.0908    1.2308 C   0  0  0  0  0  0  0  0  0  0  0  0
   -1.0361    0.8646    0.4378 C   0  0  0  0  0  0  0  0  0  0  0  0
   -2.0078    1.5232    0.8617 O   0  0  0  0  0  0  0  0  0  0  0  0
    0.1398    1.3556   -0.3810 C   0  0  0  0  0  0  0  0  0  0  0  0
   -1.0398   -0.3168   -0.5037 C   0  0  0  0  0  0  0  0  0  0  0  0
   -1.6986   -1.5584   -0.0111 C   0  0  0  0  0  0  0  0  0  0  0  0
    2.8366   -0.4400    0.8157 H   0  0  0  0  0  0  0  0  0  0  0  0
    2.9481    0.6159   -0.6061 H   0  0  0  0  0  0  0  0  0  0  0  0
    3.4251   -1.1060   -0.7237 H   0  0  0  0  0  0  0  0  0  0  0  0
   -0.3460   -0.8231    1.7166 H   0  0  0  0  0  0  0  0  0  0  0  0
    0.6748    0.7170    1.8193 H   0  0  0  0  0  0  0  0  0  0  0  0
   -2.0672    2.4920    0.6083 H   0  0  0  0  0  0  0  0  0  0  0  0
   -0.1359    1.6222   -1.4046 H   0  0  0  0  0  0  0  0  0  0  0  0
    0.8692    1.9761    0.1382 H   0  0  0  0  0  0  0  0  0  0  0  0
   -1.3325    0.0185   -1.5194 H   0  0  0  0  0  0  0  0  0  0  0  0
   -2.5645   -1.3769    0.6540 H   0  0  0  0  0  0  0  0  0  0  0  0
   -0.9825   -2.2716    0.4297 H   0  0  0  0  0  0  0  0  0  0  0  0
   -2.1343   -2.0792   -0.9146 H   0  0  0  0  0  0  0  0  0  0  0  0
  1  2  1  0
  2  3  1  0
  3  4  1  0
  4  5  1  0
  5  6  1  0
  5  7  1  0
  5  8  1  0
  8  9  1  0
  7  3  1  0
  8  3  1  0
  1 10  1  0
  1 11  1  0
  1 12  1  0
  4 13  1  0
  4 14  1  0
  6 15  1  0
  7 16  1  0
  7 17  1  0
  8 18  1  0
  9 19  1  0
  9 20  1  0
  9 21  1  0
M  END
