
     RDKit          3D

 21 22  0  0  0  0  0  0  0  0999 V2000
    2.8641   -0.1651   -0.8740 C   0  0  0  0  0  0  0  0  0  0  0  0
    1.7654   -0.7875   -0.2471 O   0  0  0  0  0  0  0  0  0  0  0  0
    0.6746    0.0499   -0.3859 C   0  0  0  0  0  0  0  0  0  0  0  0
    0.0316    0.2677    0.9875 C   0  0  0  0  0  0  0  0  0  0  0  0
   -1.1317    1.1322    0.6562 C   0  0  0  0  0  0  0  0  0  0  0  0
   -1.6767    0.3688   -0.5685 C   0  0  0  0  0  0  0  0  0  0  0  0
   -2.8861   -0.2496   -0.2013 O   0  0  0  0  0  0  0  0  0  0  0  0
   -0.6087   -0.6784   -0.6820 C   0  0  0  0  0  0  0  0  0  0  0  0
   -0.5104   -1.1527    0.7757 C   0  0  0  0  0  0  0  0  0  0  0  0
    3.0374    0.8156   -0.3607 H   0  0  0  0  0  0  0  0  0  0  0  0
    2.5603   -0.0067   -1.9243 H   0  0  0  0  0  0  0  0  0  0  0  0
    3.7838   -0.7464   -0.7596 H   0  0  0  0  0  0  0  0  0  0  0  0
    0.8372    0.9943   -0.9245 H   0  0  0  0  0  0  0  0  0  0  0  0
    0.6576    0.4455    1.8147 H   0  0  0  0  0  0  0  0  0  0  0  0
   -1.8868    1.2313    1.4381 H   0  0  0  0  0  0  0  0  0  0  0  0
   -0.7500    2.0931    0.2585 H   0  0  0  0  0  0  0  0  0  0  0  0
   -1.7786    1.0133   -1.4368 H   0  0  0  0  0  0  0  0  0  0  0  0
   -3.1352    0.0378    0.7283 H   0  0  0  0  0  0  0  0  0  0  0  0
   -0.6452   -1.4156   -1.4382 H   0  0  0  0  0  0  0  0  0  0  0  0
   -1.4778   -1.3424    1.2283 H   0  0  0  0  0  0  0  0  0  0  0  0
    0.2748   -1.9051    0.8631 H   0  0  0  0  0  0  0  0  0  0  0  0
  1  2  1  0
  2  3  1  0
  3  4  1  0
  4  5  1  0
  5  6  1  0
  6  7  1  0
  6  8  1  0
  8  9  1  0
  8  3  1  0
  9  4  1  0
  1 10  1  0
  1 11  1  0
  1 12  1  0
  3 13  1  0
  4 14  1  0
  5 15  1  0
  5 16  1  0
  6 17  1  0
  7 18  1  0
  8 19  1  0
  9 20  1  0
  9 21  1  0
M  END
