
     RDKit          3D

 19 19  0  0  0  0  0  0  0  0999 V2000
    1.9411    1.2259    0.4099 C   0  0  0  0  0  0  0  0  0  0  0  0
    0.9074    0.5141    0.9858 O   0  0  0  0  0  0  0  0  0  0  0  0
    0.1663   -0.2325    0.1121 C   0  0  0  0  0  0  0  0  0  0  0  0
    0.9213   -1.2939   -0.6568 C   0  0  0  0  0  0  0  0  0  0  0  0
   -1.0777   -0.7701    0.8011 C   0  0  0  0  0  0  0  0  0  0  0  0
   -1.9099   -0.0574   -0.2134 C   0  0  0  0  0  0  0  0  0  0  0  0
   -2.7765    0.9095    0.2514 O   0  0  0  0  0  0  0  0  0  0  0  0
   -0.6932    0.5434   -0.8156 C   0  0  0  0  0  0  0  0  0  0  0  0
   -0.4104    1.3413   -1.6977 O   0  0  0  0  0  0  0  0  0  0  0  0
    2.4618    1.7845    1.2085 H   0  0  0  0  0  0  0  0  0  0  0  0
    2.6902    0.4604    0.0518 H   0  0  0  0  0  0  0  0  0  0  0  0
    1.6630    1.8433   -0.4395 H   0  0  0  0  0  0  0  0  0  0  0  0
    0.1630   -1.9779   -1.0950 H   0  0  0  0  0  0  0  0  0  0  0  0
    1.4814   -0.8408   -1.5174 H   0  0  0  0  0  0  0  0  0  0  0  0
    1.5986   -1.8906   -0.0207 H   0  0  0  0  0  0  0  0  0  0  0  0
   -1.1980   -0.4304    1.8560 H   0  0  0  0  0  0  0  0  0  0  0  0
   -1.1029   -1.8675    0.7390 H   0  0  0  0  0  0  0  0  0  0  0  0
   -2.4464   -0.7787   -0.8588 H   0  0  0  0  0  0  0  0  0  0  0  0
   -2.3790    1.5173    0.8989 H   0  0  0  0  0  0  0  0  0  0  0  0
  1  2  1  0
  2  3  1  0
  3  4  1  0
  3  5  1  0
  5  6  1  0
  6  7  1  0
  6  8  1  0
  8  9  2  0
  8  3  1  0
  1 10  1  0
  1 11  1  0
  1 12  1  0
  4 13  1  0
  4 14  1  0
  4 15  1  0
  5 16  1  0
  5 17  1  0
  6 18  1  0
  7 19  1  0
M  END
