
     RDKit          3D

 16 16  0  0  0  0  0  0  0  0999 V2000
    2.0413   -0.0177   -0.3103 C   0  0  0  0  0  0  0  0  0  0  0  0
    0.8316   -0.0384   -1.0014 O   0  0  0  0  0  0  0  0  0  0  0  0
   -0.2304   -0.0246   -0.1275 C   0  0  0  0  0  0  0  0  0  0  0  0
   -0.2863    1.1801    0.7744 C   0  0  0  0  0  0  0  0  0  0  0  0
   -1.5739   -0.3577   -0.7809 C   0  0  0  0  0  0  0  0  0  0  0  0
   -0.9340   -1.2753    0.1907 C   0  0  0  0  0  0  0  0  0  0  0  0
    2.8924   -0.0289   -1.0194 H   0  0  0  0  0  0  0  0  0  0  0  0
    2.1623    0.9367    0.2731 H   0  0  0  0  0  0  0  0  0  0  0  0
    2.1213   -0.8320    0.4397 H   0  0  0  0  0  0  0  0  0  0  0  0
   -1.3376    1.4713    1.0184 H   0  0  0  0  0  0  0  0  0  0  0  0
    0.2085    0.9848    1.7466 H   0  0  0  0  0  0  0  0  0  0  0  0
    0.1493    2.0405    0.2263 H   0  0  0  0  0  0  0  0  0  0  0  0
   -1.5890   -0.5746   -1.8654 H   0  0  0  0  0  0  0  0  0  0  0  0
   -2.4724    0.2007   -0.4457 H   0  0  0  0  0  0  0  0  0  0  0  0
   -0.5033   -2.2090   -0.2433 H   0  0  0  0  0  0  0  0  0  0  0  0
   -1.4798   -1.4560    1.1248 H   0  0  0  0  0  0  0  0  0  0  0  0
  1  2  1  0
  2  3  1  0
  3  4  1  0
  3  5  1  0
  5  6  1  0
  6  3  1  0
  1  7  1  0
  1  8  1  0
  1  9  1  0
  4 10  1  0
  4 11  1  0
  4 12  1  0
  5 13  1  0
  5 14  1  0
  6 15  1  0
  6 16  1  0
M  END
