
     RDKit          3D

 23 24  0  0  0  0  0  0  0  0999 V2000
    2.6713    0.9550    0.4996 C   0  0  0  0  0  0  0  0  0  0  0  0
    1.2737    1.1332    0.4190 O   0  0  0  0  0  0  0  0  0  0  0  0
    0.7144   -0.0425    0.0550 C   0  0  0  0  0  0  0  0  0  0  0  0
   -0.4643   -0.5422    0.8480 C   0  0  0  0  0  0  0  0  0  0  0  0
   -0.7010   -1.8930    0.1716 C   0  0  0  0  0  0  0  0  0  0  0  0
   -0.5139   -1.4463   -1.2936 C   0  0  0  0  0  0  0  0  0  0  0  0
   -0.3232    0.0258   -1.0763 C   0  0  0  0  0  0  0  0  0  0  0  0
   -1.3281    0.3387   -0.0082 C   0  0  0  0  0  0  0  0  0  0  0  0
   -1.5044    1.7432    0.3967 C   0  0  0  0  0  0  0  0  0  0  0  0
    3.0995    0.6387   -0.4709 H   0  0  0  0  0  0  0  0  0  0  0  0
    2.8676    0.0893    1.1973 H   0  0  0  0  0  0  0  0  0  0  0  0
    3.1660    1.8727    0.8730 H   0  0  0  0  0  0  0  0  0  0  0  0
    1.4352   -0.8861   -0.1035 H   0  0  0  0  0  0  0  0  0  0  0  0
   -0.4817   -0.4796    1.8960 H   0  0  0  0  0  0  0  0  0  0  0  0
   -1.7455   -2.2255    0.2763 H   0  0  0  0  0  0  0  0  0  0  0  0
    0.0535   -2.6120    0.4777 H   0  0  0  0  0  0  0  0  0  0  0  0
    0.4337   -1.8754   -1.6398 H   0  0  0  0  0  0  0  0  0  0  0  0
   -1.3884   -1.7060   -1.8999 H   0  0  0  0  0  0  0  0  0  0  0  0
   -0.1459    0.6838   -1.8760 H   0  0  0  0  0  0  0  0  0  0  0  0
   -2.2884   -0.1490   -0.2301 H   0  0  0  0  0  0  0  0  0  0  0  0
   -2.4680    1.8327    0.9604 H   0  0  0  0  0  0  0  0  0  0  0  0
   -0.7261    2.1739    1.0357 H   0  0  0  0  0  0  0  0  0  0  0  0
   -1.6360    2.3707   -0.5083 H   0  0  0  0  0  0  0  0  0  0  0  0
  1  2  1  0
  2  3  1  0
  3  4  1  0
  4  5  1  0
  5  6  1  0
  6  7  1  0
  7  8  1  0
  8  9  1  0
  7  3  1  0
  8  4  1  0
  1 10  1  0
  1 11  1  0
  1 12  1  0
  3 13  1  0
  4 14  1  0
  5 15  1  0
  5 16  1  0
  6 17  1  0
  6 18  1  0
  7 19  1  0
  8 20  1  0
  9 21  1  0
  9 22  1  0
  9 23  1  0
M  END
