
     RDKit          3D

 21 21  0  0  0  0  0  0  0  0999 V2000
    3.0373   -0.0416   -0.2929 C   0  0  0  0  0  0  0  0  0  0  0  0
    1.8050    0.2494    0.2513 O   0  0  0  0  0  0  0  0  0  0  0  0
    0.7805   -0.5423   -0.1594 C   0  0  0  0  0  0  0  0  0  0  0  0
   -0.1896   -0.9881    0.8780 C   0  0  0  0  0  0  0  0  0  0  0  0
   -0.2540   -1.3406    2.0213 O   0  0  0  0  0  0  0  0  0  0  0  0
   -1.2450   -0.8134   -0.1889 C   0  0  0  0  0  0  0  0  0  0  0  0
   -2.5780   -0.3841    0.3018 C   0  0  0  0  0  0  0  0  0  0  0  0
   -0.3591    0.3237   -0.7003 C   0  0  0  0  0  0  0  0  0  0  0  0
   -0.5023    1.5461    0.1702 C   0  0  0  0  0  0  0  0  0  0  0  0
    3.0836    0.0330   -1.3853 H   0  0  0  0  0  0  0  0  0  0  0  0
    3.4671   -1.0018    0.0630 H   0  0  0  0  0  0  0  0  0  0  0  0
    3.7433    0.7481    0.0957 H   0  0  0  0  0  0  0  0  0  0  0  0
    1.0890   -1.3117   -0.8772 H   0  0  0  0  0  0  0  0  0  0  0  0
   -1.2221   -1.6945   -0.8422 H   0  0  0  0  0  0  0  0  0  0  0  0
   -3.3825   -1.0618   -0.0879 H   0  0  0  0  0  0  0  0  0  0  0  0
   -2.7663    0.6561   -0.0879 H   0  0  0  0  0  0  0  0  0  0  0  0
   -2.7008   -0.3390    1.3831 H   0  0  0  0  0  0  0  0  0  0  0  0
   -0.3621    0.4791   -1.7725 H   0  0  0  0  0  0  0  0  0  0  0  0
   -0.5283    1.1969    1.2362 H   0  0  0  0  0  0  0  0  0  0  0  0
    0.4528    2.1158    0.0772 H   0  0  0  0  0  0  0  0  0  0  0  0
   -1.3683    2.1708   -0.0833 H   0  0  0  0  0  0  0  0  0  0  0  0
  1  2  1  0
  2  3  1  0
  3  4  1  0
  4  5  2  0
  4  6  1  0
  6  7  1  0
  6  8  1  0
  8  9  1  0
  8  3  1  0
  1 10  1  0
  1 11  1  0
  1 12  1  0
  3 13  1  0
  6 14  1  0
  7 15  1  0
  7 16  1  0
  7 17  1  0
  8 18  1  0
  9 19  1  0
  9 20  1  0
  9 21  1  0
M  END
