
     RDKit          3D

 21 22  0  0  0  0  0  0  0  0999 V2000
    2.4669   -0.8217   -0.7312 C   0  0  0  0  0  0  0  0  0  0  0  0
    1.1920   -0.3370   -1.1016 O   0  0  0  0  0  0  0  0  0  0  0  0
    0.6429    0.1931    0.0478 C   0  0  0  0  0  0  0  0  0  0  0  0
    0.0734    1.6083   -0.1475 C   0  0  0  0  0  0  0  0  0  0  0  0
   -0.8794    1.2002    0.9900 C   0  0  0  0  0  0  0  0  0  0  0  0
   -0.8484   -0.1236    0.2412 C   0  0  0  0  0  0  0  0  0  0  0  0
   -1.2307   -1.3374    0.8916 C   0  0  0  0  0  0  0  0  0  0  0  0
   -1.3650    0.2774   -1.0996 C   0  0  0  0  0  0  0  0  0  0  0  0
   -0.7264    1.5382   -1.2535 O   0  0  0  0  0  0  0  0  0  0  0  0
    2.3419   -1.5902    0.0501 H   0  0  0  0  0  0  0  0  0  0  0  0
    2.9731    0.0514   -0.2525 H   0  0  0  0  0  0  0  0  0  0  0  0
    3.0553   -1.1365   -1.5872 H   0  0  0  0  0  0  0  0  0  0  0  0
    1.2420    0.1463    0.9591 H   0  0  0  0  0  0  0  0  0  0  0  0
    0.7232    2.4250    0.0324 H   0  0  0  0  0  0  0  0  0  0  0  0
   -0.3271    1.2228    1.9280 H   0  0  0  0  0  0  0  0  0  0  0  0
   -1.8415    1.7290    0.9737 H   0  0  0  0  0  0  0  0  0  0  0  0
   -2.2290   -1.6906    0.5129 H   0  0  0  0  0  0  0  0  0  0  0  0
   -0.5293   -2.1787    0.6265 H   0  0  0  0  0  0  0  0  0  0  0  0
   -1.3378   -1.2265    1.9911 H   0  0  0  0  0  0  0  0  0  0  0  0
   -0.9434   -0.3457   -1.9208 H   0  0  0  0  0  0  0  0  0  0  0  0
   -2.4526    0.3964   -1.1505 H   0  0  0  0  0  0  0  0  0  0  0  0
  1  2  1  0
  2  3  1  0
  3  4  1  0
  4  5  1  0
  5  6  1  0
  6  7  1  0
  6  8  1  0
  8  9  1  0
  6  3  1  0
  9  4  1  0
  1 10  1  0
  1 11  1  0
  1 12  1  0
  3 13  1  0
  4 14  1  0
  5 15  1  0
  5 16  1  0
  7 17  1  0
  7 18  1  0
  7 19  1  0
  8 20  1  0
  8 21  1  0
M  END
