
     RDKit          3D

 19 20  0  0  0  0  0  0  0  0999 V2000
    2.1822    0.6635    0.7559 C   0  0  0  0  0  0  0  0  0  0  0  0
    1.0444    0.9706   -0.0174 O   0  0  0  0  0  0  0  0  0  0  0  0
    0.3692   -0.1846   -0.3260 C   0  0  0  0  0  0  0  0  0  0  0  0
    0.9676   -1.2944   -1.0892 C   0  0  0  0  0  0  0  0  0  0  0  0
   -0.0459   -0.4361   -1.7433 C   0  0  0  0  0  0  0  0  0  0  0  0
   -1.3559   -0.3946   -1.3294 O   0  0  0  0  0  0  0  0  0  0  0  0
   -1.0888   -0.3455    0.0150 C   0  0  0  0  0  0  0  0  0  0  0  0
   -1.7018    0.7913    0.7852 C   0  0  0  0  0  0  0  0  0  0  0  0
   -3.0898    0.6854    0.6463 O   0  0  0  0  0  0  0  0  0  0  0  0
    2.7205    1.5904    1.0012 H   0  0  0  0  0  0  0  0  0  0  0  0
    1.7793    0.1904    1.6873 H   0  0  0  0  0  0  0  0  0  0  0  0
    2.8288   -0.0793    0.2721 H   0  0  0  0  0  0  0  0  0  0  0  0
    0.6076   -2.3182   -0.8204 H   0  0  0  0  0  0  0  0  0  0  0  0
    1.9897   -1.2062   -1.4547 H   0  0  0  0  0  0  0  0  0  0  0  0
    0.2733    0.2443   -2.5495 H   0  0  0  0  0  0  0  0  0  0  0  0
   -1.2554   -1.3326    0.4855 H   0  0  0  0  0  0  0  0  0  0  0  0
   -1.4460    0.6317    1.8638 H   0  0  0  0  0  0  0  0  0  0  0  0
   -1.3075    1.7660    0.4931 H   0  0  0  0  0  0  0  0  0  0  0  0
   -3.4715    0.0578    1.3246 H   0  0  0  0  0  0  0  0  0  0  0  0
  1  2  1  0
  2  3  1  0
  3  4  1  0
  4  5  1  0
  5  6  1  0
  6  7  1  0
  7  8  1  0
  8  9  1  0
  5  3  1  0
  7  3  1  0
  1 10  1  0
  1 11  1  0
  1 12  1  0
  4 13  1  0
  4 14  1  0
  5 15  1  0
  7 16  1  0
  8 17  1  0
  8 18  1  0
  9 19  1  0
M  END
