
     RDKit          3D

 23 24  0  0  0  0  0  0  0  0999 V2000
    2.7678   -0.4151   -0.0903 C   0  0  0  0  0  0  0  0  0  0  0  0
    1.5931   -0.0778   -0.7590 O   0  0  0  0  0  0  0  0  0  0  0  0
    0.6631    0.3515    0.1456 C   0  0  0  0  0  0  0  0  0  0  0  0
   -0.0259    1.6414   -0.1393 C   0  0  0  0  0  0  0  0  0  0  0  0
   -1.3425    1.8221   -0.7110 C   0  0  0  0  0  0  0  0  0  0  0  0
   -1.2672    0.9528    0.4739 C   0  0  0  0  0  0  0  0  0  0  0  0
   -0.6513   -0.3972    0.1625 C   0  0  0  0  0  0  0  0  0  0  0  0
   -0.7855   -1.4364    1.2238 C   0  0  0  0  0  0  0  0  0  0  0  0
   -0.9691   -0.8722   -1.2398 C   0  0  0  0  0  0  0  0  0  0  0  0
    3.5650   -0.7711   -0.7602 H   0  0  0  0  0  0  0  0  0  0  0  0
    3.0738    0.5204    0.4640 H   0  0  0  0  0  0  0  0  0  0  0  0
    2.5585   -1.1620    0.7290 H   0  0  0  0  0  0  0  0  0  0  0  0
    1.0633    0.3300    1.1999 H   0  0  0  0  0  0  0  0  0  0  0  0
    0.4013    2.5092    0.4235 H   0  0  0  0  0  0  0  0  0  0  0  0
   -1.6908    1.2966   -1.6470 H   0  0  0  0  0  0  0  0  0  0  0  0
   -1.8500    2.7852   -0.5775 H   0  0  0  0  0  0  0  0  0  0  0  0
   -1.4664    1.2598    1.4883 H   0  0  0  0  0  0  0  0  0  0  0  0
   -0.0827   -1.3347    2.0510 H   0  0  0  0  0  0  0  0  0  0  0  0
   -1.8559   -1.4945    1.5629 H   0  0  0  0  0  0  0  0  0  0  0  0
   -0.5995   -2.4332    0.7361 H   0  0  0  0  0  0  0  0  0  0  0  0
   -0.4235   -0.2753   -1.9909 H   0  0  0  0  0  0  0  0  0  0  0  0
   -2.0623   -0.8841   -1.4203 H   0  0  0  0  0  0  0  0  0  0  0  0
   -0.6130   -1.9155   -1.3252 H   0  0  0  0  0  0  0  0  0  0  0  0
  1  2  1  0
  2  3  1  0
  3  4  1  0
  4  5  1  0
  5  6  1  0
  6  7  1  0
  7  8  1  0
  7  9  1  0
  7  3  1  0
  6  4  1  0
  1 10  1  0
  1 11  1  0
  1 12  1  0
  3 13  1  0
  4 14  1  0
  5 15  1  0
  5 16  1  0
  6 17  1  0
  8 18  1  0
  8 19  1  0
  8 20  1  0
  9 21  1  0
  9 22  1  0
  9 23  1  0
M  END
