
     RDKit          3D

 19 19  0  0  0  0  0  0  0  0999 V2000
   -2.4625   -0.2523   -0.6806 C   0  0  0  0  0  0  0  0  0  0  0  0
   -1.0802   -0.2789   -0.7497 O   0  0  0  0  0  0  0  0  0  0  0  0
   -0.4631   -0.4258    0.4772 C   0  0  0  0  0  0  0  0  0  0  0  0
    0.6673   -1.4631    0.4070 C   0  0  0  0  0  0  0  0  0  0  0  0
    1.5179   -0.3477   -0.2077 C   0  0  0  0  0  0  0  0  0  0  0  0
    2.8252   -0.3416    0.2095 O   0  0  0  0  0  0  0  0  0  0  0  0
    0.6480    0.6279    0.5977 C   0  0  0  0  0  0  0  0  0  0  0  0
    0.3647    1.8983   -0.0812 C   0  0  0  0  0  0  0  0  0  0  0  0
    0.3871    2.9406    0.5899 O   0  0  0  0  0  0  0  0  0  0  0  0
   -2.8879   -1.1771   -0.2470 H   0  0  0  0  0  0  0  0  0  0  0  0
   -2.8347   -0.1519   -1.7230 H   0  0  0  0  0  0  0  0  0  0  0  0
   -2.8140    0.6506   -0.1300 H   0  0  0  0  0  0  0  0  0  0  0  0
   -1.1025   -0.5047    1.3591 H   0  0  0  0  0  0  0  0  0  0  0  0
    1.0323   -1.7242    1.4244 H   0  0  0  0  0  0  0  0  0  0  0  0
    0.4411   -2.2961   -0.2558 H   0  0  0  0  0  0  0  0  0  0  0  0
    1.3126   -0.1982   -1.2706 H   0  0  0  0  0  0  0  0  0  0  0  0
    3.2898    0.3931   -0.2211 H   0  0  0  0  0  0  0  0  0  0  0  0
    1.0155    0.7173    1.6304 H   0  0  0  0  0  0  0  0  0  0  0  0
    0.1434    1.9337   -1.1288 H   0  0  0  0  0  0  0  0  0  0  0  0
  1  2  1  0
  2  3  1  0
  3  4  1  0
  4  5  1  0
  5  6  1  0
  5  7  1  0
  7  8  1  0
  8  9  2  0
  7  3  1  0
  1 10  1  0
  1 11  1  0
  1 12  1  0
  3 13  1  0
  4 14  1  0
  4 15  1  0
  5 16  1  0
  6 17  1  0
  7 18  1  0
  8 19  1  0
M  END
