
     RDKit          3D

 19 20  0  0  0  0  0  0  0  0999 V2000
    2.6401    0.5042   -0.1623 C   0  0  0  0  0  0  0  0  0  0  0  0
    1.3080    0.8156    0.1546 O   0  0  0  0  0  0  0  0  0  0  0  0
    0.4730   -0.2188   -0.1106 C   0  0  0  0  0  0  0  0  0  0  0  0
   -0.7792    0.1950   -0.8910 C   0  0  0  0  0  0  0  0  0  0  0  0
   -1.3586    1.1721    0.0563 C   0  0  0  0  0  0  0  0  0  0  0  0
   -1.2140    0.5813    1.2651 C   0  0  0  0  0  0  0  0  0  0  0  0
   -0.3664   -0.6216    1.1185 C   0  0  0  0  0  0  0  0  0  0  0  0
   -1.1264   -1.6353    0.5212 O   0  0  0  0  0  0  0  0  0  0  0  0
   -1.5700   -1.1021   -0.6908 C   0  0  0  0  0  0  0  0  0  0  0  0
    3.0105   -0.3648    0.4128 H   0  0  0  0  0  0  0  0  0  0  0  0
    2.7663    0.3072   -1.2394 H   0  0  0  0  0  0  0  0  0  0  0  0
    3.2500    1.4119    0.1090 H   0  0  0  0  0  0  0  0  0  0  0  0
    0.9256   -1.1187   -0.5179 H   0  0  0  0  0  0  0  0  0  0  0  0
   -0.6228    0.4929   -1.8891 H   0  0  0  0  0  0  0  0  0  0  0  0
   -1.7871    2.1212   -0.1864 H   0  0  0  0  0  0  0  0  0  0  0  0
   -1.6902    1.0027    2.1616 H   0  0  0  0  0  0  0  0  0  0  0  0
    0.2114   -0.9144    1.9582 H   0  0  0  0  0  0  0  0  0  0  0  0
   -2.6411   -0.8388   -0.5338 H   0  0  0  0  0  0  0  0  0  0  0  0
   -1.4290   -1.7896   -1.5360 H   0  0  0  0  0  0  0  0  0  0  0  0
  1  2  1  0
  2  3  1  0
  3  4  1  0
  4  5  1  0
  5  6  2  0
  6  7  1  0
  7  8  1  0
  8  9  1  0
  7  3  1  0
  9  4  1  0
  1 10  1  0
  1 11  1  0
  1 12  1  0
  3 13  1  0
  4 14  1  0
  5 15  1  0
  6 16  1  0
  7 17  1  0
  9 18  1  0
  9 19  1  0
M  END
