
     RDKit          3D

 21 22  0  0  0  0  0  0  0  0999 V2000
   -2.0785   -0.4277    1.0236 C   0  0  0  0  0  0  0  0  0  0  0  0
   -1.0703   -0.9347    0.2575 O   0  0  0  0  0  0  0  0  0  0  0  0
   -0.2653    0.0070   -0.3369 C   0  0  0  0  0  0  0  0  0  0  0  0
   -0.8923    0.9746   -1.2713 C   0  0  0  0  0  0  0  0  0  0  0  0
    1.0190   -0.5450   -0.9007 C   0  0  0  0  0  0  0  0  0  0  0  0
    1.5990    0.8266   -0.6301 C   0  0  0  0  0  0  0  0  0  0  0  0
    0.7859    0.5239    0.5928 C   0  0  0  0  0  0  0  0  0  0  0  0
    1.3820   -0.8639    0.5087 C   0  0  0  0  0  0  0  0  0  0  0  0
    0.6848   -1.8625    1.1378 O   0  0  0  0  0  0  0  0  0  0  0  0
   -2.7315    0.2088    0.3605 H   0  0  0  0  0  0  0  0  0  0  0  0
   -2.7222   -1.2681    1.3625 H   0  0  0  0  0  0  0  0  0  0  0  0
   -1.7597    0.1197    1.9265 H   0  0  0  0  0  0  0  0  0  0  0  0
   -0.7972    2.0221   -0.8828 H   0  0  0  0  0  0  0  0  0  0  0  0
   -1.9756    0.7923   -1.4530 H   0  0  0  0  0  0  0  0  0  0  0  0
   -0.4274    0.9714   -2.2960 H   0  0  0  0  0  0  0  0  0  0  0  0
    1.1352   -1.0903   -1.7259 H   0  0  0  0  0  0  0  0  0  0  0  0
    2.6942    0.8351   -0.4992 H   0  0  0  0  0  0  0  0  0  0  0  0
    1.1925    1.6456   -1.2528 H   0  0  0  0  0  0  0  0  0  0  0  0
    0.6755    1.0774    1.4159 H   0  0  0  0  0  0  0  0  0  0  0  0
    2.4582   -0.9395    0.6698 H   0  0  0  0  0  0  0  0  0  0  0  0
    1.0937   -2.0729    1.9930 H   0  0  0  0  0  0  0  0  0  0  0  0
  1  2  1  0
  2  3  1  0
  3  4  1  0
  3  5  1  0
  5  6  1  0
  6  7  1  0
  7  8  1  0
  8  9  1  0
  7  3  1  0
  8  5  1  0
  1 10  1  0
  1 11  1  0
  1 12  1  0
  4 13  1  0
  4 14  1  0
  4 15  1  0
  5 16  1  0
  6 17  1  0
  6 18  1  0
  7 19  1  0
  8 20  1  0
  9 21  1  0
M  END
