
     RDKit          3D

 19 19  0  0  0  0  0  0  0  0999 V2000
    2.1318    0.6134   -0.3930 C   0  0  0  0  0  0  0  0  0  0  0  0
    1.0080    0.8138    0.3599 O   0  0  0  0  0  0  0  0  0  0  0  0
   -0.0947    0.0954    0.0027 C   0  0  0  0  0  0  0  0  0  0  0  0
    0.0939   -1.4148    0.0619 C   0  0  0  0  0  0  0  0  0  0  0  0
    0.4211   -1.7856    1.3653 O   0  0  0  0  0  0  0  0  0  0  0  0
   -1.2251    0.5950   -0.7699 C   0  0  0  0  0  0  0  0  0  0  0  0
   -1.2150    1.8214   -1.4241 O   0  0  0  0  0  0  0  0  0  0  0  0
   -1.3771    0.5745    0.7121 C   0  0  0  0  0  0  0  0  0  0  0  0
   -2.1702   -0.3857    1.3260 O   0  0  0  0  0  0  0  0  0  0  0  0
    2.9360    1.2639    0.0190 H   0  0  0  0  0  0  0  0  0  0  0  0
    2.0235    0.9082   -1.4574 H   0  0  0  0  0  0  0  0  0  0  0  0
    2.4678   -0.4239   -0.2563 H   0  0  0  0  0  0  0  0  0  0  0  0
    0.7992   -1.7767   -0.6854 H   0  0  0  0  0  0  0  0  0  0  0  0
   -0.8852   -1.9307   -0.1561 H   0  0  0  0  0  0  0  0  0  0  0  0
    1.3848   -1.9787    1.4265 H   0  0  0  0  0  0  0  0  0  0  0  0
   -1.8515   -0.1536   -1.2992 H   0  0  0  0  0  0  0  0  0  0  0  0
   -0.6502    1.6840   -2.2463 H   0  0  0  0  0  0  0  0  0  0  0  0
   -1.3632    1.5617    1.1955 H   0  0  0  0  0  0  0  0  0  0  0  0
   -2.4337   -0.0816    2.2186 H   0  0  0  0  0  0  0  0  0  0  0  0
  1  2  1  0
  2  3  1  0
  3  4  1  0
  4  5  1  0
  3  6  1  0
  6  7  1  0
  6  8  1  0
  8  9  1  0
  8  3  1  0
  1 10  1  0
  1 11  1  0
  1 12  1  0
  4 13  1  0
  4 14  1  0
  5 15  1  0
  6 16  1  0
  7 17  1  0
  8 18  1  0
  9 19  1  0
M  END
