
     RDKit          3D

 21 21  0  0  0  0  0  0  0  0999 V2000
    2.6857    0.2654    0.5393 C   0  0  0  0  0  0  0  0  0  0  0  0
    1.4449    0.1332    1.1332 O   0  0  0  0  0  0  0  0  0  0  0  0
    0.4811   -0.1200    0.1817 C   0  0  0  0  0  0  0  0  0  0  0  0
   -0.1562   -1.4569    0.5289 C   0  0  0  0  0  0  0  0  0  0  0  0
   -1.6260   -1.3037    0.3949 C   0  0  0  0  0  0  0  0  0  0  0  0
   -1.7711   -0.0470   -0.4364 C   0  0  0  0  0  0  0  0  0  0  0  0
   -0.6855    0.8163    0.2223 C   0  0  0  0  0  0  0  0  0  0  0  0
   -0.5223    2.0322   -0.5771 C   0  0  0  0  0  0  0  0  0  0  0  0
    0.5236    2.6515   -0.7161 O   0  0  0  0  0  0  0  0  0  0  0  0
    3.4589    0.4710    1.3252 H   0  0  0  0  0  0  0  0  0  0  0  0
    3.0158   -0.6768    0.0481 H   0  0  0  0  0  0  0  0  0  0  0  0
    2.7101    1.0626   -0.2094 H   0  0  0  0  0  0  0  0  0  0  0  0
    0.9075   -0.1622   -0.8442 H   0  0  0  0  0  0  0  0  0  0  0  0
    0.2085   -2.2188   -0.1601 H   0  0  0  0  0  0  0  0  0  0  0  0
    0.1029   -1.7730    1.5581 H   0  0  0  0  0  0  0  0  0  0  0  0
   -2.1350   -2.1376   -0.1244 H   0  0  0  0  0  0  0  0  0  0  0  0
   -2.0646   -1.1322    1.4111 H   0  0  0  0  0  0  0  0  0  0  0  0
   -2.7581    0.4106   -0.3634 H   0  0  0  0  0  0  0  0  0  0  0  0
   -1.4396   -0.2634   -1.4713 H   0  0  0  0  0  0  0  0  0  0  0  0
   -0.9722    1.0249    1.2806 H   0  0  0  0  0  0  0  0  0  0  0  0
   -1.4086    2.4240   -1.0960 H   0  0  0  0  0  0  0  0  0  0  0  0
  1  2  1  0
  2  3  1  0
  3  4  1  0
  4  5  1  0
  5  6  1  0
  6  7  1  0
  7  8  1  0
  8  9  2  0
  7  3  1  0
  1 10  1  0
  1 11  1  0
  1 12  1  0
  3 13  1  0
  4 14  1  0
  4 15  1  0
  5 16  1  0
  5 17  1  0
  6 18  1  0
  6 19  1  0
  7 20  1  0
  8 21  1  0
M  END
