
     RDKit          3D

 17 17  0  0  0  0  0  0  0  0999 V2000
   -2.4155   -0.4740   -0.2636 C   0  0  0  0  0  0  0  0  0  0  0  0
   -1.2210    0.0769   -0.7088 O   0  0  0  0  0  0  0  0  0  0  0  0
   -0.4470    0.6006    0.3155 C   0  0  0  0  0  0  0  0  0  0  0  0
   -0.1030    1.9396    0.0836 O   0  0  0  0  0  0  0  0  0  0  0  0
    1.2596    2.1090   -0.1089 C   0  0  0  0  0  0  0  0  0  0  0  0
    1.9252    3.1506   -0.3385 O   0  0  0  0  0  0  0  0  0  0  0  0
    1.8468    0.7755    0.0072 C   0  0  0  0  0  0  0  0  0  0  0  0
    0.8805   -0.0842    0.2483 C   0  0  0  0  0  0  0  0  0  0  0  0
    1.0713   -1.5486    0.4319 C   0  0  0  0  0  0  0  0  0  0  0  0
   -2.2710   -1.3050    0.4540 H   0  0  0  0  0  0  0  0  0  0  0  0
   -2.9671   -0.8071   -1.1700 H   0  0  0  0  0  0  0  0  0  0  0  0
   -2.9590    0.3495    0.2757 H   0  0  0  0  0  0  0  0  0  0  0  0
   -0.9307    0.4799    1.3024 H   0  0  0  0  0  0  0  0  0  0  0  0
    2.8853    0.4902   -0.0808 H   0  0  0  0  0  0  0  0  0  0  0  0
    1.9365   -1.6679    1.1273 H   0  0  0  0  0  0  0  0  0  0  0  0
    1.3008   -2.0431   -0.5364 H   0  0  0  0  0  0  0  0  0  0  0  0
    0.2083   -2.0422    0.8918 H   0  0  0  0  0  0  0  0  0  0  0  0
  1  2  1  0
  2  3  1  0
  3  4  1  0
  4  5  1  0
  5  6  2  0
  5  7  1  0
  7  8  2  0
  8  9  1  0
  8  3  1  0
  1 10  1  0
  1 11  1  0
  1 12  1  0
  3 13  1  0
  7 14  1  0
  9 15  1  0
  9 16  1  0
  9 17  1  0
M  END
