
     RDKit          3D

 19 19  0  0  0  0  0  0  0  0999 V2000
    2.7630   -0.1350    0.2743 C   0  0  0  0  0  0  0  0  0  0  0  0
    1.4892   -0.1878    0.8705 O   0  0  0  0  0  0  0  0  0  0  0  0
    0.5406    0.1068   -0.1072 C   0  0  0  0  0  0  0  0  0  0  0  0
   -0.1041    1.3820    0.2813 C   0  0  0  0  0  0  0  0  0  0  0  0
   -1.3986    1.4963    0.5442 C   0  0  0  0  0  0  0  0  0  0  0  0
   -2.2880    0.3420    0.4643 C   0  0  0  0  0  0  0  0  0  0  0  0
   -3.5344    0.4422    0.3126 O   0  0  0  0  0  0  0  0  0  0  0  0
   -1.6098   -0.9996    0.5765 C   0  0  0  0  0  0  0  0  0  0  0  0
   -0.4187   -1.0100   -0.3219 C   0  0  0  0  0  0  0  0  0  0  0  0
    2.7363   -0.9112   -0.5408 H   0  0  0  0  0  0  0  0  0  0  0  0
    2.8650    0.8409   -0.2277 H   0  0  0  0  0  0  0  0  0  0  0  0
    3.5212   -0.3414    1.0333 H   0  0  0  0  0  0  0  0  0  0  0  0
    1.0429    0.3055   -1.0996 H   0  0  0  0  0  0  0  0  0  0  0  0
    0.5246    2.2496    0.3487 H   0  0  0  0  0  0  0  0  0  0  0  0
   -1.8345    2.4491    0.8259 H   0  0  0  0  0  0  0  0  0  0  0  0
   -2.3137   -1.7761    0.2461 H   0  0  0  0  0  0  0  0  0  0  0  0
   -1.3286   -1.1801    1.6463 H   0  0  0  0  0  0  0  0  0  0  0  0
   -0.7825   -1.0959   -1.3787 H   0  0  0  0  0  0  0  0  0  0  0  0
    0.1302   -1.9773   -0.1418 H   0  0  0  0  0  0  0  0  0  0  0  0
  1  2  1  0
  2  3  1  0
  3  4  1  0
  4  5  2  0
  5  6  1  0
  6  7  2  0
  6  8  1  0
  8  9  1  0
  9  3  1  0
  1 10  1  0
  1 11  1  0
  1 12  1  0
  3 13  1  0
  4 14  1  0
  5 15  1  0
  8 16  1  0
  8 17  1  0
  9 18  1  0
  9 19  1  0
M  END
