
     RDKit          3D

 18 18  0  0  0  0  0  0  0  0999 V2000
    2.9867    0.3618    0.0428 C   0  0  0  0  0  0  0  0  0  0  0  0
    1.8125    0.2863   -0.7195 O   0  0  0  0  0  0  0  0  0  0  0  0
    0.7034    0.0428    0.0847 C   0  0  0  0  0  0  0  0  0  0  0  0
    0.1447   -1.2863   -0.2554 C   0  0  0  0  0  0  0  0  0  0  0  0
   -1.1174   -1.1020   -0.5791 C   0  0  0  0  0  0  0  0  0  0  0  0
   -1.4326    0.3124   -0.4691 C   0  0  0  0  0  0  0  0  0  0  0  0
   -2.5337    0.6242    0.5101 C   0  0  0  0  0  0  0  0  0  0  0  0
   -0.2972    0.9599   -0.0599 O   0  0  0  0  0  0  0  0  0  0  0  0
    3.8152    0.5561   -0.6688 H   0  0  0  0  0  0  0  0  0  0  0  0
    3.1088   -0.6709    0.4835 H   0  0  0  0  0  0  0  0  0  0  0  0
    2.9197    1.0880    0.8626 H   0  0  0  0  0  0  0  0  0  0  0  0
    1.0593   -0.0274    1.1388 H   0  0  0  0  0  0  0  0  0  0  0  0
    0.7148   -2.2290   -0.2291 H   0  0  0  0  0  0  0  0  0  0  0  0
   -1.8225   -1.8833   -0.8833 H   0  0  0  0  0  0  0  0  0  0  0  0
   -1.7038    0.6803   -1.4984 H   0  0  0  0  0  0  0  0  0  0  0  0
   -3.4871    0.1485    0.2805 H   0  0  0  0  0  0  0  0  0  0  0  0
   -2.7016    1.7367    0.4479 H   0  0  0  0  0  0  0  0  0  0  0  0
   -2.1690    0.4019    1.5116 H   0  0  0  0  0  0  0  0  0  0  0  0
  1  2  1  0
  2  3  1  0
  3  4  1  0
  4  5  2  0
  5  6  1  0
  6  7  1  0
  6  8  1  0
  8  3  1  0
  1  9  1  0
  1 10  1  0
  1 11  1  0
  3 12  1  0
  4 13  1  0
  5 14  1  0
  6 15  1  0
  7 16  1  0
  7 17  1  0
  7 18  1  0
M  END
