
     RDKit          3D

 23 23  0  0  0  0  0  0  0  0999 V2000
    2.8449   -0.6118    0.2255 C   0  0  0  0  0  0  0  0  0  0  0  0
    1.9566   -0.0378   -0.7157 O   0  0  0  0  0  0  0  0  0  0  0  0
    0.7075   -0.1373   -0.1733 C   0  0  0  0  0  0  0  0  0  0  0  0
   -0.2819   -0.8520   -1.1038 C   0  0  0  0  0  0  0  0  0  0  0  0
   -1.5717   -0.4587   -0.4169 C   0  0  0  0  0  0  0  0  0  0  0  0
   -2.7799   -1.3284   -0.4758 C   0  0  0  0  0  0  0  0  0  0  0  0
   -1.4028    0.7110    0.1857 C   0  0  0  0  0  0  0  0  0  0  0  0
   -0.0150    1.1861   -0.0439 C   0  0  0  0  0  0  0  0  0  0  0  0
    0.5240    1.9987    1.0951 C   0  0  0  0  0  0  0  0  0  0  0  0
    3.8804   -0.5856   -0.1084 H   0  0  0  0  0  0  0  0  0  0  0  0
    2.6946   -0.1371    1.2351 H   0  0  0  0  0  0  0  0  0  0  0  0
    2.4809   -1.6664    0.3407 H   0  0  0  0  0  0  0  0  0  0  0  0
    0.6696   -0.6171    0.8239 H   0  0  0  0  0  0  0  0  0  0  0  0
   -0.1320   -1.9284   -1.1180 H   0  0  0  0  0  0  0  0  0  0  0  0
   -0.2064   -0.3591   -2.0958 H   0  0  0  0  0  0  0  0  0  0  0  0
   -3.3835   -1.0468   -1.3630 H   0  0  0  0  0  0  0  0  0  0  0  0
   -3.3815   -1.2231    0.4462 H   0  0  0  0  0  0  0  0  0  0  0  0
   -2.5010   -2.4111   -0.5321 H   0  0  0  0  0  0  0  0  0  0  0  0
   -2.1660    1.2234    0.7509 H   0  0  0  0  0  0  0  0  0  0  0  0
   -0.0164    1.7541   -0.9940 H   0  0  0  0  0  0  0  0  0  0  0  0
    0.4174    1.4462    2.0300 H   0  0  0  0  0  0  0  0  0  0  0  0
    1.6272    2.1069    0.9152 H   0  0  0  0  0  0  0  0  0  0  0  0
    0.0349    2.9743    1.0926 H   0  0  0  0  0  0  0  0  0  0  0  0
  1  2  1  0
  2  3  1  0
  3  4  1  0
  4  5  1  0
  5  6  1  0
  5  7  2  0
  7  8  1  0
  8  9  1  0
  8  3  1  0
  1 10  1  0
  1 11  1  0
  1 12  1  0
  3 13  1  0
  4 14  1  0
  4 15  1  0
  6 16  1  0
  6 17  1  0
  6 18  1  0
  7 19  1  0
  8 20  1  0
  9 21  1  0
  9 22  1  0
  9 23  1  0
M  END
