
     RDKit          3D

 21 22  0  0  0  0  0  0  0  0999 V2000
    3.0569    0.3682   -0.3400 C   0  0  0  0  0  0  0  0  0  0  0  0
    1.8288   -0.0746   -0.8157 O   0  0  0  0  0  0  0  0  0  0  0  0
    0.7963    0.0932    0.0687 C   0  0  0  0  0  0  0  0  0  0  0  0
    0.1374   -1.2521    0.2958 C   0  0  0  0  0  0  0  0  0  0  0  0
   -1.2514   -0.9144    0.8035 C   0  0  0  0  0  0  0  0  0  0  0  0
   -2.3189   -0.7932   -0.2026 C   0  0  0  0  0  0  0  0  0  0  0  0
   -1.5753    0.4373    0.2082 C   0  0  0  0  0  0  0  0  0  0  0  0
   -2.2559    1.3718    0.9740 O   0  0  0  0  0  0  0  0  0  0  0  0
   -0.3643    0.8769   -0.5607 C   0  0  0  0  0  0  0  0  0  0  0  0
    3.8089    0.1825   -1.1349 H   0  0  0  0  0  0  0  0  0  0  0  0
    3.3772   -0.1738    0.5739 H   0  0  0  0  0  0  0  0  0  0  0  0
    3.0644    1.4591   -0.1452 H   0  0  0  0  0  0  0  0  0  0  0  0
    1.0855    0.5541    1.0288 H   0  0  0  0  0  0  0  0  0  0  0  0
    0.7171   -1.8647    0.9868 H   0  0  0  0  0  0  0  0  0  0  0  0
    0.0226   -1.7161   -0.7107 H   0  0  0  0  0  0  0  0  0  0  0  0
   -1.4564   -1.0899    1.8692 H   0  0  0  0  0  0  0  0  0  0  0  0
   -3.3833   -0.8304    0.1002 H   0  0  0  0  0  0  0  0  0  0  0  0
   -2.1417   -1.1906   -1.2205 H   0  0  0  0  0  0  0  0  0  0  0  0
   -2.5146    2.1136    0.3557 H   0  0  0  0  0  0  0  0  0  0  0  0
   -0.4589    0.4841   -1.6083 H   0  0  0  0  0  0  0  0  0  0  0  0
   -0.1741    1.9590   -0.5264 H   0  0  0  0  0  0  0  0  0  0  0  0
  1  2  1  0
  2  3  1  0
  3  4  1  0
  4  5  1  0
  5  6  1  0
  6  7  1  0
  7  8  1  0
  7  9  1  0
  9  3  1  0
  7  5  1  0
  1 10  1  0
  1 11  1  0
  1 12  1  0
  3 13  1  0
  4 14  1  0
  4 15  1  0
  5 16  1  0
  6 17  1  0
  6 18  1  0
  8 19  1  0
  9 20  1  0
  9 21  1  0
M  END
