
     RDKit          3D

 21 23  0  0  0  0  0  0  0  0999 V2000
    2.8307   -0.6051   -0.0731 C   0  0  0  0  0  0  0  0  0  0  0  0
    1.6896   -0.6279    0.7192 O   0  0  0  0  0  0  0  0  0  0  0  0
    0.5702   -0.1347    0.0472 C   0  0  0  0  0  0  0  0  0  0  0  0
   -0.5314   -1.1272    0.1956 C   0  0  0  0  0  0  0  0  0  0  0  0
   -1.5759   -1.6012   -0.6047 C   0  0  0  0  0  0  0  0  0  0  0  0
   -1.5252   -0.1845   -0.5996 C   0  0  0  0  0  0  0  0  0  0  0  0
   -1.5573    0.8398    0.4395 C   0  0  0  0  0  0  0  0  0  0  0  0
   -0.7457    2.1290    0.2365 C   0  0  0  0  0  0  0  0  0  0  0  0
   -0.0513    1.0192    0.8525 C   0  0  0  0  0  0  0  0  0  0  0  0
    3.0952    0.4211   -0.4121 H   0  0  0  0  0  0  0  0  0  0  0  0
    2.7252   -1.2242   -0.9963 H   0  0  0  0  0  0  0  0  0  0  0  0
    3.6616   -1.0093    0.5098 H   0  0  0  0  0  0  0  0  0  0  0  0
    0.7765    0.1827   -0.9765 H   0  0  0  0  0  0  0  0  0  0  0  0
   -0.7448   -1.2190    1.3089 H   0  0  0  0  0  0  0  0  0  0  0  0
   -2.4942   -2.0688   -0.1618 H   0  0  0  0  0  0  0  0  0  0  0  0
   -1.3089   -2.1932   -1.5267 H   0  0  0  0  0  0  0  0  0  0  0  0
   -1.1149    0.2319   -1.5736 H   0  0  0  0  0  0  0  0  0  0  0  0
   -2.2132    0.7791    1.3198 H   0  0  0  0  0  0  0  0  0  0  0  0
   -0.6621    2.3782   -0.8437 H   0  0  0  0  0  0  0  0  0  0  0  0
   -1.0028    2.9774    0.8620 H   0  0  0  0  0  0  0  0  0  0  0  0
    0.1785    1.0369    1.9155 H   0  0  0  0  0  0  0  0  0  0  0  0
  1  2  1  0
  2  3  1  0
  3  4  1  0
  4  5  1  0
  5  6  1  0
  6  7  1  0
  7  8  1  0
  8  9  1  0
  9  3  1  0
  6  4  1  0
  9  7  1  0
  1 10  1  0
  1 11  1  0
  1 12  1  0
  3 13  1  0
  4 14  1  0
  5 15  1  0
  5 16  1  0
  6 17  1  0
  7 18  1  0
  8 19  1  0
  8 20  1  0
  9 21  1  0
M  END
