
     RDKit          3D

 17 18  0  0  0  0  0  0  0  0999 V2000
    2.4944    0.0571    0.2571 C   0  0  0  0  0  0  0  0  0  0  0  0
    1.3206    0.5430   -0.3027 O   0  0  0  0  0  0  0  0  0  0  0  0
    0.2819   -0.2820    0.0575 C   0  0  0  0  0  0  0  0  0  0  0  0
   -0.5954   -0.5698   -1.1386 C   0  0  0  0  0  0  0  0  0  0  0  0
   -1.6664   -0.8505   -0.1220 C   0  0  0  0  0  0  0  0  0  0  0  0
   -1.0088    0.4231    0.3596 C   0  0  0  0  0  0  0  0  0  0  0  0
   -1.3077    1.0882    1.3776 O   0  0  0  0  0  0  0  0  0  0  0  0
   -0.9863    0.8182   -1.0481 C   0  0  0  0  0  0  0  0  0  0  0  0
   -1.1758    1.7446   -1.7536 O   0  0  0  0  0  0  0  0  0  0  0  0
    3.3143    0.7488   -0.0548 H   0  0  0  0  0  0  0  0  0  0  0  0
    2.4063    0.0484    1.3615 H   0  0  0  0  0  0  0  0  0  0  0  0
    2.7523   -0.9432   -0.1503 H   0  0  0  0  0  0  0  0  0  0  0  0
    0.4998   -1.1440    0.6876 H   0  0  0  0  0  0  0  0  0  0  0  0
   -0.3516   -1.1315   -1.9298 H   0  0  0  0  0  0  0  0  0  0  0  0
   -2.7039   -0.7365   -0.4434 H   0  0  0  0  0  0  0  0  0  0  0  0
   -1.4054   -1.7029    0.5113 H   0  0  0  0  0  0  0  0  0  0  0  0
   -1.8685    1.8891    1.2311 H   0  0  0  0  0  0  0  0  0  0  0  0
  1  2  1  0
  2  3  1  0
  3  4  1  0
  4  5  1  0
  5  6  1  0
  6  7  1  0
  6  8  1  0
  8  9  2  0
  6  3  1  0
  8  4  1  0
  1 10  1  0
  1 11  1  0
  1 12  1  0
  3 13  1  0
  4 14  1  0
  5 15  1  0
  5 16  1  0
  7 17  1  0
M  END
