
     RDKit          3D

 19 20  0  0  0  0  0  0  0  0999 V2000
   -2.2548   -0.2158    1.0005 C   0  0  0  0  0  0  0  0  0  0  0  0
   -1.3133   -1.0603    0.4887 O   0  0  0  0  0  0  0  0  0  0  0  0
   -0.2870   -0.4652   -0.1956 C   0  0  0  0  0  0  0  0  0  0  0  0
    0.7384   -1.4292   -0.7497 C   0  0  0  0  0  0  0  0  0  0  0  0
    2.0502   -0.7595   -0.5498 C   0  0  0  0  0  0  0  0  0  0  0  0
    1.9029    0.4387    0.0111 C   0  0  0  0  0  0  0  0  0  0  0  0
    0.4736    0.6831    0.2395 C   0  0  0  0  0  0  0  0  0  0  0  0
    0.1626    1.4705    1.3333 O   0  0  0  0  0  0  0  0  0  0  0  0
   -0.4627    0.7832   -0.9703 C   0  0  0  0  0  0  0  0  0  0  0  0
   -2.7437    0.3777    0.1724 H   0  0  0  0  0  0  0  0  0  0  0  0
   -1.9053    0.4771    1.7771 H   0  0  0  0  0  0  0  0  0  0  0  0
   -3.0975   -0.8615    1.3868 H   0  0  0  0  0  0  0  0  0  0  0  0
    0.7452   -2.3905   -0.2081 H   0  0  0  0  0  0  0  0  0  0  0  0
    0.5683   -1.6136   -1.8368 H   0  0  0  0  0  0  0  0  0  0  0  0
    3.0437   -1.1446   -0.8070 H   0  0  0  0  0  0  0  0  0  0  0  0
    2.6936    1.1558    0.2751 H   0  0  0  0  0  0  0  0  0  0  0  0
    0.8797    2.1731    1.3992 H   0  0  0  0  0  0  0  0  0  0  0  0
    0.1111    0.9190   -1.9214 H   0  0  0  0  0  0  0  0  0  0  0  0
   -1.3048    1.4619   -0.8450 H   0  0  0  0  0  0  0  0  0  0  0  0
  1  2  1  0
  2  3  1  0
  3  4  1  0
  4  5  1  0
  5  6  2  0
  6  7  1  0
  7  8  1  0
  7  9  1  0
  7  3  1  0
  9  3  1  0
  1 10  1  0
  1 11  1  0
  1 12  1  0
  4 13  1  0
  4 14  1  0
  5 15  1  0
  6 16  1  0
  8 17  1  0
  9 18  1  0
  9 19  1  0
M  END
