
     RDKit          3D

 18 19  0  0  0  0  0  0  0  0999 V2000
    2.5777   -0.1824   -0.8305 C   0  0  0  0  0  0  0  0  0  0  0  0
    1.4814    0.5793   -0.4625 O   0  0  0  0  0  0  0  0  0  0  0  0
    0.4590   -0.1712    0.0948 C   0  0  0  0  0  0  0  0  0  0  0  0
    0.1524    0.2308    1.4870 C   0  0  0  0  0  0  0  0  0  0  0  0
   -1.0804    0.7075    1.5271 C   0  0  0  0  0  0  0  0  0  0  0  0
   -1.7331    0.6818    0.1929 C   0  0  0  0  0  0  0  0  0  0  0  0
   -2.0392   -0.6415   -0.4498 C   0  0  0  0  0  0  0  0  0  0  0  0
   -0.7700    0.0434   -0.7240 C   0  0  0  0  0  0  0  0  0  0  0  0
    3.0438   -0.7274    0.0080 H   0  0  0  0  0  0  0  0  0  0  0  0
    2.3577   -0.8826   -1.6655 H   0  0  0  0  0  0  0  0  0  0  0  0
    3.3433    0.5303   -1.2200 H   0  0  0  0  0  0  0  0  0  0  0  0
    0.7680   -1.2505    0.1179 H   0  0  0  0  0  0  0  0  0  0  0  0
    0.7962    0.1661    2.3654 H   0  0  0  0  0  0  0  0  0  0  0  0
   -1.5665    1.0805    2.4449 H   0  0  0  0  0  0  0  0  0  0  0  0
   -2.3038    1.5885   -0.1045 H   0  0  0  0  0  0  0  0  0  0  0  0
   -2.0410   -1.5563    0.1856 H   0  0  0  0  0  0  0  0  0  0  0  0
   -2.8182   -0.6120   -1.2086 H   0  0  0  0  0  0  0  0  0  0  0  0
   -0.6275    0.4155   -1.7581 H   0  0  0  0  0  0  0  0  0  0  0  0
  1  2  1  0
  2  3  1  0
  3  4  1  0
  4  5  2  0
  5  6  1  0
  6  7  1  0
  7  8  1  0
  8  3  1  0
  8  6  1  0
  1  9  1  0
  1 10  1  0
  1 11  1  0
  3 12  1  0
  4 13  1  0
  5 14  1  0
  6 15  1  0
  7 16  1  0
  7 17  1  0
  8 18  1  0
M  END
