
     RDKit          3D

 23 23  0  0  0  0  0  0  0  0999 V2000
    3.4645    0.7646    0.7093 C   0  0  0  0  0  0  0  0  0  0  0  0
    2.0809    0.8668    0.5360 O   0  0  0  0  0  0  0  0  0  0  0  0
    1.4972   -0.3505    0.2138 C   0  0  0  0  0  0  0  0  0  0  0  0
    0.6011   -0.1808   -0.9927 C   0  0  0  0  0  0  0  0  0  0  0  0
   -0.5184    0.1706   -0.0242 C   0  0  0  0  0  0  0  0  0  0  0  0
   -1.8055   -0.4035   -0.5184 C   0  0  0  0  0  0  0  0  0  0  0  0
   -2.9809   -0.1100    0.3745 C   0  0  0  0  0  0  0  0  0  0  0  0
   -3.1460    1.2625    0.4708 O   0  0  0  0  0  0  0  0  0  0  0  0
    0.2237   -0.6547    1.0061 C   0  0  0  0  0  0  0  0  0  0  0  0
    3.9220    0.4001   -0.2313 H   0  0  0  0  0  0  0  0  0  0  0  0
    3.6900    0.0613    1.5565 H   0  0  0  0  0  0  0  0  0  0  0  0
    3.8219    1.7762    0.9870 H   0  0  0  0  0  0  0  0  0  0  0  0
    2.1962   -1.2121    0.1412 H   0  0  0  0  0  0  0  0  0  0  0  0
    0.4272   -1.1865   -1.4490 H   0  0  0  0  0  0  0  0  0  0  0  0
    0.8679    0.6046   -1.6968 H   0  0  0  0  0  0  0  0  0  0  0  0
   -0.5145    1.2321    0.2466 H   0  0  0  0  0  0  0  0  0  0  0  0
   -2.0188    0.0594   -1.5124 H   0  0  0  0  0  0  0  0  0  0  0  0
   -1.6634   -1.4864   -0.6933 H   0  0  0  0  0  0  0  0  0  0  0  0
   -2.9542   -0.6342    1.3297 H   0  0  0  0  0  0  0  0  0  0  0  0
   -3.8896   -0.4937   -0.1704 H   0  0  0  0  0  0  0  0  0  0  0  0
   -3.5918    1.4816    1.3297 H   0  0  0  0  0  0  0  0  0  0  0  0
   -0.0054   -1.7478    0.9571 H   0  0  0  0  0  0  0  0  0  0  0  0
    0.2957   -0.2194    2.0049 H   0  0  0  0  0  0  0  0  0  0  0  0
  1  2  1  0
  2  3  1  0
  3  4  1  0
  4  5  1  0
  5  6  1  0
  6  7  1  0
  7  8  1  0
  5  9  1  0
  9  3  1  0
  1 10  1  0
  1 11  1  0
  1 12  1  0
  3 13  1  0
  4 14  1  0
  4 15  1  0
  5 16  1  0
  6 17  1  0
  6 18  1  0
  7 19  1  0
  7 20  1  0
  8 21  1  0
  9 22  1  0
  9 23  1  0
M  END
