
     RDKit          3D

 23 23  0  0  0  0  0  0  0  0999 V2000
    2.3246   -0.8697   -0.3126 C   0  0  0  0  0  0  0  0  0  0  0  0
    0.9762   -0.9960   -0.0949 O   0  0  0  0  0  0  0  0  0  0  0  0
    0.2625    0.1689   -0.0496 C   0  0  0  0  0  0  0  0  0  0  0  0
   -1.2290   -0.1228    0.1999 C   0  0  0  0  0  0  0  0  0  0  0  0
   -1.3715   -0.8424    1.5102 C   0  0  0  0  0  0  0  0  0  0  0  0
   -1.6218   -1.0316   -0.9552 C   0  0  0  0  0  0  0  0  0  0  0  0
    0.4604    1.2636   -1.0482 C   0  0  0  0  0  0  0  0  0  0  0  0
    0.8298    1.4549    0.3792 C   0  0  0  0  0  0  0  0  0  0  0  0
    0.1284    2.3398    1.1910 O   0  0  0  0  0  0  0  0  0  0  0  0
    2.7608   -1.8903   -0.3229 H   0  0  0  0  0  0  0  0  0  0  0  0
    2.7647   -0.3819    0.6061 H   0  0  0  0  0  0  0  0  0  0  0  0
    2.6062   -0.2719   -1.1763 H   0  0  0  0  0  0  0  0  0  0  0  0
   -1.8265    0.8014    0.1506 H   0  0  0  0  0  0  0  0  0  0  0  0
   -2.3014   -1.4373    1.5749 H   0  0  0  0  0  0  0  0  0  0  0  0
   -0.5309   -1.5735    1.5944 H   0  0  0  0  0  0  0  0  0  0  0  0
   -1.2810   -0.0917    2.3326 H   0  0  0  0  0  0  0  0  0  0  0  0
   -0.8140   -1.7903   -1.0378 H   0  0  0  0  0  0  0  0  0  0  0  0
   -2.6212   -1.4826   -0.8138 H   0  0  0  0  0  0  0  0  0  0  0  0
   -1.5584   -0.4076   -1.8699 H   0  0  0  0  0  0  0  0  0  0  0  0
    1.2353    1.1673   -1.8389 H   0  0  0  0  0  0  0  0  0  0  0  0
   -0.3968    1.8802   -1.3880 H   0  0  0  0  0  0  0  0  0  0  0  0
    1.9265    1.4774    0.5711 H   0  0  0  0  0  0  0  0  0  0  0  0
   -0.7230    2.6360    0.7981 H   0  0  0  0  0  0  0  0  0  0  0  0
  1  2  1  0
  2  3  1  0
  3  4  1  0
  4  5  1  0
  4  6  1  0
  3  7  1  0
  7  8  1  0
  8  9  1  0
  8  3  1  0
  1 10  1  0
  1 11  1  0
  1 12  1  0
  4 13  1  0
  5 14  1  0
  5 15  1  0
  5 16  1  0
  6 17  1  0
  6 18  1  0
  6 19  1  0
  7 20  1  0
  7 21  1  0
  8 22  1  0
  9 23  1  0
M  END
