
     RDKit          3D

 23 23  0  0  0  0  0  0  0  0999 V2000
    2.3200   -0.1771   -0.6534 C   0  0  0  0  0  0  0  0  0  0  0  0
    1.2902    0.5832   -0.2116 O   0  0  0  0  0  0  0  0  0  0  0  0
    0.1923   -0.0726    0.2680 C   0  0  0  0  0  0  0  0  0  0  0  0
    0.4301   -0.9651    1.4357 C   0  0  0  0  0  0  0  0  0  0  0  0
   -0.3786   -0.9062   -0.8822 C   0  0  0  0  0  0  0  0  0  0  0  0
   -1.8531   -0.8507   -0.5616 C   0  0  0  0  0  0  0  0  0  0  0  0
   -2.0796    0.3827   -0.0181 O   0  0  0  0  0  0  0  0  0  0  0  0
   -0.9379    0.8557    0.5624 C   0  0  0  0  0  0  0  0  0  0  0  0
   -0.6378    2.2505    0.0051 C   0  0  0  0  0  0  0  0  0  0  0  0
    2.7683   -0.8505    0.0950 H   0  0  0  0  0  0  0  0  0  0  0  0
    2.0028   -0.8283   -1.5205 H   0  0  0  0  0  0  0  0  0  0  0  0
    3.1034    0.4901   -1.0690 H   0  0  0  0  0  0  0  0  0  0  0  0
    0.8103   -1.9820    1.1353 H   0  0  0  0  0  0  0  0  0  0  0  0
   -0.5820   -1.1860    1.8899 H   0  0  0  0  0  0  0  0  0  0  0  0
    1.0199   -0.5101    2.2314 H   0  0  0  0  0  0  0  0  0  0  0  0
   -0.1782   -0.4046   -1.8615 H   0  0  0  0  0  0  0  0  0  0  0  0
    0.0235   -1.9172   -0.8314 H   0  0  0  0  0  0  0  0  0  0  0  0
   -2.0584   -1.6590    0.1690 H   0  0  0  0  0  0  0  0  0  0  0  0
   -2.4284   -0.9693   -1.4959 H   0  0  0  0  0  0  0  0  0  0  0  0
   -1.1264    0.9711    1.6517 H   0  0  0  0  0  0  0  0  0  0  0  0
   -1.4722    2.9142    0.3205 H   0  0  0  0  0  0  0  0  0  0  0  0
    0.3055    2.6314    0.4360 H   0  0  0  0  0  0  0  0  0  0  0  0
   -0.5336    2.2001   -1.0945 H   0  0  0  0  0  0  0  0  0  0  0  0
  1  2  1  0
  2  3  1  0
  3  4  1  0
  3  5  1  0
  5  6  1  0
  6  7  1  0
  7  8  1  0
  8  9  1  0
  8  3  1  0
  1 10  1  0
  1 11  1  0
  1 12  1  0
  4 13  1  0
  4 14  1  0
  4 15  1  0
  5 16  1  0
  5 17  1  0
  6 18  1  0
  6 19  1  0
  8 20  1  0
  9 21  1  0
  9 22  1  0
  9 23  1  0
M  END
