
     RDKit          3D

 21 21  0  0  0  0  0  0  0  0999 V2000
    3.0161   -0.2885   -0.1109 C   0  0  0  0  0  0  0  0  0  0  0  0
    1.8214   -0.2344   -0.8390 O   0  0  0  0  0  0  0  0  0  0  0  0
    0.7093   -0.0995   -0.0195 C   0  0  0  0  0  0  0  0  0  0  0  0
   -0.1151   -1.3464   -0.2287 C   0  0  0  0  0  0  0  0  0  0  0  0
   -1.4115   -1.4687   -0.0535 C   0  0  0  0  0  0  0  0  0  0  0  0
   -2.3745   -0.4040    0.3936 C   0  0  0  0  0  0  0  0  0  0  0  0
   -1.7245    0.5345    1.1732 O   0  0  0  0  0  0  0  0  0  0  0  0
   -1.1315    1.5441    0.4571 C   0  0  0  0  0  0  0  0  0  0  0  0
   -0.0616    1.1003   -0.4855 C   0  0  0  0  0  0  0  0  0  0  0  0
    3.1726    0.6374    0.4966 H   0  0  0  0  0  0  0  0  0  0  0  0
    3.8303   -0.2931   -0.8935 H   0  0  0  0  0  0  0  0  0  0  0  0
    3.1314   -1.2135    0.4638 H   0  0  0  0  0  0  0  0  0  0  0  0
    0.9633   -0.0589    1.0588 H   0  0  0  0  0  0  0  0  0  0  0  0
    0.4352   -2.2328   -0.5605 H   0  0  0  0  0  0  0  0  0  0  0  0
   -1.7903   -2.4529   -0.2625 H   0  0  0  0  0  0  0  0  0  0  0  0
   -2.8140    0.0369   -0.5338 H   0  0  0  0  0  0  0  0  0  0  0  0
   -3.1494   -0.9235    1.0104 H   0  0  0  0  0  0  0  0  0  0  0  0
   -0.7763    2.3082    1.1793 H   0  0  0  0  0  0  0  0  0  0  0  0
   -1.9182    2.0649   -0.1532 H   0  0  0  0  0  0  0  0  0  0  0  0
    0.6637    1.9414   -0.5895 H   0  0  0  0  0  0  0  0  0  0  0  0
   -0.4762    0.8487   -1.5026 H   0  0  0  0  0  0  0  0  0  0  0  0
  1  2  1  0
  2  3  1  0
  3  4  1  0
  4  5  2  0
  5  6  1  0
  6  7  1  0
  7  8  1  0
  8  9  1  0
  9  3  1  0
  1 10  1  0
  1 11  1  0
  1 12  1  0
  3 13  1  0
  4 14  1  0
  5 15  1  0
  6 16  1  0
  6 17  1  0
  8 18  1  0
  8 19  1  0
  9 20  1  0
  9 21  1  0
M  END
