
     RDKit          3D

 19 19  0  0  0  0  0  0  0  0999 V2000
    2.6602    0.5797   -0.3078 C   0  0  0  0  0  0  0  0  0  0  0  0
    1.7673   -0.1302    0.4832 O   0  0  0  0  0  0  0  0  0  0  0  0
    0.4566   -0.0004    0.0489 C   0  0  0  0  0  0  0  0  0  0  0  0
   -0.3913    0.5764    1.1590 C   0  0  0  0  0  0  0  0  0  0  0  0
   -1.7551    0.7986    0.6122 C   0  0  0  0  0  0  0  0  0  0  0  0
   -2.3000    0.0391   -0.3230 C   0  0  0  0  0  0  0  0  0  0  0  0
   -1.5098   -1.0736   -0.8376 C   0  0  0  0  0  0  0  0  0  0  0  0
   -1.9465   -1.7863   -1.7550 O   0  0  0  0  0  0  0  0  0  0  0  0
   -0.1554   -1.3730   -0.2641 C   0  0  0  0  0  0  0  0  0  0  0  0
    2.6407    0.2360   -1.3735 H   0  0  0  0  0  0  0  0  0  0  0  0
    3.6673    0.4426    0.1315 H   0  0  0  0  0  0  0  0  0  0  0  0
    2.4343    1.6646   -0.3432 H   0  0  0  0  0  0  0  0  0  0  0  0
    0.3484    0.6309   -0.8317 H   0  0  0  0  0  0  0  0  0  0  0  0
    0.0175    1.5360    1.5492 H   0  0  0  0  0  0  0  0  0  0  0  0
   -0.4228   -0.2105    1.9645 H   0  0  0  0  0  0  0  0  0  0  0  0
   -2.3391    1.6274    0.9980 H   0  0  0  0  0  0  0  0  0  0  0  0
   -3.3138    0.2523   -0.6888 H   0  0  0  0  0  0  0  0  0  0  0  0
   -0.3182   -1.8525    0.7260 H   0  0  0  0  0  0  0  0  0  0  0  0
    0.4598   -1.9569   -0.9480 H   0  0  0  0  0  0  0  0  0  0  0  0
  1  2  1  0
  2  3  1  0
  3  4  1  0
  4  5  1  0
  5  6  2  0
  6  7  1  0
  7  8  2  0
  7  9  1  0
  9  3  1  0
  1 10  1  0
  1 11  1  0
  1 12  1  0
  3 13  1  0
  4 14  1  0
  4 15  1  0
  5 16  1  0
  6 17  1  0
  9 18  1  0
  9 19  1  0
M  END
