
     RDKit          3D

 18 18  0  0  0  0  0  0  0  0999 V2000
   -2.5164    0.2315   -0.3461 C   0  0  0  0  0  0  0  0  0  0  0  0
   -1.2359    0.4566    0.1054 O   0  0  0  0  0  0  0  0  0  0  0  0
   -0.3119   -0.4753   -0.2642 C   0  0  0  0  0  0  0  0  0  0  0  0
    0.5855   -1.0481    0.7778 C   0  0  0  0  0  0  0  0  0  0  0  0
    1.6745   -0.0938    0.3397 C   0  0  0  0  0  0  0  0  0  0  0  0
    1.8268    0.9638    1.2254 O   0  0  0  0  0  0  0  0  0  0  0  0
    0.8899    0.2012   -0.9075 C   0  0  0  0  0  0  0  0  0  0  0  0
    0.7635    1.5660   -1.0895 O   0  0  0  0  0  0  0  0  0  0  0  0
   -3.1481    1.0747    0.0375 H   0  0  0  0  0  0  0  0  0  0  0  0
   -2.5948    0.2285   -1.4487 H   0  0  0  0  0  0  0  0  0  0  0  0
   -2.9594   -0.6853    0.1206 H   0  0  0  0  0  0  0  0  0  0  0  0
   -0.7739   -1.2699   -0.8804 H   0  0  0  0  0  0  0  0  0  0  0  0
    0.2975   -0.9689    1.8183 H   0  0  0  0  0  0  0  0  0  0  0  0
    0.8959   -2.0967    0.5493 H   0  0  0  0  0  0  0  0  0  0  0  0
    2.6444   -0.5667    0.0966 H   0  0  0  0  0  0  0  0  0  0  0  0
    1.5087    0.6634    2.1123 H   0  0  0  0  0  0  0  0  0  0  0  0
    1.2364   -0.2773   -1.8336 H   0  0  0  0  0  0  0  0  0  0  0  0
    1.2174    2.0963   -0.4128 H   0  0  0  0  0  0  0  0  0  0  0  0
  1  2  1  0
  2  3  1  0
  3  4  1  0
  4  5  1  0
  5  6  1  0
  5  7  1  0
  7  8  1  0
  7  3  1  0
  1  9  1  0
  1 10  1  0
  1 11  1  0
  3 12  1  0
  4 13  1  0
  4 14  1  0
  5 15  1  0
  6 16  1  0
  7 17  1  0
  8 18  1  0
M  END
