
     RDKit          3D

 21 22  0  0  0  0  0  0  0  0999 V2000
    2.9403    0.6082   -0.3202 C   0  0  0  0  0  0  0  0  0  0  0  0
    1.7224    0.6565    0.3451 O   0  0  0  0  0  0  0  0  0  0  0  0
    0.9390   -0.4479    0.1380 C   0  0  0  0  0  0  0  0  0  0  0  0
    0.3358   -1.0971    1.3513 C   0  0  0  0  0  0  0  0  0  0  0  0
   -1.0400   -0.9990    0.8073 C   0  0  0  0  0  0  0  0  0  0  0  0
   -1.3657   -1.1042   -0.6279 C   0  0  0  0  0  0  0  0  0  0  0  0
   -0.4652   -0.0346   -0.2539 C   0  0  0  0  0  0  0  0  0  0  0  0
   -0.8266    1.2750   -0.0330 O   0  0  0  0  0  0  0  0  0  0  0  0
   -2.1018    1.5931   -0.4040 C   0  0  0  0  0  0  0  0  0  0  0  0
    2.8157    0.5299   -1.4030 H   0  0  0  0  0  0  0  0  0  0  0  0
    3.4894    1.5490   -0.0769 H   0  0  0  0  0  0  0  0  0  0  0  0
    3.5503   -0.2124    0.1233 H   0  0  0  0  0  0  0  0  0  0  0  0
    1.3967   -1.2188   -0.5331 H   0  0  0  0  0  0  0  0  0  0  0  0
    0.6365   -2.1438    1.5475 H   0  0  0  0  0  0  0  0  0  0  0  0
    0.4842   -0.5053    2.2936 H   0  0  0  0  0  0  0  0  0  0  0  0
   -1.8054   -0.6279    1.4853 H   0  0  0  0  0  0  0  0  0  0  0  0
   -0.8984   -1.9878   -1.1508 H   0  0  0  0  0  0  0  0  0  0  0  0
   -2.4200   -0.9824   -0.8980 H   0  0  0  0  0  0  0  0  0  0  0  0
   -2.2691    2.6661   -0.1769 H   0  0  0  0  0  0  0  0  0  0  0  0
   -2.3139    1.4684   -1.4851 H   0  0  0  0  0  0  0  0  0  0  0  0
   -2.8042    1.0151    0.2332 H   0  0  0  0  0  0  0  0  0  0  0  0
  1  2  1  0
  2  3  1  0
  3  4  1  0
  4  5  1  0
  5  6  1  0
  6  7  1  0
  7  8  1  0
  8  9  1  0
  7  3  1  0
  7  5  1  0
  1 10  1  0
  1 11  1  0
  1 12  1  0
  3 13  1  0
  4 14  1  0
  4 15  1  0
  5 16  1  0
  6 17  1  0
  6 18  1  0
  9 19  1  0
  9 20  1  0
  9 21  1  0
M  END
