
     RDKit          3D

 19 20  0  0  0  0  0  0  0  0999 V2000
    2.3670   -0.4373    0.3487 C   0  0  0  0  0  0  0  0  0  0  0  0
    1.0634   -0.9071    0.3674 O   0  0  0  0  0  0  0  0  0  0  0  0
    0.2691   -0.0393   -0.3670 C   0  0  0  0  0  0  0  0  0  0  0  0
    0.1572    1.4060    0.0440 C   0  0  0  0  0  0  0  0  0  0  0  0
   -1.2817    1.1465    0.4164 C   0  0  0  0  0  0  0  0  0  0  0  0
   -1.2596   -0.2034   -0.2122 C   0  0  0  0  0  0  0  0  0  0  0  0
   -1.7253   -1.3549    0.6148 C   0  0  0  0  0  0  0  0  0  0  0  0
   -1.1025   -1.7795    1.5702 O   0  0  0  0  0  0  0  0  0  0  0  0
   -0.5670   -0.4830   -1.4894 C   0  0  0  0  0  0  0  0  0  0  0  0
    2.6791   -0.4109   -0.7344 H   0  0  0  0  0  0  0  0  0  0  0  0
    2.4971    0.5595    0.7737 H   0  0  0  0  0  0  0  0  0  0  0  0
    3.0615   -1.1234    0.8788 H   0  0  0  0  0  0  0  0  0  0  0  0
    0.8160    1.7246    0.8510 H   0  0  0  0  0  0  0  0  0  0  0  0
    0.2235    2.1387   -0.7980 H   0  0  0  0  0  0  0  0  0  0  0  0
   -2.0106    1.8729    0.0236 H   0  0  0  0  0  0  0  0  0  0  0  0
   -1.3721    1.0695    1.5361 H   0  0  0  0  0  0  0  0  0  0  0  0
   -2.6806   -1.7991    0.2988 H   0  0  0  0  0  0  0  0  0  0  0  0
   -0.6433    0.1768   -2.3632 H   0  0  0  0  0  0  0  0  0  0  0  0
   -0.4912   -1.5566   -1.7593 H   0  0  0  0  0  0  0  0  0  0  0  0
  1  2  1  0
  2  3  1  0
  3  4  1  0
  4  5  1  0
  5  6  1  0
  6  7  1  0
  7  8  2  0
  6  9  1  0
  6  3  1  0
  9  3  1  0
  1 10  1  0
  1 11  1  0
  1 12  1  0
  4 13  1  0
  4 14  1  0
  5 15  1  0
  5 16  1  0
  7 17  1  0
  9 18  1  0
  9 19  1  0
M  END
