
     RDKit          3D

 18 18  0  0  0  0  0  0  0  0999 V2000
    2.3341   -0.2403    0.3131 C   0  0  0  0  0  0  0  0  0  0  0  0
    1.1418   -0.0464    0.9606 O   0  0  0  0  0  0  0  0  0  0  0  0
    0.0637    0.2600    0.1728 C   0  0  0  0  0  0  0  0  0  0  0  0
    0.1467    1.4934   -0.6368 C   0  0  0  0  0  0  0  0  0  0  0  0
    1.1342    2.1813   -0.5771 O   0  0  0  0  0  0  0  0  0  0  0  0
   -1.1975    0.2864    1.0523 C   0  0  0  0  0  0  0  0  0  0  0  0
   -1.9296   -0.6081    0.0409 C   0  0  0  0  0  0  0  0  0  0  0  0
   -0.5783   -0.9154   -0.5430 C   0  0  0  0  0  0  0  0  0  0  0  0
    2.1835   -1.0946   -0.4009 H   0  0  0  0  0  0  0  0  0  0  0  0
    3.0508   -0.6300    1.0939 H   0  0  0  0  0  0  0  0  0  0  0  0
    2.8060    0.6308   -0.1321 H   0  0  0  0  0  0  0  0  0  0  0  0
   -0.6621    1.7820   -1.2761 H   0  0  0  0  0  0  0  0  0  0  0  0
   -1.0729   -0.2040    2.0284 H   0  0  0  0  0  0  0  0  0  0  0  0
   -1.6524    1.3034    1.1256 H   0  0  0  0  0  0  0  0  0  0  0  0
   -2.6268   -0.0433   -0.5816 H   0  0  0  0  0  0  0  0  0  0  0  0
   -2.3774   -1.5045    0.5310 H   0  0  0  0  0  0  0  0  0  0  0  0
   -0.1534   -1.9002   -0.3209 H   0  0  0  0  0  0  0  0  0  0  0  0
   -0.6104   -0.7505   -1.6594 H   0  0  0  0  0  0  0  0  0  0  0  0
  1  2  1  0
  2  3  1  0
  3  4  1  0
  4  5  2  0
  3  6  1  0
  6  7  1  0
  7  8  1  0
  8  3  1  0
  1  9  1  0
  1 10  1  0
  1 11  1  0
  4 12  1  0
  6 13  1  0
  6 14  1  0
  7 15  1  0
  7 16  1  0
  8 17  1  0
  8 18  1  0
M  END
