
     RDKit          3D

 21 22  0  0  0  0  0  0  0  0999 V2000
    2.3531   -0.7416    0.0373 C   0  0  0  0  0  0  0  0  0  0  0  0
    1.0846   -1.2247   -0.3701 O   0  0  0  0  0  0  0  0  0  0  0  0
    0.2176   -0.2073   -0.0608 C   0  0  0  0  0  0  0  0  0  0  0  0
    0.4648    1.1078   -0.7212 C   0  0  0  0  0  0  0  0  0  0  0  0
   -1.0340    1.2417   -0.9111 C   0  0  0  0  0  0  0  0  0  0  0  0
   -1.1616   -0.2184   -0.4703 C   0  0  0  0  0  0  0  0  0  0  0  0
   -1.6897   -1.0774   -1.3509 O   0  0  0  0  0  0  0  0  0  0  0  0
   -1.6163   -0.2767    0.9652 C   0  0  0  0  0  0  0  0  0  0  0  0
   -0.1611   -0.1996    1.3771 C   0  0  0  0  0  0  0  0  0  0  0  0
    2.5242    0.1828   -0.5537 H   0  0  0  0  0  0  0  0  0  0  0  0
    3.1320   -1.4891   -0.0398 H   0  0  0  0  0  0  0  0  0  0  0  0
    2.1834   -0.3753    1.0933 H   0  0  0  0  0  0  0  0  0  0  0  0
    0.9642    1.0067   -1.6878 H   0  0  0  0  0  0  0  0  0  0  0  0
    0.9197    1.8770   -0.0644 H   0  0  0  0  0  0  0  0  0  0  0  0
   -1.3332    1.4005   -1.9495 H   0  0  0  0  0  0  0  0  0  0  0  0
   -1.5224    1.9478   -0.2252 H   0  0  0  0  0  0  0  0  0  0  0  0
   -1.2680   -1.9310   -1.4972 H   0  0  0  0  0  0  0  0  0  0  0  0
   -2.1576   -1.1778    1.2596 H   0  0  0  0  0  0  0  0  0  0  0  0
   -2.1559    0.6206    1.3324 H   0  0  0  0  0  0  0  0  0  0  0  0
    0.1135   -1.1445    1.8963 H   0  0  0  0  0  0  0  0  0  0  0  0
    0.1426    0.6785    1.9407 H   0  0  0  0  0  0  0  0  0  0  0  0
  1  2  1  0
  2  3  1  0
  3  4  1  0
  4  5  1  0
  5  6  1  0
  6  7  1  0
  6  8  1  0
  8  9  1  0
  6  3  1  0
  9  3  1  0
  1 10  1  0
  1 11  1  0
  1 12  1  0
  4 13  1  0
  4 14  1  0
  5 15  1  0
  5 16  1  0
  7 17  1  0
  8 18  1  0
  8 19  1  0
  9 20  1  0
  9 21  1  0
M  END
