
     RDKit          3D

 23 24  0  0  0  0  0  0  0  0999 V2000
    3.1497    0.7269    0.4493 C   0  0  0  0  0  0  0  0  0  0  0  0
    2.2386   -0.2744    0.6525 O   0  0  0  0  0  0  0  0  0  0  0  0
    1.0161   -0.1155    0.1065 C   0  0  0  0  0  0  0  0  0  0  0  0
    0.6275   -1.1789   -0.8978 C   0  0  0  0  0  0  0  0  0  0  0  0
   -0.8116   -0.7879   -1.1795 C   0  0  0  0  0  0  0  0  0  0  0  0
   -1.2976   -0.1549    0.0843 C   0  0  0  0  0  0  0  0  0  0  0  0
   -2.0387    1.1721    0.0209 C   0  0  0  0  0  0  0  0  0  0  0  0
   -2.6953   -0.1500    0.4810 C   0  0  0  0  0  0  0  0  0  0  0  0
   -0.1496   -0.1749    1.0595 C   0  0  0  0  0  0  0  0  0  0  0  0
    3.3006    0.8225   -0.6664 H   0  0  0  0  0  0  0  0  0  0  0  0
    4.1421    0.3815    0.8292 H   0  0  0  0  0  0  0  0  0  0  0  0
    2.8602    1.7156    0.8021 H   0  0  0  0  0  0  0  0  0  0  0  0
    0.9790    0.8603   -0.4390 H   0  0  0  0  0  0  0  0  0  0  0  0
    1.2530   -1.1431   -1.8107 H   0  0  0  0  0  0  0  0  0  0  0  0
    0.6223   -2.1585   -0.4074 H   0  0  0  0  0  0  0  0  0  0  0  0
   -0.8317   -0.0365   -2.0111 H   0  0  0  0  0  0  0  0  0  0  0  0
   -1.4171   -1.6641   -1.4796 H   0  0  0  0  0  0  0  0  0  0  0  0
   -1.8662    1.9132    0.8096 H   0  0  0  0  0  0  0  0  0  0  0  0
   -2.2376    1.5046   -1.0117 H   0  0  0  0  0  0  0  0  0  0  0  0
   -3.4306   -0.5449   -0.2635 H   0  0  0  0  0  0  0  0  0  0  0  0
   -3.0644   -0.1782    1.5056 H   0  0  0  0  0  0  0  0  0  0  0  0
   -0.1749   -1.1578    1.5710 H   0  0  0  0  0  0  0  0  0  0  0  0
   -0.1740    0.6228    1.7953 H   0  0  0  0  0  0  0  0  0  0  0  0
  1  2  1  0
  2  3  1  0
  3  4  1  0
  4  5  1  0
  5  6  1  0
  6  7  1  0
  7  8  1  0
  6  9  1  0
  9  3  1  0
  8  6  1  0
  1 10  1  0
  1 11  1  0
  1 12  1  0
  3 13  1  0
  4 14  1  0
  4 15  1  0
  5 16  1  0
  5 17  1  0
  7 18  1  0
  7 19  1  0
  8 20  1  0
  8 21  1  0
  9 22  1  0
  9 23  1  0
M  END
