
     RDKit          3D

 19 21  0  0  0  0  0  0  0  0999 V2000
    2.8593    0.2266   -0.3448 C   0  0  0  0  0  0  0  0  0  0  0  0
    1.5026    0.3621   -0.5469 O   0  0  0  0  0  0  0  0  0  0  0  0
    0.7196   -0.2491    0.4041 C   0  0  0  0  0  0  0  0  0  0  0  0
   -0.4621    0.5913    0.7613 C   0  0  0  0  0  0  0  0  0  0  0  0
   -0.9088    0.4013   -0.6630 C   0  0  0  0  0  0  0  0  0  0  0  0
   -2.3846    0.3184   -0.5475 C   0  0  0  0  0  0  0  0  0  0  0  0
   -2.5243   -0.4889    0.6090 O   0  0  0  0  0  0  0  0  0  0  0  0
   -1.2139   -0.6902    0.9932 C   0  0  0  0  0  0  0  0  0  0  0  0
   -0.4414   -0.9567   -0.2617 C   0  0  0  0  0  0  0  0  0  0  0  0
    3.0811    0.6938    0.6578 H   0  0  0  0  0  0  0  0  0  0  0  0
    3.1938   -0.8246   -0.3826 H   0  0  0  0  0  0  0  0  0  0  0  0
    3.3677    0.8679   -1.1049 H   0  0  0  0  0  0  0  0  0  0  0  0
    1.2135   -0.7758    1.2171 H   0  0  0  0  0  0  0  0  0  0  0  0
   -0.4992    1.4278    1.3038 H   0  0  0  0  0  0  0  0  0  0  0  0
   -0.4330    0.9372   -1.4440 H   0  0  0  0  0  0  0  0  0  0  0  0
   -2.9016   -0.1318   -1.4138 H   0  0  0  0  0  0  0  0  0  0  0  0
   -2.7662    1.3499   -0.3108 H   0  0  0  0  0  0  0  0  0  0  0  0
   -1.0021   -1.2637    1.8743 H   0  0  0  0  0  0  0  0  0  0  0  0
   -0.4004   -1.7952   -0.8007 H   0  0  0  0  0  0  0  0  0  0  0  0
  1  2  1  0
  2  3  1  0
  3  4  1  0
  4  5  1  0
  5  6  1  0
  6  7  1  0
  7  8  1  0
  8  9  1  0
  9  3  1  0
  8  4  1  0
  9  5  1  0
  1 10  1  0
  1 11  1  0
  1 12  1  0
  3 13  1  0
  4 14  1  0
  5 15  1  0
  6 16  1  0
  6 17  1  0
  8 18  1  0
  9 19  1  0
M  END
