
     RDKit          3D

 23 24  0  0  0  0  0  0  0  0999 V2000
    3.3395   -0.0360   -0.4031 C   0  0  0  0  0  0  0  0  0  0  0  0
    2.0732    0.4669   -0.6880 O   0  0  0  0  0  0  0  0  0  0  0  0
    1.2477    0.4982    0.4142 C   0  0  0  0  0  0  0  0  0  0  0  0
    0.2102    1.5363    0.5512 C   0  0  0  0  0  0  0  0  0  0  0  0
   -0.1589    0.1415    0.2029 C   0  0  0  0  0  0  0  0  0  0  0  0
   -0.9465   -0.7111    1.1423 C   0  0  0  0  0  0  0  0  0  0  0  0
   -2.2448   -0.9776    0.4053 C   0  0  0  0  0  0  0  0  0  0  0  0
   -2.2371   -0.1639   -0.8384 C   0  0  0  0  0  0  0  0  0  0  0  0
   -0.7499   -0.0510   -1.1716 C   0  0  0  0  0  0  0  0  0  0  0  0
    3.9146   -0.0157   -1.3539 H   0  0  0  0  0  0  0  0  0  0  0  0
    3.2958   -1.0647    0.0046 H   0  0  0  0  0  0  0  0  0  0  0  0
    3.8913    0.6175    0.3047 H   0  0  0  0  0  0  0  0  0  0  0  0
    1.7219    0.1168    1.3595 H   0  0  0  0  0  0  0  0  0  0  0  0
    0.1979    2.3067   -0.2557 H   0  0  0  0  0  0  0  0  0  0  0  0
   -0.1375    1.8997    1.5204 H   0  0  0  0  0  0  0  0  0  0  0  0
   -0.3965   -1.6704    1.3658 H   0  0  0  0  0  0  0  0  0  0  0  0
   -1.2132   -0.1726    2.0877 H   0  0  0  0  0  0  0  0  0  0  0  0
   -2.2548   -2.0412    0.1438 H   0  0  0  0  0  0  0  0  0  0  0  0
   -3.1294   -0.7964    1.0515 H   0  0  0  0  0  0  0  0  0  0  0  0
   -2.6758    0.8397   -0.6818 H   0  0  0  0  0  0  0  0  0  0  0  0
   -2.7334   -0.6242   -1.7003 H   0  0  0  0  0  0  0  0  0  0  0  0
   -0.6178    0.8671   -1.7899 H   0  0  0  0  0  0  0  0  0  0  0  0
   -0.3966   -0.9656   -1.6710 H   0  0  0  0  0  0  0  0  0  0  0  0
  1  2  1  0
  2  3  1  0
  3  4  1  0
  4  5  1  0
  5  6  1  0
  6  7  1  0
  7  8  1  0
  8  9  1  0
  5  3  1  0
  9  5  1  0
  1 10  1  0
  1 11  1  0
  1 12  1  0
  3 13  1  0
  4 14  1  0
  4 15  1  0
  6 16  1  0
  6 17  1  0
  7 18  1  0
  7 19  1  0
  8 20  1  0
  8 21  1  0
  9 22  1  0
  9 23  1  0
M  END
