
     RDKit          3D

 21 22  0  0  0  0  0  0  0  0999 V2000
   -2.4744    1.2022    0.5569 C   0  0  0  0  0  0  0  0  0  0  0  0
   -1.7418    0.0949    0.8617 O   0  0  0  0  0  0  0  0  0  0  0  0
   -0.8493   -0.3142   -0.0857 C   0  0  0  0  0  0  0  0  0  0  0  0
    0.2531    0.6055   -0.5258 C   0  0  0  0  0  0  0  0  0  0  0  0
    1.4641   -0.0071    0.0449 C   0  0  0  0  0  0  0  0  0  0  0  0
    2.7761    0.7276    0.1079 C   0  0  0  0  0  0  0  0  0  0  0  0
    1.1856   -1.2223    0.4523 C   0  0  0  0  0  0  0  0  0  0  0  0
   -0.1813   -1.6593    0.2576 C   0  0  0  0  0  0  0  0  0  0  0  0
   -1.0081   -1.5115   -0.9243 C   0  0  0  0  0  0  0  0  0  0  0  0
   -1.8092    2.0772    0.3813 H   0  0  0  0  0  0  0  0  0  0  0  0
   -3.1119    1.0395   -0.3247 H   0  0  0  0  0  0  0  0  0  0  0  0
   -3.0734    1.4735    1.4659 H   0  0  0  0  0  0  0  0  0  0  0  0
    0.1100    1.6440   -0.1583 H   0  0  0  0  0  0  0  0  0  0  0  0
    0.3726    0.6028   -1.6464 H   0  0  0  0  0  0  0  0  0  0  0  0
    2.9954    1.1861   -0.8785 H   0  0  0  0  0  0  0  0  0  0  0  0
    3.5683    0.0609    0.4486 H   0  0  0  0  0  0  0  0  0  0  0  0
    2.7267    1.5769    0.8315 H   0  0  0  0  0  0  0  0  0  0  0  0
    1.9723   -1.8509    0.9132 H   0  0  0  0  0  0  0  0  0  0  0  0
   -0.5979   -2.2442    1.1066 H   0  0  0  0  0  0  0  0  0  0  0  0
   -0.5768   -1.4929   -1.9650 H   0  0  0  0  0  0  0  0  0  0  0  0
   -1.9999   -1.9887   -0.9196 H   0  0  0  0  0  0  0  0  0  0  0  0
  1  2  1  0
  2  3  1  0
  3  4  1  0
  4  5  1  0
  5  6  1  0
  5  7  2  0
  7  8  1  0
  8  9  1  0
  8  3  1  0
  9  3  1  0
  1 10  1  0
  1 11  1  0
  1 12  1  0
  4 13  1  0
  4 14  1  0
  6 15  1  0
  6 16  1  0
  6 17  1  0
  7 18  1  0
  8 19  1  0
  9 20  1  0
  9 21  1  0
M  END
