
     RDKit          3D

 21 22  0  0  0  0  0  0  0  0999 V2000
    2.6517    0.7423   -0.1862 C   0  0  0  0  0  0  0  0  0  0  0  0
    1.2940    0.9618    0.1398 O   0  0  0  0  0  0  0  0  0  0  0  0
    0.6437   -0.2257   -0.0435 C   0  0  0  0  0  0  0  0  0  0  0  0
   -0.5565   -0.0951   -0.9952 C   0  0  0  0  0  0  0  0  0  0  0  0
   -1.3551    0.9559   -0.2948 C   0  0  0  0  0  0  0  0  0  0  0  0
   -1.2101    0.5225    1.1730 C   0  0  0  0  0  0  0  0  0  0  0  0
   -0.2276   -0.6072    1.1645 C   0  0  0  0  0  0  0  0  0  0  0  0
   -0.8828   -1.7281    0.6462 O   0  0  0  0  0  0  0  0  0  0  0  0
   -1.2098   -1.4379   -0.6728 C   0  0  0  0  0  0  0  0  0  0  0  0
    3.2529    1.6416   -0.0689 H   0  0  0  0  0  0  0  0  0  0  0  0
    2.9757   -0.0860    0.5063 H   0  0  0  0  0  0  0  0  0  0  0  0
    2.7292    0.3097   -1.2082 H   0  0  0  0  0  0  0  0  0  0  0  0
    1.2517   -1.0603   -0.3829 H   0  0  0  0  0  0  0  0  0  0  0  0
   -0.3020    0.0591   -2.0143 H   0  0  0  0  0  0  0  0  0  0  0  0
   -0.8404    1.9320   -0.4137 H   0  0  0  0  0  0  0  0  0  0  0  0
   -2.4190    0.9860   -0.5824 H   0  0  0  0  0  0  0  0  0  0  0  0
   -0.9224    1.3608    1.8157 H   0  0  0  0  0  0  0  0  0  0  0  0
   -2.1982    0.1417    1.5156 H   0  0  0  0  0  0  0  0  0  0  0  0
    0.3250   -0.7853    2.0588 H   0  0  0  0  0  0  0  0  0  0  0  0
   -2.3038   -1.4047   -0.8422 H   0  0  0  0  0  0  0  0  0  0  0  0
   -0.6963   -2.1832   -1.3147 H   0  0  0  0  0  0  0  0  0  0  0  0
  1  2  1  0
  2  3  1  0
  3  4  1  0
  4  5  1  0
  5  6  1  0
  6  7  1  0
  7  8  1  0
  8  9  1  0
  7  3  1  0
  9  4  1  0
  1 10  1  0
  1 11  1  0
  1 12  1  0
  3 13  1  0
  4 14  1  0
  5 15  1  0
  5 16  1  0
  6 17  1  0
  6 18  1  0
  7 19  1  0
  9 20  1  0
  9 21  1  0
M  END
