
     RDKit          3D

 18 18  0  0  0  0  0  0  0  0999 V2000
    2.8657   -0.1827    1.0584 C   0  0  0  0  0  0  0  0  0  0  0  0
    2.0612   -0.0779   -0.0762 O   0  0  0  0  0  0  0  0  0  0  0  0
    0.7937    0.4045    0.2088 C   0  0  0  0  0  0  0  0  0  0  0  0
    0.1527    1.3281   -0.7687 C   0  0  0  0  0  0  0  0  0  0  0  0
   -0.3935   -0.0903   -0.5360 C   0  0  0  0  0  0  0  0  0  0  0  0
   -1.7063   -0.0852    0.1571 C   0  0  0  0  0  0  0  0  0  0  0  0
   -2.7674   -0.9984   -0.3374 C   0  0  0  0  0  0  0  0  0  0  0  0
   -1.9146    0.6487    1.1098 O   0  0  0  0  0  0  0  0  0  0  0  0
    3.8466   -0.5763    0.7055 H   0  0  0  0  0  0  0  0  0  0  0  0
    2.4735   -0.9182    1.7839 H   0  0  0  0  0  0  0  0  0  0  0  0
    3.0717    0.8099    1.5124 H   0  0  0  0  0  0  0  0  0  0  0  0
    0.6240    0.6271    1.2785 H   0  0  0  0  0  0  0  0  0  0  0  0
   -0.4201    2.1882   -0.3907 H   0  0  0  0  0  0  0  0  0  0  0  0
    0.5875    1.4981   -1.7651 H   0  0  0  0  0  0  0  0  0  0  0  0
   -0.3054   -0.7810   -1.3764 H   0  0  0  0  0  0  0  0  0  0  0  0
   -2.9523   -0.8150   -1.4271 H   0  0  0  0  0  0  0  0  0  0  0  0
   -2.3242   -2.0346   -0.2924 H   0  0  0  0  0  0  0  0  0  0  0  0
   -3.6927   -0.9453    0.2501 H   0  0  0  0  0  0  0  0  0  0  0  0
  1  2  1  0
  2  3  1  0
  3  4  1  0
  4  5  1  0
  5  6  1  0
  6  7  1  0
  6  8  2  0
  5  3  1  0
  1  9  1  0
  1 10  1  0
  1 11  1  0
  3 12  1  0
  4 13  1  0
  4 14  1  0
  5 15  1  0
  7 16  1  0
  7 17  1  0
  7 18  1  0
M  END
