
     RDKit          3D

 21 21  0  0  0  0  0  0  0  0999 V2000
    2.0438   -0.7425    0.8699 C   0  0  0  0  0  0  0  0  0  0  0  0
    0.8637   -0.0488    1.1210 O   0  0  0  0  0  0  0  0  0  0  0  0
    0.1292    0.0006   -0.0455 C   0  0  0  0  0  0  0  0  0  0  0  0
    0.7864    0.6785   -1.1993 C   0  0  0  0  0  0  0  0  0  0  0  0
    1.1008    2.0081   -0.9088 O   0  0  0  0  0  0  0  0  0  0  0  0
   -0.7107   -1.2382   -0.2763 C   0  0  0  0  0  0  0  0  0  0  0  0
   -1.3591    0.0393   -0.0203 C   0  0  0  0  0  0  0  0  0  0  0  0
   -1.9507    0.4072    1.3194 C   0  0  0  0  0  0  0  0  0  0  0  0
   -2.0025    0.6680   -1.0955 O   0  0  0  0  0  0  0  0  0  0  0  0
    2.6523   -0.8059    1.8052 H   0  0  0  0  0  0  0  0  0  0  0  0
    2.7224   -0.1783    0.1622 H   0  0  0  0  0  0  0  0  0  0  0  0
    1.8768   -1.7247    0.3935 H   0  0  0  0  0  0  0  0  0  0  0  0
    0.0597    0.7356   -2.0442 H   0  0  0  0  0  0  0  0  0  0  0  0
    1.6503    0.0762   -1.5207 H   0  0  0  0  0  0  0  0  0  0  0  0
    2.0725    2.1584   -0.9366 H   0  0  0  0  0  0  0  0  0  0  0  0
   -0.6772   -1.5902   -1.3341 H   0  0  0  0  0  0  0  0  0  0  0  0
   -0.6693   -2.0725    0.4439 H   0  0  0  0  0  0  0  0  0  0  0  0
   -2.2907    1.4602    1.2628 H   0  0  0  0  0  0  0  0  0  0  0  0
   -1.1772    0.3784    2.1368 H   0  0  0  0  0  0  0  0  0  0  0  0
   -2.7987   -0.2168    1.6094 H   0  0  0  0  0  0  0  0  0  0  0  0
   -2.3219    0.0073   -1.7428 H   0  0  0  0  0  0  0  0  0  0  0  0
  1  2  1  0
  2  3  1  0
  3  4  1  0
  4  5  1  0
  3  6  1  0
  6  7  1  0
  7  8  1  0
  7  9  1  0
  7  3  1  0
  1 10  1  0
  1 11  1  0
  1 12  1  0
  4 13  1  0
  4 14  1  0
  5 15  1  0
  6 16  1  0
  6 17  1  0
  8 18  1  0
  8 19  1  0
  8 20  1  0
  9 21  1  0
M  END
