
     RDKit          3D

 21 21  0  0  0  0  0  0  0  0999 V2000
   -2.1972   -1.1106   -0.3027 C   0  0  0  0  0  0  0  0  0  0  0  0
   -1.1208   -0.5010   -0.8982 O   0  0  0  0  0  0  0  0  0  0  0  0
   -0.2991    0.1771   -0.0312 C   0  0  0  0  0  0  0  0  0  0  0  0
   -0.9964    1.2870    0.7194 C   0  0  0  0  0  0  0  0  0  0  0  0
    0.4177   -0.7659    0.9257 C   0  0  0  0  0  0  0  0  0  0  0  0
    1.5350   -0.0645    1.3947 O   0  0  0  0  0  0  0  0  0  0  0  0
    2.4976   -0.1543    0.3772 C   0  0  0  0  0  0  0  0  0  0  0  0
    1.9262    0.0073   -0.8822 O   0  0  0  0  0  0  0  0  0  0  0  0
    0.8001    0.8297   -0.8489 C   0  0  0  0  0  0  0  0  0  0  0  0
   -1.8742   -1.8672    0.4636 H   0  0  0  0  0  0  0  0  0  0  0  0
   -2.9163   -0.4124    0.1656 H   0  0  0  0  0  0  0  0  0  0  0  0
   -2.7539   -1.6682   -1.0789 H   0  0  0  0  0  0  0  0  0  0  0  0
   -0.1841    1.8589    1.2508 H   0  0  0  0  0  0  0  0  0  0  0  0
   -1.7610    0.9377    1.4123 H   0  0  0  0  0  0  0  0  0  0  0  0
   -1.3978    1.9865   -0.0354 H   0  0  0  0  0  0  0  0  0  0  0  0
    0.7650   -1.6233    0.2875 H   0  0  0  0  0  0  0  0  0  0  0  0
   -0.2130   -1.0843    1.7567 H   0  0  0  0  0  0  0  0  0  0  0  0
    3.2839    0.5784    0.5820 H   0  0  0  0  0  0  0  0  0  0  0  0
    2.8616   -1.2138    0.4124 H   0  0  0  0  0  0  0  0  0  0  0  0
    0.4968    1.0092   -1.8951 H   0  0  0  0  0  0  0  0  0  0  0  0
    1.1299    1.7936   -0.4138 H   0  0  0  0  0  0  0  0  0  0  0  0
  1  2  1  0
  2  3  1  0
  3  4  1  0
  3  5  1  0
  5  6  1  0
  6  7  1  0
  7  8  1  0
  8  9  1  0
  9  3  1  0
  1 10  1  0
  1 11  1  0
  1 12  1  0
  4 13  1  0
  4 14  1  0
  4 15  1  0
  5 16  1  0
  5 17  1  0
  7 18  1  0
  7 19  1  0
  9 20  1  0
  9 21  1  0
M  END
