
     RDKit          3D

 18 19  0  0  0  0  0  0  0  0999 V2000
    2.1428   -0.2679    0.0179 C   0  0  0  0  0  0  0  0  0  0  0  0
    1.4256    0.5992   -0.8257 O   0  0  0  0  0  0  0  0  0  0  0  0
    0.0710    0.4220   -0.6123 C   0  0  0  0  0  0  0  0  0  0  0  0
   -0.5694   -0.9115   -0.8415 C   0  0  0  0  0  0  0  0  0  0  0  0
   -1.1270   -1.2713    0.4732 C   0  0  0  0  0  0  0  0  0  0  0  0
   -1.0856   -0.2295    1.2624 C   0  0  0  0  0  0  0  0  0  0  0  0
   -0.5228    0.9807    0.6784 C   0  0  0  0  0  0  0  0  0  0  0  0
   -0.8771    1.5660   -0.6134 C   0  0  0  0  0  0  0  0  0  0  0  0
    3.2262   -0.1391   -0.1399 H   0  0  0  0  0  0  0  0  0  0  0  0
    1.9294    0.1000    1.0588 H   0  0  0  0  0  0  0  0  0  0  0  0
    1.8377   -1.3221   -0.1111 H   0  0  0  0  0  0  0  0  0  0  0  0
    0.1420   -1.6713   -1.2275 H   0  0  0  0  0  0  0  0  0  0  0  0
   -1.4120   -0.8048   -1.5947 H   0  0  0  0  0  0  0  0  0  0  0  0
   -1.5094   -2.2922    0.6984 H   0  0  0  0  0  0  0  0  0  0  0  0
   -1.4581   -0.2818    2.3021 H   0  0  0  0  0  0  0  0  0  0  0  0
    0.1367    1.5549    1.3534 H   0  0  0  0  0  0  0  0  0  0  0  0
   -0.4586    2.5526   -0.8429 H   0  0  0  0  0  0  0  0  0  0  0  0
   -1.8913    1.4160   -1.0357 H   0  0  0  0  0  0  0  0  0  0  0  0
  1  2  1  0
  2  3  1  0
  3  4  1  0
  4  5  1  0
  5  6  2  0
  6  7  1  0
  7  8  1  0
  7  3  1  0
  8  3  1  0
  1  9  1  0
  1 10  1  0
  1 11  1  0
  4 12  1  0
  4 13  1  0
  5 14  1  0
  6 15  1  0
  7 16  1  0
  8 17  1  0
  8 18  1  0
M  END
