
     RDKit          3D

 19 20  0  0  0  0  0  0  0  0999 V2000
    2.7364   -0.1418   -0.3111 C   0  0  0  0  0  0  0  0  0  0  0  0
    1.5439   -0.3903    0.3554 O   0  0  0  0  0  0  0  0  0  0  0  0
    0.4446    0.1345   -0.2914 C   0  0  0  0  0  0  0  0  0  0  0  0
   -0.6917   -0.8828   -0.2860 C   0  0  0  0  0  0  0  0  0  0  0  0
   -1.8958   -0.1308   -0.7971 C   0  0  0  0  0  0  0  0  0  0  0  0
   -1.6674    1.1534   -0.0287 C   0  0  0  0  0  0  0  0  0  0  0  0
   -2.3314    2.1632   -0.0449 O   0  0  0  0  0  0  0  0  0  0  0  0
   -0.4539    0.8505    0.7221 C   0  0  0  0  0  0  0  0  0  0  0  0
   -0.7433   -0.5749    1.2160 C   0  0  0  0  0  0  0  0  0  0  0  0
    2.7239   -0.5800   -1.3248 H   0  0  0  0  0  0  0  0  0  0  0  0
    3.5376   -0.6792    0.2524 H   0  0  0  0  0  0  0  0  0  0  0  0
    3.0043    0.9282   -0.2885 H   0  0  0  0  0  0  0  0  0  0  0  0
    0.6008    0.6705   -1.2209 H   0  0  0  0  0  0  0  0  0  0  0  0
   -0.5003   -1.8726   -0.5902 H   0  0  0  0  0  0  0  0  0  0  0  0
   -2.8509   -0.5257   -0.4376 H   0  0  0  0  0  0  0  0  0  0  0  0
   -1.8711    0.0470   -1.8854 H   0  0  0  0  0  0  0  0  0  0  0  0
   -0.0116    1.5282    1.3947 H   0  0  0  0  0  0  0  0  0  0  0  0
   -1.7159   -0.7127    1.6817 H   0  0  0  0  0  0  0  0  0  0  0  0
    0.1419   -0.9847    1.7287 H   0  0  0  0  0  0  0  0  0  0  0  0
  1  2  1  0
  2  3  1  0
  3  4  1  0
  4  5  1  0
  5  6  1  0
  6  7  2  0
  6  8  1  0
  8  9  1  0
  8  3  1  0
  9  4  1  0
  1 10  1  0
  1 11  1  0
  1 12  1  0
  3 13  1  0
  4 14  1  0
  5 15  1  0
  5 16  1  0
  8 17  1  0
  9 18  1  0
  9 19  1  0
M  END
