
     RDKit          3D

 19 19  0  0  0  0  0  0  0  0999 V2000
    2.6989    0.0122    0.1890 C   0  0  0  0  0  0  0  0  0  0  0  0
    1.4284   -0.1904    0.7325 O   0  0  0  0  0  0  0  0  0  0  0  0
    0.4193    0.2711   -0.0944 C   0  0  0  0  0  0  0  0  0  0  0  0
   -0.3966    1.3417    0.5023 C   0  0  0  0  0  0  0  0  0  0  0  0
    0.0285    2.3559    1.0057 O   0  0  0  0  0  0  0  0  0  0  0  0
   -1.8322    0.9988    0.3988 C   0  0  0  0  0  0  0  0  0  0  0  0
   -1.8951   -0.4500   -0.0007 C   0  0  0  0  0  0  0  0  0  0  0  0
   -0.5401   -0.8166   -0.5135 C   0  0  0  0  0  0  0  0  0  0  0  0
   -0.1668   -2.0598   -0.0132 O   0  0  0  0  0  0  0  0  0  0  0  0
    3.4474   -0.3697    0.8822 H   0  0  0  0  0  0  0  0  0  0  0  0
    2.9118    1.0842    0.0039 H   0  0  0  0  0  0  0  0  0  0  0  0
    2.7417   -0.5102   -0.7849 H   0  0  0  0  0  0  0  0  0  0  0  0
    0.9264    0.6968   -1.0084 H   0  0  0  0  0  0  0  0  0  0  0  0
   -2.3216    1.1854    1.3736 H   0  0  0  0  0  0  0  0  0  0  0  0
   -2.3392    1.6079   -0.3919 H   0  0  0  0  0  0  0  0  0  0  0  0
   -2.6540   -0.5875   -0.8051 H   0  0  0  0  0  0  0  0  0  0  0  0
   -2.2331   -1.1038    0.8384 H   0  0  0  0  0  0  0  0  0  0  0  0
   -0.5492   -0.8950   -1.6186 H   0  0  0  0  0  0  0  0  0  0  0  0
    0.3255   -2.5710   -0.6958 H   0  0  0  0  0  0  0  0  0  0  0  0
  1  2  1  0
  2  3  1  0
  3  4  1  0
  4  5  2  0
  4  6  1  0
  6  7  1  0
  7  8  1  0
  8  9  1  0
  8  3  1  0
  1 10  1  0
  1 11  1  0
  1 12  1  0
  3 13  1  0
  6 14  1  0
  6 15  1  0
  7 16  1  0
  7 17  1  0
  8 18  1  0
  9 19  1  0
M  END
