
     RDKit          3D

 21 21  0  0  0  0  0  0  0  0999 V2000
    3.0326   -0.5594   -0.0335 C   0  0  0  0  0  0  0  0  0  0  0  0
    1.7323   -0.6201    0.4560 O   0  0  0  0  0  0  0  0  0  0  0  0
    0.8264    0.0069   -0.3963 C   0  0  0  0  0  0  0  0  0  0  0  0
    0.2466    1.1800    0.3064 C   0  0  0  0  0  0  0  0  0  0  0  0
   -1.0396    1.6117   -0.2866 C   0  0  0  0  0  0  0  0  0  0  0  0
   -2.1015    0.8640   -0.5309 C   0  0  0  0  0  0  0  0  0  0  0  0
   -2.3371   -0.5723   -0.3030 C   0  0  0  0  0  0  0  0  0  0  0  0
   -1.0340   -1.3253   -0.0342 C   0  0  0  0  0  0  0  0  0  0  0  0
   -0.0773   -0.8883   -0.8991 O   0  0  0  0  0  0  0  0  0  0  0  0
    3.1385   -1.0471   -1.0189 H   0  0  0  0  0  0  0  0  0  0  0  0
    3.6656   -1.1292    0.6861 H   0  0  0  0  0  0  0  0  0  0  0  0
    3.3987    0.4884   -0.0772 H   0  0  0  0  0  0  0  0  0  0  0  0
    1.4221    0.3990   -1.2703 H   0  0  0  0  0  0  0  0  0  0  0  0
    0.9481    2.0558    0.1969 H   0  0  0  0  0  0  0  0  0  0  0  0
    0.1620    0.9553    1.3982 H   0  0  0  0  0  0  0  0  0  0  0  0
   -1.1766    2.6516   -0.5705 H   0  0  0  0  0  0  0  0  0  0  0  0
   -2.9454    1.3812   -0.9719 H   0  0  0  0  0  0  0  0  0  0  0  0
   -3.0246   -0.7328    0.5293 H   0  0  0  0  0  0  0  0  0  0  0  0
   -2.8070   -1.0134   -1.2193 H   0  0  0  0  0  0  0  0  0  0  0  0
   -1.2590   -2.3988   -0.2836 H   0  0  0  0  0  0  0  0  0  0  0  0
   -0.7706   -1.3073    1.0283 H   0  0  0  0  0  0  0  0  0  0  0  0
  1  2  1  0
  2  3  1  0
  3  4  1  0
  4  5  1  0
  5  6  2  0
  6  7  1  0
  7  8  1  0
  8  9  1  0
  9  3  1  0
  1 10  1  0
  1 11  1  0
  1 12  1  0
  3 13  1  0
  4 14  1  0
  4 15  1  0
  5 16  1  0
  6 17  1  0
  7 18  1  0
  7 19  1  0
  8 20  1  0
  8 21  1  0
M  END
