
     RDKit          3D

 23 23  0  0  0  0  0  0  0  0999 V2000
   -2.1681    1.6299    0.5727 C   0  0  0  0  0  0  0  0  0  0  0  0
   -0.9202    1.2789    0.1493 O   0  0  0  0  0  0  0  0  0  0  0  0
   -0.7524   -0.0199   -0.2220 C   0  0  0  0  0  0  0  0  0  0  0  0
    0.6630   -0.3547   -0.6861 C   0  0  0  0  0  0  0  0  0  0  0  0
    1.6785   -0.1010    0.3932 C   0  0  0  0  0  0  0  0  0  0  0  0
    3.0360   -0.4643   -0.1729 C   0  0  0  0  0  0  0  0  0  0  0  0
    1.7387    1.2320    0.7768 O   0  0  0  0  0  0  0  0  0  0  0  0
   -1.3971   -1.1353    0.5656 C   0  0  0  0  0  0  0  0  0  0  0  0
   -1.8151   -0.8192   -0.8504 C   0  0  0  0  0  0  0  0  0  0  0  0
   -2.9611    1.4835   -0.1728 H   0  0  0  0  0  0  0  0  0  0  0  0
   -2.1390    2.7271    0.8212 H   0  0  0  0  0  0  0  0  0  0  0  0
   -2.4743    1.1369    1.5265 H   0  0  0  0  0  0  0  0  0  0  0  0
    0.7454   -1.3952   -1.0119 H   0  0  0  0  0  0  0  0  0  0  0  0
    0.8503    0.2942   -1.5641 H   0  0  0  0  0  0  0  0  0  0  0  0
    1.4601   -0.7051    1.2936 H   0  0  0  0  0  0  0  0  0  0  0  0
    3.1272   -0.0037   -1.1659 H   0  0  0  0  0  0  0  0  0  0  0  0
    3.0504   -1.5733   -0.2669 H   0  0  0  0  0  0  0  0  0  0  0  0
    3.8590   -0.1079    0.4962 H   0  0  0  0  0  0  0  0  0  0  0  0
    1.7302    1.8323   -0.0255 H   0  0  0  0  0  0  0  0  0  0  0  0
   -0.8368   -2.0921    0.7141 H   0  0  0  0  0  0  0  0  0  0  0  0
   -2.0497   -0.8533    1.3876 H   0  0  0  0  0  0  0  0  0  0  0  0
   -1.5920   -1.5871   -1.6209 H   0  0  0  0  0  0  0  0  0  0  0  0
   -2.8330   -0.4026   -0.9375 H   0  0  0  0  0  0  0  0  0  0  0  0
  1  2  1  0
  2  3  1  0
  3  4  1  0
  4  5  1  0
  5  6  1  0
  5  7  1  0
  3  8  1  0
  8  9  1  0
  9  3  1  0
  1 10  1  0
  1 11  1  0
  1 12  1  0
  4 13  1  0
  4 14  1  0
  5 15  1  0
  6 16  1  0
  6 17  1  0
  6 18  1  0
  7 19  1  0
  8 20  1  0
  8 21  1  0
  9 22  1  0
  9 23  1  0
M  END
