
     RDKit          3D

 21 22  0  0  0  0  0  0  0  0999 V2000
    2.6537   -0.6282    0.0868 C   0  0  0  0  0  0  0  0  0  0  0  0
    1.4874   -0.2798    0.7666 O   0  0  0  0  0  0  0  0  0  0  0  0
    0.5661    0.1309   -0.1541 C   0  0  0  0  0  0  0  0  0  0  0  0
   -0.8225   -0.4030   -0.0191 C   0  0  0  0  0  0  0  0  0  0  0  0
   -1.2719   -1.6825   -0.1846 C   0  0  0  0  0  0  0  0  0  0  0  0
   -0.9500    0.4777    1.1920 C   0  0  0  0  0  0  0  0  0  0  0  0
   -0.2347    1.3531    0.1971 C   0  0  0  0  0  0  0  0  0  0  0  0
    0.1571    2.5294    0.3335 O   0  0  0  0  0  0  0  0  0  0  0  0
   -1.2379    0.8204   -0.8088 C   0  0  0  0  0  0  0  0  0  0  0  0
    3.4488   -0.9723    0.7692 H   0  0  0  0  0  0  0  0  0  0  0  0
    2.4167   -1.5087   -0.5757 H   0  0  0  0  0  0  0  0  0  0  0  0
    2.9584    0.1887   -0.5764 H   0  0  0  0  0  0  0  0  0  0  0  0
    0.9061    0.1079   -1.1967 H   0  0  0  0  0  0  0  0  0  0  0  0
   -1.7257   -1.9095   -1.1755 H   0  0  0  0  0  0  0  0  0  0  0  0
   -0.4908   -2.4764   -0.0467 H   0  0  0  0  0  0  0  0  0  0  0  0
   -2.0754   -1.9774    0.5550 H   0  0  0  0  0  0  0  0  0  0  0  0
   -1.9793    0.8112    1.3340 H   0  0  0  0  0  0  0  0  0  0  0  0
   -0.3699    0.1949    2.0758 H   0  0  0  0  0  0  0  0  0  0  0  0
   -0.3112    3.2345   -0.1328 H   0  0  0  0  0  0  0  0  0  0  0  0
   -2.2800    1.0835   -0.6205 H   0  0  0  0  0  0  0  0  0  0  0  0
   -0.8447    0.9055   -1.8190 H   0  0  0  0  0  0  0  0  0  0  0  0
  1  2  1  0
  2  3  1  0
  3  4  1  0
  4  5  1  0
  4  6  1  0
  6  7  1  0
  7  8  1  0
  7  9  1  0
  7  3  1  0
  9  4  1  0
  1 10  1  0
  1 11  1  0
  1 12  1  0
  3 13  1  0
  5 14  1  0
  5 15  1  0
  5 16  1  0
  6 17  1  0
  6 18  1  0
  8 19  1  0
  9 20  1  0
  9 21  1  0
M  END
