
     RDKit          3D

 23 23  0  0  0  0  0  0  0  0999 V2000
    2.6659    0.6204   -0.0218 C   0  0  0  0  0  0  0  0  0  0  0  0
    1.4733    0.4629   -0.7647 O   0  0  0  0  0  0  0  0  0  0  0  0
    0.6189   -0.3805   -0.1017 C   0  0  0  0  0  0  0  0  0  0  0  0
    0.2965   -1.6320   -0.9240 C   0  0  0  0  0  0  0  0  0  0  0  0
   -0.7080   -1.2222   -1.7616 O   0  0  0  0  0  0  0  0  0  0  0  0
   -1.5030   -0.3292   -1.1009 C   0  0  0  0  0  0  0  0  0  0  0  0
   -0.7632    0.1953    0.0908 C   0  0  0  0  0  0  0  0  0  0  0  0
   -0.7856    1.6837    0.1664 C   0  0  0  0  0  0  0  0  0  0  0  0
   -1.3146   -0.4224    1.3770 C   0  0  0  0  0  0  0  0  0  0  0  0
    3.1625   -0.3682    0.1130 H   0  0  0  0  0  0  0  0  0  0  0  0
    3.3851    1.2570   -0.5577 H   0  0  0  0  0  0  0  0  0  0  0  0
    2.4550    1.0014    1.0014 H   0  0  0  0  0  0  0  0  0  0  0  0
    1.0741   -0.7272    0.8475 H   0  0  0  0  0  0  0  0  0  0  0  0
   -0.1248   -2.3686   -0.2135 H   0  0  0  0  0  0  0  0  0  0  0  0
    1.1786   -2.0226   -1.4285 H   0  0  0  0  0  0  0  0  0  0  0  0
   -2.4828   -0.7425   -0.7690 H   0  0  0  0  0  0  0  0  0  0  0  0
   -1.7383    0.5275   -1.7998 H   0  0  0  0  0  0  0  0  0  0  0  0
   -1.5378    1.9677    0.9587 H   0  0  0  0  0  0  0  0  0  0  0  0
    0.1730    2.1214    0.5217 H   0  0  0  0  0  0  0  0  0  0  0  0
   -1.1506    2.1669   -0.7626 H   0  0  0  0  0  0  0  0  0  0  0  0
   -1.8523    0.3147    1.9914 H   0  0  0  0  0  0  0  0  0  0  0  0
   -2.0228   -1.2482    1.1389 H   0  0  0  0  0  0  0  0  0  0  0  0
   -0.4991   -0.8552    1.9990 H   0  0  0  0  0  0  0  0  0  0  0  0
  1  2  1  0
  2  3  1  0
  3  4  1  0
  4  5  1  0
  5  6  1  0
  6  7  1  0
  7  8  1  0
  7  9  1  0
  7  3  1  0
  1 10  1  0
  1 11  1  0
  1 12  1  0
  3 13  1  0
  4 14  1  0
  4 15  1  0
  6 16  1  0
  6 17  1  0
  8 18  1  0
  8 19  1  0
  8 20  1  0
  9 21  1  0
  9 22  1  0
  9 23  1  0
M  END
