
     RDKit          3D

 19 19  0  0  0  0  0  0  0  0999 V2000
    3.3753    0.4009    0.0166 C   0  0  0  0  0  0  0  0  0  0  0  0
    2.3930   -0.5468   -0.1808 O   0  0  0  0  0  0  0  0  0  0  0  0
    1.2078   -0.0113   -0.6675 C   0  0  0  0  0  0  0  0  0  0  0  0
    0.3602   -0.7631   -1.5926 C   0  0  0  0  0  0  0  0  0  0  0  0
   -0.0458   -0.5815   -0.1241 C   0  0  0  0  0  0  0  0  0  0  0  0
   -1.2073    0.1711    0.0347 O   0  0  0  0  0  0  0  0  0  0  0  0
   -2.1646   -0.1750    0.9772 C   0  0  0  0  0  0  0  0  0  0  0  0
   -3.4131    0.6517    1.1329 C   0  0  0  0  0  0  0  0  0  0  0  0
   -1.9563   -1.1915    1.6891 O   0  0  0  0  0  0  0  0  0  0  0  0
    3.6720    0.9528   -0.8776 H   0  0  0  0  0  0  0  0  0  0  0  0
    4.2786   -0.1361    0.3812 H   0  0  0  0  0  0  0  0  0  0  0  0
    2.9890    1.1077    0.8061 H   0  0  0  0  0  0  0  0  0  0  0  0
    1.2726    1.1042   -0.8102 H   0  0  0  0  0  0  0  0  0  0  0  0
    0.5192   -1.8089   -1.8657 H   0  0  0  0  0  0  0  0  0  0  0  0
   -0.1807   -0.1820   -2.3635 H   0  0  0  0  0  0  0  0  0  0  0  0
    0.0464   -1.4541    0.5460 H   0  0  0  0  0  0  0  0  0  0  0  0
   -4.0520    0.4365    0.2694 H   0  0  0  0  0  0  0  0  0  0  0  0
   -3.1432    1.7200    1.2139 H   0  0  0  0  0  0  0  0  0  0  0  0
   -3.9509    0.3055    2.0381 H   0  0  0  0  0  0  0  0  0  0  0  0
  1  2  1  0
  2  3  1  0
  3  4  1  0
  4  5  1  0
  5  6  1  0
  6  7  1  0
  7  8  1  0
  7  9  2  0
  5  3  1  0
  1 10  1  0
  1 11  1  0
  1 12  1  0
  3 13  1  0
  4 14  1  0
  4 15  1  0
  5 16  1  0
  8 17  1  0
  8 18  1  0
  8 19  1  0
M  END
