
     RDKit          3D

 21 22  0  0  0  0  0  0  0  0999 V2000
    3.2801   -0.5730   -0.8025 C   0  0  0  0  0  0  0  0  0  0  0  0
    1.9800   -0.3360   -1.2223 O   0  0  0  0  0  0  0  0  0  0  0  0
    1.1240    0.0212   -0.2151 C   0  0  0  0  0  0  0  0  0  0  0  0
    0.2205    1.2270   -0.5692 C   0  0  0  0  0  0  0  0  0  0  0  0
   -0.5645    0.6074    0.5937 C   0  0  0  0  0  0  0  0  0  0  0  0
   -1.3362   -0.5797    0.5870 C   0  0  0  0  0  0  0  0  0  0  0  0
   -2.7855   -0.4555    0.0845 C   0  0  0  0  0  0  0  0  0  0  0  0
   -3.4743    0.4612    0.9122 O   0  0  0  0  0  0  0  0  0  0  0  0
   -0.2505   -0.6542   -0.3213 C   0  0  0  0  0  0  0  0  0  0  0  0
    3.3484   -1.3797   -0.0689 H   0  0  0  0  0  0  0  0  0  0  0  0
    3.8764   -0.8030   -1.7217 H   0  0  0  0  0  0  0  0  0  0  0  0
    3.7105    0.3917   -0.4063 H   0  0  0  0  0  0  0  0  0  0  0  0
    1.5146    0.0885    0.7958 H   0  0  0  0  0  0  0  0  0  0  0  0
   -0.2598    1.1353   -1.5483 H   0  0  0  0  0  0  0  0  0  0  0  0
    0.6495    2.1947   -0.3151 H   0  0  0  0  0  0  0  0  0  0  0  0
    0.1198    0.6925    1.4983 H   0  0  0  0  0  0  0  0  0  0  0  0
   -1.3151   -1.3120    1.4501 H   0  0  0  0  0  0  0  0  0  0  0  0
   -2.8268   -0.1708   -0.9656 H   0  0  0  0  0  0  0  0  0  0  0  0
   -3.3275   -1.4165    0.2004 H   0  0  0  0  0  0  0  0  0  0  0  0
   -3.1203    1.3702    0.6653 H   0  0  0  0  0  0  0  0  0  0  0  0
   -0.5634   -0.5092   -1.4062 H   0  0  0  0  0  0  0  0  0  0  0  0
  1  2  1  0
  2  3  1  0
  3  4  1  0
  4  5  1  0
  5  6  1  0
  6  7  1  0
  7  8  1  0
  6  9  1  0
  9  3  1  0
  9  5  1  0
  1 10  1  0
  1 11  1  0
  1 12  1  0
  3 13  1  0
  4 14  1  0
  4 15  1  0
  5 16  1  0
  6 17  1  0
  7 18  1  0
  7 19  1  0
  8 20  1  0
  9 21  1  0
M  END
