
     RDKit          3D

 21 21  0  0  0  0  0  0  0  0999 V2000
   -3.3493   -0.0764    0.0560 C   0  0  0  0  0  0  0  0  0  0  0  0
   -2.2535   -0.1664   -0.7832 O   0  0  0  0  0  0  0  0  0  0  0  0
   -1.0997   -0.4732   -0.1038 C   0  0  0  0  0  0  0  0  0  0  0  0
   -0.0829   -1.4012   -0.7000 C   0  0  0  0  0  0  0  0  0  0  0  0
    0.2215    0.0590   -0.5042 C   0  0  0  0  0  0  0  0  0  0  0  0
    1.2025    0.4297    0.5770 C   0  0  0  0  0  0  0  0  0  0  0  0
    1.5319   -0.6497    1.3848 O   0  0  0  0  0  0  0  0  0  0  0  0
    2.4079    1.1482    0.0355 C   0  0  0  0  0  0  0  0  0  0  0  0
    3.2239    0.3606   -0.7315 O   0  0  0  0  0  0  0  0  0  0  0  0
   -4.2506    0.1719   -0.5387 H   0  0  0  0  0  0  0  0  0  0  0  0
   -3.4911   -0.9812    0.6769 H   0  0  0  0  0  0  0  0  0  0  0  0
   -3.1766    0.8157    0.7262 H   0  0  0  0  0  0  0  0  0  0  0  0
   -1.2449   -0.5969    1.0077 H   0  0  0  0  0  0  0  0  0  0  0  0
   -0.3204   -1.7832   -1.7241 H   0  0  0  0  0  0  0  0  0  0  0  0
    0.4602   -2.1217   -0.0610 H   0  0  0  0  0  0  0  0  0  0  0  0
    0.3523    0.5981   -1.4788 H   0  0  0  0  0  0  0  0  0  0  0  0
    0.6928    1.1756    1.2569 H   0  0  0  0  0  0  0  0  0  0  0  0
    0.8916   -0.7342    2.1592 H   0  0  0  0  0  0  0  0  0  0  0  0
    2.0483    2.0351   -0.5149 H   0  0  0  0  0  0  0  0  0  0  0  0
    2.9650    1.5411    0.9270 H   0  0  0  0  0  0  0  0  0  0  0  0
    3.2710    0.6490   -1.6672 H   0  0  0  0  0  0  0  0  0  0  0  0
  1  2  1  0
  2  3  1  0
  3  4  1  0
  4  5  1  0
  5  6  1  0
  6  7  1  0
  6  8  1  0
  8  9  1  0
  5  3  1  0
  1 10  1  0
  1 11  1  0
  1 12  1  0
  3 13  1  0
  4 14  1  0
  4 15  1  0
  5 16  1  0
  6 17  1  0
  7 18  1  0
  8 19  1  0
  8 20  1  0
  9 21  1  0
M  END
