
     RDKit          3D

 25 25  0  0  0  0  0  0  0  0999 V2000
    3.2224    1.2671   -0.5432 C   0  0  0  0  0  0  0  0  0  0  0  0
    2.3358    0.9360    0.4921 O   0  0  0  0  0  0  0  0  0  0  0  0
    1.2051    0.2853    0.0021 C   0  0  0  0  0  0  0  0  0  0  0  0
    0.6510   -0.8982    0.7767 C   0  0  0  0  0  0  0  0  0  0  0  0
    0.3212   -2.1232   -0.0024 C   0  0  0  0  0  0  0  0  0  0  0  0
   -0.0780    0.3554    0.7512 C   0  0  0  0  0  0  0  0  0  0  0  0
   -1.3723    0.6454    0.0858 C   0  0  0  0  0  0  0  0  0  0  0  0
   -2.5442    0.6648    1.0441 C   0  0  0  0  0  0  0  0  0  0  0  0
   -1.7231   -0.1733   -1.0972 C   0  0  0  0  0  0  0  0  0  0  0  0
    2.6741    1.9375   -1.2382 H   0  0  0  0  0  0  0  0  0  0  0  0
    4.1599    1.6754   -0.1809 H   0  0  0  0  0  0  0  0  0  0  0  0
    3.3564    0.3075   -1.1213 H   0  0  0  0  0  0  0  0  0  0  0  0
    1.2212    0.1548   -1.0962 H   0  0  0  0  0  0  0  0  0  0  0  0
    1.2666   -1.1295    1.7010 H   0  0  0  0  0  0  0  0  0  0  0  0
    0.2585   -1.9717   -1.1032 H   0  0  0  0  0  0  0  0  0  0  0  0
    1.1961   -2.8344    0.0998 H   0  0  0  0  0  0  0  0  0  0  0  0
   -0.5342   -2.6736    0.4198 H   0  0  0  0  0  0  0  0  0  0  0  0
    0.0137    0.9865    1.6948 H   0  0  0  0  0  0  0  0  0  0  0  0
   -1.2997    1.7158   -0.2834 H   0  0  0  0  0  0  0  0  0  0  0  0
   -2.7991    1.6722    1.4003 H   0  0  0  0  0  0  0  0  0  0  0  0
   -3.4759    0.2716    0.5467 H   0  0  0  0  0  0  0  0  0  0  0  0
   -2.3866    0.0233    1.9238 H   0  0  0  0  0  0  0  0  0  0  0  0
   -0.9988   -0.1160   -1.9308 H   0  0  0  0  0  0  0  0  0  0  0  0
   -1.9887   -1.2064   -0.7930 H   0  0  0  0  0  0  0  0  0  0  0  0
   -2.6817    0.2276   -1.5483 H   0  0  0  0  0  0  0  0  0  0  0  0
  1  2  1  0
  2  3  1  0
  3  4  1  0
  4  5  1  0
  4  6  1  0
  6  7  1  0
  7  8  1  0
  7  9  1  0
  6  3  1  0
  1 10  1  0
  1 11  1  0
  1 12  1  0
  3 13  1  0
  4 14  1  0
  5 15  1  0
  5 16  1  0
  5 17  1  0
  6 18  1  0
  7 19  1  0
  8 20  1  0
  8 21  1  0
  8 22  1  0
  9 23  1  0
  9 24  1  0
  9 25  1  0
M  END
