
     RDKit          3D

 21 21  0  0  0  0  0  0  0  0999 V2000
   -2.4093   -0.7495    0.0023 C   0  0  0  0  0  0  0  0  0  0  0  0
   -1.2904   -0.7160   -0.7815 O   0  0  0  0  0  0  0  0  0  0  0  0
   -0.1710   -0.2305   -0.1307 C   0  0  0  0  0  0  0  0  0  0  0  0
   -0.2487    1.1627    0.3978 C   0  0  0  0  0  0  0  0  0  0  0  0
   -0.5088    2.1537   -0.6894 C   0  0  0  0  0  0  0  0  0  0  0  0
    0.4172    2.5031   -1.4360 O   0  0  0  0  0  0  0  0  0  0  0  0
    0.4203   -1.2121    0.8599 C   0  0  0  0  0  0  0  0  0  0  0  0
    1.1150   -0.8879   -0.4413 C   0  0  0  0  0  0  0  0  0  0  0  0
    2.4266   -0.1863   -0.2963 C   0  0  0  0  0  0  0  0  0  0  0  0
   -3.2709   -1.1671   -0.5908 H   0  0  0  0  0  0  0  0  0  0  0  0
   -2.3321   -1.3665    0.9058 H   0  0  0  0  0  0  0  0  0  0  0  0
   -2.6511    0.2881    0.3401 H   0  0  0  0  0  0  0  0  0  0  0  0
   -1.0786    1.2333    1.1213 H   0  0  0  0  0  0  0  0  0  0  0  0
    0.6717    1.4653    0.9523 H   0  0  0  0  0  0  0  0  0  0  0  0
   -1.4890    2.5875   -0.8567 H   0  0  0  0  0  0  0  0  0  0  0  0
    0.8460   -0.8420    1.8129 H   0  0  0  0  0  0  0  0  0  0  0  0
    0.0361   -2.2344    0.9189 H   0  0  0  0  0  0  0  0  0  0  0  0
    1.1141   -1.6620   -1.2507 H   0  0  0  0  0  0  0  0  0  0  0  0
    3.2028   -0.9818   -0.1592 H   0  0  0  0  0  0  0  0  0  0  0  0
    2.4619    0.5056    0.5643 H   0  0  0  0  0  0  0  0  0  0  0  0
    2.7383    0.3367   -1.2430 H   0  0  0  0  0  0  0  0  0  0  0  0
  1  2  1  0
  2  3  1  0
  3  4  1  0
  4  5  1  0
  5  6  2  0
  3  7  1  0
  7  8  1  0
  8  9  1  0
  8  3  1  0
  1 10  1  0
  1 11  1  0
  1 12  1  0
  4 13  1  0
  4 14  1  0
  5 15  1  0
  7 16  1  0
  7 17  1  0
  8 18  1  0
  9 19  1  0
  9 20  1  0
  9 21  1  0
M  END
