
     RDKit          3D

 19 19  0  0  0  0  0  0  0  0999 V2000
    2.3184   -1.3247    0.6662 C   0  0  0  0  0  0  0  0  0  0  0  0
    1.0285   -0.8843    0.9242 O   0  0  0  0  0  0  0  0  0  0  0  0
    0.6043    0.0325   -0.0208 C   0  0  0  0  0  0  0  0  0  0  0  0
   -0.3619    1.1022    0.3123 C   0  0  0  0  0  0  0  0  0  0  0  0
   -0.3054    2.3425   -0.5084 C   0  0  0  0  0  0  0  0  0  0  0  0
   -0.6033    3.4326   -0.0610 O   0  0  0  0  0  0  0  0  0  0  0  0
   -0.8459   -0.1017   -0.4034 C   0  0  0  0  0  0  0  0  0  0  0  0
   -1.7466   -1.0111    0.3972 C   0  0  0  0  0  0  0  0  0  0  0  0
   -1.0790   -0.1061   -1.7637 O   0  0  0  0  0  0  0  0  0  0  0  0
    2.5991   -2.0579    1.4603 H   0  0  0  0  0  0  0  0  0  0  0  0
    3.0280   -0.4734    0.6143 H   0  0  0  0  0  0  0  0  0  0  0  0
    2.4025   -1.8365   -0.3320 H   0  0  0  0  0  0  0  0  0  0  0  0
    1.3506    0.2558   -0.8080 H   0  0  0  0  0  0  0  0  0  0  0  0
   -0.6965    1.2745    1.3493 H   0  0  0  0  0  0  0  0  0  0  0  0
    0.0089    2.3309   -1.5588 H   0  0  0  0  0  0  0  0  0  0  0  0
   -1.9057   -0.6228    1.4352 H   0  0  0  0  0  0  0  0  0  0  0  0
   -1.3903   -2.0420    0.4485 H   0  0  0  0  0  0  0  0  0  0  0  0
   -2.7574   -0.9514   -0.0854 H   0  0  0  0  0  0  0  0  0  0  0  0
   -1.6482    0.6410   -2.0660 H   0  0  0  0  0  0  0  0  0  0  0  0
  1  2  1  0
  2  3  1  0
  3  4  1  0
  4  5  1  0
  5  6  2  0
  4  7  1  0
  7  8  1  0
  7  9  1  0
  7  3  1  0
  1 10  1  0
  1 11  1  0
  1 12  1  0
  3 13  1  0
  4 14  1  0
  5 15  1  0
  8 16  1  0
  8 17  1  0
  8 18  1  0
  9 19  1  0
M  END
