
     RDKit          3D

 23 24  0  0  0  0  0  0  0  0999 V2000
    2.3147   -1.6477   -0.2730 C   0  0  0  0  0  0  0  0  0  0  0  0
    1.1177   -1.0938   -0.6697 O   0  0  0  0  0  0  0  0  0  0  0  0
    0.6278   -0.1524    0.2149 C   0  0  0  0  0  0  0  0  0  0  0  0
   -0.7510   -0.6270    0.6371 C   0  0  0  0  0  0  0  0  0  0  0  0
   -1.3617   -1.3531   -0.5398 C   0  0  0  0  0  0  0  0  0  0  0  0
   -1.5295    0.6421    0.8415 C   0  0  0  0  0  0  0  0  0  0  0  0
   -0.9724    1.5994   -0.1664 C   0  0  0  0  0  0  0  0  0  0  0  0
    0.1858    2.4137    0.2788 C   0  0  0  0  0  0  0  0  0  0  0  0
    0.4407    1.1730   -0.4656 C   0  0  0  0  0  0  0  0  0  0  0  0
    3.1211   -0.8906   -0.1631 H   0  0  0  0  0  0  0  0  0  0  0  0
    2.6053   -2.3878   -1.0641 H   0  0  0  0  0  0  0  0  0  0  0  0
    2.1346   -2.2072    0.6717 H   0  0  0  0  0  0  0  0  0  0  0  0
    1.2977   -0.0108    1.0989 H   0  0  0  0  0  0  0  0  0  0  0  0
   -0.7059   -1.2558    1.5451 H   0  0  0  0  0  0  0  0  0  0  0  0
   -0.7637   -1.2725   -1.4517 H   0  0  0  0  0  0  0  0  0  0  0  0
   -1.3969   -2.4378   -0.2460 H   0  0  0  0  0  0  0  0  0  0  0  0
   -2.3787   -0.9692   -0.7709 H   0  0  0  0  0  0  0  0  0  0  0  0
   -2.6217    0.5010    0.7344 H   0  0  0  0  0  0  0  0  0  0  0  0
   -1.3014    0.9929    1.8823 H   0  0  0  0  0  0  0  0  0  0  0  0
   -1.5563    1.8563   -1.0735 H   0  0  0  0  0  0  0  0  0  0  0  0
    0.3217    2.5239    1.3609 H   0  0  0  0  0  0  0  0  0  0  0  0
    0.3415    3.3584   -0.2827 H   0  0  0  0  0  0  0  0  0  0  0  0
    0.8308    1.2448   -1.5065 H   0  0  0  0  0  0  0  0  0  0  0  0
  1  2  1  0
  2  3  1  0
  3  4  1  0
  4  5  1  0
  4  6  1  0
  6  7  1  0
  7  8  1  0
  8  9  1  0
  9  3  1  0
  9  7  1  0
  1 10  1  0
  1 11  1  0
  1 12  1  0
  3 13  1  0
  4 14  1  0
  5 15  1  0
  5 16  1  0
  5 17  1  0
  6 18  1  0
  6 19  1  0
  7 20  1  0
  8 21  1  0
  8 22  1  0
  9 23  1  0
M  END
