
     RDKit          3D

 21 22  0  0  0  0  0  0  0  0999 V2000
    2.4597    1.3699    0.2780 C   0  0  0  0  0  0  0  0  0  0  0  0
    1.3351    0.8042    0.8581 O   0  0  0  0  0  0  0  0  0  0  0  0
    0.6882   -0.0447   -0.0284 C   0  0  0  0  0  0  0  0  0  0  0  0
    0.2180   -1.3115    0.5919 C   0  0  0  0  0  0  0  0  0  0  0  0
   -0.3548   -2.3173   -0.3847 C   0  0  0  0  0  0  0  0  0  0  0  0
   -1.4815   -1.3400   -0.6309 C   0  0  0  0  0  0  0  0  0  0  0  0
   -0.7320   -0.2938    0.1690 C   0  0  0  0  0  0  0  0  0  0  0  0
   -1.4956    0.5074    0.9772 O   0  0  0  0  0  0  0  0  0  0  0  0
   -1.4965    1.7906    0.4511 C   0  0  0  0  0  0  0  0  0  0  0  0
    2.1055    1.9431   -0.6138 H   0  0  0  0  0  0  0  0  0  0  0  0
    3.1333    0.5740   -0.1313 H   0  0  0  0  0  0  0  0  0  0  0  0
    2.9714    2.0124    1.0107 H   0  0  0  0  0  0  0  0  0  0  0  0
    1.1899   -0.1075   -1.0217 H   0  0  0  0  0  0  0  0  0  0  0  0
    0.3980   -1.5748    1.6286 H   0  0  0  0  0  0  0  0  0  0  0  0
   -0.6291   -3.2827    0.0446 H   0  0  0  0  0  0  0  0  0  0  0  0
    0.3194   -2.3492   -1.2817 H   0  0  0  0  0  0  0  0  0  0  0  0
   -1.6865   -1.0914   -1.6765 H   0  0  0  0  0  0  0  0  0  0  0  0
   -2.4213   -1.6043   -0.1040 H   0  0  0  0  0  0  0  0  0  0  0  0
   -2.0985    2.4998    1.0550 H   0  0  0  0  0  0  0  0  0  0  0  0
   -0.4509    2.1217    0.3418 H   0  0  0  0  0  0  0  0  0  0  0  0
   -1.9718    1.6939   -0.5695 H   0  0  0  0  0  0  0  0  0  0  0  0
  1  2  1  0
  2  3  1  0
  3  4  1  0
  4  5  1  0
  5  6  1  0
  6  7  1  0
  7  8  1  0
  8  9  1  0
  7  3  1  0
  7  4  1  0
  1 10  1  0
  1 11  1  0
  1 12  1  0
  3 13  1  0
  4 14  1  0
  5 15  1  0
  5 16  1  0
  6 17  1  0
  6 18  1  0
  9 19  1  0
  9 20  1  0
  9 21  1  0
M  END
