
     RDKit          3D

 23 24  0  0  0  0  0  0  0  0999 V2000
    2.9145   -0.9286   -0.5777 C   0  0  0  0  0  0  0  0  0  0  0  0
    2.0802   -0.1696    0.2393 O   0  0  0  0  0  0  0  0  0  0  0  0
    1.0289    0.2940   -0.5049 C   0  0  0  0  0  0  0  0  0  0  0  0
    0.8330    1.8104   -0.3297 C   0  0  0  0  0  0  0  0  0  0  0  0
   -0.6002    1.5803    0.1027 C   0  0  0  0  0  0  0  0  0  0  0  0
   -0.3428    0.1196    0.0419 C   0  0  0  0  0  0  0  0  0  0  0  0
   -0.7568   -0.8583    1.0107 C   0  0  0  0  0  0  0  0  0  0  0  0
   -1.3009   -0.8755   -0.4203 C   0  0  0  0  0  0  0  0  0  0  0  0
   -2.7610   -0.5040   -0.5530 C   0  0  0  0  0  0  0  0  0  0  0  0
    2.3539   -1.7977   -1.0066 H   0  0  0  0  0  0  0  0  0  0  0  0
    3.7686   -1.3688   -0.0233 H   0  0  0  0  0  0  0  0  0  0  0  0
    3.2818   -0.3453   -1.4579 H   0  0  0  0  0  0  0  0  0  0  0  0
    1.0727   -0.0246   -1.5510 H   0  0  0  0  0  0  0  0  0  0  0  0
    1.4880    2.2453    0.4606 H   0  0  0  0  0  0  0  0  0  0  0  0
    0.9734    2.2979   -1.3008 H   0  0  0  0  0  0  0  0  0  0  0  0
   -1.2780    1.8917   -0.7289 H   0  0  0  0  0  0  0  0  0  0  0  0
   -0.8703    1.9996    1.0918 H   0  0  0  0  0  0  0  0  0  0  0  0
   -1.4723   -0.6366    1.8293 H   0  0  0  0  0  0  0  0  0  0  0  0
   -0.0597   -1.7039    1.2510 H   0  0  0  0  0  0  0  0  0  0  0  0
   -0.9780   -1.6670   -1.0975 H   0  0  0  0  0  0  0  0  0  0  0  0
   -3.0134   -0.4293   -1.6360 H   0  0  0  0  0  0  0  0  0  0  0  0
   -3.3620   -1.3483   -0.1572 H   0  0  0  0  0  0  0  0  0  0  0  0
   -2.9997    0.4186    0.0010 H   0  0  0  0  0  0  0  0  0  0  0  0
  1  2  1  0
  2  3  1  0
  3  4  1  0
  4  5  1  0
  5  6  1  0
  6  7  1  0
  7  8  1  0
  8  9  1  0
  6  3  1  0
  8  6  1  0
  1 10  1  0
  1 11  1  0
  1 12  1  0
  3 13  1  0
  4 14  1  0
  4 15  1  0
  5 16  1  0
  5 17  1  0
  7 18  1  0
  7 19  1  0
  8 20  1  0
  9 21  1  0
  9 22  1  0
  9 23  1  0
M  END
