
     RDKit          3D

 21 21  0  0  0  0  0  0  0  0999 V2000
    2.1155    1.0534    0.2295 C   0  0  0  0  0  0  0  0  0  0  0  0
    1.5153   -0.0792    0.7308 O   0  0  0  0  0  0  0  0  0  0  0  0
    0.3428   -0.4221    0.1125 C   0  0  0  0  0  0  0  0  0  0  0  0
    0.4423   -0.7071   -1.3648 C   0  0  0  0  0  0  0  0  0  0  0  0
   -0.2518   -1.6572    0.8071 C   0  0  0  0  0  0  0  0  0  0  0  0
   -1.5956   -1.0656    0.4915 C   0  0  0  0  0  0  0  0  0  0  0  0
   -2.6954   -1.5121    0.2856 O   0  0  0  0  0  0  0  0  0  0  0  0
   -0.9058    0.2688    0.5612 C   0  0  0  0  0  0  0  0  0  0  0  0
   -1.4732    1.3011   -0.3714 C   0  0  0  0  0  0  0  0  0  0  0  0
    2.3785    0.9707   -0.8511 H   0  0  0  0  0  0  0  0  0  0  0  0
    3.0831    1.1858    0.7870 H   0  0  0  0  0  0  0  0  0  0  0  0
    1.4721    1.9427    0.3378 H   0  0  0  0  0  0  0  0  0  0  0  0
   -0.1255   -1.6143   -1.6665 H   0  0  0  0  0  0  0  0  0  0  0  0
    0.0971    0.1334   -1.9808 H   0  0  0  0  0  0  0  0  0  0  0  0
    1.5240   -0.9487   -1.5759 H   0  0  0  0  0  0  0  0  0  0  0  0
   -0.0975   -1.6299    1.9093 H   0  0  0  0  0  0  0  0  0  0  0  0
   -0.0238   -2.6007    0.3101 H   0  0  0  0  0  0  0  0  0  0  0  0
   -0.8482    0.6342    1.5830 H   0  0  0  0  0  0  0  0  0  0  0  0
   -2.4530    1.6253    0.0724 H   0  0  0  0  0  0  0  0  0  0  0  0
   -0.8209    2.1875   -0.3265 H   0  0  0  0  0  0  0  0  0  0  0  0
   -1.6800    0.9337   -1.3782 H   0  0  0  0  0  0  0  0  0  0  0  0
  1  2  1  0
  2  3  1  0
  3  4  1  0
  3  5  1  0
  5  6  1  0
  6  7  2  0
  6  8  1  0
  8  9  1  0
  8  3  1  0
  1 10  1  0
  1 11  1  0
  1 12  1  0
  4 13  1  0
  4 14  1  0
  4 15  1  0
  5 16  1  0
  5 17  1  0
  8 18  1  0
  9 19  1  0
  9 20  1  0
  9 21  1  0
M  END
