
     RDKit          3D

 23 24  0  0  0  0  0  0  0  0999 V2000
   -3.0362    0.9033   -0.0316 C   0  0  0  0  0  0  0  0  0  0  0  0
   -2.0455    0.1757   -0.6346 O   0  0  0  0  0  0  0  0  0  0  0  0
   -0.9777   -0.1285    0.1768 C   0  0  0  0  0  0  0  0  0  0  0  0
   -0.6973   -1.6029    0.2705 C   0  0  0  0  0  0  0  0  0  0  0  0
    0.6088   -1.8723   -0.3937 C   0  0  0  0  0  0  0  0  0  0  0  0
    1.1960   -0.5552   -0.7998 C   0  0  0  0  0  0  0  0  0  0  0  0
    1.5728    0.4044    0.2827 C   0  0  0  0  0  0  0  0  0  0  0  0
    2.6084    1.4646   -0.0279 C   0  0  0  0  0  0  0  0  0  0  0  0
    0.2552    0.5189   -0.4187 C   0  0  0  0  0  0  0  0  0  0  0  0
   -3.5016    0.4117    0.8420 H   0  0  0  0  0  0  0  0  0  0  0  0
   -3.8443    1.0618   -0.7762 H   0  0  0  0  0  0  0  0  0  0  0  0
   -2.7197    1.9113    0.3069 H   0  0  0  0  0  0  0  0  0  0  0  0
   -1.0722    0.2609    1.2092 H   0  0  0  0  0  0  0  0  0  0  0  0
   -0.6115   -1.9471    1.3336 H   0  0  0  0  0  0  0  0  0  0  0  0
   -1.4679   -2.2283   -0.2110 H   0  0  0  0  0  0  0  0  0  0  0  0
    1.3313   -2.4292    0.2604 H   0  0  0  0  0  0  0  0  0  0  0  0
    0.5095   -2.4911   -1.3094 H   0  0  0  0  0  0  0  0  0  0  0  0
    1.7344   -0.4467   -1.7636 H   0  0  0  0  0  0  0  0  0  0  0  0
    1.4964    0.0385    1.3376 H   0  0  0  0  0  0  0  0  0  0  0  0
    2.2030    2.4847    0.1729 H   0  0  0  0  0  0  0  0  0  0  0  0
    2.7853    1.4327   -1.1399 H   0  0  0  0  0  0  0  0  0  0  0  0
    3.5473    1.2584    0.5153 H   0  0  0  0  0  0  0  0  0  0  0  0
    0.1255    1.3744   -1.1081 H   0  0  0  0  0  0  0  0  0  0  0  0
  1  2  1  0
  2  3  1  0
  3  4  1  0
  4  5  1  0
  5  6  1  0
  6  7  1  0
  7  8  1  0
  7  9  1  0
  9  3  1  0
  9  6  1  0
  1 10  1  0
  1 11  1  0
  1 12  1  0
  3 13  1  0
  4 14  1  0
  4 15  1  0
  5 16  1  0
  5 17  1  0
  6 18  1  0
  7 19  1  0
  8 20  1  0
  8 21  1  0
  8 22  1  0
  9 23  1  0
M  END
