
     RDKit          3D

 21 22  0  0  0  0  0  0  0  0999 V2000
   -1.7526    1.1015   -1.0683 C   0  0  0  0  0  0  0  0  0  0  0  0
   -1.6597    0.5749    0.2398 O   0  0  0  0  0  0  0  0  0  0  0  0
   -0.4240   -0.0733    0.4001 C   0  0  0  0  0  0  0  0  0  0  0  0
    0.7643    0.8143    0.2004 C   0  0  0  0  0  0  0  0  0  0  0  0
    2.1471    0.3113    0.3275 C   0  0  0  0  0  0  0  0  0  0  0  0
    1.5689    0.4961   -1.0616 C   0  0  0  0  0  0  0  0  0  0  0  0
   -0.3227   -1.4491   -0.0988 C   0  0  0  0  0  0  0  0  0  0  0  0
   -0.4173   -1.1772    1.3847 C   0  0  0  0  0  0  0  0  0  0  0  0
   -1.6280   -1.5395    1.9776 O   0  0  0  0  0  0  0  0  0  0  0  0
   -1.6752    0.3114   -1.8335 H   0  0  0  0  0  0  0  0  0  0  0  0
   -2.7352    1.6254   -1.1237 H   0  0  0  0  0  0  0  0  0  0  0  0
   -0.9337    1.8212   -1.2172 H   0  0  0  0  0  0  0  0  0  0  0  0
    0.6040    1.8896    0.4163 H   0  0  0  0  0  0  0  0  0  0  0  0
    2.3554   -0.7255    0.6795 H   0  0  0  0  0  0  0  0  0  0  0  0
    2.9359    1.0388    0.5947 H   0  0  0  0  0  0  0  0  0  0  0  0
    1.3889   -0.4382   -1.5942 H   0  0  0  0  0  0  0  0  0  0  0  0
    1.9195    1.3498   -1.6802 H   0  0  0  0  0  0  0  0  0  0  0  0
   -1.1782   -1.9000   -0.6282 H   0  0  0  0  0  0  0  0  0  0  0  0
    0.6481   -1.9076   -0.3893 H   0  0  0  0  0  0  0  0  0  0  0  0
    0.4529   -1.3729    2.0387 H   0  0  0  0  0  0  0  0  0  0  0  0
   -2.0584   -0.7510    2.4358 H   0  0  0  0  0  0  0  0  0  0  0  0
  1  2  1  0
  2  3  1  0
  3  4  1  0
  4  5  1  0
  5  6  1  0
  3  7  1  0
  7  8  1  0
  8  9  1  0
  8  3  1  0
  6  4  1  0
  1 10  1  0
  1 11  1  0
  1 12  1  0
  4 13  1  0
  5 14  1  0
  5 15  1  0
  6 16  1  0
  6 17  1  0
  7 18  1  0
  7 19  1  0
  8 20  1  0
  9 21  1  0
M  END
