
     RDKit          3D

 19 21  0  0  0  0  0  0  0  0999 V2000
    2.3714   -0.4334    0.1520 C   0  0  0  0  0  0  0  0  0  0  0  0
    1.4498   -0.2517   -0.8065 O   0  0  0  0  0  0  0  0  0  0  0  0
    0.2851    0.4181   -0.5357 C   0  0  0  0  0  0  0  0  0  0  0  0
    0.5571    1.7809   -0.0668 C   0  0  0  0  0  0  0  0  0  0  0  0
   -0.0273    0.9220    0.9029 C   0  0  0  0  0  0  0  0  0  0  0  0
   -0.0141   -0.4545    1.1123 O   0  0  0  0  0  0  0  0  0  0  0  0
   -0.7780   -0.4760   -0.0407 C   0  0  0  0  0  0  0  0  0  0  0  0
   -2.2004   -0.2423   -0.1006 C   0  0  0  0  0  0  0  0  0  0  0  0
   -1.4843   -1.5191   -0.6348 C   0  0  0  0  0  0  0  0  0  0  0  0
    2.7821    0.4797    0.6258 H   0  0  0  0  0  0  0  0  0  0  0  0
    2.1289   -1.1487    0.9550 H   0  0  0  0  0  0  0  0  0  0  0  0
    3.3070   -0.8931   -0.3202 H   0  0  0  0  0  0  0  0  0  0  0  0
   -0.0342    2.5528   -0.6313 H   0  0  0  0  0  0  0  0  0  0  0  0
    1.6018    2.1865    0.0840 H   0  0  0  0  0  0  0  0  0  0  0  0
   -1.1207    1.1913    1.1020 H   0  0  0  0  0  0  0  0  0  0  0  0
   -2.8051   -0.4007    0.8309 H   0  0  0  0  0  0  0  0  0  0  0  0
   -2.7058    0.3897   -0.8378 H   0  0  0  0  0  0  0  0  0  0  0  0
   -1.7374   -2.4596   -0.0701 H   0  0  0  0  0  0  0  0  0  0  0  0
   -1.5759   -1.6418   -1.7205 H   0  0  0  0  0  0  0  0  0  0  0  0
  1  2  1  0
  2  3  1  0
  3  4  1  0
  4  5  1  0
  5  6  1  0
  6  7  1  0
  7  8  1  0
  8  9  1  0
  5  3  1  0
  9  7  1  0
  7  3  1  0
  1 10  1  0
  1 11  1  0
  1 12  1  0
  4 13  1  0
  4 14  1  0
  5 15  1  0
  8 16  1  0
  8 17  1  0
  9 18  1  0
  9 19  1  0
M  END
