
     RDKit          3D

 22 22  0  0  0  0  0  0  0  0999 V2000
    3.4459   -0.0051    0.2720 C   0  0  0  0  0  0  0  0  0  0  0  0
    2.3731   -0.1377   -0.5997 O   0  0  0  0  0  0  0  0  0  0  0  0
    1.1654   -0.2667    0.0389 C   0  0  0  0  0  0  0  0  0  0  0  0
    0.2113   -1.2542   -0.6459 C   0  0  0  0  0  0  0  0  0  0  0  0
   -0.0435    0.2401   -0.6221 C   0  0  0  0  0  0  0  0  0  0  0  0
   -1.2519    0.6687    0.1279 C   0  0  0  0  0  0  0  0  0  0  0  0
   -2.3738    1.1509   -0.7591 C   0  0  0  0  0  0  0  0  0  0  0  0
   -1.7383   -0.4772    0.9809 C   0  0  0  0  0  0  0  0  0  0  0  0
    4.4042    0.0967   -0.2755 H   0  0  0  0  0  0  0  0  0  0  0  0
    3.5343   -0.8537    0.9577 H   0  0  0  0  0  0  0  0  0  0  0  0
    3.3082    0.9737    0.8153 H   0  0  0  0  0  0  0  0  0  0  0  0
    1.1797   -0.2513    1.1460 H   0  0  0  0  0  0  0  0  0  0  0  0
    0.5424   -1.7261   -1.5934 H   0  0  0  0  0  0  0  0  0  0  0  0
   -0.2853   -1.9471    0.0219 H   0  0  0  0  0  0  0  0  0  0  0  0
    0.0973    0.7139   -1.6421 H   0  0  0  0  0  0  0  0  0  0  0  0
   -0.9344    1.4913    0.8303 H   0  0  0  0  0  0  0  0  0  0  0  0
   -2.2572    2.2661   -0.8569 H   0  0  0  0  0  0  0  0  0  0  0  0
   -2.4222    0.6445   -1.7213 H   0  0  0  0  0  0  0  0  0  0  0  0
   -3.3190    0.9796   -0.1997 H   0  0  0  0  0  0  0  0  0  0  0  0
   -2.1704   -1.2961    0.3751 H   0  0  0  0  0  0  0  0  0  0  0  0
   -2.5439   -0.1343    1.6759 H   0  0  0  0  0  0  0  0  0  0  0  0
   -0.9220   -0.8761    1.6181 H   0  0  0  0  0  0  0  0  0  0  0  0
  1  2  1  0
  2  3  1  0
  3  4  1  0
  4  5  1  0
  5  6  1  0
  6  7  1  0
  6  8  1  0
  5  3  1  0
  1  9  1  0
  1 10  1  0
  1 11  1  0
  3 12  1  0
  4 13  1  0
  4 14  1  0
  5 15  1  0
  6 16  1  0
  7 17  1  0
  7 18  1  0
  7 19  1  0
  8 20  1  0
  8 21  1  0
  8 22  1  0
M  END
