
     RDKit          3D

 19 21  0  0  0  0  0  0  0  0999 V2000
    2.9624   -0.0191   -0.1171 C   0  0  0  0  0  0  0  0  0  0  0  0
    1.6948   -0.4015    0.3756 O   0  0  0  0  0  0  0  0  0  0  0  0
    0.7470    0.0678   -0.5021 C   0  0  0  0  0  0  0  0  0  0  0  0
   -0.3869    0.8191    0.1429 C   0  0  0  0  0  0  0  0  0  0  0  0
   -1.1929    0.4516   -1.0637 C   0  0  0  0  0  0  0  0  0  0  0  0
   -2.5426    0.2155   -0.5365 C   0  0  0  0  0  0  0  0  0  0  0  0
   -2.3086   -0.4259    0.6352 C   0  0  0  0  0  0  0  0  0  0  0  0
   -0.8336   -0.5027    0.6748 C   0  0  0  0  0  0  0  0  0  0  0  0
   -0.4478   -0.8072   -0.7419 C   0  0  0  0  0  0  0  0  0  0  0  0
    3.7588   -0.3907    0.5828 H   0  0  0  0  0  0  0  0  0  0  0  0
    3.1554   -0.4298   -1.1171 H   0  0  0  0  0  0  0  0  0  0  0  0
    3.0208    1.0965   -0.2152 H   0  0  0  0  0  0  0  0  0  0  0  0
    1.1386    0.6186   -1.3679 H   0  0  0  0  0  0  0  0  0  0  0  0
   -0.3424    1.6996    0.6132 H   0  0  0  0  0  0  0  0  0  0  0  0
   -1.0409    0.9478   -1.9876 H   0  0  0  0  0  0  0  0  0  0  0  0
   -3.4966    0.4863   -0.9741 H   0  0  0  0  0  0  0  0  0  0  0  0
   -3.0670   -0.7710    1.3269 H   0  0  0  0  0  0  0  0  0  0  0  0
   -0.3342   -0.9684    1.4847 H   0  0  0  0  0  0  0  0  0  0  0  0
   -0.4841   -1.6864   -1.2153 H   0  0  0  0  0  0  0  0  0  0  0  0
  1  2  1  0
  2  3  1  0
  3  4  1  0
  4  5  1  0
  5  6  1  0
  6  7  2  0
  7  8  1  0
  8  9  1  0
  9  3  1  0
  8  4  1  0
  9  5  1  0
  1 10  1  0
  1 11  1  0
  1 12  1  0
  3 13  1  0
  4 14  1  0
  5 15  1  0
  6 16  1  0
  7 17  1  0
  8 18  1  0
  9 19  1  0
M  END
