
     RDKit          3D

 23 24  0  0  0  0  0  0  0  0999 V2000
    1.8830    1.0337   -1.2464 C   0  0  0  0  0  0  0  0  0  0  0  0
    1.3962   -0.2571   -1.2090 O   0  0  0  0  0  0  0  0  0  0  0  0
    0.8910   -0.4980    0.0615 C   0  0  0  0  0  0  0  0  0  0  0  0
   -0.2339    0.3761    0.5060 C   0  0  0  0  0  0  0  0  0  0  0  0
   -1.3809    0.1887   -0.4808 C   0  0  0  0  0  0  0  0  0  0  0  0
   -2.6014    1.0266   -0.1459 C   0  0  0  0  0  0  0  0  0  0  0  0
   -2.6153   -0.4846   -0.0190 C   0  0  0  0  0  0  0  0  0  0  0  0
    2.0373   -0.7391    1.0771 C   0  0  0  0  0  0  0  0  0  0  0  0
    1.0705   -1.8191    0.7064 C   0  0  0  0  0  0  0  0  0  0  0  0
    1.1041    1.7903   -1.0533 H   0  0  0  0  0  0  0  0  0  0  0  0
    2.3227    1.2988   -2.2286 H   0  0  0  0  0  0  0  0  0  0  0  0
    2.6267    1.1689   -0.4175 H   0  0  0  0  0  0  0  0  0  0  0  0
    0.0009    1.4523    0.5428 H   0  0  0  0  0  0  0  0  0  0  0  0
   -0.5646    0.0496    1.5322 H   0  0  0  0  0  0  0  0  0  0  0  0
   -1.0879    0.0996   -1.5422 H   0  0  0  0  0  0  0  0  0  0  0  0
   -2.6109    1.6459    0.7592 H   0  0  0  0  0  0  0  0  0  0  0  0
   -3.1387    1.4830   -1.0029 H   0  0  0  0  0  0  0  0  0  0  0  0
   -2.6211   -0.9423    0.9907 H   0  0  0  0  0  0  0  0  0  0  0  0
   -3.2299   -0.9916   -0.7608 H   0  0  0  0  0  0  0  0  0  0  0  0
    3.0521   -0.8786    0.7089 H   0  0  0  0  0  0  0  0  0  0  0  0
    1.9546   -0.2208    2.0514 H   0  0  0  0  0  0  0  0  0  0  0  0
    1.4148   -2.7052    0.1290 H   0  0  0  0  0  0  0  0  0  0  0  0
    0.3305   -2.0771    1.4883 H   0  0  0  0  0  0  0  0  0  0  0  0
  1  2  1  0
  2  3  1  0
  3  4  1  0
  4  5  1  0
  5  6  1  0
  6  7  1  0
  3  8  1  0
  8  9  1  0
  9  3  1  0
  7  5  1  0
  1 10  1  0
  1 11  1  0
  1 12  1  0
  4 13  1  0
  4 14  1  0
  5 15  1  0
  6 16  1  0
  6 17  1  0
  7 18  1  0
  7 19  1  0
  8 20  1  0
  8 21  1  0
  9 22  1  0
  9 23  1  0
M  END
