
     RDKit          3D

 20 21  0  0  0  0  0  0  0  0999 V2000
    2.5836   -0.2089   -0.2373 C   0  0  0  0  0  0  0  0  0  0  0  0
    1.3466   -0.1840    0.3889 O   0  0  0  0  0  0  0  0  0  0  0  0
    0.3923    0.2006   -0.5756 C   0  0  0  0  0  0  0  0  0  0  0  0
   -0.2484    1.5307   -0.1416 C   0  0  0  0  0  0  0  0  0  0  0  0
   -1.5399    1.0182    0.4903 C   0  0  0  0  0  0  0  0  0  0  0  0
   -1.0484   -0.4084    0.7620 C   0  0  0  0  0  0  0  0  0  0  0  0
   -1.5044   -1.5864    0.3250 C   0  0  0  0  0  0  0  0  0  0  0  0
   -0.6920   -0.7830   -0.5668 C   0  0  0  0  0  0  0  0  0  0  0  0
    3.3555   -0.5143    0.5200 H   0  0  0  0  0  0  0  0  0  0  0  0
    2.7846    0.8324   -0.5846 H   0  0  0  0  0  0  0  0  0  0  0  0
    2.5857   -0.9510   -1.0377 H   0  0  0  0  0  0  0  0  0  0  0  0
    0.8193    0.3825   -1.5464 H   0  0  0  0  0  0  0  0  0  0  0  0
   -0.4416    2.1827   -1.0025 H   0  0  0  0  0  0  0  0  0  0  0  0
    0.3942    2.0499    0.5857 H   0  0  0  0  0  0  0  0  0  0  0  0
   -1.7962    1.5489    1.4148 H   0  0  0  0  0  0  0  0  0  0  0  0
   -2.3603    0.9925   -0.2439 H   0  0  0  0  0  0  0  0  0  0  0  0
   -0.3247   -0.3548    1.6380 H   0  0  0  0  0  0  0  0  0  0  0  0
   -2.5868   -1.7182    0.0093 H   0  0  0  0  0  0  0  0  0  0  0  0
   -1.1554   -2.5548    0.7900 H   0  0  0  0  0  0  0  0  0  0  0  0
   -0.5636   -1.4745   -1.3678 H   0  0  0  0  0  0  0  0  0  0  0  0
  1  2  1  0
  2  3  1  0
  3  4  1  0
  4  5  1  0
  5  6  1  0
  6  7  1  0
  7  8  1  0
  8  3  1  0
  8  6  1  0
  1  9  1  0
  1 10  1  0
  1 11  1  0
  3 12  1  0
  4 13  1  0
  4 14  1  0
  5 15  1  0
  5 16  1  0
  6 17  1  0
  7 18  1  0
  7 19  1  0
  8 20  1  0
M  END
