
     RDKit          3D

 21 22  0  0  0  0  0  0  0  0999 V2000
   -2.3641   -1.0881    0.3321 C   0  0  0  0  0  0  0  0  0  0  0  0
   -1.2429   -0.2612    0.5799 O   0  0  0  0  0  0  0  0  0  0  0  0
   -0.7952    0.1688   -0.6379 C   0  0  0  0  0  0  0  0  0  0  0  0
   -0.8591    1.7026   -0.6461 C   0  0  0  0  0  0  0  0  0  0  0  0
    0.2132    2.0975    0.0425 C   0  0  0  0  0  0  0  0  0  0  0  0
    0.9207    0.9286    0.4743 C   0  0  0  0  0  0  0  0  0  0  0  0
    1.8163   -0.0247   -0.0291 C   0  0  0  0  0  0  0  0  0  0  0  0
    2.0086   -1.3914    0.6454 C   0  0  0  0  0  0  0  0  0  0  0  0
    0.6877    0.1126   -0.8411 C   0  0  0  0  0  0  0  0  0  0  0  0
   -2.0359   -1.9277   -0.2954 H   0  0  0  0  0  0  0  0  0  0  0  0
   -3.1768   -0.4958   -0.1385 H   0  0  0  0  0  0  0  0  0  0  0  0
   -2.7352   -1.4901    1.3134 H   0  0  0  0  0  0  0  0  0  0  0  0
   -1.3497   -0.1841   -1.5002 H   0  0  0  0  0  0  0  0  0  0  0  0
   -1.6331    2.2995   -1.1246 H   0  0  0  0  0  0  0  0  0  0  0  0
    0.4100    3.1819    0.1848 H   0  0  0  0  0  0  0  0  0  0  0  0
    0.3823    0.5314    1.4043 H   0  0  0  0  0  0  0  0  0  0  0  0
    2.8252    0.3545   -0.3626 H   0  0  0  0  0  0  0  0  0  0  0  0
    1.1767   -1.4810    1.3871 H   0  0  0  0  0  0  0  0  0  0  0  0
    2.9802   -1.4883    1.1210 H   0  0  0  0  0  0  0  0  0  0  0  0
    1.8756   -2.2131   -0.0964 H   0  0  0  0  0  0  0  0  0  0  0  0
    0.8955    0.6680   -1.8127 H   0  0  0  0  0  0  0  0  0  0  0  0
  1  2  1  0
  2  3  1  0
  3  4  1  0
  4  5  2  0
  5  6  1  0
  6  7  1  0
  7  8  1  0
  7  9  1  0
  9  3  1  0
  9  6  1  0
  1 10  1  0
  1 11  1  0
  1 12  1  0
  3 13  1  0
  4 14  1  0
  5 15  1  0
  6 16  1  0
  7 17  1  0
  8 18  1  0
  8 19  1  0
  8 20  1  0
  9 21  1  0
M  END
