
     RDKit          3D

 17 18  0  0  0  0  0  0  0  0999 V2000
    2.4958    0.2135   -0.2724 C   0  0  0  0  0  0  0  0  0  0  0  0
    1.1527    0.5778   -0.1906 O   0  0  0  0  0  0  0  0  0  0  0  0
    0.3355   -0.4716    0.1502 C   0  0  0  0  0  0  0  0  0  0  0  0
   -0.5404   -0.0877    1.2909 C   0  0  0  0  0  0  0  0  0  0  0  0
   -0.3791   -0.4600    2.4376 O   0  0  0  0  0  0  0  0  0  0  0  0
   -1.5775    0.7994    0.6961 C   0  0  0  0  0  0  0  0  0  0  0  0
   -1.7640    0.1782   -0.6753 C   0  0  0  0  0  0  0  0  0  0  0  0
   -1.8948   -1.2865   -0.5057 O   0  0  0  0  0  0  0  0  0  0  0  0
   -0.7034   -0.6130   -0.9695 C   0  0  0  0  0  0  0  0  0  0  0  0
    2.5854   -0.5659   -1.0406 H   0  0  0  0  0  0  0  0  0  0  0  0
    2.8782   -0.1314    0.7023 H   0  0  0  0  0  0  0  0  0  0  0  0
    3.0947    1.0714   -0.5941 H   0  0  0  0  0  0  0  0  0  0  0  0
    0.8533   -1.4225    0.3042 H   0  0  0  0  0  0  0  0  0  0  0  0
   -2.5013    0.8414    1.2707 H   0  0  0  0  0  0  0  0  0  0  0  0
   -1.1328    1.8142    0.5084 H   0  0  0  0  0  0  0  0  0  0  0  0
   -2.6015    0.5962   -1.2347 H   0  0  0  0  0  0  0  0  0  0  0  0
   -0.3008   -1.0536   -1.8773 H   0  0  0  0  0  0  0  0  0  0  0  0
  1  2  1  0
  2  3  1  0
  3  4  1  0
  4  5  2  0
  4  6  1  0
  6  7  1  0
  7  8  1  0
  8  9  1  0
  9  3  1  0
  9  7  1  0
  1 10  1  0
  1 11  1  0
  1 12  1  0
  3 13  1  0
  6 14  1  0
  6 15  1  0
  7 16  1  0
  9 17  1  0
M  END
