
     RDKit          3D

 19 20  0  0  0  0  0  0  0  0999 V2000
   -2.3730   -1.1260   -0.0609 C   0  0  0  0  0  0  0  0  0  0  0  0
   -1.4335   -0.4998    0.7572 O   0  0  0  0  0  0  0  0  0  0  0  0
   -0.7185    0.4775    0.0903 C   0  0  0  0  0  0  0  0  0  0  0  0
    0.7805    0.2663    0.1721 C   0  0  0  0  0  0  0  0  0  0  0  0
    1.3922   -0.1389   -0.9819 O   0  0  0  0  0  0  0  0  0  0  0  0
    2.1628   -1.2661   -0.6970 C   0  0  0  0  0  0  0  0  0  0  0  0
    0.9088    1.7199    0.5374 C   0  0  0  0  0  0  0  0  0  0  0  0
    0.3155    2.0691    1.7283 O   0  0  0  0  0  0  0  0  0  0  0  0
   -0.6041    1.8065    0.7470 C   0  0  0  0  0  0  0  0  0  0  0  0
   -1.8014   -1.5898   -0.9028 H   0  0  0  0  0  0  0  0  0  0  0  0
   -3.1239   -0.4068   -0.4092 H   0  0  0  0  0  0  0  0  0  0  0  0
   -2.8128   -1.9568    0.5392 H   0  0  0  0  0  0  0  0  0  0  0  0
   -1.0158    0.5927   -0.9758 H   0  0  0  0  0  0  0  0  0  0  0  0
    1.0122   -0.3582    1.0627 H   0  0  0  0  0  0  0  0  0  0  0  0
    2.6941   -1.6590   -1.5842 H   0  0  0  0  0  0  0  0  0  0  0  0
    1.5314   -2.1132   -0.3157 H   0  0  0  0  0  0  0  0  0  0  0  0
    2.8905   -0.9557    0.0932 H   0  0  0  0  0  0  0  0  0  0  0  0
    1.3286    2.4465   -0.1512 H   0  0  0  0  0  0  0  0  0  0  0  0
   -1.1336    2.6916    0.3515 H   0  0  0  0  0  0  0  0  0  0  0  0
  1  2  1  0
  2  3  1  0
  3  4  1  0
  4  5  1  0
  5  6  1  0
  4  7  1  0
  7  8  1  0
  8  9  1  0
  9  3  1  0
  9  7  1  0
  1 10  1  0
  1 11  1  0
  1 12  1  0
  3 13  1  0
  4 14  1  0
  6 15  1  0
  6 16  1  0
  6 17  1  0
  7 18  1  0
  9 19  1  0
M  END
