
     RDKit          3D

 21 21  0  0  0  0  0  0  0  0999 V2000
    3.1743   -0.8050    0.4053 C   0  0  0  0  0  0  0  0  0  0  0  0
    2.2536    0.1889    0.6702 O   0  0  0  0  0  0  0  0  0  0  0  0
    1.0255   -0.0339    0.0665 C   0  0  0  0  0  0  0  0  0  0  0  0
    0.6406    1.0249   -0.8771 C   0  0  0  0  0  0  0  0  0  0  0  0
   -0.6752    1.1513   -0.8068 C   0  0  0  0  0  0  0  0  0  0  0  0
   -1.1609    0.1631    0.1970 C   0  0  0  0  0  0  0  0  0  0  0  0
   -2.2009    0.8908    1.0422 C   0  0  0  0  0  0  0  0  0  0  0  0
   -1.7038   -1.0698   -0.4380 C   0  0  0  0  0  0  0  0  0  0  0  0
   -0.0076   -0.0940    0.9698 O   0  0  0  0  0  0  0  0  0  0  0  0
    4.1142   -0.5259    0.9345 H   0  0  0  0  0  0  0  0  0  0  0  0
    3.4394   -0.8693   -0.6691 H   0  0  0  0  0  0  0  0  0  0  0  0
    2.8685   -1.7952    0.8281 H   0  0  0  0  0  0  0  0  0  0  0  0
    1.0295   -0.9962   -0.5267 H   0  0  0  0  0  0  0  0  0  0  0  0
    1.2801    1.6336   -1.5435 H   0  0  0  0  0  0  0  0  0  0  0  0
   -1.3195    1.8271   -1.3524 H   0  0  0  0  0  0  0  0  0  0  0  0
   -2.8295    1.5281    0.3596 H   0  0  0  0  0  0  0  0  0  0  0  0
   -2.8049    0.2129    1.6505 H   0  0  0  0  0  0  0  0  0  0  0  0
   -1.6235    1.6335    1.6537 H   0  0  0  0  0  0  0  0  0  0  0  0
   -2.3639   -0.7587   -1.2829 H   0  0  0  0  0  0  0  0  0  0  0  0
   -2.2705   -1.6491    0.3254 H   0  0  0  0  0  0  0  0  0  0  0  0
   -0.8658   -1.6572   -0.8409 H   0  0  0  0  0  0  0  0  0  0  0  0
  1  2  1  0
  2  3  1  0
  3  4  1  0
  4  5  2  0
  5  6  1  0
  6  7  1  0
  6  8  1  0
  6  9  1  0
  9  3  1  0
  1 10  1  0
  1 11  1  0
  1 12  1  0
  3 13  1  0
  4 14  1  0
  5 15  1  0
  7 16  1  0
  7 17  1  0
  7 18  1  0
  8 19  1  0
  8 20  1  0
  8 21  1  0
M  END
