
     RDKit          3D

 19 21  0  0  0  0  0  0  0  0999 V2000
    2.1268    0.1854    1.0227 C   0  0  0  0  0  0  0  0  0  0  0  0
    0.8941    0.8059    1.1738 O   0  0  0  0  0  0  0  0  0  0  0  0
    0.1275    0.4669    0.0269 C   0  0  0  0  0  0  0  0  0  0  0  0
    0.8479    0.9742   -1.2227 C   0  0  0  0  0  0  0  0  0  0  0  0
   -0.4619   -0.8446    0.0537 C   0  0  0  0  0  0  0  0  0  0  0  0
   -1.7352   -1.2688    0.7441 C   0  0  0  0  0  0  0  0  0  0  0  0
   -2.9256   -1.4615    0.1808 O   0  0  0  0  0  0  0  0  0  0  0  0
   -2.2727   -0.5275   -0.5178 C   0  0  0  0  0  0  0  0  0  0  0  0
   -1.3077    0.4940    0.0304 C   0  0  0  0  0  0  0  0  0  0  0  0
    2.8035    0.3962    1.8865 H   0  0  0  0  0  0  0  0  0  0  0  0
    2.6101    0.5973    0.0885 H   0  0  0  0  0  0  0  0  0  0  0  0
    2.0440   -0.9080    0.8420 H   0  0  0  0  0  0  0  0  0  0  0  0
    0.0947    1.2176   -1.9809 H   0  0  0  0  0  0  0  0  0  0  0  0
    1.5516    0.1755   -1.5998 H   0  0  0  0  0  0  0  0  0  0  0  0
    1.4591    1.8579   -1.0247 H   0  0  0  0  0  0  0  0  0  0  0  0
   -0.4149   -1.3699   -0.9495 H   0  0  0  0  0  0  0  0  0  0  0  0
   -1.8163   -0.6952    1.7158 H   0  0  0  0  0  0  0  0  0  0  0  0
   -1.9110   -0.9120   -1.5063 H   0  0  0  0  0  0  0  0  0  0  0  0
   -1.7140    0.8167    1.0365 H   0  0  0  0  0  0  0  0  0  0  0  0
  1  2  1  0
  2  3  1  0
  3  4  1  0
  3  5  1  0
  5  6  1  0
  6  7  1  0
  7  8  1  0
  8  9  1  0
  9  3  1  0
  9  5  1  0
  8  6  1  0
  1 10  1  0
  1 11  1  0
  1 12  1  0
  4 13  1  0
  4 14  1  0
  4 15  1  0
  5 16  1  0
  6 17  1  0
  8 18  1  0
  9 19  1  0
M  END
