
     RDKit          3D

 18 18  0  0  0  0  0  0  0  0999 V2000
    2.6313    0.1389    0.1254 C   0  0  0  0  0  0  0  0  0  0  0  0
    1.5256   -0.4757   -0.4833 O   0  0  0  0  0  0  0  0  0  0  0  0
    0.3386    0.0045   -0.0082 C   0  0  0  0  0  0  0  0  0  0  0  0
   -0.6027    0.4976   -1.0817 C   0  0  0  0  0  0  0  0  0  0  0  0
   -1.8292    0.7526   -0.2037 C   0  0  0  0  0  0  0  0  0  0  0  0
   -1.9102   -0.5402    0.5345 C   0  0  0  0  0  0  0  0  0  0  0  0
   -2.8795   -1.1051    1.0131 O   0  0  0  0  0  0  0  0  0  0  0  0
   -0.5286   -1.0948    0.6147 C   0  0  0  0  0  0  0  0  0  0  0  0
    2.6299   -0.0252    1.2222 H   0  0  0  0  0  0  0  0  0  0  0  0
    2.6894    1.1970   -0.1675 H   0  0  0  0  0  0  0  0  0  0  0  0
    3.5347   -0.4024   -0.2552 H   0  0  0  0  0  0  0  0  0  0  0  0
    0.4460    0.7950    0.7745 H   0  0  0  0  0  0  0  0  0  0  0  0
   -0.2670    1.3760   -1.6111 H   0  0  0  0  0  0  0  0  0  0  0  0
   -0.8800   -0.3592   -1.7440 H   0  0  0  0  0  0  0  0  0  0  0  0
   -1.5470    1.5673    0.4796 H   0  0  0  0  0  0  0  0  0  0  0  0
   -2.7233    0.9591   -0.8020 H   0  0  0  0  0  0  0  0  0  0  0  0
   -0.4004   -1.9839   -0.0524 H   0  0  0  0  0  0  0  0  0  0  0  0
   -0.2277   -1.3012    1.6452 H   0  0  0  0  0  0  0  0  0  0  0  0
  1  2  1  0
  2  3  1  0
  3  4  1  0
  4  5  1  0
  5  6  1  0
  6  7  2  0
  6  8  1  0
  8  3  1  0
  1  9  1  0
  1 10  1  0
  1 11  1  0
  3 12  1  0
  4 13  1  0
  4 14  1  0
  5 15  1  0
  5 16  1  0
  8 17  1  0
  8 18  1  0
M  END
