
     RDKit          3D

 21 23  0  0  0  0  0  0  0  0999 V2000
    1.9525   -0.8857    0.8393 C   0  0  0  0  0  0  0  0  0  0  0  0
    2.0461    0.3768    0.2576 O   0  0  0  0  0  0  0  0  0  0  0  0
    0.7898    0.7916   -0.2429 C   0  0  0  0  0  0  0  0  0  0  0  0
    0.9240    2.1846   -0.8777 C   0  0  0  0  0  0  0  0  0  0  0  0
   -0.4639    0.6273    0.4817 C   0  0  0  0  0  0  0  0  0  0  0  0
   -1.7617   -0.0118   -0.0437 C   0  0  0  0  0  0  0  0  0  0  0  0
   -2.1395   -1.2132    0.6395 C   0  0  0  0  0  0  0  0  0  0  0  0
   -0.8823   -1.2831   -0.1358 C   0  0  0  0  0  0  0  0  0  0  0  0
   -0.0441   -0.2289   -0.7613 C   0  0  0  0  0  0  0  0  0  0  0  0
    1.6103   -1.6375    0.0979 H   0  0  0  0  0  0  0  0  0  0  0  0
    3.0060   -1.1791    1.0869 H   0  0  0  0  0  0  0  0  0  0  0  0
    1.4008   -0.9017    1.7827 H   0  0  0  0  0  0  0  0  0  0  0  0
   -0.0556    2.3678   -1.3714 H   0  0  0  0  0  0  0  0  0  0  0  0
    1.6865    2.1946   -1.6698 H   0  0  0  0  0  0  0  0  0  0  0  0
    1.0445    2.9624   -0.1156 H   0  0  0  0  0  0  0  0  0  0  0  0
   -0.2288    0.2903    1.4974 H   0  0  0  0  0  0  0  0  0  0  0  0
   -2.1744    0.3693   -0.9854 H   0  0  0  0  0  0  0  0  0  0  0  0
   -3.0978   -1.6710    0.3934 H   0  0  0  0  0  0  0  0  0  0  0  0
   -1.9686   -1.2315    1.7603 H   0  0  0  0  0  0  0  0  0  0  0  0
   -1.0757   -2.0749   -0.9232 H   0  0  0  0  0  0  0  0  0  0  0  0
   -0.5680    0.1537   -1.7099 H   0  0  0  0  0  0  0  0  0  0  0  0
  1  2  1  0
  2  3  1  0
  3  4  1  0
  3  5  1  0
  5  6  1  0
  6  7  1  0
  7  8  1  0
  8  9  1  0
  9  3  1  0
  9  5  1  0
  8  6  1  0
  1 10  1  0
  1 11  1  0
  1 12  1  0
  4 13  1  0
  4 14  1  0
  4 15  1  0
  5 16  1  0
  6 17  1  0
  7 18  1  0
  7 19  1  0
  8 20  1  0
  9 21  1  0
M  END
