
     RDKit          3D

 23 24  0  0  0  0  0  0  0  0999 V2000
    3.3610   -1.0363    0.2218 C   0  0  0  0  0  0  0  0  0  0  0  0
    2.5814    0.0008   -0.2449 O   0  0  0  0  0  0  0  0  0  0  0  0
    1.2643   -0.0572    0.1141 C   0  0  0  0  0  0  0  0  0  0  0  0
    0.5423    1.1706    0.4736 C   0  0  0  0  0  0  0  0  0  0  0  0
   -0.8889    1.1101    0.9070 C   0  0  0  0  0  0  0  0  0  0  0  0
   -1.2317    0.1826   -0.2313 C   0  0  0  0  0  0  0  0  0  0  0  0
   -1.4915   -1.2148    0.2617 C   0  0  0  0  0  0  0  0  0  0  0  0
   -2.3326    0.7241   -1.1153 C   0  0  0  0  0  0  0  0  0  0  0  0
    0.1620    0.3903   -0.7641 C   0  0  0  0  0  0  0  0  0  0  0  0
    3.3978   -1.1292    1.3128 H   0  0  0  0  0  0  0  0  0  0  0  0
    4.4101   -0.8255   -0.1151 H   0  0  0  0  0  0  0  0  0  0  0  0
    3.1020   -2.0177   -0.2101 H   0  0  0  0  0  0  0  0  0  0  0  0
    1.0219   -0.9566    0.7436 H   0  0  0  0  0  0  0  0  0  0  0  0
    0.9778    2.1720    0.3920 H   0  0  0  0  0  0  0  0  0  0  0  0
   -1.0721    0.6783    1.9138 H   0  0  0  0  0  0  0  0  0  0  0  0
   -1.4079    2.0879    0.8018 H   0  0  0  0  0  0  0  0  0  0  0  0
   -2.5734   -1.3074    0.4925 H   0  0  0  0  0  0  0  0  0  0  0  0
   -1.2896   -1.9624   -0.5394 H   0  0  0  0  0  0  0  0  0  0  0  0
   -0.9109   -1.4487    1.1775 H   0  0  0  0  0  0  0  0  0  0  0  0
   -2.4945    1.8088   -0.9155 H   0  0  0  0  0  0  0  0  0  0  0  0
   -2.1714    0.4965   -2.1676 H   0  0  0  0  0  0  0  0  0  0  0  0
   -3.2743    0.2187   -0.8059 H   0  0  0  0  0  0  0  0  0  0  0  0
    0.3183    0.9153   -1.7031 H   0  0  0  0  0  0  0  0  0  0  0  0
  1  2  1  0
  2  3  1  0
  3  4  1  0
  4  5  1  0
  5  6  1  0
  6  7  1  0
  6  8  1  0
  6  9  1  0
  9  3  1  0
  9  4  1  0
  1 10  1  0
  1 11  1  0
  1 12  1  0
  3 13  1  0
  4 14  1  0
  5 15  1  0
  5 16  1  0
  7 17  1  0
  7 18  1  0
  7 19  1  0
  8 20  1  0
  8 21  1  0
  8 22  1  0
  9 23  1  0
M  END
