
     RDKit          3D

 19 20  0  0  0  0  0  0  0  0999 V2000
    2.9216   -0.3430   -0.6203 C   0  0  0  0  0  0  0  0  0  0  0  0
    1.7523    0.2432   -1.0411 O   0  0  0  0  0  0  0  0  0  0  0  0
    0.7526    0.2519   -0.0871 C   0  0  0  0  0  0  0  0  0  0  0  0
    0.2220    1.5055    0.1434 O   0  0  0  0  0  0  0  0  0  0  0  0
   -1.0274    1.2866    0.7191 C   0  0  0  0  0  0  0  0  0  0  0  0
   -1.6546    0.1466   -0.0509 C   0  0  0  0  0  0  0  0  0  0  0  0
   -2.7675    0.3666   -0.8229 O   0  0  0  0  0  0  0  0  0  0  0  0
   -1.2658   -1.2502    0.2322 C   0  0  0  0  0  0  0  0  0  0  0  0
   -0.4308   -0.4875   -0.6946 C   0  0  0  0  0  0  0  0  0  0  0  0
    2.6768   -1.4087   -0.3487 H   0  0  0  0  0  0  0  0  0  0  0  0
    3.4336    0.1826    0.1974 H   0  0  0  0  0  0  0  0  0  0  0  0
    3.6013   -0.4007   -1.4993 H   0  0  0  0  0  0  0  0  0  0  0  0
    1.0851   -0.2193    0.8447 H   0  0  0  0  0  0  0  0  0  0  0  0
   -0.9662    1.0056    1.7869 H   0  0  0  0  0  0  0  0  0  0  0  0
   -1.6482    2.2080    0.5665 H   0  0  0  0  0  0  0  0  0  0  0  0
   -3.3743    0.9679   -0.3108 H   0  0  0  0  0  0  0  0  0  0  0  0
   -1.9491   -2.0325   -0.1386 H   0  0  0  0  0  0  0  0  0  0  0  0
   -0.8567   -1.4695    1.2387 H   0  0  0  0  0  0  0  0  0  0  0  0
   -0.5047   -0.5530   -1.7883 H   0  0  0  0  0  0  0  0  0  0  0  0
  1  2  1  0
  2  3  1  0
  3  4  1  0
  4  5  1  0
  5  6  1  0
  6  7  1  0
  6  8  1  0
  8  9  1  0
  9  3  1  0
  9  6  1  0
  1 10  1  0
  1 11  1  0
  1 12  1  0
  3 13  1  0
  5 14  1  0
  5 15  1  0
  7 16  1  0
  8 17  1  0
  8 18  1  0
  9 19  1  0
M  END
