
     RDKit          3D

 18 19  0  0  0  0  0  0  0  0999 V2000
    2.2940   -0.6431    0.3107 C   0  0  0  0  0  0  0  0  0  0  0  0
    1.0357   -0.6886    0.8290 O   0  0  0  0  0  0  0  0  0  0  0  0
    0.0484   -0.0023    0.2033 C   0  0  0  0  0  0  0  0  0  0  0  0
   -1.3149   -0.1479    0.8953 C   0  0  0  0  0  0  0  0  0  0  0  0
   -2.4561   -0.5951    0.0942 C   0  0  0  0  0  0  0  0  0  0  0  0
   -1.7173   -1.5144    0.9340 O   0  0  0  0  0  0  0  0  0  0  0  0
    0.3865    1.4367   -0.1844 C   0  0  0  0  0  0  0  0  0  0  0  0
    0.0444    0.3630   -1.2210 C   0  0  0  0  0  0  0  0  0  0  0  0
    2.9469   -1.2834    0.9779 H   0  0  0  0  0  0  0  0  0  0  0  0
    2.7296    0.3860    0.4593 H   0  0  0  0  0  0  0  0  0  0  0  0
    2.4161   -1.0210   -0.7014 H   0  0  0  0  0  0  0  0  0  0  0  0
   -1.4561    0.4489    1.7993 H   0  0  0  0  0  0  0  0  0  0  0  0
   -2.3573   -0.8571   -0.9581 H   0  0  0  0  0  0  0  0  0  0  0  0
   -3.4816   -0.3689    0.4497 H   0  0  0  0  0  0  0  0  0  0  0  0
    1.4313    1.7620   -0.2508 H   0  0  0  0  0  0  0  0  0  0  0  0
   -0.4053    2.2151   -0.0067 H   0  0  0  0  0  0  0  0  0  0  0  0
   -0.9720    0.4753   -1.7014 H   0  0  0  0  0  0  0  0  0  0  0  0
    0.8275    0.0347   -1.9288 H   0  0  0  0  0  0  0  0  0  0  0  0
  1  2  1  0
  2  3  1  0
  3  4  1  0
  4  5  1  0
  5  6  1  0
  3  7  1  0
  7  8  1  0
  8  3  1  0
  6  4  1  0
  1  9  1  0
  1 10  1  0
  1 11  1  0
  4 12  1  0
  5 13  1  0
  5 14  1  0
  7 15  1  0
  7 16  1  0
  8 17  1  0
  8 18  1  0
M  END
