
     RDKit          3D

 19 21  0  0  0  0  0  0  0  0999 V2000
    2.7225    0.3755    0.1092 C   0  0  0  0  0  0  0  0  0  0  0  0
    1.6623    0.2682   -0.7808 O   0  0  0  0  0  0  0  0  0  0  0  0
    0.5029   -0.0015   -0.0806 C   0  0  0  0  0  0  0  0  0  0  0  0
   -0.6615    0.8384   -0.4469 C   0  0  0  0  0  0  0  0  0  0  0  0
   -1.7443    1.3962    0.2446 C   0  0  0  0  0  0  0  0  0  0  0  0
   -1.6316    0.0196    0.5035 C   0  0  0  0  0  0  0  0  0  0  0  0
   -1.6130   -1.1996   -0.3034 C   0  0  0  0  0  0  0  0  0  0  0  0
   -1.0224   -1.3859   -1.5065 O   0  0  0  0  0  0  0  0  0  0  0  0
   -0.0876   -1.3682   -0.4886 C   0  0  0  0  0  0  0  0  0  0  0  0
    2.8267   -0.5996    0.6647 H   0  0  0  0  0  0  0  0  0  0  0  0
    2.6368    1.2387    0.7935 H   0  0  0  0  0  0  0  0  0  0  0  0
    3.6698    0.4956   -0.4781 H   0  0  0  0  0  0  0  0  0  0  0  0
    0.6973   -0.0664    1.0106 H   0  0  0  0  0  0  0  0  0  0  0  0
   -0.8473    0.6705   -1.5585 H   0  0  0  0  0  0  0  0  0  0  0  0
   -1.5213    2.1527    1.0534 H   0  0  0  0  0  0  0  0  0  0  0  0
   -2.6505    1.7561   -0.3129 H   0  0  0  0  0  0  0  0  0  0  0  0
   -1.2053   -0.2227    1.5305 H   0  0  0  0  0  0  0  0  0  0  0  0
   -2.1169   -2.0951    0.1654 H   0  0  0  0  0  0  0  0  0  0  0  0
    0.3836   -2.2725   -0.1188 H   0  0  0  0  0  0  0  0  0  0  0  0
  1  2  1  0
  2  3  1  0
  3  4  1  0
  4  5  1  0
  5  6  1  0
  6  7  1  0
  7  8  1  0
  8  9  1  0
  9  3  1  0
  6  4  1  0
  9  7  1  0
  1 10  1  0
  1 11  1  0
  1 12  1  0
  3 13  1  0
  4 14  1  0
  5 15  1  0
  5 16  1  0
  6 17  1  0
  7 18  1  0
  9 19  1  0
M  END
