
     RDKit          3D

 21 22  0  0  0  0  0  0  0  0999 V2000
   -2.9697    0.9073    0.4238 C   0  0  0  0  0  0  0  0  0  0  0  0
   -1.6585    1.1607    0.1771 O   0  0  0  0  0  0  0  0  0  0  0  0
   -0.7785    0.1542    0.1696 C   0  0  0  0  0  0  0  0  0  0  0  0
   -0.1169   -0.1076   -1.1724 C   0  0  0  0  0  0  0  0  0  0  0  0
    1.0295   -1.0293   -0.8404 C   0  0  0  0  0  0  0  0  0  0  0  0
    2.3373   -0.4514   -0.3855 C   0  0  0  0  0  0  0  0  0  0  0  0
    2.5063    0.8941   -0.6872 O   0  0  0  0  0  0  0  0  0  0  0  0
    1.2892   -0.8691    0.5951 C   0  0  0  0  0  0  0  0  0  0  0  0
    0.3571    0.2047    1.1322 C   0  0  0  0  0  0  0  0  0  0  0  0
   -3.5410    1.8492    0.3900 H   0  0  0  0  0  0  0  0  0  0  0  0
   -3.3681    0.2694   -0.3936 H   0  0  0  0  0  0  0  0  0  0  0  0
   -3.1990    0.4092    1.3706 H   0  0  0  0  0  0  0  0  0  0  0  0
   -1.3498   -0.7979    0.3900 H   0  0  0  0  0  0  0  0  0  0  0  0
   -0.8286   -0.6942   -1.8033 H   0  0  0  0  0  0  0  0  0  0  0  0
    0.2097    0.8107   -1.6760 H   0  0  0  0  0  0  0  0  0  0  0  0
    1.0916   -2.0264   -1.3311 H   0  0  0  0  0  0  0  0  0  0  0  0
    3.2256   -1.0777   -0.4764 H   0  0  0  0  0  0  0  0  0  0  0  0
    3.4106    1.1563   -0.3353 H   0  0  0  0  0  0  0  0  0  0  0  0
    1.4407   -1.7941    1.1799 H   0  0  0  0  0  0  0  0  0  0  0  0
    0.9250    1.1290    1.1463 H   0  0  0  0  0  0  0  0  0  0  0  0
   -0.0127   -0.0972    2.1267 H   0  0  0  0  0  0  0  0  0  0  0  0
  1  2  1  0
  2  3  1  0
  3  4  1  0
  4  5  1  0
  5  6  1  0
  6  7  1  0
  6  8  1  0
  8  9  1  0
  9  3  1  0
  8  5  1  0
  1 10  1  0
  1 11  1  0
  1 12  1  0
  3 13  1  0
  4 14  1  0
  4 15  1  0
  5 16  1  0
  6 17  1  0
  7 18  1  0
  8 19  1  0
  9 20  1  0
  9 21  1  0
M  END
