
     RDKit          3D

 17 20  0  0  0  0  0  0  0  0999 V2000
    2.4368   -0.1643   -0.1908 C   0  0  0  0  0  0  0  0  0  0  0  0
    1.3187   -0.8956   -0.6630 O   0  0  0  0  0  0  0  0  0  0  0  0
    0.2560   -0.4564   -0.2589 C   0  0  0  0  0  0  0  0  0  0  0  0
   -0.3182   -0.2707    1.2431 C   0  0  0  0  0  0  0  0  0  0  0  0
   -1.7744    0.0683    0.6276 C   0  0  0  0  0  0  0  0  0  0  0  0
   -1.3005   -0.8250    0.0486 C   0  0  0  0  0  0  0  0  0  0  0  0
   -0.2523    0.4587    0.3247 C   0  0  0  0  0  0  0  0  0  0  0  0
   -1.1391   -0.1254   -0.8918 C   0  0  0  0  0  0  0  0  0  0  0  0
   -1.2335    0.9980   -1.6589 O   0  0  0  0  0  0  0  0  0  0  0  0
    2.3751   -0.2540    0.9231 H   0  0  0  0  0  0  0  0  0  0  0  0
    2.2272    0.9060   -0.4734 H   0  0  0  0  0  0  0  0  0  0  0  0
    3.3724   -0.5291   -0.6130 H   0  0  0  0  0  0  0  0  0  0  0  0
   -0.3152   -1.2142    1.8185 H   0  0  0  0  0  0  0  0  0  0  0  0
   -2.1284    1.0855    0.7995 H   0  0  0  0  0  0  0  0  0  0  0  0
   -0.9764   -1.8311    0.3090 H   0  0  0  0  0  0  0  0  0  0  0  0
   -0.5671    1.4600    0.0844 H   0  0  0  0  0  0  0  0  0  0  0  0
   -1.9813    1.5892   -1.4286 H   0  0  0  0  0  0  0  0  0  0  0  0
  1  2  1  0
  2  3  1  0
  3  4  1  0
  4  5  1  0
  5  6  1  0
  6  7  1  0
  6  8  1  0
  8  9  1  0
  7  3  1  0
  8  3  1  0
  7  4  1  0
  8  5  1  0
  1 10  1  0
  1 11  1  0
  1 12  1  0
  4 13  1  0
  5 14  1  0
  6 15  1  0
  7 16  1  0
  9 17  1  0
M  END
