
     RDKit          3D

 21 22  0  0  0  0  0  0  0  0999 V2000
    3.2896   -0.6734    0.0435 C   0  0  0  0  0  0  0  0  0  0  0  0
    2.2688    0.1322    0.5249 O   0  0  0  0  0  0  0  0  0  0  0  0
    1.2863    0.2093   -0.4180 C   0  0  0  0  0  0  0  0  0  0  0  0
    0.5562    1.5228   -0.6251 C   0  0  0  0  0  0  0  0  0  0  0  0
   -0.1254    0.3875   -0.0495 C   0  0  0  0  0  0  0  0  0  0  0  0
   -1.1433   -0.4550   -0.7044 C   0  0  0  0  0  0  0  0  0  0  0  0
   -1.5705   -0.6362    0.7343 C   0  0  0  0  0  0  0  0  0  0  0  0
   -3.0118   -0.2167    0.9617 C   0  0  0  0  0  0  0  0  0  0  0  0
   -0.6279    0.2746    1.1972 O   0  0  0  0  0  0  0  0  0  0  0  0
    4.1292   -0.7860    0.7550 H   0  0  0  0  0  0  0  0  0  0  0  0
    2.8270   -1.6618   -0.2067 H   0  0  0  0  0  0  0  0  0  0  0  0
    3.6165   -0.2442   -0.9316 H   0  0  0  0  0  0  0  0  0  0  0  0
    1.4627   -0.3539   -1.3550 H   0  0  0  0  0  0  0  0  0  0  0  0
    0.8628    2.3525    0.0418 H   0  0  0  0  0  0  0  0  0  0  0  0
    0.3479    1.8531   -1.6738 H   0  0  0  0  0  0  0  0  0  0  0  0
   -0.8045   -1.4185   -1.1544 H   0  0  0  0  0  0  0  0  0  0  0  0
   -1.8936    0.0600   -1.3360 H   0  0  0  0  0  0  0  0  0  0  0  0
   -1.3262   -1.6477    1.1308 H   0  0  0  0  0  0  0  0  0  0  0  0
   -3.1095    0.8507    1.2192 H   0  0  0  0  0  0  0  0  0  0  0  0
   -3.4081   -0.8649    1.7824 H   0  0  0  0  0  0  0  0  0  0  0  0
   -3.6263   -0.4317    0.0637 H   0  0  0  0  0  0  0  0  0  0  0  0
  1  2  1  0
  2  3  1  0
  3  4  1  0
  4  5  1  0
  5  6  1  0
  6  7  1  0
  7  8  1  0
  7  9  1  0
  5  3  1  0
  9  5  1  0
  1 10  1  0
  1 11  1  0
  1 12  1  0
  3 13  1  0
  4 14  1  0
  4 15  1  0
  6 16  1  0
  6 17  1  0
  7 18  1  0
  8 19  1  0
  8 20  1  0
  8 21  1  0
M  END
