
     RDKit          3D

 23 23  0  0  0  0  0  0  0  0999 V2000
    3.5650    0.0860   -0.0257 C   0  0  0  0  0  0  0  0  0  0  0  0
    2.3523   -0.5399    0.2217 O   0  0  0  0  0  0  0  0  0  0  0  0
    1.2588    0.2303   -0.0727 C   0  0  0  0  0  0  0  0  0  0  0  0
    0.2338    0.2964    1.0670 C   0  0  0  0  0  0  0  0  0  0  0  0
   -0.5780   -0.7355    0.3675 C   0  0  0  0  0  0  0  0  0  0  0  0
   -2.0450   -0.5025    0.2470 C   0  0  0  0  0  0  0  0  0  0  0  0
   -2.4072    0.7431   -0.4946 C   0  0  0  0  0  0  0  0  0  0  0  0
   -2.5939   -0.4199    1.5235 O   0  0  0  0  0  0  0  0  0  0  0  0
    0.2407   -0.5222   -0.8810 C   0  0  0  0  0  0  0  0  0  0  0  0
    3.7063    0.3806   -1.0690 H   0  0  0  0  0  0  0  0  0  0  0  0
    4.3636   -0.6647    0.2184 H   0  0  0  0  0  0  0  0  0  0  0  0
    3.7505    0.9401    0.6711 H   0  0  0  0  0  0  0  0  0  0  0  0
    1.4491    1.2435   -0.4664 H   0  0  0  0  0  0  0  0  0  0  0  0
   -0.2170    1.2945    1.2081 H   0  0  0  0  0  0  0  0  0  0  0  0
    0.7372   -0.0163    2.0111 H   0  0  0  0  0  0  0  0  0  0  0  0
   -0.3869   -1.7427    0.8112 H   0  0  0  0  0  0  0  0  0  0  0  0
   -2.5061   -1.3560   -0.2584 H   0  0  0  0  0  0  0  0  0  0  0  0
   -1.9958    1.6695   -0.0405 H   0  0  0  0  0  0  0  0  0  0  0  0
   -2.1716    0.7172   -1.5656 H   0  0  0  0  0  0  0  0  0  0  0  0
   -3.5229    0.8532   -0.4281 H   0  0  0  0  0  0  0  0  0  0  0  0
   -3.5847   -0.5155    1.4374 H   0  0  0  0  0  0  0  0  0  0  0  0
    0.5981   -1.4924   -1.3023 H   0  0  0  0  0  0  0  0  0  0  0  0
   -0.2463    0.0533   -1.6843 H   0  0  0  0  0  0  0  0  0  0  0  0
  1  2  1  0
  2  3  1  0
  3  4  1  0
  4  5  1  0
  5  6  1  0
  6  7  1  0
  6  8  1  0
  5  9  1  0
  9  3  1  0
  1 10  1  0
  1 11  1  0
  1 12  1  0
  3 13  1  0
  4 14  1  0
  4 15  1  0
  5 16  1  0
  6 17  1  0
  7 18  1  0
  7 19  1  0
  7 20  1  0
  8 21  1  0
  9 22  1  0
  9 23  1  0
M  END
