
     RDKit          3D

 19 19  0  0  0  0  0  0  0  0999 V2000
    2.2786    1.1743    0.0244 C   0  0  0  0  0  0  0  0  0  0  0  0
    1.3811    0.4146   -0.7259 O   0  0  0  0  0  0  0  0  0  0  0  0
    0.6689   -0.4346    0.1105 C   0  0  0  0  0  0  0  0  0  0  0  0
    0.2042   -1.7220   -0.4616 C   0  0  0  0  0  0  0  0  0  0  0  0
   -0.8093   -0.6787   -0.1929 C   0  0  0  0  0  0  0  0  0  0  0  0
   -1.7161   -0.8442    1.0248 C   0  0  0  0  0  0  0  0  0  0  0  0
   -1.3634    0.0925   -1.2151 O   0  0  0  0  0  0  0  0  0  0  0  0
   -1.3517    1.4746   -1.0747 C   0  0  0  0  0  0  0  0  0  0  0  0
   -0.8802    2.0797   -0.0977 O   0  0  0  0  0  0  0  0  0  0  0  0
    1.7216    1.7761    0.7676 H   0  0  0  0  0  0  0  0  0  0  0  0
    2.9387    1.7891   -0.6189 H   0  0  0  0  0  0  0  0  0  0  0  0
    2.9656    0.4833    0.5817 H   0  0  0  0  0  0  0  0  0  0  0  0
    0.9242   -0.3700    1.2036 H   0  0  0  0  0  0  0  0  0  0  0  0
    0.1449   -2.6473    0.1595 H   0  0  0  0  0  0  0  0  0  0  0  0
    0.5003   -1.9318   -1.5138 H   0  0  0  0  0  0  0  0  0  0  0  0
   -2.6430   -0.2429    0.9249 H   0  0  0  0  0  0  0  0  0  0  0  0
   -1.1489   -0.5749    1.9575 H   0  0  0  0  0  0  0  0  0  0  0  0
   -2.0264   -1.9130    1.0282 H   0  0  0  0  0  0  0  0  0  0  0  0
   -1.7890    2.0753   -1.8821 H   0  0  0  0  0  0  0  0  0  0  0  0
  1  2  1  0
  2  3  1  0
  3  4  1  0
  4  5  1  0
  5  6  1  0
  5  7  1  0
  7  8  1  0
  8  9  2  0
  5  3  1  0
  1 10  1  0
  1 11  1  0
  1 12  1  0
  3 13  1  0
  4 14  1  0
  4 15  1  0
  6 16  1  0
  6 17  1  0
  6 18  1  0
  8 19  1  0
M  END
