
     RDKit          3D

 19 21  0  0  0  0  0  0  0  0999 V2000
    2.8470   -0.2529   -0.4927 C   0  0  0  0  0  0  0  0  0  0  0  0
    1.5138   -0.2767   -0.8472 O   0  0  0  0  0  0  0  0  0  0  0  0
    0.7792    0.3291    0.1469 C   0  0  0  0  0  0  0  0  0  0  0  0
    0.0226    1.3720   -0.3407 O   0  0  0  0  0  0  0  0  0  0  0  0
   -1.3076    1.1426   -0.1040 C   0  0  0  0  0  0  0  0  0  0  0  0
   -1.8739    0.0237   -0.9887 C   0  0  0  0  0  0  0  0  0  0  0  0
   -1.4354   -0.9574    0.0874 C   0  0  0  0  0  0  0  0  0  0  0  0
   -1.3598    0.1618    1.0228 C   0  0  0  0  0  0  0  0  0  0  0  0
   -0.1728   -0.6615    0.8052 C   0  0  0  0  0  0  0  0  0  0  0  0
    3.1294    0.8348   -0.3803 H   0  0  0  0  0  0  0  0  0  0  0  0
    2.9231   -0.7302    0.5272 H   0  0  0  0  0  0  0  0  0  0  0  0
    3.5148   -0.7551   -1.2145 H   0  0  0  0  0  0  0  0  0  0  0  0
    1.4529    0.6706    0.9590 H   0  0  0  0  0  0  0  0  0  0  0  0
   -1.9563    2.0066    0.0242 H   0  0  0  0  0  0  0  0  0  0  0  0
   -2.9768    0.0684   -1.0415 H   0  0  0  0  0  0  0  0  0  0  0  0
   -1.3508   -0.0938   -1.9557 H   0  0  0  0  0  0  0  0  0  0  0  0
   -2.0091   -1.8704    0.2635 H   0  0  0  0  0  0  0  0  0  0  0  0
   -1.9096    0.2985    1.9258 H   0  0  0  0  0  0  0  0  0  0  0  0
    0.1696   -1.3101    1.6035 H   0  0  0  0  0  0  0  0  0  0  0  0
  1  2  1  0
  2  3  1  0
  3  4  1  0
  4  5  1  0
  5  6  1  0
  6  7  1  0
  7  8  1  0
  8  9  1  0
  9  3  1  0
  8  5  1  0
  9  7  1  0
  1 10  1  0
  1 11  1  0
  1 12  1  0
  3 13  1  0
  5 14  1  0
  6 15  1  0
  6 16  1  0
  7 17  1  0
  8 18  1  0
  9 19  1  0
M  END
