
     RDKit          3D

 15 16  0  0  0  0  0  0  0  0999 V2000
    2.0671   -0.1174   -0.1086 C   0  0  0  0  0  0  0  0  0  0  0  0
    0.9505   -0.8493   -0.4771 O   0  0  0  0  0  0  0  0  0  0  0  0
   -0.2299   -0.1868   -0.3713 C   0  0  0  0  0  0  0  0  0  0  0  0
   -0.4721    1.0424   -1.1298 C   0  0  0  0  0  0  0  0  0  0  0  0
   -0.1122    1.4900   -2.2325 O   0  0  0  0  0  0  0  0  0  0  0  0
   -1.2887    1.5912   -0.1619 O   0  0  0  0  0  0  0  0  0  0  0  0
   -0.6669    0.6554    0.7366 C   0  0  0  0  0  0  0  0  0  0  0  0
   -1.2008   -0.6920    0.6407 C   0  0  0  0  0  0  0  0  0  0  0  0
   -2.5387   -0.9288    0.2602 O   0  0  0  0  0  0  0  0  0  0  0  0
    2.9695   -0.7295   -0.2260 H   0  0  0  0  0  0  0  0  0  0  0  0
    2.0747    0.8110   -0.7172 H   0  0  0  0  0  0  0  0  0  0  0  0
    1.9796    0.1566    0.9515 H   0  0  0  0  0  0  0  0  0  0  0  0
   -0.0318    1.0459    1.5308 H   0  0  0  0  0  0  0  0  0  0  0  0
   -0.8251   -1.4426    1.3592 H   0  0  0  0  0  0  0  0  0  0  0  0
   -2.6751   -1.8460   -0.0545 H   0  0  0  0  0  0  0  0  0  0  0  0
  1  2  1  0
  2  3  1  0
  3  4  1  0
  4  5  2  0
  4  6  1  0
  6  7  1  0
  7  8  1  0
  8  9  1  0
  7  3  1  0
  8  3  1  0
  1 10  1  0
  1 11  1  0
  1 12  1  0
  7 13  1  0
  8 14  1  0
  9 15  1  0
M  END
