
     RDKit          3D

 18 19  0  0  0  0  0  0  0  0999 V2000
    2.6411    0.7881   -0.1116 C   0  0  0  0  0  0  0  0  0  0  0  0
    1.3360    0.8255    0.2872 O   0  0  0  0  0  0  0  0  0  0  0  0
    0.6261   -0.3611    0.0324 C   0  0  0  0  0  0  0  0  0  0  0  0
   -0.3725   -0.7577    0.9612 C   0  0  0  0  0  0  0  0  0  0  0  0
   -1.6994   -0.3545    1.0874 O   0  0  0  0  0  0  0  0  0  0  0  0
   -1.8680   -1.2338   -0.0206 C   0  0  0  0  0  0  0  0  0  0  0  0
   -0.7122   -0.3569   -0.5312 C   0  0  0  0  0  0  0  0  0  0  0  0
   -1.2502    1.0752   -0.6907 C   0  0  0  0  0  0  0  0  0  0  0  0
    3.2203   -0.0023    0.3816 H   0  0  0  0  0  0  0  0  0  0  0  0
    3.0897    1.7843    0.0706 H   0  0  0  0  0  0  0  0  0  0  0  0
    2.6519    0.6568   -1.2236 H   0  0  0  0  0  0  0  0  0  0  0  0
    1.3150   -1.1120   -0.4628 H   0  0  0  0  0  0  0  0  0  0  0  0
   -0.3697   -1.8760    1.1612 H   0  0  0  0  0  0  0  0  0  0  0  0
   -2.7893   -1.0233   -0.6016 H   0  0  0  0  0  0  0  0  0  0  0  0
   -1.6353   -2.2743    0.1551 H   0  0  0  0  0  0  0  0  0  0  0  0
   -1.8807    1.3837    0.1379 H   0  0  0  0  0  0  0  0  0  0  0  0
   -1.8499    1.0363   -1.6436 H   0  0  0  0  0  0  0  0  0  0  0  0
   -0.4531    1.8020   -0.8323 H   0  0  0  0  0  0  0  0  0  0  0  0
  1  2  1  0
  2  3  1  0
  3  4  1  0
  4  5  1  0
  5  6  1  0
  6  7  1  0
  7  8  1  0
  7  3  1  0
  7  4  1  0
  1  9  1  0
  1 10  1  0
  1 11  1  0
  3 12  1  0
  4 13  1  0
  6 14  1  0
  6 15  1  0
  8 16  1  0
  8 17  1  0
  8 18  1  0
M  END
