
     RDKit          3D

 21 22  0  0  0  0  0  0  0  0999 V2000
    2.6870    0.3166    0.5574 C   0  0  0  0  0  0  0  0  0  0  0  0
    1.5487   -0.5091    0.5019 O   0  0  0  0  0  0  0  0  0  0  0  0
    0.5643    0.1451   -0.1889 C   0  0  0  0  0  0  0  0  0  0  0  0
    0.1551   -0.6131   -1.4673 C   0  0  0  0  0  0  0  0  0  0  0  0
   -1.1973   -0.9847   -1.2287 O   0  0  0  0  0  0  0  0  0  0  0  0
   -1.1049   -1.3124    0.0889 C   0  0  0  0  0  0  0  0  0  0  0  0
   -1.4629   -0.6918    1.3017 C   0  0  0  0  0  0  0  0  0  0  0  0
   -0.7627    0.1928    0.4656 C   0  0  0  0  0  0  0  0  0  0  0  0
   -1.6610    1.2406   -0.2228 C   0  0  0  0  0  0  0  0  0  0  0  0
    2.9756    0.4954   -0.5053 H   0  0  0  0  0  0  0  0  0  0  0  0
    2.3941    1.3265    0.9601 H   0  0  0  0  0  0  0  0  0  0  0  0
    3.4899   -0.1031    1.1580 H   0  0  0  0  0  0  0  0  0  0  0  0
    0.8952    1.1433   -0.5288 H   0  0  0  0  0  0  0  0  0  0  0  0
    0.2702   -0.0163   -2.3584 H   0  0  0  0  0  0  0  0  0  0  0  0
    0.7112   -1.5764   -1.4673 H   0  0  0  0  0  0  0  0  0  0  0  0
   -0.2456   -2.0486    0.1901 H   0  0  0  0  0  0  0  0  0  0  0  0
   -2.5469   -0.5464    1.5213 H   0  0  0  0  0  0  0  0  0  0  0  0
   -0.9574   -0.9935    2.2675 H   0  0  0  0  0  0  0  0  0  0  0  0
   -1.7620    2.1114    0.4635 H   0  0  0  0  0  0  0  0  0  0  0  0
   -1.2881    1.5858   -1.1776 H   0  0  0  0  0  0  0  0  0  0  0  0
   -2.7025    0.8378   -0.3310 H   0  0  0  0  0  0  0  0  0  0  0  0
  1  2  1  0
  2  3  1  0
  3  4  1  0
  4  5  1  0
  5  6  1  0
  6  7  1  0
  7  8  1  0
  8  9  1  0
  8  3  1  0
  8  6  1  0
  1 10  1  0
  1 11  1  0
  1 12  1  0
  3 13  1  0
  4 14  1  0
  4 15  1  0
  6 16  1  0
  7 17  1  0
  7 18  1  0
  9 19  1  0
  9 20  1  0
  9 21  1  0
M  END
