
     RDKit          3D

 21 22  0  0  0  0  0  0  0  0999 V2000
    2.1818   -1.8602   -0.2053 C   0  0  0  0  0  0  0  0  0  0  0  0
    1.4490   -0.8673   -0.8106 O   0  0  0  0  0  0  0  0  0  0  0  0
    0.3539   -0.4317   -0.1269 C   0  0  0  0  0  0  0  0  0  0  0  0
    0.5800    1.0127    0.2672 C   0  0  0  0  0  0  0  0  0  0  0  0
    1.2582    1.6313   -0.7929 O   0  0  0  0  0  0  0  0  0  0  0  0
   -0.7875    1.5807    0.4295 C   0  0  0  0  0  0  0  0  0  0  0  0
   -1.7048    0.7376   -0.3984 C   0  0  0  0  0  0  0  0  0  0  0  0
   -2.1747   -0.5875    0.0820 C   0  0  0  0  0  0  0  0  0  0  0  0
   -0.9303   -0.4217   -0.8460 C   0  0  0  0  0  0  0  0  0  0  0  0
    3.0322   -2.1082   -0.8732 H   0  0  0  0  0  0  0  0  0  0  0  0
    1.6190   -2.7354    0.1046 H   0  0  0  0  0  0  0  0  0  0  0  0
    2.6368   -1.4194    0.7164 H   0  0  0  0  0  0  0  0  0  0  0  0
    0.2674   -1.0005    0.8412 H   0  0  0  0  0  0  0  0  0  0  0  0
    1.1657    1.0739    1.2055 H   0  0  0  0  0  0  0  0  0  0  0  0
    1.4781    2.5518   -0.4611 H   0  0  0  0  0  0  0  0  0  0  0  0
   -1.1098    1.6647    1.4845 H   0  0  0  0  0  0  0  0  0  0  0  0
   -0.7787    2.6208    0.0144 H   0  0  0  0  0  0  0  0  0  0  0  0
   -2.4037    1.2892   -1.0854 H   0  0  0  0  0  0  0  0  0  0  0  0
   -1.9864   -0.9405    1.1012 H   0  0  0  0  0  0  0  0  0  0  0  0
   -3.0800   -1.0069   -0.3887 H   0  0  0  0  0  0  0  0  0  0  0  0
   -1.0662   -0.7834   -1.8693 H   0  0  0  0  0  0  0  0  0  0  0  0
  1  2  1  0
  2  3  1  0
  3  4  1  0
  4  5  1  0
  4  6  1  0
  6  7  1  0
  7  8  1  0
  8  9  1  0
  9  3  1  0
  9  7  1  0
  1 10  1  0
  1 11  1  0
  1 12  1  0
  3 13  1  0
  4 14  1  0
  5 15  1  0
  6 16  1  0
  6 17  1  0
  7 18  1  0
  8 19  1  0
  8 20  1  0
  9 21  1  0
M  END
