
     RDKit          3D

 18 19  0  0  0  0  0  0  0  0999 V2000
    3.0493    0.3719   -0.3388 C   0  0  0  0  0  0  0  0  0  0  0  0
    1.9283   -0.1785    0.2231 O   0  0  0  0  0  0  0  0  0  0  0  0
    0.7219    0.3163   -0.2853 C   0  0  0  0  0  0  0  0  0  0  0  0
   -0.3499   -0.5623   -0.5526 C   0  0  0  0  0  0  0  0  0  0  0  0
   -1.7988   -0.4069   -0.7788 C   0  0  0  0  0  0  0  0  0  0  0  0
   -2.2584   -0.4348    0.6972 C   0  0  0  0  0  0  0  0  0  0  0  0
   -1.0616   -0.2785    1.4502 O   0  0  0  0  0  0  0  0  0  0  0  0
   -0.3379    0.5125    0.6145 C   0  0  0  0  0  0  0  0  0  0  0  0
    3.1120    1.4794   -0.1979 H   0  0  0  0  0  0  0  0  0  0  0  0
    3.1910    0.0997   -1.4121 H   0  0  0  0  0  0  0  0  0  0  0  0
    3.9273   -0.0425    0.1980 H   0  0  0  0  0  0  0  0  0  0  0  0
    0.9389    1.0926   -1.0788 H   0  0  0  0  0  0  0  0  0  0  0  0
   -0.1670   -1.6308   -0.2080 H   0  0  0  0  0  0  0  0  0  0  0  0
   -2.2310   -1.2582   -1.3273 H   0  0  0  0  0  0  0  0  0  0  0  0
   -2.1017    0.5719   -1.1871 H   0  0  0  0  0  0  0  0  0  0  0  0
   -2.6275   -1.4559    0.9585 H   0  0  0  0  0  0  0  0  0  0  0  0
   -2.9759    0.3602    0.9060 H   0  0  0  0  0  0  0  0  0  0  0  0
   -0.9590    1.4440    0.4163 H   0  0  0  0  0  0  0  0  0  0  0  0
  1  2  1  0
  2  3  1  0
  3  4  1  0
  4  5  1  0
  5  6  1  0
  6  7  1  0
  7  8  1  0
  8  3  1  0
  8  4  1  0
  1  9  1  0
  1 10  1  0
  1 11  1  0
  3 12  1  0
  4 13  1  0
  5 14  1  0
  5 15  1  0
  6 16  1  0
  6 17  1  0
  8 18  1  0
M  END
