
     RDKit          3D

 21 22  0  0  0  0  0  0  0  0999 V2000
    2.9202   -0.8594    0.7651 C   0  0  0  0  0  0  0  0  0  0  0  0
    2.0974   -0.6122   -0.3582 O   0  0  0  0  0  0  0  0  0  0  0  0
    0.8898   -0.1644    0.1350 C   0  0  0  0  0  0  0  0  0  0  0  0
   -0.1071   -1.0830   -0.2760 O   0  0  0  0  0  0  0  0  0  0  0  0
   -1.3039   -0.3531   -0.4267 C   0  0  0  0  0  0  0  0  0  0  0  0
   -2.3719   -1.1315    0.3222 C   0  0  0  0  0  0  0  0  0  0  0  0
   -1.0082    0.9155    0.2715 C   0  0  0  0  0  0  0  0  0  0  0  0
   -0.4351    2.1429   -0.0802 C   0  0  0  0  0  0  0  0  0  0  0  0
    0.3766    1.0784   -0.4858 C   0  0  0  0  0  0  0  0  0  0  0  0
    3.0093    0.1110    1.2944 H   0  0  0  0  0  0  0  0  0  0  0  0
    3.8674   -1.3229    0.4974 H   0  0  0  0  0  0  0  0  0  0  0  0
    2.3182   -1.5696    1.3964 H   0  0  0  0  0  0  0  0  0  0  0  0
    0.8414   -0.1035    1.2340 H   0  0  0  0  0  0  0  0  0  0  0  0
   -1.5442   -0.2526   -1.4975 H   0  0  0  0  0  0  0  0  0  0  0  0
   -2.0008   -2.0905    0.7197 H   0  0  0  0  0  0  0  0  0  0  0  0
   -3.2073   -1.3621   -0.3639 H   0  0  0  0  0  0  0  0  0  0  0  0
   -2.7306   -0.5192    1.1840 H   0  0  0  0  0  0  0  0  0  0  0  0
   -0.9274    0.6735    1.3797 H   0  0  0  0  0  0  0  0  0  0  0  0
   -0.9870    2.7816   -0.8304 H   0  0  0  0  0  0  0  0  0  0  0  0
   -0.0297    2.8413    0.7109 H   0  0  0  0  0  0  0  0  0  0  0  0
    0.3329    0.8796   -1.6062 H   0  0  0  0  0  0  0  0  0  0  0  0
  1  2  1  0
  2  3  1  0
  3  4  1  0
  4  5  1  0
  5  6  1  0
  5  7  1  0
  7  8  1  0
  8  9  1  0
  9  3  1  0
  9  7  1  0
  1 10  1  0
  1 11  1  0
  1 12  1  0
  3 13  1  0
  5 14  1  0
  6 15  1  0
  6 16  1  0
  6 17  1  0
  7 18  1  0
  8 19  1  0
  8 20  1  0
  9 21  1  0
M  END
