
     RDKit          3D

 21 22  0  0  0  0  0  0  0  0999 V2000
   -3.1864    0.4937   -0.2436 C   0  0  0  0  0  0  0  0  0  0  0  0
   -2.1829   -0.3788    0.2419 O   0  0  0  0  0  0  0  0  0  0  0  0
   -0.9916    0.1714   -0.1449 C   0  0  0  0  0  0  0  0  0  0  0  0
    0.0532   -0.7642   -0.6905 C   0  0  0  0  0  0  0  0  0  0  0  0
    0.1288   -1.2989    0.7080 C   0  0  0  0  0  0  0  0  0  0  0  0
    0.0950    0.1678    0.9087 C   0  0  0  0  0  0  0  0  0  0  0  0
    1.0174    0.2825   -0.2749 C   0  0  0  0  0  0  0  0  0  0  0  0
    2.4442   -0.0331   -0.0772 C   0  0  0  0  0  0  0  0  0  0  0  0
    3.0822    1.1703    0.3071 O   0  0  0  0  0  0  0  0  0  0  0  0
   -3.0544    0.5130   -1.3498 H   0  0  0  0  0  0  0  0  0  0  0  0
   -2.9056    1.5256    0.1137 H   0  0  0  0  0  0  0  0  0  0  0  0
   -4.1853    0.2021    0.0830 H   0  0  0  0  0  0  0  0  0  0  0  0
   -1.0232    1.1086   -0.7128 H   0  0  0  0  0  0  0  0  0  0  0  0
    0.0096   -1.2864   -1.5415 H   0  0  0  0  0  0  0  0  0  0  0  0
   -0.8225   -1.8410    0.9350 H   0  0  0  0  0  0  0  0  0  0  0  0
    1.0017   -1.8774    1.0009 H   0  0  0  0  0  0  0  0  0  0  0  0
    0.1103    0.7071    1.7456 H   0  0  0  0  0  0  0  0  0  0  0  0
    0.8009    1.2345   -0.8467 H   0  0  0  0  0  0  0  0  0  0  0  0
    2.6087   -0.7082    0.7850 H   0  0  0  0  0  0  0  0  0  0  0  0
    2.9476   -0.4984   -0.9430 H   0  0  0  0  0  0  0  0  0  0  0  0
    4.0523    1.1099    0.2222 H   0  0  0  0  0  0  0  0  0  0  0  0
  1  2  1  0
  2  3  1  0
  3  4  1  0
  4  5  1  0
  5  6  1  0
  6  7  1  0
  7  8  1  0
  8  9  1  0
  6  3  1  0
  7  4  1  0
  1 10  1  0
  1 11  1  0
  1 12  1  0
  3 13  1  0
  4 14  1  0
  5 15  1  0
  5 16  1  0
  6 17  1  0
  7 18  1  0
  8 19  1  0
  8 20  1  0
  9 21  1  0
M  END
