
     RDKit          3D

 23 23  0  0  0  0  0  0  0  0999 V2000
    3.3255   -0.7353   -0.6246 C   0  0  0  0  0  0  0  0  0  0  0  0
    2.6497   -0.1974    0.4643 O   0  0  0  0  0  0  0  0  0  0  0  0
    1.4389    0.3019    0.0307 C   0  0  0  0  0  0  0  0  0  0  0  0
    1.0951    1.6389    0.6607 C   0  0  0  0  0  0  0  0  0  0  0  0
    0.2711    0.3969    0.9402 C   0  0  0  0  0  0  0  0  0  0  0  0
   -1.0808    0.3997    0.3166 C   0  0  0  0  0  0  0  0  0  0  0  0
   -1.3802   -0.8410   -0.4856 C   0  0  0  0  0  0  0  0  0  0  0  0
   -2.7776   -0.6762   -1.0438 C   0  0  0  0  0  0  0  0  0  0  0  0
   -3.6725   -0.5370    0.0163 O   0  0  0  0  0  0  0  0  0  0  0  0
    4.3005   -1.1407   -0.2927 H   0  0  0  0  0  0  0  0  0  0  0  0
    3.5269    0.0548   -1.3845 H   0  0  0  0  0  0  0  0  0  0  0  0
    2.7216   -1.5158   -1.1233 H   0  0  0  0  0  0  0  0  0  0  0  0
    1.2497    0.1811   -1.0578 H   0  0  0  0  0  0  0  0  0  0  0  0
    0.7286    2.3908   -0.0441 H   0  0  0  0  0  0  0  0  0  0  0  0
    1.7041    2.0226    1.4955 H   0  0  0  0  0  0  0  0  0  0  0  0
    0.4274   -0.0743    1.9441 H   0  0  0  0  0  0  0  0  0  0  0  0
   -1.1948    1.2588   -0.3700 H   0  0  0  0  0  0  0  0  0  0  0  0
   -1.8293    0.5304    1.1509 H   0  0  0  0  0  0  0  0  0  0  0  0
   -0.6400   -0.8844   -1.3068 H   0  0  0  0  0  0  0  0  0  0  0  0
   -1.2600   -1.7454    0.1267 H   0  0  0  0  0  0  0  0  0  0  0  0
   -2.7815    0.2968   -1.5934 H   0  0  0  0  0  0  0  0  0  0  0  0
   -3.0589   -1.5001   -1.7280 H   0  0  0  0  0  0  0  0  0  0  0  0
   -3.7634    0.3750    0.3344 H   0  0  0  0  0  0  0  0  0  0  0  0
  1  2  1  0
  2  3  1  0
  3  4  1  0
  4  5  1  0
  5  6  1  0
  6  7  1  0
  7  8  1  0
  8  9  1  0
  5  3  1  0
  1 10  1  0
  1 11  1  0
  1 12  1  0
  3 13  1  0
  4 14  1  0
  4 15  1  0
  5 16  1  0
  6 17  1  0
  6 18  1  0
  7 19  1  0
  7 20  1  0
  8 21  1  0
  8 22  1  0
  9 23  1  0
M  END
