
     RDKit          3D

 21 22  0  0  0  0  0  0  0  0999 V2000
   -2.6175   -0.9059    0.9081 C   0  0  0  0  0  0  0  0  0  0  0  0
   -1.4489   -0.1352    0.8203 O   0  0  0  0  0  0  0  0  0  0  0  0
   -0.9708   -0.0579   -0.4627 C   0  0  0  0  0  0  0  0  0  0  0  0
   -0.8462    1.4383   -0.8227 C   0  0  0  0  0  0  0  0  0  0  0  0
    0.5413    1.7257   -0.6947 O   0  0  0  0  0  0  0  0  0  0  0  0
    0.8738    0.8901    0.3238 C   0  0  0  0  0  0  0  0  0  0  0  0
    1.5270   -0.3472    0.4242 C   0  0  0  0  0  0  0  0  0  0  0  0
    2.9761   -0.4194   -0.0657 C   0  0  0  0  0  0  0  0  0  0  0  0
    0.4647   -0.4046   -0.4944 C   0  0  0  0  0  0  0  0  0  0  0  0
   -3.3604   -0.4031    0.2569 H   0  0  0  0  0  0  0  0  0  0  0  0
   -2.4331   -1.9525    0.5988 H   0  0  0  0  0  0  0  0  0  0  0  0
   -2.9128   -0.8950    1.9771 H   0  0  0  0  0  0  0  0  0  0  0  0
   -1.5641   -0.6000   -1.2085 H   0  0  0  0  0  0  0  0  0  0  0  0
   -1.4328    2.0432   -0.1047 H   0  0  0  0  0  0  0  0  0  0  0  0
   -1.1854    1.5618   -1.8613 H   0  0  0  0  0  0  0  0  0  0  0  0
    0.1978    1.1404    1.2020 H   0  0  0  0  0  0  0  0  0  0  0  0
    1.4329   -0.9643    1.3662 H   0  0  0  0  0  0  0  0  0  0  0  0
    2.9403   -0.2853   -1.1628 H   0  0  0  0  0  0  0  0  0  0  0  0
    3.4300   -1.3940    0.1389 H   0  0  0  0  0  0  0  0  0  0  0  0
    3.5919    0.3663    0.4428 H   0  0  0  0  0  0  0  0  0  0  0  0
    0.7960   -0.4016   -1.5816 H   0  0  0  0  0  0  0  0  0  0  0  0
  1  2  1  0
  2  3  1  0
  3  4  1  0
  4  5  1  0
  5  6  1  0
  6  7  1  0
  7  8  1  0
  7  9  1  0
  9  3  1  0
  9  6  1  0
  1 10  1  0
  1 11  1  0
  1 12  1  0
  3 13  1  0
  4 14  1  0
  4 15  1  0
  6 16  1  0
  7 17  1  0
  8 18  1  0
  8 19  1  0
  8 20  1  0
  9 21  1  0
M  END
