
     RDKit          3D

 15 15  0  0  0  0  0  0  0  0999 V2000
    2.3743    0.2048   -0.0011 C   0  0  0  0  0  0  0  0  0  0  0  0
    1.1923   -0.2342    0.6253 O   0  0  0  0  0  0  0  0  0  0  0  0
    0.1295    0.0686   -0.2257 C   0  0  0  0  0  0  0  0  0  0  0  0
   -0.8352    0.9934    0.3816 C   0  0  0  0  0  0  0  0  0  0  0  0
   -2.0287    0.4522    0.4041 C   0  0  0  0  0  0  0  0  0  0  0  0
   -2.0172   -0.8783   -0.1737 C   0  0  0  0  0  0  0  0  0  0  0  0
   -2.9995   -1.6606   -0.3008 O   0  0  0  0  0  0  0  0  0  0  0  0
   -0.6488   -1.1327   -0.5778 C   0  0  0  0  0  0  0  0  0  0  0  0
   -0.1818   -2.1813   -1.1316 O   0  0  0  0  0  0  0  0  0  0  0  0
    3.2619   -0.0086    0.6295 H   0  0  0  0  0  0  0  0  0  0  0  0
    2.3187    1.2790   -0.2702 H   0  0  0  0  0  0  0  0  0  0  0  0
    2.5071   -0.3489   -0.9541 H   0  0  0  0  0  0  0  0  0  0  0  0
    0.4860    0.5683   -1.1591 H   0  0  0  0  0  0  0  0  0  0  0  0
   -0.5945    1.9869    0.7594 H   0  0  0  0  0  0  0  0  0  0  0  0
   -2.9642    0.8912    0.7951 H   0  0  0  0  0  0  0  0  0  0  0  0
  1  2  1  0
  2  3  1  0
  3  4  1  0
  4  5  2  0
  5  6  1  0
  6  7  2  0
  6  8  1  0
  8  9  2  0
  8  3  1  0
  1 10  1  0
  1 11  1  0
  1 12  1  0
  3 13  1  0
  4 14  1  0
  5 15  1  0
M  END
