
     RDKit          3D

 18 19  0  0  0  0  0  0  0  0999 V2000
    2.6963    0.0495    0.0953 C   0  0  0  0  0  0  0  0  0  0  0  0
    1.6366   -0.3134    0.9476 O   0  0  0  0  0  0  0  0  0  0  0  0
    0.4673   -0.0325    0.2828 C   0  0  0  0  0  0  0  0  0  0  0  0
   -0.5689   -1.1214    0.2882 C   0  0  0  0  0  0  0  0  0  0  0  0
   -1.6826   -0.5328   -0.5681 C   0  0  0  0  0  0  0  0  0  0  0  0
   -1.6846    0.8710    0.0726 C   0  0  0  0  0  0  0  0  0  0  0  0
   -0.6302    0.5974    1.1139 C   0  0  0  0  0  0  0  0  0  0  0  0
   -0.9019   -0.7039    1.5778 O   0  0  0  0  0  0  0  0  0  0  0  0
    2.5586   -0.5804   -0.8218 H   0  0  0  0  0  0  0  0  0  0  0  0
    3.6802   -0.1014    0.5664 H   0  0  0  0  0  0  0  0  0  0  0  0
    2.5122    1.0971   -0.2151 H   0  0  0  0  0  0  0  0  0  0  0  0
    0.5550    0.3977   -0.7307 H   0  0  0  0  0  0  0  0  0  0  0  0
   -0.2819   -2.1312    0.1245 H   0  0  0  0  0  0  0  0  0  0  0  0
   -1.4098   -0.4823   -1.6331 H   0  0  0  0  0  0  0  0  0  0  0  0
   -2.6255   -1.0568   -0.3617 H   0  0  0  0  0  0  0  0  0  0  0  0
   -2.6626    1.1265    0.4830 H   0  0  0  0  0  0  0  0  0  0  0  0
   -1.2794    1.5722   -0.6619 H   0  0  0  0  0  0  0  0  0  0  0  0
   -0.3789    1.3447    1.8242 H   0  0  0  0  0  0  0  0  0  0  0  0
  1  2  1  0
  2  3  1  0
  3  4  1  0
  4  5  1  0
  5  6  1  0
  6  7  1  0
  7  8  1  0
  7  3  1  0
  8  4  1  0
  1  9  1  0
  1 10  1  0
  1 11  1  0
  3 12  1  0
  4 13  1  0
  5 14  1  0
  5 15  1  0
  6 16  1  0
  6 17  1  0
  7 18  1  0
M  END
