
     RDKit          3D

 18 19  0  0  0  0  0  0  0  0999 V2000
    2.1917    0.0191    0.1890 C   0  0  0  0  0  0  0  0  0  0  0  0
    1.3196    0.6828   -0.6338 O   0  0  0  0  0  0  0  0  0  0  0  0
    0.0297    0.2485   -0.5484 C   0  0  0  0  0  0  0  0  0  0  0  0
   -0.3453   -1.1772   -0.8640 C   0  0  0  0  0  0  0  0  0  0  0  0
   -1.0748   -1.2114    0.4819 C   0  0  0  0  0  0  0  0  0  0  0  0
   -0.7850    0.2731    0.6652 C   0  0  0  0  0  0  0  0  0  0  0  0
   -1.1199    1.1832   -0.4502 C   0  0  0  0  0  0  0  0  0  0  0  0
   -0.9377    2.5328   -0.2733 O   0  0  0  0  0  0  0  0  0  0  0  0
    3.2150    0.4438    0.0476 H   0  0  0  0  0  0  0  0  0  0  0  0
    1.9192    0.1491    1.2514 H   0  0  0  0  0  0  0  0  0  0  0  0
    2.2773   -1.0671   -0.0448 H   0  0  0  0  0  0  0  0  0  0  0  0
   -1.0692   -1.1787   -1.7180 H   0  0  0  0  0  0  0  0  0  0  0  0
    0.4667   -1.8965   -0.9550 H   0  0  0  0  0  0  0  0  0  0  0  0
   -0.5234   -1.8773    1.1799 H   0  0  0  0  0  0  0  0  0  0  0  0
   -2.1325   -1.4599    0.4113 H   0  0  0  0  0  0  0  0  0  0  0  0
   -0.4460    0.6197    1.6447 H   0  0  0  0  0  0  0  0  0  0  0  0
   -2.0393    0.9290   -1.0485 H   0  0  0  0  0  0  0  0  0  0  0  0
   -0.9460    2.7871    0.6651 H   0  0  0  0  0  0  0  0  0  0  0  0
  1  2  1  0
  2  3  1  0
  3  4  1  0
  4  5  1  0
  5  6  1  0
  6  7  1  0
  7  8  1  0
  6  3  1  0
  7  3  1  0
  1  9  1  0
  1 10  1  0
  1 11  1  0
  4 12  1  0
  4 13  1  0
  5 14  1  0
  5 15  1  0
  6 16  1  0
  7 17  1  0
  8 18  1  0
M  END
