
     RDKit          3D

 21 22  0  0  0  0  0  0  0  0999 V2000
   -2.3854    1.0583    0.0500 C   0  0  0  0  0  0  0  0  0  0  0  0
   -1.0812    0.9860   -0.3183 O   0  0  0  0  0  0  0  0  0  0  0  0
   -0.4133   -0.1907    0.1180 C   0  0  0  0  0  0  0  0  0  0  0  0
   -1.1546   -1.3854   -0.5021 C   0  0  0  0  0  0  0  0  0  0  0  0
   -0.7305   -0.7029   -1.6741 O   0  0  0  0  0  0  0  0  0  0  0  0
    0.5125   -0.7747   -1.0263 C   0  0  0  0  0  0  0  0  0  0  0  0
    1.0197   -0.0141    0.0674 C   0  0  0  0  0  0  0  0  0  0  0  0
    1.6790    1.3320   -0.2804 C   0  0  0  0  0  0  0  0  0  0  0  0
    1.8028   -0.6875    1.2093 C   0  0  0  0  0  0  0  0  0  0  0  0
   -2.5424    1.0351    1.1659 H   0  0  0  0  0  0  0  0  0  0  0  0
   -3.0995    0.4277   -0.4770 H   0  0  0  0  0  0  0  0  0  0  0  0
   -2.7025    2.1170   -0.2097 H   0  0  0  0  0  0  0  0  0  0  0  0
   -0.7172   -2.3585   -0.3266 H   0  0  0  0  0  0  0  0  0  0  0  0
   -2.2126   -1.3870   -0.3148 H   0  0  0  0  0  0  0  0  0  0  0  0
    0.7507   -1.8811   -0.9425 H   0  0  0  0  0  0  0  0  0  0  0  0
    2.6800    1.1983   -0.6950 H   0  0  0  0  0  0  0  0  0  0  0  0
    0.9743    1.8573   -0.9517 H   0  0  0  0  0  0  0  0  0  0  0  0
    1.6942    1.9123    0.6750 H   0  0  0  0  0  0  0  0  0  0  0  0
    2.8698   -0.8091    0.9368 H   0  0  0  0  0  0  0  0  0  0  0  0
    1.3795   -1.6954    1.3954 H   0  0  0  0  0  0  0  0  0  0  0  0
    1.6767   -0.0376    2.1005 H   0  0  0  0  0  0  0  0  0  0  0  0
  1  2  1  0
  2  3  1  0
  3  4  1  0
  4  5  1  0
  5  6  1  0
  6  7  1  0
  7  8  1  0
  7  9  1  0
  6  3  1  0
  7  3  1  0
  1 10  1  0
  1 11  1  0
  1 12  1  0
  4 13  1  0
  4 14  1  0
  6 15  1  0
  8 16  1  0
  8 17  1  0
  8 18  1  0
  9 19  1  0
  9 20  1  0
  9 21  1  0
M  END
