
     RDKit          3D

 21 22  0  0  0  0  0  0  0  0999 V2000
    3.0755    0.3353   -0.1233 C   0  0  0  0  0  0  0  0  0  0  0  0
    2.0618   -0.6199   -0.2397 O   0  0  0  0  0  0  0  0  0  0  0  0
    0.9110   -0.0539    0.2115 C   0  0  0  0  0  0  0  0  0  0  0  0
    0.2602   -0.8697    1.3470 C   0  0  0  0  0  0  0  0  0  0  0  0
   -1.1199   -0.9786    0.7248 C   0  0  0  0  0  0  0  0  0  0  0  0
   -0.8285   -1.3834   -0.5643 O   0  0  0  0  0  0  0  0  0  0  0  0
   -0.2468   -0.1096   -0.7383 C   0  0  0  0  0  0  0  0  0  0  0  0
   -1.3629    0.3996    0.1526 C   0  0  0  0  0  0  0  0  0  0  0  0
   -2.6801    0.5926   -0.5135 C   0  0  0  0  0  0  0  0  0  0  0  0
    3.1624    0.6207    0.9655 H   0  0  0  0  0  0  0  0  0  0  0  0
    2.7474    1.2765   -0.6296 H   0  0  0  0  0  0  0  0  0  0  0  0
    4.0341   -0.0428   -0.5055 H   0  0  0  0  0  0  0  0  0  0  0  0
    1.0299    0.9810    0.5513 H   0  0  0  0  0  0  0  0  0  0  0  0
    0.2821   -0.2935    2.2671 H   0  0  0  0  0  0  0  0  0  0  0  0
    0.7468   -1.8755    1.4248 H   0  0  0  0  0  0  0  0  0  0  0  0
   -1.8949   -1.4558    1.2760 H   0  0  0  0  0  0  0  0  0  0  0  0
   -0.1592    0.2711   -1.7230 H   0  0  0  0  0  0  0  0  0  0  0  0
   -1.0221    1.1876    0.8355 H   0  0  0  0  0  0  0  0  0  0  0  0
   -3.2418    1.3817    0.0257 H   0  0  0  0  0  0  0  0  0  0  0  0
   -2.5034    0.9927   -1.5374 H   0  0  0  0  0  0  0  0  0  0  0  0
   -3.2519   -0.3562   -0.5238 H   0  0  0  0  0  0  0  0  0  0  0  0
  1  2  1  0
  2  3  1  0
  3  4  1  0
  4  5  1  0
  5  6  1  0
  6  7  1  0
  7  8  1  0
  8  9  1  0
  7  3  1  0
  8  5  1  0
  1 10  1  0
  1 11  1  0
  1 12  1  0
  3 13  1  0
  4 14  1  0
  4 15  1  0
  5 16  1  0
  7 17  1  0
  8 18  1  0
  9 19  1  0
  9 20  1  0
  9 21  1  0
M  END
