
     RDKit          3D

 21 21  0  0  0  0  0  0  0  0999 V2000
    2.3804    0.3183    0.0187 C   0  0  0  0  0  0  0  0  0  0  0  0
    1.3466   -0.0481   -0.7999 O   0  0  0  0  0  0  0  0  0  0  0  0
    0.2112   -0.4923   -0.1921 C   0  0  0  0  0  0  0  0  0  0  0  0
    0.2085   -1.6998    0.7057 C   0  0  0  0  0  0  0  0  0  0  0  0
   -1.0479   -0.2863   -1.0480 C   0  0  0  0  0  0  0  0  0  0  0  0
   -1.9773   -1.3236   -1.0628 O   0  0  0  0  0  0  0  0  0  0  0  0
   -0.8816    0.5154    0.1851 C   0  0  0  0  0  0  0  0  0  0  0  0
   -0.4510    1.9595    0.1211 C   0  0  0  0  0  0  0  0  0  0  0  0
   -1.7428    0.2230    1.2173 O   0  0  0  0  0  0  0  0  0  0  0  0
    2.7559   -0.4889    0.6734 H   0  0  0  0  0  0  0  0  0  0  0  0
    2.1447    1.2421    0.5882 H   0  0  0  0  0  0  0  0  0  0  0  0
    3.2420    0.5881   -0.6406 H   0  0  0  0  0  0  0  0  0  0  0  0
    1.1500   -2.2512    0.7260 H   0  0  0  0  0  0  0  0  0  0  0  0
    0.0419   -1.3228    1.7518 H   0  0  0  0  0  0  0  0  0  0  0  0
   -0.6549   -2.3668    0.4956 H   0  0  0  0  0  0  0  0  0  0  0  0
   -0.9696    0.2513   -1.9920 H   0  0  0  0  0  0  0  0  0  0  0  0
   -2.2494   -1.5529   -1.9880 H   0  0  0  0  0  0  0  0  0  0  0  0
   -1.3183    2.6325   -0.0424 H   0  0  0  0  0  0  0  0  0  0  0  0
    0.0313    2.2717    1.0717 H   0  0  0  0  0  0  0  0  0  0  0  0
    0.3077    2.1307   -0.6749 H   0  0  0  0  0  0  0  0  0  0  0  0
   -2.5275   -0.3001    0.8862 H   0  0  0  0  0  0  0  0  0  0  0  0
  1  2  1  0
  2  3  1  0
  3  4  1  0
  3  5  1  0
  5  6  1  0
  5  7  1  0
  7  8  1  0
  7  9  1  0
  7  3  1  0
  1 10  1  0
  1 11  1  0
  1 12  1  0
  4 13  1  0
  4 14  1  0
  4 15  1  0
  5 16  1  0
  6 17  1  0
  8 18  1  0
  8 19  1  0
  8 20  1  0
  9 21  1  0
M  END
