
     RDKit          3D

 23 23  0  0  0  0  0  0  0  0999 V2000
    1.7239    1.4039    0.6049 C   0  0  0  0  0  0  0  0  0  0  0  0
    1.4291    0.1024    0.7799 O   0  0  0  0  0  0  0  0  0  0  0  0
    0.5400   -0.5184   -0.0361 C   0  0  0  0  0  0  0  0  0  0  0  0
   -0.8671    0.0182   -0.0582 C   0  0  0  0  0  0  0  0  0  0  0  0
   -1.4407   -0.1751    1.3297 C   0  0  0  0  0  0  0  0  0  0  0  0
   -0.9967    1.4343   -0.5317 C   0  0  0  0  0  0  0  0  0  0  0  0
   -1.6249   -0.7915   -0.9255 O   0  0  0  0  0  0  0  0  0  0  0  0
    1.0840   -1.2921   -1.1673 C   0  0  0  0  0  0  0  0  0  0  0  0
    0.5137   -2.0761   -0.0230 C   0  0  0  0  0  0  0  0  0  0  0  0
    2.1362    1.6806   -0.3867 H   0  0  0  0  0  0  0  0  0  0  0  0
    2.6176    1.6030    1.2990 H   0  0  0  0  0  0  0  0  0  0  0  0
    1.0041    2.1667    0.8823 H   0  0  0  0  0  0  0  0  0  0  0  0
   -0.8294   -0.8577    1.9524 H   0  0  0  0  0  0  0  0  0  0  0  0
   -2.4595   -0.6274    1.2972 H   0  0  0  0  0  0  0  0  0  0  0  0
   -1.5530    0.7890    1.8606 H   0  0  0  0  0  0  0  0  0  0  0  0
   -1.2651    2.1617    0.2670 H   0  0  0  0  0  0  0  0  0  0  0  0
   -0.1304    1.7331   -1.1466 H   0  0  0  0  0  0  0  0  0  0  0  0
   -1.8903    1.5011   -1.2313 H   0  0  0  0  0  0  0  0  0  0  0  0
   -1.4800   -0.5471   -1.8690 H   0  0  0  0  0  0  0  0  0  0  0  0
    2.1662   -1.3523   -1.2649 H   0  0  0  0  0  0  0  0  0  0  0  0
    0.5421   -1.2602   -2.1268 H   0  0  0  0  0  0  0  0  0  0  0  0
    1.1920   -2.4993    0.7404 H   0  0  0  0  0  0  0  0  0  0  0  0
   -0.4117   -2.5971   -0.2462 H   0  0  0  0  0  0  0  0  0  0  0  0
  1  2  1  0
  2  3  1  0
  3  4  1  0
  4  5  1  0
  4  6  1  0
  4  7  1  0
  3  8  1  0
  8  9  1  0
  9  3  1  0
  1 10  1  0
  1 11  1  0
  1 12  1  0
  5 13  1  0
  5 14  1  0
  5 15  1  0
  6 16  1  0
  6 17  1  0
  6 18  1  0
  7 19  1  0
  8 20  1  0
  8 21  1  0
  9 22  1  0
  9 23  1  0
M  END
