
     RDKit          3D

 21 21  0  0  0  0  0  0  0  0999 V2000
   -3.0254   -0.2050    0.1824 C   0  0  0  0  0  0  0  0  0  0  0  0
   -1.8183   -0.3899    0.8434 O   0  0  0  0  0  0  0  0  0  0  0  0
   -0.7973   -0.0161    0.0070 C   0  0  0  0  0  0  0  0  0  0  0  0
    0.3108   -1.0470   -0.1759 C   0  0  0  0  0  0  0  0  0  0  0  0
    0.2465   -1.7631   -1.3565 O   0  0  0  0  0  0  0  0  0  0  0  0
    1.2812    0.1234   -0.1873 C   0  0  0  0  0  0  0  0  0  0  0  0
    2.5850   -0.1565    0.5370 C   0  0  0  0  0  0  0  0  0  0  0  0
    0.2625    0.8758    0.6547 C   0  0  0  0  0  0  0  0  0  0  0  0
    0.1228    2.2210    0.3260 O   0  0  0  0  0  0  0  0  0  0  0  0
   -3.0760   -0.8130   -0.7398 H   0  0  0  0  0  0  0  0  0  0  0  0
   -3.8345   -0.5410    0.8892 H   0  0  0  0  0  0  0  0  0  0  0  0
   -3.2049    0.8802   -0.0498 H   0  0  0  0  0  0  0  0  0  0  0  0
   -1.1322    0.3453   -0.9926 H   0  0  0  0  0  0  0  0  0  0  0  0
    0.5036   -1.6569    0.7420 H   0  0  0  0  0  0  0  0  0  0  0  0
    0.5144   -1.1313   -2.0863 H   0  0  0  0  0  0  0  0  0  0  0  0
    1.4007    0.6097   -1.1772 H   0  0  0  0  0  0  0  0  0  0  0  0
    2.9292   -1.1534    0.1684 H   0  0  0  0  0  0  0  0  0  0  0  0
    3.3135    0.6291    0.2469 H   0  0  0  0  0  0  0  0  0  0  0  0
    2.3536   -0.1700    1.6141 H   0  0  0  0  0  0  0  0  0  0  0  0
    0.3015    0.6489    1.7389 H   0  0  0  0  0  0  0  0  0  0  0  0
    0.7634    2.7099    0.9283 H   0  0  0  0  0  0  0  0  0  0  0  0
  1  2  1  0
  2  3  1  0
  3  4  1  0
  4  5  1  0
  4  6  1  0
  6  7  1  0
  6  8  1  0
  8  9  1  0
  8  3  1  0
  1 10  1  0
  1 11  1  0
  1 12  1  0
  3 13  1  0
  4 14  1  0
  5 15  1  0
  6 16  1  0
  7 17  1  0
  7 18  1  0
  7 19  1  0
  8 20  1  0
  9 21  1  0
M  END
