
     RDKit          3D

 21 22  0  0  0  0  0  0  0  0999 V2000
    3.4948   -0.3135    0.3224 C   0  0  0  0  0  0  0  0  0  0  0  0
    2.4502    0.5701    0.4415 O   0  0  0  0  0  0  0  0  0  0  0  0
    1.2132    0.0699    0.2566 C   0  0  0  0  0  0  0  0  0  0  0  0
    0.4538    0.7146   -0.9104 C   0  0  0  0  0  0  0  0  0  0  0  0
   -0.8657   -0.0491   -0.7228 C   0  0  0  0  0  0  0  0  0  0  0  0
   -1.8975    0.5483    0.1206 C   0  0  0  0  0  0  0  0  0  0  0  0
   -3.2866   -0.0433    0.0200 C   0  0  0  0  0  0  0  0  0  0  0  0
   -0.8680   -0.2695    0.7924 C   0  0  0  0  0  0  0  0  0  0  0  0
    0.3047    0.2679    1.2704 O   0  0  0  0  0  0  0  0  0  0  0  0
    4.4382    0.2656    0.5051 H   0  0  0  0  0  0  0  0  0  0  0  0
    3.6108   -0.7429   -0.6946 H   0  0  0  0  0  0  0  0  0  0  0  0
    3.4865   -1.1059    1.1018 H   0  0  0  0  0  0  0  0  0  0  0  0
    1.2558   -1.0161    0.0303 H   0  0  0  0  0  0  0  0  0  0  0  0
    0.2431    1.7598   -0.6790 H   0  0  0  0  0  0  0  0  0  0  0  0
    0.9164    0.5133   -1.8712 H   0  0  0  0  0  0  0  0  0  0  0  0
   -0.9869   -0.9879   -1.2862 H   0  0  0  0  0  0  0  0  0  0  0  0
   -1.8884    1.6680    0.1844 H   0  0  0  0  0  0  0  0  0  0  0  0
   -3.4339   -0.5767   -0.9618 H   0  0  0  0  0  0  0  0  0  0  0  0
   -4.0763    0.7203    0.0626 H   0  0  0  0  0  0  0  0  0  0  0  0
   -3.3814   -0.7990    0.8402 H   0  0  0  0  0  0  0  0  0  0  0  0
   -1.1828   -1.2593    1.1777 H   0  0  0  0  0  0  0  0  0  0  0  0
  1  2  1  0
  2  3  1  0
  3  4  1  0
  4  5  1  0
  5  6  1  0
  6  7  1  0
  6  8  1  0
  8  9  1  0
  9  3  1  0
  8  5  1  0
  1 10  1  0
  1 11  1  0
  1 12  1  0
  3 13  1  0
  4 14  1  0
  4 15  1  0
  5 16  1  0
  6 17  1  0
  7 18  1  0
  7 19  1  0
  7 20  1  0
  8 21  1  0
M  END
