
     RDKit          3D

 19 20  0  0  0  0  0  0  0  0999 V2000
    1.9654    0.2367    1.0332 C   0  0  0  0  0  0  0  0  0  0  0  0
    0.6771    0.6116    0.8040 O   0  0  0  0  0  0  0  0  0  0  0  0
   -0.0528   -0.0718   -0.1050 C   0  0  0  0  0  0  0  0  0  0  0  0
   -1.4732    0.3813   -0.3285 C   0  0  0  0  0  0  0  0  0  0  0  0
   -1.9717    1.6601    0.1702 C   0  0  0  0  0  0  0  0  0  0  0  0
   -2.3441    0.3505    0.7928 O   0  0  0  0  0  0  0  0  0  0  0  0
    0.5750   -0.4774   -1.4051 C   0  0  0  0  0  0  0  0  0  0  0  0
   -0.0995   -1.6905   -1.3044 O   0  0  0  0  0  0  0  0  0  0  0  0
    0.0289   -1.5675    0.0875 C   0  0  0  0  0  0  0  0  0  0  0  0
    2.3617    0.9576    1.8150 H   0  0  0  0  0  0  0  0  0  0  0  0
    2.0841   -0.7517    1.5692 H   0  0  0  0  0  0  0  0  0  0  0  0
    2.6155    0.3147    0.1515 H   0  0  0  0  0  0  0  0  0  0  0  0
   -1.9765   -0.0198   -1.2329 H   0  0  0  0  0  0  0  0  0  0  0  0
   -2.8353    2.1341   -0.3356 H   0  0  0  0  0  0  0  0  0  0  0  0
   -1.4702    2.2571    0.9414 H   0  0  0  0  0  0  0  0  0  0  0  0
    0.1617    0.0977   -2.2545 H   0  0  0  0  0  0  0  0  0  0  0  0
    1.6586   -0.5139   -1.4574 H   0  0  0  0  0  0  0  0  0  0  0  0
   -0.8844   -1.9265    0.6331 H   0  0  0  0  0  0  0  0  0  0  0  0
    0.9798   -1.9822    0.4254 H   0  0  0  0  0  0  0  0  0  0  0  0
  1  2  1  0
  2  3  1  0
  3  4  1  0
  4  5  1  0
  5  6  1  0
  3  7  1  0
  7  8  1  0
  8  9  1  0
  9  3  1  0
  6  4  1  0
  1 10  1  0
  1 11  1  0
  1 12  1  0
  4 13  1  0
  5 14  1  0
  5 15  1  0
  7 16  1  0
  7 17  1  0
  9 18  1  0
  9 19  1  0
M  END
