
     RDKit          3D

 18 19  0  0  0  0  0  0  0  0999 V2000
    2.7685   -0.2306    0.1178 C   0  0  0  0  0  0  0  0  0  0  0  0
    1.6515   -0.2654    0.9827 O   0  0  0  0  0  0  0  0  0  0  0  0
    0.5048   -0.2917    0.1934 C   0  0  0  0  0  0  0  0  0  0  0  0
   -0.2343   -1.4571    0.3979 O   0  0  0  0  0  0  0  0  0  0  0  0
   -1.5153   -1.2003   -0.0345 C   0  0  0  0  0  0  0  0  0  0  0  0
   -1.8061    0.2498    0.2177 C   0  0  0  0  0  0  0  0  0  0  0  0
   -1.2546    1.3200   -0.6433 C   0  0  0  0  0  0  0  0  0  0  0  0
   -0.4323    0.8367    0.4973 C   0  0  0  0  0  0  0  0  0  0  0  0
    2.6752   -1.1779   -0.4876 H   0  0  0  0  0  0  0  0  0  0  0  0
    2.7002    0.6510   -0.5586 H   0  0  0  0  0  0  0  0  0  0  0  0
    3.7152   -0.1878    0.6560 H   0  0  0  0  0  0  0  0  0  0  0  0
    0.7661   -0.2785   -0.8970 H   0  0  0  0  0  0  0  0  0  0  0  0
   -1.6748   -1.4680   -1.1071 H   0  0  0  0  0  0  0  0  0  0  0  0
   -2.2331   -1.8178    0.5468 H   0  0  0  0  0  0  0  0  0  0  0  0
   -2.6466    0.5023    0.8873 H   0  0  0  0  0  0  0  0  0  0  0  0
   -1.7097    2.3158   -0.5431 H   0  0  0  0  0  0  0  0  0  0  0  0
   -0.8932    1.1163   -1.6773 H   0  0  0  0  0  0  0  0  0  0  0  0
   -0.3816    1.3833    1.4515 H   0  0  0  0  0  0  0  0  0  0  0  0
  1  2  1  0
  2  3  1  0
  3  4  1  0
  4  5  1  0
  5  6  1  0
  6  7  1  0
  7  8  1  0
  8  3  1  0
  8  6  1  0
  1  9  1  0
  1 10  1  0
  1 11  1  0
  3 12  1  0
  5 13  1  0
  5 14  1  0
  6 15  1  0
  7 16  1  0
  7 17  1  0
  8 18  1  0
M  END
