
     RDKit          3D

 19 20  0  0  0  0  0  0  0  0999 V2000
    2.2198    0.5004    0.8623 C   0  0  0  0  0  0  0  0  0  0  0  0
    1.6474   -0.2864   -0.0925 O   0  0  0  0  0  0  0  0  0  0  0  0
    0.3522   -0.2225   -0.2867 C   0  0  0  0  0  0  0  0  0  0  0  0
   -0.2293    1.1103   -0.6954 C   0  0  0  0  0  0  0  0  0  0  0  0
   -1.5409    1.0463   -0.4896 C   0  0  0  0  0  0  0  0  0  0  0  0
   -1.8342   -0.2972    0.0681 C   0  0  0  0  0  0  0  0  0  0  0  0
   -0.5558   -0.5016    0.9123 C   0  0  0  0  0  0  0  0  0  0  0  0
   -1.6212   -1.2588   -0.9130 O   0  0  0  0  0  0  0  0  0  0  0  0
   -0.2595   -1.2196   -1.2454 C   0  0  0  0  0  0  0  0  0  0  0  0
    3.3261    0.2906    0.8626 H   0  0  0  0  0  0  0  0  0  0  0  0
    2.1393    1.5821    0.5971 H   0  0  0  0  0  0  0  0  0  0  0  0
    1.8805    0.2964    1.8931 H   0  0  0  0  0  0  0  0  0  0  0  0
    0.3644    1.9187   -1.0750 H   0  0  0  0  0  0  0  0  0  0  0  0
   -2.2683    1.8129   -0.6842 H   0  0  0  0  0  0  0  0  0  0  0  0
   -2.7344   -0.4041    0.6258 H   0  0  0  0  0  0  0  0  0  0  0  0
   -0.4738   -1.5202    1.2750 H   0  0  0  0  0  0  0  0  0  0  0  0
   -0.5465    0.2923    1.6491 H   0  0  0  0  0  0  0  0  0  0  0  0
   -0.0718   -0.9261   -2.2771 H   0  0  0  0  0  0  0  0  0  0  0  0
    0.2059   -2.2134   -0.9865 H   0  0  0  0  0  0  0  0  0  0  0  0
  1  2  1  0
  2  3  1  0
  3  4  1  0
  4  5  2  0
  5  6  1  0
  6  7  1  0
  6  8  1  0
  8  9  1  0
  7  3  1  0
  9  3  1  0
  1 10  1  0
  1 11  1  0
  1 12  1  0
  4 13  1  0
  5 14  1  0
  6 15  1  0
  7 16  1  0
  7 17  1  0
  9 18  1  0
  9 19  1  0
M  END
