
     RDKit          3D

 25 25  0  0  0  0  0  0  0  0999 V2000
    2.4725   -0.1441   -1.1069 C   0  0  0  0  0  0  0  0  0  0  0  0
    1.3176    0.6502   -1.1490 O   0  0  0  0  0  0  0  0  0  0  0  0
    0.5538    0.4133   -0.0083 C   0  0  0  0  0  0  0  0  0  0  0  0
    1.3970    0.7737    1.2185 C   0  0  0  0  0  0  0  0  0  0  0  0
    0.1403   -1.0372    0.0296 C   0  0  0  0  0  0  0  0  0  0  0  0
   -1.1921   -1.2157    0.7681 C   0  0  0  0  0  0  0  0  0  0  0  0
   -2.2560   -0.6383   -0.1407 C   0  0  0  0  0  0  0  0  0  0  0  0
   -1.8257    0.6775   -0.7455 C   0  0  0  0  0  0  0  0  0  0  0  0
   -0.6697    1.2611    0.0319 C   0  0  0  0  0  0  0  0  0  0  0  0
    3.0405    0.1391   -0.1903 H   0  0  0  0  0  0  0  0  0  0  0  0
    3.0778   -0.0406   -2.0064 H   0  0  0  0  0  0  0  0  0  0  0  0
    2.1221   -1.2021   -1.0700 H   0  0  0  0  0  0  0  0  0  0  0  0
    2.1422    1.5586    0.9672 H   0  0  0  0  0  0  0  0  0  0  0  0
    0.7293    1.2178    2.0118 H   0  0  0  0  0  0  0  0  0  0  0  0
    1.8772   -0.1098    1.6631 H   0  0  0  0  0  0  0  0  0  0  0  0
   -0.0503   -1.4155   -0.9964 H   0  0  0  0  0  0  0  0  0  0  0  0
    0.9202   -1.6837    0.5065 H   0  0  0  0  0  0  0  0  0  0  0  0
   -1.1667   -0.7129    1.7434 H   0  0  0  0  0  0  0  0  0  0  0  0
   -1.3397   -2.3148    0.8359 H   0  0  0  0  0  0  0  0  0  0  0  0
   -2.4104   -1.3751   -0.9667 H   0  0  0  0  0  0  0  0  0  0  0  0
   -3.1545   -0.4807    0.4675 H   0  0  0  0  0  0  0  0  0  0  0  0
   -2.6630    1.4030   -0.6728 H   0  0  0  0  0  0  0  0  0  0  0  0
   -1.5897    0.5925   -1.8305 H   0  0  0  0  0  0  0  0  0  0  0  0
   -0.4367    2.2433   -0.4304 H   0  0  0  0  0  0  0  0  0  0  0  0
   -1.0360    1.4405    1.0703 H   0  0  0  0  0  0  0  0  0  0  0  0
  1  2  1  0
  2  3  1  0
  3  4  1  0
  3  5  1  0
  5  6  1  0
  6  7  1  0
  7  8  1  0
  8  9  1  0
  9  3  1  0
  1 10  1  0
  1 11  1  0
  1 12  1  0
  4 13  1  0
  4 14  1  0
  4 15  1  0
  5 16  1  0
  5 17  1  0
  6 18  1  0
  6 19  1  0
  7 20  1  0
  7 21  1  0
  8 22  1  0
  8 23  1  0
  9 24  1  0
  9 25  1  0
M  END
