
     RDKit          3D

 19 20  0  0  0  0  0  0  0  0999 V2000
    2.5384   -0.4429   -0.5315 C   0  0  0  0  0  0  0  0  0  0  0  0
    1.1976   -0.7247   -0.8127 O   0  0  0  0  0  0  0  0  0  0  0  0
    0.4151    0.1539   -0.1066 C   0  0  0  0  0  0  0  0  0  0  0  0
   -0.7855    0.7026   -0.8331 C   0  0  0  0  0  0  0  0  0  0  0  0
   -1.3185   -0.7028   -0.8013 C   0  0  0  0  0  0  0  0  0  0  0  0
   -0.7572   -0.5057    0.5798 C   0  0  0  0  0  0  0  0  0  0  0  0
   -0.7348   -1.3031    1.5407 O   0  0  0  0  0  0  0  0  0  0  0  0
   -1.4066    0.8587    0.5247 C   0  0  0  0  0  0  0  0  0  0  0  0
   -0.8292    1.8103    1.3526 O   0  0  0  0  0  0  0  0  0  0  0  0
    2.7647   -0.5490    0.5480 H   0  0  0  0  0  0  0  0  0  0  0  0
    2.7243    0.5985   -0.8386 H   0  0  0  0  0  0  0  0  0  0  0  0
    3.2180   -1.1697   -1.0535 H   0  0  0  0  0  0  0  0  0  0  0  0
    0.9049    0.8937    0.5276 H   0  0  0  0  0  0  0  0  0  0  0  0
   -0.7953    1.3459   -1.5940 H   0  0  0  0  0  0  0  0  0  0  0  0
   -0.8040   -1.4126   -1.4478 H   0  0  0  0  0  0  0  0  0  0  0  0
   -2.4269   -0.7539   -0.7682 H   0  0  0  0  0  0  0  0  0  0  0  0
   -0.8433   -2.2622    1.3351 H   0  0  0  0  0  0  0  0  0  0  0  0
   -2.5129    0.8579    0.4813 H   0  0  0  0  0  0  0  0  0  0  0  0
   -0.5488    2.6053    0.8125 H   0  0  0  0  0  0  0  0  0  0  0  0
  1  2  1  0
  2  3  1  0
  3  4  1  0
  4  5  1  0
  5  6  1  0
  6  7  1  0
  6  8  1  0
  8  9  1  0
  6  3  1  0
  8  4  1  0
  1 10  1  0
  1 11  1  0
  1 12  1  0
  3 13  1  0
  4 14  1  0
  5 15  1  0
  5 16  1  0
  7 17  1  0
  8 18  1  0
  9 19  1  0
M  END
