
     RDKit          3D

 21 21  0  0  0  0  0  0  0  0999 V2000
    2.3477    0.9586   -0.2191 C   0  0  0  0  0  0  0  0  0  0  0  0
    1.3358    0.3312   -0.9095 O   0  0  0  0  0  0  0  0  0  0  0  0
    0.4375   -0.3388   -0.1156 C   0  0  0  0  0  0  0  0  0  0  0  0
    0.9817   -1.4258    0.7299 C   0  0  0  0  0  0  0  0  0  0  0  0
    0.2529   -2.0849    1.4766 O   0  0  0  0  0  0  0  0  0  0  0  0
   -0.9154   -0.5428   -0.6829 C   0  0  0  0  0  0  0  0  0  0  0  0
   -1.7610   -1.7175   -0.2733 C   0  0  0  0  0  0  0  0  0  0  0  0
   -0.6873    0.4731    0.4202 C   0  0  0  0  0  0  0  0  0  0  0  0
   -0.8973    1.8971    0.0238 C   0  0  0  0  0  0  0  0  0  0  0  0
    2.9289    0.1907    0.3637 H   0  0  0  0  0  0  0  0  0  0  0  0
    2.0289    1.7156    0.4940 H   0  0  0  0  0  0  0  0  0  0  0  0
    3.0663    1.3688   -0.9591 H   0  0  0  0  0  0  0  0  0  0  0  0
    2.0399   -1.6587    0.7028 H   0  0  0  0  0  0  0  0  0  0  0  0
   -1.1125   -0.1750   -1.7060 H   0  0  0  0  0  0  0  0  0  0  0  0
   -2.0612   -1.6676    0.8135 H   0  0  0  0  0  0  0  0  0  0  0  0
   -2.7040   -1.7098   -0.8493 H   0  0  0  0  0  0  0  0  0  0  0  0
   -1.2602   -2.6836   -0.4526 H   0  0  0  0  0  0  0  0  0  0  0  0
   -1.0118    0.2220    1.4476 H   0  0  0  0  0  0  0  0  0  0  0  0
   -1.1692    2.5445    0.9052 H   0  0  0  0  0  0  0  0  0  0  0  0
   -0.0457    2.3295   -0.5514 H   0  0  0  0  0  0  0  0  0  0  0  0
   -1.7940    1.9734   -0.6585 H   0  0  0  0  0  0  0  0  0  0  0  0
  1  2  1  0
  2  3  1  0
  3  4  1  0
  4  5  2  0
  3  6  1  0
  6  7  1  0
  6  8  1  0
  8  9  1  0
  8  3  1  0
  1 10  1  0
  1 11  1  0
  1 12  1  0
  4 13  1  0
  6 14  1  0
  7 15  1  0
  7 16  1  0
  7 17  1  0
  8 18  1  0
  9 19  1  0
  9 20  1  0
  9 21  1  0
M  END
