
     RDKit          3D

 19 19  0  0  0  0  0  0  0  0999 V2000
    2.3386   -0.3279   -0.5955 C   0  0  0  0  0  0  0  0  0  0  0  0
    1.1930    0.1242   -1.1617 O   0  0  0  0  0  0  0  0  0  0  0  0
    0.1755    0.3069   -0.2827 C   0  0  0  0  0  0  0  0  0  0  0  0
    0.4642    1.3489    0.6965 C   0  0  0  0  0  0  0  0  0  0  0  0
    1.4787    2.0004    0.6446 O   0  0  0  0  0  0  0  0  0  0  0  0
   -1.0826    0.7364   -1.0009 C   0  0  0  0  0  0  0  0  0  0  0  0
   -2.1335    0.2157   -0.3869 C   0  0  0  0  0  0  0  0  0  0  0  0
   -1.7081   -0.5971    0.7762 C   0  0  0  0  0  0  0  0  0  0  0  0
   -0.2920   -0.9820    0.3682 C   0  0  0  0  0  0  0  0  0  0  0  0
    3.1397   -0.4617   -1.3713 H   0  0  0  0  0  0  0  0  0  0  0  0
    2.8008    0.2661    0.2032 H   0  0  0  0  0  0  0  0  0  0  0  0
    2.1608   -1.3644   -0.1738 H   0  0  0  0  0  0  0  0  0  0  0  0
   -0.2479    1.5645    1.5139 H   0  0  0  0  0  0  0  0  0  0  0  0
   -1.0502    1.3746   -1.8785 H   0  0  0  0  0  0  0  0  0  0  0  0
   -3.1522    0.3745   -0.7068 H   0  0  0  0  0  0  0  0  0  0  0  0
   -2.3055   -1.5324    0.8798 H   0  0  0  0  0  0  0  0  0  0  0  0
   -1.7425   -0.0065    1.6899 H   0  0  0  0  0  0  0  0  0  0  0  0
   -0.3633   -1.7462   -0.4212 H   0  0  0  0  0  0  0  0  0  0  0  0
    0.3266   -1.2939    1.2068 H   0  0  0  0  0  0  0  0  0  0  0  0
  1  2  1  0
  2  3  1  0
  3  4  1  0
  4  5  2  0
  3  6  1  0
  6  7  2  0
  7  8  1  0
  8  9  1  0
  9  3  1  0
  1 10  1  0
  1 11  1  0
  1 12  1  0
  4 13  1  0
  6 14  1  0
  7 15  1  0
  8 16  1  0
  8 17  1  0
  9 18  1  0
  9 19  1  0
M  END
