
     RDKit          3D

 23 23  0  0  0  0  0  0  0  0999 V2000
   -2.0569   -1.3367   -0.3074 C   0  0  0  0  0  0  0  0  0  0  0  0
   -1.8457   -0.0619    0.0824 O   0  0  0  0  0  0  0  0  0  0  0  0
   -0.6130    0.4070    0.2657 C   0  0  0  0  0  0  0  0  0  0  0  0
   -0.6709    1.8795    0.7058 C   0  0  0  0  0  0  0  0  0  0  0  0
   -1.3657    2.0237    1.8834 O   0  0  0  0  0  0  0  0  0  0  0  0
    0.2238    0.3273   -1.0057 C   0  0  0  0  0  0  0  0  0  0  0  0
    1.0939   -0.7327   -0.3638 C   0  0  0  0  0  0  0  0  0  0  0  0
    2.5594   -0.4252   -0.3122 C   0  0  0  0  0  0  0  0  0  0  0  0
    0.4413   -0.3451    0.9707 C   0  0  0  0  0  0  0  0  0  0  0  0
   -1.5664   -1.5048   -1.2898 H   0  0  0  0  0  0  0  0  0  0  0  0
   -3.1551   -1.4636   -0.5068 H   0  0  0  0  0  0  0  0  0  0  0  0
   -1.8072   -2.1242    0.4218 H   0  0  0  0  0  0  0  0  0  0  0  0
    0.3715    2.2407    0.8273 H   0  0  0  0  0  0  0  0  0  0  0  0
   -1.1097    2.4277   -0.1438 H   0  0  0  0  0  0  0  0  0  0  0  0
   -1.9471    1.2399    2.0568 H   0  0  0  0  0  0  0  0  0  0  0  0
   -0.3356    0.0000   -1.9065 H   0  0  0  0  0  0  0  0  0  0  0  0
    0.7900    1.2411   -1.2506 H   0  0  0  0  0  0  0  0  0  0  0  0
    0.8998   -1.7622   -0.6817 H   0  0  0  0  0  0  0  0  0  0  0  0
    3.0977   -0.7833   -1.2110 H   0  0  0  0  0  0  0  0  0  0  0  0
    2.7031    0.6749   -0.1593 H   0  0  0  0  0  0  0  0  0  0  0  0
    3.0170   -0.9682    0.5531 H   0  0  0  0  0  0  0  0  0  0  0  0
    0.1903   -1.2563    1.5118 H   0  0  0  0  0  0  0  0  0  0  0  0
    1.0854    0.3023    1.6044 H   0  0  0  0  0  0  0  0  0  0  0  0
  1  2  1  0
  2  3  1  0
  3  4  1  0
  4  5  1  0
  3  6  1  0
  6  7  1  0
  7  8  1  0
  7  9  1  0
  9  3  1  0
  1 10  1  0
  1 11  1  0
  1 12  1  0
  4 13  1  0
  4 14  1  0
  5 15  1  0
  6 16  1  0
  6 17  1  0
  7 18  1  0
  8 19  1  0
  8 20  1  0
  8 21  1  0
  9 22  1  0
  9 23  1  0
M  END
