
     RDKit          3D

 21 21  0  0  0  0  0  0  0  0999 V2000
    3.0899   -0.2242    0.3386 C   0  0  0  0  0  0  0  0  0  0  0  0
    1.8082    0.0598    0.5950 O   0  0  0  0  0  0  0  0  0  0  0  0
    0.8371   -0.0456   -0.2934 C   0  0  0  0  0  0  0  0  0  0  0  0
    0.2941    1.3398   -0.6032 C   0  0  0  0  0  0  0  0  0  0  0  0
   -1.1066    1.3472   -0.1225 C   0  0  0  0  0  0  0  0  0  0  0  0
   -1.4990    0.1230    0.2086 C   0  0  0  0  0  0  0  0  0  0  0  0
   -2.8515   -0.1792    0.7222 C   0  0  0  0  0  0  0  0  0  0  0  0
   -0.3753   -0.8287   -0.0252 C   0  0  0  0  0  0  0  0  0  0  0  0
   -0.7465   -1.6058   -1.1291 O   0  0  0  0  0  0  0  0  0  0  0  0
    3.3533   -1.2290    0.0219 H   0  0  0  0  0  0  0  0  0  0  0  0
    3.7027    0.0041    1.2384 H   0  0  0  0  0  0  0  0  0  0  0  0
    3.4703    0.4877   -0.4526 H   0  0  0  0  0  0  0  0  0  0  0  0
    1.2868   -0.4069   -1.2675 H   0  0  0  0  0  0  0  0  0  0  0  0
    0.8349    2.1312   -0.0378 H   0  0  0  0  0  0  0  0  0  0  0  0
    0.3200    1.5919   -1.6615 H   0  0  0  0  0  0  0  0  0  0  0  0
   -1.6932    2.2593   -0.0666 H   0  0  0  0  0  0  0  0  0  0  0  0
   -2.7874   -0.1651    1.8340 H   0  0  0  0  0  0  0  0  0  0  0  0
   -3.5743    0.5782    0.4172 H   0  0  0  0  0  0  0  0  0  0  0  0
   -3.2322   -1.1610    0.3865 H   0  0  0  0  0  0  0  0  0  0  0  0
   -0.3524   -1.5132    0.8328 H   0  0  0  0  0  0  0  0  0  0  0  0
   -0.7790   -2.5634   -0.9359 H   0  0  0  0  0  0  0  0  0  0  0  0
  1  2  1  0
  2  3  1  0
  3  4  1  0
  4  5  1  0
  5  6  2  0
  6  7  1  0
  6  8  1  0
  8  9  1  0
  8  3  1  0
  1 10  1  0
  1 11  1  0
  1 12  1  0
  3 13  1  0
  4 14  1  0
  4 15  1  0
  5 16  1  0
  7 17  1  0
  7 18  1  0
  7 19  1  0
  8 20  1  0
  9 21  1  0
M  END
