
     RDKit          3D

 19 20  0  0  0  0  0  0  0  0999 V2000
    2.0281   -0.6443   -0.8384 C   0  0  0  0  0  0  0  0  0  0  0  0
    0.9134    0.0786   -1.2001 O   0  0  0  0  0  0  0  0  0  0  0  0
    0.1837    0.4197   -0.0620 C   0  0  0  0  0  0  0  0  0  0  0  0
    0.8924    1.3479    0.7902 C   0  0  0  0  0  0  0  0  0  0  0  0
    1.9640    1.8567    0.4199 O   0  0  0  0  0  0  0  0  0  0  0  0
   -0.5529   -0.7372    0.5524 C   0  0  0  0  0  0  0  0  0  0  0  0
   -1.5493    0.2368    1.0355 C   0  0  0  0  0  0  0  0  0  0  0  0
   -1.2656    0.7247   -0.3356 C   0  0  0  0  0  0  0  0  0  0  0  0
   -1.3450   -0.7257   -0.7511 C   0  0  0  0  0  0  0  0  0  0  0  0
    2.5895   -0.8964   -1.7726 H   0  0  0  0  0  0  0  0  0  0  0  0
    2.6535   -0.1396   -0.1067 H   0  0  0  0  0  0  0  0  0  0  0  0
    1.7147   -1.6393   -0.3809 H   0  0  0  0  0  0  0  0  0  0  0  0
    0.4929    1.6141    1.7747 H   0  0  0  0  0  0  0  0  0  0  0  0
   -0.1695   -1.5477    0.9834 H   0  0  0  0  0  0  0  0  0  0  0  0
   -2.5702   -0.2411    1.1648 H   0  0  0  0  0  0  0  0  0  0  0  0
   -1.2804    0.8808    1.8905 H   0  0  0  0  0  0  0  0  0  0  0  0
   -1.6357    1.5100   -0.8279 H   0  0  0  0  0  0  0  0  0  0  0  0
   -0.7401   -0.8961   -1.6511 H   0  0  0  0  0  0  0  0  0  0  0  0
   -2.3234   -1.2018   -0.6850 H   0  0  0  0  0  0  0  0  0  0  0  0
  1  2  1  0
  2  3  1  0
  3  4  1  0
  4  5  2  0
  3  6  1  0
  6  7  1  0
  7  8  1  0
  8  9  1  0
  8  3  1  0
  9  6  1  0
  1 10  1  0
  1 11  1  0
  1 12  1  0
  4 13  1  0
  6 14  1  0
  7 15  1  0
  7 16  1  0
  8 17  1  0
  9 18  1  0
  9 19  1  0
M  END
