
     RDKit          3D

 23 23  0  0  0  0  0  0  0  0999 V2000
   -3.0005    0.7842   -0.2104 C   0  0  0  0  0  0  0  0  0  0  0  0
   -1.9847   -0.0084   -0.7180 O   0  0  0  0  0  0  0  0  0  0  0  0
   -0.8397    0.0006    0.0794 C   0  0  0  0  0  0  0  0  0  0  0  0
   -0.6065   -1.4044    0.5464 C   0  0  0  0  0  0  0  0  0  0  0  0
    0.7850   -1.8959    0.3607 C   0  0  0  0  0  0  0  0  0  0  0  0
    1.6866   -0.8821    0.5832 O   0  0  0  0  0  0  0  0  0  0  0  0
    1.6358    0.1336   -0.3350 C   0  0  0  0  0  0  0  0  0  0  0  0
    2.5255    1.2642    0.1701 C   0  0  0  0  0  0  0  0  0  0  0  0
    0.2726    0.5888   -0.7069 C   0  0  0  0  0  0  0  0  0  0  0  0
   -2.6510    1.8368   -0.1347 H   0  0  0  0  0  0  0  0  0  0  0  0
   -3.8473    0.7223   -0.9100 H   0  0  0  0  0  0  0  0  0  0  0  0
   -3.2359    0.4079    0.8016 H   0  0  0  0  0  0  0  0  0  0  0  0
   -1.0802    0.6814    0.9480 H   0  0  0  0  0  0  0  0  0  0  0  0
   -0.8897   -1.4604    1.6241 H   0  0  0  0  0  0  0  0  0  0  0  0
   -1.2907   -2.1417    0.0384 H   0  0  0  0  0  0  0  0  0  0  0  0
    0.9763   -2.6767    1.1490 H   0  0  0  0  0  0  0  0  0  0  0  0
    0.9121   -2.4015   -0.6262 H   0  0  0  0  0  0  0  0  0  0  0  0
    2.1300   -0.2496   -1.2733 H   0  0  0  0  0  0  0  0  0  0  0  0
    3.3938    0.8101    0.6886 H   0  0  0  0  0  0  0  0  0  0  0  0
    2.8664    1.9137   -0.6517 H   0  0  0  0  0  0  0  0  0  0  0  0
    1.9386    1.8013    0.9450 H   0  0  0  0  0  0  0  0  0  0  0  0
    0.2447    1.7089   -0.5592 H   0  0  0  0  0  0  0  0  0  0  0  0
    0.0588    0.4668   -1.8091 H   0  0  0  0  0  0  0  0  0  0  0  0
  1  2  1  0
  2  3  1  0
  3  4  1  0
  4  5  1  0
  5  6  1  0
  6  7  1  0
  7  8  1  0
  7  9  1  0
  9  3  1  0
  1 10  1  0
  1 11  1  0
  1 12  1  0
  3 13  1  0
  4 14  1  0
  4 15  1  0
  5 16  1  0
  5 17  1  0
  7 18  1  0
  8 19  1  0
  8 20  1  0
  8 21  1  0
  9 22  1  0
  9 23  1  0
M  END
