
     RDKit          3D

 23 23  0  0  0  0  0  0  0  0999 V2000
    2.6267   -0.5804    0.0957 C   0  0  0  0  0  0  0  0  0  0  0  0
    1.3671   -0.3214    0.6552 O   0  0  0  0  0  0  0  0  0  0  0  0
    0.4706    0.1615   -0.2661 C   0  0  0  0  0  0  0  0  0  0  0  0
   -0.0990    1.4821    0.2737 C   0  0  0  0  0  0  0  0  0  0  0  0
   -1.0623    1.9987   -0.7478 C   0  0  0  0  0  0  0  0  0  0  0  0
   -0.8746    0.9231    1.4415 C   0  0  0  0  0  0  0  0  0  0  0  0
   -1.2739   -0.3113    1.1623 C   0  0  0  0  0  0  0  0  0  0  0  0
   -0.7995   -0.6623   -0.1973 C   0  0  0  0  0  0  0  0  0  0  0  0
   -0.5599   -2.1236   -0.3917 C   0  0  0  0  0  0  0  0  0  0  0  0
    3.2701   -0.9639    0.9202 H   0  0  0  0  0  0  0  0  0  0  0  0
    2.5347   -1.3783   -0.6536 H   0  0  0  0  0  0  0  0  0  0  0  0
    3.1116    0.3334   -0.2855 H   0  0  0  0  0  0  0  0  0  0  0  0
    0.8611    0.2715   -1.2812 H   0  0  0  0  0  0  0  0  0  0  0  0
    0.6769    2.1769    0.5791 H   0  0  0  0  0  0  0  0  0  0  0  0
   -0.9951    3.0879   -0.9242 H   0  0  0  0  0  0  0  0  0  0  0  0
   -2.1222    1.7810   -0.4646 H   0  0  0  0  0  0  0  0  0  0  0  0
   -0.9239    1.4871   -1.7393 H   0  0  0  0  0  0  0  0  0  0  0  0
   -1.0753    1.4460    2.3644 H   0  0  0  0  0  0  0  0  0  0  0  0
   -1.8495   -0.9906    1.7837 H   0  0  0  0  0  0  0  0  0  0  0  0
   -1.5638   -0.2999   -0.9104 H   0  0  0  0  0  0  0  0  0  0  0  0
    0.4369   -2.4747   -0.1407 H   0  0  0  0  0  0  0  0  0  0  0  0
   -1.3531   -2.6699    0.1928 H   0  0  0  0  0  0  0  0  0  0  0  0
   -0.8036   -2.3730   -1.4662 H   0  0  0  0  0  0  0  0  0  0  0  0
  1  2  1  0
  2  3  1  0
  3  4  1  0
  4  5  1  0
  4  6  1  0
  6  7  2  0
  7  8  1  0
  8  9  1  0
  8  3  1  0
  1 10  1  0
  1 11  1  0
  1 12  1  0
  3 13  1  0
  4 14  1  0
  5 15  1  0
  5 16  1  0
  5 17  1  0
  6 18  1  0
  7 19  1  0
  8 20  1  0
  9 21  1  0
  9 22  1  0
  9 23  1  0
M  END
