
     RDKit          3D

 22 22  0  0  0  0  0  0  0  0999 V2000
    2.8143    0.5762   -0.3711 C   0  0  0  0  0  0  0  0  0  0  0  0
    1.5498    0.3393   -0.9133 O   0  0  0  0  0  0  0  0  0  0  0  0
    0.5691    0.2900    0.0671 C   0  0  0  0  0  0  0  0  0  0  0  0
   -0.7998    0.8151   -0.3217 C   0  0  0  0  0  0  0  0  0  0  0  0
   -1.4213    1.7217    0.6879 C   0  0  0  0  0  0  0  0  0  0  0  0
   -0.6242   -0.6246   -0.1239 C   0  0  0  0  0  0  0  0  0  0  0  0
   -0.5742   -1.5007   -1.3575 C   0  0  0  0  0  0  0  0  0  0  0  0
   -1.0732   -1.3303    1.1352 C   0  0  0  0  0  0  0  0  0  0  0  0
    2.8841    1.5171    0.1737 H   0  0  0  0  0  0  0  0  0  0  0  0
    3.5250    0.5517   -1.2399 H   0  0  0  0  0  0  0  0  0  0  0  0
    3.0314   -0.2486    0.3255 H   0  0  0  0  0  0  0  0  0  0  0  0
    0.9500    0.4436    1.0844 H   0  0  0  0  0  0  0  0  0  0  0  0
   -0.8936    1.1780   -1.3736 H   0  0  0  0  0  0  0  0  0  0  0  0
   -1.2923    1.3379    1.7134 H   0  0  0  0  0  0  0  0  0  0  0  0
   -0.8531    2.6965    0.6436 H   0  0  0  0  0  0  0  0  0  0  0  0
   -2.4745    1.9696    0.4733 H   0  0  0  0  0  0  0  0  0  0  0  0
   -1.5282   -1.3492   -1.9119 H   0  0  0  0  0  0  0  0  0  0  0  0
   -0.5194   -2.5736   -1.0844 H   0  0  0  0  0  0  0  0  0  0  0  0
    0.2410   -1.1834   -2.0271 H   0  0  0  0  0  0  0  0  0  0  0  0
   -1.2152   -2.4176    0.9598 H   0  0  0  0  0  0  0  0  0  0  0  0
   -0.2712   -1.2687    1.9261 H   0  0  0  0  0  0  0  0  0  0  0  0
   -2.0246   -0.9401    1.5346 H   0  0  0  0  0  0  0  0  0  0  0  0
  1  2  1  0
  2  3  1  0
  3  4  1  0
  4  5  1  0
  4  6  1  0
  6  7  1  0
  6  8  1  0
  6  3  1  0
  1  9  1  0
  1 10  1  0
  1 11  1  0
  3 12  1  0
  4 13  1  0
  5 14  1  0
  5 15  1  0
  5 16  1  0
  7 17  1  0
  7 18  1  0
  7 19  1  0
  8 20  1  0
  8 21  1  0
  8 22  1  0
M  END
