
     RDKit          3D

 21 22  0  0  0  0  0  0  0  0999 V2000
    2.4033   -1.0204   -0.0262 C   0  0  0  0  0  0  0  0  0  0  0  0
    1.1056   -1.0665   -0.4320 O   0  0  0  0  0  0  0  0  0  0  0  0
    0.3404   -0.0123   -0.2919 C   0  0  0  0  0  0  0  0  0  0  0  0
    0.6092    1.2825   -0.9128 C   0  0  0  0  0  0  0  0  0  0  0  0
   -0.4146    2.0522   -0.4914 C   0  0  0  0  0  0  0  0  0  0  0  0
   -1.1915    1.0904    0.3741 C   0  0  0  0  0  0  0  0  0  0  0  0
   -0.0561    0.4311    1.1306 C   0  0  0  0  0  0  0  0  0  0  0  0
   -1.1663   -0.1396   -0.5012 C   0  0  0  0  0  0  0  0  0  0  0  0
   -1.7824   -1.3693    0.0497 C   0  0  0  0  0  0  0  0  0  0  0  0
    2.8756   -2.0243   -0.2366 H   0  0  0  0  0  0  0  0  0  0  0  0
    3.0085   -0.2252   -0.4987 H   0  0  0  0  0  0  0  0  0  0  0  0
    2.4986   -0.8764    1.0695 H   0  0  0  0  0  0  0  0  0  0  0  0
    1.3798    1.6747   -1.5613 H   0  0  0  0  0  0  0  0  0  0  0  0
   -0.6313    3.0903   -0.7111 H   0  0  0  0  0  0  0  0  0  0  0  0
   -2.0597    1.4046    0.8603 H   0  0  0  0  0  0  0  0  0  0  0  0
    0.7130    1.1240    1.5214 H   0  0  0  0  0  0  0  0  0  0  0  0
   -0.3298   -0.3874    1.7981 H   0  0  0  0  0  0  0  0  0  0  0  0
   -1.4884    0.1388   -1.5419 H   0  0  0  0  0  0  0  0  0  0  0  0
   -1.0035   -2.1787    0.0363 H   0  0  0  0  0  0  0  0  0  0  0  0
   -2.2466   -1.2625    1.0444 H   0  0  0  0  0  0  0  0  0  0  0  0
   -2.5638   -1.7259   -0.6795 H   0  0  0  0  0  0  0  0  0  0  0  0
  1  2  1  0
  2  3  1  0
  3  4  1  0
  4  5  2  0
  5  6  1  0
  6  7  1  0
  6  8  1  0
  8  9  1  0
  7  3  1  0
  8  3  1  0
  1 10  1  0
  1 11  1  0
  1 12  1  0
  4 13  1  0
  5 14  1  0
  6 15  1  0
  7 16  1  0
  7 17  1  0
  8 18  1  0
  9 19  1  0
  9 20  1  0
  9 21  1  0
M  END
