
     RDKit          3D

 17 17  0  0  0  0  0  0  0  0999 V2000
    2.1124   -0.5683   -0.6690 C   0  0  0  0  0  0  0  0  0  0  0  0
    1.1499    0.4163   -0.7411 O   0  0  0  0  0  0  0  0  0  0  0  0
   -0.0186    0.1293   -0.0862 C   0  0  0  0  0  0  0  0  0  0  0  0
    0.0727    0.1414    1.4025 C   0  0  0  0  0  0  0  0  0  0  0  0
   -1.0274    1.2195   -0.4803 C   0  0  0  0  0  0  0  0  0  0  0  0
   -2.2394    0.5839   -0.1339 O   0  0  0  0  0  0  0  0  0  0  0  0
   -2.0340   -0.7655   -0.3791 C   0  0  0  0  0  0  0  0  0  0  0  0
   -2.9891   -1.5913   -0.4246 O   0  0  0  0  0  0  0  0  0  0  0  0
   -0.6793   -1.0217   -0.5530 O   0  0  0  0  0  0  0  0  0  0  0  0
    1.7530   -1.5193   -1.1065 H   0  0  0  0  0  0  0  0  0  0  0  0
    2.4681   -0.6931    0.3728 H   0  0  0  0  0  0  0  0  0  0  0  0
    2.9890   -0.2159   -1.2523 H   0  0  0  0  0  0  0  0  0  0  0  0
    1.0818    0.1349    1.8108 H   0  0  0  0  0  0  0  0  0  0  0  0
   -0.4830   -0.7359    1.8000 H   0  0  0  0  0  0  0  0  0  0  0  0
   -0.4439    1.0347    1.8609 H   0  0  0  0  0  0  0  0  0  0  0  0
   -0.8020    2.0840    0.1416 H   0  0  0  0  0  0  0  0  0  0  0  0
   -0.9101    1.3671   -1.5626 H   0  0  0  0  0  0  0  0  0  0  0  0
  1  2  1  0
  2  3  1  0
  3  4  1  0
  3  5  1  0
  5  6  1  0
  6  7  1  0
  7  8  2  0
  7  9  1  0
  9  3  1  0
  1 10  1  0
  1 11  1  0
  1 12  1  0
  4 13  1  0
  4 14  1  0
  4 15  1  0
  5 16  1  0
  5 17  1  0
M  END
