
     RDKit          3D

 23 23  0  0  0  0  0  0  0  0999 V2000
    2.9525   -0.5581    0.4898 C   0  0  0  0  0  0  0  0  0  0  0  0
    1.6714   -0.2570    0.9508 O   0  0  0  0  0  0  0  0  0  0  0  0
    0.7517   -0.1128   -0.0740 C   0  0  0  0  0  0  0  0  0  0  0  0
   -0.6586   -0.4849    0.0635 C   0  0  0  0  0  0  0  0  0  0  0  0
   -1.4462   -0.9868   -1.1356 C   0  0  0  0  0  0  0  0  0  0  0  0
   -1.2023   -1.0468    1.3796 C   0  0  0  0  0  0  0  0  0  0  0  0
   -0.2764    0.9362    0.0767 C   0  0  0  0  0  0  0  0  0  0  0  0
   -0.4861    1.8234   -1.1324 C   0  0  0  0  0  0  0  0  0  0  0  0
   -0.4144    1.6287    1.2855 O   0  0  0  0  0  0  0  0  0  0  0  0
    3.3541    0.2287   -0.1777 H   0  0  0  0  0  0  0  0  0  0  0  0
    3.6118   -0.6041    1.3805 H   0  0  0  0  0  0  0  0  0  0  0  0
    2.9707   -1.5058   -0.0954 H   0  0  0  0  0  0  0  0  0  0  0  0
    1.2072   -0.2649   -1.0850 H   0  0  0  0  0  0  0  0  0  0  0  0
   -1.6552   -2.0751   -0.9759 H   0  0  0  0  0  0  0  0  0  0  0  0
   -2.4082   -0.4146   -1.1477 H   0  0  0  0  0  0  0  0  0  0  0  0
   -0.9084   -0.8483   -2.0869 H   0  0  0  0  0  0  0  0  0  0  0  0
   -2.2991   -0.8138    1.3570 H   0  0  0  0  0  0  0  0  0  0  0  0
   -0.9934   -2.1060    1.5053 H   0  0  0  0  0  0  0  0  0  0  0  0
   -0.7942   -0.4327    2.2119 H   0  0  0  0  0  0  0  0  0  0  0  0
   -1.2571    2.5840   -0.8880 H   0  0  0  0  0  0  0  0  0  0  0  0
   -0.7945    1.2574   -2.0305 H   0  0  0  0  0  0  0  0  0  0  0  0
    0.4798    2.3513   -1.3015 H   0  0  0  0  0  0  0  0  0  0  0  0
   -1.4049    1.7019    1.4300 H   0  0  0  0  0  0  0  0  0  0  0  0
  1  2  1  0
  2  3  1  0
  3  4  1  0
  4  5  1  0
  4  6  1  0
  4  7  1  0
  7  8  1  0
  7  9  1  0
  7  3  1  0
  1 10  1  0
  1 11  1  0
  1 12  1  0
  3 13  1  0
  5 14  1  0
  5 15  1  0
  5 16  1  0
  6 17  1  0
  6 18  1  0
  6 19  1  0
  8 20  1  0
  8 21  1  0
  8 22  1  0
  9 23  1  0
M  END
