
     RDKit          3D

 21 22  0  0  0  0  0  0  0  0999 V2000
    3.0264   -0.0682    0.0876 C   0  0  0  0  0  0  0  0  0  0  0  0
    1.8134    0.2520    0.7036 O   0  0  0  0  0  0  0  0  0  0  0  0
    0.8292    0.1439   -0.2924 C   0  0  0  0  0  0  0  0  0  0  0  0
   -0.0396    1.4094   -0.2861 C   0  0  0  0  0  0  0  0  0  0  0  0
   -1.1317    0.5447    0.3210 C   0  0  0  0  0  0  0  0  0  0  0  0
   -2.5463    0.9020    0.0407 C   0  0  0  0  0  0  0  0  0  0  0  0
   -0.8719   -0.1974    1.4421 O   0  0  0  0  0  0  0  0  0  0  0  0
   -0.4193   -0.5987    0.1977 C   0  0  0  0  0  0  0  0  0  0  0  0
   -0.7202   -1.9409   -0.3527 C   0  0  0  0  0  0  0  0  0  0  0  0
    2.9439   -1.1078   -0.3037 H   0  0  0  0  0  0  0  0  0  0  0  0
    3.1265    0.6661   -0.7620 H   0  0  0  0  0  0  0  0  0  0  0  0
    3.8865    0.0276    0.7807 H   0  0  0  0  0  0  0  0  0  0  0  0
    1.1816   -0.1485   -1.2817 H   0  0  0  0  0  0  0  0  0  0  0  0
    0.3232    2.1994    0.3863 H   0  0  0  0  0  0  0  0  0  0  0  0
   -0.2710    1.7021   -1.3260 H   0  0  0  0  0  0  0  0  0  0  0  0
   -2.8568    1.6922    0.7588 H   0  0  0  0  0  0  0  0  0  0  0  0
   -2.6507    1.3460   -0.9739 H   0  0  0  0  0  0  0  0  0  0  0  0
   -3.2377    0.0544    0.1825 H   0  0  0  0  0  0  0  0  0  0  0  0
   -1.4765   -1.8261   -1.1750 H   0  0  0  0  0  0  0  0  0  0  0  0
    0.1746   -2.3919   -0.8260 H   0  0  0  0  0  0  0  0  0  0  0  0
   -1.0837   -2.6600    0.4219 H   0  0  0  0  0  0  0  0  0  0  0  0
  1  2  1  0
  2  3  1  0
  3  4  1  0
  4  5  1  0
  5  6  1  0
  5  7  1  0
  7  8  1  0
  8  9  1  0
  8  3  1  0
  8  5  1  0
  1 10  1  0
  1 11  1  0
  1 12  1  0
  3 13  1  0
  4 14  1  0
  4 15  1  0
  6 16  1  0
  6 17  1  0
  6 18  1  0
  9 19  1  0
  9 20  1  0
  9 21  1  0
M  END
