
     RDKit          3D

 21 21  0  0  0  0  0  0  0  0999 V2000
    2.7432    0.3013    0.4702 C   0  0  0  0  0  0  0  0  0  0  0  0
    1.8038    0.3948   -0.5530 O   0  0  0  0  0  0  0  0  0  0  0  0
    0.5113    0.2004   -0.0608 C   0  0  0  0  0  0  0  0  0  0  0  0
   -0.1079   -0.9430   -0.8352 C   0  0  0  0  0  0  0  0  0  0  0  0
   -1.1643   -1.6364   -0.0170 C   0  0  0  0  0  0  0  0  0  0  0  0
   -2.2976   -0.9194    0.1792 O   0  0  0  0  0  0  0  0  0  0  0  0
   -2.1493    0.4317    0.3220 C   0  0  0  0  0  0  0  0  0  0  0  0
   -1.5809    1.0605   -0.7848 O   0  0  0  0  0  0  0  0  0  0  0  0
   -0.2815    1.4479   -0.3883 C   0  0  0  0  0  0  0  0  0  0  0  0
    3.7367    0.4626    0.0214 H   0  0  0  0  0  0  0  0  0  0  0  0
    2.5077    1.0242    1.2822 H   0  0  0  0  0  0  0  0  0  0  0  0
    2.7114   -0.7421    0.8490 H   0  0  0  0  0  0  0  0  0  0  0  0
    0.5100    0.0153    1.0279 H   0  0  0  0  0  0  0  0  0  0  0  0
    0.6876   -1.6893   -1.0466 H   0  0  0  0  0  0  0  0  0  0  0  0
   -0.4980   -0.5680   -1.8037 H   0  0  0  0  0  0  0  0  0  0  0  0
   -1.4343   -2.5750   -0.5696 H   0  0  0  0  0  0  0  0  0  0  0  0
   -0.6659   -1.9906    0.9157 H   0  0  0  0  0  0  0  0  0  0  0  0
   -3.1819    0.8711    0.4118 H   0  0  0  0  0  0  0  0  0  0  0  0
   -1.6372    0.7308    1.2792 H   0  0  0  0  0  0  0  0  0  0  0  0
    0.2099    2.0309   -1.2005 H   0  0  0  0  0  0  0  0  0  0  0  0
   -0.4229    2.0923    0.5008 H   0  0  0  0  0  0  0  0  0  0  0  0
  1  2  1  0
  2  3  1  0
  3  4  1  0
  4  5  1  0
  5  6  1  0
  6  7  1  0
  7  8  1  0
  8  9  1  0
  9  3  1  0
  1 10  1  0
  1 11  1  0
  1 12  1  0
  3 13  1  0
  4 14  1  0
  4 15  1  0
  5 16  1  0
  5 17  1  0
  7 18  1  0
  7 19  1  0
  9 20  1  0
  9 21  1  0
M  END
