
     RDKit          3D

 19 20  0  0  0  0  0  0  0  0999 V2000
    2.2767   -0.7946    0.2667 C   0  0  0  0  0  0  0  0  0  0  0  0
    1.1256   -0.6948    0.9995 O   0  0  0  0  0  0  0  0  0  0  0  0
    0.1551    0.1057    0.4708 C   0  0  0  0  0  0  0  0  0  0  0  0
    0.4631    1.5263    0.2425 C   0  0  0  0  0  0  0  0  0  0  0  0
    0.2309    0.6633   -0.9136 C   0  0  0  0  0  0  0  0  0  0  0  0
   -1.2520    0.3527   -1.1326 C   0  0  0  0  0  0  0  0  0  0  0  0
   -1.0958   -0.5713    0.0559 C   0  0  0  0  0  0  0  0  0  0  0  0
   -2.2102   -0.6171    0.9978 C   0  0  0  0  0  0  0  0  0  0  0  0
   -3.3002   -0.9711    0.6202 O   0  0  0  0  0  0  0  0  0  0  0  0
    2.0531   -1.2075   -0.7325 H   0  0  0  0  0  0  0  0  0  0  0  0
    2.8337    0.1525    0.2416 H   0  0  0  0  0  0  0  0  0  0  0  0
    2.9211   -1.5690    0.7712 H   0  0  0  0  0  0  0  0  0  0  0  0
    1.4988    1.8396    0.4370 H   0  0  0  0  0  0  0  0  0  0  0  0
   -0.2742    2.3276    0.4948 H   0  0  0  0  0  0  0  0  0  0  0  0
    0.9725    0.3002   -1.6055 H   0  0  0  0  0  0  0  0  0  0  0  0
   -1.4962   -0.1124   -2.0859 H   0  0  0  0  0  0  0  0  0  0  0  0
   -1.9127    1.2137   -0.8224 H   0  0  0  0  0  0  0  0  0  0  0  0
   -0.8678   -1.5987   -0.3561 H   0  0  0  0  0  0  0  0  0  0  0  0
   -2.1216   -0.3450    2.0507 H   0  0  0  0  0  0  0  0  0  0  0  0
  1  2  1  0
  2  3  1  0
  3  4  1  0
  4  5  1  0
  5  6  1  0
  6  7  1  0
  7  8  1  0
  8  9  2  0
  5  3  1  0
  7  3  1  0
  1 10  1  0
  1 11  1  0
  1 12  1  0
  4 13  1  0
  4 14  1  0
  5 15  1  0
  6 16  1  0
  6 17  1  0
  7 18  1  0
  8 19  1  0
M  END
