
     RDKit          3D

 20 20  0  0  0  0  0  0  0  0999 V2000
   -2.6836    0.2333    0.4705 C   0  0  0  0  0  0  0  0  0  0  0  0
   -1.6613    0.6520   -0.3482 O   0  0  0  0  0  0  0  0  0  0  0  0
   -0.6821   -0.3103   -0.5301 C   0  0  0  0  0  0  0  0  0  0  0  0
   -0.0829   -0.4103   -1.8917 C   0  0  0  0  0  0  0  0  0  0  0  0
    0.8982    0.6830   -1.4970 C   0  0  0  0  0  0  0  0  0  0  0  0
    0.6561    0.2453   -0.0465 C   0  0  0  0  0  0  0  0  0  0  0  0
    1.5532   -0.7848    0.2466 O   0  0  0  0  0  0  0  0  0  0  0  0
    2.1555   -0.4242    1.4717 C   0  0  0  0  0  0  0  0  0  0  0  0
   -2.3138   -0.0355    1.4873 H   0  0  0  0  0  0  0  0  0  0  0  0
   -3.3033   -0.5674    0.0382 H   0  0  0  0  0  0  0  0  0  0  0  0
   -3.3657    1.1172    0.6110 H   0  0  0  0  0  0  0  0  0  0  0  0
   -0.8746   -1.2585    0.0080 H   0  0  0  0  0  0  0  0  0  0  0  0
    0.4944   -1.3701   -1.9795 H   0  0  0  0  0  0  0  0  0  0  0  0
   -0.7173   -0.1796   -2.7470 H   0  0  0  0  0  0  0  0  0  0  0  0
    0.5597    1.7076   -1.6464 H   0  0  0  0  0  0  0  0  0  0  0  0
    1.9268    0.5140   -1.8228 H   0  0  0  0  0  0  0  0  0  0  0  0
    0.5983    1.0620    0.6679 H   0  0  0  0  0  0  0  0  0  0  0  0
    2.6551    0.5642    1.2516 H   0  0  0  0  0  0  0  0  0  0  0  0
    2.8719   -1.1830    1.8180 H   0  0  0  0  0  0  0  0  0  0  0  0
    1.3153   -0.2548    2.1831 H   0  0  0  0  0  0  0  0  0  0  0  0
  1  2  1  0
  2  3  1  0
  3  4  1  0
  4  5  1  0
  5  6  1  0
  6  7  1  0
  7  8  1  0
  6  3  1  0
  1  9  1  0
  1 10  1  0
  1 11  1  0
  3 12  1  0
  4 13  1  0
  4 14  1  0
  5 15  1  0
  5 16  1  0
  6 17  1  0
  8 18  1  0
  8 19  1  0
  8 20  1  0
M  END
