
     RDKit          3D

 23 23  0  0  0  0  0  0  0  0999 V2000
    2.6734   -0.3629   -0.2926 C   0  0  0  0  0  0  0  0  0  0  0  0
    1.5852   -0.2957    0.5437 O   0  0  0  0  0  0  0  0  0  0  0  0
    0.5056    0.3910    0.0689 C   0  0  0  0  0  0  0  0  0  0  0  0
    0.8103    1.8246   -0.2418 C   0  0  0  0  0  0  0  0  0  0  0  0
   -0.3573   -0.2644   -0.9629 C   0  0  0  0  0  0  0  0  0  0  0  0
   -1.1662   -0.8831    0.1465 C   0  0  0  0  0  0  0  0  0  0  0  0
   -2.6435   -0.8506   -0.1136 C   0  0  0  0  0  0  0  0  0  0  0  0
   -0.6585    0.2486    1.0505 C   0  0  0  0  0  0  0  0  0  0  0  0
   -0.2761   -0.1803    2.3191 O   0  0  0  0  0  0  0  0  0  0  0  0
    2.4563   -0.8546   -1.2648 H   0  0  0  0  0  0  0  0  0  0  0  0
    3.1623    0.6272   -0.4289 H   0  0  0  0  0  0  0  0  0  0  0  0
    3.4341   -1.0056    0.2026 H   0  0  0  0  0  0  0  0  0  0  0  0
    1.2202    1.8453   -1.2934 H   0  0  0  0  0  0  0  0  0  0  0  0
    1.5151    2.2692    0.4626 H   0  0  0  0  0  0  0  0  0  0  0  0
   -0.1460    2.3969   -0.3036 H   0  0  0  0  0  0  0  0  0  0  0  0
    0.1072   -0.9285   -1.6789 H   0  0  0  0  0  0  0  0  0  0  0  0
   -0.9690    0.5039   -1.4963 H   0  0  0  0  0  0  0  0  0  0  0  0
   -0.7589   -1.8733    0.4234 H   0  0  0  0  0  0  0  0  0  0  0  0
   -3.2187   -0.3446    0.6854 H   0  0  0  0  0  0  0  0  0  0  0  0
   -3.0169   -1.9090   -0.1783 H   0  0  0  0  0  0  0  0  0  0  0  0
   -2.9107   -0.3307   -1.0596 H   0  0  0  0  0  0  0  0  0  0  0  0
   -1.3472    1.0987    1.0769 H   0  0  0  0  0  0  0  0  0  0  0  0
   -0.0007   -1.1221    2.3349 H   0  0  0  0  0  0  0  0  0  0  0  0
  1  2  1  0
  2  3  1  0
  3  4  1  0
  3  5  1  0
  5  6  1  0
  6  7  1  0
  6  8  1  0
  8  9  1  0
  8  3  1  0
  1 10  1  0
  1 11  1  0
  1 12  1  0
  4 13  1  0
  4 14  1  0
  4 15  1  0
  5 16  1  0
  5 17  1  0
  6 18  1  0
  7 19  1  0
  7 20  1  0
  7 21  1  0
  8 22  1  0
  9 23  1  0
M  END
