
     RDKit          3D

 18 19  0  0  0  0  0  0  0  0999 V2000
    2.6151    0.1272    0.2765 C   0  0  0  0  0  0  0  0  0  0  0  0
    1.2493    0.3640    0.3535 O   0  0  0  0  0  0  0  0  0  0  0  0
    0.5914   -0.5357   -0.4495 C   0  0  0  0  0  0  0  0  0  0  0  0
   -0.6032    0.0402   -1.1636 C   0  0  0  0  0  0  0  0  0  0  0  0
   -1.2676    1.2205   -0.6061 C   0  0  0  0  0  0  0  0  0  0  0  0
   -1.7615    0.9789    0.5904 C   0  0  0  0  0  0  0  0  0  0  0  0
   -1.5018   -0.4266    1.0321 C   0  0  0  0  0  0  0  0  0  0  0  0
   -0.7843   -1.0011   -0.1503 C   0  0  0  0  0  0  0  0  0  0  0  0
    2.8467   -0.9120    0.6187 H   0  0  0  0  0  0  0  0  0  0  0  0
    3.2032    0.8223    0.8926 H   0  0  0  0  0  0  0  0  0  0  0  0
    2.9823    0.1790   -0.7869 H   0  0  0  0  0  0  0  0  0  0  0  0
    1.2222   -1.2439   -0.9814 H   0  0  0  0  0  0  0  0  0  0  0  0
   -0.6150   -0.1471   -2.2440 H   0  0  0  0  0  0  0  0  0  0  0  0
   -1.3437    2.1881   -1.1240 H   0  0  0  0  0  0  0  0  0  0  0  0
   -2.3011    1.7428    1.1792 H   0  0  0  0  0  0  0  0  0  0  0  0
   -2.4910   -0.9222    1.1024 H   0  0  0  0  0  0  0  0  0  0  0  0
   -0.9468   -0.4773    1.9749 H   0  0  0  0  0  0  0  0  0  0  0  0
   -1.0942   -1.9970   -0.5146 H   0  0  0  0  0  0  0  0  0  0  0  0
  1  2  1  0
  2  3  1  0
  3  4  1  0
  4  5  1  0
  5  6  2  0
  6  7  1  0
  7  8  1  0
  8  3  1  0
  8  4  1  0
  1  9  1  0
  1 10  1  0
  1 11  1  0
  3 12  1  0
  4 13  1  0
  5 14  1  0
  6 15  1  0
  7 16  1  0
  7 17  1  0
  8 18  1  0
M  END
