
     RDKit          3D

 21 22  0  0  0  0  0  0  0  0999 V2000
    2.3313   -0.4731    0.1032 C   0  0  0  0  0  0  0  0  0  0  0  0
    1.1942   -0.0410    0.7378 O   0  0  0  0  0  0  0  0  0  0  0  0
    0.1251    0.1418   -0.1012 C   0  0  0  0  0  0  0  0  0  0  0  0
   -0.3812   -1.0209   -0.8761 C   0  0  0  0  0  0  0  0  0  0  0  0
   -1.3875   -1.6174    0.1317 C   0  0  0  0  0  0  0  0  0  0  0  0
   -1.9259   -0.3867    0.8269 C   0  0  0  0  0  0  0  0  0  0  0  0
   -1.0846    0.6192    0.7034 C   0  0  0  0  0  0  0  0  0  0  0  0
   -0.3528    1.9073    0.7245 C   0  0  0  0  0  0  0  0  0  0  0  0
    0.0891    1.5108   -0.7124 C   0  0  0  0  0  0  0  0  0  0  0  0
    2.6878    0.2447   -0.6832 H   0  0  0  0  0  0  0  0  0  0  0  0
    2.2133   -1.4585   -0.3811 H   0  0  0  0  0  0  0  0  0  0  0  0
    3.1374   -0.5086    0.8969 H   0  0  0  0  0  0  0  0  0  0  0  0
    0.3438   -1.8062   -1.1075 H   0  0  0  0  0  0  0  0  0  0  0  0
   -0.9416   -0.6344   -1.7496 H   0  0  0  0  0  0  0  0  0  0  0  0
   -0.9128   -2.2515    0.8730 H   0  0  0  0  0  0  0  0  0  0  0  0
   -2.1641   -2.1076   -0.4844 H   0  0  0  0  0  0  0  0  0  0  0  0
   -2.8814   -0.4113    1.3346 H   0  0  0  0  0  0  0  0  0  0  0  0
   -0.9421    2.8176    0.7634 H   0  0  0  0  0  0  0  0  0  0  0  0
    0.5502    1.8449    1.3613 H   0  0  0  0  0  0  0  0  0  0  0  0
   -0.7616    1.6998   -1.3723 H   0  0  0  0  0  0  0  0  0  0  0  0
    1.0634    1.9312   -0.9889 H   0  0  0  0  0  0  0  0  0  0  0  0
  1  2  1  0
  2  3  1  0
  3  4  1  0
  4  5  1  0
  5  6  1  0
  6  7  2  0
  7  8  1  0
  8  9  1  0
  7  3  1  0
  9  3  1  0
  1 10  1  0
  1 11  1  0
  1 12  1  0
  4 13  1  0
  4 14  1  0
  5 15  1  0
  5 16  1  0
  6 17  1  0
  8 18  1  0
  8 19  1  0
  9 20  1  0
  9 21  1  0
M  END
