
     RDKit          3D

 19 20  0  0  0  0  0  0  0  0999 V2000
    3.0060    0.2073   -0.5467 C   0  0  0  0  0  0  0  0  0  0  0  0
    1.7773   -0.3707   -0.6941 O   0  0  0  0  0  0  0  0  0  0  0  0
    0.7429    0.3206   -0.0419 C   0  0  0  0  0  0  0  0  0  0  0  0
   -0.5100    0.4906   -0.6622 C   0  0  0  0  0  0  0  0  0  0  0  0
   -1.8683    0.7863   -0.3113 C   0  0  0  0  0  0  0  0  0  0  0  0
   -2.4248   -0.3245    0.1588 C   0  0  0  0  0  0  0  0  0  0  0  0
   -1.3221   -1.3898    0.1007 C   0  0  0  0  0  0  0  0  0  0  0  0
   -0.2477   -0.4453    0.5656 C   0  0  0  0  0  0  0  0  0  0  0  0
   -0.6776    0.0562    1.8300 O   0  0  0  0  0  0  0  0  0  0  0  0
    3.7369   -0.4187   -1.0982 H   0  0  0  0  0  0  0  0  0  0  0  0
    2.9812    1.2374   -0.9776 H   0  0  0  0  0  0  0  0  0  0  0  0
    3.3666    0.2270    0.5097 H   0  0  0  0  0  0  0  0  0  0  0  0
    1.1654    1.2249    0.4753 H   0  0  0  0  0  0  0  0  0  0  0  0
   -0.5442   -0.0229   -1.6854 H   0  0  0  0  0  0  0  0  0  0  0  0
   -2.3817    1.7510   -0.4047 H   0  0  0  0  0  0  0  0  0  0  0  0
   -3.4289   -0.5140    0.5218 H   0  0  0  0  0  0  0  0  0  0  0  0
   -1.1083   -1.6862   -0.9269 H   0  0  0  0  0  0  0  0  0  0  0  0
   -1.5038   -2.1842    0.8214 H   0  0  0  0  0  0  0  0  0  0  0  0
   -0.7590    1.0551    1.7217 H   0  0  0  0  0  0  0  0  0  0  0  0
  1  2  1  0
  2  3  1  0
  3  4  1  0
  4  5  1  0
  5  6  2  0
  6  7  1  0
  7  8  1  0
  8  9  1  0
  8  3  1  0
  8  4  1  0
  1 10  1  0
  1 11  1  0
  1 12  1  0
  3 13  1  0
  4 14  1  0
  5 15  1  0
  6 16  1  0
  7 17  1  0
  7 18  1  0
  9 19  1  0
M  END
