
     RDKit          3D

 23 23  0  0  0  0  0  0  0  0999 V2000
    0.2654    2.2347   -0.6399 C   0  0  0  0  0  0  0  0  0  0  0  0
   -0.1311    1.0429   -1.1005 O   0  0  0  0  0  0  0  0  0  0  0  0
   -0.2500   -0.0487   -0.3494 C   0  0  0  0  0  0  0  0  0  0  0  0
    0.9672   -0.5892    0.3702 C   0  0  0  0  0  0  0  0  0  0  0  0
    1.5222    0.3489    1.3974 C   0  0  0  0  0  0  0  0  0  0  0  0
    2.0039   -0.9042   -0.5381 O   0  0  0  0  0  0  0  0  0  0  0  0
   -1.4528   -0.2219    0.5357 C   0  0  0  0  0  0  0  0  0  0  0  0
   -1.7191   -1.5963   -0.0485 C   0  0  0  0  0  0  0  0  0  0  0  0
   -0.8444   -1.1877   -1.2040 C   0  0  0  0  0  0  0  0  0  0  0  0
    0.2458    2.9652   -1.5139 H   0  0  0  0  0  0  0  0  0  0  0  0
   -0.4082    2.6818    0.1206 H   0  0  0  0  0  0  0  0  0  0  0  0
    1.3011    2.3302   -0.2673 H   0  0  0  0  0  0  0  0  0  0  0  0
    0.6966   -1.5600    0.8829 H   0  0  0  0  0  0  0  0  0  0  0  0
    2.4929    0.7685    1.0524 H   0  0  0  0  0  0  0  0  0  0  0  0
    0.8052    1.1402    1.7241 H   0  0  0  0  0  0  0  0  0  0  0  0
    1.7457   -0.2613    2.3260 H   0  0  0  0  0  0  0  0  0  0  0  0
    1.9092   -0.3078   -1.3400 H   0  0  0  0  0  0  0  0  0  0  0  0
   -2.3037    0.4543    0.3453 H   0  0  0  0  0  0  0  0  0  0  0  0
   -1.2289   -0.3320    1.6192 H   0  0  0  0  0  0  0  0  0  0  0  0
   -2.7758   -1.7650   -0.3019 H   0  0  0  0  0  0  0  0  0  0  0  0
   -1.2686   -2.4360    0.5077 H   0  0  0  0  0  0  0  0  0  0  0  0
   -1.4694   -0.8324   -2.0372 H   0  0  0  0  0  0  0  0  0  0  0  0
   -0.1032   -1.9242   -1.5407 H   0  0  0  0  0  0  0  0  0  0  0  0
  1  2  1  0
  2  3  1  0
  3  4  1  0
  4  5  1  0
  4  6  1  0
  3  7  1  0
  7  8  1  0
  8  9  1  0
  9  3  1  0
  1 10  1  0
  1 11  1  0
  1 12  1  0
  4 13  1  0
  5 14  1  0
  5 15  1  0
  5 16  1  0
  6 17  1  0
  7 18  1  0
  7 19  1  0
  8 20  1  0
  8 21  1  0
  9 22  1  0
  9 23  1  0
M  END
