
     RDKit          3D

 18 18  0  0  0  0  0  0  0  0999 V2000
    2.7861   -0.1059   -0.2130 C   0  0  0  0  0  0  0  0  0  0  0  0
    1.5786    0.0963   -0.9009 O   0  0  0  0  0  0  0  0  0  0  0  0
    0.4941   -0.1773   -0.0833 C   0  0  0  0  0  0  0  0  0  0  0  0
   -0.3201    1.0531    0.1417 C   0  0  0  0  0  0  0  0  0  0  0  0
   -1.7251    0.7687    0.5058 C   0  0  0  0  0  0  0  0  0  0  0  0
   -2.3058   -0.2601   -0.1246 C   0  0  0  0  0  0  0  0  0  0  0  0
   -1.4222   -0.9729   -1.1177 C   0  0  0  0  0  0  0  0  0  0  0  0
   -0.1842   -1.2447   -0.5968 O   0  0  0  0  0  0  0  0  0  0  0  0
    2.8304   -1.1835    0.1187 H   0  0  0  0  0  0  0  0  0  0  0  0
    2.7844    0.5698    0.6511 H   0  0  0  0  0  0  0  0  0  0  0  0
    3.6252    0.1282   -0.9001 H   0  0  0  0  0  0  0  0  0  0  0  0
    0.8905   -0.4923    0.9260 H   0  0  0  0  0  0  0  0  0  0  0  0
   -0.3034    1.7018   -0.7758 H   0  0  0  0  0  0  0  0  0  0  0  0
    0.1900    1.6759    0.9298 H   0  0  0  0  0  0  0  0  0  0  0  0
   -2.2953    1.3318    1.2351 H   0  0  0  0  0  0  0  0  0  0  0  0
   -3.3225   -0.5500    0.0669 H   0  0  0  0  0  0  0  0  0  0  0  0
   -1.3736   -0.3949   -2.0726 H   0  0  0  0  0  0  0  0  0  0  0  0
   -1.9270   -1.9439   -1.3205 H   0  0  0  0  0  0  0  0  0  0  0  0
  1  2  1  0
  2  3  1  0
  3  4  1  0
  4  5  1  0
  5  6  2  0
  6  7  1  0
  7  8  1  0
  8  3  1  0
  1  9  1  0
  1 10  1  0
  1 11  1  0
  3 12  1  0
  4 13  1  0
  4 14  1  0
  5 15  1  0
  6 16  1  0
  7 17  1  0
  7 18  1  0
M  END
