
     RDKit          3D

 19 20  0  0  0  0  0  0  0  0999 V2000
    2.7572   -0.0983    0.1426 C   0  0  0  0  0  0  0  0  0  0  0  0
    1.5985    0.4250   -0.3861 O   0  0  0  0  0  0  0  0  0  0  0  0
    0.4643    0.0916    0.3355 C   0  0  0  0  0  0  0  0  0  0  0  0
   -0.2750    1.2874    0.8148 C   0  0  0  0  0  0  0  0  0  0  0  0
   -1.3793    1.4769    0.1181 C   0  0  0  0  0  0  0  0  0  0  0  0
   -1.5378    0.4436   -0.9199 C   0  0  0  0  0  0  0  0  0  0  0  0
   -2.5026   -0.5240   -0.6600 O   0  0  0  0  0  0  0  0  0  0  0  0
   -1.6120   -1.3593    0.0347 C   0  0  0  0  0  0  0  0  0  0  0  0
   -0.4865   -0.5997   -0.6234 C   0  0  0  0  0  0  0  0  0  0  0  0
    3.5956    0.2306   -0.5117 H   0  0  0  0  0  0  0  0  0  0  0  0
    2.7169   -1.2099    0.0512 H   0  0  0  0  0  0  0  0  0  0  0  0
    2.9260    0.1546    1.2037 H   0  0  0  0  0  0  0  0  0  0  0  0
    0.6715   -0.5385    1.2163 H   0  0  0  0  0  0  0  0  0  0  0  0
    0.0509    1.9186    1.6283 H   0  0  0  0  0  0  0  0  0  0  0  0
   -2.1002    2.2832    0.2674 H   0  0  0  0  0  0  0  0  0  0  0  0
   -1.4638    0.7893   -1.9628 H   0  0  0  0  0  0  0  0  0  0  0  0
   -1.6847   -1.2837    1.1179 H   0  0  0  0  0  0  0  0  0  0  0  0
   -1.7074   -2.3902   -0.3858 H   0  0  0  0  0  0  0  0  0  0  0  0
   -0.0313   -1.0972   -1.4807 H   0  0  0  0  0  0  0  0  0  0  0  0
  1  2  1  0
  2  3  1  0
  3  4  1  0
  4  5  2  0
  5  6  1  0
  6  7  1  0
  7  8  1  0
  8  9  1  0
  9  3  1  0
  9  6  1  0
  1 10  1  0
  1 11  1  0
  1 12  1  0
  3 13  1  0
  4 14  1  0
  5 15  1  0
  6 16  1  0
  8 17  1  0
  8 18  1  0
  9 19  1  0
M  END
