
     RDKit          3D

 25 25  0  0  0  0  0  0  0  0999 V2000
   -0.9434   -1.9671    0.3894 C   0  0  0  0  0  0  0  0  0  0  0  0
   -0.7579   -1.0165   -0.5325 O   0  0  0  0  0  0  0  0  0  0  0  0
   -0.1945    0.1708   -0.2624 C   0  0  0  0  0  0  0  0  0  0  0  0
    1.2269    0.1224    0.2741 C   0  0  0  0  0  0  0  0  0  0  0  0
    2.0676   -0.5862   -0.7958 C   0  0  0  0  0  0  0  0  0  0  0  0
    1.3988   -0.5748    1.5610 C   0  0  0  0  0  0  0  0  0  0  0  0
   -0.2971    1.1585   -1.4575 C   0  0  0  0  0  0  0  0  0  0  0  0
   -0.8815    1.4453   -0.0976 C   0  0  0  0  0  0  0  0  0  0  0  0
   -2.3769    1.6036   -0.0977 C   0  0  0  0  0  0  0  0  0  0  0  0
   -1.5583   -1.7013    1.2659 H   0  0  0  0  0  0  0  0  0  0  0  0
   -1.5788   -2.7765   -0.1148 H   0  0  0  0  0  0  0  0  0  0  0  0
   -0.0641   -2.5233    0.7492 H   0  0  0  0  0  0  0  0  0  0  0  0
    1.6168    1.1812    0.3921 H   0  0  0  0  0  0  0  0  0  0  0  0
    2.9804    0.0238   -1.0090 H   0  0  0  0  0  0  0  0  0  0  0  0
    2.3700   -1.5995   -0.4385 H   0  0  0  0  0  0  0  0  0  0  0  0
    1.4993   -0.7434   -1.7267 H   0  0  0  0  0  0  0  0  0  0  0  0
    2.0867    0.0454    2.2148 H   0  0  0  0  0  0  0  0  0  0  0  0
    0.4869   -0.7151    2.1736 H   0  0  0  0  0  0  0  0  0  0  0  0
    1.9671   -1.5280    1.4287 H   0  0  0  0  0  0  0  0  0  0  0  0
    0.5933    1.6811   -1.7993 H   0  0  0  0  0  0  0  0  0  0  0  0
   -0.9908    0.8998   -2.2847 H   0  0  0  0  0  0  0  0  0  0  0  0
   -0.3585    2.2525    0.4491 H   0  0  0  0  0  0  0  0  0  0  0  0
   -2.8019    1.5771    0.9473 H   0  0  0  0  0  0  0  0  0  0  0  0
   -2.8990    0.9287   -0.7846 H   0  0  0  0  0  0  0  0  0  0  0  0
   -2.5912    2.6416   -0.4441 H   0  0  0  0  0  0  0  0  0  0  0  0
  1  2  1  0
  2  3  1  0
  3  4  1  0
  4  5  1  0
  4  6  1  0
  3  7  1  0
  7  8  1  0
  8  9  1  0
  8  3  1  0
  1 10  1  0
  1 11  1  0
  1 12  1  0
  4 13  1  0
  5 14  1  0
  5 15  1  0
  5 16  1  0
  6 17  1  0
  6 18  1  0
  6 19  1  0
  7 20  1  0
  7 21  1  0
  8 22  1  0
  9 23  1  0
  9 24  1  0
  9 25  1  0
M  END
