
     RDKit          3D

 23 24  0  0  0  0  0  0  0  0999 V2000
    2.5310   -1.0249   -0.3899 C   0  0  0  0  0  0  0  0  0  0  0  0
    1.1693   -1.0926   -0.4405 O   0  0  0  0  0  0  0  0  0  0  0  0
    0.4702   -0.0482    0.1033 C   0  0  0  0  0  0  0  0  0  0  0  0
   -1.0272   -0.2439    0.0110 C   0  0  0  0  0  0  0  0  0  0  0  0
   -1.4997   -0.3753   -1.4244 C   0  0  0  0  0  0  0  0  0  0  0  0
   -1.8733    0.5806    0.9579 C   0  0  0  0  0  0  0  0  0  0  0  0
   -1.7915   -0.9337    1.0541 C   0  0  0  0  0  0  0  0  0  0  0  0
    0.8639    1.3422   -0.4310 C   0  0  0  0  0  0  0  0  0  0  0  0
    1.1023    0.9285    0.9697 C   0  0  0  0  0  0  0  0  0  0  0  0
    2.8929   -0.1444   -0.9176 H   0  0  0  0  0  0  0  0  0  0  0  0
    2.9220   -1.9023   -0.9617 H   0  0  0  0  0  0  0  0  0  0  0  0
    2.8548   -1.0548    0.6692 H   0  0  0  0  0  0  0  0  0  0  0  0
   -1.3836   -1.4055   -1.8096 H   0  0  0  0  0  0  0  0  0  0  0  0
   -0.8993    0.2849   -2.1029 H   0  0  0  0  0  0  0  0  0  0  0  0
   -2.5650   -0.0221   -1.5032 H   0  0  0  0  0  0  0  0  0  0  0  0
   -1.4196    1.1127    1.8080 H   0  0  0  0  0  0  0  0  0  0  0  0
   -2.7753    1.0284    0.4869 H   0  0  0  0  0  0  0  0  0  0  0  0
   -1.3613   -1.3670    1.9520 H   0  0  0  0  0  0  0  0  0  0  0  0
   -2.7134   -1.4741    0.7072 H   0  0  0  0  0  0  0  0  0  0  0  0
    0.0721    2.1021   -0.5884 H   0  0  0  0  0  0  0  0  0  0  0  0
    1.6844    1.4433   -1.1373 H   0  0  0  0  0  0  0  0  0  0  0  0
    0.5760    1.4975    1.7603 H   0  0  0  0  0  0  0  0  0  0  0  0
    2.1701    0.7686    1.2270 H   0  0  0  0  0  0  0  0  0  0  0  0
  1  2  1  0
  2  3  1  0
  3  4  1  0
  4  5  1  0
  4  6  1  0
  6  7  1  0
  3  8  1  0
  8  9  1  0
  9  3  1  0
  7  4  1  0
  1 10  1  0
  1 11  1  0
  1 12  1  0
  5 13  1  0
  5 14  1  0
  5 15  1  0
  6 16  1  0
  6 17  1  0
  7 18  1  0
  7 19  1  0
  8 20  1  0
  8 21  1  0
  9 22  1  0
  9 23  1  0
M  END
