
     RDKit          3D

 19 19  0  0  0  0  0  0  0  0999 V2000
    3.1360   -0.0898   -0.2673 C   0  0  0  0  0  0  0  0  0  0  0  0
    1.9435    0.5425    0.0588 O   0  0  0  0  0  0  0  0  0  0  0  0
    0.8346   -0.2361   -0.0719 C   0  0  0  0  0  0  0  0  0  0  0  0
   -0.2856    0.3257   -0.9246 C   0  0  0  0  0  0  0  0  0  0  0  0
   -1.2126   -0.3887    0.0381 C   0  0  0  0  0  0  0  0  0  0  0  0
   -2.4655    0.3717    0.3853 C   0  0  0  0  0  0  0  0  0  0  0  0
   -3.1998    0.6190   -0.7486 O   0  0  0  0  0  0  0  0  0  0  0  0
   -0.1148   -0.2779    1.0581 C   0  0  0  0  0  0  0  0  0  0  0  0
   -0.1115   -0.2450    2.2773 O   0  0  0  0  0  0  0  0  0  0  0  0
    3.3361   -0.9751    0.3583 H   0  0  0  0  0  0  0  0  0  0  0  0
    3.1638   -0.3162   -1.3524 H   0  0  0  0  0  0  0  0  0  0  0  0
    3.9554    0.6427   -0.0834 H   0  0  0  0  0  0  0  0  0  0  0  0
    1.1107   -1.2603   -0.4262 H   0  0  0  0  0  0  0  0  0  0  0  0
   -0.3243   -0.0186   -1.9589 H   0  0  0  0  0  0  0  0  0  0  0  0
   -0.4103    1.4255   -0.7827 H   0  0  0  0  0  0  0  0  0  0  0  0
   -1.3852   -1.4379   -0.2816 H   0  0  0  0  0  0  0  0  0  0  0  0
   -3.0655   -0.2525    1.0675 H   0  0  0  0  0  0  0  0  0  0  0  0
   -2.1900    1.2897    0.9454 H   0  0  0  0  0  0  0  0  0  0  0  0
   -2.7151    0.2814   -1.5426 H   0  0  0  0  0  0  0  0  0  0  0  0
  1  2  1  0
  2  3  1  0
  3  4  1  0
  4  5  1  0
  5  6  1  0
  6  7  1  0
  5  8  1  0
  8  9  2  0
  8  3  1  0
  1 10  1  0
  1 11  1  0
  1 12  1  0
  3 13  1  0
  4 14  1  0
  4 15  1  0
  5 16  1  0
  6 17  1  0
  6 18  1  0
  7 19  1  0
M  END
