
     RDKit          3D

 19 19  0  0  0  0  0  0  0  0999 V2000
    1.8230    0.7680   -0.9004 C   0  0  0  0  0  0  0  0  0  0  0  0
    0.8371   -0.1186   -1.2845 O   0  0  0  0  0  0  0  0  0  0  0  0
    0.2056   -0.6789   -0.1801 C   0  0  0  0  0  0  0  0  0  0  0  0
    1.0871   -1.4642    0.7397 C   0  0  0  0  0  0  0  0  0  0  0  0
    2.1685   -1.8626    0.3147 O   0  0  0  0  0  0  0  0  0  0  0  0
   -1.1728   -1.2183   -0.3277 C   0  0  0  0  0  0  0  0  0  0  0  0
   -0.8771    0.0766    0.4369 C   0  0  0  0  0  0  0  0  0  0  0  0
   -1.5442    1.2734   -0.1870 C   0  0  0  0  0  0  0  0  0  0  0  0
   -0.9770    0.0206    1.8341 O   0  0  0  0  0  0  0  0  0  0  0  0
    1.3832    1.6104   -0.2819 H   0  0  0  0  0  0  0  0  0  0  0  0
    2.6463    0.3133   -0.3021 H   0  0  0  0  0  0  0  0  0  0  0  0
    2.2029    1.2666   -1.8137 H   0  0  0  0  0  0  0  0  0  0  0  0
    0.8536   -1.7174    1.7559 H   0  0  0  0  0  0  0  0  0  0  0  0
   -1.4655   -2.0761    0.3173 H   0  0  0  0  0  0  0  0  0  0  0  0
   -1.7176   -1.1827   -1.2756 H   0  0  0  0  0  0  0  0  0  0  0  0
   -2.6315    1.0011   -0.2637 H   0  0  0  0  0  0  0  0  0  0  0  0
   -1.5117    2.1619    0.4709 H   0  0  0  0  0  0  0  0  0  0  0  0
   -1.2283    1.4725   -1.2178 H   0  0  0  0  0  0  0  0  0  0  0  0
   -0.0816    0.3545    2.1647 H   0  0  0  0  0  0  0  0  0  0  0  0
  1  2  1  0
  2  3  1  0
  3  4  1  0
  4  5  2  0
  3  6  1  0
  6  7  1  0
  7  8  1  0
  7  9  1  0
  7  3  1  0
  1 10  1  0
  1 11  1  0
  1 12  1  0
  4 13  1  0
  6 14  1  0
  6 15  1  0
  8 16  1  0
  8 17  1  0
  8 18  1  0
  9 19  1  0
M  END
