
     RDKit          3D

 23 23  0  0  0  0  0  0  0  0999 V2000
    2.9084   -0.7279    1.2184 C   0  0  0  0  0  0  0  0  0  0  0  0
    2.3541    0.1354    0.3132 O   0  0  0  0  0  0  0  0  0  0  0  0
    0.9960    0.3057    0.3998 C   0  0  0  0  0  0  0  0  0  0  0  0
    0.3955    1.6326    0.1861 C   0  0  0  0  0  0  0  0  0  0  0  0
    0.1155    0.4923   -0.7502 C   0  0  0  0  0  0  0  0  0  0  0  0
    0.7249    0.4760   -2.0032 O   0  0  0  0  0  0  0  0  0  0  0  0
   -1.3104    0.0245   -0.7658 C   0  0  0  0  0  0  0  0  0  0  0  0
   -1.4634   -1.4545   -0.5713 C   0  0  0  0  0  0  0  0  0  0  0  0
   -2.1661    0.7783    0.2564 C   0  0  0  0  0  0  0  0  0  0  0  0
    2.5337   -1.7605    1.1753 H   0  0  0  0  0  0  0  0  0  0  0  0
    2.7689   -0.3517    2.2393 H   0  0  0  0  0  0  0  0  0  0  0  0
    3.9989   -0.7756    1.0172 H   0  0  0  0  0  0  0  0  0  0  0  0
    0.5656   -0.3235    1.2367 H   0  0  0  0  0  0  0  0  0  0  0  0
    0.9886    2.5059   -0.1641 H   0  0  0  0  0  0  0  0  0  0  0  0
   -0.3888    1.9478    0.9052 H   0  0  0  0  0  0  0  0  0  0  0  0
    0.6265   -0.4323   -2.3887 H   0  0  0  0  0  0  0  0  0  0  0  0
   -1.7685    0.2710   -1.7559 H   0  0  0  0  0  0  0  0  0  0  0  0
   -0.6266   -1.9221   -0.0429 H   0  0  0  0  0  0  0  0  0  0  0  0
   -1.6034   -2.0109   -1.5279 H   0  0  0  0  0  0  0  0  0  0  0  0
   -2.3830   -1.6301    0.0486 H   0  0  0  0  0  0  0  0  0  0  0  0
   -1.8515    0.5756    1.2789 H   0  0  0  0  0  0  0  0  0  0  0  0
   -2.2114    1.8524   -0.0061 H   0  0  0  0  0  0  0  0  0  0  0  0
   -3.2035    0.3916    0.1453 H   0  0  0  0  0  0  0  0  0  0  0  0
  1  2  1  0
  2  3  1  0
  3  4  1  0
  4  5  1  0
  5  6  1  0
  5  7  1  0
  7  8  1  0
  7  9  1  0
  5  3  1  0
  1 10  1  0
  1 11  1  0
  1 12  1  0
  3 13  1  0
  4 14  1  0
  4 15  1  0
  6 16  1  0
  7 17  1  0
  8 18  1  0
  8 19  1  0
  8 20  1  0
  9 21  1  0
  9 22  1  0
  9 23  1  0
M  END
