
     RDKit          3D

 21 22  0  0  0  0  0  0  0  0999 V2000
    2.2293   -0.4832    0.6644 C   0  0  0  0  0  0  0  0  0  0  0  0
    1.2799   -0.6288   -0.3047 O   0  0  0  0  0  0  0  0  0  0  0  0
    0.1091    0.0919   -0.1208 C   0  0  0  0  0  0  0  0  0  0  0  0
    0.2482    1.5704   -0.0526 C   0  0  0  0  0  0  0  0  0  0  0  0
    0.8205    2.0212   -1.2688 O   0  0  0  0  0  0  0  0  0  0  0  0
   -0.9519   -0.4586   -1.0324 C   0  0  0  0  0  0  0  0  0  0  0  0
   -0.8090   -1.7134   -0.1825 C   0  0  0  0  0  0  0  0  0  0  0  0
   -0.8536   -0.5781    0.8168 C   0  0  0  0  0  0  0  0  0  0  0  0
   -1.9545   -0.0579   -0.0301 C   0  0  0  0  0  0  0  0  0  0  0  0
    2.5422    0.5757    0.7251 H   0  0  0  0  0  0  0  0  0  0  0  0
    3.1471   -1.0512    0.3993 H   0  0  0  0  0  0  0  0  0  0  0  0
    1.8638   -0.8239    1.6673 H   0  0  0  0  0  0  0  0  0  0  0  0
    1.0004    1.8471    0.7290 H   0  0  0  0  0  0  0  0  0  0  0  0
   -0.6612    2.1298    0.1842 H   0  0  0  0  0  0  0  0  0  0  0  0
    0.4184    2.8990   -1.4826 H   0  0  0  0  0  0  0  0  0  0  0  0
   -0.9720   -0.4355   -2.0284 H   0  0  0  0  0  0  0  0  0  0  0  0
    0.1672   -2.1888   -0.1848 H   0  0  0  0  0  0  0  0  0  0  0  0
   -1.7053   -2.3224   -0.2735 H   0  0  0  0  0  0  0  0  0  0  0  0
   -0.7884   -0.6590    1.8085 H   0  0  0  0  0  0  0  0  0  0  0  0
   -2.2712    0.9769    0.0566 H   0  0  0  0  0  0  0  0  0  0  0  0
   -2.8591   -0.7113   -0.0898 H   0  0  0  0  0  0  0  0  0  0  0  0
  1  2  1  0
  2  3  1  0
  3  4  1  0
  4  5  1  0
  3  6  1  0
  6  7  1  0
  7  8  1  0
  8  9  1  0
  8  3  1  0
  9  6  1  0
  1 10  1  0
  1 11  1  0
  1 12  1  0
  4 13  1  0
  4 14  1  0
  5 15  1  0
  6 16  1  0
  7 17  1  0
  7 18  1  0
  8 19  1  0
  9 20  1  0
  9 21  1  0
M  END
