
     RDKit          3D

 23 23  0  0  0  0  0  0  0  0999 V2000
    2.8949    0.0133    0.6201 C   0  0  0  0  0  0  0  0  0  0  0  0
    1.5844   -0.0770    1.0082 O   0  0  0  0  0  0  0  0  0  0  0  0
    0.6732   -0.1072   -0.0134 C   0  0  0  0  0  0  0  0  0  0  0  0
   -0.2422   -1.3021    0.0167 C   0  0  0  0  0  0  0  0  0  0  0  0
   -1.5871   -0.6293    0.3249 C   0  0  0  0  0  0  0  0  0  0  0  0
   -2.7014   -1.5086   -0.1631 C   0  0  0  0  0  0  0  0  0  0  0  0
   -1.4520    0.5363   -0.4633 O   0  0  0  0  0  0  0  0  0  0  0  0
   -0.2895    1.0751    0.0358 C   0  0  0  0  0  0  0  0  0  0  0  0
    0.2335    2.2380   -0.7437 C   0  0  0  0  0  0  0  0  0  0  0  0
    3.0780    0.9484    0.0260 H   0  0  0  0  0  0  0  0  0  0  0  0
    3.5093    0.1363    1.5482 H   0  0  0  0  0  0  0  0  0  0  0  0
    3.2931   -0.8797    0.1116 H   0  0  0  0  0  0  0  0  0  0  0  0
    1.1668   -0.0519   -1.0049 H   0  0  0  0  0  0  0  0  0  0  0  0
   -0.3740   -1.7677   -0.9841 H   0  0  0  0  0  0  0  0  0  0  0  0
   -0.0178   -2.0250    0.7985 H   0  0  0  0  0  0  0  0  0  0  0  0
   -1.6610   -0.3584    1.3891 H   0  0  0  0  0  0  0  0  0  0  0  0
   -2.8513   -1.3565   -1.2374 H   0  0  0  0  0  0  0  0  0  0  0  0
   -2.3907   -2.5610    0.0068 H   0  0  0  0  0  0  0  0  0  0  0  0
   -3.6129   -1.3276    0.4430 H   0  0  0  0  0  0  0  0  0  0  0  0
   -0.4644    1.3185    1.1105 H   0  0  0  0  0  0  0  0  0  0  0  0
    0.9290    1.9234   -1.5528 H   0  0  0  0  0  0  0  0  0  0  0  0
   -0.5475    2.8543   -1.2095 H   0  0  0  0  0  0  0  0  0  0  0  0
    0.8295    2.9085   -0.0672 H   0  0  0  0  0  0  0  0  0  0  0  0
  1  2  1  0
  2  3  1  0
  3  4  1  0
  4  5  1  0
  5  6  1  0
  5  7  1  0
  7  8  1  0
  8  9  1  0
  8  3  1  0
  1 10  1  0
  1 11  1  0
  1 12  1  0
  3 13  1  0
  4 14  1  0
  4 15  1  0
  5 16  1  0
  6 17  1  0
  6 18  1  0
  6 19  1  0
  8 20  1  0
  9 21  1  0
  9 22  1  0
  9 23  1  0
M  END
