
     RDKit          3D

 21 21  0  0  0  0  0  0  0  0999 V2000
    2.4921    1.1487   -0.3003 C   0  0  0  0  0  0  0  0  0  0  0  0
    1.4081    0.5546    0.3488 O   0  0  0  0  0  0  0  0  0  0  0  0
    0.7131   -0.2969   -0.4939 C   0  0  0  0  0  0  0  0  0  0  0  0
    0.5648   -1.7088    0.0977 C   0  0  0  0  0  0  0  0  0  0  0  0
   -0.6736   -1.1334    0.7968 C   0  0  0  0  0  0  0  0  0  0  0  0
   -0.7780   -0.2238   -0.4317 C   0  0  0  0  0  0  0  0  0  0  0  0
   -1.3536   -0.8180   -1.5351 O   0  0  0  0  0  0  0  0  0  0  0  0
   -1.3746    1.0996   -0.0387 C   0  0  0  0  0  0  0  0  0  0  0  0
   -2.7274    0.9140    0.2561 O   0  0  0  0  0  0  0  0  0  0  0  0
    2.9990    1.8138    0.4326 H   0  0  0  0  0  0  0  0  0  0  0  0
    3.2273    0.3739   -0.5751 H   0  0  0  0  0  0  0  0  0  0  0  0
    2.1949    1.6939   -1.2130 H   0  0  0  0  0  0  0  0  0  0  0  0
    1.1650   -0.3184   -1.4854 H   0  0  0  0  0  0  0  0  0  0  0  0
    1.3807   -1.9894    0.7583 H   0  0  0  0  0  0  0  0  0  0  0  0
    0.2372   -2.4120   -0.6702 H   0  0  0  0  0  0  0  0  0  0  0  0
   -0.4260   -0.5491    1.6897 H   0  0  0  0  0  0  0  0  0  0  0  0
   -1.5263   -1.8010    0.8535 H   0  0  0  0  0  0  0  0  0  0  0  0
   -2.1574   -1.3327   -1.2367 H   0  0  0  0  0  0  0  0  0  0  0  0
   -0.8834    1.5598    0.8150 H   0  0  0  0  0  0  0  0  0  0  0  0
   -1.3636    1.7589   -0.9558 H   0  0  0  0  0  0  0  0  0  0  0  0
   -3.1181    1.6664    0.7489 H   0  0  0  0  0  0  0  0  0  0  0  0
  1  2  1  0
  2  3  1  0
  3  4  1  0
  4  5  1  0
  5  6  1  0
  6  7  1  0
  6  8  1  0
  8  9  1  0
  6  3  1  0
  1 10  1  0
  1 11  1  0
  1 12  1  0
  3 13  1  0
  4 14  1  0
  4 15  1  0
  5 16  1  0
  5 17  1  0
  7 18  1  0
  8 19  1  0
  8 20  1  0
  9 21  1  0
M  END
