
     RDKit          3D

 19 19  0  0  0  0  0  0  0  0999 V2000
    2.5325    0.1741   -0.8410 C   0  0  0  0  0  0  0  0  0  0  0  0
    1.2359   -0.3247   -0.8059 O   0  0  0  0  0  0  0  0  0  0  0  0
    0.6931    0.0169    0.4249 C   0  0  0  0  0  0  0  0  0  0  0  0
   -0.1580   -1.1134    1.0159 C   0  0  0  0  0  0  0  0  0  0  0  0
   -0.7651    0.1774    0.6060 C   0  0  0  0  0  0  0  0  0  0  0  0
   -1.2057    1.0665    1.7140 C   0  0  0  0  0  0  0  0  0  0  0  0
   -0.6038    1.1562    2.7653 O   0  0  0  0  0  0  0  0  0  0  0  0
   -1.6565    0.2118   -0.6220 C   0  0  0  0  0  0  0  0  0  0  0  0
   -1.5442   -0.9828   -1.3646 O   0  0  0  0  0  0  0  0  0  0  0  0
    2.4381    1.2853   -0.7141 H   0  0  0  0  0  0  0  0  0  0  0  0
    3.0664   -0.0880   -1.7711 H   0  0  0  0  0  0  0  0  0  0  0  0
    3.1547   -0.2200   -0.0062 H   0  0  0  0  0  0  0  0  0  0  0  0
    1.3435    0.5770    1.0917 H   0  0  0  0  0  0  0  0  0  0  0  0
   -0.3175   -2.0321    0.4274 H   0  0  0  0  0  0  0  0  0  0  0  0
    0.0874   -1.3229    2.0745 H   0  0  0  0  0  0  0  0  0  0  0  0
   -2.1118    1.6925    1.6278 H   0  0  0  0  0  0  0  0  0  0  0  0
   -1.4265    1.0856   -1.2699 H   0  0  0  0  0  0  0  0  0  0  0  0
   -2.7239    0.3037   -0.3361 H   0  0  0  0  0  0  0  0  0  0  0  0
   -2.0385   -1.6632   -0.8091 H   0  0  0  0  0  0  0  0  0  0  0  0
  1  2  1  0
  2  3  1  0
  3  4  1  0
  4  5  1  0
  5  6  1  0
  6  7  2  0
  5  8  1  0
  8  9  1  0
  5  3  1  0
  1 10  1  0
  1 11  1  0
  1 12  1  0
  3 13  1  0
  4 14  1  0
  4 15  1  0
  6 16  1  0
  8 17  1  0
  8 18  1  0
  9 19  1  0
M  END
