
     RDKit          3D

 21 21  0  0  0  0  0  0  0  0999 V2000
    2.8051   -0.0520    0.1145 C   0  0  0  0  0  0  0  0  0  0  0  0
    1.4873   -0.0960    0.6222 O   0  0  0  0  0  0  0  0  0  0  0  0
    0.5548    0.0074   -0.4208 C   0  0  0  0  0  0  0  0  0  0  0  0
   -0.2641   -1.2195   -0.5434 C   0  0  0  0  0  0  0  0  0  0  0  0
   -1.4375   -1.2852    0.4010 C   0  0  0  0  0  0  0  0  0  0  0  0
   -2.1380    0.0051    0.3123 C   0  0  0  0  0  0  0  0  0  0  0  0
   -3.2903    0.0565   -0.0082 O   0  0  0  0  0  0  0  0  0  0  0  0
   -1.3855    1.2264    0.6274 C   0  0  0  0  0  0  0  0  0  0  0  0
   -0.1817    1.2872   -0.2663 C   0  0  0  0  0  0  0  0  0  0  0  0
    2.9141   -0.9095   -0.5834 H   0  0  0  0  0  0  0  0  0  0  0  0
    2.8708    0.8993   -0.4630 H   0  0  0  0  0  0  0  0  0  0  0  0
    3.4954   -0.0699    0.9535 H   0  0  0  0  0  0  0  0  0  0  0  0
    1.1404    0.0978   -1.3847 H   0  0  0  0  0  0  0  0  0  0  0  0
   -0.6439   -1.3719   -1.5742 H   0  0  0  0  0  0  0  0  0  0  0  0
    0.4079   -2.1007   -0.3438 H   0  0  0  0  0  0  0  0  0  0  0  0
   -1.1184   -1.4636    1.4509 H   0  0  0  0  0  0  0  0  0  0  0  0
   -2.1012   -2.0963    0.0275 H   0  0  0  0  0  0  0  0  0  0  0  0
   -2.0158    2.1093    0.4192 H   0  0  0  0  0  0  0  0  0  0  0  0
   -1.1110    1.2094    1.7069 H   0  0  0  0  0  0  0  0  0  0  0  0
   -0.5040    1.7254   -1.2373 H   0  0  0  0  0  0  0  0  0  0  0  0
    0.5155    2.0409    0.1897 H   0  0  0  0  0  0  0  0  0  0  0  0
  1  2  1  0
  2  3  1  0
  3  4  1  0
  4  5  1  0
  5  6  1  0
  6  7  2  0
  6  8  1  0
  8  9  1  0
  9  3  1  0
  1 10  1  0
  1 11  1  0
  1 12  1  0
  3 13  1  0
  4 14  1  0
  4 15  1  0
  5 16  1  0
  5 17  1  0
  8 18  1  0
  8 19  1  0
  9 20  1  0
  9 21  1  0
M  END
