
     RDKit          3D

 20 20  0  0  0  0  0  0  0  0999 V2000
   -2.9195    0.4158   -0.9200 C   0  0  0  0  0  0  0  0  0  0  0  0
   -1.7082   -0.2687   -0.8883 O   0  0  0  0  0  0  0  0  0  0  0  0
   -0.9001    0.1873    0.1226 C   0  0  0  0  0  0  0  0  0  0  0  0
   -0.5535   -0.9842    1.0127 C   0  0  0  0  0  0  0  0  0  0  0  0
    0.7427   -0.9770    1.2865 C   0  0  0  0  0  0  0  0  0  0  0  0
    1.4361    0.1597    0.6448 C   0  0  0  0  0  0  0  0  0  0  0  0
    2.7660   -0.2486    0.0554 C   0  0  0  0  0  0  0  0  0  0  0  0
    0.4739    0.5662   -0.4464 C   0  0  0  0  0  0  0  0  0  0  0  0
   -3.4993    0.3134    0.0194 H   0  0  0  0  0  0  0  0  0  0  0  0
   -3.5567    0.0223   -1.7362 H   0  0  0  0  0  0  0  0  0  0  0  0
   -2.7105    1.5035   -1.0836 H   0  0  0  0  0  0  0  0  0  0  0  0
   -1.3231    0.9963    0.7297 H   0  0  0  0  0  0  0  0  0  0  0  0
   -1.2926   -1.7075    1.3572 H   0  0  0  0  0  0  0  0  0  0  0  0
    1.1772   -1.7666    1.9293 H   0  0  0  0  0  0  0  0  0  0  0  0
    1.5337    0.9810    1.3793 H   0  0  0  0  0  0  0  0  0  0  0  0
    2.5322   -0.8004   -0.8908 H   0  0  0  0  0  0  0  0  0  0  0  0
    3.3174   -0.8391    0.7861 H   0  0  0  0  0  0  0  0  0  0  0  0
    3.3309    0.6932   -0.1410 H   0  0  0  0  0  0  0  0  0  0  0  0
    0.4863    1.6743   -0.6204 H   0  0  0  0  0  0  0  0  0  0  0  0
    0.6671    0.0792   -1.4099 H   0  0  0  0  0  0  0  0  0  0  0  0
  1  2  1  0
  2  3  1  0
  3  4  1  0
  4  5  2  0
  5  6  1  0
  6  7  1  0
  6  8  1  0
  8  3  1  0
  1  9  1  0
  1 10  1  0
  1 11  1  0
  3 12  1  0
  4 13  1  0
  5 14  1  0
  6 15  1  0
  7 16  1  0
  7 17  1  0
  7 18  1  0
  8 19  1  0
  8 20  1  0
M  END
