
     RDKit          3D

 17 18  0  0  0  0  0  0  0  0999 V2000
    2.6722    0.2834   -0.2733 C   0  0  0  0  0  0  0  0  0  0  0  0
    1.3651    0.4034   -0.6498 O   0  0  0  0  0  0  0  0  0  0  0  0
    0.4857   -0.3576    0.1580 C   0  0  0  0  0  0  0  0  0  0  0  0
   -0.5937   -0.9705   -0.5438 C   0  0  0  0  0  0  0  0  0  0  0  0
   -1.8085   -0.4343   -0.9486 O   0  0  0  0  0  0  0  0  0  0  0  0
   -2.1235   -0.6497    0.4227 C   0  0  0  0  0  0  0  0  0  0  0  0
   -0.8072    0.1279    0.5746 C   0  0  0  0  0  0  0  0  0  0  0  0
   -1.0755    1.5189    0.0345 C   0  0  0  0  0  0  0  0  0  0  0  0
   -0.5133    2.0216   -0.8873 O   0  0  0  0  0  0  0  0  0  0  0  0
    3.2736    0.9126   -0.9629 H   0  0  0  0  0  0  0  0  0  0  0  0
    2.8611    0.5525    0.7874 H   0  0  0  0  0  0  0  0  0  0  0  0
    2.9741   -0.7889   -0.4465 H   0  0  0  0  0  0  0  0  0  0  0  0
    1.0607   -0.9120    0.9555 H   0  0  0  0  0  0  0  0  0  0  0  0
   -0.8030   -2.0329   -0.2055 H   0  0  0  0  0  0  0  0  0  0  0  0
   -2.1090   -1.6803    0.7579 H   0  0  0  0  0  0  0  0  0  0  0  0
   -3.0117   -0.0652    0.6739 H   0  0  0  0  0  0  0  0  0  0  0  0
   -1.8470    2.0709    0.5533 H   0  0  0  0  0  0  0  0  0  0  0  0
  1  2  1  0
  2  3  1  0
  3  4  1  0
  4  5  1  0
  5  6  1  0
  6  7  1  0
  7  8  1  0
  8  9  2  0
  7  3  1  0
  7  4  1  0
  1 10  1  0
  1 11  1  0
  1 12  1  0
  3 13  1  0
  4 14  1  0
  6 15  1  0
  6 16  1  0
  8 17  1  0
M  END
