
     RDKit          3D

 21 21  0  0  0  0  0  0  0  0999 V2000
   -1.9259    1.5320    0.7048 C   0  0  0  0  0  0  0  0  0  0  0  0
   -0.9443    1.3011   -0.2455 O   0  0  0  0  0  0  0  0  0  0  0  0
   -0.4792    0.0113   -0.2629 C   0  0  0  0  0  0  0  0  0  0  0  0
   -1.4821   -1.0675   -0.5466 C   0  0  0  0  0  0  0  0  0  0  0  0
    0.4270   -0.3896    0.8720 C   0  0  0  0  0  0  0  0  0  0  0  0
    1.5722   -0.6416   -0.0791 C   0  0  0  0  0  0  0  0  0  0  0  0
    2.7813    0.1488    0.1821 C   0  0  0  0  0  0  0  0  0  0  0  0
    3.3877    0.7054   -0.7329 O   0  0  0  0  0  0  0  0  0  0  0  0
    0.7081   -0.1173   -1.1970 C   0  0  0  0  0  0  0  0  0  0  0  0
   -1.5007    1.3089    1.7179 H   0  0  0  0  0  0  0  0  0  0  0  0
   -2.1607    2.6163    0.7069 H   0  0  0  0  0  0  0  0  0  0  0  0
   -2.8613    0.9803    0.5181 H   0  0  0  0  0  0  0  0  0  0  0  0
   -0.9632   -2.0416   -0.4221 H   0  0  0  0  0  0  0  0  0  0  0  0
   -1.7507   -0.9896   -1.6281 H   0  0  0  0  0  0  0  0  0  0  0  0
   -2.3493   -1.0093    0.1121 H   0  0  0  0  0  0  0  0  0  0  0  0
    0.6862    0.4143    1.5870 H   0  0  0  0  0  0  0  0  0  0  0  0
    0.1413   -1.3384    1.3707 H   0  0  0  0  0  0  0  0  0  0  0  0
    1.8316   -1.7215   -0.2284 H   0  0  0  0  0  0  0  0  0  0  0  0
    3.1901    0.2766    1.1812 H   0  0  0  0  0  0  0  0  0  0  0  0
    1.1071    0.8432   -1.5858 H   0  0  0  0  0  0  0  0  0  0  0  0
    0.5847   -0.8218   -2.0245 H   0  0  0  0  0  0  0  0  0  0  0  0
  1  2  1  0
  2  3  1  0
  3  4  1  0
  3  5  1  0
  5  6  1  0
  6  7  1  0
  7  8  2  0
  6  9  1  0
  9  3  1  0
  1 10  1  0
  1 11  1  0
  1 12  1  0
  4 13  1  0
  4 14  1  0
  4 15  1  0
  5 16  1  0
  5 17  1  0
  6 18  1  0
  7 19  1  0
  9 20  1  0
  9 21  1  0
M  END
