
     RDKit          3D

 19 20  0  0  0  0  0  0  0  0999 V2000
   -2.9542   -0.2237    0.0437 C   0  0  0  0  0  0  0  0  0  0  0  0
   -1.6564   -0.4648   -0.3774 O   0  0  0  0  0  0  0  0  0  0  0  0
   -0.7930    0.5183    0.1287 C   0  0  0  0  0  0  0  0  0  0  0  0
    0.2585   -0.2085    0.9062 C   0  0  0  0  0  0  0  0  0  0  0  0
    1.3804   -0.2776    0.2110 C   0  0  0  0  0  0  0  0  0  0  0  0
    2.6375   -0.9136    0.6372 C   0  0  0  0  0  0  0  0  0  0  0  0
    1.1794    0.3970   -1.0908 C   0  0  0  0  0  0  0  0  0  0  0  0
    1.0758    1.8594   -0.8493 O   0  0  0  0  0  0  0  0  0  0  0  0
   -0.0782    1.1156   -1.0533 C   0  0  0  0  0  0  0  0  0  0  0  0
   -3.5950   -1.0328   -0.3865 H   0  0  0  0  0  0  0  0  0  0  0  0
   -2.9403   -0.3050    1.1614 H   0  0  0  0  0  0  0  0  0  0  0  0
   -3.2682    0.7796   -0.3030 H   0  0  0  0  0  0  0  0  0  0  0  0
   -1.3153    1.2654    0.7452 H   0  0  0  0  0  0  0  0  0  0  0  0
    0.0371   -0.5964    1.9102 H   0  0  0  0  0  0  0  0  0  0  0  0
    2.7211   -1.0562    1.7314 H   0  0  0  0  0  0  0  0  0  0  0  0
    2.6926   -1.9361    0.1849 H   0  0  0  0  0  0  0  0  0  0  0  0
    3.5433   -0.3227    0.3430 H   0  0  0  0  0  0  0  0  0  0  0  0
    1.7530    0.1354   -1.9713 H   0  0  0  0  0  0  0  0  0  0  0  0
   -0.6780    1.2668   -1.9712 H   0  0  0  0  0  0  0  0  0  0  0  0
  1  2  1  0
  2  3  1  0
  3  4  1  0
  4  5  2  0
  5  6  1  0
  5  7  1  0
  7  8  1  0
  8  9  1  0
  9  3  1  0
  9  7  1  0
  1 10  1  0
  1 11  1  0
  1 12  1  0
  3 13  1  0
  4 14  1  0
  6 15  1  0
  6 16  1  0
  6 17  1  0
  7 18  1  0
  9 19  1  0
M  END
