
     RDKit          3D

 20 20  0  0  0  0  0  0  0  0999 V2000
   -1.3850    2.0962   -0.2525 C   0  0  0  0  0  0  0  0  0  0  0  0
   -0.3054    1.2828   -0.6097 O   0  0  0  0  0  0  0  0  0  0  0  0
   -0.1888    0.2962    0.3454 C   0  0  0  0  0  0  0  0  0  0  0  0
   -0.0296   -1.1101   -0.1815 C   0  0  0  0  0  0  0  0  0  0  0  0
   -1.2999   -1.9130   -0.2135 C   0  0  0  0  0  0  0  0  0  0  0  0
    0.7850   -1.3494    0.9319 O   0  0  0  0  0  0  0  0  0  0  0  0
    1.1989   -0.0175    0.8208 C   0  0  0  0  0  0  0  0  0  0  0  0
    2.2860    0.0998   -0.2130 C   0  0  0  0  0  0  0  0  0  0  0  0
   -1.2302    2.5695    0.7533 H   0  0  0  0  0  0  0  0  0  0  0  0
   -2.3142    1.5037   -0.1918 H   0  0  0  0  0  0  0  0  0  0  0  0
   -1.5124    2.9367   -0.9785 H   0  0  0  0  0  0  0  0  0  0  0  0
   -0.9102    0.3173    1.1619 H   0  0  0  0  0  0  0  0  0  0  0  0
    0.5573   -1.2244   -1.0905 H   0  0  0  0  0  0  0  0  0  0  0  0
   -1.2619   -2.6931   -1.0030 H   0  0  0  0  0  0  0  0  0  0  0  0
   -1.4862   -2.4298    0.7657 H   0  0  0  0  0  0  0  0  0  0  0  0
   -2.1289   -1.2049   -0.4431 H   0  0  0  0  0  0  0  0  0  0  0  0
    1.4560    0.4343    1.7945 H   0  0  0  0  0  0  0  0  0  0  0  0
    2.9914    0.9329    0.0293 H   0  0  0  0  0  0  0  0  0  0  0  0
    1.9043    0.3171   -1.2305 H   0  0  0  0  0  0  0  0  0  0  0  0
    2.8741   -0.8442   -0.1953 H   0  0  0  0  0  0  0  0  0  0  0  0
  1  2  1  0
  2  3  1  0
  3  4  1  0
  4  5  1  0
  4  6  1  0
  6  7  1  0
  7  8  1  0
  7  3  1  0
  1  9  1  0
  1 10  1  0
  1 11  1  0
  3 12  1  0
  4 13  1  0
  5 14  1  0
  5 15  1  0
  5 16  1  0
  7 17  1  0
  8 18  1  0
  8 19  1  0
  8 20  1  0
M  END
