
     RDKit          3D

 19 21  0  0  0  0  0  0  0  0999 V2000
    2.4648    0.5255    0.3380 C   0  0  0  0  0  0  0  0  0  0  0  0
    1.7377   -0.6140    0.0286 O   0  0  0  0  0  0  0  0  0  0  0  0
    0.4302   -0.3674   -0.3008 C   0  0  0  0  0  0  0  0  0  0  0  0
   -0.3905   -1.5745   -0.6423 C   0  0  0  0  0  0  0  0  0  0  0  0
   -1.5150   -0.9934    0.2268 C   0  0  0  0  0  0  0  0  0  0  0  0
   -2.2593   -0.1222   -0.5211 O   0  0  0  0  0  0  0  0  0  0  0  0
   -1.6258    1.0806   -0.6339 C   0  0  0  0  0  0  0  0  0  0  0  0
   -0.2291    0.9260   -0.0262 C   0  0  0  0  0  0  0  0  0  0  0  0
   -0.4685   -0.1677    0.8992 C   0  0  0  0  0  0  0  0  0  0  0  0
    3.4966    0.2041    0.5854 H   0  0  0  0  0  0  0  0  0  0  0  0
    2.0727    1.0901    1.1886 H   0  0  0  0  0  0  0  0  0  0  0  0
    2.5490    1.1405   -0.5930 H   0  0  0  0  0  0  0  0  0  0  0  0
   -0.0079   -2.5213   -0.1582 H   0  0  0  0  0  0  0  0  0  0  0  0
   -0.6819   -1.7056   -1.6851 H   0  0  0  0  0  0  0  0  0  0  0  0
   -2.0411   -1.7369    0.8292 H   0  0  0  0  0  0  0  0  0  0  0  0
   -2.1527    1.7990    0.0625 H   0  0  0  0  0  0  0  0  0  0  0  0
   -1.5910    1.5075   -1.6441 H   0  0  0  0  0  0  0  0  0  0  0  0
    0.3505    1.8172    0.1449 H   0  0  0  0  0  0  0  0  0  0  0  0
   -0.1385   -0.2875    1.9017 H   0  0  0  0  0  0  0  0  0  0  0  0
  1  2  1  0
  2  3  1  0
  3  4  1  0
  4  5  1  0
  5  6  1  0
  6  7  1  0
  7  8  1  0
  8  9  1  0
  8  3  1  0
  9  3  1  0
  9  5  1  0
  1 10  1  0
  1 11  1  0
  1 12  1  0
  4 13  1  0
  4 14  1  0
  5 15  1  0
  7 16  1  0
  7 17  1  0
  8 18  1  0
  9 19  1  0
M  END
