
     RDKit          3D

 19 19  0  0  0  0  0  0  0  0999 V2000
   -2.8087    0.6372   -0.6156 C   0  0  0  0  0  0  0  0  0  0  0  0
   -1.8872    0.2318    0.3418 O   0  0  0  0  0  0  0  0  0  0  0  0
   -0.6354   -0.0101   -0.1938 C   0  0  0  0  0  0  0  0  0  0  0  0
   -0.1745   -1.3927    0.2178 C   0  0  0  0  0  0  0  0  0  0  0  0
    1.2943   -1.2642    0.0562 C   0  0  0  0  0  0  0  0  0  0  0  0
    1.6405    0.0029    0.2077 C   0  0  0  0  0  0  0  0  0  0  0  0
    3.0259    0.4674    0.1081 C   0  0  0  0  0  0  0  0  0  0  0  0
    3.9797   -0.3147   -0.1294 O   0  0  0  0  0  0  0  0  0  0  0  0
    0.4444    0.8414    0.4819 C   0  0  0  0  0  0  0  0  0  0  0  0
   -2.4469    1.5719   -1.0865 H   0  0  0  0  0  0  0  0  0  0  0  0
   -3.0624   -0.1488   -1.3437 H   0  0  0  0  0  0  0  0  0  0  0  0
   -3.7522    0.8755   -0.0611 H   0  0  0  0  0  0  0  0  0  0  0  0
   -0.5564    0.1494   -1.2672 H   0  0  0  0  0  0  0  0  0  0  0  0
   -0.4165   -1.5346    1.3031 H   0  0  0  0  0  0  0  0  0  0  0  0
   -0.6119   -2.1918   -0.4102 H   0  0  0  0  0  0  0  0  0  0  0  0
    1.9456   -2.1040   -0.1530 H   0  0  0  0  0  0  0  0  0  0  0  0
    3.2651    1.5039    0.2374 H   0  0  0  0  0  0  0  0  0  0  0  0
    0.2404    0.8378    1.5554 H   0  0  0  0  0  0  0  0  0  0  0  0
    0.5160    1.8417    0.0255 H   0  0  0  0  0  0  0  0  0  0  0  0
  1  2  1  0
  2  3  1  0
  3  4  1  0
  4  5  1  0
  5  6  2  0
  6  7  1  0
  7  8  2  0
  6  9  1  0
  9  3  1  0
  1 10  1  0
  1 11  1  0
  1 12  1  0
  3 13  1  0
  4 14  1  0
  4 15  1  0
  5 16  1  0
  7 17  1  0
  9 18  1  0
  9 19  1  0
M  END
