
     RDKit          3D

 21 21  0  0  0  0  0  0  0  0999 V2000
    3.2333    0.0025    0.2894 C   0  0  0  0  0  0  0  0  0  0  0  0
    1.9588    0.3168    0.7502 O   0  0  0  0  0  0  0  0  0  0  0  0
    1.0100   -0.1503   -0.1504 C   0  0  0  0  0  0  0  0  0  0  0  0
    0.1896    0.9664   -0.7040 C   0  0  0  0  0  0  0  0  0  0  0  0
   -1.0416    1.3664   -0.4250 C   0  0  0  0  0  0  0  0  0  0  0  0
   -2.0015    0.8246    0.5350 C   0  0  0  0  0  0  0  0  0  0  0  0
   -2.1748   -0.6694    0.4391 C   0  0  0  0  0  0  0  0  0  0  0  0
   -0.9622   -1.3452   -0.1581 C   0  0  0  0  0  0  0  0  0  0  0  0
    0.1965   -1.0451    0.5507 O   0  0  0  0  0  0  0  0  0  0  0  0
    3.3493    0.5040   -0.7061 H   0  0  0  0  0  0  0  0  0  0  0  0
    3.9988    0.3457    1.0165 H   0  0  0  0  0  0  0  0  0  0  0  0
    3.3370   -1.0799    0.0878 H   0  0  0  0  0  0  0  0  0  0  0  0
    1.5434   -0.6429   -0.9836 H   0  0  0  0  0  0  0  0  0  0  0  0
    0.7307    1.5276   -1.4676 H   0  0  0  0  0  0  0  0  0  0  0  0
   -1.3777    2.2226   -0.9985 H   0  0  0  0  0  0  0  0  0  0  0  0
   -1.6726    1.1318    1.5647 H   0  0  0  0  0  0  0  0  0  0  0  0
   -2.9961    1.2951    0.3917 H   0  0  0  0  0  0  0  0  0  0  0  0
   -2.3008   -1.0600    1.4575 H   0  0  0  0  0  0  0  0  0  0  0  0
   -3.0438   -0.9155   -0.1868 H   0  0  0  0  0  0  0  0  0  0  0  0
   -0.8534   -1.1490   -1.2469 H   0  0  0  0  0  0  0  0  0  0  0  0
   -1.1229   -2.4462   -0.0556 H   0  0  0  0  0  0  0  0  0  0  0  0
  1  2  1  0
  2  3  1  0
  3  4  1  0
  4  5  2  0
  5  6  1  0
  6  7  1  0
  7  8  1  0
  8  9  1  0
  9  3  1  0
  1 10  1  0
  1 11  1  0
  1 12  1  0
  3 13  1  0
  4 14  1  0
  5 15  1  0
  6 16  1  0
  6 17  1  0
  7 18  1  0
  7 19  1  0
  8 20  1  0
  8 21  1  0
M  END
