
     RDKit          3D

 23 23  0  0  0  0  0  0  0  0999 V2000
    3.0311   -0.4978    0.7616 C   0  0  0  0  0  0  0  0  0  0  0  0
    2.1490   -0.5167   -0.3114 O   0  0  0  0  0  0  0  0  0  0  0  0
    0.9142    0.0516    0.0072 C   0  0  0  0  0  0  0  0  0  0  0  0
    0.7558    1.2700   -0.8313 C   0  0  0  0  0  0  0  0  0  0  0  0
   -0.5952    1.8687   -0.6553 C   0  0  0  0  0  0  0  0  0  0  0  0
   -1.5931    1.0311   -0.4925 C   0  0  0  0  0  0  0  0  0  0  0  0
   -1.5141   -0.4348   -0.4660 C   0  0  0  0  0  0  0  0  0  0  0  0
   -2.5627   -0.9262    0.5330 C   0  0  0  0  0  0  0  0  0  0  0  0
   -0.1570   -0.9741   -0.1513 C   0  0  0  0  0  0  0  0  0  0  0  0
    2.5751   -1.0772    1.5949 H   0  0  0  0  0  0  0  0  0  0  0  0
    3.2640    0.5283    1.1054 H   0  0  0  0  0  0  0  0  0  0  0  0
    3.9665   -0.9622    0.4342 H   0  0  0  0  0  0  0  0  0  0  0  0
    0.9883    0.3760    1.0855 H   0  0  0  0  0  0  0  0  0  0  0  0
    0.9838    1.0621   -1.9001 H   0  0  0  0  0  0  0  0  0  0  0  0
    1.5058    2.0187   -0.4908 H   0  0  0  0  0  0  0  0  0  0  0  0
   -0.7361    2.9596   -0.6633 H   0  0  0  0  0  0  0  0  0  0  0  0
   -2.5847    1.4879   -0.3644 H   0  0  0  0  0  0  0  0  0  0  0  0
   -1.8510   -0.8040   -1.4613 H   0  0  0  0  0  0  0  0  0  0  0  0
   -3.3116   -0.1520    0.7578 H   0  0  0  0  0  0  0  0  0  0  0  0
   -2.0532   -1.2452    1.4847 H   0  0  0  0  0  0  0  0  0  0  0  0
   -3.1029   -1.8152    0.1554 H   0  0  0  0  0  0  0  0  0  0  0  0
   -0.2263   -1.5459    0.7988 H   0  0  0  0  0  0  0  0  0  0  0  0
    0.1543   -1.7027   -0.9309 H   0  0  0  0  0  0  0  0  0  0  0  0
  1  2  1  0
  2  3  1  0
  3  4  1  0
  4  5  1  0
  5  6  2  0
  6  7  1  0
  7  8  1  0
  7  9  1  0
  9  3  1  0
  1 10  1  0
  1 11  1  0
  1 12  1  0
  3 13  1  0
  4 14  1  0
  4 15  1  0
  5 16  1  0
  6 17  1  0
  7 18  1  0
  8 19  1  0
  8 20  1  0
  8 21  1  0
  9 22  1  0
  9 23  1  0
M  END
