
     RDKit          3D

 20 20  0  0  0  0  0  0  0  0999 V2000
    1.8019    1.8050   -0.2284 C   0  0  0  0  0  0  0  0  0  0  0  0
    0.9911    0.9355   -0.9545 O   0  0  0  0  0  0  0  0  0  0  0  0
    0.0067    0.4680   -0.0882 C   0  0  0  0  0  0  0  0  0  0  0  0
   -1.3375    0.8259   -0.6732 C   0  0  0  0  0  0  0  0  0  0  0  0
   -2.1896   -0.2740   -0.0315 C   0  0  0  0  0  0  0  0  0  0  0  0
   -1.2246   -1.4328   -0.0338 C   0  0  0  0  0  0  0  0  0  0  0  0
    0.0203   -1.0071   -0.0667 C   0  0  0  0  0  0  0  0  0  0  0  0
    1.2522   -1.8293   -0.0808 C   0  0  0  0  0  0  0  0  0  0  0  0
    1.1372    2.6372    0.1388 H   0  0  0  0  0  0  0  0  0  0  0  0
    2.5848    2.2115   -0.8729 H   0  0  0  0  0  0  0  0  0  0  0  0
    2.2084    1.3116    0.6890 H   0  0  0  0  0  0  0  0  0  0  0  0
    0.1175    0.8987    0.9379 H   0  0  0  0  0  0  0  0  0  0  0  0
   -1.6510    1.8260   -0.3738 H   0  0  0  0  0  0  0  0  0  0  0  0
   -1.2860    0.6590   -1.7646 H   0  0  0  0  0  0  0  0  0  0  0  0
   -3.0508   -0.5339   -0.6423 H   0  0  0  0  0  0  0  0  0  0  0  0
   -2.4839    0.0199    0.9747 H   0  0  0  0  0  0  0  0  0  0  0  0
   -1.5271   -2.4694   -0.0113 H   0  0  0  0  0  0  0  0  0  0  0  0
    2.0772   -1.2630   -0.5588 H   0  0  0  0  0  0  0  0  0  0  0  0
    1.0354   -2.7512   -0.6555 H   0  0  0  0  0  0  0  0  0  0  0  0
    1.5179   -2.0373    0.9714 H   0  0  0  0  0  0  0  0  0  0  0  0
  1  2  1  0
  2  3  1  0
  3  4  1  0
  4  5  1  0
  5  6  1  0
  6  7  2  0
  7  8  1  0
  7  3  1  0
  1  9  1  0
  1 10  1  0
  1 11  1  0
  3 12  1  0
  4 13  1  0
  4 14  1  0
  5 15  1  0
  5 16  1  0
  6 17  1  0
  8 18  1  0
  8 19  1  0
  8 20  1  0
M  END
