
     RDKit          3D

 21 21  0  0  0  0  0  0  0  0999 V2000
    3.0057    0.1962   -0.4133 C   0  0  0  0  0  0  0  0  0  0  0  0
    1.7929    0.7902   -0.0781 O   0  0  0  0  0  0  0  0  0  0  0  0
    0.8741   -0.1917    0.1741 C   0  0  0  0  0  0  0  0  0  0  0  0
   -0.0149    0.1179    1.3869 C   0  0  0  0  0  0  0  0  0  0  0  0
   -0.5819    0.0108    0.0318 C   0  0  0  0  0  0  0  0  0  0  0  0
   -1.1381    1.2740   -0.5872 C   0  0  0  0  0  0  0  0  0  0  0  0
   -2.5254    1.1683   -0.5804 O   0  0  0  0  0  0  0  0  0  0  0  0
   -1.4329   -1.2103   -0.2282 C   0  0  0  0  0  0  0  0  0  0  0  0
   -1.3066   -2.1208    0.8025 O   0  0  0  0  0  0  0  0  0  0  0  0
    3.3030   -0.4282    0.4785 H   0  0  0  0  0  0  0  0  0  0  0  0
    3.7961    0.9487   -0.6378 H   0  0  0  0  0  0  0  0  0  0  0  0
    2.8907   -0.4841   -1.2988 H   0  0  0  0  0  0  0  0  0  0  0  0
    1.2309   -1.2332    0.0744 H   0  0  0  0  0  0  0  0  0  0  0  0
    0.0292    1.1304    1.8290 H   0  0  0  0  0  0  0  0  0  0  0  0
   -0.0610   -0.6881    2.1208 H   0  0  0  0  0  0  0  0  0  0  0  0
   -0.8007    2.1806   -0.0292 H   0  0  0  0  0  0  0  0  0  0  0  0
   -0.8295    1.3931   -1.6447 H   0  0  0  0  0  0  0  0  0  0  0  0
   -2.9472    1.5135   -1.4057 H   0  0  0  0  0  0  0  0  0  0  0  0
   -2.4907   -0.9411   -0.4480 H   0  0  0  0  0  0  0  0  0  0  0  0
   -1.0373   -1.7125   -1.1481 H   0  0  0  0  0  0  0  0  0  0  0  0
   -1.7564   -1.7137    1.6016 H   0  0  0  0  0  0  0  0  0  0  0  0
  1  2  1  0
  2  3  1  0
  3  4  1  0
  4  5  1  0
  5  6  1  0
  6  7  1  0
  5  8  1  0
  8  9  1  0
  5  3  1  0
  1 10  1  0
  1 11  1  0
  1 12  1  0
  3 13  1  0
  4 14  1  0
  4 15  1  0
  6 16  1  0
  6 17  1  0
  7 18  1  0
  8 19  1  0
  8 20  1  0
  9 21  1  0
M  END
