
     RDKit          3D

 23 24  0  0  0  0  0  0  0  0999 V2000
    3.1679   -0.8910   -0.3347 C   0  0  0  0  0  0  0  0  0  0  0  0
    2.1326   -0.2660    0.3735 O   0  0  0  0  0  0  0  0  0  0  0  0
    0.9474   -0.3126   -0.3029 C   0  0  0  0  0  0  0  0  0  0  0  0
    0.3288    1.0873   -0.3641 C   0  0  0  0  0  0  0  0  0  0  0  0
   -0.8937    0.8197   -1.1765 C   0  0  0  0  0  0  0  0  0  0  0  0
   -1.4056   -0.4354   -0.4366 C   0  0  0  0  0  0  0  0  0  0  0  0
   -2.7001   -0.0301    0.2304 C   0  0  0  0  0  0  0  0  0  0  0  0
   -0.2845   -0.6089    0.5467 C   0  0  0  0  0  0  0  0  0  0  0  0
   -0.1205    0.8052    1.0761 C   0  0  0  0  0  0  0  0  0  0  0  0
    3.2909   -0.3613   -1.3191 H   0  0  0  0  0  0  0  0  0  0  0  0
    4.1413   -0.7720    0.1796 H   0  0  0  0  0  0  0  0  0  0  0  0
    2.9943   -1.9777   -0.4639 H   0  0  0  0  0  0  0  0  0  0  0  0
    0.9261   -0.8076   -1.2795 H   0  0  0  0  0  0  0  0  0  0  0  0
    0.9570    1.9107   -0.5424 H   0  0  0  0  0  0  0  0  0  0  0  0
   -0.5858    0.4800   -2.2020 H   0  0  0  0  0  0  0  0  0  0  0  0
   -1.6357    1.6147   -1.1892 H   0  0  0  0  0  0  0  0  0  0  0  0
   -1.5179   -1.2827   -1.1301 H   0  0  0  0  0  0  0  0  0  0  0  0
   -2.7192   -0.3181    1.3183 H   0  0  0  0  0  0  0  0  0  0  0  0
   -3.5509   -0.4599   -0.3283 H   0  0  0  0  0  0  0  0  0  0  0  0
   -2.8498    1.0752    0.2269 H   0  0  0  0  0  0  0  0  0  0  0  0
   -0.2621   -1.4212    1.2150 H   0  0  0  0  0  0  0  0  0  0  0  0
   -1.0595    1.3095    1.3473 H   0  0  0  0  0  0  0  0  0  0  0  0
    0.6990    0.8421    1.7986 H   0  0  0  0  0  0  0  0  0  0  0  0
  1  2  1  0
  2  3  1  0
  3  4  1  0
  4  5  1  0
  5  6  1  0
  6  7  1  0
  6  8  1  0
  8  9  1  0
  8  3  1  0
  9  4  1  0
  1 10  1  0
  1 11  1  0
  1 12  1  0
  3 13  1  0
  4 14  1  0
  5 15  1  0
  5 16  1  0
  6 17  1  0
  7 18  1  0
  7 19  1  0
  7 20  1  0
  8 21  1  0
  9 22  1  0
  9 23  1  0
M  END
