
     RDKit          3D

 25 25  0  0  0  0  0  0  0  0999 V2000
   -2.1815    1.2318    0.3786 C   0  0  0  0  0  0  0  0  0  0  0  0
   -1.4312    0.2122    0.8781 O   0  0  0  0  0  0  0  0  0  0  0  0
   -0.7558   -0.4643   -0.0967 C   0  0  0  0  0  0  0  0  0  0  0  0
   -1.7116   -1.0348   -1.1050 C   0  0  0  0  0  0  0  0  0  0  0  0
    0.0966   -1.5891    0.5298 C   0  0  0  0  0  0  0  0  0  0  0  0
    1.4770   -1.0175    0.7318 C   0  0  0  0  0  0  0  0  0  0  0  0
    1.2326    0.4681    0.5632 C   0  0  0  0  0  0  0  0  0  0  0  0
    2.4598    1.2612    0.3404 C   0  0  0  0  0  0  0  0  0  0  0  0
    0.3399    0.3873   -0.6878 C   0  0  0  0  0  0  0  0  0  0  0  0
   -1.5837    1.9963   -0.1482 H   0  0  0  0  0  0  0  0  0  0  0  0
   -2.7155    1.7000    1.2598 H   0  0  0  0  0  0  0  0  0  0  0  0
   -2.9792    0.9126   -0.3247 H   0  0  0  0  0  0  0  0  0  0  0  0
   -2.7654   -1.0767   -0.7229 H   0  0  0  0  0  0  0  0  0  0  0  0
   -1.4195   -2.0902   -1.2884 H   0  0  0  0  0  0  0  0  0  0  0  0
   -1.6935   -0.4736   -2.0724 H   0  0  0  0  0  0  0  0  0  0  0  0
    0.1271   -2.4187   -0.2160 H   0  0  0  0  0  0  0  0  0  0  0  0
   -0.3925   -1.8719    1.4617 H   0  0  0  0  0  0  0  0  0  0  0  0
    2.1138   -1.3455   -0.1010 H   0  0  0  0  0  0  0  0  0  0  0  0
    1.8957   -1.2587    1.7270 H   0  0  0  0  0  0  0  0  0  0  0  0
    0.5712    0.8663    1.3676 H   0  0  0  0  0  0  0  0  0  0  0  0
    2.5906    1.6466   -0.6909 H   0  0  0  0  0  0  0  0  0  0  0  0
    3.3277    0.6644    0.6923 H   0  0  0  0  0  0  0  0  0  0  0  0
    2.4106    2.1717    0.9923 H   0  0  0  0  0  0  0  0  0  0  0  0
    0.9359   -0.2263   -1.4221 H   0  0  0  0  0  0  0  0  0  0  0  0
    0.0509    1.3489   -1.0781 H   0  0  0  0  0  0  0  0  0  0  0  0
  1  2  1  0
  2  3  1  0
  3  4  1  0
  3  5  1  0
  5  6  1  0
  6  7  1  0
  7  8  1  0
  7  9  1  0
  9  3  1  0
  1 10  1  0
  1 11  1  0
  1 12  1  0
  4 13  1  0
  4 14  1  0
  4 15  1  0
  5 16  1  0
  5 17  1  0
  6 18  1  0
  6 19  1  0
  7 20  1  0
  8 21  1  0
  8 22  1  0
  8 23  1  0
  9 24  1  0
  9 25  1  0
M  END
