
     RDKit          3D

 22 22  0  0  0  0  0  0  0  0999 V2000
    1.9409    0.2425    1.1493 C   0  0  0  0  0  0  0  0  0  0  0  0
    1.0928   -0.6637    0.6314 O   0  0  0  0  0  0  0  0  0  0  0  0
    0.2799   -0.3715   -0.3954 C   0  0  0  0  0  0  0  0  0  0  0  0
    0.9182    0.1232   -1.6740 C   0  0  0  0  0  0  0  0  0  0  0  0
   -0.6000   -1.6364   -0.6719 C   0  0  0  0  0  0  0  0  0  0  0  0
   -1.5301   -1.0205    0.3876 C   0  0  0  0  0  0  0  0  0  0  0  0
   -1.0208    0.3161   -0.1404 C   0  0  0  0  0  0  0  0  0  0  0  0
   -1.0323    1.4322    0.8287 C   0  0  0  0  0  0  0  0  0  0  0  0
    2.5147   -0.2671    1.9870 H   0  0  0  0  0  0  0  0  0  0  0  0
    2.7284    0.6183    0.4708 H   0  0  0  0  0  0  0  0  0  0  0  0
    1.4006    1.0546    1.6649 H   0  0  0  0  0  0  0  0  0  0  0  0
    1.3620    1.1041   -1.4622 H   0  0  0  0  0  0  0  0  0  0  0  0
    0.0950    0.2929   -2.3989 H   0  0  0  0  0  0  0  0  0  0  0  0
    1.6665   -0.5834   -2.0645 H   0  0  0  0  0  0  0  0  0  0  0  0
   -0.0862   -2.5506   -0.3716 H   0  0  0  0  0  0  0  0  0  0  0  0
   -1.0519   -1.6003   -1.6615 H   0  0  0  0  0  0  0  0  0  0  0  0
   -1.1885   -1.1553    1.4193 H   0  0  0  0  0  0  0  0  0  0  0  0
   -2.6026   -1.1726    0.1816 H   0  0  0  0  0  0  0  0  0  0  0  0
   -1.6039    0.5837   -1.0508 H   0  0  0  0  0  0  0  0  0  0  0  0
   -2.0605    1.9045    0.7709 H   0  0  0  0  0  0  0  0  0  0  0  0
   -0.9329    1.1424    1.8928 H   0  0  0  0  0  0  0  0  0  0  0  0
   -0.2896    2.2068    0.5069 H   0  0  0  0  0  0  0  0  0  0  0  0
  1  2  1  0
  2  3  1  0
  3  4  1  0
  3  5  1  0
  5  6  1  0
  6  7  1  0
  7  8  1  0
  7  3  1  0
  1  9  1  0
  1 10  1  0
  1 11  1  0
  4 12  1  0
  4 13  1  0
  4 14  1  0
  5 15  1  0
  5 16  1  0
  6 17  1  0
  6 18  1  0
  7 19  1  0
  8 20  1  0
  8 21  1  0
  8 22  1  0
M  END
