
     RDKit          3D

 19 20  0  0  0  0  0  0  0  0999 V2000
    2.4026    0.3900   -0.0798 C   0  0  0  0  0  0  0  0  0  0  0  0
    1.2767    0.3020    0.6992 O   0  0  0  0  0  0  0  0  0  0  0  0
    0.1144    0.0942    0.0095 C   0  0  0  0  0  0  0  0  0  0  0  0
   -0.0740   -1.1270   -0.8516 C   0  0  0  0  0  0  0  0  0  0  0  0
   -0.6930   -2.0141    0.0249 O   0  0  0  0  0  0  0  0  0  0  0  0
   -1.6902   -1.2533    0.6230 C   0  0  0  0  0  0  0  0  0  0  0  0
   -1.1296    0.0977    0.9002 C   0  0  0  0  0  0  0  0  0  0  0  0
   -0.9435    1.1263   -0.1221 C   0  0  0  0  0  0  0  0  0  0  0  0
   -0.5790    2.3881    0.2828 O   0  0  0  0  0  0  0  0  0  0  0  0
    2.5930   -0.5207   -0.6752 H   0  0  0  0  0  0  0  0  0  0  0  0
    3.2799    0.4640    0.6286 H   0  0  0  0  0  0  0  0  0  0  0  0
    2.4535    1.2697   -0.7298 H   0  0  0  0  0  0  0  0  0  0  0  0
    0.8393   -1.5098   -1.3011 H   0  0  0  0  0  0  0  0  0  0  0  0
   -0.8202   -0.9240   -1.6638 H   0  0  0  0  0  0  0  0  0  0  0  0
   -2.6076   -1.2755    0.0388 H   0  0  0  0  0  0  0  0  0  0  0  0
   -1.9132   -1.7573    1.6049 H   0  0  0  0  0  0  0  0  0  0  0  0
   -1.0256    0.4137    1.9523 H   0  0  0  0  0  0  0  0  0  0  0  0
   -1.6110    1.0823   -1.0045 H   0  0  0  0  0  0  0  0  0  0  0  0
    0.1275    2.7537   -0.3362 H   0  0  0  0  0  0  0  0  0  0  0  0
  1  2  1  0
  2  3  1  0
  3  4  1  0
  4  5  1  0
  5  6  1  0
  6  7  1  0
  7  8  1  0
  8  9  1  0
  7  3  1  0
  8  3  1  0
  1 10  1  0
  1 11  1  0
  1 12  1  0
  4 13  1  0
  4 14  1  0
  6 15  1  0
  6 16  1  0
  7 17  1  0
  8 18  1  0
  9 19  1  0
M  END
