
     RDKit          3D

 25 25  0  0  0  0  0  0  0  0999 V2000
    2.9775    0.4135    0.7552 C   0  0  0  0  0  0  0  0  0  0  0  0
    1.6071    0.2345    0.8731 O   0  0  0  0  0  0  0  0  0  0  0  0
    1.0779   -0.1105   -0.3417 C   0  0  0  0  0  0  0  0  0  0  0  0
    0.2627   -1.4054   -0.2842 C   0  0  0  0  0  0  0  0  0  0  0  0
   -0.9718   -0.5646   -0.1618 C   0  0  0  0  0  0  0  0  0  0  0  0
   -2.1025   -1.0115   -1.0547 C   0  0  0  0  0  0  0  0  0  0  0  0
   -1.3832   -0.3642    1.2808 C   0  0  0  0  0  0  0  0  0  0  0  0
   -0.1837    0.5902   -0.7538 C   0  0  0  0  0  0  0  0  0  0  0  0
   -0.4620    1.9091   -0.1235 C   0  0  0  0  0  0  0  0  0  0  0  0
    3.4078    0.6953    1.7493 H   0  0  0  0  0  0  0  0  0  0  0  0
    3.2386    1.2148    0.0168 H   0  0  0  0  0  0  0  0  0  0  0  0
    3.5120   -0.5039    0.4483 H   0  0  0  0  0  0  0  0  0  0  0  0
    1.8434   -0.1728   -1.1486 H   0  0  0  0  0  0  0  0  0  0  0  0
    0.3698   -1.9969   -1.2147 H   0  0  0  0  0  0  0  0  0  0  0  0
    0.4706   -2.0159    0.6155 H   0  0  0  0  0  0  0  0  0  0  0  0
   -1.7933   -1.7370   -1.8173 H   0  0  0  0  0  0  0  0  0  0  0  0
   -2.5521   -0.0869   -1.5112 H   0  0  0  0  0  0  0  0  0  0  0  0
   -2.8878   -1.4922   -0.4381 H   0  0  0  0  0  0  0  0  0  0  0  0
   -0.7148    0.3732    1.7759 H   0  0  0  0  0  0  0  0  0  0  0  0
   -1.2259   -1.3345    1.7941 H   0  0  0  0  0  0  0  0  0  0  0  0
   -2.4066   -0.0059    1.3829 H   0  0  0  0  0  0  0  0  0  0  0  0
   -0.2816    0.6266   -1.8695 H   0  0  0  0  0  0  0  0  0  0  0  0
   -1.5791    1.9818    0.0183 H   0  0  0  0  0  0  0  0  0  0  0  0
   -0.0156    2.0586    0.8633 H   0  0  0  0  0  0  0  0  0  0  0  0
   -0.2075    2.7048   -0.8544 H   0  0  0  0  0  0  0  0  0  0  0  0
  1  2  1  0
  2  3  1  0
  3  4  1  0
  4  5  1  0
  5  6  1  0
  5  7  1  0
  5  8  1  0
  8  9  1  0
  8  3  1  0
  1 10  1  0
  1 11  1  0
  1 12  1  0
  3 13  1  0
  4 14  1  0
  4 15  1  0
  6 16  1  0
  6 17  1  0
  6 18  1  0
  7 19  1  0
  7 20  1  0
  7 21  1  0
  8 22  1  0
  9 23  1  0
  9 24  1  0
  9 25  1  0
M  END
