
     RDKit          3D

 21 22  0  0  0  0  0  0  0  0999 V2000
   -2.7116    0.8725    0.4860 C   0  0  0  0  0  0  0  0  0  0  0  0
   -2.1204   -0.3325    0.1669 O   0  0  0  0  0  0  0  0  0  0  0  0
   -0.8786   -0.3439    0.0422 C   0  0  0  0  0  0  0  0  0  0  0  0
    0.1889    0.0023    1.0446 C   0  0  0  0  0  0  0  0  0  0  0  0
    0.9618   -0.3534   -0.2031 C   0  0  0  0  0  0  0  0  0  0  0  0
    2.3240   -0.4119   -0.3324 C   0  0  0  0  0  0  0  0  0  0  0  0
    2.9473    0.8071   -0.0614 O   0  0  0  0  0  0  0  0  0  0  0  0
   -0.0349    0.4435   -0.9480 C   0  0  0  0  0  0  0  0  0  0  0  0
    0.0001   -1.5119   -0.3272 C   0  0  0  0  0  0  0  0  0  0  0  0
   -2.5043    1.6469   -0.2943 H   0  0  0  0  0  0  0  0  0  0  0  0
   -3.8154    0.7204    0.4947 H   0  0  0  0  0  0  0  0  0  0  0  0
   -2.4536    1.2380    1.5032 H   0  0  0  0  0  0  0  0  0  0  0  0
    0.2557   -0.7022    1.8719 H   0  0  0  0  0  0  0  0  0  0  0  0
    0.2491    1.0779    1.2705 H   0  0  0  0  0  0  0  0  0  0  0  0
    2.6734   -0.7330   -1.3200 H   0  0  0  0  0  0  0  0  0  0  0  0
    2.7890   -1.1407    0.3957 H   0  0  0  0  0  0  0  0  0  0  0  0
    2.3581    1.2886    0.5640 H   0  0  0  0  0  0  0  0  0  0  0  0
   -0.1865    0.0599   -1.9824 H   0  0  0  0  0  0  0  0  0  0  0  0
   -0.0383    1.5286   -0.8198 H   0  0  0  0  0  0  0  0  0  0  0  0
   -0.1193   -1.8606   -1.3811 H   0  0  0  0  0  0  0  0  0  0  0  0
    0.1153   -2.2956    0.4165 H   0  0  0  0  0  0  0  0  0  0  0  0
  1  2  1  0
  2  3  1  0
  3  4  1  0
  4  5  1  0
  5  6  1  0
  6  7  1  0
  5  8  1  0
  5  9  1  0
  8  3  1  0
  9  3  1  0
  1 10  1  0
  1 11  1  0
  1 12  1  0
  4 13  1  0
  4 14  1  0
  6 15  1  0
  6 16  1  0
  7 17  1  0
  8 18  1  0
  8 19  1  0
  9 20  1  0
  9 21  1  0
M  END
