
     RDKit          3D

 23 23  0  0  0  0  0  0  0  0999 V2000
   -1.2334    2.2072    0.2933 C   0  0  0  0  0  0  0  0  0  0  0  0
   -0.4235    1.1590    0.7184 O   0  0  0  0  0  0  0  0  0  0  0  0
   -0.2557    0.1833   -0.2300 C   0  0  0  0  0  0  0  0  0  0  0  0
    1.1739   -0.0653   -0.6016 C   0  0  0  0  0  0  0  0  0  0  0  0
    2.1186    0.9731   -0.0855 C   0  0  0  0  0  0  0  0  0  0  0  0
    1.4608   -1.3669    0.1554 C   0  0  0  0  0  0  0  0  0  0  0  0
    0.2863   -2.0859   -0.1607 O   0  0  0  0  0  0  0  0  0  0  0  0
   -0.6914   -1.1908    0.2730 C   0  0  0  0  0  0  0  0  0  0  0  0
   -1.9891   -1.6175   -0.3974 C   0  0  0  0  0  0  0  0  0  0  0  0
   -2.2445    1.8922    0.0214 H   0  0  0  0  0  0  0  0  0  0  0  0
   -1.3301    2.9677    1.0954 H   0  0  0  0  0  0  0  0  0  0  0  0
   -0.7977    2.7494   -0.5810 H   0  0  0  0  0  0  0  0  0  0  0  0
   -0.8075    0.4186   -1.1739 H   0  0  0  0  0  0  0  0  0  0  0  0
    1.2898   -0.2982   -1.6706 H   0  0  0  0  0  0  0  0  0  0  0  0
    3.1407    0.6909   -0.4200 H   0  0  0  0  0  0  0  0  0  0  0  0
    1.9121    1.9864   -0.4627 H   0  0  0  0  0  0  0  0  0  0  0  0
    2.1139    0.9304    1.0203 H   0  0  0  0  0  0  0  0  0  0  0  0
    2.3627   -1.8725   -0.2383 H   0  0  0  0  0  0  0  0  0  0  0  0
    1.4792   -1.2042    1.2377 H   0  0  0  0  0  0  0  0  0  0  0  0
   -0.7415   -1.2451    1.3622 H   0  0  0  0  0  0  0  0  0  0  0  0
   -2.8679   -1.1063   -0.0004 H   0  0  0  0  0  0  0  0  0  0  0  0
   -2.1085   -2.7128   -0.2577 H   0  0  0  0  0  0  0  0  0  0  0  0
   -1.8471   -1.3924   -1.4865 H   0  0  0  0  0  0  0  0  0  0  0  0
  1  2  1  0
  2  3  1  0
  3  4  1  0
  4  5  1  0
  4  6  1  0
  6  7  1  0
  7  8  1  0
  8  9  1  0
  8  3  1  0
  1 10  1  0
  1 11  1  0
  1 12  1  0
  3 13  1  0
  4 14  1  0
  5 15  1  0
  5 16  1  0
  5 17  1  0
  6 18  1  0
  6 19  1  0
  8 20  1  0
  9 21  1  0
  9 22  1  0
  9 23  1  0
M  END
