
     RDKit          3D

 19 21  0  0  0  0  0  0  0  0999 V2000
    3.1587    0.2353   -0.7643 C   0  0  0  0  0  0  0  0  0  0  0  0
    1.8027    0.3725   -0.9034 O   0  0  0  0  0  0  0  0  0  0  0  0
    1.0601   -0.3324    0.0585 C   0  0  0  0  0  0  0  0  0  0  0  0
   -0.1080   -1.0379   -0.3054 C   0  0  0  0  0  0  0  0  0  0  0  0
   -1.2222   -1.4942    0.3323 O   0  0  0  0  0  0  0  0  0  0  0  0
   -2.1663   -0.5461   -0.1382 C   0  0  0  0  0  0  0  0  0  0  0  0
   -2.6967    0.5228    0.6810 C   0  0  0  0  0  0  0  0  0  0  0  0
   -1.3450    0.7938   -0.0541 C   0  0  0  0  0  0  0  0  0  0  0  0
   -0.1042    0.2975    0.5489 C   0  0  0  0  0  0  0  0  0  0  0  0
    3.5218   -0.8162   -0.8441 H   0  0  0  0  0  0  0  0  0  0  0  0
    3.4085    0.5367    0.2956 H   0  0  0  0  0  0  0  0  0  0  0  0
    3.6550    0.9253   -1.4472 H   0  0  0  0  0  0  0  0  0  0  0  0
    1.7608   -0.8745    0.7596 H   0  0  0  0  0  0  0  0  0  0  0  0
   -0.3764   -0.9085   -1.4016 H   0  0  0  0  0  0  0  0  0  0  0  0
   -2.5888   -0.7513   -1.1460 H   0  0  0  0  0  0  0  0  0  0  0  0
   -3.5752    1.0524    0.3235 H   0  0  0  0  0  0  0  0  0  0  0  0
   -2.5420    0.4518    1.7966 H   0  0  0  0  0  0  0  0  0  0  0  0
   -1.3870    1.4273   -0.9447 H   0  0  0  0  0  0  0  0  0  0  0  0
   -0.2560    0.1459    1.6658 H   0  0  0  0  0  0  0  0  0  0  0  0
  1  2  1  0
  2  3  1  0
  3  4  1  0
  4  5  1  0
  5  6  1  0
  6  7  1  0
  7  8  1  0
  8  9  1  0
  9  3  1  0
  9  4  1  0
  8  6  1  0
  1 10  1  0
  1 11  1  0
  1 12  1  0
  3 13  1  0
  4 14  1  0
  6 15  1  0
  7 16  1  0
  7 17  1  0
  8 18  1  0
  9 19  1  0
M  END
