
     RDKit          3D

 23 23  0  0  0  0  0  0  0  0999 V2000
   -2.3401    1.0394    0.4224 C   0  0  0  0  0  0  0  0  0  0  0  0
   -1.5198    0.0767    0.9779 O   0  0  0  0  0  0  0  0  0  0  0  0
   -0.6278   -0.3861    0.0643 C   0  0  0  0  0  0  0  0  0  0  0  0
   -1.3910   -0.9281   -1.1252 C   0  0  0  0  0  0  0  0  0  0  0  0
    0.2860   -1.4667    0.6440 C   0  0  0  0  0  0  0  0  0  0  0  0
    1.1685   -0.7501    1.4115 O   0  0  0  0  0  0  0  0  0  0  0  0
    1.4800    0.4068    0.7436 C   0  0  0  0  0  0  0  0  0  0  0  0
    2.7967    0.3821    0.0373 C   0  0  0  0  0  0  0  0  0  0  0  0
    0.3939    0.6527   -0.2832 C   0  0  0  0  0  0  0  0  0  0  0  0
   -1.8299    1.9320    0.0435 H   0  0  0  0  0  0  0  0  0  0  0  0
   -3.0729    1.3083    1.2453 H   0  0  0  0  0  0  0  0  0  0  0  0
   -2.9452    0.6372   -0.4253 H   0  0  0  0  0  0  0  0  0  0  0  0
   -0.8317   -1.8169   -1.4926 H   0  0  0  0  0  0  0  0  0  0  0  0
   -2.3928   -1.2910   -0.8135 H   0  0  0  0  0  0  0  0  0  0  0  0
   -1.4451   -0.1197   -1.8767 H   0  0  0  0  0  0  0  0  0  0  0  0
   -0.2690   -2.2124    1.2187 H   0  0  0  0  0  0  0  0  0  0  0  0
    0.8372   -1.8955   -0.2111 H   0  0  0  0  0  0  0  0  0  0  0  0
    1.5070    1.2280    1.4827 H   0  0  0  0  0  0  0  0  0  0  0  0
    2.7024   -0.2877   -0.8582 H   0  0  0  0  0  0  0  0  0  0  0  0
    2.9805    1.3957   -0.3740 H   0  0  0  0  0  0  0  0  0  0  0  0
    3.6406    0.0348    0.6634 H   0  0  0  0  0  0  0  0  0  0  0  0
    0.0938    1.6894   -0.2043 H   0  0  0  0  0  0  0  0  0  0  0  0
    0.7788    0.3711   -1.2904 H   0  0  0  0  0  0  0  0  0  0  0  0
  1  2  1  0
  2  3  1  0
  3  4  1  0
  3  5  1  0
  5  6  1  0
  6  7  1  0
  7  8  1  0
  7  9  1  0
  9  3  1  0
  1 10  1  0
  1 11  1  0
  1 12  1  0
  4 13  1  0
  4 14  1  0
  4 15  1  0
  5 16  1  0
  5 17  1  0
  7 18  1  0
  8 19  1  0
  8 20  1  0
  8 21  1  0
  9 22  1  0
  9 23  1  0
M  END
