
     RDKit          3D

 16 17  0  0  0  0  0  0  0  0999 V2000
    2.5059    0.5224    0.6768 C   0  0  0  0  0  0  0  0  0  0  0  0
    1.1964    0.9025    0.4181 O   0  0  0  0  0  0  0  0  0  0  0  0
    0.4614   -0.2182    0.1116 C   0  0  0  0  0  0  0  0  0  0  0  0
   -0.4087   -0.0942   -1.0794 C   0  0  0  0  0  0  0  0  0  0  0  0
   -1.0382    1.1515   -1.2004 O   0  0  0  0  0  0  0  0  0  0  0  0
   -1.9671    0.6656   -0.2797 C   0  0  0  0  0  0  0  0  0  0  0  0
   -1.0022   -0.2834    0.3297 C   0  0  0  0  0  0  0  0  0  0  0  0
   -1.4895   -1.5205    0.6762 O   0  0  0  0  0  0  0  0  0  0  0  0
    2.5690   -0.1860    1.5276 H   0  0  0  0  0  0  0  0  0  0  0  0
    2.9708    0.0086   -0.2134 H   0  0  0  0  0  0  0  0  0  0  0  0
    3.1750    1.3678    0.9070 H   0  0  0  0  0  0  0  0  0  0  0  0
    1.0436   -1.1730    0.1316 H   0  0  0  0  0  0  0  0  0  0  0  0
   -0.5525   -0.8702   -1.8160 H   0  0  0  0  0  0  0  0  0  0  0  0
   -2.7587    0.1003   -0.8550 H   0  0  0  0  0  0  0  0  0  0  0  0
   -2.4351    1.4175    0.3740 H   0  0  0  0  0  0  0  0  0  0  0  0
   -2.2701   -1.7908    0.1393 H   0  0  0  0  0  0  0  0  0  0  0  0
  1  2  1  0
  2  3  1  0
  3  4  1  0
  4  5  1  0
  5  6  1  0
  6  7  1  0
  7  8  1  0
  7  3  1  0
  7  4  1  0
  1  9  1  0
  1 10  1  0
  1 11  1  0
  3 12  1  0
  4 13  1  0
  6 14  1  0
  6 15  1  0
  8 16  1  0
M  END
