
     RDKit          3D

 19 20  0  0  0  0  0  0  0  0999 V2000
    2.0125   -0.9034   -0.6388 C   0  0  0  0  0  0  0  0  0  0  0  0
    1.7004    0.1257    0.2413 O   0  0  0  0  0  0  0  0  0  0  0  0
    0.5134    0.5315    0.2641 C   0  0  0  0  0  0  0  0  0  0  0  0
   -0.2675    1.1293   -0.8853 C   0  0  0  0  0  0  0  0  0  0  0  0
   -1.2022    1.1941    0.2649 C   0  0  0  0  0  0  0  0  0  0  0  0
   -0.0245    1.6730    1.0440 C   0  0  0  0  0  0  0  0  0  0  0  0
    0.3484    2.4808    1.8385 O   0  0  0  0  0  0  0  0  0  0  0  0
   -0.7429   -0.1741    0.6463 C   0  0  0  0  0  0  0  0  0  0  0  0
   -1.1757   -1.3273   -0.1675 C   0  0  0  0  0  0  0  0  0  0  0  0
    1.7988   -0.6171   -1.6983 H   0  0  0  0  0  0  0  0  0  0  0  0
    1.4411   -1.7991   -0.3217 H   0  0  0  0  0  0  0  0  0  0  0  0
    3.0847   -1.2132   -0.5471 H   0  0  0  0  0  0  0  0  0  0  0  0
    0.0778    2.1591   -1.1695 H   0  0  0  0  0  0  0  0  0  0  0  0
   -0.4689    0.4725   -1.7228 H   0  0  0  0  0  0  0  0  0  0  0  0
   -2.1278    1.5741    0.3114 H   0  0  0  0  0  0  0  0  0  0  0  0
   -0.8883   -0.3223    1.7454 H   0  0  0  0  0  0  0  0  0  0  0  0
   -0.7631   -1.4446   -1.1617 H   0  0  0  0  0  0  0  0  0  0  0  0
   -1.0209   -2.2555    0.4467 H   0  0  0  0  0  0  0  0  0  0  0  0
   -2.2954   -1.2832   -0.2965 H   0  0  0  0  0  0  0  0  0  0  0  0
  1  2  1  0
  2  3  1  0
  3  4  1  0
  4  5  1  0
  5  6  1  0
  6  7  2  0
  5  8  1  0
  8  9  1  0
  6  3  1  0
  8  3  1  0
  1 10  1  0
  1 11  1  0
  1 12  1  0
  4 13  1  0
  4 14  1  0
  5 15  1  0
  8 16  1  0
  9 17  1  0
  9 18  1  0
  9 19  1  0
M  END
