
     RDKit          3D

 19 21  0  0  0  0  0  0  0  0999 V2000
    2.4234   -0.5876   -0.0725 C   0  0  0  0  0  0  0  0  0  0  0  0
    1.3086   -0.6183    0.7046 O   0  0  0  0  0  0  0  0  0  0  0  0
    0.2502    0.0892    0.3340 C   0  0  0  0  0  0  0  0  0  0  0  0
    0.2907    1.5378    0.1747 C   0  0  0  0  0  0  0  0  0  0  0  0
   -0.9684    1.8462   -0.2193 C   0  0  0  0  0  0  0  0  0  0  0  0
   -1.6370    0.5225   -0.2529 C   0  0  0  0  0  0  0  0  0  0  0  0
   -0.6060   -0.3871   -0.8118 C   0  0  0  0  0  0  0  0  0  0  0  0
   -1.1155   -1.4246    0.1593 C   0  0  0  0  0  0  0  0  0  0  0  0
   -1.0842   -0.1607    0.9631 C   0  0  0  0  0  0  0  0  0  0  0  0
    3.1968   -1.2480    0.4141 H   0  0  0  0  0  0  0  0  0  0  0  0
    2.9043    0.4003   -0.1814 H   0  0  0  0  0  0  0  0  0  0  0  0
    2.2114   -0.9680   -1.0787 H   0  0  0  0  0  0  0  0  0  0  0  0
    1.0510    2.2974    0.3010 H   0  0  0  0  0  0  0  0  0  0  0  0
   -1.4052    2.7926   -0.4551 H   0  0  0  0  0  0  0  0  0  0  0  0
   -2.6623    0.4411   -0.5036 H   0  0  0  0  0  0  0  0  0  0  0  0
   -0.3219   -0.5348   -1.7586 H   0  0  0  0  0  0  0  0  0  0  0  0
   -0.3434   -2.1787    0.3824 H   0  0  0  0  0  0  0  0  0  0  0  0
   -2.1389   -1.7909   -0.0148 H   0  0  0  0  0  0  0  0  0  0  0  0
   -1.3535   -0.0283    1.9154 H   0  0  0  0  0  0  0  0  0  0  0  0
  1  2  1  0
  2  3  1  0
  3  4  1  0
  4  5  2  0
  5  6  1  0
  6  7  1  0
  7  8  1  0
  8  9  1  0
  7  3  1  0
  9  3  1  0
  9  6  1  0
  1 10  1  0
  1 11  1  0
  1 12  1  0
  4 13  1  0
  5 14  1  0
  6 15  1  0
  7 16  1  0
  8 17  1  0
  8 18  1  0
  9 19  1  0
M  END
