
     RDKit          3D

 23 23  0  0  0  0  0  0  0  0999 V2000
   -3.0876   -0.1628    0.3144 C   0  0  0  0  0  0  0  0  0  0  0  0
   -1.8674    0.2368    0.8578 O   0  0  0  0  0  0  0  0  0  0  0  0
   -0.9026    0.0997   -0.1020 C   0  0  0  0  0  0  0  0  0  0  0  0
   -0.0042    1.3353   -0.2709 C   0  0  0  0  0  0  0  0  0  0  0  0
    1.1022    0.3454   -0.5662 C   0  0  0  0  0  0  0  0  0  0  0  0
    2.4601    0.7399   -0.0681 C   0  0  0  0  0  0  0  0  0  0  0  0
    2.9096    1.9353   -0.6080 O   0  0  0  0  0  0  0  0  0  0  0  0
    0.3566   -0.6374    0.3233 C   0  0  0  0  0  0  0  0  0  0  0  0
    0.3196   -2.0539   -0.2261 C   0  0  0  0  0  0  0  0  0  0  0  0
   -3.9051   -0.0775    1.0330 H   0  0  0  0  0  0  0  0  0  0  0  0
   -3.0245   -1.2490    0.0203 H   0  0  0  0  0  0  0  0  0  0  0  0
   -3.2316    0.4190   -0.6152 H   0  0  0  0  0  0  0  0  0  0  0  0
   -1.2705   -0.2787   -1.0570 H   0  0  0  0  0  0  0  0  0  0  0  0
    0.0610    1.8333    0.7170 H   0  0  0  0  0  0  0  0  0  0  0  0
   -0.2928    1.9823   -1.1087 H   0  0  0  0  0  0  0  0  0  0  0  0
    1.0425    0.0045   -1.6056 H   0  0  0  0  0  0  0  0  0  0  0  0
    2.5420    0.6907    1.0354 H   0  0  0  0  0  0  0  0  0  0  0  0
    3.1729   -0.0488   -0.4454 H   0  0  0  0  0  0  0  0  0  0  0  0
    2.2087    2.5943   -0.7682 H   0  0  0  0  0  0  0  0  0  0  0  0
    0.6004   -0.5675    1.3946 H   0  0  0  0  0  0  0  0  0  0  0  0
   -0.3709   -2.6386    0.4034 H   0  0  0  0  0  0  0  0  0  0  0  0
   -0.1309   -2.0027   -1.2401 H   0  0  0  0  0  0  0  0  0  0  0  0
    1.3124   -2.4996   -0.3234 H   0  0  0  0  0  0  0  0  0  0  0  0
  1  2  1  0
  2  3  1  0
  3  4  1  0
  4  5  1  0
  5  6  1  0
  6  7  1  0
  5  8  1  0
  8  9  1  0
  8  3  1  0
  1 10  1  0
  1 11  1  0
  1 12  1  0
  3 13  1  0
  4 14  1  0
  4 15  1  0
  5 16  1  0
  6 17  1  0
  6 18  1  0
  7 19  1  0
  8 20  1  0
  9 21  1  0
  9 22  1  0
  9 23  1  0
M  END
