
     RDKit          3D

 19 19  0  0  0  0  0  0  0  0999 V2000
    2.3697   -0.4311    0.2492 C   0  0  0  0  0  0  0  0  0  0  0  0
    1.1539   -0.2110   -0.4078 O   0  0  0  0  0  0  0  0  0  0  0  0
    0.2036    0.3460    0.4042 C   0  0  0  0  0  0  0  0  0  0  0  0
   -1.1454   -0.3721    0.2774 C   0  0  0  0  0  0  0  0  0  0  0  0
   -1.0704   -1.8338    0.0654 C   0  0  0  0  0  0  0  0  0  0  0  0
   -1.3681    0.4788   -0.9126 C   0  0  0  0  0  0  0  0  0  0  0  0
   -1.9295    0.4132   -1.9765 O   0  0  0  0  0  0  0  0  0  0  0  0
   -0.5671    1.5163   -0.2211 C   0  0  0  0  0  0  0  0  0  0  0  0
    0.1904    2.3409   -1.0210 O   0  0  0  0  0  0  0  0  0  0  0  0
    2.2788   -1.1058    1.1052 H   0  0  0  0  0  0  0  0  0  0  0  0
    2.7238    0.5570    0.6289 H   0  0  0  0  0  0  0  0  0  0  0  0
    3.1377   -0.8312   -0.4419 H   0  0  0  0  0  0  0  0  0  0  0  0
    0.4785    0.5541    1.4413 H   0  0  0  0  0  0  0  0  0  0  0  0
   -1.7916   -0.0175    1.1121 H   0  0  0  0  0  0  0  0  0  0  0  0
   -0.0972   -2.2973    0.3486 H   0  0  0  0  0  0  0  0  0  0  0  0
   -1.3562   -2.0704   -0.9905 H   0  0  0  0  0  0  0  0  0  0  0  0
   -1.8833   -2.3119    0.6878 H   0  0  0  0  0  0  0  0  0  0  0  0
   -1.1452    2.0159    0.5842 H   0  0  0  0  0  0  0  0  0  0  0  0
   -0.1822    3.2599   -0.9331 H   0  0  0  0  0  0  0  0  0  0  0  0
  1  2  1  0
  2  3  1  0
  3  4  1  0
  4  5  1  0
  4  6  1  0
  6  7  2  0
  6  8  1  0
  8  9  1  0
  8  3  1  0
  1 10  1  0
  1 11  1  0
  1 12  1  0
  3 13  1  0
  4 14  1  0
  5 15  1  0
  5 16  1  0
  5 17  1  0
  8 18  1  0
  9 19  1  0
M  END
