
     RDKit          3D

 21 22  0  0  0  0  0  0  0  0999 V2000
   -2.8798   -0.0360   -0.2689 C   0  0  0  0  0  0  0  0  0  0  0  0
   -1.8889    0.6156    0.4080 O   0  0  0  0  0  0  0  0  0  0  0  0
   -0.7964   -0.1649    0.7195 C   0  0  0  0  0  0  0  0  0  0  0  0
    0.3584    0.4678    1.4715 C   0  0  0  0  0  0  0  0  0  0  0  0
    1.0141    0.6114    0.1290 C   0  0  0  0  0  0  0  0  0  0  0  0
    2.4885    0.3225    0.0848 C   0  0  0  0  0  0  0  0  0  0  0  0
    2.9694    0.4921   -1.2125 O   0  0  0  0  0  0  0  0  0  0  0  0
    0.1196   -0.3898   -0.5069 C   0  0  0  0  0  0  0  0  0  0  0  0
   -0.5416   -1.4928    0.2064 C   0  0  0  0  0  0  0  0  0  0  0  0
   -3.2500   -0.8759    0.3437 H   0  0  0  0  0  0  0  0  0  0  0  0
   -2.4769   -0.3788   -1.2528 H   0  0  0  0  0  0  0  0  0  0  0  0
   -3.7016    0.6863   -0.4568 H   0  0  0  0  0  0  0  0  0  0  0  0
    0.1196    1.4055    1.9949 H   0  0  0  0  0  0  0  0  0  0  0  0
    0.9332   -0.2567    2.0938 H   0  0  0  0  0  0  0  0  0  0  0  0
    0.8146    1.6447   -0.2555 H   0  0  0  0  0  0  0  0  0  0  0  0
    2.9873    1.0813    0.7327 H   0  0  0  0  0  0  0  0  0  0  0  0
    2.6373   -0.7045    0.4563 H   0  0  0  0  0  0  0  0  0  0  0  0
    2.5636    1.2987   -1.6121 H   0  0  0  0  0  0  0  0  0  0  0  0
   -0.2547   -0.1389   -1.4962 H   0  0  0  0  0  0  0  0  0  0  0  0
   -1.3349   -2.0311   -0.3019 H   0  0  0  0  0  0  0  0  0  0  0  0
    0.1192   -2.1564    0.8209 H   0  0  0  0  0  0  0  0  0  0  0  0
  1  2  1  0
  2  3  1  0
  3  4  1  0
  4  5  1  0
  5  6  1  0
  6  7  1  0
  5  8  1  0
  8  9  1  0
  8  3  1  0
  9  3  1  0
  1 10  1  0
  1 11  1  0
  1 12  1  0
  4 13  1  0
  4 14  1  0
  5 15  1  0
  6 16  1  0
  6 17  1  0
  7 18  1  0
  8 19  1  0
  9 20  1  0
  9 21  1  0
M  END
