
     RDKit          3D

 21 22  0  0  0  0  0  0  0  0999 V2000
   -1.4134   -1.6922    1.0498 C   0  0  0  0  0  0  0  0  0  0  0  0
   -0.2945   -0.8593    1.2716 O   0  0  0  0  0  0  0  0  0  0  0  0
   -0.1240   -0.1291    0.1029 C   0  0  0  0  0  0  0  0  0  0  0  0
   -1.3332    0.7264   -0.2489 C   0  0  0  0  0  0  0  0  0  0  0  0
   -0.9887    2.2059   -0.4055 C   0  0  0  0  0  0  0  0  0  0  0  0
   -1.7639    1.6940    0.6237 O   0  0  0  0  0  0  0  0  0  0  0  0
    0.5017   -0.9148   -1.0103 C   0  0  0  0  0  0  0  0  0  0  0  0
    1.1864    0.2811   -0.3983 C   0  0  0  0  0  0  0  0  0  0  0  0
    2.4525    0.0996    0.3885 C   0  0  0  0  0  0  0  0  0  0  0  0
   -1.2145   -2.3534    0.1931 H   0  0  0  0  0  0  0  0  0  0  0  0
   -1.6937   -2.2438    1.9765 H   0  0  0  0  0  0  0  0  0  0  0  0
   -2.3115   -1.0794    0.7791 H   0  0  0  0  0  0  0  0  0  0  0  0
   -2.1048    0.3033   -0.8964 H   0  0  0  0  0  0  0  0  0  0  0  0
   -1.4356    2.7282   -1.2535 H   0  0  0  0  0  0  0  0  0  0  0  0
    0.0148    2.5475   -0.1166 H   0  0  0  0  0  0  0  0  0  0  0  0
    0.0035   -0.8264   -1.9948 H   0  0  0  0  0  0  0  0  0  0  0  0
    0.9179   -1.9344   -0.7920 H   0  0  0  0  0  0  0  0  0  0  0  0
    1.1811    1.1709   -1.0913 H   0  0  0  0  0  0  0  0  0  0  0  0
    2.2604   -0.1580    1.4621 H   0  0  0  0  0  0  0  0  0  0  0  0
    3.0064    1.0672    0.4185 H   0  0  0  0  0  0  0  0  0  0  0  0
    3.1528   -0.6332   -0.0580 H   0  0  0  0  0  0  0  0  0  0  0  0
  1  2  1  0
  2  3  1  0
  3  4  1  0
  4  5  1  0
  5  6  1  0
  3  7  1  0
  7  8  1  0
  8  9  1  0
  8  3  1  0
  6  4  1  0
  1 10  1  0
  1 11  1  0
  1 12  1  0
  4 13  1  0
  5 14  1  0
  5 15  1  0
  7 16  1  0
  7 17  1  0
  8 18  1  0
  9 19  1  0
  9 20  1  0
  9 21  1  0
M  END
