
     RDKit          3D

 21 22  0  0  0  0  0  0  0  0999 V2000
    3.4083   -0.2366    0.3826 C   0  0  0  0  0  0  0  0  0  0  0  0
    2.3632    0.5501   -0.0243 O   0  0  0  0  0  0  0  0  0  0  0  0
    1.1281   -0.0359    0.0424 C   0  0  0  0  0  0  0  0  0  0  0  0
    0.3084    0.1807   -1.2451 C   0  0  0  0  0  0  0  0  0  0  0  0
   -0.1227    0.7573    0.0997 C   0  0  0  0  0  0  0  0  0  0  0  0
   -1.3590    0.2352    0.6798 C   0  0  0  0  0  0  0  0  0  0  0  0
   -1.9258   -0.9781   -0.0098 C   0  0  0  0  0  0  0  0  0  0  0  0
   -3.1947   -0.5469    0.4615 O   0  0  0  0  0  0  0  0  0  0  0  0
   -2.6872    0.7555    0.1823 C   0  0  0  0  0  0  0  0  0  0  0  0
    4.3421    0.3661    0.2745 H   0  0  0  0  0  0  0  0  0  0  0  0
    3.3276   -0.5780    1.4325 H   0  0  0  0  0  0  0  0  0  0  0  0
    3.5499   -1.1479   -0.2426 H   0  0  0  0  0  0  0  0  0  0  0  0
    1.1426   -1.0838    0.4226 H   0  0  0  0  0  0  0  0  0  0  0  0
   -0.1592   -0.6807   -1.6951 H   0  0  0  0  0  0  0  0  0  0  0  0
    0.6874    0.9189   -1.9866 H   0  0  0  0  0  0  0  0  0  0  0  0
    0.0873    1.8615    0.2447 H   0  0  0  0  0  0  0  0  0  0  0  0
   -1.3729    0.0507    1.7841 H   0  0  0  0  0  0  0  0  0  0  0  0
   -1.6798   -1.9500    0.4072 H   0  0  0  0  0  0  0  0  0  0  0  0
   -2.0001   -0.9032   -1.1214 H   0  0  0  0  0  0  0  0  0  0  0  0
   -3.1537    1.5332    0.8120 H   0  0  0  0  0  0  0  0  0  0  0  0
   -2.6898    0.9321   -0.9010 H   0  0  0  0  0  0  0  0  0  0  0  0
  1  2  1  0
  2  3  1  0
  3  4  1  0
  4  5  1  0
  5  6  1  0
  6  7  1  0
  7  8  1  0
  8  9  1  0
  5  3  1  0
  9  6  1  0
  1 10  1  0
  1 11  1  0
  1 12  1  0
  3 13  1  0
  4 14  1  0
  4 15  1  0
  5 16  1  0
  6 17  1  0
  7 18  1  0
  7 19  1  0
  9 20  1  0
  9 21  1  0
M  END
