
     RDKit          3D

 19 19  0  0  0  0  0  0  0  0999 V2000
   -2.6043    0.8905    0.1116 C   0  0  0  0  0  0  0  0  0  0  0  0
   -1.2241    0.6906    0.1968 O   0  0  0  0  0  0  0  0  0  0  0  0
   -0.8715   -0.6208   -0.1355 C   0  0  0  0  0  0  0  0  0  0  0  0
    0.0311   -0.5128   -1.3274 C   0  0  0  0  0  0  0  0  0  0  0  0
    1.2368   -0.0231   -1.0679 C   0  0  0  0  0  0  0  0  0  0  0  0
    1.4961    0.3372    0.3555 C   0  0  0  0  0  0  0  0  0  0  0  0
    2.8802    0.4273    0.5352 O   0  0  0  0  0  0  0  0  0  0  0  0
    1.0430   -0.8574    1.1702 C   0  0  0  0  0  0  0  0  0  0  0  0
   -0.2590   -1.2190    0.9380 O   0  0  0  0  0  0  0  0  0  0  0  0
   -3.1734    0.2286    0.7887 H   0  0  0  0  0  0  0  0  0  0  0  0
   -2.8751    0.6880   -0.9567 H   0  0  0  0  0  0  0  0  0  0  0  0
   -2.7815    1.9561    0.3363 H   0  0  0  0  0  0  0  0  0  0  0  0
   -1.7772   -1.2193   -0.3964 H   0  0  0  0  0  0  0  0  0  0  0  0
   -0.2871   -0.8160   -2.3287 H   0  0  0  0  0  0  0  0  0  0  0  0
    1.9625    0.0960   -1.8540 H   0  0  0  0  0  0  0  0  0  0  0  0
    0.9866    1.2745    0.6573 H   0  0  0  0  0  0  0  0  0  0  0  0
    3.3088    0.9840   -0.1466 H   0  0  0  0  0  0  0  0  0  0  0  0
    1.7347   -1.6980    0.8787 H   0  0  0  0  0  0  0  0  0  0  0  0
    1.1732   -0.6066    2.2447 H   0  0  0  0  0  0  0  0  0  0  0  0
  1  2  1  0
  2  3  1  0
  3  4  1  0
  4  5  2  0
  5  6  1  0
  6  7  1  0
  6  8  1  0
  8  9  1  0
  9  3  1  0
  1 10  1  0
  1 11  1  0
  1 12  1  0
  3 13  1  0
  4 14  1  0
  5 15  1  0
  6 16  1  0
  7 17  1  0
  8 18  1  0
  8 19  1  0
M  END
