
     RDKit          3D

 23 24  0  0  0  0  0  0  0  0999 V2000
    2.5873   -0.6418    0.1618 C   0  0  0  0  0  0  0  0  0  0  0  0
    1.4707   -0.6006   -0.6719 O   0  0  0  0  0  0  0  0  0  0  0  0
    0.3769   -0.0251   -0.0648 C   0  0  0  0  0  0  0  0  0  0  0  0
   -0.2098   -0.5971    1.1736 C   0  0  0  0  0  0  0  0  0  0  0  0
   -0.9638   -0.6765   -0.0879 C   0  0  0  0  0  0  0  0  0  0  0  0
   -1.1759   -2.0293   -0.6754 C   0  0  0  0  0  0  0  0  0  0  0  0
   -1.5124    0.5457   -0.7655 C   0  0  0  0  0  0  0  0  0  0  0  0
   -0.1971    1.2621   -0.5483 C   0  0  0  0  0  0  0  0  0  0  0  0
   -0.2742    2.3313    0.5304 C   0  0  0  0  0  0  0  0  0  0  0  0
    3.4114   -1.1220   -0.4196 H   0  0  0  0  0  0  0  0  0  0  0  0
    2.9305    0.3945    0.4309 H   0  0  0  0  0  0  0  0  0  0  0  0
    2.3342   -1.2003    1.0833 H   0  0  0  0  0  0  0  0  0  0  0  0
   -0.6406    0.0456    1.9684 H   0  0  0  0  0  0  0  0  0  0  0  0
    0.2501   -1.5093    1.5435 H   0  0  0  0  0  0  0  0  0  0  0  0
   -1.9684   -1.9929   -1.4443 H   0  0  0  0  0  0  0  0  0  0  0  0
   -1.4867   -2.7106    0.1614 H   0  0  0  0  0  0  0  0  0  0  0  0
   -0.2005   -2.3840   -1.0805 H   0  0  0  0  0  0  0  0  0  0  0  0
   -2.3757    1.0291   -0.3147 H   0  0  0  0  0  0  0  0  0  0  0  0
   -1.6676    0.3623   -1.8656 H   0  0  0  0  0  0  0  0  0  0  0  0
    0.2201    1.6937   -1.4595 H   0  0  0  0  0  0  0  0  0  0  0  0
   -0.8437    1.9988    1.4158 H   0  0  0  0  0  0  0  0  0  0  0  0
    0.7661    2.6084    0.7992 H   0  0  0  0  0  0  0  0  0  0  0  0
   -0.8311    3.2178    0.1299 H   0  0  0  0  0  0  0  0  0  0  0  0
  1  2  1  0
  2  3  1  0
  3  4  1  0
  4  5  1  0
  5  6  1  0
  5  7  1  0
  7  8  1  0
  8  9  1  0
  5  3  1  0
  8  3  1  0
  1 10  1  0
  1 11  1  0
  1 12  1  0
  4 13  1  0
  4 14  1  0
  6 15  1  0
  6 16  1  0
  6 17  1  0
  7 18  1  0
  7 19  1  0
  8 20  1  0
  9 21  1  0
  9 22  1  0
  9 23  1  0
M  END
