
     RDKit          3D

 19 20  0  0  0  0  0  0  0  0999 V2000
    2.8779   -0.7359    0.1358 C   0  0  0  0  0  0  0  0  0  0  0  0
    2.0417    0.2721    0.5854 O   0  0  0  0  0  0  0  0  0  0  0  0
    0.7275    0.1134    0.1611 C   0  0  0  0  0  0  0  0  0  0  0  0
    0.2496    1.2873   -0.6200 C   0  0  0  0  0  0  0  0  0  0  0  0
   -1.0656    1.4707   -0.6796 C   0  0  0  0  0  0  0  0  0  0  0  0
   -2.0345    0.5595   -0.0059 C   0  0  0  0  0  0  0  0  0  0  0  0
   -1.8851   -0.9263   -0.1822 C   0  0  0  0  0  0  0  0  0  0  0  0
   -1.3860   -0.2755    1.0246 C   0  0  0  0  0  0  0  0  0  0  0  0
   -0.0637   -0.0035    1.2715 O   0  0  0  0  0  0  0  0  0  0  0  0
    2.9332   -0.8116   -0.9544 H   0  0  0  0  0  0  0  0  0  0  0  0
    3.8998   -0.4904    0.4969 H   0  0  0  0  0  0  0  0  0  0  0  0
    2.6328   -1.7283    0.5436 H   0  0  0  0  0  0  0  0  0  0  0  0
    0.6703   -0.8261   -0.4625 H   0  0  0  0  0  0  0  0  0  0  0  0
    0.8961    1.9890   -1.1338 H   0  0  0  0  0  0  0  0  0  0  0  0
   -1.4367    2.3246   -1.2466 H   0  0  0  0  0  0  0  0  0  0  0  0
   -2.9982    1.0074    0.2326 H   0  0  0  0  0  0  0  0  0  0  0  0
   -2.8496   -1.4751   -0.1266 H   0  0  0  0  0  0  0  0  0  0  0  0
   -1.2392   -1.2978   -1.0029 H   0  0  0  0  0  0  0  0  0  0  0  0
   -1.9705   -0.4534    1.9630 H   0  0  0  0  0  0  0  0  0  0  0  0
  1  2  1  0
  2  3  1  0
  3  4  1  0
  4  5  2  0
  5  6  1  0
  6  7  1  0
  7  8  1  0
  8  9  1  0
  9  3  1  0
  8  6  1  0
  1 10  1  0
  1 11  1  0
  1 12  1  0
  3 13  1  0
  4 14  1  0
  5 15  1  0
  6 16  1  0
  7 17  1  0
  7 18  1  0
  8 19  1  0
M  END
