
     RDKit          3D

 21 21  0  0  0  0  0  0  0  0999 V2000
    2.4595   -0.0905    0.9384 C   0  0  0  0  0  0  0  0  0  0  0  0
    1.7428    0.6900    0.0618 O   0  0  0  0  0  0  0  0  0  0  0  0
    0.5442    0.1742   -0.3356 C   0  0  0  0  0  0  0  0  0  0  0  0
    0.4642   -0.0791   -1.7013 O   0  0  0  0  0  0  0  0  0  0  0  0
   -0.5559   -1.0380   -1.8453 C   0  0  0  0  0  0  0  0  0  0  0  0
   -1.7721   -0.7072   -1.0514 C   0  0  0  0  0  0  0  0  0  0  0  0
   -1.8004    0.5314   -0.4898 O   0  0  0  0  0  0  0  0  0  0  0  0
   -0.6464    0.9983    0.0457 C   0  0  0  0  0  0  0  0  0  0  0  0
   -0.7280    1.1215    1.5669 C   0  0  0  0  0  0  0  0  0  0  0  0
    2.7172   -1.0956    0.5253 H   0  0  0  0  0  0  0  0  0  0  0  0
    2.0109   -0.2130    1.9201 H   0  0  0  0  0  0  0  0  0  0  0  0
    3.4460    0.4250    1.0973 H   0  0  0  0  0  0  0  0  0  0  0  0
    0.4199   -0.8245    0.1779 H   0  0  0  0  0  0  0  0  0  0  0  0
   -0.1047   -2.0041   -1.4823 H   0  0  0  0  0  0  0  0  0  0  0  0
   -0.7482   -1.1849   -2.9279 H   0  0  0  0  0  0  0  0  0  0  0  0
   -1.9625   -1.5061   -0.2969 H   0  0  0  0  0  0  0  0  0  0  0  0
   -2.6531   -0.7597   -1.7586 H   0  0  0  0  0  0  0  0  0  0  0  0
   -0.4758    2.0474   -0.3296 H   0  0  0  0  0  0  0  0  0  0  0  0
   -0.1824    2.0152    1.9268 H   0  0  0  0  0  0  0  0  0  0  0  0
   -1.7999    1.2779    1.8809 H   0  0  0  0  0  0  0  0  0  0  0  0
   -0.3752    0.2217    2.0776 H   0  0  0  0  0  0  0  0  0  0  0  0
  1  2  1  0
  2  3  1  0
  3  4  1  0
  4  5  1  0
  5  6  1  0
  6  7  1  0
  7  8  1  0
  8  9  1  0
  8  3  1  0
  1 10  1  0
  1 11  1  0
  1 12  1  0
  3 13  1  0
  5 14  1  0
  5 15  1  0
  6 16  1  0
  6 17  1  0
  8 18  1  0
  9 19  1  0
  9 20  1  0
  9 21  1  0
M  END
