
     RDKit          3D

 21 21  0  0  0  0  0  0  0  0999 V2000
    2.7899    0.3733    0.2236 C   0  0  0  0  0  0  0  0  0  0  0  0
    1.4697    0.3498    0.6555 O   0  0  0  0  0  0  0  0  0  0  0  0
    0.5826   -0.1121   -0.2850 C   0  0  0  0  0  0  0  0  0  0  0  0
   -0.6615   -0.7898    0.1596 C   0  0  0  0  0  0  0  0  0  0  0  0
   -1.3792   -1.7751   -0.7137 C   0  0  0  0  0  0  0  0  0  0  0  0
   -0.7395   -1.0446    1.5430 O   0  0  0  0  0  0  0  0  0  0  0  0
   -0.7455    0.6622   -0.2918 C   0  0  0  0  0  0  0  0  0  0  0  0
   -1.0021    1.6379    0.8181 C   0  0  0  0  0  0  0  0  0  0  0  0
   -1.2544    0.9151   -1.5617 O   0  0  0  0  0  0  0  0  0  0  0  0
    3.1622   -0.6340   -0.0645 H   0  0  0  0  0  0  0  0  0  0  0  0
    3.3976    0.7381    1.0746 H   0  0  0  0  0  0  0  0  0  0  0  0
    2.9609    1.0654   -0.6162 H   0  0  0  0  0  0  0  0  0  0  0  0
    1.0122   -0.4017   -1.2458 H   0  0  0  0  0  0  0  0  0  0  0  0
   -2.3401   -1.3228   -1.0633 H   0  0  0  0  0  0  0  0  0  0  0  0
   -1.6679   -2.6775   -0.1352 H   0  0  0  0  0  0  0  0  0  0  0  0
   -0.7658   -2.1385   -1.5635 H   0  0  0  0  0  0  0  0  0  0  0  0
   -1.0067   -1.9899    1.6745 H   0  0  0  0  0  0  0  0  0  0  0  0
   -1.0475    2.6777    0.4958 H   0  0  0  0  0  0  0  0  0  0  0  0
   -0.1857    1.5219    1.5605 H   0  0  0  0  0  0  0  0  0  0  0  0
   -1.9723    1.4157    1.3424 H   0  0  0  0  0  0  0  0  0  0  0  0
   -0.6069    1.5289   -2.0066 H   0  0  0  0  0  0  0  0  0  0  0  0
  1  2  1  0
  2  3  1  0
  3  4  1  0
  4  5  1  0
  4  6  1  0
  4  7  1  0
  7  8  1  0
  7  9  1  0
  7  3  1  0
  1 10  1  0
  1 11  1  0
  1 12  1  0
  3 13  1  0
  5 14  1  0
  5 15  1  0
  5 16  1  0
  6 17  1  0
  8 18  1  0
  8 19  1  0
  8 20  1  0
  9 21  1  0
M  END
