
     RDKit          3D

 21 22  0  0  0  0  0  0  0  0999 V2000
    2.8935    0.1859   -0.0363 C   0  0  0  0  0  0  0  0  0  0  0  0
    1.7119   -0.1094    0.6377 O   0  0  0  0  0  0  0  0  0  0  0  0
    0.5832    0.1270   -0.1362 C   0  0  0  0  0  0  0  0  0  0  0  0
   -0.3379   -1.0970   -0.0391 C   0  0  0  0  0  0  0  0  0  0  0  0
   -1.4926   -0.9466   -0.9937 C   0  0  0  0  0  0  0  0  0  0  0  0
   -2.3189    0.0969   -0.6499 O   0  0  0  0  0  0  0  0  0  0  0  0
   -1.6815    1.1920   -0.1247 C   0  0  0  0  0  0  0  0  0  0  0  0
   -0.4625    0.8354    0.7005 C   0  0  0  0  0  0  0  0  0  0  0  0
   -0.7022   -0.5382    1.3448 C   0  0  0  0  0  0  0  0  0  0  0  0
    2.9423    1.2363   -0.3429 H   0  0  0  0  0  0  0  0  0  0  0  0
    3.7169    0.0278    0.7062 H   0  0  0  0  0  0  0  0  0  0  0  0
    3.0710   -0.5344   -0.8555 H   0  0  0  0  0  0  0  0  0  0  0  0
    0.7353    0.5017   -1.1435 H   0  0  0  0  0  0  0  0  0  0  0  0
    0.1664   -2.0570   -0.0274 H   0  0  0  0  0  0  0  0  0  0  0  0
   -1.1415   -0.8171   -2.0366 H   0  0  0  0  0  0  0  0  0  0  0  0
   -2.0712   -1.8914   -0.9746 H   0  0  0  0  0  0  0  0  0  0  0  0
   -2.4017    1.6711    0.5982 H   0  0  0  0  0  0  0  0  0  0  0  0
   -1.4743    1.9607   -0.8839 H   0  0  0  0  0  0  0  0  0  0  0  0
   -0.1163    1.6070    1.3730 H   0  0  0  0  0  0  0  0  0  0  0  0
   -1.7285   -0.7184    1.6582 H   0  0  0  0  0  0  0  0  0  0  0  0
    0.1088   -0.7324    2.0539 H   0  0  0  0  0  0  0  0  0  0  0  0
  1  2  1  0
  2  3  1  0
  3  4  1  0
  4  5  1  0
  5  6  1  0
  6  7  1  0
  7  8  1  0
  8  9  1  0
  8  3  1  0
  9  4  1  0
  1 10  1  0
  1 11  1  0
  1 12  1  0
  3 13  1  0
  4 14  1  0
  5 15  1  0
  5 16  1  0
  7 17  1  0
  7 18  1  0
  8 19  1  0
  9 20  1  0
  9 21  1  0
M  END
