
     RDKit          3D

 21 21  0  0  0  0  0  0  0  0999 V2000
    2.6931   -0.7713   -0.2630 C   0  0  0  0  0  0  0  0  0  0  0  0
    1.4157   -0.3453   -0.6110 O   0  0  0  0  0  0  0  0  0  0  0  0
    0.8969    0.3957    0.4268 C   0  0  0  0  0  0  0  0  0  0  0  0
    0.1706    1.6598   -0.0566 C   0  0  0  0  0  0  0  0  0  0  0  0
    0.5388    2.8120    0.6058 O   0  0  0  0  0  0  0  0  0  0  0  0
   -0.5629    0.5737    0.6069 C   0  0  0  0  0  0  0  0  0  0  0  0
   -1.5547   -0.2018   -0.2005 C   0  0  0  0  0  0  0  0  0  0  0  0
   -1.4295   -1.7004   -0.0153 C   0  0  0  0  0  0  0  0  0  0  0  0
   -2.8486    0.1731    0.2062 O   0  0  0  0  0  0  0  0  0  0  0  0
    2.6756   -1.4092    0.6664 H   0  0  0  0  0  0  0  0  0  0  0  0
    3.3319    0.1146    0.0230 H   0  0  0  0  0  0  0  0  0  0  0  0
    3.2294   -1.2667   -1.0888 H   0  0  0  0  0  0  0  0  0  0  0  0
    1.5669    0.5083    1.3071 H   0  0  0  0  0  0  0  0  0  0  0  0
   -0.0078    1.7865   -1.1423 H   0  0  0  0  0  0  0  0  0  0  0  0
    0.0980    3.5796    0.1546 H   0  0  0  0  0  0  0  0  0  0  0  0
   -0.8885    0.7785    1.6590 H   0  0  0  0  0  0  0  0  0  0  0  0
   -1.4833   -0.0104   -1.2945 H   0  0  0  0  0  0  0  0  0  0  0  0
   -2.3714   -2.1649   -0.4216 H   0  0  0  0  0  0  0  0  0  0  0  0
   -0.5524   -2.0422   -0.5873 H   0  0  0  0  0  0  0  0  0  0  0  0
   -1.4100   -1.9414    1.0499 H   0  0  0  0  0  0  0  0  0  0  0  0
   -3.5078   -0.5282   -0.0283 H   0  0  0  0  0  0  0  0  0  0  0  0
  1  2  1  0
  2  3  1  0
  3  4  1  0
  4  5  1  0
  4  6  1  0
  6  7  1  0
  7  8  1  0
  7  9  1  0
  6  3  1  0
  1 10  1  0
  1 11  1  0
  1 12  1  0
  3 13  1  0
  4 14  1  0
  5 15  1  0
  6 16  1  0
  7 17  1  0
  8 18  1  0
  8 19  1  0
  8 20  1  0
  9 21  1  0
M  END
