
     RDKit          3D

 19 21  0  0  0  0  0  0  0  0999 V2000
    2.5077    0.0625   -0.2309 C   0  0  0  0  0  0  0  0  0  0  0  0
    1.4803    0.7880   -0.8003 O   0  0  0  0  0  0  0  0  0  0  0  0
    0.2385    0.3791   -0.5006 C   0  0  0  0  0  0  0  0  0  0  0  0
   -0.1812   -1.0218   -0.8692 C   0  0  0  0  0  0  0  0  0  0  0  0
   -1.6001   -1.0194   -0.2703 C   0  0  0  0  0  0  0  0  0  0  0  0
   -1.6517    0.3675    0.2884 C   0  0  0  0  0  0  0  0  0  0  0  0
   -0.3108    0.6429    0.8687 C   0  0  0  0  0  0  0  0  0  0  0  0
   -0.4704    1.9595    0.4623 O   0  0  0  0  0  0  0  0  0  0  0  0
   -0.9152    1.2756   -0.6599 C   0  0  0  0  0  0  0  0  0  0  0  0
    3.4769    0.5154   -0.5677 H   0  0  0  0  0  0  0  0  0  0  0  0
    2.5000   -1.0067   -0.5091 H   0  0  0  0  0  0  0  0  0  0  0  0
    2.4430    0.1962    0.8738 H   0  0  0  0  0  0  0  0  0  0  0  0
   -0.2239   -1.1761   -1.9686 H   0  0  0  0  0  0  0  0  0  0  0  0
    0.4690   -1.7413   -0.3713 H   0  0  0  0  0  0  0  0  0  0  0  0
   -1.6313   -1.8043    0.5164 H   0  0  0  0  0  0  0  0  0  0  0  0
   -2.3585   -1.1497   -1.0462 H   0  0  0  0  0  0  0  0  0  0  0  0
   -2.5395    0.7228    0.7678 H   0  0  0  0  0  0  0  0  0  0  0  0
    0.0687    0.3218    1.7455 H   0  0  0  0  0  0  0  0  0  0  0  0
   -1.3015    1.6881   -1.4959 H   0  0  0  0  0  0  0  0  0  0  0  0
  1  2  1  0
  2  3  1  0
  3  4  1  0
  4  5  1  0
  5  6  1  0
  6  7  1  0
  7  8  1  0
  8  9  1  0
  7  3  1  0
  9  3  1  0
  9  6  1  0
  1 10  1  0
  1 11  1  0
  1 12  1  0
  4 13  1  0
  4 14  1  0
  5 15  1  0
  5 16  1  0
  6 17  1  0
  7 18  1  0
  9 19  1  0
M  END
