
     RDKit          3D

 19 19  0  0  0  0  0  0  0  0999 V2000
   -2.7746   -0.7428    0.3980 C   0  0  0  0  0  0  0  0  0  0  0  0
   -1.6939    0.0333    0.5456 O   0  0  0  0  0  0  0  0  0  0  0  0
   -0.4889   -0.4165   -0.0457 C   0  0  0  0  0  0  0  0  0  0  0  0
    0.5360    0.4654    0.0433 C   0  0  0  0  0  0  0  0  0  0  0  0
    1.6647    1.4145    0.1581 C   0  0  0  0  0  0  0  0  0  0  0  0
    2.5828    2.1667    0.2649 C   0  0  0  0  0  0  0  0  0  0  0  0
    2.3298    3.5193   -0.2547 O   0  0  0  0  0  0  0  0  0  0  0  0
   -0.1411   -1.8877    0.4961 C   0  0  0  0  0  0  0  0  0  0  0  0
   -0.4674   -1.6028   -0.9382 C   0  0  0  0  0  0  0  0  0  0  0  0
   -3.0441   -0.9033   -0.6860 H   0  0  0  0  0  0  0  0  0  0  0  0
   -2.8562   -1.7225    0.9183 H   0  0  0  0  0  0  0  0  0  0  0  0
   -3.6554   -0.1588    0.8544 H   0  0  0  0  0  0  0  0  0  0  0  0
    3.0053    2.4769    1.3362 H   0  0  0  0  0  0  0  0  0  0  0  0
    3.6254    1.9194   -0.2032 H   0  0  0  0  0  0  0  0  0  0  0  0
    2.3786    3.4316   -1.2428 H   0  0  0  0  0  0  0  0  0  0  0  0
   -0.8498   -2.2604    1.2362 H   0  0  0  0  0  0  0  0  0  0  0  0
    0.9590   -2.0029    0.6786 H   0  0  0  0  0  0  0  0  0  0  0  0
   -1.4360   -2.0629   -1.2372 H   0  0  0  0  0  0  0  0  0  0  0  0
    0.3258   -1.6667   -1.6922 H   0  0  0  0  0  0  0  0  0  0  0  0
  1  2  1  0
  2  3  1  0
  3  4  1  0
  4  5  3  0
  5  6  1  0
  6  7  1  0
  3  8  1  0
  8  9  1  0
  9  3  1  0
  1 10  1  0
  1 11  1  0
  1 12  1  0
  6 13  1  0
  6 14  1  0
  7 15  1  0
  8 16  1  0
  8 17  1  0
  9 18  1  0
  9 19  1  0
M  END
