
     RDKit          3D

 23 23  0  0  0  0  0  0  0  0999 V2000
    3.0957   -0.8033   -0.5195 C   0  0  0  0  0  0  0  0  0  0  0  0
    2.2720   -0.1140    0.3580 O   0  0  0  0  0  0  0  0  0  0  0  0
    0.9706   -0.0228   -0.0515 C   0  0  0  0  0  0  0  0  0  0  0  0
   -0.0080   -0.5986    0.9076 C   0  0  0  0  0  0  0  0  0  0  0  0
   -1.2900   -0.4682    0.5817 C   0  0  0  0  0  0  0  0  0  0  0  0
   -2.3286   -1.0213    1.4959 C   0  0  0  0  0  0  0  0  0  0  0  0
   -1.6323    0.2291   -0.6905 C   0  0  0  0  0  0  0  0  0  0  0  0
   -0.8365    1.4945   -0.8416 C   0  0  0  0  0  0  0  0  0  0  0  0
    0.5525    1.4124   -0.2999 C   0  0  0  0  0  0  0  0  0  0  0  0
    2.7517   -1.8602   -0.6751 H   0  0  0  0  0  0  0  0  0  0  0  0
    3.1763   -0.2370   -1.4587 H   0  0  0  0  0  0  0  0  0  0  0  0
    4.0941   -0.8821   -0.0414 H   0  0  0  0  0  0  0  0  0  0  0  0
    0.8525   -0.5459   -1.0450 H   0  0  0  0  0  0  0  0  0  0  0  0
    0.3576   -1.0846    1.8034 H   0  0  0  0  0  0  0  0  0  0  0  0
   -2.2424   -0.4574    2.4521 H   0  0  0  0  0  0  0  0  0  0  0  0
   -3.3241   -0.8846    1.0547 H   0  0  0  0  0  0  0  0  0  0  0  0
   -2.0991   -2.0738    1.7159 H   0  0  0  0  0  0  0  0  0  0  0  0
   -2.7080    0.4785   -0.7495 H   0  0  0  0  0  0  0  0  0  0  0  0
   -1.3836   -0.4796   -1.5135 H   0  0  0  0  0  0  0  0  0  0  0  0
   -0.8237    1.7595   -1.9375 H   0  0  0  0  0  0  0  0  0  0  0  0
   -1.3683    2.3048   -0.2628 H   0  0  0  0  0  0  0  0  0  0  0  0
    0.6481    1.9384    0.6913 H   0  0  0  0  0  0  0  0  0  0  0  0
    1.2734    1.9163   -0.9740 H   0  0  0  0  0  0  0  0  0  0  0  0
  1  2  1  0
  2  3  1  0
  3  4  1  0
  4  5  2  0
  5  6  1  0
  5  7  1  0
  7  8  1  0
  8  9  1  0
  9  3  1  0
  1 10  1  0
  1 11  1  0
  1 12  1  0
  3 13  1  0
  4 14  1  0
  6 15  1  0
  6 16  1  0
  6 17  1  0
  7 18  1  0
  7 19  1  0
  8 20  1  0
  8 21  1  0
  9 22  1  0
  9 23  1  0
M  END
