
     RDKit          3D

 21 22  0  0  0  0  0  0  0  0999 V2000
    2.3311   -0.5562   -0.2263 C   0  0  0  0  0  0  0  0  0  0  0  0
    1.1210   -0.5582   -0.9171 O   0  0  0  0  0  0  0  0  0  0  0  0
    0.2102    0.1616   -0.1910 C   0  0  0  0  0  0  0  0  0  0  0  0
    0.6265    1.6025    0.0312 C   0  0  0  0  0  0  0  0  0  0  0  0
   -0.0029   -0.5043    1.1482 C   0  0  0  0  0  0  0  0  0  0  0  0
   -1.3270   -0.4072    1.4564 O   0  0  0  0  0  0  0  0  0  0  0  0
   -2.0484   -0.0482    0.3569 C   0  0  0  0  0  0  0  0  0  0  0  0
   -2.0383   -1.0044   -0.7937 C   0  0  0  0  0  0  0  0  0  0  0  0
   -1.1668    0.1835   -0.7977 C   0  0  0  0  0  0  0  0  0  0  0  0
    3.0439   -1.1593   -0.8636 H   0  0  0  0  0  0  0  0  0  0  0  0
    2.2890   -1.0802    0.7373 H   0  0  0  0  0  0  0  0  0  0  0  0
    2.7881    0.4504   -0.1620 H   0  0  0  0  0  0  0  0  0  0  0  0
    1.0270    1.9783   -0.9177 H   0  0  0  0  0  0  0  0  0  0  0  0
    1.3251    1.7172    0.8834 H   0  0  0  0  0  0  0  0  0  0  0  0
   -0.2950    2.1687    0.3258 H   0  0  0  0  0  0  0  0  0  0  0  0
    0.5833   -0.0078    1.9594 H   0  0  0  0  0  0  0  0  0  0  0  0
    0.3485   -1.5777    1.1214 H   0  0  0  0  0  0  0  0  0  0  0  0
   -2.9194    0.6432    0.4852 H   0  0  0  0  0  0  0  0  0  0  0  0
   -2.9255   -0.9696   -1.4309 H   0  0  0  0  0  0  0  0  0  0  0  0
   -1.6030   -2.0185   -0.6721 H   0  0  0  0  0  0  0  0  0  0  0  0
   -1.3675    0.9860   -1.5331 H   0  0  0  0  0  0  0  0  0  0  0  0
  1  2  1  0
  2  3  1  0
  3  4  1  0
  3  5  1  0
  5  6  1  0
  6  7  1  0
  7  8  1  0
  8  9  1  0
  9  3  1  0
  9  7  1  0
  1 10  1  0
  1 11  1  0
  1 12  1  0
  4 13  1  0
  4 14  1  0
  4 15  1  0
  5 16  1  0
  5 17  1  0
  7 18  1  0
  8 19  1  0
  8 20  1  0
  9 21  1  0
M  END
