
     RDKit          3D

 14 14  0  0  0  0  0  0  0  0999 V2000
    2.0568    0.0076    0.0305 C   0  0  0  0  0  0  0  0  0  0  0  0
    0.8584    0.0979   -0.6903 O   0  0  0  0  0  0  0  0  0  0  0  0
   -0.1795   -0.0503    0.2152 C   0  0  0  0  0  0  0  0  0  0  0  0
   -1.2998   -0.9279   -0.2436 C   0  0  0  0  0  0  0  0  0  0  0  0
   -2.1956   -0.0025    0.2743 O   0  0  0  0  0  0  0  0  0  0  0  0
   -1.2583    0.9863    0.0044 C   0  0  0  0  0  0  0  0  0  0  0  0
    2.9315    0.1197   -0.6460 H   0  0  0  0  0  0  0  0  0  0  0  0
    2.1035   -1.0131    0.4604 H   0  0  0  0  0  0  0  0  0  0  0  0
    2.1480    0.8096    0.7877 H   0  0  0  0  0  0  0  0  0  0  0  0
    0.0839   -0.2013    1.2592 H   0  0  0  0  0  0  0  0  0  0  0  0
   -1.2668   -1.9095    0.2544 H   0  0  0  0  0  0  0  0  0  0  0  0
   -1.4448   -1.0107   -1.3349 H   0  0  0  0  0  0  0  0  0  0  0  0
   -1.2668    1.3149   -1.0378 H   0  0  0  0  0  0  0  0  0  0  0  0
   -1.2705    1.7794    0.7824 H   0  0  0  0  0  0  0  0  0  0  0  0
  1  2  1  0
  2  3  1  0
  3  4  1  0
  4  5  1  0
  5  6  1  0
  6  3  1  0
  1  7  1  0
  1  8  1  0
  1  9  1  0
  3 10  1  0
  4 11  1  0
  4 12  1  0
  6 13  1  0
  6 14  1  0
M  END
