
     RDKit          3D

 23 23  0  0  0  0  0  0  0  0999 V2000
    2.9857    0.0973    1.2996 C   0  0  0  0  0  0  0  0  0  0  0  0
    1.7092   -0.3556    0.9547 O   0  0  0  0  0  0  0  0  0  0  0  0
    1.2012    0.3686   -0.1363 C   0  0  0  0  0  0  0  0  0  0  0  0
    0.8128   -0.5027   -1.2830 C   0  0  0  0  0  0  0  0  0  0  0  0
   -0.7095   -0.5202   -1.3388 C   0  0  0  0  0  0  0  0  0  0  0  0
   -1.1101   -0.0075    0.0105 C   0  0  0  0  0  0  0  0  0  0  0  0
   -2.4014    0.4104    0.1140 O   0  0  0  0  0  0  0  0  0  0  0  0
   -3.1705   -0.2592    1.0399 C   0  0  0  0  0  0  0  0  0  0  0  0
   -0.0842    1.0363    0.3000 C   0  0  0  0  0  0  0  0  0  0  0  0
    3.6513   -0.0391    0.4258 H   0  0  0  0  0  0  0  0  0  0  0  0
    3.3325   -0.4971    2.1478 H   0  0  0  0  0  0  0  0  0  0  0  0
    2.9478    1.1555    1.6154 H   0  0  0  0  0  0  0  0  0  0  0  0
    1.9735    1.1159   -0.4267 H   0  0  0  0  0  0  0  0  0  0  0  0
    1.2198   -1.5189   -1.0965 H   0  0  0  0  0  0  0  0  0  0  0  0
    1.2553   -0.1001   -2.2143 H   0  0  0  0  0  0  0  0  0  0  0  0
   -1.0571    0.0940   -2.1754 H   0  0  0  0  0  0  0  0  0  0  0  0
   -1.0246   -1.5789   -1.4315 H   0  0  0  0  0  0  0  0  0  0  0  0
   -0.9575   -0.8419    0.7369 H   0  0  0  0  0  0  0  0  0  0  0  0
   -2.7573   -0.1688    2.0762 H   0  0  0  0  0  0  0  0  0  0  0  0
   -3.3675   -1.3078    0.7897 H   0  0  0  0  0  0  0  0  0  0  0  0
   -4.1640    0.2500    1.0689 H   0  0  0  0  0  0  0  0  0  0  0  0
   -0.0308    1.1895    1.3931 H   0  0  0  0  0  0  0  0  0  0  0  0
   -0.2545    1.9803   -0.2538 H   0  0  0  0  0  0  0  0  0  0  0  0
  1  2  1  0
  2  3  1  0
  3  4  1  0
  4  5  1  0
  5  6  1  0
  6  7  1  0
  7  8  1  0
  6  9  1  0
  9  3  1  0
  1 10  1  0
  1 11  1  0
  1 12  1  0
  3 13  1  0
  4 14  1  0
  4 15  1  0
  5 16  1  0
  5 17  1  0
  6 18  1  0
  8 19  1  0
  8 20  1  0
  8 21  1  0
  9 22  1  0
  9 23  1  0
M  END
