
     RDKit          3D

 19 20  0  0  0  0  0  0  0  0999 V2000
    2.5696    0.3374   -0.2600 C   0  0  0  0  0  0  0  0  0  0  0  0
    1.3395    0.9148    0.1112 O   0  0  0  0  0  0  0  0  0  0  0  0
    0.3566   -0.0570   -0.0244 C   0  0  0  0  0  0  0  0  0  0  0  0
    0.3984   -1.3197    0.7295 C   0  0  0  0  0  0  0  0  0  0  0  0
   -0.6238   -0.3123    1.0571 C   0  0  0  0  0  0  0  0  0  0  0  0
   -1.7822   -0.2337    0.0734 C   0  0  0  0  0  0  0  0  0  0  0  0
   -2.7843    0.6350    0.4065 O   0  0  0  0  0  0  0  0  0  0  0  0
   -0.7747    0.2819   -0.9517 C   0  0  0  0  0  0  0  0  0  0  0  0
   -0.9664    1.6490   -1.1242 O   0  0  0  0  0  0  0  0  0  0  0  0
    2.5518   -0.0177   -1.2971 H   0  0  0  0  0  0  0  0  0  0  0  0
    2.7266   -0.5182    0.4319 H   0  0  0  0  0  0  0  0  0  0  0  0
    3.3916    1.0824   -0.1898 H   0  0  0  0  0  0  0  0  0  0  0  0
    0.0564   -2.2294    0.1570 H   0  0  0  0  0  0  0  0  0  0  0  0
    1.2147   -1.4521    1.4353 H   0  0  0  0  0  0  0  0  0  0  0  0
   -0.6522    0.2629    1.9815 H   0  0  0  0  0  0  0  0  0  0  0  0
   -2.0955   -1.2861   -0.1651 H   0  0  0  0  0  0  0  0  0  0  0  0
   -3.5921    0.3818   -0.1229 H   0  0  0  0  0  0  0  0  0  0  0  0
   -0.7107   -0.2982   -1.8772 H   0  0  0  0  0  0  0  0  0  0  0  0
   -0.6233    2.1791   -0.3672 H   0  0  0  0  0  0  0  0  0  0  0  0
  1  2  1  0
  2  3  1  0
  3  4  1  0
  4  5  1  0
  5  6  1  0
  6  7  1  0
  6  8  1  0
  8  9  1  0
  5  3  1  0
  8  3  1  0
  1 10  1  0
  1 11  1  0
  1 12  1  0
  4 13  1  0
  4 14  1  0
  5 15  1  0
  6 16  1  0
  7 17  1  0
  8 18  1  0
  9 19  1  0
M  END
