
     RDKit          3D

 23 23  0  0  0  0  0  0  0  0999 V2000
   -1.0686    2.4634    0.7030 C   0  0  0  0  0  0  0  0  0  0  0  0
   -0.5779    1.6002   -0.2797 O   0  0  0  0  0  0  0  0  0  0  0  0
   -0.2909    0.3919    0.3069 C   0  0  0  0  0  0  0  0  0  0  0  0
    1.0957   -0.0085   -0.0702 C   0  0  0  0  0  0  0  0  0  0  0  0
    2.2869    0.2876    0.7757 C   0  0  0  0  0  0  0  0  0  0  0  0
    1.0593   -0.6458   -1.2442 C   0  0  0  0  0  0  0  0  0  0  0  0
   -0.3429   -0.7191   -1.7368 C   0  0  0  0  0  0  0  0  0  0  0  0
   -1.0983   -0.6868   -0.4133 C   0  0  0  0  0  0  0  0  0  0  0  0
   -0.8926   -2.0304    0.2393 C   0  0  0  0  0  0  0  0  0  0  0  0
   -1.9975    2.0248    1.1532 H   0  0  0  0  0  0  0  0  0  0  0  0
   -1.2154    3.4885    0.3438 H   0  0  0  0  0  0  0  0  0  0  0  0
   -0.2920    2.4867    1.5168 H   0  0  0  0  0  0  0  0  0  0  0  0
   -0.4878    0.3282    1.3773 H   0  0  0  0  0  0  0  0  0  0  0  0
    2.4124    1.3915    0.9244 H   0  0  0  0  0  0  0  0  0  0  0  0
    2.1585   -0.1438    1.7914 H   0  0  0  0  0  0  0  0  0  0  0  0
    3.2039   -0.1091    0.2658 H   0  0  0  0  0  0  0  0  0  0  0  0
    1.9251   -1.0522   -1.7653 H   0  0  0  0  0  0  0  0  0  0  0  0
   -0.6018    0.1869   -2.3056 H   0  0  0  0  0  0  0  0  0  0  0  0
   -0.5470   -1.6450   -2.3016 H   0  0  0  0  0  0  0  0  0  0  0  0
   -2.1456   -0.4434   -0.5187 H   0  0  0  0  0  0  0  0  0  0  0  0
   -0.6375   -1.9448    1.3117 H   0  0  0  0  0  0  0  0  0  0  0  0
   -0.1010   -2.6234   -0.2574 H   0  0  0  0  0  0  0  0  0  0  0  0
   -1.8452   -2.5973    0.1835 H   0  0  0  0  0  0  0  0  0  0  0  0
  1  2  1  0
  2  3  1  0
  3  4  1  0
  4  5  1  0
  4  6  2  0
  6  7  1  0
  7  8  1  0
  8  9  1  0
  8  3  1  0
  1 10  1  0
  1 11  1  0
  1 12  1  0
  3 13  1  0
  5 14  1  0
  5 15  1  0
  5 16  1  0
  6 17  1  0
  7 18  1  0
  7 19  1  0
  8 20  1  0
  9 21  1  0
  9 22  1  0
  9 23  1  0
M  END
