
     RDKit          3D

 25 25  0  0  0  0  0  0  0  0999 V2000
    2.3481    1.0578    0.3789 C   0  0  0  0  0  0  0  0  0  0  0  0
    1.4306    0.1859    0.8752 O   0  0  0  0  0  0  0  0  0  0  0  0
    0.4851   -0.3102    0.0446 C   0  0  0  0  0  0  0  0  0  0  0  0
    1.0231   -1.0519   -1.1562 C   0  0  0  0  0  0  0  0  0  0  0  0
   -0.2377   -1.4126    0.8595 C   0  0  0  0  0  0  0  0  0  0  0  0
   -1.5583   -1.5458    0.0853 C   0  0  0  0  0  0  0  0  0  0  0  0
   -1.9418   -0.1019   -0.0719 C   0  0  0  0  0  0  0  0  0  0  0  0
   -0.6289    0.5848   -0.3645 C   0  0  0  0  0  0  0  0  0  0  0  0
   -0.6583    1.9220    0.3328 C   0  0  0  0  0  0  0  0  0  0  0  0
    2.9715    0.6558   -0.4424 H   0  0  0  0  0  0  0  0  0  0  0  0
    1.9392    2.0166    0.0128 H   0  0  0  0  0  0  0  0  0  0  0  0
    3.0851    1.3464    1.1793 H   0  0  0  0  0  0  0  0  0  0  0  0
    0.1805   -1.1624   -1.8698 H   0  0  0  0  0  0  0  0  0  0  0  0
    1.3351   -2.0554   -0.8560 H   0  0  0  0  0  0  0  0  0  0  0  0
    1.8071   -0.4830   -1.6917 H   0  0  0  0  0  0  0  0  0  0  0  0
   -0.4788   -1.0311    1.8612 H   0  0  0  0  0  0  0  0  0  0  0  0
    0.2952   -2.3592    0.8193 H   0  0  0  0  0  0  0  0  0  0  0  0
   -1.3663   -2.0341   -0.8709 H   0  0  0  0  0  0  0  0  0  0  0  0
   -2.3149   -2.0636    0.7087 H   0  0  0  0  0  0  0  0  0  0  0  0
   -2.6795    0.0593   -0.8846 H   0  0  0  0  0  0  0  0  0  0  0  0
   -2.3416    0.2585    0.9150 H   0  0  0  0  0  0  0  0  0  0  0  0
   -0.6132    0.7305   -1.4742 H   0  0  0  0  0  0  0  0  0  0  0  0
   -0.2941    2.7546   -0.3037 H   0  0  0  0  0  0  0  0  0  0  0  0
   -1.7068    2.1279    0.6379 H   0  0  0  0  0  0  0  0  0  0  0  0
   -0.0805    1.9112    1.2755 H   0  0  0  0  0  0  0  0  0  0  0  0
  1  2  1  0
  2  3  1  0
  3  4  1  0
  3  5  1  0
  5  6  1  0
  6  7  1  0
  7  8  1  0
  8  9  1  0
  8  3  1  0
  1 10  1  0
  1 11  1  0
  1 12  1  0
  4 13  1  0
  4 14  1  0
  4 15  1  0
  5 16  1  0
  5 17  1  0
  6 18  1  0
  6 19  1  0
  7 20  1  0
  7 21  1  0
  8 22  1  0
  9 23  1  0
  9 24  1  0
  9 25  1  0
M  END
