
     RDKit          3D

 21 21  0  0  0  0  0  0  0  0999 V2000
    2.5071    0.6586   -0.4836 C   0  0  0  0  0  0  0  0  0  0  0  0
    1.4942   -0.3170   -0.5424 O   0  0  0  0  0  0  0  0  0  0  0  0
    0.6529   -0.2062    0.5538 C   0  0  0  0  0  0  0  0  0  0  0  0
    0.4534   -1.5290    1.2365 C   0  0  0  0  0  0  0  0  0  0  0  0
   -0.5156   -2.2091    0.6570 C   0  0  0  0  0  0  0  0  0  0  0  0
   -1.0410   -1.3956   -0.4605 C   0  0  0  0  0  0  0  0  0  0  0  0
   -0.7745    0.0106    0.0228 C   0  0  0  0  0  0  0  0  0  0  0  0
   -0.8228    0.9540   -0.9672 O   0  0  0  0  0  0  0  0  0  0  0  0
   -1.6832    1.9709   -0.5586 C   0  0  0  0  0  0  0  0  0  0  0  0
    3.1848    0.5874   -1.3441 H   0  0  0  0  0  0  0  0  0  0  0  0
    2.0566    1.6852   -0.4376 H   0  0  0  0  0  0  0  0  0  0  0  0
    3.0781    0.4577    0.4401 H   0  0  0  0  0  0  0  0  0  0  0  0
    0.9098    0.5886    1.2491 H   0  0  0  0  0  0  0  0  0  0  0  0
    1.0710   -1.8116    2.0915 H   0  0  0  0  0  0  0  0  0  0  0  0
   -0.8660   -3.2082    0.9592 H   0  0  0  0  0  0  0  0  0  0  0  0
   -2.1094   -1.5781   -0.6719 H   0  0  0  0  0  0  0  0  0  0  0  0
   -0.4118   -1.6037   -1.3623 H   0  0  0  0  0  0  0  0  0  0  0  0
   -1.3950    0.2339    0.9004 H   0  0  0  0  0  0  0  0  0  0  0  0
   -1.3237    2.4385    0.3783 H   0  0  0  0  0  0  0  0  0  0  0  0
   -1.7867    2.7778   -1.2990 H   0  0  0  0  0  0  0  0  0  0  0  0
   -2.6783    1.4951   -0.3617 H   0  0  0  0  0  0  0  0  0  0  0  0
  1  2  1  0
  2  3  1  0
  3  4  1  0
  4  5  2  0
  5  6  1  0
  6  7  1  0
  7  8  1  0
  8  9  1  0
  7  3  1  0
  1 10  1  0
  1 11  1  0
  1 12  1  0
  3 13  1  0
  4 14  1  0
  5 15  1  0
  6 16  1  0
  6 17  1  0
  7 18  1  0
  9 19  1  0
  9 20  1  0
  9 21  1  0
M  END
