
     RDKit          3D

 20 21  0  0  0  0  0  0  0  0999 V2000
    2.2164   -0.6769   -0.3496 C   0  0  0  0  0  0  0  0  0  0  0  0
    1.1754   -0.5208    0.5389 O   0  0  0  0  0  0  0  0  0  0  0  0
    0.2821    0.4658    0.1950 C   0  0  0  0  0  0  0  0  0  0  0  0
    0.8670    1.8480    0.0830 C   0  0  0  0  0  0  0  0  0  0  0  0
   -1.0663    0.3337    0.8225 C   0  0  0  0  0  0  0  0  0  0  0  0
   -1.5920   -1.0744    0.9188 C   0  0  0  0  0  0  0  0  0  0  0  0
   -1.6259   -1.1137   -0.5961 C   0  0  0  0  0  0  0  0  0  0  0  0
   -0.8698    0.1825   -0.6963 C   0  0  0  0  0  0  0  0  0  0  0  0
    2.8567   -1.5064    0.0556 H   0  0  0  0  0  0  0  0  0  0  0  0
    2.8532    0.2074   -0.4749 H   0  0  0  0  0  0  0  0  0  0  0  0
    1.8713   -1.0604   -1.3493 H   0  0  0  0  0  0  0  0  0  0  0  0
    1.9587    1.8800    0.2760 H   0  0  0  0  0  0  0  0  0  0  0  0
    0.4015    2.4499    0.9173 H   0  0  0  0  0  0  0  0  0  0  0  0
    0.6717    2.3369   -0.8839 H   0  0  0  0  0  0  0  0  0  0  0  0
   -1.6424    1.1867    1.1609 H   0  0  0  0  0  0  0  0  0  0  0  0
   -2.5481   -1.2091    1.4263 H   0  0  0  0  0  0  0  0  0  0  0  0
   -0.7675   -1.7392    1.2939 H   0  0  0  0  0  0  0  0  0  0  0  0
   -2.6739   -1.0036   -0.9449 H   0  0  0  0  0  0  0  0  0  0  0  0
   -1.1157   -1.9873   -1.0556 H   0  0  0  0  0  0  0  0  0  0  0  0
   -1.2525    1.0007   -1.3378 H   0  0  0  0  0  0  0  0  0  0  0  0
  1  2  1  0
  2  3  1  0
  3  4  1  0
  3  5  1  0
  5  6  1  0
  6  7  1  0
  7  8  1  0
  8  3  1  0
  8  5  1  0
  1  9  1  0
  1 10  1  0
  1 11  1  0
  4 12  1  0
  4 13  1  0
  4 14  1  0
  5 15  1  0
  6 16  1  0
  6 17  1  0
  7 18  1  0
  7 19  1  0
  8 20  1  0
M  END
