
     RDKit          3D

 18 19  0  0  0  0  0  0  0  0999 V2000
    2.6930    0.6983   -0.1399 C   0  0  0  0  0  0  0  0  0  0  0  0
    1.8469   -0.3505    0.1564 O   0  0  0  0  0  0  0  0  0  0  0  0
    0.5662   -0.1948   -0.3401 C   0  0  0  0  0  0  0  0  0  0  0  0
   -0.0375   -1.4687   -0.8848 C   0  0  0  0  0  0  0  0  0  0  0  0
   -0.5535   -0.8143    0.3955 C   0  0  0  0  0  0  0  0  0  0  0  0
   -1.9587   -0.3294    0.2986 C   0  0  0  0  0  0  0  0  0  0  0  0
   -2.1499    1.1196    0.7403 C   0  0  0  0  0  0  0  0  0  0  0  0
   -2.3294    0.6782   -0.5524 O   0  0  0  0  0  0  0  0  0  0  0  0
    2.3471    1.6698    0.2616 H   0  0  0  0  0  0  0  0  0  0  0  0
    3.6602    0.4790    0.3623 H   0  0  0  0  0  0  0  0  0  0  0  0
    2.8869    0.8383   -1.2089 H   0  0  0  0  0  0  0  0  0  0  0  0
    0.4164    0.7515   -0.9013 H   0  0  0  0  0  0  0  0  0  0  0  0
   -0.6298   -1.3807   -1.8051 H   0  0  0  0  0  0  0  0  0  0  0  0
    0.4737   -2.4294   -0.7109 H   0  0  0  0  0  0  0  0  0  0  0  0
   -0.2923   -1.2858    1.3601 H   0  0  0  0  0  0  0  0  0  0  0  0
   -2.7265   -1.0506    0.6923 H   0  0  0  0  0  0  0  0  0  0  0  0
   -2.9857    1.3220    1.4102 H   0  0  0  0  0  0  0  0  0  0  0  0
   -1.2272    1.7476    0.8661 H   0  0  0  0  0  0  0  0  0  0  0  0
  1  2  1  0
  2  3  1  0
  3  4  1  0
  4  5  1  0
  5  6  1  0
  6  7  1  0
  7  8  1  0
  5  3  1  0
  8  6  1  0
  1  9  1  0
  1 10  1  0
  1 11  1  0
  3 12  1  0
  4 13  1  0
  4 14  1  0
  5 15  1  0
  6 16  1  0
  7 17  1  0
  7 18  1  0
M  END
