
     RDKit          3D

 18 19  0  0  0  0  0  0  0  0999 V2000
    2.2233   -0.6717   -0.7494 C   0  0  0  0  0  0  0  0  0  0  0  0
    1.5515    0.5278   -0.5940 O   0  0  0  0  0  0  0  0  0  0  0  0
    0.2108    0.4160   -0.3828 C   0  0  0  0  0  0  0  0  0  0  0  0
   -0.7039   -0.2380   -1.3740 C   0  0  0  0  0  0  0  0  0  0  0  0
   -1.9488   -0.0985   -0.7510 O   0  0  0  0  0  0  0  0  0  0  0  0
   -1.7528   -0.4703    0.5660 C   0  0  0  0  0  0  0  0  0  0  0  0
   -0.4395    0.1997    0.9076 C   0  0  0  0  0  0  0  0  0  0  0  0
   -0.3580    1.6033    0.4116 C   0  0  0  0  0  0  0  0  0  0  0  0
    3.3008   -0.4111   -0.9124 H   0  0  0  0  0  0  0  0  0  0  0  0
    2.2094   -1.2097    0.2357 H   0  0  0  0  0  0  0  0  0  0  0  0
    1.8551   -1.2929   -1.5753 H   0  0  0  0  0  0  0  0  0  0  0  0
   -0.4272   -1.3051   -1.4357 H   0  0  0  0  0  0  0  0  0  0  0  0
   -0.6356    0.2996   -2.3164 H   0  0  0  0  0  0  0  0  0  0  0  0
   -1.7003   -1.5724    0.6097 H   0  0  0  0  0  0  0  0  0  0  0  0
   -2.5690   -0.0744    1.2069 H   0  0  0  0  0  0  0  0  0  0  0  0
    0.0816   -0.0531    1.8321 H   0  0  0  0  0  0  0  0  0  0  0  0
   -1.2157    2.0866   -0.0869 H   0  0  0  0  0  0  0  0  0  0  0  0
    0.3183    2.2642    0.9387 H   0  0  0  0  0  0  0  0  0  0  0  0
  1  2  1  0
  2  3  1  0
  3  4  1  0
  4  5  1  0
  5  6  1  0
  6  7  1  0
  7  8  1  0
  7  3  1  0
  8  3  1  0
  1  9  1  0
  1 10  1  0
  1 11  1  0
  4 12  1  0
  4 13  1  0
  6 14  1  0
  6 15  1  0
  7 16  1  0
  8 17  1  0
  8 18  1  0
M  END
