
     RDKit          3D

 18 19  0  0  0  0  0  0  0  0999 V2000
    2.2555    0.8103    0.6608 C   0  0  0  0  0  0  0  0  0  0  0  0
    1.3126   -0.2079    0.7869 O   0  0  0  0  0  0  0  0  0  0  0  0
    0.4528   -0.1326   -0.2685 C   0  0  0  0  0  0  0  0  0  0  0  0
    0.4008   -1.4639   -0.9974 C   0  0  0  0  0  0  0  0  0  0  0  0
   -0.9665   -1.6014   -0.7692 O   0  0  0  0  0  0  0  0  0  0  0  0
   -0.9730   -0.4452   -0.0714 C   0  0  0  0  0  0  0  0  0  0  0  0
   -1.9410    0.6654   -0.3326 C   0  0  0  0  0  0  0  0  0  0  0  0
   -1.8350   -0.0467    0.9973 C   0  0  0  0  0  0  0  0  0  0  0  0
    2.9943    0.8059    1.4975 H   0  0  0  0  0  0  0  0  0  0  0  0
    1.7905    1.8250    0.6895 H   0  0  0  0  0  0  0  0  0  0  0  0
    2.8331    0.7316   -0.2861 H   0  0  0  0  0  0  0  0  0  0  0  0
    0.6825    0.6812   -0.9590 H   0  0  0  0  0  0  0  0  0  0  0  0
    0.9562   -2.2819   -0.4999 H   0  0  0  0  0  0  0  0  0  0  0  0
    0.5940   -1.3819   -2.0677 H   0  0  0  0  0  0  0  0  0  0  0  0
   -1.5744    1.7217   -0.3907 H   0  0  0  0  0  0  0  0  0  0  0  0
   -2.7534    0.4080   -1.0304 H   0  0  0  0  0  0  0  0  0  0  0  0
   -2.7361   -0.6825    1.2127 H   0  0  0  0  0  0  0  0  0  0  0  0
   -1.4930    0.5948    1.8281 H   0  0  0  0  0  0  0  0  0  0  0  0
  1  2  1  0
  2  3  1  0
  3  4  1  0
  4  5  1  0
  5  6  1  0
  6  7  1  0
  7  8  1  0
  6  3  1  0
  8  6  1  0
  1  9  1  0
  1 10  1  0
  1 11  1  0
  3 12  1  0
  4 13  1  0
  4 14  1  0
  7 15  1  0
  7 16  1  0
  8 17  1  0
  8 18  1  0
M  END
