
     RDKit          3D

 25 25  0  0  0  0  0  0  0  0999 V2000
    2.1886   -0.9325   -0.8795 C   0  0  0  0  0  0  0  0  0  0  0  0
    1.5848    0.2333   -0.4121 O   0  0  0  0  0  0  0  0  0  0  0  0
    0.4982   -0.0549    0.4213 C   0  0  0  0  0  0  0  0  0  0  0  0
    0.8481   -0.8501    1.6368 C   0  0  0  0  0  0  0  0  0  0  0  0
   -0.4828    1.1006    0.6452 C   0  0  0  0  0  0  0  0  0  0  0  0
   -0.1120    2.4153    0.0237 C   0  0  0  0  0  0  0  0  0  0  0  0
   -0.8642   -0.0707   -0.1605 C   0  0  0  0  0  0  0  0  0  0  0  0
   -1.0717    0.0466   -1.6587 C   0  0  0  0  0  0  0  0  0  0  0  0
   -1.8531   -1.0441    0.4704 C   0  0  0  0  0  0  0  0  0  0  0  0
    2.5684   -1.5620   -0.0444 H   0  0  0  0  0  0  0  0  0  0  0  0
    1.4980   -1.4599   -1.5522 H   0  0  0  0  0  0  0  0  0  0  0  0
    3.0772   -0.6568   -1.4788 H   0  0  0  0  0  0  0  0  0  0  0  0
    0.0813   -0.7857    2.4403 H   0  0  0  0  0  0  0  0  0  0  0  0
    1.7759   -0.4073    2.0756 H   0  0  0  0  0  0  0  0  0  0  0  0
    1.0651   -1.9200    1.4062 H   0  0  0  0  0  0  0  0  0  0  0  0
   -0.9406    1.1931    1.6501 H   0  0  0  0  0  0  0  0  0  0  0  0
   -0.4827    2.5328   -1.0143 H   0  0  0  0  0  0  0  0  0  0  0  0
    0.9940    2.5162    0.0918 H   0  0  0  0  0  0  0  0  0  0  0  0
   -0.5499    3.2804    0.5947 H   0  0  0  0  0  0  0  0  0  0  0  0
   -0.3803    0.7562   -2.1305 H   0  0  0  0  0  0  0  0  0  0  0  0
   -2.1161    0.4395   -1.8109 H   0  0  0  0  0  0  0  0  0  0  0  0
   -1.0297   -0.9191   -2.1672 H   0  0  0  0  0  0  0  0  0  0  0  0
   -2.8865   -0.8722    0.0695 H   0  0  0  0  0  0  0  0  0  0  0  0
   -1.5007   -2.0629    0.2140 H   0  0  0  0  0  0  0  0  0  0  0  0
   -1.9092   -0.9157    1.5695 H   0  0  0  0  0  0  0  0  0  0  0  0
  1  2  1  0
  2  3  1  0
  3  4  1  0
  3  5  1  0
  5  6  1  0
  5  7  1  0
  7  8  1  0
  7  9  1  0
  7  3  1  0
  1 10  1  0
  1 11  1  0
  1 12  1  0
  4 13  1  0
  4 14  1  0
  4 15  1  0
  5 16  1  0
  6 17  1  0
  6 18  1  0
  6 19  1  0
  8 20  1  0
  8 21  1  0
  8 22  1  0
  9 23  1  0
  9 24  1  0
  9 25  1  0
M  END
