
     RDKit          3D

 23 23  0  0  0  0  0  0  0  0999 V2000
    2.5101   -0.4326    0.8409 C   0  0  0  0  0  0  0  0  0  0  0  0
    1.1662   -0.3429    1.1665 O   0  0  0  0  0  0  0  0  0  0  0  0
    0.3662   -0.0408    0.0676 C   0  0  0  0  0  0  0  0  0  0  0  0
    0.4945   -1.0905   -0.9839 C   0  0  0  0  0  0  0  0  0  0  0  0
    0.6624    1.2654   -0.5335 C   0  0  0  0  0  0  0  0  0  0  0  0
   -0.4248    1.9767   -0.7170 C   0  0  0  0  0  0  0  0  0  0  0  0
   -1.6188    1.2484   -0.2635 C   0  0  0  0  0  0  0  0  0  0  0  0
   -1.0339    0.1497    0.5880 C   0  0  0  0  0  0  0  0  0  0  0  0
   -1.8564   -1.1031    0.5551 C   0  0  0  0  0  0  0  0  0  0  0  0
    2.8503    0.5389    0.4258 H   0  0  0  0  0  0  0  0  0  0  0  0
    2.7342   -1.2864    0.1762 H   0  0  0  0  0  0  0  0  0  0  0  0
    3.0639   -0.5670    1.7951 H   0  0  0  0  0  0  0  0  0  0  0  0
    1.4557   -0.9026   -1.5284 H   0  0  0  0  0  0  0  0  0  0  0  0
    0.5674   -2.1063   -0.5288 H   0  0  0  0  0  0  0  0  0  0  0  0
   -0.2954   -1.1095   -1.7258 H   0  0  0  0  0  0  0  0  0  0  0  0
    1.6519    1.6365   -0.8085 H   0  0  0  0  0  0  0  0  0  0  0  0
   -0.4763    3.0078   -1.1586 H   0  0  0  0  0  0  0  0  0  0  0  0
   -2.2287    1.9622    0.3480 H   0  0  0  0  0  0  0  0  0  0  0  0
   -2.2560    0.8658   -1.0854 H   0  0  0  0  0  0  0  0  0  0  0  0
   -1.0475    0.5178    1.6363 H   0  0  0  0  0  0  0  0  0  0  0  0
   -2.8256   -0.8734    1.0449 H   0  0  0  0  0  0  0  0  0  0  0  0
   -1.3613   -1.8718    1.1591 H   0  0  0  0  0  0  0  0  0  0  0  0
   -2.0980   -1.4423   -0.4700 H   0  0  0  0  0  0  0  0  0  0  0  0
  1  2  1  0
  2  3  1  0
  3  4  1  0
  3  5  1  0
  5  6  2  0
  6  7  1  0
  7  8  1  0
  8  9  1  0
  8  3  1  0
  1 10  1  0
  1 11  1  0
  1 12  1  0
  4 13  1  0
  4 14  1  0
  4 15  1  0
  5 16  1  0
  6 17  1  0
  7 18  1  0
  7 19  1  0
  8 20  1  0
  9 21  1  0
  9 22  1  0
  9 23  1  0
M  END
