
     RDKit          3D

 18 19  0  0  0  0  0  0  0  0999 V2000
    2.2049   -0.0776    0.6151 C   0  0  0  0  0  0  0  0  0  0  0  0
    1.3083    0.9134    0.2879 O   0  0  0  0  0  0  0  0  0  0  0  0
    0.1064    0.4269    0.0772 C   0  0  0  0  0  0  0  0  0  0  0  0
   -0.6573   -0.3226    1.1350 C   0  0  0  0  0  0  0  0  0  0  0  0
   -1.8237   -0.6543    0.3970 O   0  0  0  0  0  0  0  0  0  0  0  0
   -1.6421   -0.0065   -0.7860 C   0  0  0  0  0  0  0  0  0  0  0  0
   -1.0013    1.3452   -0.4314 C   0  0  0  0  0  0  0  0  0  0  0  0
   -0.2000   -0.4064   -1.1505 C   0  0  0  0  0  0  0  0  0  0  0  0
    3.2351    0.2859    0.8024 H   0  0  0  0  0  0  0  0  0  0  0  0
    1.8708   -0.5658    1.5574 H   0  0  0  0  0  0  0  0  0  0  0  0
    2.2814   -0.8588   -0.1964 H   0  0  0  0  0  0  0  0  0  0  0  0
   -0.1524   -1.1925    1.5308 H   0  0  0  0  0  0  0  0  0  0  0  0
   -0.9749    0.4271    1.8896 H   0  0  0  0  0  0  0  0  0  0  0  0
   -2.3590   -0.0183   -1.5645 H   0  0  0  0  0  0  0  0  0  0  0  0
   -1.5545    1.8847    0.3413 H   0  0  0  0  0  0  0  0  0  0  0  0
   -0.7525    1.8847   -1.3583 H   0  0  0  0  0  0  0  0  0  0  0  0
   -0.0029   -1.4762   -1.0717 H   0  0  0  0  0  0  0  0  0  0  0  0
    0.1138    0.1015   -2.0750 H   0  0  0  0  0  0  0  0  0  0  0  0
  1  2  1  0
  2  3  1  0
  3  4  1  0
  4  5  1  0
  5  6  1  0
  6  7  1  0
  6  8  1  0
  7  3  1  0
  8  3  1  0
  1  9  1  0
  1 10  1  0
  1 11  1  0
  4 12  1  0
  4 13  1  0
  6 14  1  0
  7 15  1  0
  7 16  1  0
  8 17  1  0
  8 18  1  0
M  END
