
     RDKit          3D

 23 24  0  0  0  0  0  0  0  0999 V2000
    2.9599    0.0623   -0.3485 C   0  0  0  0  0  0  0  0  0  0  0  0
    1.9919   -0.8263    0.0594 O   0  0  0  0  0  0  0  0  0  0  0  0
    0.7036   -0.3829   -0.0691 C   0  0  0  0  0  0  0  0  0  0  0  0
   -0.3281   -1.4064    0.3972 C   0  0  0  0  0  0  0  0  0  0  0  0
   -1.6224   -1.1468   -0.2886 C   0  0  0  0  0  0  0  0  0  0  0  0
   -2.1331    0.2022    0.0965 C   0  0  0  0  0  0  0  0  0  0  0  0
   -1.1482    1.0261    0.8807 C   0  0  0  0  0  0  0  0  0  0  0  0
    0.2509    0.9463    0.3671 C   0  0  0  0  0  0  0  0  0  0  0  0
    0.3437    0.5955   -1.1184 C   0  0  0  0  0  0  0  0  0  0  0  0
    2.9163    1.0164    0.2350 H   0  0  0  0  0  0  0  0  0  0  0  0
    3.0110    0.2428   -1.4206 H   0  0  0  0  0  0  0  0  0  0  0  0
    3.9509   -0.3923   -0.0596 H   0  0  0  0  0  0  0  0  0  0  0  0
   -0.4121   -1.2720    1.5027 H   0  0  0  0  0  0  0  0  0  0  0  0
    0.0456   -2.4442    0.2351 H   0  0  0  0  0  0  0  0  0  0  0  0
   -1.4669   -1.2712   -1.3857 H   0  0  0  0  0  0  0  0  0  0  0  0
   -2.3378   -1.9592   -0.0048 H   0  0  0  0  0  0  0  0  0  0  0  0
   -2.4950    0.7115   -0.8233 H   0  0  0  0  0  0  0  0  0  0  0  0
   -3.0318    0.0561    0.7335 H   0  0  0  0  0  0  0  0  0  0  0  0
   -1.2463    0.8138    1.9559 H   0  0  0  0  0  0  0  0  0  0  0  0
   -1.4774    2.1004    0.7597 H   0  0  0  0  0  0  0  0  0  0  0  0
    0.9401    1.7022    0.7759 H   0  0  0  0  0  0  0  0  0  0  0  0
   -0.5830    0.5399   -1.7024 H   0  0  0  0  0  0  0  0  0  0  0  0
    1.1682    1.0859   -1.6537 H   0  0  0  0  0  0  0  0  0  0  0  0
  1  2  1  0
  2  3  1  0
  3  4  1  0
  4  5  1  0
  5  6  1  0
  6  7  1  0
  7  8  1  0
  8  9  1  0
  8  3  1  0
  9  3  1  0
  1 10  1  0
  1 11  1  0
  1 12  1  0
  4 13  1  0
  4 14  1  0
  5 15  1  0
  5 16  1  0
  6 17  1  0
  6 18  1  0
  7 19  1  0
  7 20  1  0
  8 21  1  0
  9 22  1  0
  9 23  1  0
M  END
