
     RDKit          3D

 19 21  0  0  0  0  0  0  0  0999 V2000
    2.8024   -0.1465    0.0870 C   0  0  0  0  0  0  0  0  0  0  0  0
    1.5973   -0.0534    0.8194 O   0  0  0  0  0  0  0  0  0  0  0  0
    0.5463   -0.0710   -0.0733 C   0  0  0  0  0  0  0  0  0  0  0  0
   -0.3709   -1.2408    0.1658 C   0  0  0  0  0  0  0  0  0  0  0  0
   -1.7677   -0.6251    0.2705 C   0  0  0  0  0  0  0  0  0  0  0  0
   -2.0409    0.4113   -0.7713 C   0  0  0  0  0  0  0  0  0  0  0  0
   -1.0490    1.2558   -1.2212 O   0  0  0  0  0  0  0  0  0  0  0  0
   -0.2972    1.1766   -0.0314 C   0  0  0  0  0  0  0  0  0  0  0  0
   -1.5411    0.7459    0.6683 C   0  0  0  0  0  0  0  0  0  0  0  0
    2.8765    0.7282   -0.6172 H   0  0  0  0  0  0  0  0  0  0  0  0
    2.8829   -1.1103   -0.4445 H   0  0  0  0  0  0  0  0  0  0  0  0
    3.6333   -0.0720    0.8148 H   0  0  0  0  0  0  0  0  0  0  0  0
    0.9196   -0.1536   -1.1363 H   0  0  0  0  0  0  0  0  0  0  0  0
   -0.1100   -1.7542    1.1249 H   0  0  0  0  0  0  0  0  0  0  0  0
   -0.3750   -1.9701   -0.6739 H   0  0  0  0  0  0  0  0  0  0  0  0
   -2.5977   -1.2516    0.5671 H   0  0  0  0  0  0  0  0  0  0  0  0
   -3.0941    0.6222   -0.9906 H   0  0  0  0  0  0  0  0  0  0  0  0
    0.1867    2.0972    0.2842 H   0  0  0  0  0  0  0  0  0  0  0  0
   -2.2013    1.4113    1.1918 H   0  0  0  0  0  0  0  0  0  0  0  0
  1  2  1  0
  2  3  1  0
  3  4  1  0
  4  5  1  0
  5  6  1  0
  6  7  1  0
  7  8  1  0
  8  9  1  0
  8  3  1  0
  9  5  1  0
  9  6  1  0
  1 10  1  0
  1 11  1  0
  1 12  1  0
  3 13  1  0
  4 14  1  0
  4 15  1  0
  5 16  1  0
  6 17  1  0
  8 18  1  0
  9 19  1  0
M  END
