
     RDKit          3D

 21 21  0  0  0  0  0  0  0  0999 V2000
    2.9224   -0.1589    0.6117 C   0  0  0  0  0  0  0  0  0  0  0  0
    1.6159   -0.0887    1.0827 O   0  0  0  0  0  0  0  0  0  0  0  0
    0.6836   -0.0840    0.0523 C   0  0  0  0  0  0  0  0  0  0  0  0
   -0.3007   -1.1984    0.3063 C   0  0  0  0  0  0  0  0  0  0  0  0
   -1.5374   -0.7280   -0.4283 C   0  0  0  0  0  0  0  0  0  0  0  0
   -2.6826   -1.3946    0.0119 O   0  0  0  0  0  0  0  0  0  0  0  0
   -1.6056    0.7180   -0.0160 C   0  0  0  0  0  0  0  0  0  0  0  0
   -0.1828    1.1504    0.1570 C   0  0  0  0  0  0  0  0  0  0  0  0
    0.1510    2.0247   -0.8585 O   0  0  0  0  0  0  0  0  0  0  0  0
    3.1662    0.7213   -0.0518 H   0  0  0  0  0  0  0  0  0  0  0  0
    3.1754   -1.1077    0.1364 H   0  0  0  0  0  0  0  0  0  0  0  0
    3.5889   -0.0353    1.4974 H   0  0  0  0  0  0  0  0  0  0  0  0
    1.1480   -0.1369   -0.9544 H   0  0  0  0  0  0  0  0  0  0  0  0
   -0.5448   -1.1869    1.3829 H   0  0  0  0  0  0  0  0  0  0  0  0
    0.0800   -2.1533   -0.0581 H   0  0  0  0  0  0  0  0  0  0  0  0
   -1.4612   -0.8723   -1.5055 H   0  0  0  0  0  0  0  0  0  0  0  0
   -3.2407   -1.7278   -0.7328 H   0  0  0  0  0  0  0  0  0  0  0  0
   -2.1395    0.7613    0.9599 H   0  0  0  0  0  0  0  0  0  0  0  0
   -2.1559    1.3403   -0.7613 H   0  0  0  0  0  0  0  0  0  0  0  0
   -0.0113    1.6353    1.1524 H   0  0  0  0  0  0  0  0  0  0  0  0
   -0.6689    2.5217   -1.1207 H   0  0  0  0  0  0  0  0  0  0  0  0
  1  2  1  0
  2  3  1  0
  3  4  1  0
  4  5  1  0
  5  6  1  0
  5  7  1  0
  7  8  1  0
  8  9  1  0
  8  3  1  0
  1 10  1  0
  1 11  1  0
  1 12  1  0
  3 13  1  0
  4 14  1  0
  4 15  1  0
  5 16  1  0
  6 17  1  0
  7 18  1  0
  7 19  1  0
  8 20  1  0
  9 21  1  0
M  END
