
     RDKit          3D

 23 23  0  0  0  0  0  0  0  0999 V2000
    2.4224    0.3747   -0.4741 C   0  0  0  0  0  0  0  0  0  0  0  0
    1.1639   -0.1692   -0.4805 O   0  0  0  0  0  0  0  0  0  0  0  0
    0.3540    0.2453    0.5522 C   0  0  0  0  0  0  0  0  0  0  0  0
   -0.9314    0.7625   -0.0883 C   0  0  0  0  0  0  0  0  0  0  0  0
   -0.6889    1.9303   -0.9782 C   0  0  0  0  0  0  0  0  0  0  0  0
   -1.3550   -0.4852   -0.8204 C   0  0  0  0  0  0  0  0  0  0  0  0
   -1.2272   -1.5346    0.2657 C   0  0  0  0  0  0  0  0  0  0  0  0
   -0.1772   -1.0146    1.2339 C   0  0  0  0  0  0  0  0  0  0  0  0
    0.8221   -1.9456    1.4358 O   0  0  0  0  0  0  0  0  0  0  0  0
    2.4170    1.4594   -0.5442 H   0  0  0  0  0  0  0  0  0  0  0  0
    2.9139    0.0761    0.4905 H   0  0  0  0  0  0  0  0  0  0  0  0
    3.0070   -0.1243   -1.2822 H   0  0  0  0  0  0  0  0  0  0  0  0
    0.7992    0.9481    1.2467 H   0  0  0  0  0  0  0  0  0  0  0  0
   -1.6885    1.0329    0.6671 H   0  0  0  0  0  0  0  0  0  0  0  0
   -0.6644    2.8471   -0.3230 H   0  0  0  0  0  0  0  0  0  0  0  0
    0.2710    1.9180   -1.5157 H   0  0  0  0  0  0  0  0  0  0  0  0
   -1.5228    2.0798   -1.6709 H   0  0  0  0  0  0  0  0  0  0  0  0
   -0.5646   -0.7292   -1.5744 H   0  0  0  0  0  0  0  0  0  0  0  0
   -2.3534   -0.4322   -1.2586 H   0  0  0  0  0  0  0  0  0  0  0  0
   -2.1940   -1.6009    0.7693 H   0  0  0  0  0  0  0  0  0  0  0  0
   -0.8753   -2.4954   -0.1581 H   0  0  0  0  0  0  0  0  0  0  0  0
   -0.6355   -0.7202    2.2125 H   0  0  0  0  0  0  0  0  0  0  0  0
    0.7079   -2.4228    2.2949 H   0  0  0  0  0  0  0  0  0  0  0  0
  1  2  1  0
  2  3  1  0
  3  4  1  0
  4  5  1  0
  4  6  1  0
  6  7  1  0
  7  8  1  0
  8  9  1  0
  8  3  1  0
  1 10  1  0
  1 11  1  0
  1 12  1  0
  3 13  1  0
  4 14  1  0
  5 15  1  0
  5 16  1  0
  5 17  1  0
  6 18  1  0
  6 19  1  0
  7 20  1  0
  7 21  1  0
  8 22  1  0
  9 23  1  0
M  END
