
     RDKit          3D

 21 22  0  0  0  0  0  0  0  0999 V2000
    2.5556    0.5298    0.3569 C   0  0  0  0  0  0  0  0  0  0  0  0
    1.3657    0.0486    0.8800 O   0  0  0  0  0  0  0  0  0  0  0  0
    0.3331    0.3023   -0.0362 C   0  0  0  0  0  0  0  0  0  0  0  0
    0.5259   -0.3365   -1.3639 C   0  0  0  0  0  0  0  0  0  0  0  0
   -0.8162   -0.6861   -1.4860 O   0  0  0  0  0  0  0  0  0  0  0  0
   -0.8429   -0.6466   -0.0801 C   0  0  0  0  0  0  0  0  0  0  0  0
   -0.8071   -1.9321    0.6603 C   0  0  0  0  0  0  0  0  0  0  0  0
   -0.9533    0.6699    0.5494 C   0  0  0  0  0  0  0  0  0  0  0  0
   -1.9050    1.6459   -0.1127 C   0  0  0  0  0  0  0  0  0  0  0  0
    3.3471    0.3201    1.0901 H   0  0  0  0  0  0  0  0  0  0  0  0
    2.8436    0.0241   -0.5849 H   0  0  0  0  0  0  0  0  0  0  0  0
    2.4830    1.6421    0.2269 H   0  0  0  0  0  0  0  0  0  0  0  0
    1.1163   -1.2955   -1.2736 H   0  0  0  0  0  0  0  0  0  0  0  0
    0.9419    0.2646   -2.1755 H   0  0  0  0  0  0  0  0  0  0  0  0
   -1.6751   -2.5512    0.2970 H   0  0  0  0  0  0  0  0  0  0  0  0
   -0.9677   -1.7332    1.7344 H   0  0  0  0  0  0  0  0  0  0  0  0
    0.1095   -2.4865    0.4399 H   0  0  0  0  0  0  0  0  0  0  0  0
   -1.0607    0.6763    1.6556 H   0  0  0  0  0  0  0  0  0  0  0  0
   -1.5603    1.9792   -1.0968 H   0  0  0  0  0  0  0  0  0  0  0  0
   -2.8583    1.0773   -0.2540 H   0  0  0  0  0  0  0  0  0  0  0  0
   -2.1751    2.4875    0.5731 H   0  0  0  0  0  0  0  0  0  0  0  0
  1  2  1  0
  2  3  1  0
  3  4  1  0
  4  5  1  0
  5  6  1  0
  6  7  1  0
  6  8  1  0
  8  9  1  0
  6  3  1  0
  8  3  1  0
  1 10  1  0
  1 11  1  0
  1 12  1  0
  4 13  1  0
  4 14  1  0
  7 15  1  0
  7 16  1  0
  7 17  1  0
  8 18  1  0
  9 19  1  0
  9 20  1  0
  9 21  1  0
M  END
