
     RDKit          3D

 16 17  0  0  0  0  0  0  0  0999 V2000
    2.1263   -0.0460    0.4114 C   0  0  0  0  0  0  0  0  0  0  0  0
    0.9946   -0.8366    0.3876 O   0  0  0  0  0  0  0  0  0  0  0  0
   -0.0090   -0.3591   -0.4186 C   0  0  0  0  0  0  0  0  0  0  0  0
   -1.2544   -1.1896   -0.4713 C   0  0  0  0  0  0  0  0  0  0  0  0
   -2.0221   -0.0500    0.0906 C   0  0  0  0  0  0  0  0  0  0  0  0
   -3.1942    0.0980    0.3666 O   0  0  0  0  0  0  0  0  0  0  0  0
   -0.8127    0.7701    0.1612 C   0  0  0  0  0  0  0  0  0  0  0  0
   -0.0165    0.9421   -1.0640 C   0  0  0  0  0  0  0  0  0  0  0  0
    1.8594    0.9540    0.7812 H   0  0  0  0  0  0  0  0  0  0  0  0
    2.8054   -0.4878    1.1900 H   0  0  0  0  0  0  0  0  0  0  0  0
    2.6284   -0.0664   -0.5594 H   0  0  0  0  0  0  0  0  0  0  0  0
   -1.2905   -2.0715    0.1744 H   0  0  0  0  0  0  0  0  0  0  0  0
   -1.5323   -1.4098   -1.5383 H   0  0  0  0  0  0  0  0  0  0  0  0
   -0.5451    1.1926    1.1318 H   0  0  0  0  0  0  0  0  0  0  0  0
    0.8946    1.5401   -1.1130 H   0  0  0  0  0  0  0  0  0  0  0  0
   -0.6318    1.0199   -2.0085 H   0  0  0  0  0  0  0  0  0  0  0  0
  1  2  1  0
  2  3  1  0
  3  4  1  0
  4  5  1  0
  5  6  2  0
  5  7  1  0
  7  8  1  0
  7  3  1  0
  8  3  1  0
  1  9  1  0
  1 10  1  0
  1 11  1  0
  4 12  1  0
  4 13  1  0
  7 14  1  0
  8 15  1  0
  8 16  1  0
M  END
