
     RDKit          3D

 19 20  0  0  0  0  0  0  0  0999 V2000
    2.4261   -0.6780   -0.1670 C   0  0  0  0  0  0  0  0  0  0  0  0
    1.3930   -0.6283    0.7441 O   0  0  0  0  0  0  0  0  0  0  0  0
    0.2339   -0.0758    0.2705 C   0  0  0  0  0  0  0  0  0  0  0  0
   -0.4908   -0.6775   -0.9102 C   0  0  0  0  0  0  0  0  0  0  0  0
   -1.9170   -0.6829   -0.4340 C   0  0  0  0  0  0  0  0  0  0  0  0
   -1.9316   -0.4860    0.9142 O   0  0  0  0  0  0  0  0  0  0  0  0
   -0.8139    0.1859    1.3074 C   0  0  0  0  0  0  0  0  0  0  0  0
   -0.2016    1.3010    0.5987 C   0  0  0  0  0  0  0  0  0  0  0  0
   -0.8904    2.0327   -0.3757 O   0  0  0  0  0  0  0  0  0  0  0  0
    3.2966   -1.1424    0.3371 H   0  0  0  0  0  0  0  0  0  0  0  0
    2.6990    0.3710   -0.4443 H   0  0  0  0  0  0  0  0  0  0  0  0
    2.0887   -1.2043   -1.0652 H   0  0  0  0  0  0  0  0  0  0  0  0
   -0.1130   -1.6431   -1.2245 H   0  0  0  0  0  0  0  0  0  0  0  0
   -0.4273    0.0685   -1.7395 H   0  0  0  0  0  0  0  0  0  0  0  0
   -2.5397    0.1047   -0.9092 H   0  0  0  0  0  0  0  0  0  0  0  0
   -2.3292   -1.6922   -0.6481 H   0  0  0  0  0  0  0  0  0  0  0  0
   -0.5588    0.0555    2.3992 H   0  0  0  0  0  0  0  0  0  0  0  0
    0.5292    1.9149    1.1530 H   0  0  0  0  0  0  0  0  0  0  0  0
   -0.4533    2.8762   -0.5907 H   0  0  0  0  0  0  0  0  0  0  0  0
  1  2  1  0
  2  3  1  0
  3  4  1  0
  4  5  1  0
  5  6  1  0
  6  7  1  0
  7  8  1  0
  8  9  1  0
  7  3  1  0
  8  3  1  0
  1 10  1  0
  1 11  1  0
  1 12  1  0
  4 13  1  0
  4 14  1  0
  5 15  1  0
  5 16  1  0
  7 17  1  0
  8 18  1  0
  9 19  1  0
M  END
