
     RDKit          3D

 19 19  0  0  0  0  0  0  0  0999 V2000
    2.6614   -0.5714   -0.9152 C   0  0  0  0  0  0  0  0  0  0  0  0
    1.9443   -0.1698    0.2060 O   0  0  0  0  0  0  0  0  0  0  0  0
    0.5959   -0.4496    0.1267 C   0  0  0  0  0  0  0  0  0  0  0  0
   -0.2708   -0.5990    1.2989 C   0  0  0  0  0  0  0  0  0  0  0  0
   -1.5313   -1.4528    1.1199 C   0  0  0  0  0  0  0  0  0  0  0  0
   -0.2979    0.7043    0.6081 C   0  0  0  0  0  0  0  0  0  0  0  0
   -1.3640    1.0884   -0.2249 O   0  0  0  0  0  0  0  0  0  0  0  0
   -1.7842    2.3978   -0.3963 C   0  0  0  0  0  0  0  0  0  0  0  0
   -1.1631    3.2862    0.2399 O   0  0  0  0  0  0  0  0  0  0  0  0
    2.5925   -1.6699   -1.0983 H   0  0  0  0  0  0  0  0  0  0  0  0
    3.7345   -0.3349   -0.6952 H   0  0  0  0  0  0  0  0  0  0  0  0
    2.3536    0.0267   -1.8012 H   0  0  0  0  0  0  0  0  0  0  0  0
    0.2977   -0.9528   -0.8237 H   0  0  0  0  0  0  0  0  0  0  0  0
    0.1249   -0.6465    2.3390 H   0  0  0  0  0  0  0  0  0  0  0  0
   -2.3742   -0.8147    1.3872 H   0  0  0  0  0  0  0  0  0  0  0  0
   -1.4710   -2.3891    1.6786 H   0  0  0  0  0  0  0  0  0  0  0  0
   -1.6416   -1.7250    0.0348 H   0  0  0  0  0  0  0  0  0  0  0  0
    0.1917    1.5523    1.1296 H   0  0  0  0  0  0  0  0  0  0  0  0
   -2.5985    2.7198   -1.0286 H   0  0  0  0  0  0  0  0  0  0  0  0
  1  2  1  0
  2  3  1  0
  3  4  1  0
  4  5  1  0
  4  6  1  0
  6  7  1  0
  7  8  1  0
  8  9  2  0
  6  3  1  0
  1 10  1  0
  1 11  1  0
  1 12  1  0
  3 13  1  0
  4 14  1  0
  5 15  1  0
  5 16  1  0
  5 17  1  0
  6 18  1  0
  8 19  1  0
M  END
