
     RDKit          3D

 19 19  0  0  0  0  0  0  0  0999 V2000
    2.6176    0.1869    0.1844 C   0  0  0  0  0  0  0  0  0  0  0  0
    1.2668    0.4127    0.3957 O   0  0  0  0  0  0  0  0  0  0  0  0
    0.4410   -0.4967   -0.2156 C   0  0  0  0  0  0  0  0  0  0  0  0
   -0.8533   -0.8937    0.4846 C   0  0  0  0  0  0  0  0  0  0  0  0
   -1.4230   -2.2283    0.1953 C   0  0  0  0  0  0  0  0  0  0  0  0
   -1.4094   -2.7104   -0.9131 O   0  0  0  0  0  0  0  0  0  0  0  0
   -0.8978    0.0696   -0.6479 C   0  0  0  0  0  0  0  0  0  0  0  0
   -1.1575    1.5420   -0.3934 C   0  0  0  0  0  0  0  0  0  0  0  0
   -1.0916    1.8615    0.9517 O   0  0  0  0  0  0  0  0  0  0  0  0
    3.1640    0.9893    0.7308 H   0  0  0  0  0  0  0  0  0  0  0  0
    2.9144    0.1930   -0.8704 H   0  0  0  0  0  0  0  0  0  0  0  0
    2.8787   -0.7663    0.7004 H   0  0  0  0  0  0  0  0  0  0  0  0
    0.8799   -1.3247   -0.8177 H   0  0  0  0  0  0  0  0  0  0  0  0
   -0.9065   -0.5262    1.5252 H   0  0  0  0  0  0  0  0  0  0  0  0
   -1.8633   -2.7853    1.0008 H   0  0  0  0  0  0  0  0  0  0  0  0
   -1.2596   -0.2734   -1.6230 H   0  0  0  0  0  0  0  0  0  0  0  0
   -0.4267    2.1473   -0.9770 H   0  0  0  0  0  0  0  0  0  0  0  0
   -2.1520    1.8057   -0.7618 H   0  0  0  0  0  0  0  0  0  0  0  0
   -0.7217    2.7968    1.0509 H   0  0  0  0  0  0  0  0  0  0  0  0
  1  2  1  0
  2  3  1  0
  3  4  1  0
  4  5  1  0
  5  6  2  0
  4  7  1  0
  7  8  1  0
  8  9  1  0
  7  3  1  0
  1 10  1  0
  1 11  1  0
  1 12  1  0
  3 13  1  0
  4 14  1  0
  5 15  1  0
  7 16  1  0
  8 17  1  0
  8 18  1  0
  9 19  1  0
M  END
