
     RDKit          3D

 23 23  0  0  0  0  0  0  0  0999 V2000
   -2.5021    0.8850   -0.3197 C   0  0  0  0  0  0  0  0  0  0  0  0
   -1.7299    0.0214   -1.1079 O   0  0  0  0  0  0  0  0  0  0  0  0
   -0.6658   -0.4200   -0.2934 C   0  0  0  0  0  0  0  0  0  0  0  0
   -1.2628   -1.1286    0.8896 C   0  0  0  0  0  0  0  0  0  0  0  0
    0.3079   -1.2640   -1.0662 C   0  0  0  0  0  0  0  0  0  0  0  0
    1.6529   -0.8588   -0.6310 C   0  0  0  0  0  0  0  0  0  0  0  0
    1.6005    0.2627    0.0263 C   0  0  0  0  0  0  0  0  0  0  0  0
    2.7308    1.0449    0.6538 C   0  0  0  0  0  0  0  0  0  0  0  0
    0.2069    0.7349    0.1041 C   0  0  0  0  0  0  0  0  0  0  0  0
   -3.3675    1.2835   -0.8817 H   0  0  0  0  0  0  0  0  0  0  0  0
   -1.8636    1.7125    0.0380 H   0  0  0  0  0  0  0  0  0  0  0  0
   -2.9073    0.3233    0.5472 H   0  0  0  0  0  0  0  0  0  0  0  0
   -1.4284   -0.4452    1.7310 H   0  0  0  0  0  0  0  0  0  0  0  0
   -2.2453   -1.6085    0.6439 H   0  0  0  0  0  0  0  0  0  0  0  0
   -0.5661   -1.9507    1.2045 H   0  0  0  0  0  0  0  0  0  0  0  0
    0.1663   -2.3237   -0.7016 H   0  0  0  0  0  0  0  0  0  0  0  0
    0.1614   -1.2098   -2.1611 H   0  0  0  0  0  0  0  0  0  0  0  0
    2.5521   -1.4253   -0.8364 H   0  0  0  0  0  0  0  0  0  0  0  0
    3.6940    0.8328    0.1231 H   0  0  0  0  0  0  0  0  0  0  0  0
    2.5216    2.1334    0.5928 H   0  0  0  0  0  0  0  0  0  0  0  0
    2.8179    0.7310    1.6992 H   0  0  0  0  0  0  0  0  0  0  0  0
    0.1075    1.5933   -0.6138 H   0  0  0  0  0  0  0  0  0  0  0  0
    0.0189    1.0760    1.1443 H   0  0  0  0  0  0  0  0  0  0  0  0
  1  2  1  0
  2  3  1  0
  3  4  1  0
  3  5  1  0
  5  6  1  0
  6  7  2  0
  7  8  1  0
  7  9  1  0
  9  3  1  0
  1 10  1  0
  1 11  1  0
  1 12  1  0
  4 13  1  0
  4 14  1  0
  4 15  1  0
  5 16  1  0
  5 17  1  0
  6 18  1  0
  8 19  1  0
  8 20  1  0
  8 21  1  0
  9 22  1  0
  9 23  1  0
M  END
