
     RDKit          3D

 17 18  0  0  0  0  0  0  0  0999 V2000
    2.6156   -0.1443    0.2786 C   0  0  0  0  0  0  0  0  0  0  0  0
    1.2900   -0.2991    0.7140 O   0  0  0  0  0  0  0  0  0  0  0  0
    0.4512    0.2970   -0.2060 C   0  0  0  0  0  0  0  0  0  0  0  0
   -0.7312    1.0108    0.4180 C   0  0  0  0  0  0  0  0  0  0  0  0
   -1.7145    1.5944   -0.5021 C   0  0  0  0  0  0  0  0  0  0  0  0
   -2.3535    2.6849   -0.5116 O   0  0  0  0  0  0  0  0  0  0  0  0
   -1.6942    0.5035   -1.3759 O   0  0  0  0  0  0  0  0  0  0  0  0
   -0.9206   -0.1838   -0.4172 C   0  0  0  0  0  0  0  0  0  0  0  0
   -1.3913   -1.4922    0.1154 C   0  0  0  0  0  0  0  0  0  0  0  0
    2.7818   -0.6140   -0.7109 H   0  0  0  0  0  0  0  0  0  0  0  0
    2.8418    0.9446    0.1516 H   0  0  0  0  0  0  0  0  0  0  0  0
    3.3413   -0.5335    1.0159 H   0  0  0  0  0  0  0  0  0  0  0  0
    0.9311    0.7815   -1.1019 H   0  0  0  0  0  0  0  0  0  0  0  0
   -0.8557    1.0329    1.5007 H   0  0  0  0  0  0  0  0  0  0  0  0
   -0.5363   -2.1973    0.2010 H   0  0  0  0  0  0  0  0  0  0  0  0
   -2.0839   -1.9661   -0.6313 H   0  0  0  0  0  0  0  0  0  0  0  0
   -1.9717   -1.4194    1.0615 H   0  0  0  0  0  0  0  0  0  0  0  0
  1  2  1  0
  2  3  1  0
  3  4  1  0
  4  5  1  0
  5  6  2  0
  5  7  1  0
  7  8  1  0
  8  9  1  0
  8  3  1  0
  8  4  1  0
  1 10  1  0
  1 11  1  0
  1 12  1  0
  3 13  1  0
  4 14  1  0
  9 15  1  0
  9 16  1  0
  9 17  1  0
M  END
