
     RDKit          3D

 17 19  0  0  0  0  0  0  0  0999 V2000
    2.7460    0.0062    0.0763 C   0  0  0  0  0  0  0  0  0  0  0  0
    1.6166   -0.7745    0.3107 O   0  0  0  0  0  0  0  0  0  0  0  0
    0.5106   -0.1645   -0.2503 C   0  0  0  0  0  0  0  0  0  0  0  0
   -0.0984   -0.9204   -1.2290 O   0  0  0  0  0  0  0  0  0  0  0  0
   -1.4554   -0.5429   -1.1909 C   0  0  0  0  0  0  0  0  0  0  0  0
   -1.8067    0.7356   -0.5657 C   0  0  0  0  0  0  0  0  0  0  0  0
   -1.1812    1.2984    0.5079 O   0  0  0  0  0  0  0  0  0  0  0  0
   -0.5593    0.0997    0.8187 C   0  0  0  0  0  0  0  0  0  0  0  0
   -1.7432   -0.5896    0.2389 C   0  0  0  0  0  0  0  0  0  0  0  0
    2.8372    0.0736   -1.0461 H   0  0  0  0  0  0  0  0  0  0  0  0
    3.6472   -0.3700    0.5563 H   0  0  0  0  0  0  0  0  0  0  0  0
    2.5464    1.0707    0.3892 H   0  0  0  0  0  0  0  0  0  0  0  0
    0.8216    0.7932   -0.7420 H   0  0  0  0  0  0  0  0  0  0  0  0
   -2.1440   -0.9617   -1.9151 H   0  0  0  0  0  0  0  0  0  0  0  0
   -2.8115    1.1462   -0.7804 H   0  0  0  0  0  0  0  0  0  0  0  0
   -0.2714   -0.0875    1.8369 H   0  0  0  0  0  0  0  0  0  0  0  0
   -2.6545   -0.8124    0.7399 H   0  0  0  0  0  0  0  0  0  0  0  0
  1  2  1  0
  2  3  1  0
  3  4  1  0
  4  5  1  0
  5  6  1  0
  6  7  1  0
  7  8  1  0
  8  9  1  0
  8  3  1  0
  9  5  1  0
  9  6  1  0
  1 10  1  0
  1 11  1  0
  1 12  1  0
  3 13  1  0
  5 14  1  0
  6 15  1  0
  8 16  1  0
  9 17  1  0
M  END
