
     RDKit          3D

 18 18  0  0  0  0  0  0  0  0999 V2000
    2.3560    0.5119    0.6951 C   0  0  0  0  0  0  0  0  0  0  0  0
    1.0454    0.1921    0.9631 O   0  0  0  0  0  0  0  0  0  0  0  0
    0.4256   -0.1676   -0.2265 C   0  0  0  0  0  0  0  0  0  0  0  0
   -0.3228   -1.4584   -0.2052 C   0  0  0  0  0  0  0  0  0  0  0  0
   -1.5884   -0.7829   -0.6781 C   0  0  0  0  0  0  0  0  0  0  0  0
   -0.8704    0.5495   -0.5183 C   0  0  0  0  0  0  0  0  0  0  0  0
   -1.4361    1.3139    0.6011 C   0  0  0  0  0  0  0  0  0  0  0  0
   -1.3788    0.8975    1.7358 O   0  0  0  0  0  0  0  0  0  0  0  0
    2.9431    0.8129    1.5711 H   0  0  0  0  0  0  0  0  0  0  0  0
    2.8830   -0.3482    0.2250 H   0  0  0  0  0  0  0  0  0  0  0  0
    2.3923    1.3494   -0.0331 H   0  0  0  0  0  0  0  0  0  0  0  0
    1.0946   -0.1230   -1.1126 H   0  0  0  0  0  0  0  0  0  0  0  0
   -0.4184   -1.9301    0.7875 H   0  0  0  0  0  0  0  0  0  0  0  0
    0.0007   -2.2263   -0.9557 H   0  0  0  0  0  0  0  0  0  0  0  0
   -1.8656   -1.0294   -1.7312 H   0  0  0  0  0  0  0  0  0  0  0  0
   -2.4688   -0.9165   -0.0365 H   0  0  0  0  0  0  0  0  0  0  0  0
   -0.8813    1.0932   -1.4885 H   0  0  0  0  0  0  0  0  0  0  0  0
   -1.9102    2.2622    0.4071 H   0  0  0  0  0  0  0  0  0  0  0  0
  1  2  1  0
  2  3  1  0
  3  4  1  0
  4  5  1  0
  5  6  1  0
  6  7  1  0
  7  8  2  0
  6  3  1  0
  1  9  1  0
  1 10  1  0
  1 11  1  0
  3 12  1  0
  4 13  1  0
  4 14  1  0
  5 15  1  0
  5 16  1  0
  6 17  1  0
  7 18  1  0
M  END
