
     RDKit          3D

 16 17  0  0  0  0  0  0  0  0999 V2000
    2.1640   -0.0789   -0.2890 C   0  0  0  0  0  0  0  0  0  0  0  0
    1.2025    0.8956   -0.1471 O   0  0  0  0  0  0  0  0  0  0  0  0
    0.0268    0.4989    0.0098 C   0  0  0  0  0  0  0  0  0  0  0  0
   -0.7852   -0.3528   -0.9436 C   0  0  0  0  0  0  0  0  0  0  0  0
   -1.7084   -0.0903    0.1971 C   0  0  0  0  0  0  0  0  0  0  0  0
   -0.5248   -0.4014    1.0822 C   0  0  0  0  0  0  0  0  0  0  0  0
   -1.1968    1.2955    0.1880 C   0  0  0  0  0  0  0  0  0  0  0  0
   -1.5414    2.4577    0.2738 O   0  0  0  0  0  0  0  0  0  0  0  0
    3.1799    0.3351   -0.4239 H   0  0  0  0  0  0  0  0  0  0  0  0
    2.1680   -0.6760    0.6667 H   0  0  0  0  0  0  0  0  0  0  0  0
    1.8699   -0.7111   -1.1562 H   0  0  0  0  0  0  0  0  0  0  0  0
   -1.0035    0.0941   -1.9061 H   0  0  0  0  0  0  0  0  0  0  0  0
   -0.4090   -1.3879   -0.9182 H   0  0  0  0  0  0  0  0  0  0  0  0
   -2.6516   -0.3973    0.3289 H   0  0  0  0  0  0  0  0  0  0  0  0
   -0.2369   -1.4657    0.9420 H   0  0  0  0  0  0  0  0  0  0  0  0
   -0.5534   -0.0157    2.0953 H   0  0  0  0  0  0  0  0  0  0  0  0
  1  2  1  0
  2  3  1  0
  3  4  1  0
  4  5  1  0
  5  6  1  0
  5  7  1  0
  7  8  2  0
  6  3  1  0
  7  3  1  0
  1  9  1  0
  1 10  1  0
  1 11  1  0
  4 12  1  0
  4 13  1  0
  5 14  1  0
  6 15  1  0
  6 16  1  0
M  END
