
     RDKit          3D

 21 22  0  0  0  0  0  0  0  0999 V2000
   -2.0968    1.2765    0.5918 C   0  0  0  0  0  0  0  0  0  0  0  0
   -1.0380    0.6452    1.1388 O   0  0  0  0  0  0  0  0  0  0  0  0
   -0.2680   -0.1762    0.3331 C   0  0  0  0  0  0  0  0  0  0  0  0
   -1.0581   -1.3313   -0.2648 C   0  0  0  0  0  0  0  0  0  0  0  0
   -2.0747   -0.9396   -1.1117 O   0  0  0  0  0  0  0  0  0  0  0  0
    0.7083    0.5091   -0.4735 C   0  0  0  0  0  0  0  0  0  0  0  0
    2.1128    0.9713   -0.0822 C   0  0  0  0  0  0  0  0  0  0  0  0
    2.3286   -0.5603   -0.1804 C   0  0  0  0  0  0  0  0  0  0  0  0
    1.0848   -0.5041    0.6951 C   0  0  0  0  0  0  0  0  0  0  0  0
   -2.6084    1.9622    1.3316 H   0  0  0  0  0  0  0  0  0  0  0  0
   -1.8050    1.8525   -0.2888 H   0  0  0  0  0  0  0  0  0  0  0  0
   -2.8730    0.5236    0.2989 H   0  0  0  0  0  0  0  0  0  0  0  0
   -1.4973   -1.8724    0.6012 H   0  0  0  0  0  0  0  0  0  0  0  0
   -0.3678   -2.0110   -0.8464 H   0  0  0  0  0  0  0  0  0  0  0  0
   -2.8591   -1.5231   -1.0874 H   0  0  0  0  0  0  0  0  0  0  0  0
    0.8060    0.0541   -1.5083 H   0  0  0  0  0  0  0  0  0  0  0  0
    2.1429    1.3551    0.9394 H   0  0  0  0  0  0  0  0  0  0  0  0
    2.5819    1.5475   -0.8714 H   0  0  0  0  0  0  0  0  0  0  0  0
    2.1724   -0.8746   -1.2130 H   0  0  0  0  0  0  0  0  0  0  0  0
    3.1995   -0.9250    0.3495 H   0  0  0  0  0  0  0  0  0  0  0  0
    1.4091    0.0207    1.6486 H   0  0  0  0  0  0  0  0  0  0  0  0
  1  2  1  0
  2  3  1  0
  3  4  1  0
  4  5  1  0
  3  6  1  0
  6  7  1  0
  7  8  1  0
  8  9  1  0
  9  3  1  0
  9  6  1  0
  1 10  1  0
  1 11  1  0
  1 12  1  0
  4 13  1  0
  4 14  1  0
  5 15  1  0
  6 16  1  0
  7 17  1  0
  7 18  1  0
  8 19  1  0
  8 20  1  0
  9 21  1  0
M  END
