
     RDKit          3D

 20 21  0  0  0  0  0  0  0  0999 V2000
    3.0686    0.4543    0.6523 C   0  0  0  0  0  0  0  0  0  0  0  0
    2.0276   -0.4634    0.6779 O   0  0  0  0  0  0  0  0  0  0  0  0
    0.8413    0.1064    0.3200 C   0  0  0  0  0  0  0  0  0  0  0  0
   -0.3292   -0.2367    1.2412 C   0  0  0  0  0  0  0  0  0  0  0  0
   -1.1469   -0.3024    0.0176 C   0  0  0  0  0  0  0  0  0  0  0  0
   -2.0893    0.7530   -0.2789 C   0  0  0  0  0  0  0  0  0  0  0  0
   -2.4822   -0.7444   -0.1506 C   0  0  0  0  0  0  0  0  0  0  0  0
    0.0606   -0.6362   -0.7756 C   0  0  0  0  0  0  0  0  0  0  0  0
    2.9380    1.3034    1.3217 H   0  0  0  0  0  0  0  0  0  0  0  0
    4.0043   -0.0864    0.9657 H   0  0  0  0  0  0  0  0  0  0  0  0
    3.1748    0.8197   -0.3891 H   0  0  0  0  0  0  0  0  0  0  0  0
    0.8380    1.1808    0.0621 H   0  0  0  0  0  0  0  0  0  0  0  0
   -0.5978    0.5734    1.9491 H   0  0  0  0  0  0  0  0  0  0  0  0
   -0.2058   -1.2431    1.7236 H   0  0  0  0  0  0  0  0  0  0  0  0
   -2.4765    1.3925    0.5663 H   0  0  0  0  0  0  0  0  0  0  0  0
   -2.2344    1.2313   -1.2513 H   0  0  0  0  0  0  0  0  0  0  0  0
   -3.1045   -1.0086    0.7397 H   0  0  0  0  0  0  0  0  0  0  0  0
   -2.7999   -1.1873   -1.1298 H   0  0  0  0  0  0  0  0  0  0  0  0
    0.3468   -1.7055   -0.8058 H   0  0  0  0  0  0  0  0  0  0  0  0
    0.1668   -0.2010   -1.7765 H   0  0  0  0  0  0  0  0  0  0  0  0
  1  2  1  0
  2  3  1  0
  3  4  1  0
  4  5  1  0
  5  6  1  0
  6  7  1  0
  5  8  1  0
  8  3  1  0
  7  5  1  0
  1  9  1  0
  1 10  1  0
  1 11  1  0
  3 12  1  0
  4 13  1  0
  4 14  1  0
  6 15  1  0
  6 16  1  0
  7 17  1  0
  7 18  1  0
  8 19  1  0
  8 20  1  0
M  END
