
     RDKit          3D

 18 18  0  0  0  0  0  0  0  0999 V2000
   -2.8314   -0.0343    0.3194 C   0  0  0  0  0  0  0  0  0  0  0  0
   -1.5939   -0.6742    0.5419 O   0  0  0  0  0  0  0  0  0  0  0  0
   -0.6042    0.1274    0.0303 C   0  0  0  0  0  0  0  0  0  0  0  0
    0.4168   -0.6075   -0.8312 C   0  0  0  0  0  0  0  0  0  0  0  0
    1.4460    0.3720   -0.2554 C   0  0  0  0  0  0  0  0  0  0  0  0
    2.7842   -0.1934   -0.0817 C   0  0  0  0  0  0  0  0  0  0  0  0
    3.7665    0.5221   -0.0171 O   0  0  0  0  0  0  0  0  0  0  0  0
    0.5683    0.3574    0.9960 C   0  0  0  0  0  0  0  0  0  0  0  0
   -2.7470    0.9456    0.8652 H   0  0  0  0  0  0  0  0  0  0  0  0
   -3.6298   -0.6665    0.7720 H   0  0  0  0  0  0  0  0  0  0  0  0
   -3.0075    0.1273   -0.7703 H   0  0  0  0  0  0  0  0  0  0  0  0
   -0.9383    1.0855   -0.4421 H   0  0  0  0  0  0  0  0  0  0  0  0
    0.5586   -1.6310   -0.4581 H   0  0  0  0  0  0  0  0  0  0  0  0
    0.2651   -0.5402   -1.9075 H   0  0  0  0  0  0  0  0  0  0  0  0
    1.3973    1.3433   -0.7994 H   0  0  0  0  0  0  0  0  0  0  0  0
    2.8969   -1.2691   -0.0100 H   0  0  0  0  0  0  0  0  0  0  0  0
    0.7242   -0.5502    1.5856 H   0  0  0  0  0  0  0  0  0  0  0  0
    0.5282    1.2857    1.5558 H   0  0  0  0  0  0  0  0  0  0  0  0
  1  2  1  0
  2  3  1  0
  3  4  1  0
  4  5  1  0
  5  6  1  0
  6  7  2  0
  5  8  1  0
  8  3  1  0
  1  9  1  0
  1 10  1  0
  1 11  1  0
  3 12  1  0
  4 13  1  0
  4 14  1  0
  5 15  1  0
  6 16  1  0
  8 17  1  0
  8 18  1  0
M  END
