
     RDKit          3D

 17 18  0  0  0  0  0  0  0  0999 V2000
   -2.5905   -0.6871   -0.3466 C   0  0  0  0  0  0  0  0  0  0  0  0
   -1.2106   -0.6538   -0.3913 O   0  0  0  0  0  0  0  0  0  0  0  0
   -0.6572    0.5319    0.0274 C   0  0  0  0  0  0  0  0  0  0  0  0
    0.4486    1.0147   -0.8296 C   0  0  0  0  0  0  0  0  0  0  0  0
    0.6069    1.5179   -1.9116 O   0  0  0  0  0  0  0  0  0  0  0  0
    1.3987    0.6180    0.2273 C   0  0  0  0  0  0  0  0  0  0  0  0
    2.4412   -0.4240   -0.0267 C   0  0  0  0  0  0  0  0  0  0  0  0
    1.2783    1.2434    1.4433 O   0  0  0  0  0  0  0  0  0  0  0  0
    0.3205    0.2880    1.1558 C   0  0  0  0  0  0  0  0  0  0  0  0
   -3.0211   -0.5335    0.6438 H   0  0  0  0  0  0  0  0  0  0  0  0
   -2.9412   -1.6565   -0.7561 H   0  0  0  0  0  0  0  0  0  0  0  0
   -2.9725    0.1033   -1.0240 H   0  0  0  0  0  0  0  0  0  0  0  0
   -1.3833    1.3183    0.3503 H   0  0  0  0  0  0  0  0  0  0  0  0
    2.0283   -1.1256   -0.7919 H   0  0  0  0  0  0  0  0  0  0  0  0
    2.6534   -0.9405    0.9271 H   0  0  0  0  0  0  0  0  0  0  0  0
    3.3559    0.0141   -0.4325 H   0  0  0  0  0  0  0  0  0  0  0  0
    0.2445   -0.6286    1.7353 H   0  0  0  0  0  0  0  0  0  0  0  0
  1  2  1  0
  2  3  1  0
  3  4  1  0
  4  5  2  0
  4  6  1  0
  6  7  1  0
  6  8  1  0
  8  9  1  0
  9  3  1  0
  9  6  1  0
  1 10  1  0
  1 11  1  0
  1 12  1  0
  3 13  1  0
  7 14  1  0
  7 15  1  0
  7 16  1  0
  9 17  1  0
M  END
