
     RDKit          3D

 20 20  0  0  0  0  0  0  0  0999 V2000
   -0.7968    1.5139    1.3592 C   0  0  0  0  0  0  0  0  0  0  0  0
   -1.2938    0.5425    0.5437 O   0  0  0  0  0  0  0  0  0  0  0  0
   -0.3868   -0.0755   -0.2715 C   0  0  0  0  0  0  0  0  0  0  0  0
   -1.0467   -1.1389   -1.1375 C   0  0  0  0  0  0  0  0  0  0  0  0
   -1.6195   -2.0799   -0.2819 O   0  0  0  0  0  0  0  0  0  0  0  0
    0.6362    0.7480   -0.9552 C   0  0  0  0  0  0  0  0  0  0  0  0
    1.6946    0.2800    0.0191 C   0  0  0  0  0  0  0  0  0  0  0  0
    0.7100   -0.7254    0.5476 C   0  0  0  0  0  0  0  0  0  0  0  0
   -0.0298    1.1660    2.0541 H   0  0  0  0  0  0  0  0  0  0  0  0
   -1.6456    1.8890    1.9907 H   0  0  0  0  0  0  0  0  0  0  0  0
   -0.4641    2.4289    0.7861 H   0  0  0  0  0  0  0  0  0  0  0  0
   -1.8610   -0.6692   -1.7396 H   0  0  0  0  0  0  0  0  0  0  0  0
   -0.2856   -1.6253   -1.8070 H   0  0  0  0  0  0  0  0  0  0  0  0
   -1.0522   -2.8887   -0.2842 H   0  0  0  0  0  0  0  0  0  0  0  0
    0.5279    1.8432   -0.9267 H   0  0  0  0  0  0  0  0  0  0  0  0
    0.7997    0.3852   -2.0036 H   0  0  0  0  0  0  0  0  0  0  0  0
    2.5816   -0.1722   -0.4931 H   0  0  0  0  0  0  0  0  0  0  0  0
    1.9830    1.0700    0.7516 H   0  0  0  0  0  0  0  0  0  0  0  0
    0.9963   -1.7494    0.2132 H   0  0  0  0  0  0  0  0  0  0  0  0
    0.5526   -0.7422    1.6351 H   0  0  0  0  0  0  0  0  0  0  0  0
  1  2  1  0
  2  3  1  0
  3  4  1  0
  4  5  1  0
  3  6  1  0
  6  7  1  0
  7  8  1  0
  8  3  1  0
  1  9  1  0
  1 10  1  0
  1 11  1  0
  4 12  1  0
  4 13  1  0
  5 14  1  0
  6 15  1  0
  6 16  1  0
  7 17  1  0
  7 18  1  0
  8 19  1  0
  8 20  1  0
M  END
