
     RDKit          3D

 19 20  0  0  0  0  0  0  0  0999 V2000
    2.6563   -0.3208   -0.2139 C   0  0  0  0  0  0  0  0  0  0  0  0
    1.3593   -0.8000   -0.4331 O   0  0  0  0  0  0  0  0  0  0  0  0
    0.4620    0.1814   -0.1287 C   0  0  0  0  0  0  0  0  0  0  0  0
   -0.5922    0.4559   -1.2118 C   0  0  0  0  0  0  0  0  0  0  0  0
   -1.2435   -0.8420   -0.7121 C   0  0  0  0  0  0  0  0  0  0  0  0
   -0.7819   -0.2744    0.6393 C   0  0  0  0  0  0  0  0  0  0  0  0
   -0.6598   -1.0740    1.6711 O   0  0  0  0  0  0  0  0  0  0  0  0
   -1.5412    1.0093    0.6819 C   0  0  0  0  0  0  0  0  0  0  0  0
   -1.3953    1.4242   -0.6689 O   0  0  0  0  0  0  0  0  0  0  0  0
    2.8691    0.5780   -0.8563 H   0  0  0  0  0  0  0  0  0  0  0  0
    3.4253   -1.1074   -0.3846 H   0  0  0  0  0  0  0  0  0  0  0  0
    2.8025    0.0261    0.8302 H   0  0  0  0  0  0  0  0  0  0  0  0
    0.8766    1.1372    0.2203 H   0  0  0  0  0  0  0  0  0  0  0  0
   -0.2687    0.4896   -2.2161 H   0  0  0  0  0  0  0  0  0  0  0  0
   -0.7292   -1.7522   -1.0244 H   0  0  0  0  0  0  0  0  0  0  0  0
   -2.3394   -0.8128   -0.8126 H   0  0  0  0  0  0  0  0  0  0  0  0
   -1.3598   -0.9728    2.3329 H   0  0  0  0  0  0  0  0  0  0  0  0
   -2.5859    0.9274    0.9708 H   0  0  0  0  0  0  0  0  0  0  0  0
   -0.9543    1.7272    1.3161 H   0  0  0  0  0  0  0  0  0  0  0  0
  1  2  1  0
  2  3  1  0
  3  4  1  0
  4  5  1  0
  5  6  1  0
  6  7  1  0
  6  8  1  0
  8  9  1  0
  6  3  1  0
  9  4  1  0
  1 10  1  0
  1 11  1  0
  1 12  1  0
  3 13  1  0
  4 14  1  0
  5 15  1  0
  5 16  1  0
  7 17  1  0
  8 18  1  0
  8 19  1  0
M  END
