
     RDKit          3D

 17 18  0  0  0  0  0  0  0  0999 V2000
    2.3632    0.5731   -0.3537 C   0  0  0  0  0  0  0  0  0  0  0  0
    1.0462    1.0045   -0.5846 O   0  0  0  0  0  0  0  0  0  0  0  0
    0.1613    0.0335   -0.1444 C   0  0  0  0  0  0  0  0  0  0  0  0
    0.1549   -1.3285   -0.6866 C   0  0  0  0  0  0  0  0  0  0  0  0
   -0.9650   -0.4118   -1.0051 C   0  0  0  0  0  0  0  0  0  0  0  0
   -1.8769   -0.0846    0.1563 C   0  0  0  0  0  0  0  0  0  0  0  0
   -2.7540    0.9602   -0.1546 O   0  0  0  0  0  0  0  0  0  0  0  0
   -0.7278    0.3062    1.0044 C   0  0  0  0  0  0  0  0  0  0  0  0
   -0.5513    0.6838    2.1316 O   0  0  0  0  0  0  0  0  0  0  0  0
    3.0984    1.3057   -0.6844 H   0  0  0  0  0  0  0  0  0  0  0  0
    2.5241    0.2967    0.6908 H   0  0  0  0  0  0  0  0  0  0  0  0
    2.5081   -0.3630   -0.9595 H   0  0  0  0  0  0  0  0  0  0  0  0
   -0.0211   -2.1686    0.0407 H   0  0  0  0  0  0  0  0  0  0  0  0
    0.9337   -1.5750   -1.4245 H   0  0  0  0  0  0  0  0  0  0  0  0
   -1.1571   -0.0082   -1.9964 H   0  0  0  0  0  0  0  0  0  0  0  0
   -2.4533   -0.9658    0.5002 H   0  0  0  0  0  0  0  0  0  0  0  0
   -2.2833    1.7419   -0.5268 H   0  0  0  0  0  0  0  0  0  0  0  0
  1  2  1  0
  2  3  1  0
  3  4  1  0
  4  5  1  0
  5  6  1  0
  6  7  1  0
  6  8  1  0
  8  9  2  0
  5  3  1  0
  8  3  1  0
  1 10  1  0
  1 11  1  0
  1 12  1  0
  4 13  1  0
  4 14  1  0
  5 15  1  0
  6 16  1  0
  7 17  1  0
M  END
