
     RDKit          3D

 19 21  0  0  0  0  0  0  0  0999 V2000
    2.4653    0.2973   -0.2924 C   0  0  0  0  0  0  0  0  0  0  0  0
    1.5741   -0.2384    0.5871 O   0  0  0  0  0  0  0  0  0  0  0  0
    0.2819    0.0386    0.4152 C   0  0  0  0  0  0  0  0  0  0  0  0
   -0.8335   -0.4448    1.2588 C   0  0  0  0  0  0  0  0  0  0  0  0
   -1.0135   -1.5783    0.2495 C   0  0  0  0  0  0  0  0  0  0  0  0
   -0.3705   -0.6962   -0.7800 C   0  0  0  0  0  0  0  0  0  0  0  0
   -0.3802    0.7783   -0.6458 C   0  0  0  0  0  0  0  0  0  0  0  0
   -1.6413    1.2931    0.0696 C   0  0  0  0  0  0  0  0  0  0  0  0
   -1.8048    0.5362    1.1880 O   0  0  0  0  0  0  0  0  0  0  0  0
    3.4943   -0.0501    0.0188 H   0  0  0  0  0  0  0  0  0  0  0  0
    2.4613    1.4037   -0.3345 H   0  0  0  0  0  0  0  0  0  0  0  0
    2.3531   -0.0693   -1.3400 H   0  0  0  0  0  0  0  0  0  0  0  0
   -0.5526   -0.7932    2.2493 H   0  0  0  0  0  0  0  0  0  0  0  0
   -2.0377   -1.8975    0.0772 H   0  0  0  0  0  0  0  0  0  0  0  0
   -0.2830   -2.3903    0.5364 H   0  0  0  0  0  0  0  0  0  0  0  0
    0.2837   -1.1273   -1.5331 H   0  0  0  0  0  0  0  0  0  0  0  0
    0.0757    1.3726   -1.4179 H   0  0  0  0  0  0  0  0  0  0  0  0
   -1.5364    2.3902    0.2722 H   0  0  0  0  0  0  0  0  0  0  0  0
   -2.5359    1.1755   -0.5785 H   0  0  0  0  0  0  0  0  0  0  0  0
  1  2  1  0
  2  3  1  0
  3  4  1  0
  4  5  1  0
  5  6  1  0
  6  7  1  0
  7  8  1  0
  8  9  1  0
  6  3  1  0
  7  3  1  0
  9  4  1  0
  1 10  1  0
  1 11  1  0
  1 12  1  0
  4 13  1  0
  5 14  1  0
  5 15  1  0
  6 16  1  0
  7 17  1  0
  8 18  1  0
  8 19  1  0
M  END
