
     RDKit          3D

 23 23  0  0  0  0  0  0  0  0999 V2000
    2.0680   -0.5332    1.0880 C   0  0  0  0  0  0  0  0  0  0  0  0
    1.1553   -1.4896    0.6521 O   0  0  0  0  0  0  0  0  0  0  0  0
    0.4714   -0.9710   -0.4289 C   0  0  0  0  0  0  0  0  0  0  0  0
    1.3484   -0.6047   -1.6017 C   0  0  0  0  0  0  0  0  0  0  0  0
   -0.9409   -1.2892   -0.7099 C   0  0  0  0  0  0  0  0  0  0  0  0
   -0.6369    0.0017   -0.0211 C   0  0  0  0  0  0  0  0  0  0  0  0
   -1.0452    0.0338    1.4411 C   0  0  0  0  0  0  0  0  0  0  0  0
   -0.6035    1.1864   -0.7300 O   0  0  0  0  0  0  0  0  0  0  0  0
   -1.6021    2.0694   -0.3661 C   0  0  0  0  0  0  0  0  0  0  0  0
    1.5728    0.4144    1.4003 H   0  0  0  0  0  0  0  0  0  0  0  0
    2.8114   -0.2551    0.3248 H   0  0  0  0  0  0  0  0  0  0  0  0
    2.6093   -0.8948    2.0109 H   0  0  0  0  0  0  0  0  0  0  0  0
    0.8531   -0.9773   -2.5197 H   0  0  0  0  0  0  0  0  0  0  0  0
    1.3772    0.5168   -1.6326 H   0  0  0  0  0  0  0  0  0  0  0  0
    2.3673   -1.0240   -1.5115 H   0  0  0  0  0  0  0  0  0  0  0  0
   -1.2739   -1.2007   -1.7716 H   0  0  0  0  0  0  0  0  0  0  0  0
   -1.4889   -2.0806   -0.1619 H   0  0  0  0  0  0  0  0  0  0  0  0
   -0.6319   -0.8399    1.9904 H   0  0  0  0  0  0  0  0  0  0  0  0
   -2.1601   -0.0446    1.5566 H   0  0  0  0  0  0  0  0  0  0  0  0
   -0.7068    0.9910    1.8817 H   0  0  0  0  0  0  0  0  0  0  0  0
   -2.5736    1.5789   -0.5531 H   0  0  0  0  0  0  0  0  0  0  0  0
   -1.4738    2.9771   -1.0128 H   0  0  0  0  0  0  0  0  0  0  0  0
   -1.4965    2.4352    0.6748 H   0  0  0  0  0  0  0  0  0  0  0  0
  1  2  1  0
  2  3  1  0
  3  4  1  0
  3  5  1  0
  5  6  1  0
  6  7  1  0
  6  8  1  0
  8  9  1  0
  6  3  1  0
  1 10  1  0
  1 11  1  0
  1 12  1  0
  4 13  1  0
  4 14  1  0
  4 15  1  0
  5 16  1  0
  5 17  1  0
  7 18  1  0
  7 19  1  0
  7 20  1  0
  9 21  1  0
  9 22  1  0
  9 23  1  0
M  END
