
     RDKit          3D

 21 21  0  0  0  0  0  0  0  0999 V2000
    2.7005    0.3055   -0.0952 C   0  0  0  0  0  0  0  0  0  0  0  0
    1.4743    0.5834    0.5045 O   0  0  0  0  0  0  0  0  0  0  0  0
    0.4641   -0.2052   -0.0352 C   0  0  0  0  0  0  0  0  0  0  0  0
   -0.0486   -1.1518    1.0214 C   0  0  0  0  0  0  0  0  0  0  0  0
   -1.2754   -1.6719    0.8422 C   0  0  0  0  0  0  0  0  0  0  0  0
   -1.9749   -1.2310   -0.4043 C   0  0  0  0  0  0  0  0  0  0  0  0
   -1.8902    0.1345   -0.4668 O   0  0  0  0  0  0  0  0  0  0  0  0
   -0.6225    0.6405   -0.6070 C   0  0  0  0  0  0  0  0  0  0  0  0
   -0.6350    2.0266    0.0533 C   0  0  0  0  0  0  0  0  0  0  0  0
    2.7123    0.4838   -1.1777 H   0  0  0  0  0  0  0  0  0  0  0  0
    3.5034    0.8908    0.3660 H   0  0  0  0  0  0  0  0  0  0  0  0
    2.9466   -0.7746    0.1300 H   0  0  0  0  0  0  0  0  0  0  0  0
    0.9285   -0.8652   -0.8259 H   0  0  0  0  0  0  0  0  0  0  0  0
    0.5019   -1.4251    1.8881 H   0  0  0  0  0  0  0  0  0  0  0  0
   -1.7406   -2.3492    1.5190 H   0  0  0  0  0  0  0  0  0  0  0  0
   -3.0387   -1.5161   -0.4017 H   0  0  0  0  0  0  0  0  0  0  0  0
   -1.5112   -1.6612   -1.3100 H   0  0  0  0  0  0  0  0  0  0  0  0
   -0.4451    0.7850   -1.7120 H   0  0  0  0  0  0  0  0  0  0  0  0
   -1.2519    2.6687   -0.5865 H   0  0  0  0  0  0  0  0  0  0  0  0
    0.3705    2.3885    0.2610 H   0  0  0  0  0  0  0  0  0  0  0  0
   -1.1679    1.9440    1.0368 H   0  0  0  0  0  0  0  0  0  0  0  0
  1  2  1  0
  2  3  1  0
  3  4  1  0
  4  5  2  0
  5  6  1  0
  6  7  1  0
  7  8  1  0
  8  9  1  0
  8  3  1  0
  1 10  1  0
  1 11  1  0
  1 12  1  0
  3 13  1  0
  4 14  1  0
  5 15  1  0
  6 16  1  0
  6 17  1  0
  8 18  1  0
  9 19  1  0
  9 20  1  0
  9 21  1  0
M  END
