
     RDKit          3D

 23 23  0  0  0  0  0  0  0  0999 V2000
    2.2385   -0.0402   -1.1468 C   0  0  0  0  0  0  0  0  0  0  0  0
    1.5667    0.6899   -0.2485 O   0  0  0  0  0  0  0  0  0  0  0  0
    0.4772    0.2145    0.3907 C   0  0  0  0  0  0  0  0  0  0  0  0
    0.6391   -1.0310    1.2162 C   0  0  0  0  0  0  0  0  0  0  0  0
   -0.0011    1.3770    1.2924 C   0  0  0  0  0  0  0  0  0  0  0  0
   -0.6088    1.8725    0.1370 O   0  0  0  0  0  0  0  0  0  0  0  0
   -0.8380    0.5140   -0.1930 C   0  0  0  0  0  0  0  0  0  0  0  0
   -0.8922    0.2249   -1.6602 C   0  0  0  0  0  0  0  0  0  0  0  0
   -2.0850    0.0889    0.4970 C   0  0  0  0  0  0  0  0  0  0  0  0
    3.0967    0.6083   -1.5123 H   0  0  0  0  0  0  0  0  0  0  0  0
    1.7114   -0.3052   -2.0859 H   0  0  0  0  0  0  0  0  0  0  0  0
    2.7494   -0.9467   -0.7659 H   0  0  0  0  0  0  0  0  0  0  0  0
   -0.1818   -1.7547    1.0633 H   0  0  0  0  0  0  0  0  0  0  0  0
    1.5734   -1.5867    0.9687 H   0  0  0  0  0  0  0  0  0  0  0  0
    0.6868   -0.8293    2.3105 H   0  0  0  0  0  0  0  0  0  0  0  0
   -0.6449    1.0619    2.1032 H   0  0  0  0  0  0  0  0  0  0  0  0
    0.8144    2.0134    1.6782 H   0  0  0  0  0  0  0  0  0  0  0  0
   -0.5974   -0.8373   -1.7929 H   0  0  0  0  0  0  0  0  0  0  0  0
   -1.9819    0.2346   -1.9726 H   0  0  0  0  0  0  0  0  0  0  0  0
   -0.3166    0.9399   -2.2631 H   0  0  0  0  0  0  0  0  0  0  0  0
   -2.8977    0.0102   -0.2574 H   0  0  0  0  0  0  0  0  0  0  0  0
   -2.0326   -0.8998    0.9904 H   0  0  0  0  0  0  0  0  0  0  0  0
   -2.4753    0.8205    1.2509 H   0  0  0  0  0  0  0  0  0  0  0  0
  1  2  1  0
  2  3  1  0
  3  4  1  0
  3  5  1  0
  5  6  1  0
  6  7  1  0
  7  8  1  0
  7  9  1  0
  7  3  1  0
  1 10  1  0
  1 11  1  0
  1 12  1  0
  4 13  1  0
  4 14  1  0
  4 15  1  0
  5 16  1  0
  5 17  1  0
  8 18  1  0
  8 19  1  0
  8 20  1  0
  9 21  1  0
  9 22  1  0
  9 23  1  0
M  END
