
     RDKit          3D

 21 23  0  0  0  0  0  0  0  0999 V2000
    2.4262   -0.1147   -0.9273 C   0  0  0  0  0  0  0  0  0  0  0  0
    1.7169   -0.4357    0.1710 O   0  0  0  0  0  0  0  0  0  0  0  0
    0.4290   -0.1229    0.2747 C   0  0  0  0  0  0  0  0  0  0  0  0
   -0.1699   -0.5770    1.5882 C   0  0  0  0  0  0  0  0  0  0  0  0
   -1.0940   -1.4735    0.8143 C   0  0  0  0  0  0  0  0  0  0  0  0
   -0.6458   -0.7881   -0.4470 C   0  0  0  0  0  0  0  0  0  0  0  0
   -1.3024    0.5004   -0.7857 C   0  0  0  0  0  0  0  0  0  0  0  0
   -1.4069    1.6272    0.1651 C   0  0  0  0  0  0  0  0  0  0  0  0
   -0.0444    1.2135   -0.2174 C   0  0  0  0  0  0  0  0  0  0  0  0
    2.4481    0.9990   -1.1095 H   0  0  0  0  0  0  0  0  0  0  0  0
    2.1137   -0.5899   -1.8718 H   0  0  0  0  0  0  0  0  0  0  0  0
    3.4898   -0.3965   -0.7748 H   0  0  0  0  0  0  0  0  0  0  0  0
    0.5392   -1.1964    2.2068 H   0  0  0  0  0  0  0  0  0  0  0  0
   -0.6172    0.1851    2.2158 H   0  0  0  0  0  0  0  0  0  0  0  0
   -2.1552   -1.4014    1.0632 H   0  0  0  0  0  0  0  0  0  0  0  0
   -0.7763   -2.5451    0.8103 H   0  0  0  0  0  0  0  0  0  0  0  0
   -0.4551   -1.4256   -1.3046 H   0  0  0  0  0  0  0  0  0  0  0  0
   -1.4982    0.6794   -1.8715 H   0  0  0  0  0  0  0  0  0  0  0  0
   -1.7534    2.5892   -0.2847 H   0  0  0  0  0  0  0  0  0  0  0  0
   -1.8079    1.4850    1.1886 H   0  0  0  0  0  0  0  0  0  0  0  0
    0.5638    1.7880   -0.9036 H   0  0  0  0  0  0  0  0  0  0  0  0
  1  2  1  0
  2  3  1  0
  3  4  1  0
  4  5  1  0
  5  6  1  0
  6  7  1  0
  7  8  1  0
  8  9  1  0
  6  3  1  0
  9  7  1  0
  9  3  1  0
  1 10  1  0
  1 11  1  0
  1 12  1  0
  4 13  1  0
  4 14  1  0
  5 15  1  0
  5 16  1  0
  6 17  1  0
  7 18  1  0
  8 19  1  0
  8 20  1  0
  9 21  1  0
M  END
