
     RDKit          3D

 21 22  0  0  0  0  0  0  0  0999 V2000
   -2.7101    0.3845    0.0292 C   0  0  0  0  0  0  0  0  0  0  0  0
   -1.5881    0.6464   -0.7326 O   0  0  0  0  0  0  0  0  0  0  0  0
   -0.4047    0.3090   -0.1082 C   0  0  0  0  0  0  0  0  0  0  0  0
   -0.1307   -1.0912    0.3138 C   0  0  0  0  0  0  0  0  0  0  0  0
    1.1045   -1.6947   -0.2531 C   0  0  0  0  0  0  0  0  0  0  0  0
    1.7237   -0.9235   -1.2254 O   0  0  0  0  0  0  0  0  0  0  0  0
    2.0592    0.2984   -0.5978 C   0  0  0  0  0  0  0  0  0  0  0  0
    0.7859    1.0950   -0.5186 C   0  0  0  0  0  0  0  0  0  0  0  0
    0.2089    1.3928    0.7997 C   0  0  0  0  0  0  0  0  0  0  0  0
   -2.8018   -0.7019    0.2903 H   0  0  0  0  0  0  0  0  0  0  0  0
   -2.8313    1.0461    0.8955 H   0  0  0  0  0  0  0  0  0  0  0  0
   -3.5954    0.5873   -0.6409 H   0  0  0  0  0  0  0  0  0  0  0  0
   -0.9992   -1.7304    0.0617 H   0  0  0  0  0  0  0  0  0  0  0  0
   -0.0515   -1.1184    1.4370 H   0  0  0  0  0  0  0  0  0  0  0  0
    1.8851   -1.8705    0.5443 H   0  0  0  0  0  0  0  0  0  0  0  0
    0.9364   -2.7191   -0.6970 H   0  0  0  0  0  0  0  0  0  0  0  0
    2.4799    0.0432    0.3807 H   0  0  0  0  0  0  0  0  0  0  0  0
    2.8162    0.8381   -1.1906 H   0  0  0  0  0  0  0  0  0  0  0  0
    0.6685    1.8271   -1.3694 H   0  0  0  0  0  0  0  0  0  0  0  0
   -0.3315    2.3431    0.9000 H   0  0  0  0  0  0  0  0  0  0  0  0
    0.7761    1.0385    1.6814 H   0  0  0  0  0  0  0  0  0  0  0  0
  1  2  1  0
  2  3  1  0
  3  4  1  0
  4  5  1  0
  5  6  1  0
  6  7  1  0
  7  8  1  0
  8  9  1  0
  8  3  1  0
  9  3  1  0
  1 10  1  0
  1 11  1  0
  1 12  1  0
  4 13  1  0
  4 14  1  0
  5 15  1  0
  5 16  1  0
  7 17  1  0
  7 18  1  0
  8 19  1  0
  9 20  1  0
  9 21  1  0
M  END
