
     RDKit          3D

 19 20  0  0  0  0  0  0  0  0999 V2000
    2.7247   -0.1125    0.0243 C   0  0  0  0  0  0  0  0  0  0  0  0
    1.4791   -0.6711    0.2584 O   0  0  0  0  0  0  0  0  0  0  0  0
    0.4277    0.0892   -0.1809 C   0  0  0  0  0  0  0  0  0  0  0  0
   -0.5386   -0.7356   -1.0475 C   0  0  0  0  0  0  0  0  0  0  0  0
   -1.7140   -0.9598   -0.1030 C   0  0  0  0  0  0  0  0  0  0  0  0
   -2.5306    0.1502   -0.0118 O   0  0  0  0  0  0  0  0  0  0  0  0
   -1.6592    1.1520    0.4716 C   0  0  0  0  0  0  0  0  0  0  0  0
   -0.4873    0.3755    0.9897 C   0  0  0  0  0  0  0  0  0  0  0  0
   -1.0675   -0.9051    1.1581 O   0  0  0  0  0  0  0  0  0  0  0  0
    2.8649    0.8691    0.5121 H   0  0  0  0  0  0  0  0  0  0  0  0
    2.9774   -0.0466   -1.0540 H   0  0  0  0  0  0  0  0  0  0  0  0
    3.4792   -0.7946    0.4815 H   0  0  0  0  0  0  0  0  0  0  0  0
    0.6956    1.0337   -0.6574 H   0  0  0  0  0  0  0  0  0  0  0  0
   -0.0639   -1.6878   -1.2876 H   0  0  0  0  0  0  0  0  0  0  0  0
   -0.8609   -0.1484   -1.9315 H   0  0  0  0  0  0  0  0  0  0  0  0
   -2.2300   -1.8970   -0.2683 H   0  0  0  0  0  0  0  0  0  0  0  0
   -1.3568    1.7340   -0.4296 H   0  0  0  0  0  0  0  0  0  0  0  0
   -2.1315    1.7995    1.2079 H   0  0  0  0  0  0  0  0  0  0  0  0
   -0.0083    0.7553    1.8680 H   0  0  0  0  0  0  0  0  0  0  0  0
  1  2  1  0
  2  3  1  0
  3  4  1  0
  4  5  1  0
  5  6  1  0
  6  7  1  0
  7  8  1  0
  8  9  1  0
  8  3  1  0
  9  5  1  0
  1 10  1  0
  1 11  1  0
  1 12  1  0
  3 13  1  0
  4 14  1  0
  4 15  1  0
  5 16  1  0
  7 17  1  0
  7 18  1  0
  8 19  1  0
M  END
