
     RDKit          3D

 19 20  0  0  0  0  0  0  0  0999 V2000
    2.6640    0.6110   -0.2860 C   0  0  0  0  0  0  0  0  0  0  0  0
    1.5700    0.4874    0.5839 O   0  0  0  0  0  0  0  0  0  0  0  0
    0.7651   -0.5653    0.2283 C   0  0  0  0  0  0  0  0  0  0  0  0
   -0.0208   -1.3323    1.2210 C   0  0  0  0  0  0  0  0  0  0  0  0
   -0.7160   -0.3189    0.4159 C   0  0  0  0  0  0  0  0  0  0  0  0
   -1.5728   -0.6512   -0.7625 C   0  0  0  0  0  0  0  0  0  0  0  0
   -2.5901    0.3239   -0.6559 O   0  0  0  0  0  0  0  0  0  0  0  0
   -1.9212    1.4041   -0.0614 C   0  0  0  0  0  0  0  0  0  0  0  0
   -1.1660    0.8484    0.9702 O   0  0  0  0  0  0  0  0  0  0  0  0
    3.2922    1.4601    0.0199 H   0  0  0  0  0  0  0  0  0  0  0  0
    3.2505   -0.3433   -0.1629 H   0  0  0  0  0  0  0  0  0  0  0  0
    2.2691    0.6878   -1.3146 H   0  0  0  0  0  0  0  0  0  0  0  0
    1.1077   -1.1303   -0.6690 H   0  0  0  0  0  0  0  0  0  0  0  0
    0.1690   -1.0512    2.2862 H   0  0  0  0  0  0  0  0  0  0  0  0
   -0.1452   -2.4156    1.0523 H   0  0  0  0  0  0  0  0  0  0  0  0
   -1.9715   -1.6689   -0.7596 H   0  0  0  0  0  0  0  0  0  0  0  0
   -1.0513   -0.4133   -1.7230 H   0  0  0  0  0  0  0  0  0  0  0  0
   -2.6328    2.1097    0.4093 H   0  0  0  0  0  0  0  0  0  0  0  0
   -1.3001    1.9581   -0.7920 H   0  0  0  0  0  0  0  0  0  0  0  0
  1  2  1  0
  2  3  1  0
  3  4  1  0
  4  5  1  0
  5  6  1  0
  6  7  1  0
  7  8  1  0
  8  9  1  0
  5  3  1  0
  9  5  1  0
  1 10  1  0
  1 11  1  0
  1 12  1  0
  3 13  1  0
  4 14  1  0
  4 15  1  0
  6 16  1  0
  6 17  1  0
  8 18  1  0
  8 19  1  0
M  END
