
     RDKit          3D

 21 22  0  0  0  0  0  0  0  0999 V2000
    2.6577    1.1269   -0.0305 C   0  0  0  0  0  0  0  0  0  0  0  0
    1.4430    0.6050    0.4398 O   0  0  0  0  0  0  0  0  0  0  0  0
    0.8406   -0.0466   -0.6365 C   0  0  0  0  0  0  0  0  0  0  0  0
    0.5409   -1.4950   -0.3194 C   0  0  0  0  0  0  0  0  0  0  0  0
   -0.7715   -1.3909    0.4156 C   0  0  0  0  0  0  0  0  0  0  0  0
   -1.1421    0.0450    0.2331 C   0  0  0  0  0  0  0  0  0  0  0  0
   -1.5230    0.9223    1.3566 C   0  0  0  0  0  0  0  0  0  0  0  0
   -2.5897    0.4301    0.4139 C   0  0  0  0  0  0  0  0  0  0  0  0
   -0.4256    0.5053   -0.8459 O   0  0  0  0  0  0  0  0  0  0  0  0
    3.1930    1.6631    0.7834 H   0  0  0  0  0  0  0  0  0  0  0  0
    3.3319    0.2853   -0.3412 H   0  0  0  0  0  0  0  0  0  0  0  0
    2.5005    1.7469   -0.9304 H   0  0  0  0  0  0  0  0  0  0  0  0
    1.4451    0.0067   -1.5587 H   0  0  0  0  0  0  0  0  0  0  0  0
    1.3009   -1.9823    0.2915 H   0  0  0  0  0  0  0  0  0  0  0  0
    0.4441   -2.0243   -1.2854 H   0  0  0  0  0  0  0  0  0  0  0  0
   -0.7046   -1.7132    1.4685 H   0  0  0  0  0  0  0  0  0  0  0  0
   -1.5318   -2.0030   -0.1258 H   0  0  0  0  0  0  0  0  0  0  0  0
   -1.2287    1.9955    1.2409 H   0  0  0  0  0  0  0  0  0  0  0  0
   -1.5491    0.5711    2.3930 H   0  0  0  0  0  0  0  0  0  0  0  0
   -3.2707   -0.3409    0.8434 H   0  0  0  0  0  0  0  0  0  0  0  0
   -2.9609    1.0930   -0.3977 H   0  0  0  0  0  0  0  0  0  0  0  0
  1  2  1  0
  2  3  1  0
  3  4  1  0
  4  5  1  0
  5  6  1  0
  6  7  1  0
  7  8  1  0
  6  9  1  0
  9  3  1  0
  8  6  1  0
  1 10  1  0
  1 11  1  0
  1 12  1  0
  3 13  1  0
  4 14  1  0
  4 15  1  0
  5 16  1  0
  5 17  1  0
  7 18  1  0
  7 19  1  0
  8 20  1  0
  8 21  1  0
M  END
