
     RDKit          3D

 21 22  0  0  0  0  0  0  0  0999 V2000
    2.6114   -0.9673   -0.0578 C   0  0  0  0  0  0  0  0  0  0  0  0
    1.2316   -1.0164    0.1564 O   0  0  0  0  0  0  0  0  0  0  0  0
    0.6499    0.1797   -0.1437 C   0  0  0  0  0  0  0  0  0  0  0  0
   -0.2516    0.6953    0.9953 C   0  0  0  0  0  0  0  0  0  0  0  0
   -0.9827    1.7569    0.2327 C   0  0  0  0  0  0  0  0  0  0  0  0
   -1.0952    1.3921   -1.0337 C   0  0  0  0  0  0  0  0  0  0  0  0
   -0.5263    0.0265   -1.1281 C   0  0  0  0  0  0  0  0  0  0  0  0
   -1.4079   -0.8820   -0.3088 C   0  0  0  0  0  0  0  0  0  0  0  0
   -1.1884   -0.4608    1.1448 C   0  0  0  0  0  0  0  0  0  0  0  0
    2.8757   -0.7368   -1.0932 H   0  0  0  0  0  0  0  0  0  0  0  0
    3.0698   -1.9470    0.2008 H   0  0  0  0  0  0  0  0  0  0  0  0
    3.0390   -0.2123    0.6324 H   0  0  0  0  0  0  0  0  0  0  0  0
    1.3111    0.9703   -0.4923 H   0  0  0  0  0  0  0  0  0  0  0  0
    0.2772    1.0241    1.8564 H   0  0  0  0  0  0  0  0  0  0  0  0
   -1.3489    2.6688    0.6776 H   0  0  0  0  0  0  0  0  0  0  0  0
   -1.5058    1.9350   -1.8618 H   0  0  0  0  0  0  0  0  0  0  0  0
   -0.2460   -0.3160   -2.0929 H   0  0  0  0  0  0  0  0  0  0  0  0
   -1.2105   -1.9489   -0.4593 H   0  0  0  0  0  0  0  0  0  0  0  0
   -2.4742   -0.6374   -0.5325 H   0  0  0  0  0  0  0  0  0  0  0  0
   -0.7107   -1.3324    1.6584 H   0  0  0  0  0  0  0  0  0  0  0  0
   -2.1174   -0.1915    1.6493 H   0  0  0  0  0  0  0  0  0  0  0  0
  1  2  1  0
  2  3  1  0
  3  4  1  0
  4  5  1  0
  5  6  2  0
  6  7  1  0
  7  8  1  0
  8  9  1  0
  7  3  1  0
  9  4  1  0
  1 10  1  0
  1 11  1  0
  1 12  1  0
  3 13  1  0
  4 14  1  0
  5 15  1  0
  6 16  1  0
  7 17  1  0
  8 18  1  0
  8 19  1  0
  9 20  1  0
  9 21  1  0
M  END
