
     RDKit          3D

 19 21  0  0  0  0  0  0  0  0999 V2000
    3.2197    0.4729   -0.1614 C   0  0  0  0  0  0  0  0  0  0  0  0
    2.0940    0.2635    0.6284 O   0  0  0  0  0  0  0  0  0  0  0  0
    0.9515    0.0358   -0.1024 C   0  0  0  0  0  0  0  0  0  0  0  0
    0.0431   -1.0444    0.3343 C   0  0  0  0  0  0  0  0  0  0  0  0
   -1.2423   -1.2314   -0.4841 C   0  0  0  0  0  0  0  0  0  0  0  0
   -1.6518    0.1136   -0.0711 C   0  0  0  0  0  0  0  0  0  0  0  0
   -2.7901    0.8459   -0.1806 C   0  0  0  0  0  0  0  0  0  0  0  0
   -2.7266    0.0508    0.9556 O   0  0  0  0  0  0  0  0  0  0  0  0
   -0.3231    0.4717    0.4662 C   0  0  0  0  0  0  0  0  0  0  0  0
    3.1353    1.3317   -0.8320 H   0  0  0  0  0  0  0  0  0  0  0  0
    4.0807    0.6395    0.5170 H   0  0  0  0  0  0  0  0  0  0  0  0
    3.4385   -0.4568   -0.7377 H   0  0  0  0  0  0  0  0  0  0  0  0
    1.1358    0.0603   -1.2155 H   0  0  0  0  0  0  0  0  0  0  0  0
    0.1533   -1.5802    1.2752 H   0  0  0  0  0  0  0  0  0  0  0  0
   -1.8291   -2.0976   -0.1390 H   0  0  0  0  0  0  0  0  0  0  0  0
   -0.9615   -1.2649   -1.5733 H   0  0  0  0  0  0  0  0  0  0  0  0
   -3.6224    0.5768   -0.8904 H   0  0  0  0  0  0  0  0  0  0  0  0
   -2.8055    1.9379    0.0377 H   0  0  0  0  0  0  0  0  0  0  0  0
   -0.2994    0.8750    1.5086 H   0  0  0  0  0  0  0  0  0  0  0  0
  1  2  1  0
  2  3  1  0
  3  4  1  0
  4  5  1  0
  5  6  1  0
  6  7  1  0
  7  8  1  0
  6  9  1  0
  9  3  1  0
  9  4  1  0
  8  6  1  0
  1 10  1  0
  1 11  1  0
  1 12  1  0
  3 13  1  0
  4 14  1  0
  5 15  1  0
  5 16  1  0
  7 17  1  0
  7 18  1  0
  9 19  1  0
M  END
