
     RDKit          3D

 23 23  0  0  0  0  0  0  0  0999 V2000
    3.2030   -0.1969    0.3272 C   0  0  0  0  0  0  0  0  0  0  0  0
    2.0951    0.5818    0.0429 O   0  0  0  0  0  0  0  0  0  0  0  0
    0.8977   -0.0781    0.1620 C   0  0  0  0  0  0  0  0  0  0  0  0
    0.1855   -0.1248   -1.1486 C   0  0  0  0  0  0  0  0  0  0  0  0
   -1.2332   -0.5934   -1.0656 C   0  0  0  0  0  0  0  0  0  0  0  0
   -2.1462    0.3526   -0.3424 C   0  0  0  0  0  0  0  0  0  0  0  0
   -2.1511    0.1139    1.1513 C   0  0  0  0  0  0  0  0  0  0  0  0
   -0.9128   -0.2906    1.6248 O   0  0  0  0  0  0  0  0  0  0  0  0
    0.1102    0.5546    1.2736 C   0  0  0  0  0  0  0  0  0  0  0  0
    3.3077   -1.0809   -0.3263 H   0  0  0  0  0  0  0  0  0  0  0  0
    4.1001    0.4415    0.1144 H   0  0  0  0  0  0  0  0  0  0  0  0
    3.2644   -0.4593    1.4008 H   0  0  0  0  0  0  0  0  0  0  0  0
    1.1173   -1.1228    0.4710 H   0  0  0  0  0  0  0  0  0  0  0  0
    0.7352   -0.8402   -1.7959 H   0  0  0  0  0  0  0  0  0  0  0  0
    0.1953    0.8513   -1.6558 H   0  0  0  0  0  0  0  0  0  0  0  0
   -1.3448   -1.5896   -0.5983 H   0  0  0  0  0  0  0  0  0  0  0  0
   -1.6145   -0.6908   -2.1043 H   0  0  0  0  0  0  0  0  0  0  0  0
   -1.9392    1.4101   -0.6043 H   0  0  0  0  0  0  0  0  0  0  0  0
   -3.1784    0.1442   -0.6961 H   0  0  0  0  0  0  0  0  0  0  0  0
   -2.8734   -0.6688    1.3843 H   0  0  0  0  0  0  0  0  0  0  0  0
   -2.4195    1.0805    1.6448 H   0  0  0  0  0  0  0  0  0  0  0  0
    0.8045    0.6166    2.1504 H   0  0  0  0  0  0  0  0  0  0  0  0
   -0.2029    1.5892    1.0578 H   0  0  0  0  0  0  0  0  0  0  0  0
  1  2  1  0
  2  3  1  0
  3  4  1  0
  4  5  1  0
  5  6  1  0
  6  7  1  0
  7  8  1  0
  8  9  1  0
  9  3  1  0
  1 10  1  0
  1 11  1  0
  1 12  1  0
  3 13  1  0
  4 14  1  0
  4 15  1  0
  5 16  1  0
  5 17  1  0
  6 18  1  0
  6 19  1  0
  7 20  1  0
  7 21  1  0
  9 22  1  0
  9 23  1  0
M  END
