
     RDKit          3D

 19 19  0  0  0  0  0  0  0  0999 V2000
   -2.3610    0.3522   -0.6859 C   0  0  0  0  0  0  0  0  0  0  0  0
   -1.2810   -0.3249   -1.1770 O   0  0  0  0  0  0  0  0  0  0  0  0
   -0.1067   -0.2058   -0.4902 C   0  0  0  0  0  0  0  0  0  0  0  0
    1.0448   -0.9834   -1.0899 C   0  0  0  0  0  0  0  0  0  0  0  0
    2.2920   -0.8172   -0.3020 C   0  0  0  0  0  0  0  0  0  0  0  0
    2.5440   -1.4291    0.7197 O   0  0  0  0  0  0  0  0  0  0  0  0
    0.3551    1.2232   -0.1979 C   0  0  0  0  0  0  0  0  0  0  0  0
    0.9730    0.6669    0.9498 O   0  0  0  0  0  0  0  0  0  0  0  0
   -0.1496   -0.1885    1.0010 C   0  0  0  0  0  0  0  0  0  0  0  0
   -2.6985    0.1036    0.3183 H   0  0  0  0  0  0  0  0  0  0  0  0
   -3.2313    0.1130   -1.3633 H   0  0  0  0  0  0  0  0  0  0  0  0
   -2.1637    1.4439   -0.8242 H   0  0  0  0  0  0  0  0  0  0  0  0
    1.2271   -0.5694   -2.1025 H   0  0  0  0  0  0  0  0  0  0  0  0
    0.7988   -2.0577   -1.2238 H   0  0  0  0  0  0  0  0  0  0  0  0
    3.0680   -0.1028   -0.6284 H   0  0  0  0  0  0  0  0  0  0  0  0
   -0.4275    1.9077    0.1373 H   0  0  0  0  0  0  0  0  0  0  0  0
    1.0945    1.6012   -0.9161 H   0  0  0  0  0  0  0  0  0  0  0  0
    0.0285   -1.1447    1.5221 H   0  0  0  0  0  0  0  0  0  0  0  0
   -1.0066    0.4118    1.3657 H   0  0  0  0  0  0  0  0  0  0  0  0
  1  2  1  0
  2  3  1  0
  3  4  1  0
  4  5  1  0
  5  6  2  0
  3  7  1  0
  7  8  1  0
  8  9  1  0
  9  3  1  0
  1 10  1  0
  1 11  1  0
  1 12  1  0
  4 13  1  0
  4 14  1  0
  5 15  1  0
  7 16  1  0
  7 17  1  0
  9 18  1  0
  9 19  1  0
M  END
