
     RDKit          3D

 23 23  0  0  0  0  0  0  0  0999 V2000
    2.8694    0.7300   -0.1210 C   0  0  0  0  0  0  0  0  0  0  0  0
    1.7564   -0.0865   -0.2735 O   0  0  0  0  0  0  0  0  0  0  0  0
    0.6288    0.4217    0.3575 C   0  0  0  0  0  0  0  0  0  0  0  0
   -0.3590   -0.4669    1.0038 C   0  0  0  0  0  0  0  0  0  0  0  0
   -0.2331   -1.9661    0.9549 C   0  0  0  0  0  0  0  0  0  0  0  0
   -0.6603    0.1751   -0.3385 C   0  0  0  0  0  0  0  0  0  0  0  0
   -0.6396   -0.7186   -1.5655 C   0  0  0  0  0  0  0  0  0  0  0  0
   -1.7794    1.1605   -0.3127 C   0  0  0  0  0  0  0  0  0  0  0  0
   -2.2173    1.4129    0.9968 O   0  0  0  0  0  0  0  0  0  0  0  0
    3.7042    0.2314   -0.6602 H   0  0  0  0  0  0  0  0  0  0  0  0
    3.1959    0.7442    0.9583 H   0  0  0  0  0  0  0  0  0  0  0  0
    2.7439    1.7400   -0.5187 H   0  0  0  0  0  0  0  0  0  0  0  0
    0.8194    1.3885    0.8699 H   0  0  0  0  0  0  0  0  0  0  0  0
   -0.8862   -0.0956    1.9057 H   0  0  0  0  0  0  0  0  0  0  0  0
   -0.2744   -2.4136    1.9770 H   0  0  0  0  0  0  0  0  0  0  0  0
   -1.1386   -2.3574    0.4306 H   0  0  0  0  0  0  0  0  0  0  0  0
    0.6615   -2.3191    0.4305 H   0  0  0  0  0  0  0  0  0  0  0  0
    0.4099   -1.0236   -1.7530 H   0  0  0  0  0  0  0  0  0  0  0  0
   -1.3232   -1.5834   -1.4714 H   0  0  0  0  0  0  0  0  0  0  0  0
   -0.9524   -0.0824   -2.4255 H   0  0  0  0  0  0  0  0  0  0  0  0
   -2.6630    0.6742   -0.8194 H   0  0  0  0  0  0  0  0  0  0  0  0
   -1.5917    2.0857   -0.8806 H   0  0  0  0  0  0  0  0  0  0  0  0
   -2.0712    2.3488    1.2549 H   0  0  0  0  0  0  0  0  0  0  0  0
  1  2  1  0
  2  3  1  0
  3  4  1  0
  4  5  1  0
  4  6  1  0
  6  7  1  0
  6  8  1  0
  8  9  1  0
  6  3  1  0
  1 10  1  0
  1 11  1  0
  1 12  1  0
  3 13  1  0
  4 14  1  0
  5 15  1  0
  5 16  1  0
  5 17  1  0
  7 18  1  0
  7 19  1  0
  7 20  1  0
  8 21  1  0
  8 22  1  0
  9 23  1  0
M  END
