
     RDKit          3D

 19 19  0  0  0  0  0  0  0  0999 V2000
    2.7676   -0.2485   -0.5089 C   0  0  0  0  0  0  0  0  0  0  0  0
    1.4253   -0.5478   -0.7303 O   0  0  0  0  0  0  0  0  0  0  0  0
    0.6650    0.2078    0.1573 C   0  0  0  0  0  0  0  0  0  0  0  0
   -0.0470   -0.7217    1.0760 C   0  0  0  0  0  0  0  0  0  0  0  0
   -1.3091   -1.0749    0.9254 C   0  0  0  0  0  0  0  0  0  0  0  0
   -2.0365   -0.4979   -0.2343 C   0  0  0  0  0  0  0  0  0  0  0  0
   -1.7251    0.9748   -0.2607 C   0  0  0  0  0  0  0  0  0  0  0  0
   -0.2726    1.1134   -0.5462 C   0  0  0  0  0  0  0  0  0  0  0  0
    0.0993    1.9518   -1.3356 O   0  0  0  0  0  0  0  0  0  0  0  0
    2.9404    0.8500   -0.6852 H   0  0  0  0  0  0  0  0  0  0  0  0
    3.4397   -0.8631   -1.1417 H   0  0  0  0  0  0  0  0  0  0  0  0
    2.9874   -0.4116    0.5746 H   0  0  0  0  0  0  0  0  0  0  0  0
    1.3047    0.8549    0.8154 H   0  0  0  0  0  0  0  0  0  0  0  0
    0.4905   -1.1464    1.9303 H   0  0  0  0  0  0  0  0  0  0  0  0
   -1.7969   -1.7520    1.6104 H   0  0  0  0  0  0  0  0  0  0  0  0
   -3.1229   -0.7095   -0.2071 H   0  0  0  0  0  0  0  0  0  0  0  0
   -1.5596   -0.9366   -1.1537 H   0  0  0  0  0  0  0  0  0  0  0  0
   -1.8970    1.4522    0.7295 H   0  0  0  0  0  0  0  0  0  0  0  0
   -2.3530    1.5051   -1.0154 H   0  0  0  0  0  0  0  0  0  0  0  0
  1  2  1  0
  2  3  1  0
  3  4  1  0
  4  5  2  0
  5  6  1  0
  6  7  1  0
  7  8  1  0
  8  9  2  0
  8  3  1  0
  1 10  1  0
  1 11  1  0
  1 12  1  0
  3 13  1  0
  4 14  1  0
  5 15  1  0
  6 16  1  0
  6 17  1  0
  7 18  1  0
  7 19  1  0
M  END
