
     RDKit          3D

 21 22  0  0  0  0  0  0  0  0999 V2000
    2.3609    0.1885   -0.9175 C   0  0  0  0  0  0  0  0  0  0  0  0
    1.1981    0.7640   -0.4313 O   0  0  0  0  0  0  0  0  0  0  0  0
    0.4917   -0.0787    0.4148 C   0  0  0  0  0  0  0  0  0  0  0  0
    1.2027   -0.5532    1.6692 C   0  0  0  0  0  0  0  0  0  0  0  0
   -0.5755   -0.9601   -0.0827 C   0  0  0  0  0  0  0  0  0  0  0  0
   -1.5527   -0.5321   -1.1382 C   0  0  0  0  0  0  0  0  0  0  0  0
   -1.6428    0.8691   -0.5524 C   0  0  0  0  0  0  0  0  0  0  0  0
   -2.9249    1.3383   -0.3459 O   0  0  0  0  0  0  0  0  0  0  0  0
   -0.9263    0.3477    0.6599 C   0  0  0  0  0  0  0  0  0  0  0  0
    3.0726   -0.0993   -0.1251 H   0  0  0  0  0  0  0  0  0  0  0  0
    2.8646    0.9722   -1.5365 H   0  0  0  0  0  0  0  0  0  0  0  0
    2.1459   -0.7077   -1.5484 H   0  0  0  0  0  0  0  0  0  0  0  0
    1.9216   -1.3365    1.3677 H   0  0  0  0  0  0  0  0  0  0  0  0
    0.4678   -1.0307    2.3460 H   0  0  0  0  0  0  0  0  0  0  0  0
    1.6635    0.2749    2.2331 H   0  0  0  0  0  0  0  0  0  0  0  0
   -0.7794   -1.9141    0.4624 H   0  0  0  0  0  0  0  0  0  0  0  0
   -1.2090   -0.5819   -2.1806 H   0  0  0  0  0  0  0  0  0  0  0  0
   -2.5427   -1.0424   -0.9466 H   0  0  0  0  0  0  0  0  0  0  0  0
   -0.9723    1.6080   -1.0784 H   0  0  0  0  0  0  0  0  0  0  0  0
   -2.8656    2.1989    0.1001 H   0  0  0  0  0  0  0  0  0  0  0  0
   -1.3982    0.2751    1.6305 H   0  0  0  0  0  0  0  0  0  0  0  0
  1  2  1  0
  2  3  1  0
  3  4  1  0
  3  5  1  0
  5  6  1  0
  6  7  1  0
  7  8  1  0
  7  9  1  0
  9  3  1  0
  9  5  1  0
  1 10  1  0
  1 11  1  0
  1 12  1  0
  4 13  1  0
  4 14  1  0
  4 15  1  0
  5 16  1  0
  6 17  1  0
  6 18  1  0
  7 19  1  0
  8 20  1  0
  9 21  1  0
M  END
