
     RDKit          3D

 16 16  0  0  0  0  0  0  0  0999 V2000
    2.3611   -0.6358   -0.0268 C   0  0  0  0  0  0  0  0  0  0  0  0
    1.2823   -0.2369   -0.8144 O   0  0  0  0  0  0  0  0  0  0  0  0
    0.1968   -0.0339    0.0313 C   0  0  0  0  0  0  0  0  0  0  0  0
   -0.3036    1.3543   -0.0200 C   0  0  0  0  0  0  0  0  0  0  0  0
   -1.6216    1.3392    0.0922 C   0  0  0  0  0  0  0  0  0  0  0  0
   -2.0958   -0.0314    0.2230 C   0  0  0  0  0  0  0  0  0  0  0  0
   -3.1469   -0.4574    0.7299 O   0  0  0  0  0  0  0  0  0  0  0  0
   -1.0137   -0.8274   -0.4012 C   0  0  0  0  0  0  0  0  0  0  0  0
    2.1360   -1.5851    0.5265 H   0  0  0  0  0  0  0  0  0  0  0  0
    2.4546    0.1412    0.7770 H   0  0  0  0  0  0  0  0  0  0  0  0
    3.3109   -0.6877   -0.5845 H   0  0  0  0  0  0  0  0  0  0  0  0
    0.4599   -0.2367    1.0939 H   0  0  0  0  0  0  0  0  0  0  0  0
    0.2916    2.2758   -0.1324 H   0  0  0  0  0  0  0  0  0  0  0  0
   -2.2676    2.2338    0.0882 H   0  0  0  0  0  0  0  0  0  0  0  0
   -0.9856   -1.8745   -0.0639 H   0  0  0  0  0  0  0  0  0  0  0  0
   -1.0586   -0.7374   -1.5190 H   0  0  0  0  0  0  0  0  0  0  0  0
  1  2  1  0
  2  3  1  0
  3  4  1  0
  4  5  2  0
  5  6  1  0
  6  7  2  0
  6  8  1  0
  8  3  1  0
  1  9  1  0
  1 10  1  0
  1 11  1  0
  3 12  1  0
  4 13  1  0
  5 14  1  0
  8 15  1  0
  8 16  1  0
M  END
