
     RDKit          3D

 21 22  0  0  0  0  0  0  0  0999 V2000
    2.5881   -0.3645    0.0280 C   0  0  0  0  0  0  0  0  0  0  0  0
    1.4269   -0.8575   -0.4577 O   0  0  0  0  0  0  0  0  0  0  0  0
    0.2712   -0.3579   -0.0879 C   0  0  0  0  0  0  0  0  0  0  0  0
   -0.8971   -1.0441   -0.7403 C   0  0  0  0  0  0  0  0  0  0  0  0
   -2.0429   -0.0447   -0.5177 C   0  0  0  0  0  0  0  0  0  0  0  0
   -1.3893    1.1128    0.1865 C   0  0  0  0  0  0  0  0  0  0  0  0
   -0.0085    1.0978   -0.4987 C   0  0  0  0  0  0  0  0  0  0  0  0
   -1.0738    0.6967    1.4732 O   0  0  0  0  0  0  0  0  0  0  0  0
   -0.0353   -0.2286    1.3764 C   0  0  0  0  0  0  0  0  0  0  0  0
    2.7149   -0.4194    1.1228 H   0  0  0  0  0  0  0  0  0  0  0  0
    3.4308   -0.9832   -0.4013 H   0  0  0  0  0  0  0  0  0  0  0  0
    2.7961    0.6706   -0.3527 H   0  0  0  0  0  0  0  0  0  0  0  0
   -1.0897   -1.9970   -0.2455 H   0  0  0  0  0  0  0  0  0  0  0  0
   -0.6749   -1.1398   -1.8108 H   0  0  0  0  0  0  0  0  0  0  0  0
   -2.7931   -0.5563    0.1172 H   0  0  0  0  0  0  0  0  0  0  0  0
   -2.4829    0.2502   -1.5051 H   0  0  0  0  0  0  0  0  0  0  0  0
   -1.8869    2.0563    0.1195 H   0  0  0  0  0  0  0  0  0  0  0  0
    0.6349    1.8038    0.0210 H   0  0  0  0  0  0  0  0  0  0  0  0
   -0.0918    1.2123   -1.5757 H   0  0  0  0  0  0  0  0  0  0  0  0
    0.8492    0.2679    1.8711 H   0  0  0  0  0  0  0  0  0  0  0  0
   -0.2458   -1.1756    1.8775 H   0  0  0  0  0  0  0  0  0  0  0  0
  1  2  1  0
  2  3  1  0
  3  4  1  0
  4  5  1  0
  5  6  1  0
  6  7  1  0
  6  8  1  0
  8  9  1  0
  7  3  1  0
  9  3  1  0
  1 10  1  0
  1 11  1  0
  1 12  1  0
  4 13  1  0
  4 14  1  0
  5 15  1  0
  5 16  1  0
  6 17  1  0
  7 18  1  0
  7 19  1  0
  9 20  1  0
  9 21  1  0
M  END
