
     RDKit          3D

 19 19  0  0  0  0  0  0  0  0999 V2000
    2.8260   -0.2503    0.0833 C   0  0  0  0  0  0  0  0  0  0  0  0
    1.6802   -0.4828   -0.6464 O   0  0  0  0  0  0  0  0  0  0  0  0
    0.5402    0.0948   -0.1372 C   0  0  0  0  0  0  0  0  0  0  0  0
   -0.3935   -1.0519    0.2037 C   0  0  0  0  0  0  0  0  0  0  0  0
   -1.5533   -0.4594    0.9799 C   0  0  0  0  0  0  0  0  0  0  0  0
   -2.2806    0.4314    0.0394 C   0  0  0  0  0  0  0  0  0  0  0  0
   -1.6360    1.0883   -0.8955 C   0  0  0  0  0  0  0  0  0  0  0  0
   -0.1696    0.9803   -1.0632 C   0  0  0  0  0  0  0  0  0  0  0  0
    0.3513    1.6504   -1.9791 O   0  0  0  0  0  0  0  0  0  0  0  0
    2.7697   -0.6262    1.1266 H   0  0  0  0  0  0  0  0  0  0  0  0
    3.0685    0.8356    0.0629 H   0  0  0  0  0  0  0  0  0  0  0  0
    3.6395   -0.8297   -0.4050 H   0  0  0  0  0  0  0  0  0  0  0  0
    0.7264    0.6705    0.8029 H   0  0  0  0  0  0  0  0  0  0  0  0
    0.1239   -1.8553    0.7619 H   0  0  0  0  0  0  0  0  0  0  0  0
   -0.8193   -1.4419   -0.7445 H   0  0  0  0  0  0  0  0  0  0  0  0
   -2.1959   -1.2074    1.4442 H   0  0  0  0  0  0  0  0  0  0  0  0
   -1.1005    0.2192    1.7566 H   0  0  0  0  0  0  0  0  0  0  0  0
   -3.3518    0.5124    0.1592 H   0  0  0  0  0  0  0  0  0  0  0  0
   -2.2252    1.7219   -1.5498 H   0  0  0  0  0  0  0  0  0  0  0  0
  1  2  1  0
  2  3  1  0
  3  4  1  0
  4  5  1  0
  5  6  1  0
  6  7  2  0
  7  8  1  0
  8  9  2  0
  8  3  1  0
  1 10  1  0
  1 11  1  0
  1 12  1  0
  3 13  1  0
  4 14  1  0
  4 15  1  0
  5 16  1  0
  5 17  1  0
  6 18  1  0
  7 19  1  0
M  END
