
     RDKit          3D

 19 20  0  0  0  0  0  0  0  0999 V2000
   -2.7259   -0.8762   -0.7335 C   0  0  0  0  0  0  0  0  0  0  0  0
   -1.9073    0.1990   -0.5150 O   0  0  0  0  0  0  0  0  0  0  0  0
   -0.6703   -0.1537    0.0324 C   0  0  0  0  0  0  0  0  0  0  0  0
    0.0045    0.6493    0.9999 C   0  0  0  0  0  0  0  0  0  0  0  0
    1.3002    1.0865    1.1405 O   0  0  0  0  0  0  0  0  0  0  0  0
    0.9433    1.9427    0.0612 C   0  0  0  0  0  0  0  0  0  0  0  0
    0.4499    0.6147   -0.4898 C   0  0  0  0  0  0  0  0  0  0  0  0
    1.4857   -0.1619   -0.9004 O   0  0  0  0  0  0  0  0  0  0  0  0
    2.1031   -0.9922   -0.0315 C   0  0  0  0  0  0  0  0  0  0  0  0
   -3.6977   -0.6180   -1.1612 H   0  0  0  0  0  0  0  0  0  0  0  0
   -2.1943   -1.5483   -1.4677 H   0  0  0  0  0  0  0  0  0  0  0  0
   -2.8158   -1.4442    0.2317 H   0  0  0  0  0  0  0  0  0  0  0  0
   -0.6098   -1.2751    0.1783 H   0  0  0  0  0  0  0  0  0  0  0  0
   -0.6369    1.5416    1.3070 H   0  0  0  0  0  0  0  0  0  0  0  0
    0.1375    2.6540    0.3089 H   0  0  0  0  0  0  0  0  0  0  0  0
    1.7841    2.3345   -0.5095 H   0  0  0  0  0  0  0  0  0  0  0  0
    1.4350   -1.7554    0.4395 H   0  0  0  0  0  0  0  0  0  0  0  0
    2.8305   -0.5454    0.6742 H   0  0  0  0  0  0  0  0  0  0  0  0
    2.7842   -1.6519   -0.6687 H   0  0  0  0  0  0  0  0  0  0  0  0
  1  2  1  0
  2  3  1  0
  3  4  1  0
  4  5  1  0
  5  6  1  0
  6  7  1  0
  7  8  1  0
  8  9  1  0
  7  3  1  0
  7  4  1  0
  1 10  1  0
  1 11  1  0
  1 12  1  0
  3 13  1  0
  4 14  1  0
  6 15  1  0
  6 16  1  0
  9 17  1  0
  9 18  1  0
  9 19  1  0
M  END
