
     RDKit          3D

 21 22  0  0  0  0  0  0  0  0999 V2000
    2.1686    0.9284   -0.1994 C   0  0  0  0  0  0  0  0  0  0  0  0
    1.0039    0.6525   -0.8848 O   0  0  0  0  0  0  0  0  0  0  0  0
    0.4029   -0.4801   -0.3660 C   0  0  0  0  0  0  0  0  0  0  0  0
   -0.8353   -0.7339   -1.1549 C   0  0  0  0  0  0  0  0  0  0  0  0
   -1.5868    0.5623   -0.7719 C   0  0  0  0  0  0  0  0  0  0  0  0
   -0.9954    0.9426    0.6075 C   0  0  0  0  0  0  0  0  0  0  0  0
   -0.4053   -0.3511    0.9847 C   0  0  0  0  0  0  0  0  0  0  0  0
   -1.4634   -1.2954    1.1483 O   0  0  0  0  0  0  0  0  0  0  0  0
    0.8766   -0.9502    0.8613 C   0  0  0  0  0  0  0  0  0  0  0  0
    2.9036    0.0869   -0.2133 H   0  0  0  0  0  0  0  0  0  0  0  0
    1.9433    1.3126    0.7922 H   0  0  0  0  0  0  0  0  0  0  0  0
    2.7461    1.7364   -0.7722 H   0  0  0  0  0  0  0  0  0  0  0  0
   -1.4236   -1.5993   -0.8554 H   0  0  0  0  0  0  0  0  0  0  0  0
   -0.6772   -0.6978   -2.2314 H   0  0  0  0  0  0  0  0  0  0  0  0
   -2.6546    0.3574   -0.6819 H   0  0  0  0  0  0  0  0  0  0  0  0
   -1.3348    1.3705   -1.4955 H   0  0  0  0  0  0  0  0  0  0  0  0
   -0.3296    1.7884    0.4849 H   0  0  0  0  0  0  0  0  0  0  0  0
   -1.8626    1.1613    1.2820 H   0  0  0  0  0  0  0  0  0  0  0  0
   -1.1452   -2.2228    1.0654 H   0  0  0  0  0  0  0  0  0  0  0  0
    1.7137   -0.4944    1.4214 H   0  0  0  0  0  0  0  0  0  0  0  0
    0.9551   -2.0742    0.9788 H   0  0  0  0  0  0  0  0  0  0  0  0
  1  2  1  0
  2  3  1  0
  3  4  1  0
  4  5  1  0
  5  6  1  0
  6  7  1  0
  7  8  1  0
  7  9  1  0
  7  3  1  0
  9  3  1  0
  1 10  1  0
  1 11  1  0
  1 12  1  0
  4 13  1  0
  4 14  1  0
  5 15  1  0
  5 16  1  0
  6 17  1  0
  6 18  1  0
  8 19  1  0
  9 20  1  0
  9 21  1  0
M  END
