
     RDKit          3D

 15 15  0  0  0  0  0  0  0  0999 V2000
    2.4060   -0.3807   -0.2088 C   0  0  0  0  0  0  0  0  0  0  0  0
    1.3117    0.3182    0.2808 O   0  0  0  0  0  0  0  0  0  0  0  0
    0.1061   -0.1099   -0.2218 C   0  0  0  0  0  0  0  0  0  0  0  0
   -0.6815    0.9904   -0.8261 C   0  0  0  0  0  0  0  0  0  0  0  0
   -0.2081    1.9168   -1.5271 O   0  0  0  0  0  0  0  0  0  0  0  0
   -2.0786    0.7839   -0.4515 C   0  0  0  0  0  0  0  0  0  0  0  0
   -2.1169   -0.0748    0.5343 C   0  0  0  0  0  0  0  0  0  0  0  0
   -0.7728   -0.5190    0.9091 C   0  0  0  0  0  0  0  0  0  0  0  0
   -0.4390   -1.1267    1.9804 O   0  0  0  0  0  0  0  0  0  0  0  0
    2.3670   -1.4665    0.0178 H   0  0  0  0  0  0  0  0  0  0  0  0
    3.3024    0.0156    0.3263 H   0  0  0  0  0  0  0  0  0  0  0  0
    2.5348   -0.2474   -1.3153 H   0  0  0  0  0  0  0  0  0  0  0  0
    0.2051   -0.9547   -0.9460 H   0  0  0  0  0  0  0  0  0  0  0  0
   -2.9122    1.2931   -0.9512 H   0  0  0  0  0  0  0  0  0  0  0  0
   -3.0240   -0.4383    1.0399 H   0  0  0  0  0  0  0  0  0  0  0  0
  1  2  1  0
  2  3  1  0
  3  4  1  0
  4  5  2  0
  4  6  1  0
  6  7  2  0
  7  8  1  0
  8  9  2  0
  8  3  1  0
  1 10  1  0
  1 11  1  0
  1 12  1  0
  3 13  1  0
  6 14  1  0
  7 15  1  0
M  END
