
     RDKit          3D

 21 22  0  0  0  0  0  0  0  0999 V2000
    2.4821   -0.5813    0.8153 C   0  0  0  0  0  0  0  0  0  0  0  0
    1.2136   -0.0452    1.1332 O   0  0  0  0  0  0  0  0  0  0  0  0
    0.6273    0.3295   -0.0440 C   0  0  0  0  0  0  0  0  0  0  0  0
    0.0760    1.7434   -0.0989 C   0  0  0  0  0  0  0  0  0  0  0  0
   -1.0531    1.1435   -0.9544 C   0  0  0  0  0  0  0  0  0  0  0  0
   -0.7789   -0.1185   -0.2509 C   0  0  0  0  0  0  0  0  0  0  0  0
   -1.5840   -0.4774    0.9362 C   0  0  0  0  0  0  0  0  0  0  0  0
   -1.8602   -1.7110    0.3025 O   0  0  0  0  0  0  0  0  0  0  0  0
   -1.0703   -1.4128   -0.8353 C   0  0  0  0  0  0  0  0  0  0  0  0
    3.0993    0.1879    0.3017 H   0  0  0  0  0  0  0  0  0  0  0  0
    2.3649   -1.4614    0.1494 H   0  0  0  0  0  0  0  0  0  0  0  0
    3.0168   -0.9178    1.7133 H   0  0  0  0  0  0  0  0  0  0  0  0
    1.2301    0.1491   -0.9722 H   0  0  0  0  0  0  0  0  0  0  0  0
   -0.3591    2.0416    0.8773 H   0  0  0  0  0  0  0  0  0  0  0  0
    0.6923    2.4747   -0.6190 H   0  0  0  0  0  0  0  0  0  0  0  0
   -0.7302    1.1748   -2.0052 H   0  0  0  0  0  0  0  0  0  0  0  0
   -2.0190    1.6319   -0.8258 H   0  0  0  0  0  0  0  0  0  0  0  0
   -2.4577    0.1503    1.1100 H   0  0  0  0  0  0  0  0  0  0  0  0
   -0.9647   -0.5984    1.8588 H   0  0  0  0  0  0  0  0  0  0  0  0
   -1.6745   -1.5146   -1.7323 H   0  0  0  0  0  0  0  0  0  0  0  0
   -0.2509   -2.1884   -0.8597 H   0  0  0  0  0  0  0  0  0  0  0  0
  1  2  1  0
  2  3  1  0
  3  4  1  0
  4  5  1  0
  5  6  1  0
  6  7  1  0
  7  8  1  0
  8  9  1  0
  6  3  1  0
  9  6  1  0
  1 10  1  0
  1 11  1  0
  1 12  1  0
  3 13  1  0
  4 14  1  0
  4 15  1  0
  5 16  1  0
  5 17  1  0
  7 18  1  0
  7 19  1  0
  9 20  1  0
  9 21  1  0
M  END
