
     RDKit          3D

 19 19  0  0  0  0  0  0  0  0999 V2000
    3.0749   -0.1999   -0.0885 C   0  0  0  0  0  0  0  0  0  0  0  0
    1.9725    0.2679    0.5714 O   0  0  0  0  0  0  0  0  0  0  0  0
    0.7764    0.1624   -0.0563 C   0  0  0  0  0  0  0  0  0  0  0  0
    0.0019    1.3955   -0.2866 C   0  0  0  0  0  0  0  0  0  0  0  0
   -1.4166    0.9797   -0.1246 C   0  0  0  0  0  0  0  0  0  0  0  0
   -1.4954   -0.2264    0.4126 C   0  0  0  0  0  0  0  0  0  0  0  0
   -2.7998   -0.9227    0.7018 C   0  0  0  0  0  0  0  0  0  0  0  0
   -0.1593   -0.7265    0.6583 C   0  0  0  0  0  0  0  0  0  0  0  0
    0.1770   -1.7147    1.3372 O   0  0  0  0  0  0  0  0  0  0  0  0
    3.2910    0.2762   -1.0513 H   0  0  0  0  0  0  0  0  0  0  0  0
    3.0223   -1.3226   -0.1801 H   0  0  0  0  0  0  0  0  0  0  0  0
    3.9612   -0.0156    0.5573 H   0  0  0  0  0  0  0  0  0  0  0  0
    0.9592   -0.3238   -1.0611 H   0  0  0  0  0  0  0  0  0  0  0  0
    0.0987    1.7513   -1.3409 H   0  0  0  0  0  0  0  0  0  0  0  0
    0.2213    2.2406    0.3745 H   0  0  0  0  0  0  0  0  0  0  0  0
   -2.2806    1.5859   -0.4097 H   0  0  0  0  0  0  0  0  0  0  0  0
   -2.6285   -1.9725    0.9667 H   0  0  0  0  0  0  0  0  0  0  0  0
   -3.3336   -0.3461    1.4888 H   0  0  0  0  0  0  0  0  0  0  0  0
   -3.4425   -0.8887   -0.2074 H   0  0  0  0  0  0  0  0  0  0  0  0
  1  2  1  0
  2  3  1  0
  3  4  1  0
  4  5  1  0
  5  6  2  0
  6  7  1  0
  6  8  1  0
  8  9  2  0
  8  3  1  0
  1 10  1  0
  1 11  1  0
  1 12  1  0
  3 13  1  0
  4 14  1  0
  4 15  1  0
  5 16  1  0
  7 17  1  0
  7 18  1  0
  7 19  1  0
M  END
