
     RDKit          3D

 19 20  0  0  0  0  0  0  0  0999 V2000
    2.4588    0.4019   -0.2548 C   0  0  0  0  0  0  0  0  0  0  0  0
    1.5582   -0.4739   -0.8057 O   0  0  0  0  0  0  0  0  0  0  0  0
    0.2445   -0.2208   -0.5337 C   0  0  0  0  0  0  0  0  0  0  0  0
   -0.7496   -1.1706   -1.1296 C   0  0  0  0  0  0  0  0  0  0  0  0
   -1.4857   -1.2657    0.1937 C   0  0  0  0  0  0  0  0  0  0  0  0
   -0.3593   -0.4764    0.8097 C   0  0  0  0  0  0  0  0  0  0  0  0
   -0.1862    0.8956    0.3409 C   0  0  0  0  0  0  0  0  0  0  0  0
   -1.3844    1.6979    0.0190 C   0  0  0  0  0  0  0  0  0  0  0  0
   -1.4145    2.8868    0.2241 O   0  0  0  0  0  0  0  0  0  0  0  0
    2.4219    0.4432    0.8625 H   0  0  0  0  0  0  0  0  0  0  0  0
    3.4808    0.0346   -0.5095 H   0  0  0  0  0  0  0  0  0  0  0  0
    2.4018    1.4327   -0.6872 H   0  0  0  0  0  0  0  0  0  0  0  0
   -1.3535   -0.7507   -1.9627 H   0  0  0  0  0  0  0  0  0  0  0  0
   -0.2817   -2.1500   -1.3602 H   0  0  0  0  0  0  0  0  0  0  0  0
   -2.4614   -0.7355    0.1040 H   0  0  0  0  0  0  0  0  0  0  0  0
   -1.5822   -2.3029    0.5827 H   0  0  0  0  0  0  0  0  0  0  0  0
    0.2679   -0.9403    1.5925 H   0  0  0  0  0  0  0  0  0  0  0  0
    0.6672    1.4788    0.7764 H   0  0  0  0  0  0  0  0  0  0  0  0
   -2.2425    1.2152   -0.4045 H   0  0  0  0  0  0  0  0  0  0  0  0
  1  2  1  0
  2  3  1  0
  3  4  1  0
  4  5  1  0
  5  6  1  0
  6  7  1  0
  7  8  1  0
  8  9  2  0
  6  3  1  0
  7  3  1  0
  1 10  1  0
  1 11  1  0
  1 12  1  0
  4 13  1  0
  4 14  1  0
  5 15  1  0
  5 16  1  0
  6 17  1  0
  7 18  1  0
  8 19  1  0
M  END
