
     RDKit          3D

 21 21  0  0  0  0  0  0  0  0999 V2000
    3.1518   -0.0247    0.0384 C   0  0  0  0  0  0  0  0  0  0  0  0
    1.9546   -0.7357    0.1010 O   0  0  0  0  0  0  0  0  0  0  0  0
    0.9361    0.2086    0.2116 C   0  0  0  0  0  0  0  0  0  0  0  0
   -0.1330    0.0192   -0.8334 C   0  0  0  0  0  0  0  0  0  0  0  0
   -1.2724   -0.6225   -0.0987 C   0  0  0  0  0  0  0  0  0  0  0  0
   -2.4169    0.3216    0.1419 C   0  0  0  0  0  0  0  0  0  0  0  0
   -2.0528    1.4254    0.8948 O   0  0  0  0  0  0  0  0  0  0  0  0
   -0.6407   -0.9894    1.2323 C   0  0  0  0  0  0  0  0  0  0  0  0
    0.3263   -0.0012    1.4468 O   0  0  0  0  0  0  0  0  0  0  0  0
    3.0985    0.6328   -0.8546 H   0  0  0  0  0  0  0  0  0  0  0  0
    4.0421   -0.6763    0.0462 H   0  0  0  0  0  0  0  0  0  0  0  0
    3.2546    0.6509    0.9195 H   0  0  0  0  0  0  0  0  0  0  0  0
    1.3139    1.2509    0.2221 H   0  0  0  0  0  0  0  0  0  0  0  0
    0.2192   -0.6290   -1.6754 H   0  0  0  0  0  0  0  0  0  0  0  0
   -0.4528    1.0170   -1.2009 H   0  0  0  0  0  0  0  0  0  0  0  0
   -1.6564   -1.5012   -0.6319 H   0  0  0  0  0  0  0  0  0  0  0  0
   -3.1795   -0.2482    0.7393 H   0  0  0  0  0  0  0  0  0  0  0  0
   -2.8911    0.6022   -0.8154 H   0  0  0  0  0  0  0  0  0  0  0  0
   -2.0411    2.2271    0.2939 H   0  0  0  0  0  0  0  0  0  0  0  0
   -1.3539   -0.9241    2.0742 H   0  0  0  0  0  0  0  0  0  0  0  0
   -0.2067   -2.0034    1.1830 H   0  0  0  0  0  0  0  0  0  0  0  0
  1  2  1  0
  2  3  1  0
  3  4  1  0
  4  5  1  0
  5  6  1  0
  6  7  1  0
  5  8  1  0
  8  9  1  0
  9  3  1  0
  1 10  1  0
  1 11  1  0
  1 12  1  0
  3 13  1  0
  4 14  1  0
  4 15  1  0
  5 16  1  0
  6 17  1  0
  6 18  1  0
  7 19  1  0
  8 20  1  0
  8 21  1  0
M  END
