
     RDKit          3D

 18 19  0  0  0  0  0  0  0  0999 V2000
    2.6905   -0.3946    0.1258 C   0  0  0  0  0  0  0  0  0  0  0  0
    1.5159    0.2956   -0.0870 O   0  0  0  0  0  0  0  0  0  0  0  0
    0.4046   -0.2962    0.4675 C   0  0  0  0  0  0  0  0  0  0  0  0
   -0.2952    0.6167    1.2973 O   0  0  0  0  0  0  0  0  0  0  0  0
   -1.4272    0.9006    0.5834 C   0  0  0  0  0  0  0  0  0  0  0  0
   -0.9498    1.0099   -0.8680 C   0  0  0  0  0  0  0  0  0  0  0  0
   -0.6190   -0.4705   -0.6131 C   0  0  0  0  0  0  0  0  0  0  0  0
   -1.9231   -0.4866    0.1469 C   0  0  0  0  0  0  0  0  0  0  0  0
    3.5035    0.1876   -0.3706 H   0  0  0  0  0  0  0  0  0  0  0  0
    2.9445   -0.3607    1.2249 H   0  0  0  0  0  0  0  0  0  0  0  0
    2.7130   -1.4053   -0.2864 H   0  0  0  0  0  0  0  0  0  0  0  0
    0.6114   -1.2396    1.0041 H   0  0  0  0  0  0  0  0  0  0  0  0
   -2.1475    1.5939    0.9217 H   0  0  0  0  0  0  0  0  0  0  0  0
   -0.0083    1.6022   -0.9825 H   0  0  0  0  0  0  0  0  0  0  0  0
   -1.7255    1.1889   -1.6037 H   0  0  0  0  0  0  0  0  0  0  0  0
   -0.4639   -1.0976   -1.4357 H   0  0  0  0  0  0  0  0  0  0  0  0
   -2.8225   -0.4446   -0.4977 H   0  0  0  0  0  0  0  0  0  0  0  0
   -2.0014   -1.1996    0.9730 H   0  0  0  0  0  0  0  0  0  0  0  0
  1  2  1  0
  2  3  1  0
  3  4  1  0
  4  5  1  0
  5  6  1  0
  6  7  1  0
  7  8  1  0
  7  3  1  0
  8  5  1  0
  1  9  1  0
  1 10  1  0
  1 11  1  0
  3 12  1  0
  5 13  1  0
  6 14  1  0
  6 15  1  0
  7 16  1  0
  8 17  1  0
  8 18  1  0
M  END
