
     RDKit          3D

 23 23  0  0  0  0  0  0  0  0999 V2000
    3.1591    0.1761    0.3373 C   0  0  0  0  0  0  0  0  0  0  0  0
    1.9098   -0.1020    0.8589 O   0  0  0  0  0  0  0  0  0  0  0  0
    0.9104    0.0934   -0.0834 C   0  0  0  0  0  0  0  0  0  0  0  0
    0.0376   -1.1219   -0.2452 C   0  0  0  0  0  0  0  0  0  0  0  0
   -1.3277   -0.5852   -0.6098 C   0  0  0  0  0  0  0  0  0  0  0  0
   -2.4401   -1.4517   -0.0761 C   0  0  0  0  0  0  0  0  0  0  0  0
   -1.3849    0.8278   -0.1239 C   0  0  0  0  0  0  0  0  0  0  0  0
   -0.0494    1.1294    0.4672 C   0  0  0  0  0  0  0  0  0  0  0  0
    0.4522    2.3737    0.1011 O   0  0  0  0  0  0  0  0  0  0  0  0
    3.9021   -0.0035    1.1498 H   0  0  0  0  0  0  0  0  0  0  0  0
    3.3683   -0.5890   -0.4592 H   0  0  0  0  0  0  0  0  0  0  0  0
    3.2925    1.2004   -0.0148 H   0  0  0  0  0  0  0  0  0  0  0  0
    1.3599    0.4293   -1.0382 H   0  0  0  0  0  0  0  0  0  0  0  0
    0.3959   -1.7583   -1.0772 H   0  0  0  0  0  0  0  0  0  0  0  0
    0.0372   -1.6840    0.7124 H   0  0  0  0  0  0  0  0  0  0  0  0
   -1.4340   -0.5509   -1.7280 H   0  0  0  0  0  0  0  0  0  0  0  0
   -3.1925   -0.8928    0.5029 H   0  0  0  0  0  0  0  0  0  0  0  0
   -2.9823   -1.9891   -0.8907 H   0  0  0  0  0  0  0  0  0  0  0  0
   -1.9733   -2.2135    0.5801 H   0  0  0  0  0  0  0  0  0  0  0  0
   -2.2178    1.0011    0.6119 H   0  0  0  0  0  0  0  0  0  0  0  0
   -1.5877    1.5652   -0.9456 H   0  0  0  0  0  0  0  0  0  0  0  0
   -0.1218    1.0182    1.5743 H   0  0  0  0  0  0  0  0  0  0  0  0
   -0.1132    3.1271    0.3964 H   0  0  0  0  0  0  0  0  0  0  0  0
  1  2  1  0
  2  3  1  0
  3  4  1  0
  4  5  1  0
  5  6  1  0
  5  7  1  0
  7  8  1  0
  8  9  1  0
  8  3  1  0
  1 10  1  0
  1 11  1  0
  1 12  1  0
  3 13  1  0
  4 14  1  0
  4 15  1  0
  5 16  1  0
  6 17  1  0
  6 18  1  0
  6 19  1  0
  7 20  1  0
  7 21  1  0
  8 22  1  0
  9 23  1  0
M  END
