
     RDKit          3D

 19 19  0  0  0  0  0  0  0  0999 V2000
   -2.1912   -1.1644   -0.2150 C   0  0  0  0  0  0  0  0  0  0  0  0
   -1.1278   -0.4902   -0.7809 O   0  0  0  0  0  0  0  0  0  0  0  0
   -0.5544    0.4533    0.0149 C   0  0  0  0  0  0  0  0  0  0  0  0
   -0.0820    1.7159   -0.6547 C   0  0  0  0  0  0  0  0  0  0  0  0
    1.1468    1.1509   -0.9664 O   0  0  0  0  0  0  0  0  0  0  0  0
    0.9513    0.2676    0.0963 C   0  0  0  0  0  0  0  0  0  0  0  0
    1.3863   -1.1274   -0.3341 C   0  0  0  0  0  0  0  0  0  0  0  0
    1.5738    0.7162    1.3552 C   0  0  0  0  0  0  0  0  0  0  0  0
    2.1812    1.7671    1.3792 O   0  0  0  0  0  0  0  0  0  0  0  0
   -1.9427   -1.7144    0.7052 H   0  0  0  0  0  0  0  0  0  0  0  0
   -2.5053   -1.9489   -0.9623 H   0  0  0  0  0  0  0  0  0  0  0  0
   -3.0800   -0.4922   -0.0914 H   0  0  0  0  0  0  0  0  0  0  0  0
   -0.9651    0.6102    1.0256 H   0  0  0  0  0  0  0  0  0  0  0  0
    0.0540    2.5167    0.0878 H   0  0  0  0  0  0  0  0  0  0  0  0
   -0.6077    2.0372   -1.5489 H   0  0  0  0  0  0  0  0  0  0  0  0
    1.2405   -1.8092    0.5190 H   0  0  0  0  0  0  0  0  0  0  0  0
    0.6446   -1.4373   -1.1137 H   0  0  0  0  0  0  0  0  0  0  0  0
    2.4123   -1.1322   -0.7444 H   0  0  0  0  0  0  0  0  0  0  0  0
    1.4651    0.0811    2.2288 H   0  0  0  0  0  0  0  0  0  0  0  0
  1  2  1  0
  2  3  1  0
  3  4  1  0
  4  5  1  0
  5  6  1  0
  6  7  1  0
  6  8  1  0
  8  9  2  0
  6  3  1  0
  1 10  1  0
  1 11  1  0
  1 12  1  0
  3 13  1  0
  4 14  1  0
  4 15  1  0
  7 16  1  0
  7 17  1  0
  7 18  1  0
  8 19  1  0
M  END
