
     RDKit          3D

 21 21  0  0  0  0  0  0  0  0999 V2000
    2.3947    0.4191   -0.0691 C   0  0  0  0  0  0  0  0  0  0  0  0
    1.3287   -0.1749   -0.7191 O   0  0  0  0  0  0  0  0  0  0  0  0
    0.1997   -0.3127    0.0469 C   0  0  0  0  0  0  0  0  0  0  0  0
    0.3073   -1.1296    1.2896 C   0  0  0  0  0  0  0  0  0  0  0  0
   -0.6476    0.9256    0.2069 C   0  0  0  0  0  0  0  0  0  0  0  0
   -0.0031    2.1307    0.0350 O   0  0  0  0  0  0  0  0  0  0  0  0
   -1.3564    0.5358   -1.0833 C   0  0  0  0  0  0  0  0  0  0  0  0
   -0.9256   -0.8833   -0.8178 C   0  0  0  0  0  0  0  0  0  0  0  0
   -1.8603   -1.6135   -0.0831 O   0  0  0  0  0  0  0  0  0  0  0  0
    2.2100    1.4252    0.2968 H   0  0  0  0  0  0  0  0  0  0  0  0
    2.6105   -0.2172    0.8357 H   0  0  0  0  0  0  0  0  0  0  0  0
    3.2948    0.3214   -0.7076 H   0  0  0  0  0  0  0  0  0  0  0  0
    1.2729   -1.6509    1.4071 H   0  0  0  0  0  0  0  0  0  0  0  0
   -0.4810   -1.9027    1.3959 H   0  0  0  0  0  0  0  0  0  0  0  0
    0.1798   -0.4598    2.1888 H   0  0  0  0  0  0  0  0  0  0  0  0
   -1.2855    0.8618    1.1098 H   0  0  0  0  0  0  0  0  0  0  0  0
   -0.5689    2.7014   -0.5299 H   0  0  0  0  0  0  0  0  0  0  0  0
   -2.4564    0.6331   -0.9838 H   0  0  0  0  0  0  0  0  0  0  0  0
   -0.9000    0.9975   -1.9630 H   0  0  0  0  0  0  0  0  0  0  0  0
   -0.5698   -1.4323   -1.6876 H   0  0  0  0  0  0  0  0  0  0  0  0
   -2.7436   -1.1747   -0.1682 H   0  0  0  0  0  0  0  0  0  0  0  0
  1  2  1  0
  2  3  1  0
  3  4  1  0
  3  5  1  0
  5  6  1  0
  5  7  1  0
  7  8  1  0
  8  9  1  0
  8  3  1  0
  1 10  1  0
  1 11  1  0
  1 12  1  0
  4 13  1  0
  4 14  1  0
  4 15  1  0
  5 16  1  0
  6 17  1  0
  7 18  1  0
  7 19  1  0
  8 20  1  0
  9 21  1  0
M  END
