
     RDKit          3D

 21 22  0  0  0  0  0  0  0  0999 V2000
   -2.5639    1.1353   -0.5677 C   0  0  0  0  0  0  0  0  0  0  0  0
   -1.7505    0.4336    0.3257 O   0  0  0  0  0  0  0  0  0  0  0  0
   -0.5782    0.0385   -0.2765 C   0  0  0  0  0  0  0  0  0  0  0  0
   -0.0295   -1.2836    0.1147 C   0  0  0  0  0  0  0  0  0  0  0  0
   -0.6277   -2.0589    1.2698 C   0  0  0  0  0  0  0  0  0  0  0  0
    0.6552    0.0386    0.5116 C   0  0  0  0  0  0  0  0  0  0  0  0
    2.0203    0.2060   -0.1079 C   0  0  0  0  0  0  0  0  0  0  0  0
    2.4185    1.3559   -0.8553 C   0  0  0  0  0  0  0  0  0  0  0  0
    2.7872    1.3096    0.5183 O   0  0  0  0  0  0  0  0  0  0  0  0
   -2.8277    0.4977   -1.4519 H   0  0  0  0  0  0  0  0  0  0  0  0
   -3.4978    1.4649   -0.1111 H   0  0  0  0  0  0  0  0  0  0  0  0
   -2.0181    1.9989   -0.9511 H   0  0  0  0  0  0  0  0  0  0  0  0
   -0.4775    0.3362   -1.3452 H   0  0  0  0  0  0  0  0  0  0  0  0
    0.4354   -1.8925   -0.6699 H   0  0  0  0  0  0  0  0  0  0  0  0
   -1.4897   -1.5082    1.7324 H   0  0  0  0  0  0  0  0  0  0  0  0
   -0.9340   -3.0498    0.9278 H   0  0  0  0  0  0  0  0  0  0  0  0
    0.1810   -2.1602    2.0465 H   0  0  0  0  0  0  0  0  0  0  0  0
    0.5810    0.3365    1.5866 H   0  0  0  0  0  0  0  0  0  0  0  0
    2.6461   -0.7015   -0.1212 H   0  0  0  0  0  0  0  0  0  0  0  0
    1.7619    2.2102   -1.0668 H   0  0  0  0  0  0  0  0  0  0  0  0
    3.3080    1.2929   -1.5087 H   0  0  0  0  0  0  0  0  0  0  0  0
  1  2  1  0
  2  3  1  0
  3  4  1  0
  4  5  1  0
  4  6  1  0
  6  7  1  0
  7  8  1  0
  8  9  1  0
  6  3  1  0
  9  7  1  0
  1 10  1  0
  1 11  1  0
  1 12  1  0
  3 13  1  0
  4 14  1  0
  5 15  1  0
  5 16  1  0
  5 17  1  0
  6 18  1  0
  7 19  1  0
  8 20  1  0
  8 21  1  0
M  END
