
     RDKit          3D

 22 22  0  0  0  0  0  0  0  0999 V2000
    2.0859   -0.6795    1.0108 C   0  0  0  0  0  0  0  0  0  0  0  0
    1.6417    0.3252    0.2775 O   0  0  0  0  0  0  0  0  0  0  0  0
    0.4355    0.4091   -0.2547 C   0  0  0  0  0  0  0  0  0  0  0  0
    0.3614    1.7413   -1.0281 C   0  0  0  0  0  0  0  0  0  0  0  0
   -0.0827   -0.6446   -1.1396 C   0  0  0  0  0  0  0  0  0  0  0  0
   -1.2101   -1.3223   -0.3863 C   0  0  0  0  0  0  0  0  0  0  0  0
   -1.8648   -0.0902    0.2525 C   0  0  0  0  0  0  0  0  0  0  0  0
   -0.6081    0.5668    0.8400 C   0  0  0  0  0  0  0  0  0  0  0  0
    2.1194   -1.6905    0.5813 H   0  0  0  0  0  0  0  0  0  0  0  0
    1.5733   -0.7397    1.9913 H   0  0  0  0  0  0  0  0  0  0  0  0
    3.1646   -0.4659    1.2897 H   0  0  0  0  0  0  0  0  0  0  0  0
    0.7885    1.6303   -2.0357 H   0  0  0  0  0  0  0  0  0  0  0  0
   -0.7211    2.0501   -1.1151 H   0  0  0  0  0  0  0  0  0  0  0  0
    0.8361    2.5202   -0.4122 H   0  0  0  0  0  0  0  0  0  0  0  0
    0.6149   -1.4263   -1.4553 H   0  0  0  0  0  0  0  0  0  0  0  0
   -0.5391   -0.2319   -2.0641 H   0  0  0  0  0  0  0  0  0  0  0  0
   -0.7767   -1.9255    0.4305 H   0  0  0  0  0  0  0  0  0  0  0  0
   -1.9006   -1.8664   -1.0309 H   0  0  0  0  0  0  0  0  0  0  0  0
   -2.5947   -0.3494    1.0119 H   0  0  0  0  0  0  0  0  0  0  0  0
   -2.2272    0.6108   -0.5227 H   0  0  0  0  0  0  0  0  0  0  0  0
   -0.7881    1.6227    1.0979 H   0  0  0  0  0  0  0  0  0  0  0  0
   -0.3081   -0.0443    1.7144 H   0  0  0  0  0  0  0  0  0  0  0  0
  1  2  1  0
  2  3  1  0
  3  4  1  0
  3  5  1  0
  5  6  1  0
  6  7  1  0
  7  8  1  0
  8  3  1  0
  1  9  1  0
  1 10  1  0
  1 11  1  0
  4 12  1  0
  4 13  1  0
  4 14  1  0
  5 15  1  0
  5 16  1  0
  6 17  1  0
  6 18  1  0
  7 19  1  0
  7 20  1  0
  8 21  1  0
  8 22  1  0
M  END
