
     RDKit          3D

 16 16  0  0  0  0  0  0  0  0999 V2000
    2.3221    0.9031   -0.0972 C   0  0  0  0  0  0  0  0  0  0  0  0
    1.1726    0.4735    0.5490 O   0  0  0  0  0  0  0  0  0  0  0  0
    0.2077   -0.0173   -0.3127 C   0  0  0  0  0  0  0  0  0  0  0  0
   -1.0800    0.7188   -0.0173 C   0  0  0  0  0  0  0  0  0  0  0  0
   -2.1053   -0.2604   -0.4392 C   0  0  0  0  0  0  0  0  0  0  0  0
   -1.6033   -1.4724   -0.3846 C   0  0  0  0  0  0  0  0  0  0  0  0
   -0.2063   -1.4146    0.0749 C   0  0  0  0  0  0  0  0  0  0  0  0
    0.4253   -2.3159    0.6346 O   0  0  0  0  0  0  0  0  0  0  0  0
    2.0877    1.7233   -0.8186 H   0  0  0  0  0  0  0  0  0  0  0  0
    2.9881    1.3205    0.6973 H   0  0  0  0  0  0  0  0  0  0  0  0
    2.8234    0.1020   -0.6694 H   0  0  0  0  0  0  0  0  0  0  0  0
    0.4946    0.0068   -1.3704 H   0  0  0  0  0  0  0  0  0  0  0  0
   -1.1395    1.6654   -0.5902 H   0  0  0  0  0  0  0  0  0  0  0  0
   -1.1046    0.8873    1.0831 H   0  0  0  0  0  0  0  0  0  0  0  0
   -3.1165    0.0449   -0.7412 H   0  0  0  0  0  0  0  0  0  0  0  0
   -2.1659   -2.3649   -0.6470 H   0  0  0  0  0  0  0  0  0  0  0  0
  1  2  1  0
  2  3  1  0
  3  4  1  0
  4  5  1  0
  5  6  2  0
  6  7  1  0
  7  8  2  0
  7  3  1  0
  1  9  1  0
  1 10  1  0
  1 11  1  0
  3 12  1  0
  4 13  1  0
  4 14  1  0
  5 15  1  0
  6 16  1  0
M  END
