
     RDKit          3D

 17 18  0  0  0  0  0  0  0  0999 V2000
    2.3497    0.0993    0.6552 C   0  0  0  0  0  0  0  0  0  0  0  0
    1.0053   -0.2729    0.8944 O   0  0  0  0  0  0  0  0  0  0  0  0
    0.3643   -0.2322   -0.3152 C   0  0  0  0  0  0  0  0  0  0  0  0
   -0.5831   -1.3297   -0.6451 C   0  0  0  0  0  0  0  0  0  0  0  0
   -1.4762   -0.8235    0.4438 C   0  0  0  0  0  0  0  0  0  0  0  0
   -1.0060    0.3595   -0.3531 C   0  0  0  0  0  0  0  0  0  0  0  0
   -1.3649    1.6561   -0.1832 C   0  0  0  0  0  0  0  0  0  0  0  0
   -1.9569    2.3353   -1.0409 O   0  0  0  0  0  0  0  0  0  0  0  0
   -1.2320   -0.4113   -1.4841 O   0  0  0  0  0  0  0  0  0  0  0  0
    2.9455    0.0947    1.5779 H   0  0  0  0  0  0  0  0  0  0  0  0
    2.3818    1.1024    0.1578 H   0  0  0  0  0  0  0  0  0  0  0  0
    2.8147   -0.6041   -0.0578 H   0  0  0  0  0  0  0  0  0  0  0  0
    0.9660    0.0621   -1.1969 H   0  0  0  0  0  0  0  0  0  0  0  0
   -0.3799   -2.2889   -0.8766 H   0  0  0  0  0  0  0  0  0  0  0  0
   -2.5305   -1.0615    0.2218 H   0  0  0  0  0  0  0  0  0  0  0  0
   -1.1338   -0.9104    1.4706 H   0  0  0  0  0  0  0  0  0  0  0  0
   -1.1639    2.2250    0.7316 H   0  0  0  0  0  0  0  0  0  0  0  0
  1  2  1  0
  2  3  1  0
  3  4  1  0
  4  5  1  0
  5  6  1  0
  6  7  1  0
  7  8  2  0
  6  9  1  0
  6  3  1  0
  9  4  1  0
  1 10  1  0
  1 11  1  0
  1 12  1  0
  3 13  1  0
  4 14  1  0
  5 15  1  0
  5 16  1  0
  7 17  1  0
M  END
