
     RDKit          3D

 15 15  0  0  0  0  0  0  0  0999 V2000
    2.1127    0.6082   -0.5274 C   0  0  0  0  0  0  0  0  0  0  0  0
    0.9380   -0.0354   -0.9197 O   0  0  0  0  0  0  0  0  0  0  0  0
    0.0298    0.1042    0.0917 C   0  0  0  0  0  0  0  0  0  0  0  0
   -1.3803    0.4875   -0.3174 C   0  0  0  0  0  0  0  0  0  0  0  0
   -1.8557   -0.4860    0.6927 C   0  0  0  0  0  0  0  0  0  0  0  0
   -2.8224   -0.6050    1.4011 O   0  0  0  0  0  0  0  0  0  0  0  0
   -0.6118   -1.2469    0.4424 C   0  0  0  0  0  0  0  0  0  0  0  0
    2.9080    0.5593   -1.2616 H   0  0  0  0  0  0  0  0  0  0  0  0
    2.5170    0.1807    0.4304 H   0  0  0  0  0  0  0  0  0  0  0  0
    1.9131    1.6787   -0.3065 H   0  0  0  0  0  0  0  0  0  0  0  0
    0.3289    0.6556    0.9912 H   0  0  0  0  0  0  0  0  0  0  0  0
   -1.5433    0.1650   -1.3836 H   0  0  0  0  0  0  0  0  0  0  0  0
   -1.6465    1.5424   -0.1384 H   0  0  0  0  0  0  0  0  0  0  0  0
   -0.7287   -1.8516   -0.4879 H   0  0  0  0  0  0  0  0  0  0  0  0
   -0.1589   -1.7567    1.2930 H   0  0  0  0  0  0  0  0  0  0  0  0
  1  2  1  0
  2  3  1  0
  3  4  1  0
  4  5  1  0
  5  6  2  0
  5  7  1  0
  7  3  1  0
  1  8  1  0
  1  9  1  0
  1 10  1  0
  3 11  1  0
  4 12  1  0
  4 13  1  0
  7 14  1  0
  7 15  1  0
M  END
