
     RDKit          3D

 21 22  0  0  0  0  0  0  0  0999 V2000
    2.3709    0.1767    0.6952 C   0  0  0  0  0  0  0  0  0  0  0  0
    1.5020   -0.8430    0.4497 O   0  0  0  0  0  0  0  0  0  0  0  0
    0.3389   -0.5193   -0.1648 C   0  0  0  0  0  0  0  0  0  0  0  0
   -0.5244   -1.7126   -0.3785 C   0  0  0  0  0  0  0  0  0  0  0  0
   -1.7388   -1.5052    0.1151 C   0  0  0  0  0  0  0  0  0  0  0  0
   -1.8477   -0.1706    0.7137 C   0  0  0  0  0  0  0  0  0  0  0  0
   -0.5133    0.4843    0.5697 C   0  0  0  0  0  0  0  0  0  0  0  0
   -0.3844    1.4421   -0.5907 C   0  0  0  0  0  0  0  0  0  0  0  0
    0.3784    0.3750   -1.3567 C   0  0  0  0  0  0  0  0  0  0  0  0
    2.7243    0.7236   -0.2001 H   0  0  0  0  0  0  0  0  0  0  0  0
    3.3001   -0.2797    1.1477 H   0  0  0  0  0  0  0  0  0  0  0  0
    1.9703    0.8414    1.4852 H   0  0  0  0  0  0  0  0  0  0  0  0
   -0.1681   -2.6035   -0.8730 H   0  0  0  0  0  0  0  0  0  0  0  0
   -2.5441   -2.2279    0.0801 H   0  0  0  0  0  0  0  0  0  0  0  0
   -2.6659    0.4345    0.2477 H   0  0  0  0  0  0  0  0  0  0  0  0
   -2.1059   -0.2370    1.8085 H   0  0  0  0  0  0  0  0  0  0  0  0
   -0.0688    0.8416    1.5162 H   0  0  0  0  0  0  0  0  0  0  0  0
   -1.3413    1.7526   -1.0502 H   0  0  0  0  0  0  0  0  0  0  0  0
    0.2248    2.3260   -0.2948 H   0  0  0  0  0  0  0  0  0  0  0  0
    1.3622    0.7039   -1.7185 H   0  0  0  0  0  0  0  0  0  0  0  0
   -0.2693   -0.0028   -2.2013 H   0  0  0  0  0  0  0  0  0  0  0  0
  1  2  1  0
  2  3  1  0
  3  4  1  0
  4  5  2  0
  5  6  1  0
  6  7  1  0
  7  8  1  0
  8  9  1  0
  7  3  1  0
  9  3  1  0
  1 10  1  0
  1 11  1  0
  1 12  1  0
  4 13  1  0
  5 14  1  0
  6 15  1  0
  6 16  1  0
  7 17  1  0
  8 18  1  0
  8 19  1  0
  9 20  1  0
  9 21  1  0
M  END
