
     RDKit          3D

 21 22  0  0  0  0  0  0  0  0999 V2000
    2.7703   -0.3565    0.3870 C   0  0  0  0  0  0  0  0  0  0  0  0
    1.4693   -0.7426    0.6051 O   0  0  0  0  0  0  0  0  0  0  0  0
    0.6411   -0.2547   -0.3978 C   0  0  0  0  0  0  0  0  0  0  0  0
    0.0076   -1.3290   -0.9818 O   0  0  0  0  0  0  0  0  0  0  0  0
   -1.2971   -1.3585   -0.6013 C   0  0  0  0  0  0  0  0  0  0  0  0
   -1.7699   -1.3686    0.7856 C   0  0  0  0  0  0  0  0  0  0  0  0
   -1.6904   -0.0741    0.0094 C   0  0  0  0  0  0  0  0  0  0  0  0
   -0.3900    0.6594    0.1754 C   0  0  0  0  0  0  0  0  0  0  0  0
   -0.4001    2.0288   -0.4150 C   0  0  0  0  0  0  0  0  0  0  0  0
    2.8167    0.7543    0.3800 H   0  0  0  0  0  0  0  0  0  0  0  0
    3.4099   -0.8076    1.1669 H   0  0  0  0  0  0  0  0  0  0  0  0
    3.1582   -0.7368   -0.5994 H   0  0  0  0  0  0  0  0  0  0  0  0
    1.2544    0.3243   -1.1182 H   0  0  0  0  0  0  0  0  0  0  0  0
   -1.9735   -1.8827   -1.3384 H   0  0  0  0  0  0  0  0  0  0  0  0
   -2.7706   -1.7395    1.0163 H   0  0  0  0  0  0  0  0  0  0  0  0
   -1.0410   -1.5152    1.6185 H   0  0  0  0  0  0  0  0  0  0  0  0
   -2.5844    0.4163   -0.3612 H   0  0  0  0  0  0  0  0  0  0  0  0
   -0.2226    0.7654    1.2802 H   0  0  0  0  0  0  0  0  0  0  0  0
   -1.2081    2.0721   -1.2002 H   0  0  0  0  0  0  0  0  0  0  0  0
   -0.7458    2.7653    0.3681 H   0  0  0  0  0  0  0  0  0  0  0  0
    0.5659    2.3799   -0.7791 H   0  0  0  0  0  0  0  0  0  0  0  0
  1  2  1  0
  2  3  1  0
  3  4  1  0
  4  5  1  0
  5  6  1  0
  6  7  1  0
  7  8  1  0
  8  9  1  0
  8  3  1  0
  7  5  1  0
  1 10  1  0
  1 11  1  0
  1 12  1  0
  3 13  1  0
  5 14  1  0
  6 15  1  0
  6 16  1  0
  7 17  1  0
  8 18  1  0
  9 19  1  0
  9 20  1  0
  9 21  1  0
M  END
