
     RDKit          3D

 19 19  0  0  0  0  0  0  0  0999 V2000
    2.7783   -0.2211    0.3066 C   0  0  0  0  0  0  0  0  0  0  0  0
    1.5547    0.3472    0.6493 O   0  0  0  0  0  0  0  0  0  0  0  0
    0.6137   -0.0480   -0.2677 C   0  0  0  0  0  0  0  0  0  0  0  0
   -0.0358    1.1639   -0.8919 C   0  0  0  0  0  0  0  0  0  0  0  0
   -1.2199    1.3915   -0.3477 C   0  0  0  0  0  0  0  0  0  0  0  0
   -1.5067    0.3764    0.6930 C   0  0  0  0  0  0  0  0  0  0  0  0
   -2.8430   -0.0196    0.6658 O   0  0  0  0  0  0  0  0  0  0  0  0
   -0.5745   -0.7538    0.3545 C   0  0  0  0  0  0  0  0  0  0  0  0
   -1.1621   -1.5375   -0.6406 O   0  0  0  0  0  0  0  0  0  0  0  0
    2.6542   -1.3422    0.3216 H   0  0  0  0  0  0  0  0  0  0  0  0
    3.6160    0.1192    0.9162 H   0  0  0  0  0  0  0  0  0  0  0  0
    3.0270    0.0454   -0.7620 H   0  0  0  0  0  0  0  0  0  0  0  0
    1.0667   -0.6977   -1.0177 H   0  0  0  0  0  0  0  0  0  0  0  0
    0.4128    1.7743   -1.6892 H   0  0  0  0  0  0  0  0  0  0  0  0
   -1.8576    2.2373   -0.6690 H   0  0  0  0  0  0  0  0  0  0  0  0
   -1.2948    0.7791    1.7263 H   0  0  0  0  0  0  0  0  0  0  0  0
   -3.0669   -0.1862   -0.2862 H   0  0  0  0  0  0  0  0  0  0  0  0
   -0.2513   -1.3427    1.2272 H   0  0  0  0  0  0  0  0  0  0  0  0
   -1.9108   -2.0855   -0.2885 H   0  0  0  0  0  0  0  0  0  0  0  0
  1  2  1  0
  2  3  1  0
  3  4  1  0
  4  5  2  0
  5  6  1  0
  6  7  1  0
  6  8  1  0
  8  9  1  0
  8  3  1  0
  1 10  1  0
  1 11  1  0
  1 12  1  0
  3 13  1  0
  4 14  1  0
  5 15  1  0
  6 16  1  0
  7 17  1  0
  8 18  1  0
  9 19  1  0
M  END
