
     RDKit          3D

 19 20  0  0  0  0  0  0  0  0999 V2000
    2.6231    0.6005   -0.4668 C   0  0  0  0  0  0  0  0  0  0  0  0
    1.3868    0.3133   -1.0657 O   0  0  0  0  0  0  0  0  0  0  0  0
    0.4450    0.0537   -0.1153 C   0  0  0  0  0  0  0  0  0  0  0  0
   -0.4163   -1.1759   -0.3299 C   0  0  0  0  0  0  0  0  0  0  0  0
   -0.0775   -2.2745    0.4286 O   0  0  0  0  0  0  0  0  0  0  0  0
   -1.6645   -0.4531    0.0318 C   0  0  0  0  0  0  0  0  0  0  0  0
   -1.7157    0.6592    0.9961 C   0  0  0  0  0  0  0  0  0  0  0  0
   -0.8337    0.8473   -0.1740 C   0  0  0  0  0  0  0  0  0  0  0  0
   -1.1914    1.5472   -1.2889 O   0  0  0  0  0  0  0  0  0  0  0  0
    2.9652   -0.2719    0.1472 H   0  0  0  0  0  0  0  0  0  0  0  0
    3.3708    0.8562   -1.2547 H   0  0  0  0  0  0  0  0  0  0  0  0
    2.5341    1.4634    0.2476 H   0  0  0  0  0  0  0  0  0  0  0  0
    0.8628    0.1264    0.9259 H   0  0  0  0  0  0  0  0  0  0  0  0
   -0.4091   -1.4149   -1.4278 H   0  0  0  0  0  0  0  0  0  0  0  0
    0.0181   -3.0788   -0.1468 H   0  0  0  0  0  0  0  0  0  0  0  0
   -2.5320   -0.6033   -0.6078 H   0  0  0  0  0  0  0  0  0  0  0  0
   -1.1784    0.6011    1.9813 H   0  0  0  0  0  0  0  0  0  0  0  0
   -2.6202    1.2622    1.0338 H   0  0  0  0  0  0  0  0  0  0  0  0
   -1.5671    0.9418   -2.0001 H   0  0  0  0  0  0  0  0  0  0  0  0
  1  2  1  0
  2  3  1  0
  3  4  1  0
  4  5  1  0
  4  6  1  0
  6  7  1  0
  7  8  1  0
  8  9  1  0
  8  3  1  0
  8  6  1  0
  1 10  1  0
  1 11  1  0
  1 12  1  0
  3 13  1  0
  4 14  1  0
  5 15  1  0
  6 16  1  0
  7 17  1  0
  7 18  1  0
  9 19  1  0
M  END
