
     RDKit          3D

 21 22  0  0  0  0  0  0  0  0999 V2000
    2.6006   -1.1027   -0.3779 C   0  0  0  0  0  0  0  0  0  0  0  0
    1.3227   -1.0807    0.1606 O   0  0  0  0  0  0  0  0  0  0  0  0
    0.6299    0.0276   -0.2850 C   0  0  0  0  0  0  0  0  0  0  0  0
    0.0358    0.7522    0.9456 C   0  0  0  0  0  0  0  0  0  0  0  0
   -0.8596    1.2996   -0.1212 C   0  0  0  0  0  0  0  0  0  0  0  0
   -0.0478    2.1330   -0.9458 O   0  0  0  0  0  0  0  0  0  0  0  0
   -1.8638    0.6738   -0.9057 C   0  0  0  0  0  0  0  0  0  0  0  0
   -0.8274   -0.2325   -0.5275 C   0  0  0  0  0  0  0  0  0  0  0  0
   -1.3461   -1.2253    0.5184 C   0  0  0  0  0  0  0  0  0  0  0  0
    2.6196   -1.1393   -1.4690 H   0  0  0  0  0  0  0  0  0  0  0  0
    3.1065   -2.0071    0.0522 H   0  0  0  0  0  0  0  0  0  0  0  0
    3.1666   -0.2360    0.0416 H   0  0  0  0  0  0  0  0  0  0  0  0
    1.1796    0.6681   -0.9539 H   0  0  0  0  0  0  0  0  0  0  0  0
    0.7072    1.4977    1.3886 H   0  0  0  0  0  0  0  0  0  0  0  0
   -0.3669    0.0970    1.7023 H   0  0  0  0  0  0  0  0  0  0  0  0
   -0.5417    2.9469   -1.2001 H   0  0  0  0  0  0  0  0  0  0  0  0
   -2.9003    0.7086   -0.4490 H   0  0  0  0  0  0  0  0  0  0  0  0
   -1.9909    0.7853   -2.0260 H   0  0  0  0  0  0  0  0  0  0  0  0
   -2.1181   -0.7855    1.1802 H   0  0  0  0  0  0  0  0  0  0  0  0
   -1.9271   -1.9743   -0.1051 H   0  0  0  0  0  0  0  0  0  0  0  0
   -0.5787   -1.8060    1.0138 H   0  0  0  0  0  0  0  0  0  0  0  0
  1  2  1  0
  2  3  1  0
  3  4  1  0
  4  5  1  0
  5  6  1  0
  5  7  1  0
  7  8  1  0
  8  9  1  0
  8  3  1  0
  8  5  1  0
  1 10  1  0
  1 11  1  0
  1 12  1  0
  3 13  1  0
  4 14  1  0
  4 15  1  0
  6 16  1  0
  7 17  1  0
  7 18  1  0
  9 19  1  0
  9 20  1  0
  9 21  1  0
M  END
