
     RDKit          3D

 23 24  0  0  0  0  0  0  0  0999 V2000
    1.0597    1.8160   -1.2414 C   0  0  0  0  0  0  0  0  0  0  0  0
    0.7760    1.4966    0.0625 O   0  0  0  0  0  0  0  0  0  0  0  0
    0.0956    0.3258    0.2595 C   0  0  0  0  0  0  0  0  0  0  0  0
   -1.2560    0.2266   -0.3877 C   0  0  0  0  0  0  0  0  0  0  0  0
   -2.0785   -1.0007   -0.2360 C   0  0  0  0  0  0  0  0  0  0  0  0
   -2.5009    0.3388    0.4128 C   0  0  0  0  0  0  0  0  0  0  0  0
    0.2788   -0.2719    1.6483 C   0  0  0  0  0  0  0  0  0  0  0  0
    0.8006   -0.9655    0.4697 C   0  0  0  0  0  0  0  0  0  0  0  0
    2.3120   -1.0327    0.3329 C   0  0  0  0  0  0  0  0  0  0  0  0
    1.6168    2.7990   -1.2065 H   0  0  0  0  0  0  0  0  0  0  0  0
    1.7216    1.0933   -1.7540 H   0  0  0  0  0  0  0  0  0  0  0  0
    0.1951    1.9899   -1.8892 H   0  0  0  0  0  0  0  0  0  0  0  0
   -1.3037    0.7087   -1.3865 H   0  0  0  0  0  0  0  0  0  0  0  0
   -1.8014   -1.7946    0.4817 H   0  0  0  0  0  0  0  0  0  0  0  0
   -2.6712   -1.3448   -1.1058 H   0  0  0  0  0  0  0  0  0  0  0  0
   -3.4026    0.8230   -0.0548 H   0  0  0  0  0  0  0  0  0  0  0  0
   -2.5055    0.3811    1.5053 H   0  0  0  0  0  0  0  0  0  0  0  0
    0.9428    0.2608    2.3705 H   0  0  0  0  0  0  0  0  0  0  0  0
   -0.6006   -0.7285    2.1476 H   0  0  0  0  0  0  0  0  0  0  0  0
    0.3071   -1.9038    0.1222 H   0  0  0  0  0  0  0  0  0  0  0  0
    2.6628   -1.8806    0.9629 H   0  0  0  0  0  0  0  0  0  0  0  0
    2.8038   -0.1050    0.6378 H   0  0  0  0  0  0  0  0  0  0  0  0
    2.5475   -1.2311   -0.7526 H   0  0  0  0  0  0  0  0  0  0  0  0
  1  2  1  0
  2  3  1  0
  3  4  1  0
  4  5  1  0
  5  6  1  0
  3  7  1  0
  7  8  1  0
  8  9  1  0
  8  3  1  0
  6  4  1  0
  1 10  1  0
  1 11  1  0
  1 12  1  0
  4 13  1  0
  5 14  1  0
  5 15  1  0
  6 16  1  0
  6 17  1  0
  7 18  1  0
  7 19  1  0
  8 20  1  0
  9 21  1  0
  9 22  1  0
  9 23  1  0
M  END
