
     RDKit          3D

 18 18  0  0  0  0  0  0  0  0999 V2000
    1.6962   -0.1974    1.2893 C   0  0  0  0  0  0  0  0  0  0  0  0
    0.3940    0.2624    1.4332 O   0  0  0  0  0  0  0  0  0  0  0  0
   -0.2808    0.1022    0.2674 C   0  0  0  0  0  0  0  0  0  0  0  0
   -0.4532   -1.2614   -0.3117 C   0  0  0  0  0  0  0  0  0  0  0  0
   -1.1818   -1.2159   -1.5052 O   0  0  0  0  0  0  0  0  0  0  0  0
    0.1495    1.1636   -0.7462 C   0  0  0  0  0  0  0  0  0  0  0  0
   -1.1694    1.1106   -1.2258 O   0  0  0  0  0  0  0  0  0  0  0  0
   -1.5565    0.8995    0.1028 C   0  0  0  0  0  0  0  0  0  0  0  0
    2.2105    0.3729    0.4737 H   0  0  0  0  0  0  0  0  0  0  0  0
    1.7541   -1.2698    1.0611 H   0  0  0  0  0  0  0  0  0  0  0  0
    2.2910   -0.0452    2.2191 H   0  0  0  0  0  0  0  0  0  0  0  0
   -1.0319   -1.9113    0.3747 H   0  0  0  0  0  0  0  0  0  0  0  0
    0.5394   -1.7377   -0.4644 H   0  0  0  0  0  0  0  0  0  0  0  0
   -0.5904   -1.2930   -2.2914 H   0  0  0  0  0  0  0  0  0  0  0  0
    0.3093    2.1161   -0.2328 H   0  0  0  0  0  0  0  0  0  0  0  0
    0.9165    0.8016   -1.4287 H   0  0  0  0  0  0  0  0  0  0  0  0
   -1.5142    1.7933    0.7510 H   0  0  0  0  0  0  0  0  0  0  0  0
   -2.4823    0.3093    0.2338 H   0  0  0  0  0  0  0  0  0  0  0  0
  1  2  1  0
  2  3  1  0
  3  4  1  0
  4  5  1  0
  3  6  1  0
  6  7  1  0
  7  8  1  0
  8  3  1  0
  1  9  1  0
  1 10  1  0
  1 11  1  0
  4 12  1  0
  4 13  1  0
  5 14  1  0
  6 15  1  0
  6 16  1  0
  8 17  1  0
  8 18  1  0
M  END
