
     RDKit          3D

 21 21  0  0  0  0  0  0  0  0999 V2000
    2.6202    0.1948   -0.1269 C   0  0  0  0  0  0  0  0  0  0  0  0
    1.3732    0.3193   -0.7570 O   0  0  0  0  0  0  0  0  0  0  0  0
    0.4630   -0.4370   -0.0393 C   0  0  0  0  0  0  0  0  0  0  0  0
   -0.2652   -1.4464   -0.8950 C   0  0  0  0  0  0  0  0  0  0  0  0
   -1.5669   -0.9729   -1.0568 O   0  0  0  0  0  0  0  0  0  0  0  0
   -1.8577   -0.5655    0.2651 C   0  0  0  0  0  0  0  0  0  0  0  0
   -0.6875    0.3910    0.5020 C   0  0  0  0  0  0  0  0  0  0  0  0
   -0.8428    1.6247   -0.3452 C   0  0  0  0  0  0  0  0  0  0  0  0
   -0.5425    0.7376    1.8168 O   0  0  0  0  0  0  0  0  0  0  0  0
    3.3701    0.7992   -0.6921 H   0  0  0  0  0  0  0  0  0  0  0  0
    2.8997   -0.8813   -0.2064 H   0  0  0  0  0  0  0  0  0  0  0  0
    2.5790    0.5173    0.9356 H   0  0  0  0  0  0  0  0  0  0  0  0
    0.9325   -0.9414    0.8337 H   0  0  0  0  0  0  0  0  0  0  0  0
    0.2151   -1.5889   -1.8808 H   0  0  0  0  0  0  0  0  0  0  0  0
   -0.3024   -2.4245   -0.3487 H   0  0  0  0  0  0  0  0  0  0  0  0
   -2.8253   -0.0781    0.3529 H   0  0  0  0  0  0  0  0  0  0  0  0
   -1.7098   -1.4520    0.8952 H   0  0  0  0  0  0  0  0  0  0  0  0
   -0.7993    1.3549   -1.4202 H   0  0  0  0  0  0  0  0  0  0  0  0
   -0.0040    2.3032   -0.1097 H   0  0  0  0  0  0  0  0  0  0  0  0
   -1.7886    2.1473   -0.1404 H   0  0  0  0  0  0  0  0  0  0  0  0
   -1.2608    0.3987    2.4172 H   0  0  0  0  0  0  0  0  0  0  0  0
  1  2  1  0
  2  3  1  0
  3  4  1  0
  4  5  1  0
  5  6  1  0
  6  7  1  0
  7  8  1  0
  7  9  1  0
  7  3  1  0
  1 10  1  0
  1 11  1  0
  1 12  1  0
  3 13  1  0
  4 14  1  0
  4 15  1  0
  6 16  1  0
  6 17  1  0
  8 18  1  0
  8 19  1  0
  8 20  1  0
  9 21  1  0
M  END
