
     RDKit          3D

 23 23  0  0  0  0  0  0  0  0999 V2000
    1.7596    1.6503   -0.0627 C   0  0  0  0  0  0  0  0  0  0  0  0
    1.3131    0.6803   -0.9219 O   0  0  0  0  0  0  0  0  0  0  0  0
    0.6166   -0.2820   -0.1957 C   0  0  0  0  0  0  0  0  0  0  0  0
   -0.6000    0.2093    0.5059 C   0  0  0  0  0  0  0  0  0  0  0  0
   -1.3156   -0.8968    1.2910 C   0  0  0  0  0  0  0  0  0  0  0  0
   -1.5888    0.7532   -0.5142 C   0  0  0  0  0  0  0  0  0  0  0  0
   -1.0608    1.8063   -1.2514 O   0  0  0  0  0  0  0  0  0  0  0  0
    0.4520   -1.6382   -0.9034 C   0  0  0  0  0  0  0  0  0  0  0  0
    1.3893   -1.4504    0.2891 C   0  0  0  0  0  0  0  0  0  0  0  0
    0.9987    2.1870    0.4882 H   0  0  0  0  0  0  0  0  0  0  0  0
    2.3708    2.4312   -0.5994 H   0  0  0  0  0  0  0  0  0  0  0  0
    2.4807    1.1777    0.6440 H   0  0  0  0  0  0  0  0  0  0  0  0
   -0.4074    1.0008    1.2509 H   0  0  0  0  0  0  0  0  0  0  0  0
   -2.0438   -0.3482    1.9624 H   0  0  0  0  0  0  0  0  0  0  0  0
   -0.5818   -1.3561    1.9819 H   0  0  0  0  0  0  0  0  0  0  0  0
   -1.8334   -1.6096    0.6387 H   0  0  0  0  0  0  0  0  0  0  0  0
   -2.4985    1.1464   -0.0074 H   0  0  0  0  0  0  0  0  0  0  0  0
   -1.9206   -0.0112   -1.2253 H   0  0  0  0  0  0  0  0  0  0  0  0
   -1.6829    1.9587   -2.0065 H   0  0  0  0  0  0  0  0  0  0  0  0
   -0.4378   -2.2419   -0.6794 H   0  0  0  0  0  0  0  0  0  0  0  0
    0.9276   -1.7292   -1.9152 H   0  0  0  0  0  0  0  0  0  0  0  0
    1.1821   -1.9935    1.2096 H   0  0  0  0  0  0  0  0  0  0  0  0
    2.4806   -1.4442    0.0207 H   0  0  0  0  0  0  0  0  0  0  0  0
  1  2  1  0
  2  3  1  0
  3  4  1  0
  4  5  1  0
  4  6  1  0
  6  7  1  0
  3  8  1  0
  8  9  1  0
  9  3  1  0
  1 10  1  0
  1 11  1  0
  1 12  1  0
  4 13  1  0
  5 14  1  0
  5 15  1  0
  5 16  1  0
  6 17  1  0
  6 18  1  0
  7 19  1  0
  8 20  1  0
  8 21  1  0
  9 22  1  0
  9 23  1  0
M  END
