
     RDKit          3D

 21 21  0  0  0  0  0  0  0  0999 V2000
    2.4419    0.2235    0.1479 C   0  0  0  0  0  0  0  0  0  0  0  0
    1.2453   -0.0508   -0.4688 O   0  0  0  0  0  0  0  0  0  0  0  0
    0.1792   -0.1772    0.3781 C   0  0  0  0  0  0  0  0  0  0  0  0
   -0.4716   -1.5311    0.0926 C   0  0  0  0  0  0  0  0  0  0  0  0
   -1.2141   -1.8458    1.2515 O   0  0  0  0  0  0  0  0  0  0  0  0
   -1.4418   -1.1760   -0.9930 C   0  0  0  0  0  0  0  0  0  0  0  0
   -1.2021    0.1485   -1.3510 O   0  0  0  0  0  0  0  0  0  0  0  0
   -0.9258    0.7398   -0.1178 C   0  0  0  0  0  0  0  0  0  0  0  0
   -0.4292    2.1526   -0.2577 C   0  0  0  0  0  0  0  0  0  0  0  0
    3.2260    0.3030   -0.6350 H   0  0  0  0  0  0  0  0  0  0  0  0
    2.7288   -0.5833    0.8527 H   0  0  0  0  0  0  0  0  0  0  0  0
    2.3715    1.2011    0.6643 H   0  0  0  0  0  0  0  0  0  0  0  0
    0.4037   -0.0457    1.4419 H   0  0  0  0  0  0  0  0  0  0  0  0
    0.2469   -2.3042   -0.1600 H   0  0  0  0  0  0  0  0  0  0  0  0
   -0.6210   -2.0782    1.9976 H   0  0  0  0  0  0  0  0  0  0  0  0
   -2.4987   -1.2168   -0.6355 H   0  0  0  0  0  0  0  0  0  0  0  0
   -1.3651   -1.8637   -1.8641 H   0  0  0  0  0  0  0  0  0  0  0  0
   -1.8453    0.6505    0.4900 H   0  0  0  0  0  0  0  0  0  0  0  0
   -0.3542    2.5955    0.7383 H   0  0  0  0  0  0  0  0  0  0  0  0
    0.6018    2.0924   -0.6899 H   0  0  0  0  0  0  0  0  0  0  0  0
   -1.0762    2.7660   -0.8822 H   0  0  0  0  0  0  0  0  0  0  0  0
  1  2  1  0
  2  3  1  0
  3  4  1  0
  4  5  1  0
  4  6  1  0
  6  7  1  0
  7  8  1  0
  8  9  1  0
  8  3  1  0
  1 10  1  0
  1 11  1  0
  1 12  1  0
  3 13  1  0
  4 14  1  0
  5 15  1  0
  6 16  1  0
  6 17  1  0
  8 18  1  0
  9 19  1  0
  9 20  1  0
  9 21  1  0
M  END
