
     RDKit          3D

 23 24  0  0  0  0  0  0  0  0999 V2000
    3.0370   -0.2726    0.5017 C   0  0  0  0  0  0  0  0  0  0  0  0
    1.6980   -0.4090    0.9317 O   0  0  0  0  0  0  0  0  0  0  0  0
    0.8495    0.1273   -0.0319 C   0  0  0  0  0  0  0  0  0  0  0  0
   -0.4557    0.7097    0.3227 C   0  0  0  0  0  0  0  0  0  0  0  0
   -0.9347    1.9024   -0.4348 C   0  0  0  0  0  0  0  0  0  0  0  0
   -1.3341    0.1803    1.3963 C   0  0  0  0  0  0  0  0  0  0  0  0
   -1.0254   -1.2380    0.9640 C   0  0  0  0  0  0  0  0  0  0  0  0
   -0.3913   -0.6367   -0.2789 C   0  0  0  0  0  0  0  0  0  0  0  0
   -0.9041   -0.9656   -1.6254 C   0  0  0  0  0  0  0  0  0  0  0  0
    3.7330   -0.6889    1.2452 H   0  0  0  0  0  0  0  0  0  0  0  0
    3.1428   -0.7699   -0.4833 H   0  0  0  0  0  0  0  0  0  0  0  0
    3.2192    0.8083    0.3224 H   0  0  0  0  0  0  0  0  0  0  0  0
    1.3398    0.5473   -0.9236 H   0  0  0  0  0  0  0  0  0  0  0  0
   -1.4107    2.6015    0.3093 H   0  0  0  0  0  0  0  0  0  0  0  0
   -0.0788    2.4586   -0.8626 H   0  0  0  0  0  0  0  0  0  0  0  0
   -1.6858    1.6615   -1.2215 H   0  0  0  0  0  0  0  0  0  0  0  0
   -2.4141    0.3897    1.1371 H   0  0  0  0  0  0  0  0  0  0  0  0
   -1.0881    0.4202    2.4363 H   0  0  0  0  0  0  0  0  0  0  0  0
   -0.2583   -1.7488    1.5734 H   0  0  0  0  0  0  0  0  0  0  0  0
   -1.8947   -1.8611    0.7139 H   0  0  0  0  0  0  0  0  0  0  0  0
   -1.5722   -1.8522   -1.5460 H   0  0  0  0  0  0  0  0  0  0  0  0
   -1.5070   -0.1706   -2.1068 H   0  0  0  0  0  0  0  0  0  0  0  0
   -0.0644   -1.1935   -2.3391 H   0  0  0  0  0  0  0  0  0  0  0  0
  1  2  1  0
  2  3  1  0
  3  4  1  0
  4  5  1  0
  4  6  1  0
  6  7  1  0
  7  8  1  0
  8  9  1  0
  8  3  1  0
  8  4  1  0
  1 10  1  0
  1 11  1  0
  1 12  1  0
  3 13  1  0
  5 14  1  0
  5 15  1  0
  5 16  1  0
  6 17  1  0
  6 18  1  0
  7 19  1  0
  7 20  1  0
  9 21  1  0
  9 22  1  0
  9 23  1  0
M  END
