
     RDKit          3D

 21 22  0  0  0  0  0  0  0  0999 V2000
    3.2927    0.0257   -0.0427 C   0  0  0  0  0  0  0  0  0  0  0  0
    2.2250   -0.6982    0.5081 O   0  0  0  0  0  0  0  0  0  0  0  0
    1.0513   -0.2950   -0.0731 C   0  0  0  0  0  0  0  0  0  0  0  0
    0.0073    0.1364    0.9665 C   0  0  0  0  0  0  0  0  0  0  0  0
   -1.2522    0.0959    0.1296 C   0  0  0  0  0  0  0  0  0  0  0  0
   -2.0976    1.2991    0.0346 C   0  0  0  0  0  0  0  0  0  0  0  0
   -1.9618   -1.2328   -0.0393 C   0  0  0  0  0  0  0  0  0  0  0  0
   -0.8886   -0.7798   -0.9876 C   0  0  0  0  0  0  0  0  0  0  0  0
    0.3685   -1.3343   -0.7040 O   0  0  0  0  0  0  0  0  0  0  0  0
    4.2097   -0.3531    0.4745 H   0  0  0  0  0  0  0  0  0  0  0  0
    3.2996   -0.2454   -1.1323 H   0  0  0  0  0  0  0  0  0  0  0  0
    3.1556    1.1174    0.1069 H   0  0  0  0  0  0  0  0  0  0  0  0
    1.2324    0.4797   -0.8117 H   0  0  0  0  0  0  0  0  0  0  0  0
    0.1893    1.1794    1.2578 H   0  0  0  0  0  0  0  0  0  0  0  0
    0.0022   -0.5813    1.7925 H   0  0  0  0  0  0  0  0  0  0  0  0
   -1.9580    1.9327   -0.8392 H   0  0  0  0  0  0  0  0  0  0  0  0
   -1.8913    1.9420    0.9399 H   0  0  0  0  0  0  0  0  0  0  0  0
   -3.1953    1.0515    0.1277 H   0  0  0  0  0  0  0  0  0  0  0  0
   -2.9744   -1.2060   -0.4353 H   0  0  0  0  0  0  0  0  0  0  0  0
   -1.7142   -1.9570    0.7654 H   0  0  0  0  0  0  0  0  0  0  0  0
   -1.1000   -0.5769   -2.0383 H   0  0  0  0  0  0  0  0  0  0  0  0
  1  2  1  0
  2  3  1  0
  3  4  1  0
  4  5  1  0
  5  6  1  0
  5  7  1  0
  7  8  1  0
  8  9  1  0
  9  3  1  0
  8  5  1  0
  1 10  1  0
  1 11  1  0
  1 12  1  0
  3 13  1  0
  4 14  1  0
  4 15  1  0
  6 16  1  0
  6 17  1  0
  6 18  1  0
  7 19  1  0
  7 20  1  0
  8 21  1  0
M  END
