
     RDKit          3D

 21 22  0  0  0  0  0  0  0  0999 V2000
    2.5781    0.1181   -0.1359 C   0  0  0  0  0  0  0  0  0  0  0  0
    1.3160   -0.0336   -0.6423 O   0  0  0  0  0  0  0  0  0  0  0  0
    0.3206   -0.1283    0.2925 C   0  0  0  0  0  0  0  0  0  0  0  0
    0.1151    0.9996    1.2343 C   0  0  0  0  0  0  0  0  0  0  0  0
   -1.2300    1.5012    0.9429 C   0  0  0  0  0  0  0  0  0  0  0  0
   -1.8467    0.6962    0.0993 C   0  0  0  0  0  0  0  0  0  0  0  0
   -1.0501   -0.4583   -0.3168 C   0  0  0  0  0  0  0  0  0  0  0  0
   -1.0980   -0.8534   -1.7735 C   0  0  0  0  0  0  0  0  0  0  0  0
   -0.3891   -1.3866    0.5963 C   0  0  0  0  0  0  0  0  0  0  0  0
    2.9082   -0.7107    0.5164 H   0  0  0  0  0  0  0  0  0  0  0  0
    2.6786    1.1168    0.3427 H   0  0  0  0  0  0  0  0  0  0  0  0
    3.2847    0.1345   -1.0090 H   0  0  0  0  0  0  0  0  0  0  0  0
    0.2144    0.6190    2.2912 H   0  0  0  0  0  0  0  0  0  0  0  0
    0.8636    1.8278    1.0933 H   0  0  0  0  0  0  0  0  0  0  0  0
   -1.6651    2.4293    1.3740 H   0  0  0  0  0  0  0  0  0  0  0  0
   -2.8666    0.8858   -0.2523 H   0  0  0  0  0  0  0  0  0  0  0  0
   -0.0608   -1.0209   -2.1579 H   0  0  0  0  0  0  0  0  0  0  0  0
   -1.5516   -0.0892   -2.4100 H   0  0  0  0  0  0  0  0  0  0  0  0
   -1.6340   -1.8034   -1.9018 H   0  0  0  0  0  0  0  0  0  0  0  0
   -0.8242   -1.4847    1.6221 H   0  0  0  0  0  0  0  0  0  0  0  0
   -0.0633   -2.3592    0.1947 H   0  0  0  0  0  0  0  0  0  0  0  0
  1  2  1  0
  2  3  1  0
  3  4  1  0
  4  5  1  0
  5  6  2  0
  6  7  1  0
  7  8  1  0
  7  9  1  0
  7  3  1  0
  9  3  1  0
  1 10  1  0
  1 11  1  0
  1 12  1  0
  4 13  1  0
  4 14  1  0
  5 15  1  0
  6 16  1  0
  8 17  1  0
  8 18  1  0
  8 19  1  0
  9 20  1  0
  9 21  1  0
M  END
