
     RDKit          3D

 25 25  0  0  0  0  0  0  0  0999 V2000
    2.6349    0.8360    1.1320 C   0  0  0  0  0  0  0  0  0  0  0  0
    2.1592    1.0459   -0.1313 O   0  0  0  0  0  0  0  0  0  0  0  0
    0.9558    0.3390   -0.4158 C   0  0  0  0  0  0  0  0  0  0  0  0
   -0.1370    0.7065    0.4544 C   0  0  0  0  0  0  0  0  0  0  0  0
   -1.4982    0.1675    0.3720 C   0  0  0  0  0  0  0  0  0  0  0  0
   -1.7083   -1.2986    0.5526 C   0  0  0  0  0  0  0  0  0  0  0  0
   -2.3196    0.7200   -0.7806 C   0  0  0  0  0  0  0  0  0  0  0  0
    1.2865   -1.1492   -0.5900 C   0  0  0  0  0  0  0  0  0  0  0  0
    0.9010   -0.2521   -1.7479 C   0  0  0  0  0  0  0  0  0  0  0  0
    2.8427   -0.2550    1.3404 H   0  0  0  0  0  0  0  0  0  0  0  0
    1.9876    1.1967    1.9466 H   0  0  0  0  0  0  0  0  0  0  0  0
    3.6122    1.4024    1.2770 H   0  0  0  0  0  0  0  0  0  0  0  0
   -0.2445    1.8406    0.4877 H   0  0  0  0  0  0  0  0  0  0  0  0
    0.1962    0.5099    1.5327 H   0  0  0  0  0  0  0  0  0  0  0  0
   -2.0335    0.6344    1.2745 H   0  0  0  0  0  0  0  0  0  0  0  0
   -2.7974   -1.4124    0.8912 H   0  0  0  0  0  0  0  0  0  0  0  0
   -1.6931   -1.9061   -0.3702 H   0  0  0  0  0  0  0  0  0  0  0  0
   -1.0650   -1.6780    1.3609 H   0  0  0  0  0  0  0  0  0  0  0  0
   -2.1297    1.7938   -0.8352 H   0  0  0  0  0  0  0  0  0  0  0  0
   -3.4073    0.6009   -0.4926 H   0  0  0  0  0  0  0  0  0  0  0  0
   -2.2130    0.1635   -1.7103 H   0  0  0  0  0  0  0  0  0  0  0  0
    0.6189   -1.9192   -0.2350 H   0  0  0  0  0  0  0  0  0  0  0  0
    2.3515   -1.4755   -0.5891 H   0  0  0  0  0  0  0  0  0  0  0  0
    1.7133   -0.0197   -2.4662 H   0  0  0  0  0  0  0  0  0  0  0  0
   -0.0132   -0.5914   -2.2579 H   0  0  0  0  0  0  0  0  0  0  0  0
  1  2  1  0
  2  3  1  0
  3  4  1  0
  4  5  1  0
  5  6  1  0
  5  7  1  0
  3  8  1  0
  8  9  1  0
  9  3  1  0
  1 10  1  0
  1 11  1  0
  1 12  1  0
  4 13  1  0
  4 14  1  0
  5 15  1  0
  6 16  1  0
  6 17  1  0
  6 18  1  0
  7 19  1  0
  7 20  1  0
  7 21  1  0
  8 22  1  0
  8 23  1  0
  9 24  1  0
  9 25  1  0
M  END
