
     RDKit          3D

 21 21  0  0  0  0  0  0  0  0999 V2000
    2.8633   -0.4651    0.2562 C   0  0  0  0  0  0  0  0  0  0  0  0
    1.6621   -0.8284   -0.3261 O   0  0  0  0  0  0  0  0  0  0  0  0
    0.5698   -0.2398    0.2580 C   0  0  0  0  0  0  0  0  0  0  0  0
   -0.4583   -1.2478    0.7339 C   0  0  0  0  0  0  0  0  0  0  0  0
   -1.7785   -0.8299    0.1066 C   0  0  0  0  0  0  0  0  0  0  0  0
   -1.5404    0.6821   -0.0153 C   0  0  0  0  0  0  0  0  0  0  0  0
   -2.5120    1.3143   -0.7308 O   0  0  0  0  0  0  0  0  0  0  0  0
   -0.2002    0.6136   -0.7534 C   0  0  0  0  0  0  0  0  0  0  0  0
    0.3621    1.8396   -0.9511 O   0  0  0  0  0  0  0  0  0  0  0  0
    2.9080   -0.7425    1.3383 H   0  0  0  0  0  0  0  0  0  0  0  0
    3.6660   -1.0132   -0.3048 H   0  0  0  0  0  0  0  0  0  0  0  0
    3.0085    0.6432    0.1987 H   0  0  0  0  0  0  0  0  0  0  0  0
    0.8590    0.4346    1.1096 H   0  0  0  0  0  0  0  0  0  0  0  0
   -0.6199   -1.1606    1.8476 H   0  0  0  0  0  0  0  0  0  0  0  0
   -0.1893   -2.2761    0.4544 H   0  0  0  0  0  0  0  0  0  0  0  0
   -2.6449   -1.0704    0.7101 H   0  0  0  0  0  0  0  0  0  0  0  0
   -1.8235   -1.2013   -0.9421 H   0  0  0  0  0  0  0  0  0  0  0  0
   -1.3192    1.1087    0.9741 H   0  0  0  0  0  0  0  0  0  0  0  0
   -2.5452    2.2640   -0.4395 H   0  0  0  0  0  0  0  0  0  0  0  0
   -0.3873    0.0235   -1.6614 H   0  0  0  0  0  0  0  0  0  0  0  0
    0.1199    2.1515   -1.8630 H   0  0  0  0  0  0  0  0  0  0  0  0
  1  2  1  0
  2  3  1  0
  3  4  1  0
  4  5  1  0
  5  6  1  0
  6  7  1  0
  6  8  1  0
  8  9  1  0
  8  3  1  0
  1 10  1  0
  1 11  1  0
  1 12  1  0
  3 13  1  0
  4 14  1  0
  4 15  1  0
  5 16  1  0
  5 17  1  0
  6 18  1  0
  7 19  1  0
  8 20  1  0
  9 21  1  0
M  END
