
     RDKit          3D

 21 22  0  0  0  0  0  0  0  0999 V2000
    2.4351    0.7058    0.8345 C   0  0  0  0  0  0  0  0  0  0  0  0
    1.1298    0.2574    0.9105 O   0  0  0  0  0  0  0  0  0  0  0  0
    0.6872   -0.0477   -0.3717 C   0  0  0  0  0  0  0  0  0  0  0  0
    0.2894   -1.5144   -0.3880 C   0  0  0  0  0  0  0  0  0  0  0  0
   -1.1817   -1.7368   -0.2411 C   0  0  0  0  0  0  0  0  0  0  0  0
   -2.0374   -0.8052    0.1904 C   0  0  0  0  0  0  0  0  0  0  0  0
   -1.4344    0.4716    0.5166 C   0  0  0  0  0  0  0  0  0  0  0  0
   -1.3009    1.7063   -0.1482 C   0  0  0  0  0  0  0  0  0  0  0  0
   -0.5233    0.7003   -0.7492 C   0  0  0  0  0  0  0  0  0  0  0  0
    3.1171   -0.0550    0.3991 H   0  0  0  0  0  0  0  0  0  0  0  0
    2.8541    0.9791    1.8170 H   0  0  0  0  0  0  0  0  0  0  0  0
    2.5128    1.6009    0.1836 H   0  0  0  0  0  0  0  0  0  0  0  0
    1.5082    0.1551   -1.0963 H   0  0  0  0  0  0  0  0  0  0  0  0
    0.8746   -2.1122    0.3322 H   0  0  0  0  0  0  0  0  0  0  0  0
    0.5500   -1.8872   -1.4213 H   0  0  0  0  0  0  0  0  0  0  0  0
   -1.5897   -2.7226   -0.5030 H   0  0  0  0  0  0  0  0  0  0  0  0
   -3.0892   -1.0351    0.2726 H   0  0  0  0  0  0  0  0  0  0  0  0
   -0.8870    0.3783    1.5051 H   0  0  0  0  0  0  0  0  0  0  0  0
   -0.8074    2.5569    0.3926 H   0  0  0  0  0  0  0  0  0  0  0  0
   -2.1847    2.1201   -0.7096 H   0  0  0  0  0  0  0  0  0  0  0  0
   -0.9226    0.2844   -1.7260 H   0  0  0  0  0  0  0  0  0  0  0  0
  1  2  1  0
  2  3  1  0
  3  4  1  0
  4  5  1  0
  5  6  2  0
  6  7  1  0
  7  8  1  0
  8  9  1  0
  9  3  1  0
  9  7  1  0
  1 10  1  0
  1 11  1  0
  1 12  1  0
  3 13  1  0
  4 14  1  0
  4 15  1  0
  5 16  1  0
  6 17  1  0
  7 18  1  0
  8 19  1  0
  8 20  1  0
  9 21  1  0
M  END
