
     RDKit          3D

 23 24  0  0  0  0  0  0  0  0999 V2000
    2.6167   -0.9410    0.2849 C   0  0  0  0  0  0  0  0  0  0  0  0
    1.5340   -0.6876    1.1239 O   0  0  0  0  0  0  0  0  0  0  0  0
    0.7104    0.2281    0.4248 C   0  0  0  0  0  0  0  0  0  0  0  0
    1.5053    1.5087    0.1370 C   0  0  0  0  0  0  0  0  0  0  0  0
   -0.1461   -0.2379   -0.5744 C   0  0  0  0  0  0  0  0  0  0  0  0
   -1.3359    0.3009   -1.2836 C   0  0  0  0  0  0  0  0  0  0  0  0
   -2.4319   -0.3797   -0.4340 C   0  0  0  0  0  0  0  0  0  0  0  0
   -1.7593   -0.6299    0.9320 C   0  0  0  0  0  0  0  0  0  0  0  0
   -0.6292    0.3179    0.8290 C   0  0  0  0  0  0  0  0  0  0  0  0
    2.2843   -1.3811   -0.6919 H   0  0  0  0  0  0  0  0  0  0  0  0
    3.2331   -0.0483    0.0849 H   0  0  0  0  0  0  0  0  0  0  0  0
    3.3167   -1.6718    0.7877 H   0  0  0  0  0  0  0  0  0  0  0  0
    2.1675    1.7294    0.9977 H   0  0  0  0  0  0  0  0  0  0  0  0
    0.7519    2.3202    0.0089 H   0  0  0  0  0  0  0  0  0  0  0  0
    2.0684    1.3767   -0.7928 H   0  0  0  0  0  0  0  0  0  0  0  0
   -0.1871   -1.3704   -0.6783 H   0  0  0  0  0  0  0  0  0  0  0  0
   -1.4386    1.4049   -1.1833 H   0  0  0  0  0  0  0  0  0  0  0  0
   -1.3767   -0.0242   -2.3237 H   0  0  0  0  0  0  0  0  0  0  0  0
   -2.6783   -1.3686   -0.8888 H   0  0  0  0  0  0  0  0  0  0  0  0
   -3.2918    0.2690   -0.2906 H   0  0  0  0  0  0  0  0  0  0  0  0
   -1.3935   -1.6683    0.9732 H   0  0  0  0  0  0  0  0  0  0  0  0
   -2.4626   -0.4171    1.7563 H   0  0  0  0  0  0  0  0  0  0  0  0
   -1.0575    1.3699    0.8012 H   0  0  0  0  0  0  0  0  0  0  0  0
  1  2  1  0
  2  3  1  0
  3  4  1  0
  3  5  1  0
  5  6  1  0
  6  7  1  0
  7  8  1  0
  8  9  1  0
  9  3  1  0
  9  5  1  0
  1 10  1  0
  1 11  1  0
  1 12  1  0
  4 13  1  0
  4 14  1  0
  4 15  1  0
  5 16  1  0
  6 17  1  0
  6 18  1  0
  7 19  1  0
  7 20  1  0
  8 21  1  0
  8 22  1  0
  9 23  1  0
M  END
