
     RDKit          3D

 21 22  0  0  0  0  0  0  0  0999 V2000
    2.9563    0.2034    0.6485 C   0  0  0  0  0  0  0  0  0  0  0  0
    1.5666    0.2844    0.9016 O   0  0  0  0  0  0  0  0  0  0  0  0
    0.9318    0.0425   -0.2869 C   0  0  0  0  0  0  0  0  0  0  0  0
   -0.2715    0.8780   -0.6064 C   0  0  0  0  0  0  0  0  0  0  0  0
   -0.6566   -0.2506   -1.5295 C   0  0  0  0  0  0  0  0  0  0  0  0
   -0.2032   -0.9439   -0.2684 C   0  0  0  0  0  0  0  0  0  0  0  0
   -0.9837    0.1007    0.4621 C   0  0  0  0  0  0  0  0  0  0  0  0
   -2.4640   -0.0378    0.2994 C   0  0  0  0  0  0  0  0  0  0  0  0
   -0.5829    0.3968    1.7424 O   0  0  0  0  0  0  0  0  0  0  0  0
    3.1435   -0.8099    0.2786 H   0  0  0  0  0  0  0  0  0  0  0  0
    3.1909    0.9007   -0.2066 H   0  0  0  0  0  0  0  0  0  0  0  0
    3.5408    0.4752    1.5517 H   0  0  0  0  0  0  0  0  0  0  0  0
    1.5883   -0.1589   -1.1691 H   0  0  0  0  0  0  0  0  0  0  0  0
   -0.3161    1.8559   -0.7934 H   0  0  0  0  0  0  0  0  0  0  0  0
   -1.7219   -0.3328   -1.7733 H   0  0  0  0  0  0  0  0  0  0  0  0
    0.0619   -0.4339   -2.3555 H   0  0  0  0  0  0  0  0  0  0  0  0
   -0.1586   -1.9259   -0.1017 H   0  0  0  0  0  0  0  0  0  0  0  0
   -3.0080    0.2140    1.2559 H   0  0  0  0  0  0  0  0  0  0  0  0
   -2.7934    0.7568   -0.4175 H   0  0  0  0  0  0  0  0  0  0  0  0
   -2.7821   -1.0410   -0.0289 H   0  0  0  0  0  0  0  0  0  0  0  0
   -1.0380   -0.1737    2.3971 H   0  0  0  0  0  0  0  0  0  0  0  0
  1  2  1  0
  2  3  1  0
  3  4  1  0
  4  5  1  0
  5  6  1  0
  6  7  1  0
  7  8  1  0
  7  9  1  0
  6  3  1  0
  7  4  1  0
  1 10  1  0
  1 11  1  0
  1 12  1  0
  3 13  1  0
  4 14  1  0
  5 15  1  0
  5 16  1  0
  6 17  1  0
  8 18  1  0
  8 19  1  0
  8 20  1  0
  9 21  1  0
M  END
