
     RDKit          3D

 23 23  0  0  0  0  0  0  0  0999 V2000
    2.9516    0.3474   -0.3214 C   0  0  0  0  0  0  0  0  0  0  0  0
    2.0514   -0.3472    0.4857 O   0  0  0  0  0  0  0  0  0  0  0  0
    0.7435   -0.1401    0.1455 C   0  0  0  0  0  0  0  0  0  0  0  0
    0.0277   -1.3809   -0.3105 C   0  0  0  0  0  0  0  0  0  0  0  0
   -1.2198   -0.9399   -1.0457 C   0  0  0  0  0  0  0  0  0  0  0  0
   -2.2241   -0.3573   -0.0578 C   0  0  0  0  0  0  0  0  0  0  0  0
   -2.1149    0.9999    0.0133 O   0  0  0  0  0  0  0  0  0  0  0  0
   -1.0231    1.5000    0.6438 C   0  0  0  0  0  0  0  0  0  0  0  0
   -0.0789    0.5077    1.2262 C   0  0  0  0  0  0  0  0  0  0  0  0
    2.7633   -0.0332   -1.3687 H   0  0  0  0  0  0  0  0  0  0  0  0
    3.9831    0.0153   -0.0845 H   0  0  0  0  0  0  0  0  0  0  0  0
    2.8167    1.4286   -0.2845 H   0  0  0  0  0  0  0  0  0  0  0  0
    0.7414    0.5659   -0.7327 H   0  0  0  0  0  0  0  0  0  0  0  0
    0.6436   -1.9983   -0.9981 H   0  0  0  0  0  0  0  0  0  0  0  0
   -0.3247   -1.9820    0.5663 H   0  0  0  0  0  0  0  0  0  0  0  0
   -1.6601   -1.7808   -1.6197 H   0  0  0  0  0  0  0  0  0  0  0  0
   -0.9415   -0.1141   -1.7339 H   0  0  0  0  0  0  0  0  0  0  0  0
   -3.2342   -0.5771   -0.5170 H   0  0  0  0  0  0  0  0  0  0  0  0
   -2.2250   -0.8891    0.9042 H   0  0  0  0  0  0  0  0  0  0  0  0
   -0.4402    2.1054   -0.1118 H   0  0  0  0  0  0  0  0  0  0  0  0
   -1.3237    2.2254    1.4487 H   0  0  0  0  0  0  0  0  0  0  0  0
   -0.5509   -0.2396    1.8696 H   0  0  0  0  0  0  0  0  0  0  0  0
    0.6390    1.0841    1.8827 H   0  0  0  0  0  0  0  0  0  0  0  0
  1  2  1  0
  2  3  1  0
  3  4  1  0
  4  5  1  0
  5  6  1  0
  6  7  1  0
  7  8  1  0
  8  9  1  0
  9  3  1  0
  1 10  1  0
  1 11  1  0
  1 12  1  0
  3 13  1  0
  4 14  1  0
  4 15  1  0
  5 16  1  0
  5 17  1  0
  6 18  1  0
  6 19  1  0
  8 20  1  0
  8 21  1  0
  9 22  1  0
  9 23  1  0
M  END
