
     RDKit          3D

 21 21  0  0  0  0  0  0  0  0999 V2000
    2.4855   -0.7090   -0.0523 C   0  0  0  0  0  0  0  0  0  0  0  0
    1.5474   -0.0941   -0.8291 O   0  0  0  0  0  0  0  0  0  0  0  0
    0.3061    0.1043   -0.2401 C   0  0  0  0  0  0  0  0  0  0  0  0
    0.5550    0.9928    0.9848 C   0  0  0  0  0  0  0  0  0  0  0  0
   -0.3549   -1.1559    0.1344 C   0  0  0  0  0  0  0  0  0  0  0  0
   -1.6783   -1.1752    0.2366 C   0  0  0  0  0  0  0  0  0  0  0  0
   -2.3815    0.1171   -0.0467 C   0  0  0  0  0  0  0  0  0  0  0  0
   -1.8585    0.5562   -1.2603 O   0  0  0  0  0  0  0  0  0  0  0  0
   -0.5341    0.8845   -1.2126 C   0  0  0  0  0  0  0  0  0  0  0  0
    2.7683   -0.2247    0.8794 H   0  0  0  0  0  0  0  0  0  0  0  0
    3.4291   -0.7367   -0.6753 H   0  0  0  0  0  0  0  0  0  0  0  0
    2.2164   -1.7836    0.0726 H   0  0  0  0  0  0  0  0  0  0  0  0
   -0.1120    1.9018    0.9598 H   0  0  0  0  0  0  0  0  0  0  0  0
    1.5816    1.4133    0.9890 H   0  0  0  0  0  0  0  0  0  0  0  0
    0.3621    0.4745    1.9269 H   0  0  0  0  0  0  0  0  0  0  0  0
    0.2200   -2.0855    0.3327 H   0  0  0  0  0  0  0  0  0  0  0  0
   -2.1960   -2.0809    0.5093 H   0  0  0  0  0  0  0  0  0  0  0  0
   -2.2493    0.8602    0.7626 H   0  0  0  0  0  0  0  0  0  0  0  0
   -3.4747   -0.0674   -0.2372 H   0  0  0  0  0  0  0  0  0  0  0  0
   -0.1363    0.8159   -2.2515 H   0  0  0  0  0  0  0  0  0  0  0  0
   -0.4959    1.9926   -0.9831 H   0  0  0  0  0  0  0  0  0  0  0  0
  1  2  1  0
  2  3  1  0
  3  4  1  0
  3  5  1  0
  5  6  2  0
  6  7  1  0
  7  8  1  0
  8  9  1  0
  9  3  1  0
  1 10  1  0
  1 11  1  0
  1 12  1  0
  4 13  1  0
  4 14  1  0
  4 15  1  0
  5 16  1  0
  6 17  1  0
  7 18  1  0
  7 19  1  0
  9 20  1  0
  9 21  1  0
M  END
