
     RDKit          3D

 19 19  0  0  0  0  0  0  0  0999 V2000
    2.5921    0.3188   -0.2772 C   0  0  0  0  0  0  0  0  0  0  0  0
    1.4190    0.2407   -1.0335 O   0  0  0  0  0  0  0  0  0  0  0  0
    0.3496    0.1510   -0.1811 C   0  0  0  0  0  0  0  0  0  0  0  0
   -0.4624   -1.1288   -0.4186 C   0  0  0  0  0  0  0  0  0  0  0  0
   -1.1916   -1.3711    0.9110 C   0  0  0  0  0  0  0  0  0  0  0  0
   -2.0374   -0.2259    1.0663 O   0  0  0  0  0  0  0  0  0  0  0  0
   -1.9601    0.8270    0.1397 C   0  0  0  0  0  0  0  0  0  0  0  0
   -3.0101    1.3861   -0.3050 O   0  0  0  0  0  0  0  0  0  0  0  0
   -0.6311    1.3002   -0.3330 C   0  0  0  0  0  0  0  0  0  0  0  0
    2.7049   -0.5823    0.3589 H   0  0  0  0  0  0  0  0  0  0  0  0
    3.4799    0.5558   -0.8791 H   0  0  0  0  0  0  0  0  0  0  0  0
    2.4343    1.1775    0.4394 H   0  0  0  0  0  0  0  0  0  0  0  0
    0.6806    0.1629    0.8907 H   0  0  0  0  0  0  0  0  0  0  0  0
   -1.2687   -0.9267   -1.1727 H   0  0  0  0  0  0  0  0  0  0  0  0
    0.1623   -1.9719   -0.7070 H   0  0  0  0  0  0  0  0  0  0  0  0
   -0.3852   -1.3782    1.6835 H   0  0  0  0  0  0  0  0  0  0  0  0
   -1.7906   -2.2852    0.8889 H   0  0  0  0  0  0  0  0  0  0  0  0
   -0.3243    2.1415    0.3174 H   0  0  0  0  0  0  0  0  0  0  0  0
   -0.7614    1.6085   -1.3887 H   0  0  0  0  0  0  0  0  0  0  0  0
  1  2  1  0
  2  3  1  0
  3  4  1  0
  4  5  1  0
  5  6  1  0
  6  7  1  0
  7  8  2  0
  7  9  1  0
  9  3  1  0
  1 10  1  0
  1 11  1  0
  1 12  1  0
  3 13  1  0
  4 14  1  0
  4 15  1  0
  5 16  1  0
  5 17  1  0
  9 18  1  0
  9 19  1  0
M  END
