
     RDKit          3D

 21 22  0  0  0  0  0  0  0  0999 V2000
    2.7216    0.6590   -0.3002 C   0  0  0  0  0  0  0  0  0  0  0  0
    1.3518    0.6819   -0.5308 O   0  0  0  0  0  0  0  0  0  0  0  0
    0.7829   -0.4250    0.0414 C   0  0  0  0  0  0  0  0  0  0  0  0
   -0.0965   -1.2579   -0.8578 C   0  0  0  0  0  0  0  0  0  0  0  0
   -1.2467   -0.9726    0.0537 C   0  0  0  0  0  0  0  0  0  0  0  0
   -2.1939    0.0924   -0.5022 C   0  0  0  0  0  0  0  0  0  0  0  0
   -2.3366    0.9235    0.6129 O   0  0  0  0  0  0  0  0  0  0  0  0
   -0.9818    1.1979    0.9094 C   0  0  0  0  0  0  0  0  0  0  0  0
   -0.3798   -0.1627    0.9678 C   0  0  0  0  0  0  0  0  0  0  0  0
    3.1922   -0.2440   -0.7334 H   0  0  0  0  0  0  0  0  0  0  0  0
    3.2295    1.5954   -0.6172 H   0  0  0  0  0  0  0  0  0  0  0  0
    2.8590    0.5889    0.8009 H   0  0  0  0  0  0  0  0  0  0  0  0
    1.5137   -1.0819    0.5501 H   0  0  0  0  0  0  0  0  0  0  0  0
   -0.2685   -0.8201   -1.8568 H   0  0  0  0  0  0  0  0  0  0  0  0
    0.1946   -2.3093   -0.9588 H   0  0  0  0  0  0  0  0  0  0  0  0
   -1.7598   -1.8401    0.4881 H   0  0  0  0  0  0  0  0  0  0  0  0
   -3.1260   -0.3469   -0.8481 H   0  0  0  0  0  0  0  0  0  0  0  0
   -1.6549    0.6946   -1.2652 H   0  0  0  0  0  0  0  0  0  0  0  0
   -0.9690    1.6887    1.8978 H   0  0  0  0  0  0  0  0  0  0  0  0
   -0.5755    1.8658    0.1529 H   0  0  0  0  0  0  0  0  0  0  0  0
   -0.2564   -0.5276    1.9955 H   0  0  0  0  0  0  0  0  0  0  0  0
  1  2  1  0
  2  3  1  0
  3  4  1  0
  4  5  1  0
  5  6  1  0
  6  7  1  0
  7  8  1  0
  8  9  1  0
  9  3  1  0
  9  5  1  0
  1 10  1  0
  1 11  1  0
  1 12  1  0
  3 13  1  0
  4 14  1  0
  4 15  1  0
  5 16  1  0
  6 17  1  0
  6 18  1  0
  8 19  1  0
  8 20  1  0
  9 21  1  0
M  END
