
     RDKit          3D

 19 20  0  0  0  0  0  0  0  0999 V2000
    2.4481    0.0473   -0.1282 C   0  0  0  0  0  0  0  0  0  0  0  0
    1.3256    0.6226   -0.6337 O   0  0  0  0  0  0  0  0  0  0  0  0
    0.1888    0.2042   -0.1350 C   0  0  0  0  0  0  0  0  0  0  0  0
   -0.1705    0.3159    1.3137 C   0  0  0  0  0  0  0  0  0  0  0  0
   -1.5006   -0.1859    1.2698 O   0  0  0  0  0  0  0  0  0  0  0  0
   -1.6360   -0.6076   -0.0216 C   0  0  0  0  0  0  0  0  0  0  0  0
   -0.2864   -1.2298   -0.4167 C   0  0  0  0  0  0  0  0  0  0  0  0
   -1.1167    0.6168   -0.7954 C   0  0  0  0  0  0  0  0  0  0  0  0
   -1.5876    1.8214   -0.3142 O   0  0  0  0  0  0  0  0  0  0  0  0
    3.3333    0.5115   -0.6564 H   0  0  0  0  0  0  0  0  0  0  0  0
    2.6187    0.1985    0.9532 H   0  0  0  0  0  0  0  0  0  0  0  0
    2.4671   -1.0216   -0.4212 H   0  0  0  0  0  0  0  0  0  0  0  0
    0.3957   -0.4383    1.8897 H   0  0  0  0  0  0  0  0  0  0  0  0
   -0.1358    1.3270    1.7217 H   0  0  0  0  0  0  0  0  0  0  0  0
   -2.5148   -1.0745   -0.3799 H   0  0  0  0  0  0  0  0  0  0  0  0
    0.0813   -1.9753    0.2873 H   0  0  0  0  0  0  0  0  0  0  0  0
   -0.2535   -1.4595   -1.4868 H   0  0  0  0  0  0  0  0  0  0  0  0
   -1.1028    0.4720   -1.8775 H   0  0  0  0  0  0  0  0  0  0  0  0
   -2.5541    1.8553   -0.1690 H   0  0  0  0  0  0  0  0  0  0  0  0
  1  2  1  0
  2  3  1  0
  3  4  1  0
  4  5  1  0
  5  6  1  0
  6  7  1  0
  6  8  1  0
  8  9  1  0
  7  3  1  0
  8  3  1  0
  1 10  1  0
  1 11  1  0
  1 12  1  0
  4 13  1  0
  4 14  1  0
  6 15  1  0
  7 16  1  0
  7 17  1  0
  8 18  1  0
  9 19  1  0
M  END
