
     RDKit          3D

 25 25  0  0  0  0  0  0  0  0999 V2000
    2.9146    0.8192    0.2098 C   0  0  0  0  0  0  0  0  0  0  0  0
    1.8505    0.2612    0.8704 O   0  0  0  0  0  0  0  0  0  0  0  0
    0.8415   -0.2225    0.1058 C   0  0  0  0  0  0  0  0  0  0  0  0
    1.3149   -1.3208   -0.8319 C   0  0  0  0  0  0  0  0  0  0  0  0
   -0.3107   -0.6910    0.9800 C   0  0  0  0  0  0  0  0  0  0  0  0
   -1.2817    0.1306    0.1844 C   0  0  0  0  0  0  0  0  0  0  0  0
   -2.1818   -0.7203   -0.7203 C   0  0  0  0  0  0  0  0  0  0  0  0
   -2.0998    1.1227    0.9839 C   0  0  0  0  0  0  0  0  0  0  0  0
   -0.0990    0.7351   -0.5498 C   0  0  0  0  0  0  0  0  0  0  0  0
    3.6403    1.1593    1.0009 H   0  0  0  0  0  0  0  0  0  0  0  0
    2.6752    1.7212   -0.3761 H   0  0  0  0  0  0  0  0  0  0  0  0
    3.4725    0.1358   -0.4393 H   0  0  0  0  0  0  0  0  0  0  0  0
    2.0759   -0.8916   -1.5143 H   0  0  0  0  0  0  0  0  0  0  0  0
    0.5059   -1.7142   -1.4678 H   0  0  0  0  0  0  0  0  0  0  0  0
    1.8127   -2.1137   -0.2485 H   0  0  0  0  0  0  0  0  0  0  0  0
   -0.4777   -1.8001    0.9304 H   0  0  0  0  0  0  0  0  0  0  0  0
   -0.2102   -0.4178    2.0534 H   0  0  0  0  0  0  0  0  0  0  0  0
   -3.2446   -0.4424   -0.5859 H   0  0  0  0  0  0  0  0  0  0  0  0
   -2.0836   -1.7669   -0.3757 H   0  0  0  0  0  0  0  0  0  0  0  0
   -1.8987   -0.6049   -1.7796 H   0  0  0  0  0  0  0  0  0  0  0  0
   -2.3487    0.7810    1.9861 H   0  0  0  0  0  0  0  0  0  0  0  0
   -1.5841    2.1149    1.0463 H   0  0  0  0  0  0  0  0  0  0  0  0
   -3.0341    1.3030    0.4277 H   0  0  0  0  0  0  0  0  0  0  0  0
   -0.2388    0.6238   -1.6260 H   0  0  0  0  0  0  0  0  0  0  0  0
   -0.0104    1.7986   -0.2641 H   0  0  0  0  0  0  0  0  0  0  0  0
  1  2  1  0
  2  3  1  0
  3  4  1  0
  3  5  1  0
  5  6  1  0
  6  7  1  0
  6  8  1  0
  6  9  1  0
  9  3  1  0
  1 10  1  0
  1 11  1  0
  1 12  1  0
  4 13  1  0
  4 14  1  0
  4 15  1  0
  5 16  1  0
  5 17  1  0
  7 18  1  0
  7 19  1  0
  7 20  1  0
  8 21  1  0
  8 22  1  0
  8 23  1  0
  9 24  1  0
  9 25  1  0
M  END
