
     RDKit          3D

 23 24  0  0  0  0  0  0  0  0999 V2000
    2.5982    0.0941   -0.0538 C   0  0  0  0  0  0  0  0  0  0  0  0
    1.4470    0.5052   -0.6440 O   0  0  0  0  0  0  0  0  0  0  0  0
    0.2978    0.3642    0.0652 C   0  0  0  0  0  0  0  0  0  0  0  0
    0.3984    1.1530    1.3391 C   0  0  0  0  0  0  0  0  0  0  0  0
   -0.8352    1.0010   -0.7676 C   0  0  0  0  0  0  0  0  0  0  0  0
   -1.7645   -0.1846   -0.8205 C   0  0  0  0  0  0  0  0  0  0  0  0
   -1.7118   -0.7833    0.5473 C   0  0  0  0  0  0  0  0  0  0  0  0
   -0.2295   -1.0043    0.2128 C   0  0  0  0  0  0  0  0  0  0  0  0
   -0.7811   -1.3075   -1.1874 C   0  0  0  0  0  0  0  0  0  0  0  0
    2.6333   -0.9753    0.2228 H   0  0  0  0  0  0  0  0  0  0  0  0
    3.4375    0.2585   -0.7619 H   0  0  0  0  0  0  0  0  0  0  0  0
    2.8701    0.6710    0.8653 H   0  0  0  0  0  0  0  0  0  0  0  0
   -0.5594    1.3216    1.8452 H   0  0  0  0  0  0  0  0  0  0  0  0
    1.1477    0.7479    2.0304 H   0  0  0  0  0  0  0  0  0  0  0  0
    0.7658    2.1791    1.0467 H   0  0  0  0  0  0  0  0  0  0  0  0
   -1.2747    1.8612   -0.2591 H   0  0  0  0  0  0  0  0  0  0  0  0
   -0.4852    1.2358   -1.7928 H   0  0  0  0  0  0  0  0  0  0  0  0
   -2.6704   -0.1296   -1.3631 H   0  0  0  0  0  0  0  0  0  0  0  0
   -1.9053   -0.1454    1.4018 H   0  0  0  0  0  0  0  0  0  0  0  0
   -2.2413   -1.7738    0.5412 H   0  0  0  0  0  0  0  0  0  0  0  0
    0.2831   -1.7763    0.7212 H   0  0  0  0  0  0  0  0  0  0  0  0
   -0.1259   -1.0479   -2.0080 H   0  0  0  0  0  0  0  0  0  0  0  0
   -1.2946   -2.2645   -1.1808 H   0  0  0  0  0  0  0  0  0  0  0  0
  1  2  1  0
  2  3  1  0
  3  4  1  0
  3  5  1  0
  5  6  1  0
  6  7  1  0
  7  8  1  0
  8  9  1  0
  8  3  1  0
  9  6  1  0
  1 10  1  0
  1 11  1  0
  1 12  1  0
  4 13  1  0
  4 14  1  0
  4 15  1  0
  5 16  1  0
  5 17  1  0
  6 18  1  0
  7 19  1  0
  7 20  1  0
  8 21  1  0
  9 22  1  0
  9 23  1  0
M  END
