
     RDKit          3D

 17 18  0  0  0  0  0  0  0  0999 V2000
    2.5303   -0.3162    0.6199 C   0  0  0  0  0  0  0  0  0  0  0  0
    1.1663   -0.6036    0.7577 O   0  0  0  0  0  0  0  0  0  0  0  0
    0.4192    0.0546   -0.2059 C   0  0  0  0  0  0  0  0  0  0  0  0
   -0.7950   -0.5746   -0.7609 C   0  0  0  0  0  0  0  0  0  0  0  0
   -1.6046   -1.3626    0.2533 C   0  0  0  0  0  0  0  0  0  0  0  0
   -1.8007   -0.1450    0.9252 O   0  0  0  0  0  0  0  0  0  0  0  0
   -0.9226    0.5844    0.1542 C   0  0  0  0  0  0  0  0  0  0  0  0
   -1.2872    1.9267   -0.3295 C   0  0  0  0  0  0  0  0  0  0  0  0
   -0.5211    2.5689   -1.0051 O   0  0  0  0  0  0  0  0  0  0  0  0
    2.7205    0.7747    0.7266 H   0  0  0  0  0  0  0  0  0  0  0  0
    2.8042   -0.5788   -0.4183 H   0  0  0  0  0  0  0  0  0  0  0  0
    3.1265   -0.9335    1.2901 H   0  0  0  0  0  0  0  0  0  0  0  0
    1.0059    0.6732   -0.8958 H   0  0  0  0  0  0  0  0  0  0  0  0
   -1.0779   -0.5549   -1.8067 H   0  0  0  0  0  0  0  0  0  0  0  0
   -2.5260   -1.8227   -0.1320 H   0  0  0  0  0  0  0  0  0  0  0  0
   -0.9940   -2.0307    0.9071 H   0  0  0  0  0  0  0  0  0  0  0  0
   -2.2439    2.3401   -0.0798 H   0  0  0  0  0  0  0  0  0  0  0  0
  1  2  1  0
  2  3  1  0
  3  4  1  0
  4  5  1  0
  5  6  1  0
  6  7  1  0
  7  8  1  0
  8  9  2  0
  7  3  1  0
  7  4  1  0
  1 10  1  0
  1 11  1  0
  1 12  1  0
  3 13  1  0
  4 14  1  0
  5 15  1  0
  5 16  1  0
  8 17  1  0
M  END
