
     RDKit          3D

 19 21  0  0  0  0  0  0  0  0999 V2000
    2.4562   -0.1947    0.0606 C   0  0  0  0  0  0  0  0  0  0  0  0
    1.5022   -1.0727    0.4910 O   0  0  0  0  0  0  0  0  0  0  0  0
    0.2717   -0.6070    0.2968 C   0  0  0  0  0  0  0  0  0  0  0  0
   -0.1164   -0.3071   -1.1453 C   0  0  0  0  0  0  0  0  0  0  0  0
   -1.5609    0.1497   -0.8748 C   0  0  0  0  0  0  0  0  0  0  0  0
   -1.5262    0.8021    0.4320 C   0  0  0  0  0  0  0  0  0  0  0  0
   -0.0858    0.7049    0.9578 C   0  0  0  0  0  0  0  0  0  0  0  0
   -1.9075   -0.6271    0.3132 C   0  0  0  0  0  0  0  0  0  0  0  0
   -0.7852   -1.4029    0.6907 O   0  0  0  0  0  0  0  0  0  0  0  0
    2.3867    0.7752    0.5955 H   0  0  0  0  0  0  0  0  0  0  0  0
    3.5018   -0.5872    0.2324 H   0  0  0  0  0  0  0  0  0  0  0  0
    2.4191    0.0089   -1.0372 H   0  0  0  0  0  0  0  0  0  0  0  0
    0.4697    0.4955   -1.5890 H   0  0  0  0  0  0  0  0  0  0  0  0
   -0.1189   -1.2537   -1.7338 H   0  0  0  0  0  0  0  0  0  0  0  0
   -2.2106    0.3912   -1.6991 H   0  0  0  0  0  0  0  0  0  0  0  0
   -2.1833    1.5730    0.7900 H   0  0  0  0  0  0  0  0  0  0  0  0
    0.5032    1.5536    0.6173 H   0  0  0  0  0  0  0  0  0  0  0  0
   -0.1077    0.5904    2.0529 H   0  0  0  0  0  0  0  0  0  0  0  0
   -2.9082   -0.9921    0.5488 H   0  0  0  0  0  0  0  0  0  0  0  0
  1  2  1  0
  2  3  1  0
  3  4  1  0
  4  5  1  0
  5  6  1  0
  6  7  1  0
  6  8  1  0
  8  9  1  0
  7  3  1  0
  9  3  1  0
  8  5  1  0
  1 10  1  0
  1 11  1  0
  1 12  1  0
  4 13  1  0
  4 14  1  0
  5 15  1  0
  6 16  1  0
  7 17  1  0
  7 18  1  0
  8 19  1  0
M  END
