
     RDKit          3D

 18 19  0  0  0  0  0  0  0  0999 V2000
   -2.2892    1.4038   -0.2442 C   0  0  0  0  0  0  0  0  0  0  0  0
   -0.9908    1.1741    0.1846 O   0  0  0  0  0  0  0  0  0  0  0  0
   -0.5769   -0.0865   -0.1566 C   0  0  0  0  0  0  0  0  0  0  0  0
    0.2703   -0.7439    0.8926 C   0  0  0  0  0  0  0  0  0  0  0  0
    0.8132   -1.5712   -0.2414 C   0  0  0  0  0  0  0  0  0  0  0  0
    0.7876   -0.1768   -0.7942 C   0  0  0  0  0  0  0  0  0  0  0  0
    1.3348    0.2563    0.5325 C   0  0  0  0  0  0  0  0  0  0  0  0
    2.6139   -0.1828    0.8349 O   0  0  0  0  0  0  0  0  0  0  0  0
   -2.9947    0.6808    0.2106 H   0  0  0  0  0  0  0  0  0  0  0  0
   -2.6160    2.4376   -0.0519 H   0  0  0  0  0  0  0  0  0  0  0  0
   -2.3087    1.1943   -1.3484 H   0  0  0  0  0  0  0  0  0  0  0  0
   -1.2853   -0.7308   -0.7003 H   0  0  0  0  0  0  0  0  0  0  0  0
    0.0017   -1.0535    1.8010 H   0  0  0  0  0  0  0  0  0  0  0  0
    1.7955   -2.0264   -0.0881 H   0  0  0  0  0  0  0  0  0  0  0  0
    0.0383   -2.1948   -0.7300 H   0  0  0  0  0  0  0  0  0  0  0  0
    1.0506    0.1316   -1.7053 H   0  0  0  0  0  0  0  0  0  0  0  0
    1.1118    1.3077    0.7618 H   0  0  0  0  0  0  0  0  0  0  0  0
    3.2438    0.1805    0.1532 H   0  0  0  0  0  0  0  0  0  0  0  0
  1  2  1  0
  2  3  1  0
  3  4  1  0
  4  5  1  0
  5  6  1  0
  6  7  1  0
  7  8  1  0
  6  3  1  0
  7  4  1  0
  1  9  1  0
  1 10  1  0
  1 11  1  0
  3 12  1  0
  4 13  1  0
  5 14  1  0
  5 15  1  0
  6 16  1  0
  7 17  1  0
  8 18  1  0
M  END
