
     RDKit          3D

 21 21  0  0  0  0  0  0  0  0999 V2000
    2.2502   -0.7865    0.2756 C   0  0  0  0  0  0  0  0  0  0  0  0
    1.1786   -0.0763    0.7358 O   0  0  0  0  0  0  0  0  0  0  0  0
    0.4229    0.6020   -0.1661 C   0  0  0  0  0  0  0  0  0  0  0  0
    1.0898    1.6491   -0.9516 C   0  0  0  0  0  0  0  0  0  0  0  0
    2.2616    1.8761   -0.7646 O   0  0  0  0  0  0  0  0  0  0  0  0
   -0.8278    1.1458    0.5455 C   0  0  0  0  0  0  0  0  0  0  0  0
   -1.5766   -0.0325   -0.0023 C   0  0  0  0  0  0  0  0  0  0  0  0
   -1.6944   -1.2186    0.9155 C   0  0  0  0  0  0  0  0  0  0  0  0
   -0.5089   -0.2090   -1.0335 C   0  0  0  0  0  0  0  0  0  0  0  0
    3.0329   -0.2419   -0.2452 H   0  0  0  0  0  0  0  0  0  0  0  0
    2.6645   -1.3626    1.1560 H   0  0  0  0  0  0  0  0  0  0  0  0
    1.8302   -1.6076   -0.3812 H   0  0  0  0  0  0  0  0  0  0  0  0
    0.5383    2.2085   -1.6872 H   0  0  0  0  0  0  0  0  0  0  0  0
   -1.1317    2.1301    0.1277 H   0  0  0  0  0  0  0  0  0  0  0  0
   -0.7603    1.1521    1.6366 H   0  0  0  0  0  0  0  0  0  0  0  0
   -2.5721    0.2702   -0.3728 H   0  0  0  0  0  0  0  0  0  0  0  0
   -2.4877   -1.0493    1.6844 H   0  0  0  0  0  0  0  0  0  0  0  0
   -1.9704   -2.0945    0.2679 H   0  0  0  0  0  0  0  0  0  0  0  0
   -0.7670   -1.4408    1.4737 H   0  0  0  0  0  0  0  0  0  0  0  0
   -0.1830   -1.2405   -1.2493 H   0  0  0  0  0  0  0  0  0  0  0  0
   -0.7890    0.3262   -1.9648 H   0  0  0  0  0  0  0  0  0  0  0  0
  1  2  1  0
  2  3  1  0
  3  4  1  0
  4  5  2  0
  3  6  1  0
  6  7  1  0
  7  8  1  0
  7  9  1  0
  9  3  1  0
  1 10  1  0
  1 11  1  0
  1 12  1  0
  4 13  1  0
  6 14  1  0
  6 15  1  0
  7 16  1  0
  8 17  1  0
  8 18  1  0
  8 19  1  0
  9 20  1  0
  9 21  1  0
M  END
