
     RDKit          3D

 19 21  0  0  0  0  0  0  0  0999 V2000
    3.0760   -0.2846    0.2128 C   0  0  0  0  0  0  0  0  0  0  0  0
    1.9761   -0.0450   -0.5652 O   0  0  0  0  0  0  0  0  0  0  0  0
    0.8072   -0.1041    0.1431 C   0  0  0  0  0  0  0  0  0  0  0  0
   -0.1922    0.8788   -0.1418 C   0  0  0  0  0  0  0  0  0  0  0  0
   -1.4130    0.8243    0.7916 C   0  0  0  0  0  0  0  0  0  0  0  0
   -2.7886    0.5193    0.3995 C   0  0  0  0  0  0  0  0  0  0  0  0
   -1.8155    0.0332   -0.5045 C   0  0  0  0  0  0  0  0  0  0  0  0
   -0.4940   -0.6076   -0.3459 C   0  0  0  0  0  0  0  0  0  0  0  0
   -0.1934   -1.2860   -1.5563 O   0  0  0  0  0  0  0  0  0  0  0  0
    3.1460    0.4748    1.0380 H   0  0  0  0  0  0  0  0  0  0  0  0
    4.0275   -0.2853   -0.3278 H   0  0  0  0  0  0  0  0  0  0  0  0
    3.0165   -1.2796    0.7358 H   0  0  0  0  0  0  0  0  0  0  0  0
    0.9689   -0.3397    1.2418 H   0  0  0  0  0  0  0  0  0  0  0  0
   -0.2406    1.5472   -1.0167 H   0  0  0  0  0  0  0  0  0  0  0  0
   -1.1952    0.2572    1.7183 H   0  0  0  0  0  0  0  0  0  0  0  0
   -3.3973    1.4595    0.2694 H   0  0  0  0  0  0  0  0  0  0  0  0
   -3.4384   -0.2542    0.8965 H   0  0  0  0  0  0  0  0  0  0  0  0
   -1.7880    0.7167   -1.4277 H   0  0  0  0  0  0  0  0  0  0  0  0
   -0.0622   -2.2251   -1.2884 H   0  0  0  0  0  0  0  0  0  0  0  0
  1  2  1  0
  2  3  1  0
  3  4  1  0
  4  5  1  0
  5  6  1  0
  6  7  1  0
  7  8  1  0
  8  9  1  0
  8  3  1  0
  8  4  1  0
  7  5  1  0
  1 10  1  0
  1 11  1  0
  1 12  1  0
  3 13  1  0
  4 14  1  0
  5 15  1  0
  6 16  1  0
  6 17  1  0
  7 18  1  0
  9 19  1  0
M  END
