
     RDKit          3D

 21 22  0  0  0  0  0  0  0  0999 V2000
    2.1289   -0.3705    0.6242 C   0  0  0  0  0  0  0  0  0  0  0  0
    1.0246   -0.8846    0.0342 O   0  0  0  0  0  0  0  0  0  0  0  0
    0.2369   -0.0544   -0.7364 C   0  0  0  0  0  0  0  0  0  0  0  0
   -0.8944   -0.8800   -1.2870 C   0  0  0  0  0  0  0  0  0  0  0  0
   -1.5865   -1.2061    0.0545 C   0  0  0  0  0  0  0  0  0  0  0  0
   -1.1309   -0.0769    1.0054 C   0  0  0  0  0  0  0  0  0  0  0  0
   -0.7487    0.9336    0.0100 C   0  0  0  0  0  0  0  0  0  0  0  0
    0.4310    1.3278   -0.6620 C   0  0  0  0  0  0  0  0  0  0  0  0
    1.4443    1.8927    0.0948 O   0  0  0  0  0  0  0  0  0  0  0  0
    2.8749    0.0763   -0.0716 H   0  0  0  0  0  0  0  0  0  0  0  0
    2.6935   -1.2838    1.0380 H   0  0  0  0  0  0  0  0  0  0  0  0
    1.9908    0.2439    1.5332 H   0  0  0  0  0  0  0  0  0  0  0  0
   -1.6237   -0.2901   -1.8653 H   0  0  0  0  0  0  0  0  0  0  0  0
   -0.5486   -1.7849   -1.7883 H   0  0  0  0  0  0  0  0  0  0  0  0
   -1.1910   -2.1404    0.4786 H   0  0  0  0  0  0  0  0  0  0  0  0
   -2.6722   -1.1515   -0.0284 H   0  0  0  0  0  0  0  0  0  0  0  0
   -2.0015    0.2246    1.6253 H   0  0  0  0  0  0  0  0  0  0  0  0
   -0.2738   -0.4018    1.5984 H   0  0  0  0  0  0  0  0  0  0  0  0
   -1.6954    1.2087   -0.5624 H   0  0  0  0  0  0  0  0  0  0  0  0
    0.3411    1.8979   -1.6383 H   0  0  0  0  0  0  0  0  0  0  0  0
    1.2007    2.7194    0.5431 H   0  0  0  0  0  0  0  0  0  0  0  0
  1  2  1  0
  2  3  1  0
  3  4  1  0
  4  5  1  0
  5  6  1  0
  6  7  1  0
  7  8  1  0
  8  9  1  0
  7  3  1  0
  8  3  1  0
  1 10  1  0
  1 11  1  0
  1 12  1  0
  4 13  1  0
  4 14  1  0
  5 15  1  0
  5 16  1  0
  6 17  1  0
  6 18  1  0
  7 19  1  0
  8 20  1  0
  9 21  1  0
M  END
