
     RDKit          3D

 19 20  0  0  0  0  0  0  0  0999 V2000
    2.0774    0.1818    0.8391 C   0  0  0  0  0  0  0  0  0  0  0  0
    0.9817   -0.6356    0.9728 O   0  0  0  0  0  0  0  0  0  0  0  0
    0.0777   -0.2901   -0.0496 C   0  0  0  0  0  0  0  0  0  0  0  0
    0.6082   -0.4634   -1.4246 C   0  0  0  0  0  0  0  0  0  0  0  0
   -0.7541    0.9227    0.2426 C   0  0  0  0  0  0  0  0  0  0  0  0
   -1.8301    0.2751   -0.5727 C   0  0  0  0  0  0  0  0  0  0  0  0
   -1.2772   -0.8357    0.2751 C   0  0  0  0  0  0  0  0  0  0  0  0
   -1.2948    0.1427    1.3798 C   0  0  0  0  0  0  0  0  0  0  0  0
   -1.5785    0.2723    2.5496 O   0  0  0  0  0  0  0  0  0  0  0  0
    2.5435    0.0317   -0.1520 H   0  0  0  0  0  0  0  0  0  0  0  0
    1.8286    1.2591    0.9940 H   0  0  0  0  0  0  0  0  0  0  0  0
    2.8034   -0.0744    1.6357 H   0  0  0  0  0  0  0  0  0  0  0  0
    1.0349    0.4535   -1.8783 H   0  0  0  0  0  0  0  0  0  0  0  0
    1.4727   -1.1905   -1.3648 H   0  0  0  0  0  0  0  0  0  0  0  0
   -0.1182   -0.9735   -2.1172 H   0  0  0  0  0  0  0  0  0  0  0  0
   -0.4690    1.8799    0.2441 H   0  0  0  0  0  0  0  0  0  0  0  0
   -1.7026    0.1970   -1.6483 H   0  0  0  0  0  0  0  0  0  0  0  0
   -2.8315    0.6374   -0.2207 H   0  0  0  0  0  0  0  0  0  0  0  0
   -1.5718   -1.7901    0.2953 H   0  0  0  0  0  0  0  0  0  0  0  0
  1  2  1  0
  2  3  1  0
  3  4  1  0
  3  5  1  0
  5  6  1  0
  6  7  1  0
  7  8  1  0
  8  9  2  0
  7  3  1  0
  8  5  1  0
  1 10  1  0
  1 11  1  0
  1 12  1  0
  4 13  1  0
  4 14  1  0
  4 15  1  0
  5 16  1  0
  6 17  1  0
  6 18  1  0
  7 19  1  0
M  END
