
     RDKit          3D

 17 17  0  0  0  0  0  0  0  0999 V2000
   -2.3437    0.2705   -0.2374 C   0  0  0  0  0  0  0  0  0  0  0  0
   -1.0187    0.6745   -0.3117 O   0  0  0  0  0  0  0  0  0  0  0  0
   -0.2158   -0.3331    0.1325 C   0  0  0  0  0  0  0  0  0  0  0  0
    0.8067   -0.7981   -0.8781 C   0  0  0  0  0  0  0  0  0  0  0  0
    2.0579   -0.1529   -0.7148 O   0  0  0  0  0  0  0  0  0  0  0  0
    2.2536    0.9726    0.0373 C   0  0  0  0  0  0  0  0  0  0  0  0
    3.1574    1.8242   -0.1479 O   0  0  0  0  0  0  0  0  0  0  0  0
    1.3824    1.2024    1.1005 O   0  0  0  0  0  0  0  0  0  0  0  0
    0.5251    0.0911    1.4091 C   0  0  0  0  0  0  0  0  0  0  0  0
   -3.0432    1.0645   -0.5917 H   0  0  0  0  0  0  0  0  0  0  0  0
   -2.5615   -0.0057    0.8299 H   0  0  0  0  0  0  0  0  0  0  0  0
   -2.5588   -0.6410   -0.8300 H   0  0  0  0  0  0  0  0  0  0  0  0
   -0.8375   -1.1975    0.4311 H   0  0  0  0  0  0  0  0  0  0  0  0
    0.9861   -1.8913   -0.7440 H   0  0  0  0  0  0  0  0  0  0  0  0
    0.4666   -0.6562   -1.9239 H   0  0  0  0  0  0  0  0  0  0  0  0
   -0.2069    0.3642    2.1741 H   0  0  0  0  0  0  0  0  0  0  0  0
    1.1501   -0.7882    1.6693 H   0  0  0  0  0  0  0  0  0  0  0  0
  1  2  1  0
  2  3  1  0
  3  4  1  0
  4  5  1  0
  5  6  1  0
  6  7  2  0
  6  8  1  0
  8  9  1  0
  9  3  1  0
  1 10  1  0
  1 11  1  0
  1 12  1  0
  3 13  1  0
  4 14  1  0
  4 15  1  0
  9 16  1  0
  9 17  1  0
M  END
