
     RDKit          3D

 13 13  0  0  0  0  0  0  0  0999 V2000
    2.0253   -0.0524   -0.2232 C   0  0  0  0  0  0  0  0  0  0  0  0
    0.7657    0.1000   -0.7864 O   0  0  0  0  0  0  0  0  0  0  0  0
   -0.1893   -0.0895    0.1822 C   0  0  0  0  0  0  0  0  0  0  0  0
   -1.5266   -0.6435   -0.1245 C   0  0  0  0  0  0  0  0  0  0  0  0
   -1.4251    0.8293    0.1117 C   0  0  0  0  0  0  0  0  0  0  0  0
    2.1047   -1.0958    0.1999 H   0  0  0  0  0  0  0  0  0  0  0  0
    2.8489    0.0347   -0.9494 H   0  0  0  0  0  0  0  0  0  0  0  0
    2.1640    0.6664    0.6310 H   0  0  0  0  0  0  0  0  0  0  0  0
    0.2026   -0.3199    1.1945 H   0  0  0  0  0  0  0  0  0  0  0  0
   -1.7888   -0.9403   -1.1798 H   0  0  0  0  0  0  0  0  0  0  0  0
   -2.0224   -1.2680    0.6470 H   0  0  0  0  0  0  0  0  0  0  0  0
   -1.4660    1.5045   -0.7915 H   0  0  0  0  0  0  0  0  0  0  0  0
   -1.6930    1.2746    1.0886 H   0  0  0  0  0  0  0  0  0  0  0  0
  1  2  1  0
  2  3  1  0
  3  4  1  0
  4  5  1  0
  5  3  1  0
  1  6  1  0
  1  7  1  0
  1  8  1  0
  3  9  1  0
  4 10  1  0
  4 11  1  0
  5 12  1  0
  5 13  1  0
M  END
