
     RDKit          3D

 20 20  0  0  0  0  0  0  0  0999 V2000
    2.0926   -0.9665    0.3615 C   0  0  0  0  0  0  0  0  0  0  0  0
    0.8583   -0.6652    0.8847 O   0  0  0  0  0  0  0  0  0  0  0  0
    0.1834    0.3326    0.2219 C   0  0  0  0  0  0  0  0  0  0  0  0
    0.8403    1.6761    0.1572 C   0  0  0  0  0  0  0  0  0  0  0  0
   -0.4457   -0.1200   -1.0990 C   0  0  0  0  0  0  0  0  0  0  0  0
   -1.5106   -0.7762   -0.2208 C   0  0  0  0  0  0  0  0  0  0  0  0
   -2.7673   -0.8021   -0.7736 O   0  0  0  0  0  0  0  0  0  0  0  0
   -1.2607    0.3897    0.7435 C   0  0  0  0  0  0  0  0  0  0  0  0
    2.8117   -0.1518    0.3432 H   0  0  0  0  0  0  0  0  0  0  0  0
    2.5302   -1.7732    1.0018 H   0  0  0  0  0  0  0  0  0  0  0  0
    1.9708   -1.4429   -0.6509 H   0  0  0  0  0  0  0  0  0  0  0  0
    1.8510    1.5516   -0.2354 H   0  0  0  0  0  0  0  0  0  0  0  0
    0.8040    2.2050    1.1303 H   0  0  0  0  0  0  0  0  0  0  0  0
    0.2779    2.2693   -0.6221 H   0  0  0  0  0  0  0  0  0  0  0  0
   -0.8154    0.7788   -1.6384 H   0  0  0  0  0  0  0  0  0  0  0  0
    0.1671   -0.8077   -1.6842 H   0  0  0  0  0  0  0  0  0  0  0  0
   -1.1122   -1.7161    0.1784 H   0  0  0  0  0  0  0  0  0  0  0  0
   -3.3266   -1.4034   -0.2580 H   0  0  0  0  0  0  0  0  0  0  0  0
   -1.3759    0.1422    1.7963 H   0  0  0  0  0  0  0  0  0  0  0  0
   -1.7730    1.2798    0.3638 H   0  0  0  0  0  0  0  0  0  0  0  0
  1  2  1  0
  2  3  1  0
  3  4  1  0
  3  5  1  0
  5  6  1  0
  6  7  1  0
  6  8  1  0
  8  3  1  0
  1  9  1  0
  1 10  1  0
  1 11  1  0
  4 12  1  0
  4 13  1  0
  4 14  1  0
  5 15  1  0
  5 16  1  0
  6 17  1  0
  7 18  1  0
  8 19  1  0
  8 20  1  0
M  END
