
     RDKit          3D

 23 23  0  0  0  0  0  0  0  0999 V2000
   -1.4677   -1.1987   -1.2396 C   0  0  0  0  0  0  0  0  0  0  0  0
   -0.7903   -0.0257   -1.1392 O   0  0  0  0  0  0  0  0  0  0  0  0
   -0.2707    0.3252    0.0684 C   0  0  0  0  0  0  0  0  0  0  0  0
   -1.2451    0.4682    1.2137 C   0  0  0  0  0  0  0  0  0  0  0  0
   -2.1906    1.4566    0.9117 O   0  0  0  0  0  0  0  0  0  0  0  0
    0.4641    1.6702   -0.1390 C   0  0  0  0  0  0  0  0  0  0  0  0
    1.6426    0.7886   -0.5807 C   0  0  0  0  0  0  0  0  0  0  0  0
    1.0894   -0.2110    0.4477 C   0  0  0  0  0  0  0  0  0  0  0  0
    1.4093   -1.6151    0.0835 C   0  0  0  0  0  0  0  0  0  0  0  0
   -0.9092   -2.0962   -0.9965 H   0  0  0  0  0  0  0  0  0  0  0  0
   -2.4371   -1.1166   -0.6787 H   0  0  0  0  0  0  0  0  0  0  0  0
   -1.7954   -1.2873   -2.3187 H   0  0  0  0  0  0  0  0  0  0  0  0
   -0.6670    0.8274    2.0958 H   0  0  0  0  0  0  0  0  0  0  0  0
   -1.8014   -0.4509    1.4268 H   0  0  0  0  0  0  0  0  0  0  0  0
   -1.9820    2.3144    1.3646 H   0  0  0  0  0  0  0  0  0  0  0  0
    0.6817    2.0986    0.8367 H   0  0  0  0  0  0  0  0  0  0  0  0
    0.0363    2.2935   -0.9167 H   0  0  0  0  0  0  0  0  0  0  0  0
    1.4980    0.3495   -1.5910 H   0  0  0  0  0  0  0  0  0  0  0  0
    2.6258    1.1898   -0.3484 H   0  0  0  0  0  0  0  0  0  0  0  0
    1.3480    0.1020    1.4792 H   0  0  0  0  0  0  0  0  0  0  0  0
    0.8304   -2.3677    0.6185 H   0  0  0  0  0  0  0  0  0  0  0  0
    2.4774   -1.7801    0.4169 H   0  0  0  0  0  0  0  0  0  0  0  0
    1.4537   -1.7347   -1.0149 H   0  0  0  0  0  0  0  0  0  0  0  0
  1  2  1  0
  2  3  1  0
  3  4  1  0
  4  5  1  0
  3  6  1  0
  6  7  1  0
  7  8  1  0
  8  9  1  0
  8  3  1  0
  1 10  1  0
  1 11  1  0
  1 12  1  0
  4 13  1  0
  4 14  1  0
  5 15  1  0
  6 16  1  0
  6 17  1  0
  7 18  1  0
  7 19  1  0
  8 20  1  0
  9 21  1  0
  9 22  1  0
  9 23  1  0
M  END
