
     RDKit          3D

 21 22  0  0  0  0  0  0  0  0999 V2000
    2.9754    0.6486    0.7858 C   0  0  0  0  0  0  0  0  0  0  0  0
    1.6140    0.7721    0.8403 O   0  0  0  0  0  0  0  0  0  0  0  0
    1.0096   -0.2317    0.0838 C   0  0  0  0  0  0  0  0  0  0  0  0
   -0.0860    0.0098   -0.8290 C   0  0  0  0  0  0  0  0  0  0  0  0
   -1.3585   -0.7500   -1.0450 C   0  0  0  0  0  0  0  0  0  0  0  0
   -1.6356   -0.2149    0.3762 C   0  0  0  0  0  0  0  0  0  0  0  0
   -1.9028    1.2341    0.4848 C   0  0  0  0  0  0  0  0  0  0  0  0
   -0.2379   -0.7145    0.5756 C   0  0  0  0  0  0  0  0  0  0  0  0
   -0.2836   -2.1363    0.4897 O   0  0  0  0  0  0  0  0  0  0  0  0
    3.2841    0.7396   -0.2901 H   0  0  0  0  0  0  0  0  0  0  0  0
    3.2647   -0.3952    1.0902 H   0  0  0  0  0  0  0  0  0  0  0  0
    3.5384    1.3502    1.3918 H   0  0  0  0  0  0  0  0  0  0  0  0
    1.8006   -0.8956   -0.3842 H   0  0  0  0  0  0  0  0  0  0  0  0
   -0.3496    1.1127   -0.8120 H   0  0  0  0  0  0  0  0  0  0  0  0
   -1.3221   -1.8305   -1.0874 H   0  0  0  0  0  0  0  0  0  0  0  0
   -1.9806   -0.3224   -1.8233 H   0  0  0  0  0  0  0  0  0  0  0  0
   -2.4002   -0.8136    0.8735 H   0  0  0  0  0  0  0  0  0  0  0  0
   -2.2582    1.7188   -0.4674 H   0  0  0  0  0  0  0  0  0  0  0  0
   -1.0624    1.8296    0.9502 H   0  0  0  0  0  0  0  0  0  0  0  0
   -2.7615    1.4283    1.1979 H   0  0  0  0  0  0  0  0  0  0  0  0
    0.1522   -2.5389    1.2710 H   0  0  0  0  0  0  0  0  0  0  0  0
  1  2  1  0
  2  3  1  0
  3  4  1  0
  4  5  1  0
  5  6  1  0
  6  7  1  0
  6  8  1  0
  8  9  1  0
  8  3  1  0
  8  4  1  0
  1 10  1  0
  1 11  1  0
  1 12  1  0
  3 13  1  0
  4 14  1  0
  5 15  1  0
  5 16  1  0
  6 17  1  0
  7 18  1  0
  7 19  1  0
  7 20  1  0
  9 21  1  0
M  END
