
     RDKit          3D

 18 19  0  0  0  0  0  0  0  0999 V2000
    2.5022    0.9609   -0.2125 C   0  0  0  0  0  0  0  0  0  0  0  0
    1.3934    0.5321   -0.9385 O   0  0  0  0  0  0  0  0  0  0  0  0
    0.7183   -0.4282   -0.2334 C   0  0  0  0  0  0  0  0  0  0  0  0
   -0.0702   -1.4908   -0.9068 C   0  0  0  0  0  0  0  0  0  0  0  0
   -0.7533   -0.3910   -0.2979 C   0  0  0  0  0  0  0  0  0  0  0  0
   -1.5185   -0.3714    0.9620 C   0  0  0  0  0  0  0  0  0  0  0  0
   -2.1614    0.8230    0.3111 C   0  0  0  0  0  0  0  0  0  0  0  0
   -1.4799    0.5812   -0.9031 O   0  0  0  0  0  0  0  0  0  0  0  0
    3.1399    0.0687   -0.0551 H   0  0  0  0  0  0  0  0  0  0  0  0
    3.0397    1.7938   -0.6947 H   0  0  0  0  0  0  0  0  0  0  0  0
    2.2071    1.2905    0.8270 H   0  0  0  0  0  0  0  0  0  0  0  0
    1.1423   -0.6985    0.7567 H   0  0  0  0  0  0  0  0  0  0  0  0
   -0.0106   -2.5054   -0.4999 H   0  0  0  0  0  0  0  0  0  0  0  0
    0.0206   -1.4877   -2.0335 H   0  0  0  0  0  0  0  0  0  0  0  0
   -0.8852   -0.0227    1.8161 H   0  0  0  0  0  0  0  0  0  0  0  0
   -2.1871   -1.2223    1.1863 H   0  0  0  0  0  0  0  0  0  0  0  0
   -1.8354    1.8137    0.6856 H   0  0  0  0  0  0  0  0  0  0  0  0
   -3.2620    0.7539    0.2305 H   0  0  0  0  0  0  0  0  0  0  0  0
  1  2  1  0
  2  3  1  0
  3  4  1  0
  4  5  1  0
  5  6  1  0
  6  7  1  0
  7  8  1  0
  5  3  1  0
  8  5  1  0
  1  9  1  0
  1 10  1  0
  1 11  1  0
  3 12  1  0
  4 13  1  0
  4 14  1  0
  6 15  1  0
  6 16  1  0
  7 17  1  0
  7 18  1  0
M  END
