
     RDKit          3D

 19 20  0  0  0  0  0  0  0  0999 V2000
    3.0983    0.0911   -0.2072 C   0  0  0  0  0  0  0  0  0  0  0  0
    1.7894    0.0382   -0.6313 O   0  0  0  0  0  0  0  0  0  0  0  0
    0.8532    0.0051    0.3559 C   0  0  0  0  0  0  0  0  0  0  0  0
   -0.2633    1.0125    0.2821 C   0  0  0  0  0  0  0  0  0  0  0  0
   -1.1556   -0.1254   -0.1083 C   0  0  0  0  0  0  0  0  0  0  0  0
   -2.0091   -0.1376   -1.2774 C   0  0  0  0  0  0  0  0  0  0  0  0
   -2.5688   -0.2026    0.1745 C   0  0  0  0  0  0  0  0  0  0  0  0
   -0.1499   -1.1164    0.2320 C   0  0  0  0  0  0  0  0  0  0  0  0
   -0.1146   -2.3097    0.3622 O   0  0  0  0  0  0  0  0  0  0  0  0
    3.7577    0.1137   -1.1003 H   0  0  0  0  0  0  0  0  0  0  0  0
    3.3493    0.9582    0.4084 H   0  0  0  0  0  0  0  0  0  0  0  0
    3.3219   -0.8830    0.3040 H   0  0  0  0  0  0  0  0  0  0  0  0
    1.3325    0.0276    1.3555 H   0  0  0  0  0  0  0  0  0  0  0  0
   -0.1463    1.8338   -0.4208 H   0  0  0  0  0  0  0  0  0  0  0  0
   -0.5794    1.4120    1.2863 H   0  0  0  0  0  0  0  0  0  0  0  0
   -2.1079   -1.0891   -1.8514 H   0  0  0  0  0  0  0  0  0  0  0  0
   -2.2587    0.7747   -1.8556 H   0  0  0  0  0  0  0  0  0  0  0  0
   -3.0736   -1.1415    0.4474 H   0  0  0  0  0  0  0  0  0  0  0  0
   -3.0749    0.7384    0.5295 H   0  0  0  0  0  0  0  0  0  0  0  0
  1  2  1  0
  2  3  1  0
  3  4  1  0
  4  5  1  0
  5  6  1  0
  6  7  1  0
  5  8  1  0
  8  9  2  0
  8  3  1  0
  7  5  1  0
  1 10  1  0
  1 11  1  0
  1 12  1  0
  3 13  1  0
  4 14  1  0
  4 15  1  0
  6 16  1  0
  6 17  1  0
  7 18  1  0
  7 19  1  0
M  END
