
     RDKit          3D

 20 20  0  0  0  0  0  0  0  0999 V2000
    1.7870   -0.4372   -0.9622 C   0  0  0  0  0  0  0  0  0  0  0  0
    1.4894    0.5860   -0.1004 O   0  0  0  0  0  0  0  0  0  0  0  0
    0.2218    0.5099    0.4469 C   0  0  0  0  0  0  0  0  0  0  0  0
    0.0128    1.6868    1.3749 C   0  0  0  0  0  0  0  0  0  0  0  0
   -0.0566   -0.7879    1.0994 C   0  0  0  0  0  0  0  0  0  0  0  0
   -0.8998   -1.5124    0.3928 C   0  0  0  0  0  0  0  0  0  0  0  0
   -1.3235   -0.8228   -0.8442 C   0  0  0  0  0  0  0  0  0  0  0  0
   -0.7721    0.5781   -0.6846 C   0  0  0  0  0  0  0  0  0  0  0  0
    1.7226   -1.4232   -0.4280 H   0  0  0  0  0  0  0  0  0  0  0  0
    1.2443   -0.4389   -1.9041 H   0  0  0  0  0  0  0  0  0  0  0  0
    2.8765   -0.3381   -1.2222 H   0  0  0  0  0  0  0  0  0  0  0  0
    0.8927    1.7437    2.0714 H   0  0  0  0  0  0  0  0  0  0  0  0
   -0.0683    2.6093    0.7552 H   0  0  0  0  0  0  0  0  0  0  0  0
   -0.9307    1.5503    1.9695 H   0  0  0  0  0  0  0  0  0  0  0  0
    0.3753   -1.1191    2.0492 H   0  0  0  0  0  0  0  0  0  0  0  0
   -1.2641   -2.5139    0.6636 H   0  0  0  0  0  0  0  0  0  0  0  0
   -0.9887   -1.3078   -1.7686 H   0  0  0  0  0  0  0  0  0  0  0  0
   -2.4365   -0.7314   -0.8220 H   0  0  0  0  0  0  0  0  0  0  0  0
   -0.3130    0.8549   -1.6543 H   0  0  0  0  0  0  0  0  0  0  0  0
   -1.5691    1.3136   -0.4324 H   0  0  0  0  0  0  0  0  0  0  0  0
  1  2  1  0
  2  3  1  0
  3  4  1  0
  3  5  1  0
  5  6  2  0
  6  7  1  0
  7  8  1  0
  8  3  1  0
  1  9  1  0
  1 10  1  0
  1 11  1  0
  4 12  1  0
  4 13  1  0
  4 14  1  0
  5 15  1  0
  6 16  1  0
  7 17  1  0
  7 18  1  0
  8 19  1  0
  8 20  1  0
M  END
