
     RDKit          3D

 21 21  0  0  0  0  0  0  0  0999 V2000
    2.6789    0.0103   -0.0508 C   0  0  0  0  0  0  0  0  0  0  0  0
    1.4872   -0.0752   -0.7539 O   0  0  0  0  0  0  0  0  0  0  0  0
    0.3950   -0.2942    0.0680 C   0  0  0  0  0  0  0  0  0  0  0  0
   -0.2309   -1.6178   -0.3855 C   0  0  0  0  0  0  0  0  0  0  0  0
   -1.4157   -1.3113   -1.0507 O   0  0  0  0  0  0  0  0  0  0  0  0
   -2.3489   -0.8923   -0.1021 C   0  0  0  0  0  0  0  0  0  0  0  0
   -1.8315    0.2436    0.5244 O   0  0  0  0  0  0  0  0  0  0  0  0
   -0.7011    0.7309   -0.1426 C   0  0  0  0  0  0  0  0  0  0  0  0
   -0.3509    2.0779    0.4111 C   0  0  0  0  0  0  0  0  0  0  0  0
    2.9030   -0.9192    0.5220 H   0  0  0  0  0  0  0  0  0  0  0  0
    3.4985    0.1305   -0.7857 H   0  0  0  0  0  0  0  0  0  0  0  0
    2.7000    0.8501    0.6646 H   0  0  0  0  0  0  0  0  0  0  0  0
    0.7012   -0.3577    1.1417 H   0  0  0  0  0  0  0  0  0  0  0  0
   -0.4080   -2.2419    0.5008 H   0  0  0  0  0  0  0  0  0  0  0  0
    0.4626   -2.1870   -1.0416 H   0  0  0  0  0  0  0  0  0  0  0  0
   -2.4633   -1.7173    0.6410 H   0  0  0  0  0  0  0  0  0  0  0  0
   -3.3093   -0.6136   -0.5382 H   0  0  0  0  0  0  0  0  0  0  0  0
   -0.8690    0.8230   -1.2241 H   0  0  0  0  0  0  0  0  0  0  0  0
    0.3643    2.6204   -0.2619 H   0  0  0  0  0  0  0  0  0  0  0  0
   -1.2950    2.6790    0.4283 H   0  0  0  0  0  0  0  0  0  0  0  0
    0.0328    2.0620    1.4350 H   0  0  0  0  0  0  0  0  0  0  0  0
  1  2  1  0
  2  3  1  0
  3  4  1  0
  4  5  1  0
  5  6  1  0
  6  7  1  0
  7  8  1  0
  8  9  1  0
  8  3  1  0
  1 10  1  0
  1 11  1  0
  1 12  1  0
  3 13  1  0
  4 14  1  0
  4 15  1  0
  6 16  1  0
  6 17  1  0
  8 18  1  0
  9 19  1  0
  9 20  1  0
  9 21  1  0
M  END
