
     RDKit          3D

 19 21  0  0  0  0  0  0  0  0999 V2000
    2.2801   -0.6209   -0.5138 C   0  0  0  0  0  0  0  0  0  0  0  0
    1.4768    0.4533   -0.5282 O   0  0  0  0  0  0  0  0  0  0  0  0
    0.3751    0.5351    0.1432 C   0  0  0  0  0  0  0  0  0  0  0  0
   -0.4947    1.8128    0.0706 C   0  0  0  0  0  0  0  0  0  0  0  0
   -1.5623    0.8796   -0.5264 C   0  0  0  0  0  0  0  0  0  0  0  0
   -0.8421   -0.1930    0.3040 C   0  0  0  0  0  0  0  0  0  0  0  0
   -1.0629   -1.5823   -0.0532 C   0  0  0  0  0  0  0  0  0  0  0  0
   -0.8134    0.0914    1.6885 O   0  0  0  0  0  0  0  0  0  0  0  0
   -0.0205    1.2179    1.3419 C   0  0  0  0  0  0  0  0  0  0  0  0
    1.8472   -1.5738   -0.8571 H   0  0  0  0  0  0  0  0  0  0  0  0
    3.2316   -0.3813   -1.0524 H   0  0  0  0  0  0  0  0  0  0  0  0
    2.6066   -0.8123    0.5508 H   0  0  0  0  0  0  0  0  0  0  0  0
   -0.0393    2.5920   -0.4966 H   0  0  0  0  0  0  0  0  0  0  0  0
   -1.4356    0.6563   -1.5767 H   0  0  0  0  0  0  0  0  0  0  0  0
   -2.5559    1.0515   -0.1259 H   0  0  0  0  0  0  0  0  0  0  0  0
   -0.8432   -2.2395    0.8017 H   0  0  0  0  0  0  0  0  0  0  0  0
   -2.1655   -1.7336   -0.2610 H   0  0  0  0  0  0  0  0  0  0  0  0
   -0.5596   -1.8685   -0.9901 H   0  0  0  0  0  0  0  0  0  0  0  0
    0.5779    1.7154    2.0808 H   0  0  0  0  0  0  0  0  0  0  0  0
  1  2  1  0
  2  3  1  0
  3  4  1  0
  4  5  1  0
  5  6  1  0
  6  7  1  0
  6  8  1  0
  8  9  1  0
  6  3  1  0
  9  3  1  0
  9  4  1  0
  1 10  1  0
  1 11  1  0
  1 12  1  0
  4 13  1  0
  5 14  1  0
  5 15  1  0
  7 16  1  0
  7 17  1  0
  7 18  1  0
  9 19  1  0
M  END
