
     RDKit          3D

 21 22  0  0  0  0  0  0  0  0999 V2000
    2.5002   -0.4663   -0.5396 C   0  0  0  0  0  0  0  0  0  0  0  0
    1.3233    0.0436   -1.0641 O   0  0  0  0  0  0  0  0  0  0  0  0
    0.4006    0.3311   -0.0683 C   0  0  0  0  0  0  0  0  0  0  0  0
    0.9015    1.3378    0.9342 C   0  0  0  0  0  0  0  0  0  0  0  0
   -0.9222    0.8135   -0.6873 C   0  0  0  0  0  0  0  0  0  0  0  0
   -1.8459    0.0480    0.1858 C   0  0  0  0  0  0  0  0  0  0  0  0
   -2.4051   -1.2350    0.1457 C   0  0  0  0  0  0  0  0  0  0  0  0
   -1.0102   -1.2844   -0.0172 C   0  0  0  0  0  0  0  0  0  0  0  0
    0.0619   -0.8295    0.6790 O   0  0  0  0  0  0  0  0  0  0  0  0
    2.9263    0.2939    0.1423 H   0  0  0  0  0  0  0  0  0  0  0  0
    3.1730   -0.6720   -1.4176 H   0  0  0  0  0  0  0  0  0  0  0  0
    2.3447   -1.4419   -0.0272 H   0  0  0  0  0  0  0  0  0  0  0  0
    1.6194    0.8560    1.6065 H   0  0  0  0  0  0  0  0  0  0  0  0
   -0.0017    1.7030    1.5037 H   0  0  0  0  0  0  0  0  0  0  0  0
    1.3135    2.2461    0.4221 H   0  0  0  0  0  0  0  0  0  0  0  0
   -0.9891    0.5293   -1.7549 H   0  0  0  0  0  0  0  0  0  0  0  0
   -1.0327    1.9068   -0.5782 H   0  0  0  0  0  0  0  0  0  0  0  0
   -1.7630    0.5009    1.2269 H   0  0  0  0  0  0  0  0  0  0  0  0
   -3.0875   -1.5016   -0.6985 H   0  0  0  0  0  0  0  0  0  0  0  0
   -2.8341   -1.6907    1.0888 H   0  0  0  0  0  0  0  0  0  0  0  0
   -0.6729   -1.4886   -1.0820 H   0  0  0  0  0  0  0  0  0  0  0  0
  1  2  1  0
  2  3  1  0
  3  4  1  0
  3  5  1  0
  5  6  1  0
  6  7  1  0
  7  8  1  0
  8  9  1  0
  9  3  1  0
  8  6  1  0
  1 10  1  0
  1 11  1  0
  1 12  1  0
  4 13  1  0
  4 14  1  0
  4 15  1  0
  5 16  1  0
  5 17  1  0
  6 18  1  0
  7 19  1  0
  7 20  1  0
  8 21  1  0
M  END
