
     RDKit          3D

 18 19  0  0  0  0  0  0  0  0999 V2000
    2.5390    0.4327    0.0593 C   0  0  0  0  0  0  0  0  0  0  0  0
    1.3704    0.4545   -0.7168 O   0  0  0  0  0  0  0  0  0  0  0  0
    0.4240   -0.3257   -0.1047 C   0  0  0  0  0  0  0  0  0  0  0  0
   -0.4407   -1.1762   -0.9815 C   0  0  0  0  0  0  0  0  0  0  0  0
   -1.4196   -1.2228    0.1380 C   0  0  0  0  0  0  0  0  0  0  0  0
   -0.9645    0.2031   -0.0254 C   0  0  0  0  0  0  0  0  0  0  0  0
   -1.4151    1.2890    0.6988 C   0  0  0  0  0  0  0  0  0  0  0  0
   -1.0652   -0.0033   -1.3861 O   0  0  0  0  0  0  0  0  0  0  0  0
    2.3396    0.8310    1.0872 H   0  0  0  0  0  0  0  0  0  0  0  0
    2.9406   -0.5773    0.1937 H   0  0  0  0  0  0  0  0  0  0  0  0
    3.2807    1.0630   -0.4702 H   0  0  0  0  0  0  0  0  0  0  0  0
    0.7235   -0.8138    0.8445 H   0  0  0  0  0  0  0  0  0  0  0  0
   -0.1429   -1.9325   -1.5771 H   0  0  0  0  0  0  0  0  0  0  0  0
   -0.9801   -1.6762    1.0468 H   0  0  0  0  0  0  0  0  0  0  0  0
   -2.4587   -1.4442   -0.0856 H   0  0  0  0  0  0  0  0  0  0  0  0
   -0.6586    2.0759    0.8741 H   0  0  0  0  0  0  0  0  0  0  0  0
   -1.7941    1.0092    1.7128 H   0  0  0  0  0  0  0  0  0  0  0  0
   -2.2783    1.8136    0.2133 H   0  0  0  0  0  0  0  0  0  0  0  0
  1  2  1  0
  2  3  1  0
  3  4  1  0
  4  5  1  0
  5  6  1  0
  6  7  1  0
  6  8  1  0
  6  3  1  0
  8  4  1  0
  1  9  1  0
  1 10  1  0
  1 11  1  0
  3 12  1  0
  4 13  1  0
  5 14  1  0
  5 15  1  0
  7 16  1  0
  7 17  1  0
  7 18  1  0
M  END
