
     RDKit          3D

 21 22  0  0  0  0  0  0  0  0999 V2000
    2.7040   -0.5034   -0.1639 C   0  0  0  0  0  0  0  0  0  0  0  0
    1.4773   -0.7540   -0.8130 O   0  0  0  0  0  0  0  0  0  0  0  0
    0.5442    0.0562   -0.2375 C   0  0  0  0  0  0  0  0  0  0  0  0
   -0.2756    0.9219   -1.1715 C   0  0  0  0  0  0  0  0  0  0  0  0
   -1.0313    1.7916   -0.1677 C   0  0  0  0  0  0  0  0  0  0  0  0
   -1.4422    0.6631    0.8008 C   0  0  0  0  0  0  0  0  0  0  0  0
   -0.8237   -0.4806   -0.0120 C   0  0  0  0  0  0  0  0  0  0  0  0
   -1.0393   -1.8366    0.4351 C   0  0  0  0  0  0  0  0  0  0  0  0
   -1.1156   -0.1508   -1.3532 O   0  0  0  0  0  0  0  0  0  0  0  0
    2.9056    0.5934   -0.3453 H   0  0  0  0  0  0  0  0  0  0  0  0
    2.5615   -0.5804    0.9408 H   0  0  0  0  0  0  0  0  0  0  0  0
    3.5102   -1.1458   -0.5227 H   0  0  0  0  0  0  0  0  0  0  0  0
    0.9212    0.7235    0.5928 H   0  0  0  0  0  0  0  0  0  0  0  0
    0.2010    1.3974   -1.9908 H   0  0  0  0  0  0  0  0  0  0  0  0
   -1.9244    2.2420   -0.5995 H   0  0  0  0  0  0  0  0  0  0  0  0
   -0.3547    2.4725    0.3481 H   0  0  0  0  0  0  0  0  0  0  0  0
   -0.8754    0.7169    1.7309 H   0  0  0  0  0  0  0  0  0  0  0  0
   -2.5190    0.5783    0.8925 H   0  0  0  0  0  0  0  0  0  0  0  0
   -1.1373   -2.5293   -0.4498 H   0  0  0  0  0  0  0  0  0  0  0  0
   -0.2603   -2.2514    1.1079 H   0  0  0  0  0  0  0  0  0  0  0  0
   -2.0261   -1.9245    0.9779 H   0  0  0  0  0  0  0  0  0  0  0  0
  1  2  1  0
  2  3  1  0
  3  4  1  0
  4  5  1  0
  5  6  1  0
  6  7  1  0
  7  8  1  0
  7  9  1  0
  7  3  1  0
  9  4  1  0
  1 10  1  0
  1 11  1  0
  1 12  1  0
  3 13  1  0
  4 14  1  0
  5 15  1  0
  5 16  1  0
  6 17  1  0
  6 18  1  0
  8 19  1  0
  8 20  1  0
  8 21  1  0
M  END
