
     RDKit          3D

 21 21  0  0  0  0  0  0  0  0999 V2000
   -2.2475    1.3974   -0.1238 C   0  0  0  0  0  0  0  0  0  0  0  0
   -1.4190    0.4799   -0.7921 O   0  0  0  0  0  0  0  0  0  0  0  0
   -0.7548   -0.2980    0.1243 C   0  0  0  0  0  0  0  0  0  0  0  0
   -0.9976   -1.7830   -0.0796 C   0  0  0  0  0  0  0  0  0  0  0  0
    0.0026   -2.0836   -1.0271 O   0  0  0  0  0  0  0  0  0  0  0  0
    1.1373   -1.6407   -0.3483 C   0  0  0  0  0  0  0  0  0  0  0  0
    0.7461   -0.2183    0.0196 C   0  0  0  0  0  0  0  0  0  0  0  0
    1.1675    0.6529   -0.9732 O   0  0  0  0  0  0  0  0  0  0  0  0
    2.0715    1.5361   -0.3854 C   0  0  0  0  0  0  0  0  0  0  0  0
   -2.7986    2.0409   -0.8135 H   0  0  0  0  0  0  0  0  0  0  0  0
   -2.9772    0.8832    0.5396 H   0  0  0  0  0  0  0  0  0  0  0  0
   -1.5590    2.0166    0.5186 H   0  0  0  0  0  0  0  0  0  0  0  0
   -1.0409   -0.0047    1.1633 H   0  0  0  0  0  0  0  0  0  0  0  0
   -0.7493   -2.2703    0.8900 H   0  0  0  0  0  0  0  0  0  0  0  0
   -1.9981   -2.0023   -0.4506 H   0  0  0  0  0  0  0  0  0  0  0  0
    2.0531   -1.6924   -0.9463 H   0  0  0  0  0  0  0  0  0  0  0  0
    1.1923   -2.2242    0.5897 H   0  0  0  0  0  0  0  0  0  0  0  0
    1.2127   -0.0030    0.9867 H   0  0  0  0  0  0  0  0  0  0  0  0
    2.9465    0.9608    0.0346 H   0  0  0  0  0  0  0  0  0  0  0  0
    2.4576    2.2875   -1.0787 H   0  0  0  0  0  0  0  0  0  0  0  0
    1.5548    1.9652    0.4998 H   0  0  0  0  0  0  0  0  0  0  0  0
  1  2  1  0
  2  3  1  0
  3  4  1  0
  4  5  1  0
  5  6  1  0
  6  7  1  0
  7  8  1  0
  8  9  1  0
  7  3  1  0
  1 10  1  0
  1 11  1  0
  1 12  1  0
  3 13  1  0
  4 14  1  0
  4 15  1  0
  6 16  1  0
  6 17  1  0
  7 18  1  0
  9 19  1  0
  9 20  1  0
  9 21  1  0
M  END
