
     RDKit          3D

 23 23  0  0  0  0  0  0  0  0999 V2000
    2.7849   -0.4133    0.3679 C   0  0  0  0  0  0  0  0  0  0  0  0
    1.7014   -0.3850   -0.5058 O   0  0  0  0  0  0  0  0  0  0  0  0
    0.5952    0.2267    0.0464 C   0  0  0  0  0  0  0  0  0  0  0  0
    0.2350    1.4190   -0.8217 C   0  0  0  0  0  0  0  0  0  0  0  0
   -0.9166    0.8331   -1.6479 C   0  0  0  0  0  0  0  0  0  0  0  0
   -1.6781    0.1542   -0.4996 C   0  0  0  0  0  0  0  0  0  0  0  0
   -1.9958    1.1696    0.3886 O   0  0  0  0  0  0  0  0  0  0  0  0
   -0.5595   -0.7203    0.0079 C   0  0  0  0  0  0  0  0  0  0  0  0
   -0.8639   -1.3467    1.3417 C   0  0  0  0  0  0  0  0  0  0  0  0
    3.6491   -0.9122   -0.1157 H   0  0  0  0  0  0  0  0  0  0  0  0
    2.5200   -1.0481    1.2427 H   0  0  0  0  0  0  0  0  0  0  0  0
    3.1203    0.5867    0.6827 H   0  0  0  0  0  0  0  0  0  0  0  0
    0.8218    0.5698    1.0935 H   0  0  0  0  0  0  0  0  0  0  0  0
    1.0579    1.7635   -1.4409 H   0  0  0  0  0  0  0  0  0  0  0  0
   -0.2176    2.1784   -0.1730 H   0  0  0  0  0  0  0  0  0  0  0  0
   -1.5062    1.5939   -2.1431 H   0  0  0  0  0  0  0  0  0  0  0  0
   -0.5645    0.0087   -2.2931 H   0  0  0  0  0  0  0  0  0  0  0  0
   -2.5403   -0.4073   -0.8684 H   0  0  0  0  0  0  0  0  0  0  0  0
   -2.4215    0.8633    1.2092 H   0  0  0  0  0  0  0  0  0  0  0  0
   -0.3740   -1.5047   -0.7496 H   0  0  0  0  0  0  0  0  0  0  0  0
   -1.8970   -1.7931    1.2677 H   0  0  0  0  0  0  0  0  0  0  0  0
   -0.1739   -2.2162    1.4548 H   0  0  0  0  0  0  0  0  0  0  0  0
   -0.7769   -0.6201    2.1559 H   0  0  0  0  0  0  0  0  0  0  0  0
  1  2  1  0
  2  3  1  0
  3  4  1  0
  4  5  1  0
  5  6  1  0
  6  7  1  0
  6  8  1  0
  8  9  1  0
  8  3  1  0
  1 10  1  0
  1 11  1  0
  1 12  1  0
  3 13  1  0
  4 14  1  0
  4 15  1  0
  5 16  1  0
  5 17  1  0
  6 18  1  0
  7 19  1  0
  8 20  1  0
  9 21  1  0
  9 22  1  0
  9 23  1  0
M  END
