
     RDKit          3D

 19 20  0  0  0  0  0  0  0  0999 V2000
    2.3293    0.4320    0.7592 C   0  0  0  0  0  0  0  0  0  0  0  0
    1.1825    0.6501    0.0105 O   0  0  0  0  0  0  0  0  0  0  0  0
    0.5828   -0.5527   -0.3782 C   0  0  0  0  0  0  0  0  0  0  0  0
   -0.8904   -0.4989   -0.0194 C   0  0  0  0  0  0  0  0  0  0  0  0
   -1.2369    0.5383    1.0127 C   0  0  0  0  0  0  0  0  0  0  0  0
   -2.6193    0.4600    1.2301 O   0  0  0  0  0  0  0  0  0  0  0  0
   -1.1620   -0.1368   -1.4453 C   0  0  0  0  0  0  0  0  0  0  0  0
   -0.8562   -1.1245   -2.3544 O   0  0  0  0  0  0  0  0  0  0  0  0
    0.2479   -0.5071   -1.8392 C   0  0  0  0  0  0  0  0  0  0  0  0
    3.0760   -0.1434    0.1755 H   0  0  0  0  0  0  0  0  0  0  0  0
    2.0327   -0.0511    1.6999 H   0  0  0  0  0  0  0  0  0  0  0  0
    2.7925    1.4372    0.9247 H   0  0  0  0  0  0  0  0  0  0  0  0
    1.1119   -1.4578   -0.0309 H   0  0  0  0  0  0  0  0  0  0  0  0
   -1.2464   -1.5187    0.2135 H   0  0  0  0  0  0  0  0  0  0  0  0
   -0.6766    0.3508    1.9518 H   0  0  0  0  0  0  0  0  0  0  0  0
   -1.0408    1.5410    0.5893 H   0  0  0  0  0  0  0  0  0  0  0  0
   -2.8530   -0.3468    1.7731 H   0  0  0  0  0  0  0  0  0  0  0  0
   -1.5930    0.8171   -1.7366 H   0  0  0  0  0  0  0  0  0  0  0  0
    0.8192    0.1113   -2.5363 H   0  0  0  0  0  0  0  0  0  0  0  0
  1  2  1  0
  2  3  1  0
  3  4  1  0
  4  5  1  0
  5  6  1  0
  4  7  1  0
  7  8  1  0
  8  9  1  0
  9  3  1  0
  9  7  1  0
  1 10  1  0
  1 11  1  0
  1 12  1  0
  3 13  1  0
  4 14  1  0
  5 15  1  0
  5 16  1  0
  6 17  1  0
  7 18  1  0
  9 19  1  0
M  END
