
     RDKit          3D

 19 20  0  0  0  0  0  0  0  0999 V2000
   -2.1170   -1.1069   -0.7269 C   0  0  0  0  0  0  0  0  0  0  0  0
   -1.2688   -0.6820    0.2824 O   0  0  0  0  0  0  0  0  0  0  0  0
   -0.3865    0.2976   -0.1116 C   0  0  0  0  0  0  0  0  0  0  0  0
   -0.8850    1.6141   -0.6341 C   0  0  0  0  0  0  0  0  0  0  0  0
   -0.1117    2.3336    0.2723 O   0  0  0  0  0  0  0  0  0  0  0  0
    0.2790    1.1628    0.8939 C   0  0  0  0  0  0  0  0  0  0  0  0
    1.0772    0.1552    0.0602 C   0  0  0  0  0  0  0  0  0  0  0  0
    1.6939   -0.9336    0.8662 C   0  0  0  0  0  0  0  0  0  0  0  0
    3.0943   -0.7653    0.8135 O   0  0  0  0  0  0  0  0  0  0  0  0
   -1.5401   -1.5342   -1.5974 H   0  0  0  0  0  0  0  0  0  0  0  0
   -2.6941   -1.9693   -0.3255 H   0  0  0  0  0  0  0  0  0  0  0  0
   -2.7571   -0.3056   -1.1346 H   0  0  0  0  0  0  0  0  0  0  0  0
   -1.9771    1.7844   -0.5480 H   0  0  0  0  0  0  0  0  0  0  0  0
   -0.5542    1.8227   -1.6689 H   0  0  0  0  0  0  0  0  0  0  0  0
    0.1841    1.0151    1.9676 H   0  0  0  0  0  0  0  0  0  0  0  0
    1.7000    0.6809   -0.7135 H   0  0  0  0  0  0  0  0  0  0  0  0
    1.4244   -0.9079    1.9478 H   0  0  0  0  0  0  0  0  0  0  0  0
    1.4944   -1.9536    0.5043 H   0  0  0  0  0  0  0  0  0  0  0  0
    3.3442   -0.7082   -0.1476 H   0  0  0  0  0  0  0  0  0  0  0  0
  1  2  1  0
  2  3  1  0
  3  4  1  0
  4  5  1  0
  5  6  1  0
  6  7  1  0
  7  8  1  0
  8  9  1  0
  6  3  1  0
  7  3  1  0
  1 10  1  0
  1 11  1  0
  1 12  1  0
  4 13  1  0
  4 14  1  0
  6 15  1  0
  7 16  1  0
  8 17  1  0
  8 18  1  0
  9 19  1  0
M  END
