
     RDKit          3D

 17 18  0  0  0  0  0  0  0  0999 V2000
    2.5971    0.1126   -0.0981 C   0  0  0  0  0  0  0  0  0  0  0  0
    1.3711    0.3903   -0.6988 O   0  0  0  0  0  0  0  0  0  0  0  0
    0.3793    0.1444    0.2046 C   0  0  0  0  0  0  0  0  0  0  0  0
   -0.4497    1.3421    0.5201 C   0  0  0  0  0  0  0  0  0  0  0  0
   -0.2207    2.5581    0.2496 O   0  0  0  0  0  0  0  0  0  0  0  0
   -1.5449    0.7923    1.1898 O   0  0  0  0  0  0  0  0  0  0  0  0
   -1.8987   -0.4164    0.5355 C   0  0  0  0  0  0  0  0  0  0  0  0
   -1.9058   -0.3571   -0.9409 C   0  0  0  0  0  0  0  0  0  0  0  0
   -0.6757   -0.8112   -0.2929 C   0  0  0  0  0  0  0  0  0  0  0  0
    2.7418    0.7626    0.8055 H   0  0  0  0  0  0  0  0  0  0  0  0
    3.4476    0.1827   -0.7975 H   0  0  0  0  0  0  0  0  0  0  0  0
    2.4944   -0.9276    0.3272 H   0  0  0  0  0  0  0  0  0  0  0  0
    0.7879   -0.2084    1.1733 H   0  0  0  0  0  0  0  0  0  0  0  0
   -2.3145   -1.2521    1.1108 H   0  0  0  0  0  0  0  0  0  0  0  0
   -2.4448   -1.1197   -1.5535 H   0  0  0  0  0  0  0  0  0  0  0  0
   -2.0011    0.6611   -1.4020 H   0  0  0  0  0  0  0  0  0  0  0  0
   -0.3632   -1.8536   -0.3327 H   0  0  0  0  0  0  0  0  0  0  0  0
  1  2  1  0
  2  3  1  0
  3  4  1  0
  4  5  2  0
  4  6  1  0
  6  7  1  0
  7  8  1  0
  8  9  1  0
  9  3  1  0
  9  7  1  0
  1 10  1  0
  1 11  1  0
  1 12  1  0
  3 13  1  0
  7 14  1  0
  8 15  1  0
  8 16  1  0
  9 17  1  0
M  END
