
     RDKit          3D

 19 20  0  0  0  0  0  0  0  0999 V2000
    2.9904    0.8052    0.1603 C   0  0  0  0  0  0  0  0  0  0  0  0
    2.1567   -0.2204   -0.3090 O   0  0  0  0  0  0  0  0  0  0  0  0
    0.8266    0.0033    0.0162 C   0  0  0  0  0  0  0  0  0  0  0  0
   -0.1681   -0.4710   -1.0059 C   0  0  0  0  0  0  0  0  0  0  0  0
   -1.2366    0.3468   -1.2143 O   0  0  0  0  0  0  0  0  0  0  0  0
   -2.3687    0.0113   -0.4809 C   0  0  0  0  0  0  0  0  0  0  0  0
   -1.9246   -0.0081    0.9765 C   0  0  0  0  0  0  0  0  0  0  0  0
   -1.1078   -1.0938    1.1353 O   0  0  0  0  0  0  0  0  0  0  0  0
   -0.0577   -1.1528    0.2689 C   0  0  0  0  0  0  0  0  0  0  0  0
    2.7007    1.7805   -0.2771 H   0  0  0  0  0  0  0  0  0  0  0  0
    2.7721    0.9035    1.2640 H   0  0  0  0  0  0  0  0  0  0  0  0
    4.0319    0.5165   -0.0364 H   0  0  0  0  0  0  0  0  0  0  0  0
    0.6504    0.9343    0.5796 H   0  0  0  0  0  0  0  0  0  0  0  0
    0.2176   -0.9824   -1.9060 H   0  0  0  0  0  0  0  0  0  0  0  0
   -2.7298   -0.9694   -0.8219 H   0  0  0  0  0  0  0  0  0  0  0  0
   -3.1119    0.8218   -0.6392 H   0  0  0  0  0  0  0  0  0  0  0  0
   -1.3587    0.9431    1.1292 H   0  0  0  0  0  0  0  0  0  0  0  0
   -2.7579   -0.0202    1.6721 H   0  0  0  0  0  0  0  0  0  0  0  0
    0.4754   -2.1481    0.2749 H   0  0  0  0  0  0  0  0  0  0  0  0
  1  2  1  0
  2  3  1  0
  3  4  1  0
  4  5  1  0
  5  6  1  0
  6  7  1  0
  7  8  1  0
  8  9  1  0
  9  3  1  0
  9  4  1  0
  1 10  1  0
  1 11  1  0
  1 12  1  0
  3 13  1  0
  4 14  1  0
  6 15  1  0
  6 16  1  0
  7 17  1  0
  7 18  1  0
  9 19  1  0
M  END
