
     RDKit          3D

 20 20  0  0  0  0  0  0  0  0999 V2000
    2.0449    0.8933   -0.3329 C   0  0  0  0  0  0  0  0  0  0  0  0
    1.1426   -0.0680   -0.7054 O   0  0  0  0  0  0  0  0  0  0  0  0
    0.2401   -0.4591    0.2331 C   0  0  0  0  0  0  0  0  0  0  0  0
    0.6825   -1.0674    1.5445 C   0  0  0  0  0  0  0  0  0  0  0  0
   -1.1504    0.2201    0.2446 C   0  0  0  0  0  0  0  0  0  0  0  0
   -1.3068    1.4483   -0.6321 C   0  0  0  0  0  0  0  0  0  0  0  0
   -1.0169   -1.1191   -0.3569 C   0  0  0  0  0  0  0  0  0  0  0  0
   -1.0847   -1.2772   -1.7332 O   0  0  0  0  0  0  0  0  0  0  0  0
    2.6924    0.6148    0.5208 H   0  0  0  0  0  0  0  0  0  0  0  0
    2.6761    1.1265   -1.2160 H   0  0  0  0  0  0  0  0  0  0  0  0
    1.5016    1.8340   -0.0944 H   0  0  0  0  0  0  0  0  0  0  0  0
    1.1056   -2.0724    1.3897 H   0  0  0  0  0  0  0  0  0  0  0  0
   -0.2483   -1.2297    2.1612 H   0  0  0  0  0  0  0  0  0  0  0  0
    1.3612   -0.3913    2.1119 H   0  0  0  0  0  0  0  0  0  0  0  0
   -1.6220    0.3008    1.2331 H   0  0  0  0  0  0  0  0  0  0  0  0
   -1.1643    2.3674   -0.0269 H   0  0  0  0  0  0  0  0  0  0  0  0
   -2.3111    1.4611   -1.1420 H   0  0  0  0  0  0  0  0  0  0  0  0
   -0.4843    1.4299   -1.3802 H   0  0  0  0  0  0  0  0  0  0  0  0
   -1.4675   -1.9621    0.2013 H   0  0  0  0  0  0  0  0  0  0  0  0
   -1.5909   -2.0498   -2.0203 H   0  0  0  0  0  0  0  0  0  0  0  0
  1  2  1  0
  2  3  1  0
  3  4  1  0
  3  5  1  0
  5  6  1  0
  5  7  1  0
  7  8  1  0
  7  3  1  0
  1  9  1  0
  1 10  1  0
  1 11  1  0
  4 12  1  0
  4 13  1  0
  4 14  1  0
  5 15  1  0
  6 16  1  0
  6 17  1  0
  6 18  1  0
  7 19  1  0
  8 20  1  0
M  END
