
     RDKit          3D

 19 20  0  0  0  0  0  0  0  0999 V2000
    2.8741    0.6850   -0.3865 C   0  0  0  0  0  0  0  0  0  0  0  0
    1.5570    0.6858   -0.9027 O   0  0  0  0  0  0  0  0  0  0  0  0
    0.7077   -0.0177   -0.0897 C   0  0  0  0  0  0  0  0  0  0  0  0
   -0.2652   -0.9652   -0.8469 C   0  0  0  0  0  0  0  0  0  0  0  0
   -0.3769   -2.2390   -0.2991 O   0  0  0  0  0  0  0  0  0  0  0  0
   -0.7371    0.1673   -0.0525 C   0  0  0  0  0  0  0  0  0  0  0  0
   -1.5836    0.0254    1.1550 C   0  0  0  0  0  0  0  0  0  0  0  0
   -2.4312    0.9961    0.3810 C   0  0  0  0  0  0  0  0  0  0  0  0
   -1.4138    1.2354   -0.5481 O   0  0  0  0  0  0  0  0  0  0  0  0
    2.8581    1.1507    0.6068 H   0  0  0  0  0  0  0  0  0  0  0  0
    3.5781    1.1233   -1.0993 H   0  0  0  0  0  0  0  0  0  0  0  0
    3.1416   -0.4026   -0.3067 H   0  0  0  0  0  0  0  0  0  0  0  0
    1.1943   -0.4612    0.8227 H   0  0  0  0  0  0  0  0  0  0  0  0
   -0.2527   -0.8947   -1.9566 H   0  0  0  0  0  0  0  0  0  0  0  0
    0.2298   -2.8733   -0.7689 H   0  0  0  0  0  0  0  0  0  0  0  0
   -1.0994    0.4350    2.0609 H   0  0  0  0  0  0  0  0  0  0  0  0
   -1.9914   -1.0022    1.2431 H   0  0  0  0  0  0  0  0  0  0  0  0
   -3.3211    0.4781   -0.0248 H   0  0  0  0  0  0  0  0  0  0  0  0
   -2.6683    1.8738    1.0124 H   0  0  0  0  0  0  0  0  0  0  0  0
  1  2  1  0
  2  3  1  0
  3  4  1  0
  4  5  1  0
  4  6  1  0
  6  7  1  0
  7  8  1  0
  8  9  1  0
  6  3  1  0
  9  6  1  0
  1 10  1  0
  1 11  1  0
  1 12  1  0
  3 13  1  0
  4 14  1  0
  5 15  1  0
  7 16  1  0
  7 17  1  0
  8 18  1  0
  8 19  1  0
M  END
