
     RDKit          3D

 21 21  0  0  0  0  0  0  0  0999 V2000
    2.9010    0.1416    0.3907 C   0  0  0  0  0  0  0  0  0  0  0  0
    1.9203    0.3599   -0.5525 O   0  0  0  0  0  0  0  0  0  0  0  0
    0.6390    0.2050   -0.0787 C   0  0  0  0  0  0  0  0  0  0  0  0
   -0.0269    1.4091   -0.2354 O   0  0  0  0  0  0  0  0  0  0  0  0
   -1.1157    1.4414    0.6335 C   0  0  0  0  0  0  0  0  0  0  0  0
   -1.7576    0.0903    0.7999 C   0  0  0  0  0  0  0  0  0  0  0  0
   -1.5898   -0.7181   -0.4757 C   0  0  0  0  0  0  0  0  0  0  0  0
   -0.1412   -0.8426   -0.8435 C   0  0  0  0  0  0  0  0  0  0  0  0
   -0.0070   -0.6458   -2.2280 O   0  0  0  0  0  0  0  0  0  0  0  0
    2.8460    0.8166    1.2612 H   0  0  0  0  0  0  0  0  0  0  0  0
    2.8453   -0.9229    0.7113 H   0  0  0  0  0  0  0  0  0  0  0  0
    3.8836    0.3066   -0.1232 H   0  0  0  0  0  0  0  0  0  0  0  0
    0.5872   -0.0741    0.9980 H   0  0  0  0  0  0  0  0  0  0  0  0
   -0.8068    1.7863    1.6628 H   0  0  0  0  0  0  0  0  0  0  0  0
   -1.8179    2.2073    0.2325 H   0  0  0  0  0  0  0  0  0  0  0  0
   -1.3454   -0.4475    1.6744 H   0  0  0  0  0  0  0  0  0  0  0  0
   -2.8710    0.1731    0.9580 H   0  0  0  0  0  0  0  0  0  0  0  0
   -2.0673   -1.7137   -0.3217 H   0  0  0  0  0  0  0  0  0  0  0  0
   -2.1508   -0.1790   -1.2787 H   0  0  0  0  0  0  0  0  0  0  0  0
    0.1957   -1.8502   -0.5429 H   0  0  0  0  0  0  0  0  0  0  0  0
   -0.1206   -1.5435   -2.6420 H   0  0  0  0  0  0  0  0  0  0  0  0
  1  2  1  0
  2  3  1  0
  3  4  1  0
  4  5  1  0
  5  6  1  0
  6  7  1  0
  7  8  1  0
  8  9  1  0
  8  3  1  0
  1 10  1  0
  1 11  1  0
  1 12  1  0
  3 13  1  0
  5 14  1  0
  5 15  1  0
  6 16  1  0
  6 17  1  0
  7 18  1  0
  7 19  1  0
  8 20  1  0
  9 21  1  0
M  END
