
     RDKit          3D

 21 22  0  0  0  0  0  0  0  0999 V2000
    2.4976   -0.8583   -0.1039 C   0  0  0  0  0  0  0  0  0  0  0  0
    1.3134   -0.7000   -0.7749 O   0  0  0  0  0  0  0  0  0  0  0  0
    0.3892    0.0869   -0.1530 C   0  0  0  0  0  0  0  0  0  0  0  0
    0.8137    1.5375   -0.0157 C   0  0  0  0  0  0  0  0  0  0  0  0
    0.0155   -0.4166    1.1216 O   0  0  0  0  0  0  0  0  0  0  0  0
   -1.3431   -0.4914    1.0414 C   0  0  0  0  0  0  0  0  0  0  0  0
   -1.5252   -1.2460   -0.2850 C   0  0  0  0  0  0  0  0  0  0  0  0
   -0.9306    0.0346   -0.8421 C   0  0  0  0  0  0  0  0  0  0  0  0
   -1.7930    0.7310    0.2225 C   0  0  0  0  0  0  0  0  0  0  0  0
    3.1471   -1.5237   -0.7352 H   0  0  0  0  0  0  0  0  0  0  0  0
    3.0354    0.0902    0.0360 H   0  0  0  0  0  0  0  0  0  0  0  0
    2.3363   -1.3914    0.8538 H   0  0  0  0  0  0  0  0  0  0  0  0
    0.7289    1.8957    1.0398 H   0  0  0  0  0  0  0  0  0  0  0  0
    0.1812    2.1807   -0.6936 H   0  0  0  0  0  0  0  0  0  0  0  0
    1.8536    1.7099   -0.3402 H   0  0  0  0  0  0  0  0  0  0  0  0
   -1.9495   -0.7826    1.8562 H   0  0  0  0  0  0  0  0  0  0  0  0
   -2.5965   -1.3833   -0.5350 H   0  0  0  0  0  0  0  0  0  0  0  0
   -0.8837   -2.1320   -0.3821 H   0  0  0  0  0  0  0  0  0  0  0  0
   -1.0657    0.2911   -1.8472 H   0  0  0  0  0  0  0  0  0  0  0  0
   -1.3810    1.6685    0.5938 H   0  0  0  0  0  0  0  0  0  0  0  0
   -2.8435    0.6994   -0.0572 H   0  0  0  0  0  0  0  0  0  0  0  0
  1  2  1  0
  2  3  1  0
  3  4  1  0
  3  5  1  0
  5  6  1  0
  6  7  1  0
  7  8  1  0
  8  9  1  0
  8  3  1  0
  9  6  1  0
  1 10  1  0
  1 11  1  0
  1 12  1  0
  4 13  1  0
  4 14  1  0
  4 15  1  0
  6 16  1  0
  7 17  1  0
  7 18  1  0
  8 19  1  0
  9 20  1  0
  9 21  1  0
M  END
