
     RDKit          3D

 19 21  0  0  0  0  0  0  0  0999 V2000
    2.4357    0.8644    0.1961 C   0  0  0  0  0  0  0  0  0  0  0  0
    1.2969    0.2288    0.6786 O   0  0  0  0  0  0  0  0  0  0  0  0
    0.5409   -0.3461   -0.3194 C   0  0  0  0  0  0  0  0  0  0  0  0
    0.2876   -1.8415   -0.1061 C   0  0  0  0  0  0  0  0  0  0  0  0
   -0.6820   -2.4495   -0.8494 O   0  0  0  0  0  0  0  0  0  0  0  0
   -1.1996   -1.5508    0.0438 C   0  0  0  0  0  0  0  0  0  0  0  0
   -0.9031   -0.1226   -0.1165 C   0  0  0  0  0  0  0  0  0  0  0  0
   -1.3775    0.9599    0.7282 C   0  0  0  0  0  0  0  0  0  0  0  0
   -1.7212    0.8771   -0.7664 C   0  0  0  0  0  0  0  0  0  0  0  0
    2.9824    1.2950    1.0470 H   0  0  0  0  0  0  0  0  0  0  0  0
    3.1171    0.1536   -0.3418 H   0  0  0  0  0  0  0  0  0  0  0  0
    2.1731    1.6539   -0.5129 H   0  0  0  0  0  0  0  0  0  0  0  0
    0.9556   -0.2126   -1.3372 H   0  0  0  0  0  0  0  0  0  0  0  0
    0.8204   -2.3464    0.7082 H   0  0  0  0  0  0  0  0  0  0  0  0
   -1.7573   -1.9756    0.8765 H   0  0  0  0  0  0  0  0  0  0  0  0
   -0.6195    1.7398    1.0169 H   0  0  0  0  0  0  0  0  0  0  0  0
   -2.1881    0.7523    1.4486 H   0  0  0  0  0  0  0  0  0  0  0  0
   -1.3583    1.6874   -1.4176 H   0  0  0  0  0  0  0  0  0  0  0  0
   -2.8031    0.6327   -0.9765 H   0  0  0  0  0  0  0  0  0  0  0  0
  1  2  1  0
  2  3  1  0
  3  4  1  0
  4  5  1  0
  5  6  1  0
  6  7  1  0
  7  8  1  0
  8  9  1  0
  7  3  1  0
  6  4  1  0
  9  7  1  0
  1 10  1  0
  1 11  1  0
  1 12  1  0
  3 13  1  0
  4 14  1  0
  6 15  1  0
  8 16  1  0
  8 17  1  0
  9 18  1  0
  9 19  1  0
M  END
