
     RDKit          3D

 21 22  0  0  0  0  0  0  0  0999 V2000
    2.8262    0.7810    0.7497 C   0  0  0  0  0  0  0  0  0  0  0  0
    1.4337    0.9317    0.9478 O   0  0  0  0  0  0  0  0  0  0  0  0
    0.8220   -0.0674    0.2358 C   0  0  0  0  0  0  0  0  0  0  0  0
    0.0051   -0.8908    1.0099 O   0  0  0  0  0  0  0  0  0  0  0  0
   -0.5348   -1.7238    0.0024 C   0  0  0  0  0  0  0  0  0  0  0  0
   -1.1208   -0.7108   -0.9364 C   0  0  0  0  0  0  0  0  0  0  0  0
   -1.5828    0.6124   -0.4455 C   0  0  0  0  0  0  0  0  0  0  0  0
   -2.0522    0.6669    0.9733 C   0  0  0  0  0  0  0  0  0  0  0  0
   -0.1446    0.4786   -0.7724 C   0  0  0  0  0  0  0  0  0  0  0  0
    3.0854   -0.2322    1.1341 H   0  0  0  0  0  0  0  0  0  0  0  0
    3.0491    0.7658   -0.3542 H   0  0  0  0  0  0  0  0  0  0  0  0
    3.3956    1.5857    1.2215 H   0  0  0  0  0  0  0  0  0  0  0  0
    1.5447   -0.7353   -0.3094 H   0  0  0  0  0  0  0  0  0  0  0  0
   -1.2362   -2.4535    0.3887 H   0  0  0  0  0  0  0  0  0  0  0  0
    0.3582   -2.1631   -0.5075 H   0  0  0  0  0  0  0  0  0  0  0  0
   -1.3024   -0.9841   -1.9919 H   0  0  0  0  0  0  0  0  0  0  0  0
   -2.1767    1.2009   -1.1836 H   0  0  0  0  0  0  0  0  0  0  0  0
   -2.8842    1.4149    1.1099 H   0  0  0  0  0  0  0  0  0  0  0  0
   -2.5083   -0.3106    1.2816 H   0  0  0  0  0  0  0  0  0  0  0  0
   -1.2827    0.9346    1.7047 H   0  0  0  0  0  0  0  0  0  0  0  0
    0.3059    0.8992   -1.6769 H   0  0  0  0  0  0  0  0  0  0  0  0
  1  2  1  0
  2  3  1  0
  3  4  1  0
  4  5  1  0
  5  6  1  0
  6  7  1  0
  7  8  1  0
  7  9  1  0
  9  3  1  0
  9  6  1  0
  1 10  1  0
  1 11  1  0
  1 12  1  0
  3 13  1  0
  5 14  1  0
  5 15  1  0
  6 16  1  0
  7 17  1  0
  8 18  1  0
  8 19  1  0
  8 20  1  0
  9 21  1  0
M  END
