
     RDKit          3D

 21 22  0  0  0  0  0  0  0  0999 V2000
    2.0811   -0.8980    0.9478 C   0  0  0  0  0  0  0  0  0  0  0  0
    1.2361    0.1103    0.5639 O   0  0  0  0  0  0  0  0  0  0  0  0
    0.0950   -0.2540   -0.0681 C   0  0  0  0  0  0  0  0  0  0  0  0
    0.1967   -1.0144   -1.3577 C   0  0  0  0  0  0  0  0  0  0  0  0
   -1.0425   -0.7597    0.8091 C   0  0  0  0  0  0  0  0  0  0  0  0
   -1.7078    0.6218    0.7696 C   0  0  0  0  0  0  0  0  0  0  0  0
   -0.7578    0.9997   -0.2887 C   0  0  0  0  0  0  0  0  0  0  0  0
   -0.1840    2.1810   -0.6518 C   0  0  0  0  0  0  0  0  0  0  0  0
   -1.0978    1.3871   -1.5399 O   0  0  0  0  0  0  0  0  0  0  0  0
    2.4563   -1.5267    0.1132 H   0  0  0  0  0  0  0  0  0  0  0  0
    2.9956   -0.4110    1.3787 H   0  0  0  0  0  0  0  0  0  0  0  0
    1.6661   -1.5107    1.7858 H   0  0  0  0  0  0  0  0  0  0  0  0
    1.0744   -1.6452   -1.4497 H   0  0  0  0  0  0  0  0  0  0  0  0
    0.1909   -0.2912   -2.2114 H   0  0  0  0  0  0  0  0  0  0  0  0
   -0.6927   -1.6621   -1.5118 H   0  0  0  0  0  0  0  0  0  0  0  0
   -0.7683   -1.0105    1.8363 H   0  0  0  0  0  0  0  0  0  0  0  0
   -1.6660   -1.5171    0.2742 H   0  0  0  0  0  0  0  0  0  0  0  0
   -1.5536    1.2178    1.6947 H   0  0  0  0  0  0  0  0  0  0  0  0
   -2.7633    0.5476    0.4694 H   0  0  0  0  0  0  0  0  0  0  0  0
    0.8388    2.2422   -1.1144 H   0  0  0  0  0  0  0  0  0  0  0  0
   -0.5972    3.1931   -0.4492 H   0  0  0  0  0  0  0  0  0  0  0  0
  1  2  1  0
  2  3  1  0
  3  4  1  0
  3  5  1  0
  5  6  1  0
  6  7  1  0
  7  8  1  0
  8  9  1  0
  7  3  1  0
  9  7  1  0
  1 10  1  0
  1 11  1  0
  1 12  1  0
  4 13  1  0
  4 14  1  0
  4 15  1  0
  5 16  1  0
  5 17  1  0
  6 18  1  0
  6 19  1  0
  8 20  1  0
  8 21  1  0
M  END
