
     RDKit          3D

 21 21  0  0  0  0  0  0  0  0999 V2000
    2.6638   -0.0530   -0.2478 C   0  0  0  0  0  0  0  0  0  0  0  0
    1.5091   -0.4143   -0.9744 O   0  0  0  0  0  0  0  0  0  0  0  0
    0.4158    0.0277   -0.2845 C   0  0  0  0  0  0  0  0  0  0  0  0
   -0.4764    0.9606   -1.0377 C   0  0  0  0  0  0  0  0  0  0  0  0
   -1.6048    1.3910   -0.1452 C   0  0  0  0  0  0  0  0  0  0  0  0
   -2.2321    0.3771    0.5164 O   0  0  0  0  0  0  0  0  0  0  0  0
   -1.4160   -0.4756    1.2129 C   0  0  0  0  0  0  0  0  0  0  0  0
   -0.4761   -1.1288    0.1900 C   0  0  0  0  0  0  0  0  0  0  0  0
    0.2563   -2.1502    0.7327 O   0  0  0  0  0  0  0  0  0  0  0  0
    3.5389   -0.4048   -0.7963 H   0  0  0  0  0  0  0  0  0  0  0  0
    2.6885    1.0536   -0.0907 H   0  0  0  0  0  0  0  0  0  0  0  0
    2.6420   -0.5740    0.7546 H   0  0  0  0  0  0  0  0  0  0  0  0
    0.7067    0.5579    0.6700 H   0  0  0  0  0  0  0  0  0  0  0  0
   -0.9131    0.4065   -1.9058 H   0  0  0  0  0  0  0  0  0  0  0  0
    0.0243    1.8712   -1.4113 H   0  0  0  0  0  0  0  0  0  0  0  0
   -2.3725    1.8656   -0.8255 H   0  0  0  0  0  0  0  0  0  0  0  0
   -1.2520    2.2239    0.4995 H   0  0  0  0  0  0  0  0  0  0  0  0
   -0.7496    0.0534    1.9437 H   0  0  0  0  0  0  0  0  0  0  0  0
   -2.0312   -1.2123    1.7363 H   0  0  0  0  0  0  0  0  0  0  0  0
   -1.1074   -1.4209   -0.6747 H   0  0  0  0  0  0  0  0  0  0  0  0
    0.1858   -2.9547    0.1378 H   0  0  0  0  0  0  0  0  0  0  0  0
  1  2  1  0
  2  3  1  0
  3  4  1  0
  4  5  1  0
  5  6  1  0
  6  7  1  0
  7  8  1  0
  8  9  1  0
  8  3  1  0
  1 10  1  0
  1 11  1  0
  1 12  1  0
  3 13  1  0
  4 14  1  0
  4 15  1  0
  5 16  1  0
  5 17  1  0
  7 18  1  0
  7 19  1  0
  8 20  1  0
  9 21  1  0
M  END
