
     RDKit          3D

 15 16  0  0  0  0  0  0  0  0999 V2000
   -2.6524   -0.0801   -0.0534 C   0  0  0  0  0  0  0  0  0  0  0  0
   -1.3850   -0.4310   -0.4718 O   0  0  0  0  0  0  0  0  0  0  0  0
   -0.3620    0.1976    0.2678 C   0  0  0  0  0  0  0  0  0  0  0  0
    0.7490    0.6183   -0.4749 C   0  0  0  0  0  0  0  0  0  0  0  0
    1.7383   -0.0189   -1.2259 O   0  0  0  0  0  0  0  0  0  0  0  0
    2.7678   -0.2184   -0.2753 C   0  0  0  0  0  0  0  0  0  0  0  0
    4.0089   -0.3885   -0.5017 O   0  0  0  0  0  0  0  0  0  0  0  0
    2.1011   -0.1846    0.9707 O   0  0  0  0  0  0  0  0  0  0  0  0
    0.7981   -0.5059    0.6457 C   0  0  0  0  0  0  0  0  0  0  0  0
   -2.8251   -0.3516    1.0125 H   0  0  0  0  0  0  0  0  0  0  0  0
   -3.3674   -0.5747   -0.7231 H   0  0  0  0  0  0  0  0  0  0  0  0
   -2.7293    1.0273   -0.1404 H   0  0  0  0  0  0  0  0  0  0  0  0
   -0.8131    0.8598    1.0479 H   0  0  0  0  0  0  0  0  0  0  0  0
    1.1673    1.6242   -0.1525 H   0  0  0  0  0  0  0  0  0  0  0  0
    0.8036   -1.5733    0.2558 H   0  0  0  0  0  0  0  0  0  0  0  0
  1  2  1  0
  2  3  1  0
  3  4  1  0
  4  5  1  0
  5  6  1  0
  6  7  2  0
  6  8  1  0
  8  9  1  0
  9  3  1  0
  9  4  1  0
  1 10  1  0
  1 11  1  0
  1 12  1  0
  3 13  1  0
  4 14  1  0
  9 15  1  0
M  END
