
     RDKit          3D

 19 19  0  0  0  0  0  0  0  0999 V2000
   -2.6853   -0.8164    0.2305 C   0  0  0  0  0  0  0  0  0  0  0  0
   -1.3521   -0.6304    0.5397 O   0  0  0  0  0  0  0  0  0  0  0  0
   -0.7167   -0.0233   -0.5300 C   0  0  0  0  0  0  0  0  0  0  0  0
   -0.2441    1.3368   -0.1470 C   0  0  0  0  0  0  0  0  0  0  0  0
    0.9798    1.8067    0.0536 C   0  0  0  0  0  0  0  0  0  0  0  0
    2.1812    0.9886   -0.0810 C   0  0  0  0  0  0  0  0  0  0  0  0
    2.3491   -0.3281   -0.1719 C   0  0  0  0  0  0  0  0  0  0  0  0
    1.1851   -1.2910   -0.1469 C   0  0  0  0  0  0  0  0  0  0  0  0
    0.2832   -0.7989   -1.0811 O   0  0  0  0  0  0  0  0  0  0  0  0
   -3.2424   -1.3014    1.0572 H   0  0  0  0  0  0  0  0  0  0  0  0
   -3.2236    0.1494    0.0350 H   0  0  0  0  0  0  0  0  0  0  0  0
   -2.7816   -1.3870   -0.7334 H   0  0  0  0  0  0  0  0  0  0  0  0
   -1.4714    0.1354   -1.3247 H   0  0  0  0  0  0  0  0  0  0  0  0
   -1.0593    2.0427   -0.0166 H   0  0  0  0  0  0  0  0  0  0  0  0
    1.0864    2.8463    0.3299 H   0  0  0  0  0  0  0  0  0  0  0  0
    3.1139    1.5394   -0.1143 H   0  0  0  0  0  0  0  0  0  0  0  0
    3.3308   -0.7317   -0.2660 H   0  0  0  0  0  0  0  0  0  0  0  0
    0.7440   -1.2218    0.8642 H   0  0  0  0  0  0  0  0  0  0  0  0
    1.5230   -2.3156   -0.3522 H   0  0  0  0  0  0  0  0  0  0  0  0
  1  2  1  0
  2  3  1  0
  3  4  1  0
  4  5  2  0
  5  6  1  0
  6  7  2  0
  7  8  1  0
  8  9  1  0
  9  3  1  0
  1 10  1  0
  1 11  1  0
  1 12  1  0
  3 13  1  0
  4 14  1  0
  5 15  1  0
  6 16  1  0
  7 17  1  0
  8 18  1  0
  8 19  1  0
M  END
