
     RDKit          3D

 20 20  0  0  0  0  0  0  0  0999 V2000
   -2.1987    0.7112    1.3357 C   0  0  0  0  0  0  0  0  0  0  0  0
   -1.3583   -0.3166    0.9225 O   0  0  0  0  0  0  0  0  0  0  0  0
   -0.5856    0.1155   -0.1561 C   0  0  0  0  0  0  0  0  0  0  0  0
   -0.6060   -0.8256   -1.3471 C   0  0  0  0  0  0  0  0  0  0  0  0
    0.8952   -0.9654   -1.2157 C   0  0  0  0  0  0  0  0  0  0  0  0
    0.8589   -0.2508    0.1037 C   0  0  0  0  0  0  0  0  0  0  0  0
    1.7149    0.9820    0.2130 C   0  0  0  0  0  0  0  0  0  0  0  0
    1.0722   -1.1325    1.1504 O   0  0  0  0  0  0  0  0  0  0  0  0
   -2.8422    0.9551    0.4425 H   0  0  0  0  0  0  0  0  0  0  0  0
   -2.8406    0.3036    2.1412 H   0  0  0  0  0  0  0  0  0  0  0  0
   -1.5756    1.5631    1.6480 H   0  0  0  0  0  0  0  0  0  0  0  0
   -0.7663    1.1512   -0.4804 H   0  0  0  0  0  0  0  0  0  0  0  0
   -1.1811   -1.7569   -1.1475 H   0  0  0  0  0  0  0  0  0  0  0  0
   -0.8700   -0.3275   -2.3007 H   0  0  0  0  0  0  0  0  0  0  0  0
    1.1506   -2.0450   -1.1399 H   0  0  0  0  0  0  0  0  0  0  0  0
    1.4642   -0.4863   -2.0220 H   0  0  0  0  0  0  0  0  0  0  0  0
    1.3875    1.7528   -0.5019 H   0  0  0  0  0  0  0  0  0  0  0  0
    1.5366    1.4052    1.2301 H   0  0  0  0  0  0  0  0  0  0  0  0
    2.7923    0.7437    0.1604 H   0  0  0  0  0  0  0  0  0  0  0  0
    1.9522   -1.5768    0.9640 H   0  0  0  0  0  0  0  0  0  0  0  0
  1  2  1  0
  2  3  1  0
  3  4  1  0
  4  5  1  0
  5  6  1  0
  6  7  1  0
  6  8  1  0
  6  3  1  0
  1  9  1  0
  1 10  1  0
  1 11  1  0
  3 12  1  0
  4 13  1  0
  4 14  1  0
  5 15  1  0
  5 16  1  0
  7 17  1  0
  7 18  1  0
  7 19  1  0
  8 20  1  0
M  END
