
     RDKit          3D

 14 15  0  0  0  0  0  0  0  0999 V2000
   -2.3887    0.2113    0.1827 C   0  0  0  0  0  0  0  0  0  0  0  0
   -1.2043    0.2079    0.8946 O   0  0  0  0  0  0  0  0  0  0  0  0
   -0.1569   -0.0649    0.0204 C   0  0  0  0  0  0  0  0  0  0  0  0
    0.9166   -0.8583    0.5083 C   0  0  0  0  0  0  0  0  0  0  0  0
    2.0557   -0.4549    1.2841 O   0  0  0  0  0  0  0  0  0  0  0  0
    2.4623    0.0451    0.0606 C   0  0  0  0  0  0  0  0  0  0  0  0
    3.4679   -0.0186   -0.6384 O   0  0  0  0  0  0  0  0  0  0  0  0
    1.1172    0.6506    0.0642 C   0  0  0  0  0  0  0  0  0  0  0  0
   -2.3881    0.9873   -0.6284 H   0  0  0  0  0  0  0  0  0  0  0  0
   -3.2174    0.4859    0.8610 H   0  0  0  0  0  0  0  0  0  0  0  0
   -2.5827   -0.7606   -0.3315 H   0  0  0  0  0  0  0  0  0  0  0  0
   -0.5248   -0.2141   -1.0377 H   0  0  0  0  0  0  0  0  0  0  0  0
    1.3322   -1.6061   -0.2407 H   0  0  0  0  0  0  0  0  0  0  0  0
    1.1109    1.3893    0.9305 H   0  0  0  0  0  0  0  0  0  0  0  0
  1  2  1  0
  2  3  1  0
  3  4  1  0
  4  5  1  0
  5  6  1  0
  6  7  2  0
  6  8  1  0
  8  3  1  0
  8  4  1  0
  1  9  1  0
  1 10  1  0
  1 11  1  0
  3 12  1  0
  4 13  1  0
  8 14  1  0
M  END
