
     RDKit          3D

 21 22  0  0  0  0  0  0  0  0999 V2000
    2.7111    0.9451   -0.1753 C   0  0  0  0  0  0  0  0  0  0  0  0
    1.3889    1.0076    0.3020 O   0  0  0  0  0  0  0  0  0  0  0  0
    0.8416   -0.2428    0.4650 C   0  0  0  0  0  0  0  0  0  0  0  0
   -0.0254   -0.5603    1.6298 C   0  0  0  0  0  0  0  0  0  0  0  0
   -0.5885   -0.5169    0.2338 C   0  0  0  0  0  0  0  0  0  0  0  0
   -0.9506   -1.8414   -0.4325 C   0  0  0  0  0  0  0  0  0  0  0  0
   -1.5977    0.5589    0.0096 C   0  0  0  0  0  0  0  0  0  0  0  0
   -1.5622    1.5081   -1.0539 C   0  0  0  0  0  0  0  0  0  0  0  0
   -2.4787    0.4034   -1.1119 O   0  0  0  0  0  0  0  0  0  0  0  0
    3.3101    0.3809    0.5638 H   0  0  0  0  0  0  0  0  0  0  0  0
    2.6714    0.4062   -1.1580 H   0  0  0  0  0  0  0  0  0  0  0  0
    3.1259    1.9593   -0.3285 H   0  0  0  0  0  0  0  0  0  0  0  0
    1.5442   -1.0754    0.1897 H   0  0  0  0  0  0  0  0  0  0  0  0
    0.0332   -1.5442    2.1352 H   0  0  0  0  0  0  0  0  0  0  0  0
   -0.2187    0.2792    2.3222 H   0  0  0  0  0  0  0  0  0  0  0  0
   -0.4386   -2.6361    0.1337 H   0  0  0  0  0  0  0  0  0  0  0  0
   -2.0383   -1.9942   -0.3723 H   0  0  0  0  0  0  0  0  0  0  0  0
   -0.6094   -1.7842   -1.4892 H   0  0  0  0  0  0  0  0  0  0  0  0
   -2.2134    0.7873    0.9139 H   0  0  0  0  0  0  0  0  0  0  0  0
   -0.8397    1.4544   -1.8813 H   0  0  0  0  0  0  0  0  0  0  0  0
   -2.0650    2.5050   -0.8958 H   0  0  0  0  0  0  0  0  0  0  0  0
  1  2  1  0
  2  3  1  0
  3  4  1  0
  4  5  1  0
  5  6  1  0
  5  7  1  0
  7  8  1  0
  8  9  1  0
  5  3  1  0
  9  7  1  0
  1 10  1  0
  1 11  1  0
  1 12  1  0
  3 13  1  0
  4 14  1  0
  4 15  1  0
  6 16  1  0
  6 17  1  0
  6 18  1  0
  7 19  1  0
  8 20  1  0
  8 21  1  0
M  END
