
     RDKit          3D

 17 18  0  0  0  0  0  0  0  0999 V2000
    2.4883    0.4361   -0.6128 C   0  0  0  0  0  0  0  0  0  0  0  0
    1.3340   -0.3129   -0.6790 O   0  0  0  0  0  0  0  0  0  0  0  0
    0.2709    0.2129    0.0083 C   0  0  0  0  0  0  0  0  0  0  0  0
   -0.9943    0.1146   -0.8367 C   0  0  0  0  0  0  0  0  0  0  0  0
   -2.0220    0.5599    0.1654 C   0  0  0  0  0  0  0  0  0  0  0  0
   -1.5924   -0.1920    1.2904 O   0  0  0  0  0  0  0  0  0  0  0  0
   -0.4916   -0.8590    0.8088 C   0  0  0  0  0  0  0  0  0  0  0  0
   -0.9340   -1.3349   -0.5283 C   0  0  0  0  0  0  0  0  0  0  0  0
   -1.1116   -2.4328   -0.9892 O   0  0  0  0  0  0  0  0  0  0  0  0
    2.3686    1.4708   -1.0248 H   0  0  0  0  0  0  0  0  0  0  0  0
    2.9257    0.5092    0.3957 H   0  0  0  0  0  0  0  0  0  0  0  0
    3.2535   -0.1148   -1.2331 H   0  0  0  0  0  0  0  0  0  0  0  0
    0.4110    1.1565    0.5412 H   0  0  0  0  0  0  0  0  0  0  0  0
   -0.9911    0.4641   -1.8242 H   0  0  0  0  0  0  0  0  0  0  0  0
   -1.9844    1.6309    0.3493 H   0  0  0  0  0  0  0  0  0  0  0  0
   -3.0132    0.1910   -0.1946 H   0  0  0  0  0  0  0  0  0  0  0  0
    0.0828   -1.4995    1.4277 H   0  0  0  0  0  0  0  0  0  0  0  0
  1  2  1  0
  2  3  1  0
  3  4  1  0
  4  5  1  0
  5  6  1  0
  6  7  1  0
  7  8  1  0
  8  9  2  0
  7  3  1  0
  8  4  1  0
  1 10  1  0
  1 11  1  0
  1 12  1  0
  3 13  1  0
  4 14  1  0
  5 15  1  0
  5 16  1  0
  7 17  1  0
M  END
