
     RDKit          3D

 21 22  0  0  0  0  0  0  0  0999 V2000
    2.2137   -1.1245    0.5878 C   0  0  0  0  0  0  0  0  0  0  0  0
    1.2135   -0.6979   -0.2565 O   0  0  0  0  0  0  0  0  0  0  0  0
    0.1767   -0.0585    0.3772 C   0  0  0  0  0  0  0  0  0  0  0  0
   -0.0927    1.2803   -0.3298 C   0  0  0  0  0  0  0  0  0  0  0  0
    1.1739    1.8959   -0.8155 C   0  0  0  0  0  0  0  0  0  0  0  0
   -0.8013    0.5233   -1.2891 O   0  0  0  0  0  0  0  0  0  0  0  0
   -1.1275   -0.3134   -0.2454 C   0  0  0  0  0  0  0  0  0  0  0  0
   -2.4255   -0.2299    0.3999 C   0  0  0  0  0  0  0  0  0  0  0  0
   -1.8856   -1.5144   -0.2994 C   0  0  0  0  0  0  0  0  0  0  0  0
    1.8939   -1.8359    1.3566 H   0  0  0  0  0  0  0  0  0  0  0  0
    2.9705   -1.6542   -0.0593 H   0  0  0  0  0  0  0  0  0  0  0  0
    2.6785   -0.2157    1.0572 H   0  0  0  0  0  0  0  0  0  0  0  0
    0.2408    0.0502    1.4732 H   0  0  0  0  0  0  0  0  0  0  0  0
   -0.7316    1.8910    0.3254 H   0  0  0  0  0  0  0  0  0  0  0  0
    1.5953    1.2622   -1.6131 H   0  0  0  0  0  0  0  0  0  0  0  0
    0.9515    2.9327   -1.1604 H   0  0  0  0  0  0  0  0  0  0  0  0
    1.8869    1.9315    0.0369 H   0  0  0  0  0  0  0  0  0  0  0  0
   -2.5484   -0.2733    1.4820 H   0  0  0  0  0  0  0  0  0  0  0  0
   -3.2511    0.2897   -0.1645 H   0  0  0  0  0  0  0  0  0  0  0  0
   -2.4188   -1.7895   -1.2458 H   0  0  0  0  0  0  0  0  0  0  0  0
   -1.7126   -2.3496    0.3827 H   0  0  0  0  0  0  0  0  0  0  0  0
  1  2  1  0
  2  3  1  0
  3  4  1  0
  4  5  1  0
  4  6  1  0
  6  7  1  0
  7  8  1  0
  8  9  1  0
  7  3  1  0
  9  7  1  0
  1 10  1  0
  1 11  1  0
  1 12  1  0
  3 13  1  0
  4 14  1  0
  5 15  1  0
  5 16  1  0
  5 17  1  0
  8 18  1  0
  8 19  1  0
  9 20  1  0
  9 21  1  0
M  END
