
     RDKit          3D

 17 17  0  0  0  0  0  0  0  0999 V2000
   -1.6551   -1.4915    0.3636 C   0  0  0  0  0  0  0  0  0  0  0  0
   -1.5988   -0.4638   -0.5503 O   0  0  0  0  0  0  0  0  0  0  0  0
   -0.5500    0.4132   -0.2628 C   0  0  0  0  0  0  0  0  0  0  0  0
    0.8064   -0.1362   -0.2546 C   0  0  0  0  0  0  0  0  0  0  0  0
    1.9271   -0.5885   -0.2367 C   0  0  0  0  0  0  0  0  0  0  0  0
    3.2815   -1.1100   -0.2166 C   0  0  0  0  0  0  0  0  0  0  0  0
    3.7478   -1.7394    0.7442 O   0  0  0  0  0  0  0  0  0  0  0  0
   -0.8073    1.5885    0.6470 C   0  0  0  0  0  0  0  0  0  0  0  0
   -0.7734    1.8012   -0.8262 C   0  0  0  0  0  0  0  0  0  0  0  0
   -0.7000   -2.0419    0.3230 H   0  0  0  0  0  0  0  0  0  0  0  0
   -2.5205   -2.1363    0.1275 H   0  0  0  0  0  0  0  0  0  0  0  0
   -1.7741   -1.1060    1.3957 H   0  0  0  0  0  0  0  0  0  0  0  0
    3.8893   -0.9266   -1.0926 H   0  0  0  0  0  0  0  0  0  0  0  0
   -1.7338    1.6550    1.2309 H   0  0  0  0  0  0  0  0  0  0  0  0
    0.0784    1.9780    1.1888 H   0  0  0  0  0  0  0  0  0  0  0  0
    0.1185    2.2514   -1.2935 H   0  0  0  0  0  0  0  0  0  0  0  0
   -1.7358    2.0528   -1.2873 H   0  0  0  0  0  0  0  0  0  0  0  0
  1  2  1  0
  2  3  1  0
  3  4  1  0
  4  5  3  0
  5  6  1  0
  6  7  2  0
  3  8  1  0
  8  9  1  0
  9  3  1  0
  1 10  1  0
  1 11  1  0
  1 12  1  0
  6 13  1  0
  8 14  1  0
  8 15  1  0
  9 16  1  0
  9 17  1  0
M  END
