
     RDKit          3D

 19 20  0  0  0  0  0  0  0  0999 V2000
    3.1476    0.2455    0.5840 C   0  0  0  0  0  0  0  0  0  0  0  0
    2.1453   -0.6857    0.2699 O   0  0  0  0  0  0  0  0  0  0  0  0
    0.9691    0.0062    0.0024 C   0  0  0  0  0  0  0  0  0  0  0  0
    0.4957   -0.2240   -1.3806 C   0  0  0  0  0  0  0  0  0  0  0  0
   -0.8200   -0.3214   -1.3345 C   0  0  0  0  0  0  0  0  0  0  0  0
   -1.2419   -0.1599    0.0684 C   0  0  0  0  0  0  0  0  0  0  0  0
   -2.5272   -0.7928    0.4487 C   0  0  0  0  0  0  0  0  0  0  0  0
   -2.3220    0.6954    0.5102 C   0  0  0  0  0  0  0  0  0  0  0  0
   -0.0816   -0.3844    0.8076 O   0  0  0  0  0  0  0  0  0  0  0  0
    4.0970   -0.2884    0.8012 H   0  0  0  0  0  0  0  0  0  0  0  0
    2.8569    0.8196    1.5102 H   0  0  0  0  0  0  0  0  0  0  0  0
    3.3045    0.9508   -0.2406 H   0  0  0  0  0  0  0  0  0  0  0  0
    1.1178    1.1135    0.1040 H   0  0  0  0  0  0  0  0  0  0  0  0
    1.1387   -0.3003   -2.2914 H   0  0  0  0  0  0  0  0  0  0  0  0
   -1.4359   -0.4895   -2.1951 H   0  0  0  0  0  0  0  0  0  0  0  0
   -3.1755   -1.2036   -0.3550 H   0  0  0  0  0  0  0  0  0  0  0  0
   -2.5434   -1.3957    1.3770 H   0  0  0  0  0  0  0  0  0  0  0  0
   -2.8713    1.3092   -0.2386 H   0  0  0  0  0  0  0  0  0  0  0  0
   -2.2540    1.1056    1.5522 H   0  0  0  0  0  0  0  0  0  0  0  0
  1  2  1  0
  2  3  1  0
  3  4  1  0
  4  5  2  0
  5  6  1  0
  6  7  1  0
  7  8  1  0
  6  9  1  0
  9  3  1  0
  8  6  1  0
  1 10  1  0
  1 11  1  0
  1 12  1  0
  3 13  1  0
  4 14  1  0
  5 15  1  0
  7 16  1  0
  7 17  1  0
  8 18  1  0
  8 19  1  0
M  END
