
     RDKit          3D

 20 21  0  0  0  0  0  0  0  0999 V2000
    2.7105   -0.0436    0.0716 C   0  0  0  0  0  0  0  0  0  0  0  0
    1.4206    0.1363    0.6225 O   0  0  0  0  0  0  0  0  0  0  0  0
    0.4425   -0.2959   -0.2383 C   0  0  0  0  0  0  0  0  0  0  0  0
   -0.6686    0.7065   -0.3687 C   0  0  0  0  0  0  0  0  0  0  0  0
   -0.6076    1.9011    0.5192 C   0  0  0  0  0  0  0  0  0  0  0  0
   -1.6628   -0.3344    0.1540 C   0  0  0  0  0  0  0  0  0  0  0  0
   -1.7051   -1.5910   -0.6014 C   0  0  0  0  0  0  0  0  0  0  0  0
   -0.5619   -1.2693    0.3282 C   0  0  0  0  0  0  0  0  0  0  0  0
    3.4504    0.3237    0.8136 H   0  0  0  0  0  0  0  0  0  0  0  0
    2.8464    0.5226   -0.8575 H   0  0  0  0  0  0  0  0  0  0  0  0
    2.8527   -1.1483   -0.0709 H   0  0  0  0  0  0  0  0  0  0  0  0
    0.8181   -0.7121   -1.2166 H   0  0  0  0  0  0  0  0  0  0  0  0
   -0.8912    0.9466   -1.4273 H   0  0  0  0  0  0  0  0  0  0  0  0
   -0.8914    2.8333   -0.0505 H   0  0  0  0  0  0  0  0  0  0  0  0
    0.3915    2.0805    0.9356 H   0  0  0  0  0  0  0  0  0  0  0  0
   -1.3967    1.8338    1.3228 H   0  0  0  0  0  0  0  0  0  0  0  0
   -2.3853   -0.0413    0.9075 H   0  0  0  0  0  0  0  0  0  0  0  0
   -2.3842   -2.4105   -0.3589 H   0  0  0  0  0  0  0  0  0  0  0  0
   -1.4263   -1.5728   -1.6899 H   0  0  0  0  0  0  0  0  0  0  0  0
   -0.3517   -1.8652    1.2050 H   0  0  0  0  0  0  0  0  0  0  0  0
  1  2  1  0
  2  3  1  0
  3  4  1  0
  4  5  1  0
  4  6  1  0
  6  7  1  0
  7  8  1  0
  8  3  1  0
  8  6  1  0
  1  9  1  0
  1 10  1  0
  1 11  1  0
  3 12  1  0
  4 13  1  0
  5 14  1  0
  5 15  1  0
  5 16  1  0
  6 17  1  0
  7 18  1  0
  7 19  1  0
  8 20  1  0
M  END
