
     RDKit          3D

 23 24  0  0  0  0  0  0  0  0999 V2000
    2.9930   -1.0889   -0.4533 C   0  0  0  0  0  0  0  0  0  0  0  0
    1.6878   -0.8823   -0.9481 O   0  0  0  0  0  0  0  0  0  0  0  0
    1.0381   -0.0641   -0.0690 C   0  0  0  0  0  0  0  0  0  0  0  0
    0.5757    1.2499   -0.7280 C   0  0  0  0  0  0  0  0  0  0  0  0
   -0.8732    1.2224   -0.3245 C   0  0  0  0  0  0  0  0  0  0  0  0
   -0.8180    0.7127    1.0812 C   0  0  0  0  0  0  0  0  0  0  0  0
   -0.2845   -0.5632    0.4099 C   0  0  0  0  0  0  0  0  0  0  0  0
   -1.2454   -0.2146   -0.7129 C   0  0  0  0  0  0  0  0  0  0  0  0
   -2.6807   -0.5355   -0.4416 C   0  0  0  0  0  0  0  0  0  0  0  0
    2.9971   -1.5553    0.5345 H   0  0  0  0  0  0  0  0  0  0  0  0
    3.5782   -1.7271   -1.1407 H   0  0  0  0  0  0  0  0  0  0  0  0
    3.5086   -0.0978   -0.3481 H   0  0  0  0  0  0  0  0  0  0  0  0
    1.6505    0.2434    0.7992 H   0  0  0  0  0  0  0  0  0  0  0  0
    1.0913    2.1152   -0.3262 H   0  0  0  0  0  0  0  0  0  0  0  0
    0.6353    1.1627   -1.8421 H   0  0  0  0  0  0  0  0  0  0  0  0
   -1.5285    1.9992   -0.6035 H   0  0  0  0  0  0  0  0  0  0  0  0
   -1.7685    0.5784    1.6066 H   0  0  0  0  0  0  0  0  0  0  0  0
    0.0015    1.1501    1.6970 H   0  0  0  0  0  0  0  0  0  0  0  0
   -0.3889   -1.4752    0.9240 H   0  0  0  0  0  0  0  0  0  0  0  0
   -0.8972   -0.4590   -1.7283 H   0  0  0  0  0  0  0  0  0  0  0  0
   -2.8574   -1.4895    0.0575 H   0  0  0  0  0  0  0  0  0  0  0  0
   -3.2227   -0.5362   -1.4146 H   0  0  0  0  0  0  0  0  0  0  0  0
   -3.1920    0.2544    0.1722 H   0  0  0  0  0  0  0  0  0  0  0  0
  1  2  1  0
  2  3  1  0
  3  4  1  0
  4  5  1  0
  5  6  1  0
  6  7  1  0
  7  8  1  0
  8  9  1  0
  7  3  1  0
  8  5  1  0
  1 10  1  0
  1 11  1  0
  1 12  1  0
  3 13  1  0
  4 14  1  0
  4 15  1  0
  5 16  1  0
  6 17  1  0
  6 18  1  0
  7 19  1  0
  8 20  1  0
  9 21  1  0
  9 22  1  0
  9 23  1  0
M  END
