
     RDKit          3D

 19 20  0  0  0  0  0  0  0  0999 V2000
   -2.8124   -0.3472   -0.3171 C   0  0  0  0  0  0  0  0  0  0  0  0
   -1.5502    0.0756   -0.7252 O   0  0  0  0  0  0  0  0  0  0  0  0
   -0.5528   -0.2296    0.1798 C   0  0  0  0  0  0  0  0  0  0  0  0
    0.2633    1.0260    0.5272 C   0  0  0  0  0  0  0  0  0  0  0  0
    1.5318    0.7904   -0.2203 C   0  0  0  0  0  0  0  0  0  0  0  0
    2.3531   -0.3068    0.4533 C   0  0  0  0  0  0  0  0  0  0  0  0
    1.4705   -1.3958    0.3163 O   0  0  0  0  0  0  0  0  0  0  0  0
    0.5073   -1.0208   -0.5916 C   0  0  0  0  0  0  0  0  0  0  0  0
    1.0662    0.0486   -1.3351 O   0  0  0  0  0  0  0  0  0  0  0  0
   -3.5228   -0.0487   -1.1177 H   0  0  0  0  0  0  0  0  0  0  0  0
   -2.8864   -1.4256   -0.1715 H   0  0  0  0  0  0  0  0  0  0  0  0
   -3.1267    0.2332    0.5866 H   0  0  0  0  0  0  0  0  0  0  0  0
   -0.8885   -0.7515    1.0747 H   0  0  0  0  0  0  0  0  0  0  0  0
    0.4068    1.0819    1.6257 H   0  0  0  0  0  0  0  0  0  0  0  0
   -0.2714    1.8794    0.1130 H   0  0  0  0  0  0  0  0  0  0  0  0
    2.1027    1.6595   -0.4935 H   0  0  0  0  0  0  0  0  0  0  0  0
    2.5883   -0.0760    1.4912 H   0  0  0  0  0  0  0  0  0  0  0  0
    3.2231   -0.5184   -0.1874 H   0  0  0  0  0  0  0  0  0  0  0  0
    0.0980   -1.8005   -1.2085 H   0  0  0  0  0  0  0  0  0  0  0  0
  1  2  1  0
  2  3  1  0
  3  4  1  0
  4  5  1  0
  5  6  1  0
  6  7  1  0
  7  8  1  0
  8  9  1  0
  8  3  1  0
  9  5  1  0
  1 10  1  0
  1 11  1  0
  1 12  1  0
  3 13  1  0
  4 14  1  0
  4 15  1  0
  5 16  1  0
  6 17  1  0
  6 18  1  0
  8 19  1  0
M  END
