
     RDKit          3D

 20 21  0  0  0  0  0  0  0  0999 V2000
    2.6862    0.0082    0.8117 C   0  0  0  0  0  0  0  0  0  0  0  0
    1.4534    0.6876    0.9293 O   0  0  0  0  0  0  0  0  0  0  0  0
    0.5526    0.0255    0.1530 C   0  0  0  0  0  0  0  0  0  0  0  0
   -0.3338    0.8910   -0.7358 C   0  0  0  0  0  0  0  0  0  0  0  0
   -1.0941   -0.1591   -1.4845 C   0  0  0  0  0  0  0  0  0  0  0  0
   -1.4305   -1.0999   -0.3064 C   0  0  0  0  0  0  0  0  0  0  0  0
   -0.7757   -0.3296    0.8103 C   0  0  0  0  0  0  0  0  0  0  0  0
   -1.1925    1.0878    0.5047 C   0  0  0  0  0  0  0  0  0  0  0  0
    2.4789   -1.0369    1.1822 H   0  0  0  0  0  0  0  0  0  0  0  0
    3.4541    0.4473    1.4635 H   0  0  0  0  0  0  0  0  0  0  0  0
    2.9433   -0.0372   -0.2492 H   0  0  0  0  0  0  0  0  0  0  0  0
    0.9172   -0.8676   -0.3970 H   0  0  0  0  0  0  0  0  0  0  0  0
    0.0818    1.7282   -1.2184 H   0  0  0  0  0  0  0  0  0  0  0  0
   -2.0269    0.1983   -1.9463 H   0  0  0  0  0  0  0  0  0  0  0  0
   -0.4026   -0.6434   -2.1908 H   0  0  0  0  0  0  0  0  0  0  0  0
   -2.5066   -1.1195   -0.1438 H   0  0  0  0  0  0  0  0  0  0  0  0
   -0.9443   -2.0736   -0.4255 H   0  0  0  0  0  0  0  0  0  0  0  0
   -0.7823   -0.6914    1.7983 H   0  0  0  0  0  0  0  0  0  0  0  0
   -0.7963    1.8705    1.1445 H   0  0  0  0  0  0  0  0  0  0  0  0
   -2.2819    1.1139    0.3002 H   0  0  0  0  0  0  0  0  0  0  0  0
  1  2  1  0
  2  3  1  0
  3  4  1  0
  4  5  1  0
  5  6  1  0
  6  7  1  0
  7  8  1  0
  7  3  1  0
  8  4  1  0
  1  9  1  0
  1 10  1  0
  1 11  1  0
  3 12  1  0
  4 13  1  0
  5 14  1  0
  5 15  1  0
  6 16  1  0
  6 17  1  0
  7 18  1  0
  8 19  1  0
  8 20  1  0
M  END
