
     RDKit          3D

 19 20  0  0  0  0  0  0  0  0999 V2000
    2.3459    0.2489    0.0428 C   0  0  0  0  0  0  0  0  0  0  0  0
    1.3568   -0.5690    0.4720 O   0  0  0  0  0  0  0  0  0  0  0  0
    0.1170   -0.3427    0.1091 C   0  0  0  0  0  0  0  0  0  0  0  0
   -0.8730   -1.3452    0.6712 C   0  0  0  0  0  0  0  0  0  0  0  0
   -2.1043   -0.6775    0.7195 O   0  0  0  0  0  0  0  0  0  0  0  0
   -1.8967    0.5381    0.0270 C   0  0  0  0  0  0  0  0  0  0  0  0
   -0.5454    0.9378    0.6563 C   0  0  0  0  0  0  0  0  0  0  0  0
   -1.5830    0.2202   -1.2645 O   0  0  0  0  0  0  0  0  0  0  0  0
   -0.2312   -0.1533   -1.3311 C   0  0  0  0  0  0  0  0  0  0  0  0
    2.2381    1.3006    0.3404 H   0  0  0  0  0  0  0  0  0  0  0  0
    3.3234   -0.1393    0.4498 H   0  0  0  0  0  0  0  0  0  0  0  0
    2.4518    0.1212   -1.0706 H   0  0  0  0  0  0  0  0  0  0  0  0
   -0.9114   -2.2545    0.0406 H   0  0  0  0  0  0  0  0  0  0  0  0
   -0.5258   -1.6532    1.6698 H   0  0  0  0  0  0  0  0  0  0  0  0
   -2.6658    1.2610    0.1874 H   0  0  0  0  0  0  0  0  0  0  0  0
   -0.6012    0.9351    1.7425 H   0  0  0  0  0  0  0  0  0  0  0  0
   -0.1426    1.8342    0.1976 H   0  0  0  0  0  0  0  0  0  0  0  0
   -0.0602   -1.0257   -1.9617 H   0  0  0  0  0  0  0  0  0  0  0  0
    0.3075    0.7634   -1.6981 H   0  0  0  0  0  0  0  0  0  0  0  0
  1  2  1  0
  2  3  1  0
  3  4  1  0
  4  5  1  0
  5  6  1  0
  6  7  1  0
  6  8  1  0
  8  9  1  0
  7  3  1  0
  9  3  1  0
  1 10  1  0
  1 11  1  0
  1 12  1  0
  4 13  1  0
  4 14  1  0
  6 15  1  0
  7 16  1  0
  7 17  1  0
  9 18  1  0
  9 19  1  0
M  END
