
     RDKit          3D

 20 20  0  0  0  0  0  0  0  0999 V2000
    2.6032    1.2833   -0.5818 C   0  0  0  0  0  0  0  0  0  0  0  0
    1.3787    0.6951   -0.8632 O   0  0  0  0  0  0  0  0  0  0  0  0
    0.8947   -0.0841    0.1580 C   0  0  0  0  0  0  0  0  0  0  0  0
    0.5243   -1.4838   -0.2676 C   0  0  0  0  0  0  0  0  0  0  0  0
   -0.8871   -1.3989   -0.7019 C   0  0  0  0  0  0  0  0  0  0  0  0
   -1.4243   -0.3012   -0.2159 C   0  0  0  0  0  0  0  0  0  0  0  0
   -2.8462    0.1618   -0.4218 C   0  0  0  0  0  0  0  0  0  0  0  0
   -0.4538    0.4731    0.5836 C   0  0  0  0  0  0  0  0  0  0  0  0
    3.3284    0.4574   -0.3892 H   0  0  0  0  0  0  0  0  0  0  0  0
    2.9548    1.8075   -1.4907 H   0  0  0  0  0  0  0  0  0  0  0  0
    2.5861    1.9486    0.2904 H   0  0  0  0  0  0  0  0  0  0  0  0
    1.5430   -0.1281    1.0431 H   0  0  0  0  0  0  0  0  0  0  0  0
    1.2053   -1.8036   -1.0817 H   0  0  0  0  0  0  0  0  0  0  0  0
    0.6312   -2.2099    0.5825 H   0  0  0  0  0  0  0  0  0  0  0  0
   -1.4190   -2.1490   -1.3443 H   0  0  0  0  0  0  0  0  0  0  0  0
   -3.4486   -0.6695   -0.8327 H   0  0  0  0  0  0  0  0  0  0  0  0
   -2.7751    1.0225   -1.1322 H   0  0  0  0  0  0  0  0  0  0  0  0
   -3.1934    0.4971    0.5813 H   0  0  0  0  0  0  0  0  0  0  0  0
   -0.5375    1.5462    0.2502 H   0  0  0  0  0  0  0  0  0  0  0  0
   -0.6646    0.3355    1.6439 H   0  0  0  0  0  0  0  0  0  0  0  0
  1  2  1  0
  2  3  1  0
  3  4  1  0
  4  5  1  0
  5  6  2  0
  6  7  1  0
  6  8  1  0
  8  3  1  0
  1  9  1  0
  1 10  1  0
  1 11  1  0
  3 12  1  0
  4 13  1  0
  4 14  1  0
  5 15  1  0
  7 16  1  0
  7 17  1  0
  7 18  1  0
  8 19  1  0
  8 20  1  0
M  END
