
     RDKit          3D

 21 21  0  0  0  0  0  0  0  0999 V2000
    3.2817    0.0667    0.1639 C   0  0  0  0  0  0  0  0  0  0  0  0
    2.1926    0.2430   -0.7170 O   0  0  0  0  0  0  0  0  0  0  0  0
    1.0031    0.0557   -0.0507 C   0  0  0  0  0  0  0  0  0  0  0  0
    0.1674    1.2892   -0.0808 C   0  0  0  0  0  0  0  0  0  0  0  0
   -1.1126    1.1055    0.2303 C   0  0  0  0  0  0  0  0  0  0  0  0
   -1.6054   -0.2584    0.5730 C   0  0  0  0  0  0  0  0  0  0  0  0
   -3.0936   -0.2497    0.1851 C   0  0  0  0  0  0  0  0  0  0  0  0
   -1.0281   -1.2545   -0.1414 O   0  0  0  0  0  0  0  0  0  0  0  0
    0.2119   -1.0794   -0.6251 C   0  0  0  0  0  0  0  0  0  0  0  0
    3.2531   -0.9565    0.5740 H   0  0  0  0  0  0  0  0  0  0  0  0
    4.2306    0.2105   -0.3798 H   0  0  0  0  0  0  0  0  0  0  0  0
    3.2204    0.8459    0.9478 H   0  0  0  0  0  0  0  0  0  0  0  0
    1.1818   -0.1926    1.0338 H   0  0  0  0  0  0  0  0  0  0  0  0
    0.5783    2.2747   -0.3403 H   0  0  0  0  0  0  0  0  0  0  0  0
   -1.7619    1.9833    0.2208 H   0  0  0  0  0  0  0  0  0  0  0  0
   -1.5026   -0.4829    1.6538 H   0  0  0  0  0  0  0  0  0  0  0  0
   -3.4299   -1.2902    0.1215 H   0  0  0  0  0  0  0  0  0  0  0  0
   -3.6516    0.3694    0.8845 H   0  0  0  0  0  0  0  0  0  0  0  0
   -3.1075    0.2609   -0.8223 H   0  0  0  0  0  0  0  0  0  0  0  0
    0.8103   -2.0118   -0.4726 H   0  0  0  0  0  0  0  0  0  0  0  0
    0.1620   -0.9290   -1.7315 H   0  0  0  0  0  0  0  0  0  0  0  0
  1  2  1  0
  2  3  1  0
  3  4  1  0
  4  5  2  0
  5  6  1  0
  6  7  1  0
  6  8  1  0
  8  9  1  0
  9  3  1  0
  1 10  1  0
  1 11  1  0
  1 12  1  0
  3 13  1  0
  4 14  1  0
  5 15  1  0
  6 16  1  0
  7 17  1  0
  7 18  1  0
  7 19  1  0
  9 20  1  0
  9 21  1  0
M  END
