
     RDKit          3D

 19 20  0  0  0  0  0  0  0  0999 V2000
    2.1574    1.1118   -0.1070 C   0  0  0  0  0  0  0  0  0  0  0  0
    0.9289    0.8330    0.4254 O   0  0  0  0  0  0  0  0  0  0  0  0
    0.3139   -0.2933   -0.0702 C   0  0  0  0  0  0  0  0  0  0  0  0
    0.9157   -1.6398    0.0381 C   0  0  0  0  0  0  0  0  0  0  0  0
   -0.3357   -2.2558    0.2402 O   0  0  0  0  0  0  0  0  0  0  0  0
   -0.7805   -0.9806    0.6392 C   0  0  0  0  0  0  0  0  0  0  0  0
   -1.1175   -0.0819   -0.4820 C   0  0  0  0  0  0  0  0  0  0  0  0
   -1.7905    1.2139   -0.0730 C   0  0  0  0  0  0  0  0  0  0  0  0
   -1.5223   -0.6237   -1.7176 O   0  0  0  0  0  0  0  0  0  0  0  0
    2.9060    0.3181    0.0445 H   0  0  0  0  0  0  0  0  0  0  0  0
    2.0112    1.3768   -1.1798 H   0  0  0  0  0  0  0  0  0  0  0  0
    2.5507    2.0166    0.4026 H   0  0  0  0  0  0  0  0  0  0  0  0
    1.4860   -2.0240   -0.8160 H   0  0  0  0  0  0  0  0  0  0  0  0
    1.5230   -1.8145    0.9723 H   0  0  0  0  0  0  0  0  0  0  0  0
   -1.0525   -0.7973    1.6758 H   0  0  0  0  0  0  0  0  0  0  0  0
   -2.0084    1.2475    1.0163 H   0  0  0  0  0  0  0  0  0  0  0  0
   -2.7181    1.3703   -0.6436 H   0  0  0  0  0  0  0  0  0  0  0  0
   -1.0464    2.0382   -0.2803 H   0  0  0  0  0  0  0  0  0  0  0  0
   -2.4209   -1.0155   -1.6703 H   0  0  0  0  0  0  0  0  0  0  0  0
  1  2  1  0
  2  3  1  0
  3  4  1  0
  4  5  1  0
  5  6  1  0
  6  7  1  0
  7  8  1  0
  7  9  1  0
  6  3  1  0
  7  3  1  0
  1 10  1  0
  1 11  1  0
  1 12  1  0
  4 13  1  0
  4 14  1  0
  6 15  1  0
  8 16  1  0
  8 17  1  0
  8 18  1  0
  9 19  1  0
M  END
