
     RDKit          3D

 21 22  0  0  0  0  0  0  0  0999 V2000
    2.9878    0.0150   -0.3536 C   0  0  0  0  0  0  0  0  0  0  0  0
    1.9257    0.2723    0.4380 O   0  0  0  0  0  0  0  0  0  0  0  0
    0.6884   -0.0333    0.0710 C   0  0  0  0  0  0  0  0  0  0  0  0
   -0.1225    1.2434   -0.1164 C   0  0  0  0  0  0  0  0  0  0  0  0
   -1.5559    0.8427   -0.0974 C   0  0  0  0  0  0  0  0  0  0  0  0
   -2.0917    0.6046   -1.3554 O   0  0  0  0  0  0  0  0  0  0  0  0
   -1.6125   -0.4041    0.7225 C   0  0  0  0  0  0  0  0  0  0  0  0
   -1.2441   -1.7187    0.2011 C   0  0  0  0  0  0  0  0  0  0  0  0
   -0.1716   -0.8559    0.9386 C   0  0  0  0  0  0  0  0  0  0  0  0
    3.9125    0.3555    0.1596 H   0  0  0  0  0  0  0  0  0  0  0  0
    3.1539   -1.0296   -0.6444 H   0  0  0  0  0  0  0  0  0  0  0  0
    2.9250    0.6223   -1.2907 H   0  0  0  0  0  0  0  0  0  0  0  0
    0.7069   -0.5125   -0.9538 H   0  0  0  0  0  0  0  0  0  0  0  0
    0.1248    1.7420   -1.0855 H   0  0  0  0  0  0  0  0  0  0  0  0
    0.1490    1.9646    0.6828 H   0  0  0  0  0  0  0  0  0  0  0  0
   -2.1772    1.6564    0.3591 H   0  0  0  0  0  0  0  0  0  0  0  0
   -2.7743    1.2861   -1.6185 H   0  0  0  0  0  0  0  0  0  0  0  0
   -2.2828   -0.3587    1.6079 H   0  0  0  0  0  0  0  0  0  0  0  0
   -0.9858   -1.9381   -0.8365 H   0  0  0  0  0  0  0  0  0  0  0  0
   -1.6068   -2.6042    0.7707 H   0  0  0  0  0  0  0  0  0  0  0  0
    0.0512   -1.1497    1.9522 H   0  0  0  0  0  0  0  0  0  0  0  0
  1  2  1  0
  2  3  1  0
  3  4  1  0
  4  5  1  0
  5  6  1  0
  5  7  1  0
  7  8  1  0
  8  9  1  0
  9  3  1  0
  9  7  1  0
  1 10  1  0
  1 11  1  0
  1 12  1  0
  3 13  1  0
  4 14  1  0
  4 15  1  0
  5 16  1  0
  6 17  1  0
  7 18  1  0
  8 19  1  0
  8 20  1  0
  9 21  1  0
M  END
