
     RDKit          3D

 17 18  0  0  0  0  0  0  0  0999 V2000
   -2.2855   -0.5402    0.2230 C   0  0  0  0  0  0  0  0  0  0  0  0
   -0.9879   -1.0681    0.3950 O   0  0  0  0  0  0  0  0  0  0  0  0
   -0.1094   -0.1672   -0.1338 C   0  0  0  0  0  0  0  0  0  0  0  0
   -0.0401    1.2358    0.4101 C   0  0  0  0  0  0  0  0  0  0  0  0
    1.4253    1.2057    0.3497 C   0  0  0  0  0  0  0  0  0  0  0  0
    2.3278    1.9838    0.4769 O   0  0  0  0  0  0  0  0  0  0  0  0
    1.3516   -0.2379    0.0543 C   0  0  0  0  0  0  0  0  0  0  0  0
    1.9269   -1.1623    0.8990 O   0  0  0  0  0  0  0  0  0  0  0  0
    0.7653   -0.6077   -1.2402 C   0  0  0  0  0  0  0  0  0  0  0  0
   -2.5035   -0.3836   -0.8659 H   0  0  0  0  0  0  0  0  0  0  0  0
   -3.0583   -1.1915    0.6342 H   0  0  0  0  0  0  0  0  0  0  0  0
   -2.3106    0.4731    0.6800 H   0  0  0  0  0  0  0  0  0  0  0  0
   -0.3669    1.2402    1.4900 H   0  0  0  0  0  0  0  0  0  0  0  0
   -0.5717    1.9495   -0.2137 H   0  0  0  0  0  0  0  0  0  0  0  0
    2.8980   -1.1111    0.8794 H   0  0  0  0  0  0  0  0  0  0  0  0
    0.7412   -1.6732   -1.4844 H   0  0  0  0  0  0  0  0  0  0  0  0
    0.7977    0.0544   -2.1203 H   0  0  0  0  0  0  0  0  0  0  0  0
  1  2  1  0
  2  3  1  0
  3  4  1  0
  4  5  1  0
  5  6  2  0
  5  7  1  0
  7  8  1  0
  7  9  1  0
  7  3  1  0
  9  3  1  0
  1 10  1  0
  1 11  1  0
  1 12  1  0
  4 13  1  0
  4 14  1  0
  8 15  1  0
  9 16  1  0
  9 17  1  0
M  END
