
     RDKit          3D

 17 17  0  0  0  0  0  0  0  0999 V2000
    2.5262    0.9811    0.7134 C   0  0  0  0  0  0  0  0  0  0  0  0
    1.7089   -0.0987    1.0542 O   0  0  0  0  0  0  0  0  0  0  0  0
    0.5108    0.0465    0.3570 C   0  0  0  0  0  0  0  0  0  0  0  0
    0.3123   -1.1541   -0.4871 C   0  0  0  0  0  0  0  0  0  0  0  0
   -0.9713   -1.4727   -0.4258 C   0  0  0  0  0  0  0  0  0  0  0  0
   -1.6427   -0.4889    0.4601 C   0  0  0  0  0  0  0  0  0  0  0  0
   -2.4129    0.5317   -0.2951 C   0  0  0  0  0  0  0  0  0  0  0  0
   -3.3611    0.1321   -0.9507 O   0  0  0  0  0  0  0  0  0  0  0  0
   -0.5862    0.0789    1.1702 O   0  0  0  0  0  0  0  0  0  0  0  0
    1.9959    1.9328    1.0117 H   0  0  0  0  0  0  0  0  0  0  0  0
    3.4622    0.9818    1.3301 H   0  0  0  0  0  0  0  0  0  0  0  0
    2.7320    1.0278   -0.3624 H   0  0  0  0  0  0  0  0  0  0  0  0
    0.5033    0.9543   -0.2754 H   0  0  0  0  0  0  0  0  0  0  0  0
    1.0988   -1.6906   -1.0672 H   0  0  0  0  0  0  0  0  0  0  0  0
   -1.4247   -2.3113   -0.9432 H   0  0  0  0  0  0  0  0  0  0  0  0
   -2.2767   -1.0403    1.1712 H   0  0  0  0  0  0  0  0  0  0  0  0
   -2.1746    1.5896   -0.2890 H   0  0  0  0  0  0  0  0  0  0  0  0
  1  2  1  0
  2  3  1  0
  3  4  1  0
  4  5  2  0
  5  6  1  0
  6  7  1  0
  7  8  2  0
  6  9  1  0
  9  3  1  0
  1 10  1  0
  1 11  1  0
  1 12  1  0
  3 13  1  0
  4 14  1  0
  5 15  1  0
  6 16  1  0
  7 17  1  0
M  END
