
     RDKit          3D

 17 18  0  0  0  0  0  0  0  0999 V2000
    2.4362    0.0951    0.0508 C   0  0  0  0  0  0  0  0  0  0  0  0
    1.2427    0.4976   -0.5365 O   0  0  0  0  0  0  0  0  0  0  0  0
    0.1781    0.4846    0.3256 C   0  0  0  0  0  0  0  0  0  0  0  0
   -0.6708    1.7226    0.3235 C   0  0  0  0  0  0  0  0  0  0  0  0
   -0.5463    2.9032    0.5291 O   0  0  0  0  0  0  0  0  0  0  0  0
   -1.8019    0.8292   -0.0623 C   0  0  0  0  0  0  0  0  0  0  0  0
   -1.5547    0.3616   -1.4528 O   0  0  0  0  0  0  0  0  0  0  0  0
   -1.0101   -0.2093   -0.3367 C   0  0  0  0  0  0  0  0  0  0  0  0
   -1.0652   -1.6754   -0.2264 C   0  0  0  0  0  0  0  0  0  0  0  0
    3.2173    0.1461   -0.7363 H   0  0  0  0  0  0  0  0  0  0  0  0
    2.7555    0.8213    0.8356 H   0  0  0  0  0  0  0  0  0  0  0  0
    2.3927   -0.9474    0.4395 H   0  0  0  0  0  0  0  0  0  0  0  0
    0.3503    0.1725    1.3570 H   0  0  0  0  0  0  0  0  0  0  0  0
   -2.8223    1.0960    0.1278 H   0  0  0  0  0  0  0  0  0  0  0  0
   -2.0412   -2.1160   -0.4539 H   0  0  0  0  0  0  0  0  0  0  0  0
   -0.3110   -2.1047   -0.9505 H   0  0  0  0  0  0  0  0  0  0  0  0
   -0.7494   -2.0770    0.7664 H   0  0  0  0  0  0  0  0  0  0  0  0
  1  2  1  0
  2  3  1  0
  3  4  1  0
  4  5  2  0
  4  6  1  0
  6  7  1  0
  7  8  1  0
  8  9  1  0
  8  3  1  0
  8  6  1  0
  1 10  1  0
  1 11  1  0
  1 12  1  0
  3 13  1  0
  6 14  1  0
  9 15  1  0
  9 16  1  0
  9 17  1  0
M  END
