
     RDKit          3D

 21 22  0  0  0  0  0  0  0  0999 V2000
    3.1789    0.2925   -0.4856 C   0  0  0  0  0  0  0  0  0  0  0  0
    1.9155    0.4266   -1.0594 O   0  0  0  0  0  0  0  0  0  0  0  0
    0.9808   -0.0064   -0.1578 C   0  0  0  0  0  0  0  0  0  0  0  0
    0.0677    1.0192    0.1995 O   0  0  0  0  0  0  0  0  0  0  0  0
   -1.1421    0.3980    0.0506 C   0  0  0  0  0  0  0  0  0  0  0  0
   -2.3847    1.0562    0.3888 C   0  0  0  0  0  0  0  0  0  0  0  0
   -1.0129   -0.2023   -1.3599 C   0  0  0  0  0  0  0  0  0  0  0  0
    0.0411   -1.0430   -0.6611 C   0  0  0  0  0  0  0  0  0  0  0  0
   -0.9535   -1.0570    0.5118 C   0  0  0  0  0  0  0  0  0  0  0  0
    3.9726    0.6423   -1.2069 H   0  0  0  0  0  0  0  0  0  0  0  0
    3.2822    0.9109    0.4377 H   0  0  0  0  0  0  0  0  0  0  0  0
    3.4333   -0.7612   -0.2533 H   0  0  0  0  0  0  0  0  0  0  0  0
    1.4133   -0.3573    0.7986 H   0  0  0  0  0  0  0  0  0  0  0  0
   -2.2616    1.7784    1.1960 H   0  0  0  0  0  0  0  0  0  0  0  0
   -3.1457    0.3096    0.7216 H   0  0  0  0  0  0  0  0  0  0  0  0
   -2.8367    1.5196   -0.5356 H   0  0  0  0  0  0  0  0  0  0  0  0
   -1.9407   -0.7467   -1.6324 H   0  0  0  0  0  0  0  0  0  0  0  0
   -0.6306    0.5011   -2.0972 H   0  0  0  0  0  0  0  0  0  0  0  0
    0.3493   -1.9561   -1.0702 H   0  0  0  0  0  0  0  0  0  0  0  0
   -0.4801   -1.0748    1.4946 H   0  0  0  0  0  0  0  0  0  0  0  0
   -1.8461   -1.6495    0.3401 H   0  0  0  0  0  0  0  0  0  0  0  0
  1  2  1  0
  2  3  1  0
  3  4  1  0
  4  5  1  0
  5  6  1  0
  5  7  1  0
  7  8  1  0
  8  9  1  0
  8  3  1  0
  9  5  1  0
  1 10  1  0
  1 11  1  0
  1 12  1  0
  3 13  1  0
  6 14  1  0
  6 15  1  0
  6 16  1  0
  7 17  1  0
  7 18  1  0
  8 19  1  0
  9 20  1  0
  9 21  1  0
M  END
