
     RDKit          3D

 23 24  0  0  0  0  0  0  0  0999 V2000
   -3.4997   -0.0845    0.1019 C   0  0  0  0  0  0  0  0  0  0  0  0
   -2.2923    0.2474   -0.5225 O   0  0  0  0  0  0  0  0  0  0  0  0
   -1.2170   -0.3385    0.0954 C   0  0  0  0  0  0  0  0  0  0  0  0
   -0.2213    0.7502    0.5170 C   0  0  0  0  0  0  0  0  0  0  0  0
    0.8218   -0.0476   -0.1825 C   0  0  0  0  0  0  0  0  0  0  0  0
    1.8671    0.6614   -0.9450 C   0  0  0  0  0  0  0  0  0  0  0  0
    2.6813    0.6200    0.3565 C   0  0  0  0  0  0  0  0  0  0  0  0
    1.8923   -0.6676    0.6535 C   0  0  0  0  0  0  0  0  0  0  0  0
   -0.1525   -0.9014   -0.8584 C   0  0  0  0  0  0  0  0  0  0  0  0
   -3.6683   -1.1752    0.0895 H   0  0  0  0  0  0  0  0  0  0  0  0
   -4.3038    0.4202   -0.4934 H   0  0  0  0  0  0  0  0  0  0  0  0
   -3.5334    0.3151    1.1378 H   0  0  0  0  0  0  0  0  0  0  0  0
   -1.4377   -0.9620    0.9591 H   0  0  0  0  0  0  0  0  0  0  0  0
   -0.0615    0.8269    1.5963 H   0  0  0  0  0  0  0  0  0  0  0  0
   -0.3800    1.7223   -0.0073 H   0  0  0  0  0  0  0  0  0  0  0  0
    2.3665    0.0442   -1.7073 H   0  0  0  0  0  0  0  0  0  0  0  0
    1.6062    1.6945   -1.2707 H   0  0  0  0  0  0  0  0  0  0  0  0
    3.7485    0.4881    0.2325 H   0  0  0  0  0  0  0  0  0  0  0  0
    2.3148    1.4191    1.0137 H   0  0  0  0  0  0  0  0  0  0  0  0
    2.3451   -1.5322    0.1001 H   0  0  0  0  0  0  0  0  0  0  0  0
    1.6774   -0.8305    1.7103 H   0  0  0  0  0  0  0  0  0  0  0  0
   -0.4521   -0.6755   -1.8845 H   0  0  0  0  0  0  0  0  0  0  0  0
   -0.1011   -1.9945   -0.6920 H   0  0  0  0  0  0  0  0  0  0  0  0
  1  2  1  0
  2  3  1  0
  3  4  1  0
  4  5  1  0
  5  6  1  0
  6  7  1  0
  7  8  1  0
  5  9  1  0
  9  3  1  0
  8  5  1  0
  1 10  1  0
  1 11  1  0
  1 12  1  0
  3 13  1  0
  4 14  1  0
  4 15  1  0
  6 16  1  0
  6 17  1  0
  7 18  1  0
  7 19  1  0
  8 20  1  0
  8 21  1  0
  9 22  1  0
  9 23  1  0
M  END
