
     RDKit          3D

 23 24  0  0  0  0  0  0  0  0999 V2000
   -2.1837   -1.3899    0.2175 C   0  0  0  0  0  0  0  0  0  0  0  0
   -1.8653   -0.2300    0.9169 O   0  0  0  0  0  0  0  0  0  0  0  0
   -0.9316    0.4677    0.1517 C   0  0  0  0  0  0  0  0  0  0  0  0
    0.3270   -0.3130   -0.0926 C   0  0  0  0  0  0  0  0  0  0  0  0
    1.0501   -0.7089    1.1956 C   0  0  0  0  0  0  0  0  0  0  0  0
    1.6601    0.2234    0.2218 C   0  0  0  0  0  0  0  0  0  0  0  0
    2.8241   -0.3311   -0.5693 C   0  0  0  0  0  0  0  0  0  0  0  0
   -1.5517    1.2686   -0.9597 C   0  0  0  0  0  0  0  0  0  0  0  0
   -0.8977    1.9507    0.1833 C   0  0  0  0  0  0  0  0  0  0  0  0
   -2.6033   -1.0701   -0.7713 H   0  0  0  0  0  0  0  0  0  0  0  0
   -1.2638   -1.9945    0.1063 H   0  0  0  0  0  0  0  0  0  0  0  0
   -3.0001   -1.9631    0.7109 H   0  0  0  0  0  0  0  0  0  0  0  0
    0.2679   -1.1088   -0.8730 H   0  0  0  0  0  0  0  0  0  0  0  0
    1.3870   -1.7506    1.2979 H   0  0  0  0  0  0  0  0  0  0  0  0
    0.7200   -0.2485    2.1481 H   0  0  0  0  0  0  0  0  0  0  0  0
    1.7825    1.3007    0.4728 H   0  0  0  0  0  0  0  0  0  0  0  0
    3.2691   -1.2072   -0.0436 H   0  0  0  0  0  0  0  0  0  0  0  0
    2.4934   -0.7285   -1.5638 H   0  0  0  0  0  0  0  0  0  0  0  0
    3.6496    0.4002   -0.6847 H   0  0  0  0  0  0  0  0  0  0  0  0
   -1.0463    1.1781   -1.9392 H   0  0  0  0  0  0  0  0  0  0  0  0
   -2.6568    1.3680   -1.0213 H   0  0  0  0  0  0  0  0  0  0  0  0
    0.0919    2.4011   -0.0319 H   0  0  0  0  0  0  0  0  0  0  0  0
   -1.5226    2.4858    0.9275 H   0  0  0  0  0  0  0  0  0  0  0  0
  1  2  1  0
  2  3  1  0
  3  4  1  0
  4  5  1  0
  5  6  1  0
  6  7  1  0
  3  8  1  0
  8  9  1  0
  9  3  1  0
  6  4  1  0
  1 10  1  0
  1 11  1  0
  1 12  1  0
  4 13  1  0
  5 14  1  0
  5 15  1  0
  6 16  1  0
  7 17  1  0
  7 18  1  0
  7 19  1  0
  8 20  1  0
  8 21  1  0
  9 22  1  0
  9 23  1  0
M  END
