
     RDKit          3D

 18 19  0  0  0  0  0  0  0  0999 V2000
    2.3370    0.8474   -0.3402 C   0  0  0  0  0  0  0  0  0  0  0  0
    1.2890    0.1321   -0.9202 O   0  0  0  0  0  0  0  0  0  0  0  0
    0.4105   -0.1876    0.0933 C   0  0  0  0  0  0  0  0  0  0  0  0
    0.0080   -1.6571    0.1424 C   0  0  0  0  0  0  0  0  0  0  0  0
   -1.4230   -1.1661    0.4068 C   0  0  0  0  0  0  0  0  0  0  0  0
   -1.0337    0.1426   -0.1629 C   0  0  0  0  0  0  0  0  0  0  0  0
   -1.6415    1.3713   -0.1540 C   0  0  0  0  0  0  0  0  0  0  0  0
   -1.4659    0.6023   -1.3703 O   0  0  0  0  0  0  0  0  0  0  0  0
    3.0990    1.1501   -1.0840 H   0  0  0  0  0  0  0  0  0  0  0  0
    1.8739    1.7199    0.1696 H   0  0  0  0  0  0  0  0  0  0  0  0
    2.8273    0.2352    0.4606 H   0  0  0  0  0  0  0  0  0  0  0  0
    0.6979    0.1677    1.1045 H   0  0  0  0  0  0  0  0  0  0  0  0
    0.0780   -2.1889   -0.8171 H   0  0  0  0  0  0  0  0  0  0  0  0
    0.4658   -2.1783    1.0074 H   0  0  0  0  0  0  0  0  0  0  0  0
   -2.1870   -1.7594   -0.1003 H   0  0  0  0  0  0  0  0  0  0  0  0
   -1.5499   -1.0922    1.5169 H   0  0  0  0  0  0  0  0  0  0  0  0
   -1.0771    2.3352   -0.1261 H   0  0  0  0  0  0  0  0  0  0  0  0
   -2.7083    1.5258    0.1481 H   0  0  0  0  0  0  0  0  0  0  0  0
  1  2  1  0
  2  3  1  0
  3  4  1  0
  4  5  1  0
  5  6  1  0
  6  7  1  0
  7  8  1  0
  6  3  1  0
  8  6  1  0
  1  9  1  0
  1 10  1  0
  1 11  1  0
  3 12  1  0
  4 13  1  0
  4 14  1  0
  5 15  1  0
  5 16  1  0
  7 17  1  0
  7 18  1  0
M  END
