
     RDKit          3D

 19 19  0  0  0  0  0  0  0  0999 V2000
    2.5470   -0.1645    0.2648 C   0  0  0  0  0  0  0  0  0  0  0  0
    1.3180   -0.5593    0.7986 O   0  0  0  0  0  0  0  0  0  0  0  0
    0.2743   -0.3245   -0.0630 C   0  0  0  0  0  0  0  0  0  0  0  0
   -0.5564   -1.5810   -0.3314 C   0  0  0  0  0  0  0  0  0  0  0  0
   -1.8293   -0.9492   -0.8329 C   0  0  0  0  0  0  0  0  0  0  0  0
   -1.9562    0.2706   -0.3426 C   0  0  0  0  0  0  0  0  0  0  0  0
   -0.7875    0.5733    0.5300 C   0  0  0  0  0  0  0  0  0  0  0  0
   -0.3977    2.0010    0.4863 C   0  0  0  0  0  0  0  0  0  0  0  0
   -1.2174    2.8187    0.8560 O   0  0  0  0  0  0  0  0  0  0  0  0
    3.3394   -0.3819    1.0093 H   0  0  0  0  0  0  0  0  0  0  0  0
    2.7377   -0.6518   -0.7062 H   0  0  0  0  0  0  0  0  0  0  0  0
    2.5825    0.9422    0.0989 H   0  0  0  0  0  0  0  0  0  0  0  0
    0.6036    0.1387   -1.0303 H   0  0  0  0  0  0  0  0  0  0  0  0
   -0.0974   -2.2350   -1.0677 H   0  0  0  0  0  0  0  0  0  0  0  0
   -0.7521   -2.0479    0.6546 H   0  0  0  0  0  0  0  0  0  0  0  0
   -2.5389   -1.4088   -1.4915 H   0  0  0  0  0  0  0  0  0  0  0  0
   -2.7788    0.9671   -0.5321 H   0  0  0  0  0  0  0  0  0  0  0  0
   -1.0457    0.2208    1.5463 H   0  0  0  0  0  0  0  0  0  0  0  0
    0.5547    2.3715    0.1529 H   0  0  0  0  0  0  0  0  0  0  0  0
  1  2  1  0
  2  3  1  0
  3  4  1  0
  4  5  1  0
  5  6  2  0
  6  7  1  0
  7  8  1  0
  8  9  2  0
  7  3  1  0
  1 10  1  0
  1 11  1  0
  1 12  1  0
  3 13  1  0
  4 14  1  0
  4 15  1  0
  5 16  1  0
  6 17  1  0
  7 18  1  0
  8 19  1  0
M  END
