
     RDKit          3D

 21 22  0  0  0  0  0  0  0  0999 V2000
    2.6278   -0.4078   -0.4231 C   0  0  0  0  0  0  0  0  0  0  0  0
    1.9131   -0.2207    0.7184 O   0  0  0  0  0  0  0  0  0  0  0  0
    0.5470   -0.1564    0.6090 C   0  0  0  0  0  0  0  0  0  0  0  0
   -0.1244   -1.3552    0.0574 C   0  0  0  0  0  0  0  0  0  0  0  0
   -1.1624   -1.0905   -0.8248 O   0  0  0  0  0  0  0  0  0  0  0  0
   -2.0897   -0.2018   -0.3003 C   0  0  0  0  0  0  0  0  0  0  0  0
   -1.4533    1.1430   -0.2342 C   0  0  0  0  0  0  0  0  0  0  0  0
   -0.1274    1.1347    0.4158 C   0  0  0  0  0  0  0  0  0  0  0  0
   -0.0892    0.5658    1.8059 C   0  0  0  0  0  0  0  0  0  0  0  0
    3.7166   -0.4274   -0.1187 H   0  0  0  0  0  0  0  0  0  0  0  0
    2.5194    0.5247   -1.0525 H   0  0  0  0  0  0  0  0  0  0  0  0
    2.4653   -1.3172   -0.9932 H   0  0  0  0  0  0  0  0  0  0  0  0
    0.6123   -1.9568   -0.5107 H   0  0  0  0  0  0  0  0  0  0  0  0
   -0.4810   -2.0513    0.8753 H   0  0  0  0  0  0  0  0  0  0  0  0
   -2.4427   -0.5925    0.6716 H   0  0  0  0  0  0  0  0  0  0  0  0
   -2.9504   -0.1680   -0.9771 H   0  0  0  0  0  0  0  0  0  0  0  0
   -2.1398    1.8007    0.3770 H   0  0  0  0  0  0  0  0  0  0  0  0
   -1.4185    1.5446   -1.2862 H   0  0  0  0  0  0  0  0  0  0  0  0
    0.5367    1.9896    0.1647 H   0  0  0  0  0  0  0  0  0  0  0  0
    0.5388    1.1121    2.5061 H   0  0  0  0  0  0  0  0  0  0  0  0
   -0.9981    0.1306    2.2532 H   0  0  0  0  0  0  0  0  0  0  0  0
  1  2  1  0
  2  3  1  0
  3  4  1  0
  4  5  1  0
  5  6  1  0
  6  7  1  0
  7  8  1  0
  8  9  1  0
  8  3  1  0
  9  3  1  0
  1 10  1  0
  1 11  1  0
  1 12  1  0
  4 13  1  0
  4 14  1  0
  6 15  1  0
  6 16  1  0
  7 17  1  0
  7 18  1  0
  8 19  1  0
  9 20  1  0
  9 21  1  0
M  END
