
     RDKit          3D

 17 17  0  0  0  0  0  0  0  0999 V2000
   -2.7031   -0.3957   -0.0337 C   0  0  0  0  0  0  0  0  0  0  0  0
   -1.6584    0.1284   -0.7558 O   0  0  0  0  0  0  0  0  0  0  0  0
   -0.5647    0.2691    0.1157 C   0  0  0  0  0  0  0  0  0  0  0  0
    0.2020    1.5228   -0.0783 C   0  0  0  0  0  0  0  0  0  0  0  0
    0.3775    2.6443    0.4527 O   0  0  0  0  0  0  0  0  0  0  0  0
    0.7438    0.9531   -1.2195 O   0  0  0  0  0  0  0  0  0  0  0  0
    0.6665   -0.3019   -0.5587 C   0  0  0  0  0  0  0  0  0  0  0  0
    1.8506   -0.5135    0.3620 C   0  0  0  0  0  0  0  0  0  0  0  0
    3.0024   -0.4650   -0.4419 O   0  0  0  0  0  0  0  0  0  0  0  0
   -2.4088   -1.3772    0.3759 H   0  0  0  0  0  0  0  0  0  0  0  0
   -3.5755   -0.4980   -0.7088 H   0  0  0  0  0  0  0  0  0  0  0  0
   -2.9996    0.3273    0.7526 H   0  0  0  0  0  0  0  0  0  0  0  0
   -0.7399   -0.0453    1.1401 H   0  0  0  0  0  0  0  0  0  0  0  0
    0.4620   -1.1367   -1.2465 H   0  0  0  0  0  0  0  0  0  0  0  0
    1.8676    0.2930    1.1221 H   0  0  0  0  0  0  0  0  0  0  0  0
    1.7766   -1.5134    0.8390 H   0  0  0  0  0  0  0  0  0  0  0  0
    3.7011    0.1089   -0.0455 H   0  0  0  0  0  0  0  0  0  0  0  0
  1  2  1  0
  2  3  1  0
  3  4  1  0
  4  5  2  0
  4  6  1  0
  6  7  1  0
  7  8  1  0
  8  9  1  0
  7  3  1  0
  1 10  1  0
  1 11  1  0
  1 12  1  0
  3 13  1  0
  7 14  1  0
  8 15  1  0
  8 16  1  0
  9 17  1  0
M  END
