
     RDKit          3D

 17 18  0  0  0  0  0  0  0  0999 V2000
    2.7210   -0.5191   -0.7624 C   0  0  0  0  0  0  0  0  0  0  0  0
    1.7990    0.4249   -0.3469 O   0  0  0  0  0  0  0  0  0  0  0  0
    0.5182   -0.0827   -0.2022 C   0  0  0  0  0  0  0  0  0  0  0  0
   -0.4130    0.4409    0.8177 C   0  0  0  0  0  0  0  0  0  0  0  0
   -1.8084   -0.1181    0.7864 C   0  0  0  0  0  0  0  0  0  0  0  0
   -1.9502    0.1280   -0.6856 C   0  0  0  0  0  0  0  0  0  0  0  0
   -0.5858    0.7512   -0.6900 C   0  0  0  0  0  0  0  0  0  0  0  0
    2.4657   -0.9690   -1.7466 H   0  0  0  0  0  0  0  0  0  0  0  0
    3.6835    0.0152   -0.9162 H   0  0  0  0  0  0  0  0  0  0  0  0
    2.9249   -1.2969    0.0066 H   0  0  0  0  0  0  0  0  0  0  0  0
    0.4509   -1.1682   -0.4463 H   0  0  0  0  0  0  0  0  0  0  0  0
   -0.1856    1.2746    1.4821 H   0  0  0  0  0  0  0  0  0  0  0  0
   -1.8478   -1.1741    1.1179 H   0  0  0  0  0  0  0  0  0  0  0  0
   -2.5635    0.4647    1.3617 H   0  0  0  0  0  0  0  0  0  0  0  0
   -2.7947    0.8021   -0.9482 H   0  0  0  0  0  0  0  0  0  0  0  0
   -1.9457   -0.8006   -1.3167 H   0  0  0  0  0  0  0  0  0  0  0  0
   -0.4685    1.8270   -0.9254 H   0  0  0  0  0  0  0  0  0  0  0  0
  1  2  1  0
  2  3  1  0
  3  4  1  0
  4  5  1  0
  5  6  1  0
  6  7  1  0
  7  3  1  0
  7  4  1  0
  1  8  1  0
  1  9  1  0
  1 10  1  0
  3 11  1  0
  4 12  1  0
  5 13  1  0
  5 14  1  0
  6 15  1  0
  6 16  1  0
  7 17  1  0
M  END
