
     RDKit          3D

 19 19  0  0  0  0  0  0  0  0999 V2000
    2.3038   -0.9801    0.4043 C   0  0  0  0  0  0  0  0  0  0  0  0
    1.1833   -1.0355   -0.3861 O   0  0  0  0  0  0  0  0  0  0  0  0
    0.2519   -0.0632   -0.1718 C   0  0  0  0  0  0  0  0  0  0  0  0
    0.7602    1.3420   -0.4794 C   0  0  0  0  0  0  0  0  0  0  0  0
   -0.2714   -0.0329    1.1018 O   0  0  0  0  0  0  0  0  0  0  0  0
   -1.6201    0.1655    1.0326 C   0  0  0  0  0  0  0  0  0  0  0  0
   -2.1130   -0.3594   -0.2917 C   0  0  0  0  0  0  0  0  0  0  0  0
   -0.8814   -0.3094   -1.1058 C   0  0  0  0  0  0  0  0  0  0  0  0
   -0.8223   -0.4435   -2.2930 O   0  0  0  0  0  0  0  0  0  0  0  0
    2.0908   -1.0597    1.4959 H   0  0  0  0  0  0  0  0  0  0  0  0
    2.9023   -1.9112    0.1715 H   0  0  0  0  0  0  0  0  0  0  0  0
    2.9934   -0.1440    0.1654 H   0  0  0  0  0  0  0  0  0  0  0  0
    0.2494    2.0886    0.1790 H   0  0  0  0  0  0  0  0  0  0  0  0
    1.8305    1.4544   -0.3367 H   0  0  0  0  0  0  0  0  0  0  0  0
    0.5238    1.6241   -1.5261 H   0  0  0  0  0  0  0  0  0  0  0  0
   -1.9477    1.2013    1.1758 H   0  0  0  0  0  0  0  0  0  0  0  0
   -2.0993   -0.4605    1.8300 H   0  0  0  0  0  0  0  0  0  0  0  0
   -2.8488    0.3236   -0.7669 H   0  0  0  0  0  0  0  0  0  0  0  0
   -2.4854   -1.3999   -0.1988 H   0  0  0  0  0  0  0  0  0  0  0  0
  1  2  1  0
  2  3  1  0
  3  4  1  0
  3  5  1  0
  5  6  1  0
  6  7  1  0
  7  8  1  0
  8  9  2  0
  8  3  1  0
  1 10  1  0
  1 11  1  0
  1 12  1  0
  4 13  1  0
  4 14  1  0
  4 15  1  0
  6 16  1  0
  6 17  1  0
  7 18  1  0
  7 19  1  0
M  END
