
     RDKit          3D

 21 22  0  0  0  0  0  0  0  0999 V2000
    3.0130   -0.2656    0.1293 C   0  0  0  0  0  0  0  0  0  0  0  0
    1.8226   -0.2779    0.8063 O   0  0  0  0  0  0  0  0  0  0  0  0
    0.7355    0.1128    0.0665 C   0  0  0  0  0  0  0  0  0  0  0  0
    0.0790    1.3503    0.6466 C   0  0  0  0  0  0  0  0  0  0  0  0
   -1.2387    1.5235    0.6712 C   0  0  0  0  0  0  0  0  0  0  0  0
   -2.2128    0.4981    0.1203 C   0  0  0  0  0  0  0  0  0  0  0  0
   -1.4139   -0.2923   -0.8259 C   0  0  0  0  0  0  0  0  0  0  0  0
   -1.0128   -1.6475   -0.8768 C   0  0  0  0  0  0  0  0  0  0  0  0
   -0.3146   -0.9142    0.1110 C   0  0  0  0  0  0  0  0  0  0  0  0
    3.8073   -0.5996    0.8334 H   0  0  0  0  0  0  0  0  0  0  0  0
    3.2923    0.7732   -0.1638 H   0  0  0  0  0  0  0  0  0  0  0  0
    2.9727   -0.9593   -0.7315 H   0  0  0  0  0  0  0  0  0  0  0  0
    0.9817    0.3851   -0.9849 H   0  0  0  0  0  0  0  0  0  0  0  0
    0.6782    2.1555    1.0714 H   0  0  0  0  0  0  0  0  0  0  0  0
   -1.6896    2.4154    1.0904 H   0  0  0  0  0  0  0  0  0  0  0  0
   -3.1065    0.9953   -0.2999 H   0  0  0  0  0  0  0  0  0  0  0  0
   -2.5490   -0.0682    1.0337 H   0  0  0  0  0  0  0  0  0  0  0  0
   -1.0386    0.3690   -1.6630 H   0  0  0  0  0  0  0  0  0  0  0  0
   -0.4468   -2.0121   -1.7732 H   0  0  0  0  0  0  0  0  0  0  0  0
   -1.7348   -2.4367   -0.5606 H   0  0  0  0  0  0  0  0  0  0  0  0
   -0.6242   -1.1048    1.1803 H   0  0  0  0  0  0  0  0  0  0  0  0
  1  2  1  0
  2  3  1  0
  3  4  1  0
  4  5  2  0
  5  6  1  0
  6  7  1  0
  7  8  1  0
  8  9  1  0
  9  3  1  0
  9  7  1  0
  1 10  1  0
  1 11  1  0
  1 12  1  0
  3 13  1  0
  4 14  1  0
  5 15  1  0
  6 16  1  0
  6 17  1  0
  7 18  1  0
  8 19  1  0
  8 20  1  0
  9 21  1  0
M  END
