
     RDKit          3D

 21 22  0  0  0  0  0  0  0  0999 V2000
   -3.5050   -0.4916    0.1581 C   0  0  0  0  0  0  0  0  0  0  0  0
   -2.4817   -0.0441   -0.6740 O   0  0  0  0  0  0  0  0  0  0  0  0
   -1.2633   -0.1346   -0.0639 C   0  0  0  0  0  0  0  0  0  0  0  0
   -0.0673   -0.4548   -0.8720 C   0  0  0  0  0  0  0  0  0  0  0  0
    1.2199   -0.8879   -0.2349 C   0  0  0  0  0  0  0  0  0  0  0  0
    1.5849    0.2344    0.6802 C   0  0  0  0  0  0  0  0  0  0  0  0
    2.9325    0.8598    0.3232 C   0  0  0  0  0  0  0  0  0  0  0  0
    0.6374    1.2168    0.5945 O   0  0  0  0  0  0  0  0  0  0  0  0
   -0.2685    0.9169   -0.3779 C   0  0  0  0  0  0  0  0  0  0  0  0
   -3.5738    0.0950    1.1036 H   0  0  0  0  0  0  0  0  0  0  0  0
   -4.4593   -0.2714   -0.3888 H   0  0  0  0  0  0  0  0  0  0  0  0
   -3.4137   -1.5557    0.4232 H   0  0  0  0  0  0  0  0  0  0  0  0
   -1.2798   -0.5363    0.9627 H   0  0  0  0  0  0  0  0  0  0  0  0
   -0.2308   -0.7569   -1.9083 H   0  0  0  0  0  0  0  0  0  0  0  0
    1.2023   -1.8761    0.2162 H   0  0  0  0  0  0  0  0  0  0  0  0
    1.9943   -0.9134   -1.0568 H   0  0  0  0  0  0  0  0  0  0  0  0
    1.6304   -0.1992    1.7226 H   0  0  0  0  0  0  0  0  0  0  0  0
    3.7315    0.3386    0.8746 H   0  0  0  0  0  0  0  0  0  0  0  0
    2.9765    1.9248    0.6309 H   0  0  0  0  0  0  0  0  0  0  0  0
    3.0741    0.8517   -0.7787 H   0  0  0  0  0  0  0  0  0  0  0  0
   -0.4405    1.6840   -1.1478 H   0  0  0  0  0  0  0  0  0  0  0  0
  1  2  1  0
  2  3  1  0
  3  4  1  0
  4  5  1  0
  5  6  1  0
  6  7  1  0
  6  8  1  0
  8  9  1  0
  9  3  1  0
  9  4  1  0
  1 10  1  0
  1 11  1  0
  1 12  1  0
  3 13  1  0
  4 14  1  0
  5 15  1  0
  5 16  1  0
  6 17  1  0
  7 18  1  0
  7 19  1  0
  7 20  1  0
  9 21  1  0
M  END
