
     RDKit          3D

 19 19  0  0  0  0  0  0  0  0999 V2000
   -3.2446   -0.1852    0.3248 C   0  0  0  0  0  0  0  0  0  0  0  0
   -2.1581   -0.0669   -0.5739 O   0  0  0  0  0  0  0  0  0  0  0  0
   -1.0149   -0.1625    0.1755 C   0  0  0  0  0  0  0  0  0  0  0  0
   -0.0541    1.0104   -0.0654 C   0  0  0  0  0  0  0  0  0  0  0  0
    1.0347   -0.0481    0.1544 C   0  0  0  0  0  0  0  0  0  0  0  0
    2.1499    0.1689   -0.6118 O   0  0  0  0  0  0  0  0  0  0  0  0
    3.2599    0.1185    0.2626 C   0  0  0  0  0  0  0  0  0  0  0  0
    0.0569   -1.0419   -0.3653 C   0  0  0  0  0  0  0  0  0  0  0  0
    0.0628   -2.1021   -0.9635 O   0  0  0  0  0  0  0  0  0  0  0  0
   -3.1353   -1.1758    0.8037 H   0  0  0  0  0  0  0  0  0  0  0  0
   -3.1615    0.6226    1.1082 H   0  0  0  0  0  0  0  0  0  0  0  0
   -4.2016   -0.0454   -0.1879 H   0  0  0  0  0  0  0  0  0  0  0  0
   -1.1590   -0.3046    1.2692 H   0  0  0  0  0  0  0  0  0  0  0  0
   -0.1018    1.3398   -1.1266 H   0  0  0  0  0  0  0  0  0  0  0  0
   -0.0870    1.7916    0.6976 H   0  0  0  0  0  0  0  0  0  0  0  0
    1.1974   -0.2115    1.2428 H   0  0  0  0  0  0  0  0  0  0  0  0
    4.1885    0.2837   -0.2806 H   0  0  0  0  0  0  0  0  0  0  0  0
    3.1380    0.8789    1.0836 H   0  0  0  0  0  0  0  0  0  0  0  0
    3.2299   -0.8704    0.7652 H   0  0  0  0  0  0  0  0  0  0  0  0
  1  2  1  0
  2  3  1  0
  3  4  1  0
  4  5  1  0
  5  6  1  0
  6  7  1  0
  5  8  1  0
  8  9  2  0
  8  3  1  0
  1 10  1  0
  1 11  1  0
  1 12  1  0
  3 13  1  0
  4 14  1  0
  4 15  1  0
  5 16  1  0
  7 17  1  0
  7 18  1  0
  7 19  1  0
M  END
