
     RDKit          3D

 19 20  0  0  0  0  0  0  0  0999 V2000
    2.4297    0.3442   -0.3264 C   0  0  0  0  0  0  0  0  0  0  0  0
    1.2271    0.0493   -0.9589 O   0  0  0  0  0  0  0  0  0  0  0  0
    0.2340   -0.0301   -0.0080 C   0  0  0  0  0  0  0  0  0  0  0  0
   -0.0135    1.1827    0.7832 C   0  0  0  0  0  0  0  0  0  0  0  0
   -1.2745    1.2601    1.1149 C   0  0  0  0  0  0  0  0  0  0  0  0
   -2.0361    0.0925    0.5789 C   0  0  0  0  0  0  0  0  0  0  0  0
   -1.0564   -0.6715   -0.2378 C   0  0  0  0  0  0  0  0  0  0  0  0
   -1.4232   -1.2118   -1.4637 O   0  0  0  0  0  0  0  0  0  0  0  0
    0.0169   -1.3769    0.5732 C   0  0  0  0  0  0  0  0  0  0  0  0
    2.6985   -0.4531    0.4256 H   0  0  0  0  0  0  0  0  0  0  0  0
    2.4316    1.3043    0.2222 H   0  0  0  0  0  0  0  0  0  0  0  0
    3.2678    0.4456   -1.0707 H   0  0  0  0  0  0  0  0  0  0  0  0
    0.7205    1.9498    1.0827 H   0  0  0  0  0  0  0  0  0  0  0  0
   -1.7183    2.0810    1.7126 H   0  0  0  0  0  0  0  0  0  0  0  0
   -2.3662   -0.4915    1.4866 H   0  0  0  0  0  0  0  0  0  0  0  0
   -2.9305    0.4295    0.0151 H   0  0  0  0  0  0  0  0  0  0  0  0
   -0.6204   -1.2148   -2.0340 H   0  0  0  0  0  0  0  0  0  0  0  0
   -0.1325   -1.4626    1.6773 H   0  0  0  0  0  0  0  0  0  0  0  0
    0.5455   -2.2268    0.1441 H   0  0  0  0  0  0  0  0  0  0  0  0
  1  2  1  0
  2  3  1  0
  3  4  1  0
  4  5  2  0
  5  6  1  0
  6  7  1  0
  7  8  1  0
  7  9  1  0
  7  3  1  0
  9  3  1  0
  1 10  1  0
  1 11  1  0
  1 12  1  0
  4 13  1  0
  5 14  1  0
  6 15  1  0
  6 16  1  0
  8 17  1  0
  9 18  1  0
  9 19  1  0
M  END
