
     RDKit          3D

 21 23  0  0  0  0  0  0  0  0999 V2000
    3.2590    0.6398   -0.3224 C   0  0  0  0  0  0  0  0  0  0  0  0
    2.2886   -0.2646    0.0826 O   0  0  0  0  0  0  0  0  0  0  0  0
    0.9923    0.1960   -0.2002 C   0  0  0  0  0  0  0  0  0  0  0  0
   -0.0124   -0.1104    0.8228 C   0  0  0  0  0  0  0  0  0  0  0  0
   -1.4291    0.3306    0.7644 C   0  0  0  0  0  0  0  0  0  0  0  0
   -2.1171   -0.9575    0.2824 C   0  0  0  0  0  0  0  0  0  0  0  0
   -1.3494   -0.6258   -1.0092 C   0  0  0  0  0  0  0  0  0  0  0  0
   -1.6709    0.8136   -0.6705 C   0  0  0  0  0  0  0  0  0  0  0  0
    0.0547   -0.8797   -0.5483 C   0  0  0  0  0  0  0  0  0  0  0  0
    4.2392    0.1920   -0.0595 H   0  0  0  0  0  0  0  0  0  0  0  0
    3.2380    0.8628   -1.3961 H   0  0  0  0  0  0  0  0  0  0  0  0
    3.1882    1.5803    0.2987 H   0  0  0  0  0  0  0  0  0  0  0  0
    0.9855    1.1811   -0.6867 H   0  0  0  0  0  0  0  0  0  0  0  0
    0.2382   -0.7445    1.7007 H   0  0  0  0  0  0  0  0  0  0  0  0
   -1.8888    0.8652    1.5533 H   0  0  0  0  0  0  0  0  0  0  0  0
   -1.7016   -1.8022    0.8450 H   0  0  0  0  0  0  0  0  0  0  0  0
   -3.1987   -0.8701    0.2058 H   0  0  0  0  0  0  0  0  0  0  0  0
   -1.7112   -1.0451   -1.9123 H   0  0  0  0  0  0  0  0  0  0  0  0
   -0.9844    1.5728   -1.0320 H   0  0  0  0  0  0  0  0  0  0  0  0
   -2.7555    1.0000   -0.7990 H   0  0  0  0  0  0  0  0  0  0  0  0
    0.3354   -1.9342   -0.4923 H   0  0  0  0  0  0  0  0  0  0  0  0
  1  2  1  0
  2  3  1  0
  3  4  1  0
  4  5  1  0
  5  6  1  0
  6  7  1  0
  7  8  1  0
  7  9  1  0
  9  3  1  0
  9  4  1  0
  8  5  1  0
  1 10  1  0
  1 11  1  0
  1 12  1  0
  3 13  1  0
  4 14  1  0
  5 15  1  0
  6 16  1  0
  6 17  1  0
  7 18  1  0
  8 19  1  0
  8 20  1  0
  9 21  1  0
M  END
