
     RDKit          3D

 23 24  0  0  0  0  0  0  0  0999 V2000
    3.0946   -0.3285    0.2242 C   0  0  0  0  0  0  0  0  0  0  0  0
    2.0015    0.3412   -0.2531 O   0  0  0  0  0  0  0  0  0  0  0  0
    0.7822   -0.1215    0.0941 C   0  0  0  0  0  0  0  0  0  0  0  0
    0.0429    0.9186    0.9443 C   0  0  0  0  0  0  0  0  0  0  0  0
   -1.3211    1.0341    0.3041 C   0  0  0  0  0  0  0  0  0  0  0  0
   -2.0912   -0.2519    0.4881 C   0  0  0  0  0  0  0  0  0  0  0  0
   -1.3026   -1.2481   -0.3734 C   0  0  0  0  0  0  0  0  0  0  0  0
   -0.1739   -0.4382   -0.9925 C   0  0  0  0  0  0  0  0  0  0  0  0
   -0.9223    0.8898   -1.1754 C   0  0  0  0  0  0  0  0  0  0  0  0
    4.0048    0.1831   -0.1558 H   0  0  0  0  0  0  0  0  0  0  0  0
    3.1801   -0.2744    1.3468 H   0  0  0  0  0  0  0  0  0  0  0  0
    3.1712   -1.3776   -0.0537 H   0  0  0  0  0  0  0  0  0  0  0  0
    0.8998   -1.0150    0.7428 H   0  0  0  0  0  0  0  0  0  0  0  0
   -0.0153    0.6147    2.0027 H   0  0  0  0  0  0  0  0  0  0  0  0
    0.5540    1.8859    0.8012 H   0  0  0  0  0  0  0  0  0  0  0  0
   -1.8598    1.9353    0.5166 H   0  0  0  0  0  0  0  0  0  0  0  0
   -3.1105   -0.0941    0.0604 H   0  0  0  0  0  0  0  0  0  0  0  0
   -2.1808   -0.5772    1.5219 H   0  0  0  0  0  0  0  0  0  0  0  0
   -0.9236   -2.0756    0.2461 H   0  0  0  0  0  0  0  0  0  0  0  0
   -1.9622   -1.6333   -1.1592 H   0  0  0  0  0  0  0  0  0  0  0  0
    0.2179   -0.8399   -1.9038 H   0  0  0  0  0  0  0  0  0  0  0  0
   -1.8276    0.7705   -1.7704 H   0  0  0  0  0  0  0  0  0  0  0  0
   -0.2581    1.7021   -1.4561 H   0  0  0  0  0  0  0  0  0  0  0  0
  1  2  1  0
  2  3  1  0
  3  4  1  0
  4  5  1  0
  5  6  1  0
  6  7  1  0
  7  8  1  0
  8  9  1  0
  8  3  1  0
  9  5  1  0
  1 10  1  0
  1 11  1  0
  1 12  1  0
  3 13  1  0
  4 14  1  0
  4 15  1  0
  5 16  1  0
  6 17  1  0
  6 18  1  0
  7 19  1  0
  7 20  1  0
  8 21  1  0
  9 22  1  0
  9 23  1  0
M  END
