
     RDKit          3D

 19 20  0  0  0  0  0  0  0  0999 V2000
   -2.9746   -0.0206    0.7287 C   0  0  0  0  0  0  0  0  0  0  0  0
   -1.8465   -0.7595    0.3748 O   0  0  0  0  0  0  0  0  0  0  0  0
   -0.8286    0.1428    0.1104 C   0  0  0  0  0  0  0  0  0  0  0  0
   -0.1966   -0.0639   -1.2865 C   0  0  0  0  0  0  0  0  0  0  0  0
    1.0323    0.5018   -0.6153 C   0  0  0  0  0  0  0  0  0  0  0  0
    2.2266   -0.1763   -0.8733 O   0  0  0  0  0  0  0  0  0  0  0  0
    2.7714   -0.1985    0.4364 C   0  0  0  0  0  0  0  0  0  0  0  0
    1.5931   -0.6157    1.2375 C   0  0  0  0  0  0  0  0  0  0  0  0
    0.5068   -0.2125    0.6240 C   0  0  0  0  0  0  0  0  0  0  0  0
   -3.7969   -0.7627    0.9419 H   0  0  0  0  0  0  0  0  0  0  0  0
   -3.3610    0.5796   -0.1352 H   0  0  0  0  0  0  0  0  0  0  0  0
   -2.8015    0.6732    1.5524 H   0  0  0  0  0  0  0  0  0  0  0  0
   -1.0684    1.1995    0.2171 H   0  0  0  0  0  0  0  0  0  0  0  0
   -0.6503    0.5700   -2.0617 H   0  0  0  0  0  0  0  0  0  0  0  0
   -0.1097   -1.1324   -1.4772 H   0  0  0  0  0  0  0  0  0  0  0  0
    1.0911    1.5832   -0.5166 H   0  0  0  0  0  0  0  0  0  0  0  0
    3.5916   -0.9496    0.4985 H   0  0  0  0  0  0  0  0  0  0  0  0
    3.1388    0.8158    0.7176 H   0  0  0  0  0  0  0  0  0  0  0  0
    1.6824   -1.1741    2.1894 H   0  0  0  0  0  0  0  0  0  0  0  0
  1  2  1  0
  2  3  1  0
  3  4  1  0
  4  5  1  0
  5  6  1  0
  6  7  1  0
  7  8  1  0
  8  9  2  0
  9  3  1  0
  9  5  1  0
  1 10  1  0
  1 11  1  0
  1 12  1  0
  3 13  1  0
  4 14  1  0
  4 15  1  0
  5 16  1  0
  7 17  1  0
  7 18  1  0
  8 19  1  0
M  END
