
     RDKit          3D

 19 20  0  0  0  0  0  0  0  0999 V2000
    2.8733    0.0288   -0.6479 C   0  0  0  0  0  0  0  0  0  0  0  0
    1.5592   -0.1864   -1.0540 O   0  0  0  0  0  0  0  0  0  0  0  0
    0.7199    0.1561   -0.0284 C   0  0  0  0  0  0  0  0  0  0  0  0
   -0.4139    1.0920   -0.3849 C   0  0  0  0  0  0  0  0  0  0  0  0
   -1.3839    0.1361    0.2243 C   0  0  0  0  0  0  0  0  0  0  0  0
   -2.6506   -0.1963   -0.4982 C   0  0  0  0  0  0  0  0  0  0  0  0
   -2.7502   -1.2840   -1.0023 O   0  0  0  0  0  0  0  0  0  0  0  0
   -1.1459   -0.5259    1.5246 C   0  0  0  0  0  0  0  0  0  0  0  0
   -0.3230   -0.8740    0.3470 C   0  0  0  0  0  0  0  0  0  0  0  0
    3.5937   -0.2354   -1.4484 H   0  0  0  0  0  0  0  0  0  0  0  0
    3.0326   -0.5046    0.2942 H   0  0  0  0  0  0  0  0  0  0  0  0
    2.9421    1.1326   -0.4278 H   0  0  0  0  0  0  0  0  0  0  0  0
    1.2391    0.5190    0.8762 H   0  0  0  0  0  0  0  0  0  0  0  0
   -0.5936    1.2193   -1.4772 H   0  0  0  0  0  0  0  0  0  0  0  0
   -0.3942    2.0492    0.1733 H   0  0  0  0  0  0  0  0  0  0  0  0
   -3.4484    0.5200   -0.5632 H   0  0  0  0  0  0  0  0  0  0  0  0
   -0.5847   -0.0047    2.3474 H   0  0  0  0  0  0  0  0  0  0  0  0
   -1.9263   -1.1910    1.8864 H   0  0  0  0  0  0  0  0  0  0  0  0
   -0.3453   -1.8507   -0.1411 H   0  0  0  0  0  0  0  0  0  0  0  0
  1  2  1  0
  2  3  1  0
  3  4  1  0
  4  5  1  0
  5  6  1  0
  6  7  2  0
  5  8  1  0
  8  9  1  0
  9  3  1  0
  9  5  1  0
  1 10  1  0
  1 11  1  0
  1 12  1  0
  3 13  1  0
  4 14  1  0
  4 15  1  0
  6 16  1  0
  8 17  1  0
  8 18  1  0
  9 19  1  0
M  END
