
     RDKit          3D

 23 24  0  0  0  0  0  0  0  0999 V2000
    2.6180   -0.2541    0.2090 C   0  0  0  0  0  0  0  0  0  0  0  0
    1.5051   -0.4946    1.0465 O   0  0  0  0  0  0  0  0  0  0  0  0
    0.3911   -0.2352    0.2584 C   0  0  0  0  0  0  0  0  0  0  0  0
    0.3918    1.1732   -0.2276 C   0  0  0  0  0  0  0  0  0  0  0  0
   -1.0695    1.5414   -0.3254 C   0  0  0  0  0  0  0  0  0  0  0  0
   -1.6923    0.7895    0.8491 C   0  0  0  0  0  0  0  0  0  0  0  0
   -0.9406   -0.5070    0.8701 C   0  0  0  0  0  0  0  0  0  0  0  0
   -1.2839   -1.3372   -0.3694 C   0  0  0  0  0  0  0  0  0  0  0  0
    0.1760   -1.3128   -0.7491 C   0  0  0  0  0  0  0  0  0  0  0  0
    2.6197    0.7980   -0.1486 H   0  0  0  0  0  0  0  0  0  0  0  0
    3.5544   -0.5802    0.6608 H   0  0  0  0  0  0  0  0  0  0  0  0
    2.4508   -0.8759   -0.7054 H   0  0  0  0  0  0  0  0  0  0  0  0
    0.8571    1.8210    0.5643 H   0  0  0  0  0  0  0  0  0  0  0  0
    0.9247    1.2688   -1.1911 H   0  0  0  0  0  0  0  0  0  0  0  0
   -1.2149    2.6203   -0.2154 H   0  0  0  0  0  0  0  0  0  0  0  0
   -1.4720    1.1682   -1.2706 H   0  0  0  0  0  0  0  0  0  0  0  0
   -2.7568    0.5465    0.5796 H   0  0  0  0  0  0  0  0  0  0  0  0
   -1.6048    1.3635    1.7775 H   0  0  0  0  0  0  0  0  0  0  0  0
   -0.9552   -1.0750    1.8118 H   0  0  0  0  0  0  0  0  0  0  0  0
   -1.8808   -0.8250   -1.1229 H   0  0  0  0  0  0  0  0  0  0  0  0
   -1.6980   -2.3147   -0.0980 H   0  0  0  0  0  0  0  0  0  0  0  0
    0.4165   -1.0007   -1.7670 H   0  0  0  0  0  0  0  0  0  0  0  0
    0.6636   -2.2781   -0.4366 H   0  0  0  0  0  0  0  0  0  0  0  0
  1  2  1  0
  2  3  1  0
  3  4  1  0
  4  5  1  0
  5  6  1  0
  6  7  1  0
  7  8  1  0
  8  9  1  0
  7  3  1  0
  9  3  1  0
  1 10  1  0
  1 11  1  0
  1 12  1  0
  4 13  1  0
  4 14  1  0
  5 15  1  0
  5 16  1  0
  6 17  1  0
  6 18  1  0
  7 19  1  0
  8 20  1  0
  8 21  1  0
  9 22  1  0
  9 23  1  0
M  END
