
     RDKit          3D

 19 19  0  0  0  0  0  0  0  0999 V2000
   -2.7679    0.0098   -0.4473 C   0  0  0  0  0  0  0  0  0  0  0  0
   -1.5852    0.2337    0.2520 O   0  0  0  0  0  0  0  0  0  0  0  0
   -0.5222   -0.1852   -0.5276 C   0  0  0  0  0  0  0  0  0  0  0  0
    0.2724   -1.2910    0.1229 C   0  0  0  0  0  0  0  0  0  0  0  0
    1.2053   -0.8595    1.0213 O   0  0  0  0  0  0  0  0  0  0  0  0
    2.1829   -0.1130    0.3629 C   0  0  0  0  0  0  0  0  0  0  0  0
    1.5160    1.2340    0.0483 C   0  0  0  0  0  0  0  0  0  0  0  0
    0.3954    0.9489   -0.8504 C   0  0  0  0  0  0  0  0  0  0  0  0
    0.1812    1.6100   -1.8636 O   0  0  0  0  0  0  0  0  0  0  0  0
   -3.6630    0.3221    0.1173 H   0  0  0  0  0  0  0  0  0  0  0  0
   -2.7927    0.5727   -1.4056 H   0  0  0  0  0  0  0  0  0  0  0  0
   -2.8638   -1.0652   -0.7061 H   0  0  0  0  0  0  0  0  0  0  0  0
   -0.8942   -0.5837   -1.4925 H   0  0  0  0  0  0  0  0  0  0  0  0
    0.7804   -1.8709   -0.6734 H   0  0  0  0  0  0  0  0  0  0  0  0
   -0.4198   -2.0204    0.6265 H   0  0  0  0  0  0  0  0  0  0  0  0
    3.0505    0.1195    0.9965 H   0  0  0  0  0  0  0  0  0  0  0  0
    2.5241   -0.5686   -0.5744 H   0  0  0  0  0  0  0  0  0  0  0  0
    1.1278    1.5938    1.0322 H   0  0  0  0  0  0  0  0  0  0  0  0
    2.2727    1.9130   -0.3601 H   0  0  0  0  0  0  0  0  0  0  0  0
  1  2  1  0
  2  3  1  0
  3  4  1  0
  4  5  1  0
  5  6  1  0
  6  7  1  0
  7  8  1  0
  8  9  2  0
  8  3  1  0
  1 10  1  0
  1 11  1  0
  1 12  1  0
  3 13  1  0
  4 14  1  0
  4 15  1  0
  6 16  1  0
  6 17  1  0
  7 18  1  0
  7 19  1  0
M  END
