
     RDKit          3D

 23 23  0  0  0  0  0  0  0  0999 V2000
    3.3066   -0.4129    0.0871 C   0  0  0  0  0  0  0  0  0  0  0  0
    2.2908    0.0081   -0.7874 O   0  0  0  0  0  0  0  0  0  0  0  0
    1.1122    0.2608   -0.0827 C   0  0  0  0  0  0  0  0  0  0  0  0
    0.1014   -0.7543   -0.5431 C   0  0  0  0  0  0  0  0  0  0  0  0
   -1.2434   -0.3704    0.0535 C   0  0  0  0  0  0  0  0  0  0  0  0
   -2.3111   -1.3759   -0.2727 C   0  0  0  0  0  0  0  0  0  0  0  0
   -1.5615    0.9787   -0.5919 C   0  0  0  0  0  0  0  0  0  0  0  0
   -0.5118    1.9314   -0.0780 C   0  0  0  0  0  0  0  0  0  0  0  0
    0.7659    1.5613   -0.3123 O   0  0  0  0  0  0  0  0  0  0  0  0
    3.4790    0.3928    0.8242 H   0  0  0  0  0  0  0  0  0  0  0  0
    4.2020   -0.7127   -0.4691 H   0  0  0  0  0  0  0  0  0  0  0  0
    2.8634   -1.2654    0.6649 H   0  0  0  0  0  0  0  0  0  0  0  0
    1.3121    0.0548    0.9891 H   0  0  0  0  0  0  0  0  0  0  0  0
    0.0726   -0.7558   -1.6526 H   0  0  0  0  0  0  0  0  0  0  0  0
    0.4042   -1.7368   -0.1435 H   0  0  0  0  0  0  0  0  0  0  0  0
   -1.0911   -0.2522    1.1336 H   0  0  0  0  0  0  0  0  0  0  0  0
   -3.1748   -0.8472   -0.7551 H   0  0  0  0  0  0  0  0  0  0  0  0
   -1.9624   -2.1745   -0.9461 H   0  0  0  0  0  0  0  0  0  0  0  0
   -2.7268   -1.8251    0.6618 H   0  0  0  0  0  0  0  0  0  0  0  0
   -1.3831    0.8526   -1.6789 H   0  0  0  0  0  0  0  0  0  0  0  0
   -2.5524    1.3438   -0.3363 H   0  0  0  0  0  0  0  0  0  0  0  0
   -0.6964    2.1997    0.9992 H   0  0  0  0  0  0  0  0  0  0  0  0
   -0.6953    2.8990   -0.6292 H   0  0  0  0  0  0  0  0  0  0  0  0
  1  2  1  0
  2  3  1  0
  3  4  1  0
  4  5  1  0
  5  6  1  0
  5  7  1  0
  7  8  1  0
  8  9  1  0
  9  3  1  0
  1 10  1  0
  1 11  1  0
  1 12  1  0
  3 13  1  0
  4 14  1  0
  4 15  1  0
  5 16  1  0
  6 17  1  0
  6 18  1  0
  6 19  1  0
  7 20  1  0
  7 21  1  0
  8 22  1  0
  8 23  1  0
M  END
