
     RDKit          3D

 20 21  0  0  0  0  0  0  0  0999 V2000
    3.3570   -0.0880    0.0520 C   0  0  0  0  0  0  0  0  0  0  0  0
    2.1954   -0.8161   -0.0604 O   0  0  0  0  0  0  0  0  0  0  0  0
    1.0567   -0.0407   -0.0834 C   0  0  0  0  0  0  0  0  0  0  0  0
    0.0266   -0.3983   -1.0643 C   0  0  0  0  0  0  0  0  0  0  0  0
   -1.3054    0.2687   -1.1435 C   0  0  0  0  0  0  0  0  0  0  0  0
   -1.3610    0.5270    0.3410 C   0  0  0  0  0  0  0  0  0  0  0  0
   -2.6192    0.1173    1.0356 C   0  0  0  0  0  0  0  0  0  0  0  0
   -0.2171   -0.4798    0.4773 C   0  0  0  0  0  0  0  0  0  0  0  0
    3.4003    0.5267    0.9832 H   0  0  0  0  0  0  0  0  0  0  0  0
    4.2045   -0.7934    0.0188 H   0  0  0  0  0  0  0  0  0  0  0  0
    3.4604    0.5936   -0.8383 H   0  0  0  0  0  0  0  0  0  0  0  0
    1.2803    1.0609   -0.0055 H   0  0  0  0  0  0  0  0  0  0  0  0
    0.1337   -1.3642   -1.5897 H   0  0  0  0  0  0  0  0  0  0  0  0
   -1.2821    1.1899   -1.7688 H   0  0  0  0  0  0  0  0  0  0  0  0
   -2.1053   -0.4617   -1.4648 H   0  0  0  0  0  0  0  0  0  0  0  0
   -1.0031    1.5708    0.5583 H   0  0  0  0  0  0  0  0  0  0  0  0
   -3.1180    1.0585    1.3955 H   0  0  0  0  0  0  0  0  0  0  0  0
   -3.3162   -0.4413    0.4082 H   0  0  0  0  0  0  0  0  0  0  0  0
   -2.3568   -0.5509    1.8949 H   0  0  0  0  0  0  0  0  0  0  0  0
   -0.4305   -1.4791    0.8540 H   0  0  0  0  0  0  0  0  0  0  0  0
  1  2  1  0
  2  3  1  0
  3  4  1  0
  4  5  1  0
  5  6  1  0
  6  7  1  0
  6  8  1  0
  8  3  1  0
  8  4  1  0
  1  9  1  0
  1 10  1  0
  1 11  1  0
  3 12  1  0
  4 13  1  0
  5 14  1  0
  5 15  1  0
  6 16  1  0
  7 17  1  0
  7 18  1  0
  7 19  1  0
  8 20  1  0
M  END
