
     RDKit          3D

 21 21  0  0  0  0  0  0  0  0999 V2000
   -3.2034    0.5301   -0.5636 C   0  0  0  0  0  0  0  0  0  0  0  0
   -1.8731    0.9339   -0.5548 O   0  0  0  0  0  0  0  0  0  0  0  0
   -1.0500    0.0429    0.1161 C   0  0  0  0  0  0  0  0  0  0  0  0
   -0.2555    0.6600    1.1831 C   0  0  0  0  0  0  0  0  0  0  0  0
    0.9858    0.2039    1.1729 C   0  0  0  0  0  0  0  0  0  0  0  0
    1.1564   -0.7851    0.0768 C   0  0  0  0  0  0  0  0  0  0  0  0
    2.4100   -0.3805   -0.6933 C   0  0  0  0  0  0  0  0  0  0  0  0
    3.5051   -0.3955    0.1462 O   0  0  0  0  0  0  0  0  0  0  0  0
   -0.0232   -0.5070   -0.8365 C   0  0  0  0  0  0  0  0  0  0  0  0
   -3.5985    0.4378    0.4766 H   0  0  0  0  0  0  0  0  0  0  0  0
   -3.3661   -0.4069   -1.1423 H   0  0  0  0  0  0  0  0  0  0  0  0
   -3.7701    1.3732   -1.0554 H   0  0  0  0  0  0  0  0  0  0  0  0
   -1.6154   -0.8291    0.5209 H   0  0  0  0  0  0  0  0  0  0  0  0
   -0.5979    1.4155    1.9295 H   0  0  0  0  0  0  0  0  0  0  0  0
    1.7943    0.5079    1.8767 H   0  0  0  0  0  0  0  0  0  0  0  0
    1.2111   -1.8198    0.4136 H   0  0  0  0  0  0  0  0  0  0  0  0
    2.5443   -1.0483   -1.5571 H   0  0  0  0  0  0  0  0  0  0  0  0
    2.2011    0.6637   -1.0583 H   0  0  0  0  0  0  0  0  0  0  0  0
    3.6854    0.5523    0.4241 H   0  0  0  0  0  0  0  0  0  0  0  0
   -0.3565   -1.4249   -1.3556 H   0  0  0  0  0  0  0  0  0  0  0  0
    0.2163    0.2761   -1.5914 H   0  0  0  0  0  0  0  0  0  0  0  0
  1  2  1  0
  2  3  1  0
  3  4  1  0
  4  5  2  0
  5  6  1  0
  6  7  1  0
  7  8  1  0
  6  9  1  0
  9  3  1  0
  1 10  1  0
  1 11  1  0
  1 12  1  0
  3 13  1  0
  4 14  1  0
  5 15  1  0
  6 16  1  0
  7 17  1  0
  7 18  1  0
  8 19  1  0
  9 20  1  0
  9 21  1  0
M  END
