
     RDKit          3D

 23 24  0  0  0  0  0  0  0  0999 V2000
    2.6553   -0.5379    0.3190 C   0  0  0  0  0  0  0  0  0  0  0  0
    1.3482   -0.9278    0.3287 O   0  0  0  0  0  0  0  0  0  0  0  0
    0.5143   -0.0671   -0.0087 C   0  0  0  0  0  0  0  0  0  0  0  0
    0.3877    0.6770   -1.3089 C   0  0  0  0  0  0  0  0  0  0  0  0
   -0.7301    1.2339   -0.4634 C   0  0  0  0  0  0  0  0  0  0  0  0
    0.3070    1.3019    0.6366 C   0  0  0  0  0  0  0  0  0  0  0  0
   -0.9794   -0.1654   -0.0128 C   0  0  0  0  0  0  0  0  0  0  0  0
   -1.5712   -1.1118   -1.0117 C   0  0  0  0  0  0  0  0  0  0  0  0
   -1.5516   -0.3335    1.3620 C   0  0  0  0  0  0  0  0  0  0  0  0
    3.2697   -1.4273    0.6467 H   0  0  0  0  0  0  0  0  0  0  0  0
    2.9979   -0.3305   -0.7261 H   0  0  0  0  0  0  0  0  0  0  0  0
    2.9036    0.2922    1.0094 H   0  0  0  0  0  0  0  0  0  0  0  0
    1.1696    1.4523   -1.4498 H   0  0  0  0  0  0  0  0  0  0  0  0
    0.0977    0.0930   -2.1816 H   0  0  0  0  0  0  0  0  0  0  0  0
   -1.3836    1.9467   -0.7145 H   0  0  0  0  0  0  0  0  0  0  0  0
    1.0629    2.0540    0.3885 H   0  0  0  0  0  0  0  0  0  0  0  0
   -0.0799    1.2786    1.6560 H   0  0  0  0  0  0  0  0  0  0  0  0
   -1.8121   -0.6564   -1.9805 H   0  0  0  0  0  0  0  0  0  0  0  0
   -2.5203   -1.5156   -0.5885 H   0  0  0  0  0  0  0  0  0  0  0  0
   -0.9089   -2.0203   -1.1266 H   0  0  0  0  0  0  0  0  0  0  0  0
   -2.3692   -1.1119    1.3894 H   0  0  0  0  0  0  0  0  0  0  0  0
   -2.0289    0.5931    1.7588 H   0  0  0  0  0  0  0  0  0  0  0  0
   -0.7784   -0.7173    2.0781 H   0  0  0  0  0  0  0  0  0  0  0  0
  1  2  1  0
  2  3  1  0
  3  4  1  0
  4  5  1  0
  5  6  1  0
  5  7  1  0
  7  8  1  0
  7  9  1  0
  6  3  1  0
  7  3  1  0
  1 10  1  0
  1 11  1  0
  1 12  1  0
  4 13  1  0
  4 14  1  0
  5 15  1  0
  6 16  1  0
  6 17  1  0
  8 18  1  0
  8 19  1  0
  8 20  1  0
  9 21  1  0
  9 22  1  0
  9 23  1  0
M  END
