
     RDKit          3D

 19 20  0  0  0  0  0  0  0  0999 V2000
    2.4143    0.1624   -0.2107 C   0  0  0  0  0  0  0  0  0  0  0  0
    1.4369   -0.3421    0.5755 O   0  0  0  0  0  0  0  0  0  0  0  0
    0.1658   -0.0024    0.3557 C   0  0  0  0  0  0  0  0  0  0  0  0
   -0.7925   -0.6513    1.3189 C   0  0  0  0  0  0  0  0  0  0  0  0
   -1.5084   -1.2790    0.1467 C   0  0  0  0  0  0  0  0  0  0  0  0
   -0.6221   -0.4872   -0.7698 C   0  0  0  0  0  0  0  0  0  0  0  0
   -1.1991    0.8682   -0.9906 C   0  0  0  0  0  0  0  0  0  0  0  0
   -2.1094    1.3246   -1.6681 O   0  0  0  0  0  0  0  0  0  0  0  0
   -0.1767    1.4021   -0.0246 C   0  0  0  0  0  0  0  0  0  0  0  0
    2.5149    1.2596   -0.2211 H   0  0  0  0  0  0  0  0  0  0  0  0
    2.2713   -0.2409   -1.2519 H   0  0  0  0  0  0  0  0  0  0  0  0
    3.3931   -0.2734    0.1245 H   0  0  0  0  0  0  0  0  0  0  0  0
   -0.3161   -1.4205    1.9556 H   0  0  0  0  0  0  0  0  0  0  0  0
   -1.3588    0.1090    1.8713 H   0  0  0  0  0  0  0  0  0  0  0  0
   -2.5773   -0.9586    0.1591 H   0  0  0  0  0  0  0  0  0  0  0  0
   -1.3574   -2.3644    0.0161 H   0  0  0  0  0  0  0  0  0  0  0  0
   -0.1791   -0.9841   -1.6144 H   0  0  0  0  0  0  0  0  0  0  0  0
   -0.6128    1.9772    0.8187 H   0  0  0  0  0  0  0  0  0  0  0  0
    0.6135    1.9009   -0.5908 H   0  0  0  0  0  0  0  0  0  0  0  0
  1  2  1  0
  2  3  1  0
  3  4  1  0
  4  5  1  0
  5  6  1  0
  6  7  1  0
  7  8  2  0
  7  9  1  0
  6  3  1  0
  9  3  1  0
  1 10  1  0
  1 11  1  0
  1 12  1  0
  4 13  1  0
  4 14  1  0
  5 15  1  0
  5 16  1  0
  6 17  1  0
  9 18  1  0
  9 19  1  0
M  END
