
     RDKit          3D

 21 21  0  0  0  0  0  0  0  0999 V2000
    2.6663   -0.7556   -0.8696 C   0  0  0  0  0  0  0  0  0  0  0  0
    2.0399    0.1798   -0.0162 O   0  0  0  0  0  0  0  0  0  0  0  0
    0.6549    0.0356   -0.0592 C   0  0  0  0  0  0  0  0  0  0  0  0
    0.0641    1.2841   -0.5823 C   0  0  0  0  0  0  0  0  0  0  0  0
   -1.3753    1.3431   -0.7158 C   0  0  0  0  0  0  0  0  0  0  0  0
   -2.3540    0.6191   -0.2115 C   0  0  0  0  0  0  0  0  0  0  0  0
   -2.2210   -0.5240    0.6867 C   0  0  0  0  0  0  0  0  0  0  0  0
   -1.1501   -0.9609    1.3289 C   0  0  0  0  0  0  0  0  0  0  0  0
    0.1980   -0.3940    1.2978 C   0  0  0  0  0  0  0  0  0  0  0  0
    3.7678   -0.6385   -0.8332 H   0  0  0  0  0  0  0  0  0  0  0  0
    2.4588   -1.7956   -0.5346 H   0  0  0  0  0  0  0  0  0  0  0  0
    2.2693   -0.5623   -1.8959 H   0  0  0  0  0  0  0  0  0  0  0  0
    0.4357   -0.7881   -0.7646 H   0  0  0  0  0  0  0  0  0  0  0  0
    0.5247    1.4972   -1.5707 H   0  0  0  0  0  0  0  0  0  0  0  0
    0.4068    2.1323    0.0795 H   0  0  0  0  0  0  0  0  0  0  0  0
   -1.7272    2.1420   -1.3593 H   0  0  0  0  0  0  0  0  0  0  0  0
   -3.3788    0.8799   -0.4769 H   0  0  0  0  0  0  0  0  0  0  0  0
   -3.1522   -1.1022    0.8484 H   0  0  0  0  0  0  0  0  0  0  0  0
   -1.2921   -1.8363    1.9455 H   0  0  0  0  0  0  0  0  0  0  0  0
    0.9181   -1.1720    1.6492 H   0  0  0  0  0  0  0  0  0  0  0  0
    0.2461    0.4164    2.0539 H   0  0  0  0  0  0  0  0  0  0  0  0
  1  2  1  0
  2  3  1  0
  3  4  1  0
  4  5  1  0
  5  6  2  0
  6  7  1  0
  7  8  2  0
  8  9  1  0
  9  3  1  0
  1 10  1  0
  1 11  1  0
  1 12  1  0
  3 13  1  0
  4 14  1  0
  4 15  1  0
  5 16  1  0
  6 17  1  0
  7 18  1  0
  8 19  1  0
  9 20  1  0
  9 21  1  0
M  END
