
     RDKit          3D

 19 19  0  0  0  0  0  0  0  0999 V2000
    2.9518   -0.5292    0.0020 C   0  0  0  0  0  0  0  0  0  0  0  0
    1.8931   -0.0314   -0.7551 O   0  0  0  0  0  0  0  0  0  0  0  0
    0.7815    0.0435    0.0802 C   0  0  0  0  0  0  0  0  0  0  0  0
   -0.3517   -0.7580   -0.4152 C   0  0  0  0  0  0  0  0  0  0  0  0
   -1.4744   -0.1367   -0.1271 C   0  0  0  0  0  0  0  0  0  0  0  0
   -2.8491   -0.6505   -0.4744 C   0  0  0  0  0  0  0  0  0  0  0  0
   -1.1985    1.1163    0.5627 C   0  0  0  0  0  0  0  0  0  0  0  0
   -1.9477    1.7950    1.2807 O   0  0  0  0  0  0  0  0  0  0  0  0
    0.2383    1.4255    0.2083 C   0  0  0  0  0  0  0  0  0  0  0  0
    3.1702    0.1529    0.8737 H   0  0  0  0  0  0  0  0  0  0  0  0
    2.7500   -1.5192    0.4209 H   0  0  0  0  0  0  0  0  0  0  0  0
    3.9042   -0.5433   -0.5859 H   0  0  0  0  0  0  0  0  0  0  0  0
    1.0300   -0.3101    1.1196 H   0  0  0  0  0  0  0  0  0  0  0  0
   -0.2593   -1.7311   -0.9462 H   0  0  0  0  0  0  0  0  0  0  0  0
   -3.1401   -1.4836    0.2213 H   0  0  0  0  0  0  0  0  0  0  0  0
   -3.5957    0.1543   -0.2786 H   0  0  0  0  0  0  0  0  0  0  0  0
   -2.8755   -1.0371   -1.4970 H   0  0  0  0  0  0  0  0  0  0  0  0
    0.6766    2.0212    1.0268 H   0  0  0  0  0  0  0  0  0  0  0  0
    0.2962    2.0214   -0.7166 H   0  0  0  0  0  0  0  0  0  0  0  0
  1  2  1  0
  2  3  1  0
  3  4  1  0
  4  5  2  0
  5  6  1  0
  5  7  1  0
  7  8  2  0
  7  9  1  0
  9  3  1  0
  1 10  1  0
  1 11  1  0
  1 12  1  0
  3 13  1  0
  4 14  1  0
  6 15  1  0
  6 16  1  0
  6 17  1  0
  9 18  1  0
  9 19  1  0
M  END
