
     RDKit          3D

 19 19  0  0  0  0  0  0  0  0999 V2000
    2.9361    0.4879   -0.0380 C   0  0  0  0  0  0  0  0  0  0  0  0
    1.6306    0.8928    0.1552 O   0  0  0  0  0  0  0  0  0  0  0  0
    0.6914   -0.0731   -0.1056 C   0  0  0  0  0  0  0  0  0  0  0  0
   -0.2994    0.4049   -1.1108 C   0  0  0  0  0  0  0  0  0  0  0  0
   -0.2246    1.1143   -2.0695 O   0  0  0  0  0  0  0  0  0  0  0  0
   -1.3170   -0.3820   -0.3697 C   0  0  0  0  0  0  0  0  0  0  0  0
   -2.6430    0.2994   -0.1747 C   0  0  0  0  0  0  0  0  0  0  0  0
   -0.4520   -0.1828    0.8595 C   0  0  0  0  0  0  0  0  0  0  0  0
   -0.4616   -1.2991    1.6768 O   0  0  0  0  0  0  0  0  0  0  0  0
    3.5839    1.3669    0.2095 H   0  0  0  0  0  0  0  0  0  0  0  0
    3.2291   -0.3520    0.6426 H   0  0  0  0  0  0  0  0  0  0  0  0
    3.1560    0.1530   -1.0661 H   0  0  0  0  0  0  0  0  0  0  0  0
    1.0705   -1.0630   -0.4392 H   0  0  0  0  0  0  0  0  0  0  0  0
   -1.3517   -1.4526   -0.6272 H   0  0  0  0  0  0  0  0  0  0  0  0
   -3.0446   -0.0027    0.8144 H   0  0  0  0  0  0  0  0  0  0  0  0
   -3.3743    0.0688   -0.9577 H   0  0  0  0  0  0  0  0  0  0  0  0
   -2.4313    1.3928   -0.0904 H   0  0  0  0  0  0  0  0  0  0  0  0
   -0.6593    0.7185    1.4337 H   0  0  0  0  0  0  0  0  0  0  0  0
   -0.0388   -2.0920    1.2572 H   0  0  0  0  0  0  0  0  0  0  0  0
  1  2  1  0
  2  3  1  0
  3  4  1  0
  4  5  2  0
  4  6  1  0
  6  7  1  0
  6  8  1  0
  8  9  1  0
  8  3  1  0
  1 10  1  0
  1 11  1  0
  1 12  1  0
  3 13  1  0
  6 14  1  0
  7 15  1  0
  7 16  1  0
  7 17  1  0
  8 18  1  0
  9 19  1  0
M  END
