
     RDKit          3D

 23 23  0  0  0  0  0  0  0  0999 V2000
    2.3418   -1.1830   -0.6290 C   0  0  0  0  0  0  0  0  0  0  0  0
    1.4027   -0.1999   -0.9255 O   0  0  0  0  0  0  0  0  0  0  0  0
    0.6702    0.0634    0.1925 C   0  0  0  0  0  0  0  0  0  0  0  0
    0.7682    1.5234    0.5243 C   0  0  0  0  0  0  0  0  0  0  0  0
   -0.3672    2.1403   -0.1494 C   0  0  0  0  0  0  0  0  0  0  0  0
   -1.2687    1.2701   -0.4597 C   0  0  0  0  0  0  0  0  0  0  0  0
   -0.8243   -0.0741   -0.0146 C   0  0  0  0  0  0  0  0  0  0  0  0
   -1.4459   -0.3276    1.3431 C   0  0  0  0  0  0  0  0  0  0  0  0
   -1.1686   -1.1329   -1.0211 C   0  0  0  0  0  0  0  0  0  0  0  0
    2.9702   -1.4464   -1.4880 H   0  0  0  0  0  0  0  0  0  0  0  0
    2.9971   -0.8727    0.2324 H   0  0  0  0  0  0  0  0  0  0  0  0
    1.7663   -2.0699   -0.2498 H   0  0  0  0  0  0  0  0  0  0  0  0
    1.0216   -0.5738    1.0251 H   0  0  0  0  0  0  0  0  0  0  0  0
    0.7295    1.6021    1.6357 H   0  0  0  0  0  0  0  0  0  0  0  0
    1.7150    1.9791    0.1622 H   0  0  0  0  0  0  0  0  0  0  0  0
   -0.4565    3.2041   -0.3701 H   0  0  0  0  0  0  0  0  0  0  0  0
   -2.2416    1.3865   -0.9686 H   0  0  0  0  0  0  0  0  0  0  0  0
   -2.5017    0.0058    1.3113 H   0  0  0  0  0  0  0  0  0  0  0  0
   -1.3423   -1.4042    1.5798 H   0  0  0  0  0  0  0  0  0  0  0  0
   -0.9049    0.3161    2.0701 H   0  0  0  0  0  0  0  0  0  0  0  0
   -2.0507   -0.7655   -1.5934 H   0  0  0  0  0  0  0  0  0  0  0  0
   -1.4935   -2.0697   -0.5097 H   0  0  0  0  0  0  0  0  0  0  0  0
   -0.3166   -1.3713   -1.6976 H   0  0  0  0  0  0  0  0  0  0  0  0
  1  2  1  0
  2  3  1  0
  3  4  1  0
  4  5  1  0
  5  6  2  0
  6  7  1  0
  7  8  1  0
  7  9  1  0
  7  3  1  0
  1 10  1  0
  1 11  1  0
  1 12  1  0
  3 13  1  0
  4 14  1  0
  4 15  1  0
  5 16  1  0
  6 17  1  0
  8 18  1  0
  8 19  1  0
  8 20  1  0
  9 21  1  0
  9 22  1  0
  9 23  1  0
M  END
