
     RDKit          3D

 18 19  0  0  0  0  0  0  0  0999 V2000
    3.1105    0.6658   -0.1032 C   0  0  0  0  0  0  0  0  0  0  0  0
    1.9673    0.2470   -0.7670 O   0  0  0  0  0  0  0  0  0  0  0  0
    0.9148   -0.0314    0.0770 C   0  0  0  0  0  0  0  0  0  0  0  0
    0.0703   -1.2446   -0.3218 C   0  0  0  0  0  0  0  0  0  0  0  0
   -1.0849   -1.4966    0.4137 O   0  0  0  0  0  0  0  0  0  0  0  0
   -1.5665   -0.1928    0.4747 C   0  0  0  0  0  0  0  0  0  0  0  0
   -2.8916    0.0540   -0.1635 C   0  0  0  0  0  0  0  0  0  0  0  0
   -0.4371    0.2083   -0.4432 C   0  0  0  0  0  0  0  0  0  0  0  0
    3.4127   -0.1576    0.5853 H   0  0  0  0  0  0  0  0  0  0  0  0
    2.9657    1.6030    0.4664 H   0  0  0  0  0  0  0  0  0  0  0  0
    3.9178    0.7599   -0.8692 H   0  0  0  0  0  0  0  0  0  0  0  0
    1.0935    0.1066    1.1660 H   0  0  0  0  0  0  0  0  0  0  0  0
    0.2961   -1.7843   -1.2336 H   0  0  0  0  0  0  0  0  0  0  0  0
   -1.4174    0.2907    1.4646 H   0  0  0  0  0  0  0  0  0  0  0  0
   -3.1268   -0.7576   -0.8804 H   0  0  0  0  0  0  0  0  0  0  0  0
   -2.8559    1.0131   -0.7229 H   0  0  0  0  0  0  0  0  0  0  0  0
   -3.7220    0.1679    0.5722 H   0  0  0  0  0  0  0  0  0  0  0  0
   -0.6466    0.5483   -1.4680 H   0  0  0  0  0  0  0  0  0  0  0  0
  1  2  1  0
  2  3  1  0
  3  4  1  0
  4  5  1  0
  5  6  1  0
  6  7  1  0
  6  8  1  0
  8  3  1  0
  8  4  1  0
  1  9  1  0
  1 10  1  0
  1 11  1  0
  3 12  1  0
  4 13  1  0
  6 14  1  0
  7 15  1  0
  7 16  1  0
  7 17  1  0
  8 18  1  0
M  END
