
     RDKit          3D

 18 20  0  0  0  0  0  0  0  0999 V2000
    2.9365    0.5374   -0.9823 C   0  0  0  0  0  0  0  0  0  0  0  0
    1.5778    0.4322   -1.1207 O   0  0  0  0  0  0  0  0  0  0  0  0
    0.9212    0.1094    0.0714 C   0  0  0  0  0  0  0  0  0  0  0  0
   -0.2255   -0.7538   -0.0456 C   0  0  0  0  0  0  0  0  0  0  0  0
   -1.6426   -0.3955   -0.3902 C   0  0  0  0  0  0  0  0  0  0  0  0
   -2.7725   -0.2652    0.4877 C   0  0  0  0  0  0  0  0  0  0  0  0
   -1.5245    0.1214    1.1018 C   0  0  0  0  0  0  0  0  0  0  0  0
   -0.3248    0.7434    0.4577 C   0  0  0  0  0  0  0  0  0  0  0  0
    3.2451    1.3343   -0.2426 H   0  0  0  0  0  0  0  0  0  0  0  0
    3.3846    0.8164   -1.9309 H   0  0  0  0  0  0  0  0  0  0  0  0
    3.3210   -0.4174   -0.5720 H   0  0  0  0  0  0  0  0  0  0  0  0
    1.6662   -0.0001    0.9163 H   0  0  0  0  0  0  0  0  0  0  0  0
   -0.2635   -1.5323    0.7748 H   0  0  0  0  0  0  0  0  0  0  0  0
   -1.6171    0.4193   -1.1748 H   0  0  0  0  0  0  0  0  0  0  0  0
   -3.5297    0.5657    0.3850 H   0  0  0  0  0  0  0  0  0  0  0  0
   -3.3100   -1.2199    0.7487 H   0  0  0  0  0  0  0  0  0  0  0  0
   -1.1668   -0.6545    1.8433 H   0  0  0  0  0  0  0  0  0  0  0  0
   -0.6753    1.4794   -0.3275 H   0  0  0  0  0  0  0  0  0  0  0  0
  1  2  1  0
  2  3  1  0
  3  4  1  0
  4  5  1  0
  5  6  1  0
  6  7  1  0
  7  8  1  0
  8  3  1  0
  8  4  1  0
  7  5  1  0
  1  9  1  0
  1 10  1  0
  1 11  1  0
  3 12  1  0
  4 13  1  0
  5 14  1  0
  6 15  1  0
  6 16  1  0
  7 17  1  0
  8 18  1  0
M  END
