
     RDKit          3D

 19 20  0  0  0  0  0  0  0  0999 V2000
    3.1270    0.4120   -0.0418 C   0  0  0  0  0  0  0  0  0  0  0  0
    1.8950   -0.0831    0.3988 O   0  0  0  0  0  0  0  0  0  0  0  0
    0.8643    0.2624   -0.4509 C   0  0  0  0  0  0  0  0  0  0  0  0
   -0.1081   -0.8373   -0.7858 C   0  0  0  0  0  0  0  0  0  0  0  0
   -1.2818    0.0153   -0.3879 C   0  0  0  0  0  0  0  0  0  0  0  0
   -2.3688   -0.5844    0.4363 C   0  0  0  0  0  0  0  0  0  0  0  0
   -3.6049   -0.3428   -0.1613 O   0  0  0  0  0  0  0  0  0  0  0  0
   -1.2879    1.3689   -0.6158 O   0  0  0  0  0  0  0  0  0  0  0  0
   -0.2908    0.9760    0.2204 C   0  0  0  0  0  0  0  0  0  0  0  0
    3.1238    1.5259   -0.1131 H   0  0  0  0  0  0  0  0  0  0  0  0
    3.9024    0.0462    0.6623 H   0  0  0  0  0  0  0  0  0  0  0  0
    3.2929    0.0410   -1.0824 H   0  0  0  0  0  0  0  0  0  0  0  0
    1.2009    0.8720   -1.3322 H   0  0  0  0  0  0  0  0  0  0  0  0
   -0.1215   -1.1624   -1.8445 H   0  0  0  0  0  0  0  0  0  0  0  0
    0.0503   -1.6926   -0.0937 H   0  0  0  0  0  0  0  0  0  0  0  0
   -2.3452   -0.3006    1.5008 H   0  0  0  0  0  0  0  0  0  0  0  0
   -2.2297   -1.7042    0.4252 H   0  0  0  0  0  0  0  0  0  0  0  0
   -3.4748    0.1409   -1.0128 H   0  0  0  0  0  0  0  0  0  0  0  0
   -0.3430    1.0470    1.3090 H   0  0  0  0  0  0  0  0  0  0  0  0
  1  2  1  0
  2  3  1  0
  3  4  1  0
  4  5  1  0
  5  6  1  0
  6  7  1  0
  5  8  1  0
  8  9  1  0
  9  3  1  0
  9  5  1  0
  1 10  1  0
  1 11  1  0
  1 12  1  0
  3 13  1  0
  4 14  1  0
  4 15  1  0
  6 16  1  0
  6 17  1  0
  7 18  1  0
  9 19  1  0
M  END
