
     RDKit          3D

 21 22  0  0  0  0  0  0  0  0999 V2000
    2.8992   -0.2378   -0.5210 C   0  0  0  0  0  0  0  0  0  0  0  0
    1.8478   -0.7093    0.2068 O   0  0  0  0  0  0  0  0  0  0  0  0
    0.7746    0.1052    0.3433 C   0  0  0  0  0  0  0  0  0  0  0  0
   -0.3570   -0.4028    1.1284 C   0  0  0  0  0  0  0  0  0  0  0  0
   -1.4566   -0.4377    0.4178 C   0  0  0  0  0  0  0  0  0  0  0  0
   -2.8191   -0.8976    0.8792 C   0  0  0  0  0  0  0  0  0  0  0  0
   -1.1889    0.0349   -0.9381 C   0  0  0  0  0  0  0  0  0  0  0  0
    0.1641    0.6045   -0.9701 C   0  0  0  0  0  0  0  0  0  0  0  0
    0.7408    1.5374    0.0171 C   0  0  0  0  0  0  0  0  0  0  0  0
    3.6872   -1.0485   -0.5211 H   0  0  0  0  0  0  0  0  0  0  0  0
    3.4044    0.6240   -0.0051 H   0  0  0  0  0  0  0  0  0  0  0  0
    2.7077   -0.0123   -1.5692 H   0  0  0  0  0  0  0  0  0  0  0  0
   -0.3012   -0.7126    2.1658 H   0  0  0  0  0  0  0  0  0  0  0  0
   -2.7678   -1.1925    1.9294 H   0  0  0  0  0  0  0  0  0  0  0  0
   -3.1850   -1.7395    0.2819 H   0  0  0  0  0  0  0  0  0  0  0  0
   -3.4966   -0.0253    0.7911 H   0  0  0  0  0  0  0  0  0  0  0  0
   -1.1764   -0.8971   -1.5916 H   0  0  0  0  0  0  0  0  0  0  0  0
   -1.9861    0.7132   -1.3305 H   0  0  0  0  0  0  0  0  0  0  0  0
    0.7468    0.4314   -1.9010 H   0  0  0  0  0  0  0  0  0  0  0  0
    0.1039    2.1760    0.6638 H   0  0  0  0  0  0  0  0  0  0  0  0
    1.6584    2.0865   -0.3053 H   0  0  0  0  0  0  0  0  0  0  0  0
  1  2  1  0
  2  3  1  0
  3  4  1  0
  4  5  2  0
  5  6  1  0
  5  7  1  0
  7  8  1  0
  8  9  1  0
  8  3  1  0
  9  3  1  0
  1 10  1  0
  1 11  1  0
  1 12  1  0
  4 13  1  0
  6 14  1  0
  6 15  1  0
  6 16  1  0
  7 17  1  0
  7 18  1  0
  8 19  1  0
  9 20  1  0
  9 21  1  0
M  END
