
     RDKit          3D

 21 23  0  0  0  0  0  0  0  0999 V2000
    2.5307    0.1306    1.1731 C   0  0  0  0  0  0  0  0  0  0  0  0
    1.4226   -0.6676    1.2447 O   0  0  0  0  0  0  0  0  0  0  0  0
    0.3074   -0.1897    0.6402 C   0  0  0  0  0  0  0  0  0  0  0  0
   -0.9888   -0.9003    0.6063 C   0  0  0  0  0  0  0  0  0  0  0  0
   -2.0194    0.1734    0.3267 C   0  0  0  0  0  0  0  0  0  0  0  0
   -1.2546    1.4499    0.0511 C   0  0  0  0  0  0  0  0  0  0  0  0
    0.1704    0.9589   -0.2119 C   0  0  0  0  0  0  0  0  0  0  0  0
    0.3523   -0.3281   -0.9082 C   0  0  0  0  0  0  0  0  0  0  0  0
   -0.5431   -1.4967   -0.7327 C   0  0  0  0  0  0  0  0  0  0  0  0
    2.8472    0.3253    0.1094 H   0  0  0  0  0  0  0  0  0  0  0  0
    2.3478    1.0828    1.7152 H   0  0  0  0  0  0  0  0  0  0  0  0
    3.3738   -0.3651    1.6758 H   0  0  0  0  0  0  0  0  0  0  0  0
   -1.2290   -1.6212    1.3825 H   0  0  0  0  0  0  0  0  0  0  0  0
   -2.7618    0.2831    1.1295 H   0  0  0  0  0  0  0  0  0  0  0  0
   -2.6009   -0.0884   -0.6052 H   0  0  0  0  0  0  0  0  0  0  0  0
   -1.2674    2.1129    0.9603 H   0  0  0  0  0  0  0  0  0  0  0  0
   -1.6008    1.9738   -0.8553 H   0  0  0  0  0  0  0  0  0  0  0  0
    0.9170    1.7294   -0.3882 H   0  0  0  0  0  0  0  0  0  0  0  0
    1.3169   -0.5191   -1.3724 H   0  0  0  0  0  0  0  0  0  0  0  0
    0.0399   -2.4189   -0.5094 H   0  0  0  0  0  0  0  0  0  0  0  0
   -1.3602   -1.6250   -1.4563 H   0  0  0  0  0  0  0  0  0  0  0  0
  1  2  1  0
  2  3  1  0
  3  4  1  0
  4  5  1  0
  5  6  1  0
  6  7  1  0
  7  8  1  0
  8  9  1  0
  7  3  1  0
  8  3  1  0
  9  4  1  0
  1 10  1  0
  1 11  1  0
  1 12  1  0
  4 13  1  0
  5 14  1  0
  5 15  1  0
  6 16  1  0
  6 17  1  0
  7 18  1  0
  8 19  1  0
  9 20  1  0
  9 21  1  0
M  END
