
     RDKit          3D

 19 19  0  0  0  0  0  0  0  0999 V2000
    2.9963    0.7766   -0.0006 C   0  0  0  0  0  0  0  0  0  0  0  0
    1.6621    0.7396    0.3922 O   0  0  0  0  0  0  0  0  0  0  0  0
    1.1426   -0.5182    0.0804 C   0  0  0  0  0  0  0  0  0  0  0  0
   -0.0939   -0.4090   -0.7322 C   0  0  0  0  0  0  0  0  0  0  0  0
   -1.0865   -0.3201    0.1397 C   0  0  0  0  0  0  0  0  0  0  0  0
   -2.5106   -0.1939   -0.2432 C   0  0  0  0  0  0  0  0  0  0  0  0
   -3.0490    1.0081    0.2707 O   0  0  0  0  0  0  0  0  0  0  0  0
   -0.5146   -0.3698    1.5375 C   0  0  0  0  0  0  0  0  0  0  0  0
    0.6749   -1.0846    1.2660 O   0  0  0  0  0  0  0  0  0  0  0  0
    3.1398    0.6091   -1.0681 H   0  0  0  0  0  0  0  0  0  0  0  0
    3.5616   -0.0475    0.5259 H   0  0  0  0  0  0  0  0  0  0  0  0
    3.4016    1.7630    0.3497 H   0  0  0  0  0  0  0  0  0  0  0  0
    1.9093   -1.1493   -0.3892 H   0  0  0  0  0  0  0  0  0  0  0  0
   -0.1456   -0.4054   -1.8068 H   0  0  0  0  0  0  0  0  0  0  0  0
   -3.1225   -1.0578    0.0782 H   0  0  0  0  0  0  0  0  0  0  0  0
   -2.6271   -0.1130   -1.3413 H   0  0  0  0  0  0  0  0  0  0  0  0
   -3.9615    1.1285   -0.0717 H   0  0  0  0  0  0  0  0  0  0  0  0
   -0.2611    0.6290    1.9009 H   0  0  0  0  0  0  0  0  0  0  0  0
   -1.1159   -0.9853    2.2062 H   0  0  0  0  0  0  0  0  0  0  0  0
  1  2  1  0
  2  3  1  0
  3  4  1  0
  4  5  2  0
  5  6  1  0
  6  7  1  0
  5  8  1  0
  8  9  1  0
  9  3  1  0
  1 10  1  0
  1 11  1  0
  1 12  1  0
  3 13  1  0
  4 14  1  0
  6 15  1  0
  6 16  1  0
  7 17  1  0
  8 18  1  0
  8 19  1  0
M  END
