
     RDKit          3D

 23 23  0  0  0  0  0  0  0  0999 V2000
    2.0373   -1.0284   -1.0371 C   0  0  0  0  0  0  0  0  0  0  0  0
    1.6818    0.1988   -0.6216 O   0  0  0  0  0  0  0  0  0  0  0  0
    0.5921    0.4345    0.1243 C   0  0  0  0  0  0  0  0  0  0  0  0
    0.4381    1.9112    0.5116 C   0  0  0  0  0  0  0  0  0  0  0  0
    0.1216   -0.6303    1.0438 C   0  0  0  0  0  0  0  0  0  0  0  0
   -0.1782   -0.2144    2.3517 O   0  0  0  0  0  0  0  0  0  0  0  0
   -0.7641   -0.2086   -0.0473 C   0  0  0  0  0  0  0  0  0  0  0  0
   -0.9833   -0.9648   -1.3131 C   0  0  0  0  0  0  0  0  0  0  0  0
   -1.9971    0.5654    0.4192 C   0  0  0  0  0  0  0  0  0  0  0  0
    2.2082   -1.7711   -0.1953 H   0  0  0  0  0  0  0  0  0  0  0  0
    3.1199   -0.9215   -1.4319 H   0  0  0  0  0  0  0  0  0  0  0  0
    1.5210   -1.4918   -1.8738 H   0  0  0  0  0  0  0  0  0  0  0  0
   -0.0839    2.4124   -0.3291 H   0  0  0  0  0  0  0  0  0  0  0  0
    1.4041    2.4028    0.6560 H   0  0  0  0  0  0  0  0  0  0  0  0
   -0.1756    2.0365    1.4035 H   0  0  0  0  0  0  0  0  0  0  0  0
    0.6393   -1.6076    1.0496 H   0  0  0  0  0  0  0  0  0  0  0  0
    0.5807    0.3017    2.7238 H   0  0  0  0  0  0  0  0  0  0  0  0
   -0.6589   -2.0431   -1.2567 H   0  0  0  0  0  0  0  0  0  0  0  0
   -0.5732   -0.5210   -2.2210 H   0  0  0  0  0  0  0  0  0  0  0  0
   -2.0853   -1.0511   -1.5192 H   0  0  0  0  0  0  0  0  0  0  0  0
   -2.8461   -0.1343    0.3695 H   0  0  0  0  0  0  0  0  0  0  0  0
   -1.8896    0.9067    1.4689 H   0  0  0  0  0  0  0  0  0  0  0  0
   -2.1086    1.4178   -0.2757 H   0  0  0  0  0  0  0  0  0  0  0  0
  1  2  1  0
  2  3  1  0
  3  4  1  0
  3  5  1  0
  5  6  1  0
  5  7  1  0
  7  8  1  0
  7  9  1  0
  7  3  1  0
  1 10  1  0
  1 11  1  0
  1 12  1  0
  4 13  1  0
  4 14  1  0
  4 15  1  0
  5 16  1  0
  6 17  1  0
  8 18  1  0
  8 19  1  0
  8 20  1  0
  9 21  1  0
  9 22  1  0
  9 23  1  0
M  END
