
     RDKit          3D

 18 19  0  0  0  0  0  0  0  0999 V2000
    2.2722    0.1924   -0.0226 C   0  0  0  0  0  0  0  0  0  0  0  0
    1.1569    0.0526    0.7678 O   0  0  0  0  0  0  0  0  0  0  0  0
   -0.0162   -0.1758    0.1220 C   0  0  0  0  0  0  0  0  0  0  0  0
   -0.1198   -1.4034   -0.7299 C   0  0  0  0  0  0  0  0  0  0  0  0
   -0.7202    1.0583   -0.4355 C   0  0  0  0  0  0  0  0  0  0  0  0
   -1.5651    1.2110    0.7821 C   0  0  0  0  0  0  0  0  0  0  0  0
   -1.1353    0.8302    2.0260 O   0  0  0  0  0  0  0  0  0  0  0  0
   -1.1474   -0.2175    1.1586 C   0  0  0  0  0  0  0  0  0  0  0  0
    3.1387    0.3722    0.6564 H   0  0  0  0  0  0  0  0  0  0  0  0
    2.4770   -0.8119   -0.4928 H   0  0  0  0  0  0  0  0  0  0  0  0
    2.2431    1.0074   -0.7396 H   0  0  0  0  0  0  0  0  0  0  0  0
   -1.0945   -1.3441   -1.2796 H   0  0  0  0  0  0  0  0  0  0  0  0
   -0.1822   -2.3380   -0.1281 H   0  0  0  0  0  0  0  0  0  0  0  0
    0.7078   -1.5344   -1.4419 H   0  0  0  0  0  0  0  0  0  0  0  0
   -1.3595    0.7211   -1.2981 H   0  0  0  0  0  0  0  0  0  0  0  0
   -0.0554    1.8915   -0.7035 H   0  0  0  0  0  0  0  0  0  0  0  0
   -2.6533    1.4229    0.7007 H   0  0  0  0  0  0  0  0  0  0  0  0
   -1.9468   -0.9345    1.0581 H   0  0  0  0  0  0  0  0  0  0  0  0
  1  2  1  0
  2  3  1  0
  3  4  1  0
  3  5  1  0
  5  6  1  0
  6  7  1  0
  7  8  1  0
  8  3  1  0
  8  6  1  0
  1  9  1  0
  1 10  1  0
  1 11  1  0
  4 12  1  0
  4 13  1  0
  4 14  1  0
  5 15  1  0
  5 16  1  0
  6 17  1  0
  8 18  1  0
M  END
