
     RDKit          3D

 19 21  0  0  0  0  0  0  0  0999 V2000
    2.8446    0.1843   -0.4035 C   0  0  0  0  0  0  0  0  0  0  0  0
    1.7603   -0.6435   -0.1562 O   0  0  0  0  0  0  0  0  0  0  0  0
    0.7018    0.0443    0.4477 C   0  0  0  0  0  0  0  0  0  0  0  0
    0.2413   -0.5562    1.5802 O   0  0  0  0  0  0  0  0  0  0  0  0
   -1.0740   -0.8938    1.4552 C   0  0  0  0  0  0  0  0  0  0  0  0
   -2.0356   -0.0066    0.7557 C   0  0  0  0  0  0  0  0  0  0  0  0
   -1.4807    1.0443   -0.2116 C   0  0  0  0  0  0  0  0  0  0  0  0
   -0.4233    0.0230   -0.5805 C   0  0  0  0  0  0  0  0  0  0  0  0
   -1.3063   -1.0270    0.0132 C   0  0  0  0  0  0  0  0  0  0  0  0
    2.5032    0.9932   -1.0811 H   0  0  0  0  0  0  0  0  0  0  0  0
    3.5849   -0.4105   -0.9768 H   0  0  0  0  0  0  0  0  0  0  0  0
    3.2927    0.5248    0.5249 H   0  0  0  0  0  0  0  0  0  0  0  0
    1.0214    1.0999    0.5715 H   0  0  0  0  0  0  0  0  0  0  0  0
   -1.4751   -1.5858    2.1898 H   0  0  0  0  0  0  0  0  0  0  0  0
   -3.1060   -0.1193    0.8814 H   0  0  0  0  0  0  0  0  0  0  0  0
   -2.1579    1.3164   -1.0251 H   0  0  0  0  0  0  0  0  0  0  0  0
   -1.0579    1.9337    0.3040 H   0  0  0  0  0  0  0  0  0  0  0  0
   -0.1382   -0.0516   -1.6194 H   0  0  0  0  0  0  0  0  0  0  0  0
   -1.6952   -1.8696   -0.5103 H   0  0  0  0  0  0  0  0  0  0  0  0
  1  2  1  0
  2  3  1  0
  3  4  1  0
  4  5  1  0
  5  6  1  0
  6  7  1  0
  7  8  1  0
  8  9  1  0
  8  3  1  0
  9  5  1  0
  9  6  1  0
  1 10  1  0
  1 11  1  0
  1 12  1  0
  3 13  1  0
  5 14  1  0
  6 15  1  0
  7 16  1  0
  7 17  1  0
  8 18  1  0
  9 19  1  0
M  END
