
     RDKit          3D

 21 22  0  0  0  0  0  0  0  0999 V2000
    2.7507   -0.5021    0.3368 C   0  0  0  0  0  0  0  0  0  0  0  0
    1.4849   -0.2168    0.8436 O   0  0  0  0  0  0  0  0  0  0  0  0
    0.5997    0.0593   -0.1625 C   0  0  0  0  0  0  0  0  0  0  0  0
   -0.0111    1.4562    0.0750 C   0  0  0  0  0  0  0  0  0  0  0  0
   -1.4444    1.0671    0.2302 C   0  0  0  0  0  0  0  0  0  0  0  0
   -1.6165    0.0923   -0.9431 C   0  0  0  0  0  0  0  0  0  0  0  0
   -0.6516   -0.7612   -0.1248 C   0  0  0  0  0  0  0  0  0  0  0  0
   -0.6291   -2.0719   -0.3105 O   0  0  0  0  0  0  0  0  0  0  0  0
   -1.4176   -0.2024    1.0826 C   0  0  0  0  0  0  0  0  0  0  0  0
    3.1122    0.3866   -0.2345 H   0  0  0  0  0  0  0  0  0  0  0  0
    2.7603   -1.3769   -0.3340 H   0  0  0  0  0  0  0  0  0  0  0  0
    3.4886   -0.6915    1.1415 H   0  0  0  0  0  0  0  0  0  0  0  0
    1.0548    0.0021   -1.1544 H   0  0  0  0  0  0  0  0  0  0  0  0
    0.4515    1.9074    0.9502 H   0  0  0  0  0  0  0  0  0  0  0  0
    0.1125    2.0316   -0.8564 H   0  0  0  0  0  0  0  0  0  0  0  0
   -2.2028    1.7784    0.4029 H   0  0  0  0  0  0  0  0  0  0  0  0
   -2.6119   -0.3678   -0.9244 H   0  0  0  0  0  0  0  0  0  0  0  0
   -1.2350    0.4482   -1.8973 H   0  0  0  0  0  0  0  0  0  0  0  0
   -0.7111   -2.3007   -1.2824 H   0  0  0  0  0  0  0  0  0  0  0  0
   -0.8353   -0.1362    1.9988 H   0  0  0  0  0  0  0  0  0  0  0  0
   -2.4488   -0.6014    1.1628 H   0  0  0  0  0  0  0  0  0  0  0  0
  1  2  1  0
  2  3  1  0
  3  4  1  0
  4  5  1  0
  5  6  1  0
  6  7  1  0
  7  8  1  0
  7  9  1  0
  7  3  1  0
  9  5  1  0
  1 10  1  0
  1 11  1  0
  1 12  1  0
  3 13  1  0
  4 14  1  0
  4 15  1  0
  5 16  1  0
  6 17  1  0
  6 18  1  0
  8 19  1  0
  9 20  1  0
  9 21  1  0
M  END
