
     RDKit          3D

 23 24  0  0  0  0  0  0  0  0999 V2000
   -1.3092   -2.0747   -0.0746 C   0  0  0  0  0  0  0  0  0  0  0  0
   -0.1073   -1.4295   -0.0608 O   0  0  0  0  0  0  0  0  0  0  0  0
   -0.1355   -0.0774    0.0742 C   0  0  0  0  0  0  0  0  0  0  0  0
    1.2496    0.5233    0.0755 C   0  0  0  0  0  0  0  0  0  0  0  0
    2.1494    0.3477   -1.0889 C   0  0  0  0  0  0  0  0  0  0  0  0
    2.4248   -0.3975    0.2101 C   0  0  0  0  0  0  0  0  0  0  0  0
   -1.0558    0.7176   -0.7835 C   0  0  0  0  0  0  0  0  0  0  0  0
   -1.3183    1.6102    0.4304 C   0  0  0  0  0  0  0  0  0  0  0  0
   -0.9055    0.4013    1.2846 C   0  0  0  0  0  0  0  0  0  0  0  0
   -1.9921   -1.7685   -0.8909 H   0  0  0  0  0  0  0  0  0  0  0  0
   -1.0883   -3.1632   -0.2875 H   0  0  0  0  0  0  0  0  0  0  0  0
   -1.8482   -2.0898    0.8947 H   0  0  0  0  0  0  0  0  0  0  0  0
    1.2877    1.5418    0.5350 H   0  0  0  0  0  0  0  0  0  0  0  0
    1.8409   -0.2393   -1.9759 H   0  0  0  0  0  0  0  0  0  0  0  0
    2.8645    1.1644   -1.3504 H   0  0  0  0  0  0  0  0  0  0  0  0
    2.2587   -1.4724    0.1554 H   0  0  0  0  0  0  0  0  0  0  0  0
    3.3042   -0.0342    0.8132 H   0  0  0  0  0  0  0  0  0  0  0  0
   -0.6063    1.3338   -1.5815 H   0  0  0  0  0  0  0  0  0  0  0  0
   -1.9839    0.2567   -1.1253 H   0  0  0  0  0  0  0  0  0  0  0  0
   -2.3851    1.8886    0.5378 H   0  0  0  0  0  0  0  0  0  0  0  0
   -0.6080    2.4421    0.5398 H   0  0  0  0  0  0  0  0  0  0  0  0
   -1.8005   -0.1592    1.5427 H   0  0  0  0  0  0  0  0  0  0  0  0
   -0.2359    0.6785    2.1261 H   0  0  0  0  0  0  0  0  0  0  0  0
  1  2  1  0
  2  3  1  0
  3  4  1  0
  4  5  1  0
  5  6  1  0
  3  7  1  0
  7  8  1  0
  8  9  1  0
  9  3  1  0
  6  4  1  0
  1 10  1  0
  1 11  1  0
  1 12  1  0
  4 13  1  0
  5 14  1  0
  5 15  1  0
  6 16  1  0
  6 17  1  0
  7 18  1  0
  7 19  1  0
  8 20  1  0
  8 21  1  0
  9 22  1  0
  9 23  1  0
M  END
