
     RDKit          3D

 18 18  0  0  0  0  0  0  0  0999 V2000
    2.1864    0.1779    0.3333 C   0  0  0  0  0  0  0  0  0  0  0  0
    1.0421    0.3915    1.1062 O   0  0  0  0  0  0  0  0  0  0  0  0
   -0.0498   -0.1244    0.4325 C   0  0  0  0  0  0  0  0  0  0  0  0
    0.0376   -1.6002    0.1527 C   0  0  0  0  0  0  0  0  0  0  0  0
   -1.4109    0.4132    0.6350 C   0  0  0  0  0  0  0  0  0  0  0  0
   -2.5008   -0.4388    0.4022 O   0  0  0  0  0  0  0  0  0  0  0  0
   -0.6290    0.7396   -0.6195 C   0  0  0  0  0  0  0  0  0  0  0  0
   -0.2919    2.0870   -0.7215 O   0  0  0  0  0  0  0  0  0  0  0  0
    3.0938    0.5774    0.8357 H   0  0  0  0  0  0  0  0  0  0  0  0
    2.2678   -0.8911    0.0686 H   0  0  0  0  0  0  0  0  0  0  0  0
    2.1313    0.7259   -0.6446 H   0  0  0  0  0  0  0  0  0  0  0  0
    0.8019   -2.1095    0.7953 H   0  0  0  0  0  0  0  0  0  0  0  0
   -0.9282   -2.0983    0.4133 H   0  0  0  0  0  0  0  0  0  0  0  0
    0.3188   -1.8303   -0.8988 H   0  0  0  0  0  0  0  0  0  0  0  0
   -1.6363    1.2103    1.3624 H   0  0  0  0  0  0  0  0  0  0  0  0
   -2.8928   -0.1191   -0.4689 H   0  0  0  0  0  0  0  0  0  0  0  0
   -0.8822    0.2534   -1.5666 H   0  0  0  0  0  0  0  0  0  0  0  0
   -0.6579    2.6354    0.0172 H   0  0  0  0  0  0  0  0  0  0  0  0
  1  2  1  0
  2  3  1  0
  3  4  1  0
  3  5  1  0
  5  6  1  0
  5  7  1  0
  7  8  1  0
  7  3  1  0
  1  9  1  0
  1 10  1  0
  1 11  1  0
  4 12  1  0
  4 13  1  0
  4 14  1  0
  5 15  1  0
  6 16  1  0
  7 17  1  0
  8 18  1  0
M  END
