
     RDKit          3D

 23 23  0  0  0  0  0  0  0  0999 V2000
    3.3029   -0.3953   -0.2953 C   0  0  0  0  0  0  0  0  0  0  0  0
    1.9952   -0.6187   -0.7157 O   0  0  0  0  0  0  0  0  0  0  0  0
    1.0550   -0.1925    0.2152 C   0  0  0  0  0  0  0  0  0  0  0  0
    0.1681   -1.3844    0.5114 C   0  0  0  0  0  0  0  0  0  0  0  0
   -0.9736   -0.7557    1.0104 O   0  0  0  0  0  0  0  0  0  0  0  0
   -1.2627    0.2123    0.0811 C   0  0  0  0  0  0  0  0  0  0  0  0
   -2.0311    1.3188    0.7824 C   0  0  0  0  0  0  0  0  0  0  0  0
   -2.1136   -0.2979   -1.0696 C   0  0  0  0  0  0  0  0  0  0  0  0
    0.0469    0.7594   -0.4346 C   0  0  0  0  0  0  0  0  0  0  0  0
    3.5455   -0.9235    0.6524 H   0  0  0  0  0  0  0  0  0  0  0  0
    3.9617   -0.7696   -1.1093 H   0  0  0  0  0  0  0  0  0  0  0  0
    3.5010    0.6992   -0.1738 H   0  0  0  0  0  0  0  0  0  0  0  0
    1.4933    0.2428    1.1132 H   0  0  0  0  0  0  0  0  0  0  0  0
    0.6221   -2.0751    1.2356 H   0  0  0  0  0  0  0  0  0  0  0  0
   -0.0600   -1.8580   -0.4657 H   0  0  0  0  0  0  0  0  0  0  0  0
   -3.0784    1.0331    0.9018 H   0  0  0  0  0  0  0  0  0  0  0  0
   -1.5406    1.5328    1.7448 H   0  0  0  0  0  0  0  0  0  0  0  0
   -1.9276    2.2205    0.1392 H   0  0  0  0  0  0  0  0  0  0  0  0
   -1.8683    0.3008   -1.9765 H   0  0  0  0  0  0  0  0  0  0  0  0
   -3.1963   -0.1562   -0.8789 H   0  0  0  0  0  0  0  0  0  0  0  0
   -1.9299   -1.3512   -1.2978 H   0  0  0  0  0  0  0  0  0  0  0  0
    0.1989    1.7989   -0.0755 H   0  0  0  0  0  0  0  0  0  0  0  0
    0.0913    0.6596   -1.5271 H   0  0  0  0  0  0  0  0  0  0  0  0
  1  2  1  0
  2  3  1  0
  3  4  1  0
  4  5  1  0
  5  6  1  0
  6  7  1  0
  6  8  1  0
  6  9  1  0
  9  3  1  0
  1 10  1  0
  1 11  1  0
  1 12  1  0
  3 13  1  0
  4 14  1  0
  4 15  1  0
  7 16  1  0
  7 17  1  0
  7 18  1  0
  8 19  1  0
  8 20  1  0
  8 21  1  0
  9 22  1  0
  9 23  1  0
M  END
