
     RDKit          3D

 25 25  0  0  0  0  0  0  0  0999 V2000
    3.1224    0.3946    0.0149 C   0  0  0  0  0  0  0  0  0  0  0  0
    2.0521   -0.1463   -0.6951 O   0  0  0  0  0  0  0  0  0  0  0  0
    0.9337   -0.2843    0.1039 C   0  0  0  0  0  0  0  0  0  0  0  0
    0.4450   -1.7380    0.0935 C   0  0  0  0  0  0  0  0  0  0  0  0
   -0.9700   -1.5458    0.6427 C   0  0  0  0  0  0  0  0  0  0  0  0
   -1.4499   -0.3903   -0.2404 C   0  0  0  0  0  0  0  0  0  0  0  0
   -2.5699    0.2875    0.4462 C   0  0  0  0  0  0  0  0  0  0  0  0
   -0.2429    0.4347   -0.4904 C   0  0  0  0  0  0  0  0  0  0  0  0
   -0.3110    1.8263    0.0651 C   0  0  0  0  0  0  0  0  0  0  0  0
    4.0216    0.5065   -0.6241 H   0  0  0  0  0  0  0  0  0  0  0  0
    3.4252   -0.2374    0.8751 H   0  0  0  0  0  0  0  0  0  0  0  0
    2.8954    1.4019    0.4269 H   0  0  0  0  0  0  0  0  0  0  0  0
    1.1222    0.0623    1.1355 H   0  0  0  0  0  0  0  0  0  0  0  0
    1.0380   -2.3814    0.7415 H   0  0  0  0  0  0  0  0  0  0  0  0
    0.3796   -2.0614   -0.9585 H   0  0  0  0  0  0  0  0  0  0  0  0
   -1.5871   -2.4367    0.5413 H   0  0  0  0  0  0  0  0  0  0  0  0
   -0.8968   -1.1574    1.6797 H   0  0  0  0  0  0  0  0  0  0  0  0
   -1.8145   -0.8493   -1.2041 H   0  0  0  0  0  0  0  0  0  0  0  0
   -3.5284   -0.2398    0.1663 H   0  0  0  0  0  0  0  0  0  0  0  0
   -2.7224    1.3374    0.2154 H   0  0  0  0  0  0  0  0  0  0  0  0
   -2.4957    0.1427    1.5614 H   0  0  0  0  0  0  0  0  0  0  0  0
   -0.0293    0.5398   -1.5907 H   0  0  0  0  0  0  0  0  0  0  0  0
    0.6520    2.3317   -0.2199 H   0  0  0  0  0  0  0  0  0  0  0  0
   -0.3581    1.7677    1.1684 H   0  0  0  0  0  0  0  0  0  0  0  0
   -1.1112    2.4349   -0.3863 H   0  0  0  0  0  0  0  0  0  0  0  0
  1  2  1  0
  2  3  1  0
  3  4  1  0
  4  5  1  0
  5  6  1  0
  6  7  1  0
  6  8  1  0
  8  9  1  0
  8  3  1  0
  1 10  1  0
  1 11  1  0
  1 12  1  0
  3 13  1  0
  4 14  1  0
  4 15  1  0
  5 16  1  0
  5 17  1  0
  6 18  1  0
  7 19  1  0
  7 20  1  0
  7 21  1  0
  8 22  1  0
  9 23  1  0
  9 24  1  0
  9 25  1  0
M  END
