
     RDKit          3D

 17 18  0  0  0  0  0  0  0  0999 V2000
    2.0036   -1.1303    0.0776 C   0  0  0  0  0  0  0  0  0  0  0  0
    1.6564    0.0595   -0.4907 O   0  0  0  0  0  0  0  0  0  0  0  0
    0.3448    0.4281   -0.3336 C   0  0  0  0  0  0  0  0  0  0  0  0
   -0.0779    1.7137   -0.9345 C   0  0  0  0  0  0  0  0  0  0  0  0
    0.1075    2.2866   -2.0384 O   0  0  0  0  0  0  0  0  0  0  0  0
   -0.7989    2.1322    0.1753 O   0  0  0  0  0  0  0  0  0  0  0  0
   -0.1862    1.0529    0.8855 C   0  0  0  0  0  0  0  0  0  0  0  0
   -0.6336   -0.2801    0.4748 C   0  0  0  0  0  0  0  0  0  0  0  0
   -1.9996   -0.4556   -0.2057 C   0  0  0  0  0  0  0  0  0  0  0  0
    3.0806   -1.3093   -0.1205 H   0  0  0  0  0  0  0  0  0  0  0  0
    1.9042   -1.0595    1.1815 H   0  0  0  0  0  0  0  0  0  0  0  0
    1.4412   -2.0024   -0.2905 H   0  0  0  0  0  0  0  0  0  0  0  0
    0.4001    1.2611    1.7800 H   0  0  0  0  0  0  0  0  0  0  0  0
   -0.4029   -1.1232    1.1443 H   0  0  0  0  0  0  0  0  0  0  0  0
   -2.6414   -1.1544    0.3345 H   0  0  0  0  0  0  0  0  0  0  0  0
   -2.4531    0.5087   -0.4397 H   0  0  0  0  0  0  0  0  0  0  0  0
   -1.7448   -0.9280   -1.1998 H   0  0  0  0  0  0  0  0  0  0  0  0
  1  2  1  0
  2  3  1  0
  3  4  1  0
  4  5  2  0
  4  6  1  0
  6  7  1  0
  7  8  1  0
  8  9  1  0
  7  3  1  0
  8  3  1  0
  1 10  1  0
  1 11  1  0
  1 12  1  0
  7 13  1  0
  8 14  1  0
  9 15  1  0
  9 16  1  0
  9 17  1  0
M  END
