
     RDKit          3D

 14 14  0  0  0  0  0  0  0  0999 V2000
   -2.3324   -0.2111   -0.1261 C   0  0  0  0  0  0  0  0  0  0  0  0
   -1.0413   -0.4896    0.3086 O   0  0  0  0  0  0  0  0  0  0  0  0
   -0.0678   -0.0044   -0.5576 C   0  0  0  0  0  0  0  0  0  0  0  0
    0.8259    0.9191    0.1729 C   0  0  0  0  0  0  0  0  0  0  0  0
    2.0409    0.4147    0.0903 C   0  0  0  0  0  0  0  0  0  0  0  0
    2.0373   -0.8283   -0.6703 C   0  0  0  0  0  0  0  0  0  0  0  0
    3.0517   -1.5319   -0.9120 O   0  0  0  0  0  0  0  0  0  0  0  0
    0.7383   -1.0493   -1.0467 O   0  0  0  0  0  0  0  0  0  0  0  0
   -2.5323    0.8739   -0.2286 H   0  0  0  0  0  0  0  0  0  0  0  0
   -3.0167   -0.5901    0.6677 H   0  0  0  0  0  0  0  0  0  0  0  0
   -2.6046   -0.7222   -1.0600 H   0  0  0  0  0  0  0  0  0  0  0  0
   -0.5033    0.5184   -1.4408 H   0  0  0  0  0  0  0  0  0  0  0  0
    0.4875    1.8172    0.6591 H   0  0  0  0  0  0  0  0  0  0  0  0
    2.9168    0.8836    0.5396 H   0  0  0  0  0  0  0  0  0  0  0  0
  1  2  1  0
  2  3  1  0
  3  4  1  0
  4  5  2  0
  5  6  1  0
  6  7  2  0
  6  8  1  0
  8  3  1  0
  1  9  1  0
  1 10  1  0
  1 11  1  0
  3 12  1  0
  4 13  1  0
  5 14  1  0
M  END
