
     RDKit          3D

 21 23  0  0  0  0  0  0  0  0999 V2000
   -2.3351   -0.1906   -1.1138 C   0  0  0  0  0  0  0  0  0  0  0  0
   -1.1393    0.3735   -0.7724 O   0  0  0  0  0  0  0  0  0  0  0  0
   -0.3060   -0.5291   -0.0468 C   0  0  0  0  0  0  0  0  0  0  0  0
   -0.8778   -0.9704    1.1578 C   0  0  0  0  0  0  0  0  0  0  0  0
    0.1420   -0.0051    1.3749 C   0  0  0  0  0  0  0  0  0  0  0  0
    0.4667    1.3164    0.8288 C   0  0  0  0  0  0  0  0  0  0  0  0
    1.4080    0.9301   -0.3302 C   0  0  0  0  0  0  0  0  0  0  0  0
    2.3252   -0.2050   -0.1822 C   0  0  0  0  0  0  0  0  0  0  0  0
    1.0183   -0.5612   -0.6502 C   0  0  0  0  0  0  0  0  0  0  0  0
   -2.9056    0.5983   -1.6768 H   0  0  0  0  0  0  0  0  0  0  0  0
   -2.2526   -1.0416   -1.8231 H   0  0  0  0  0  0  0  0  0  0  0  0
   -2.9796   -0.4285   -0.2430 H   0  0  0  0  0  0  0  0  0  0  0  0
   -1.9095   -0.6952    1.4631 H   0  0  0  0  0  0  0  0  0  0  0  0
   -0.7112   -2.0562    1.4277 H   0  0  0  0  0  0  0  0  0  0  0  0
    1.0849   -0.4524    1.7949 H   0  0  0  0  0  0  0  0  0  0  0  0
   -0.3853    1.8412    0.3549 H   0  0  0  0  0  0  0  0  0  0  0  0
    0.9993    1.9629    1.5613 H   0  0  0  0  0  0  0  0  0  0  0  0
    1.4260    1.5850   -1.1974 H   0  0  0  0  0  0  0  0  0  0  0  0
    2.8082   -0.4965    0.7821 H   0  0  0  0  0  0  0  0  0  0  0  0
    3.1671   -0.1731   -0.9467 H   0  0  0  0  0  0  0  0  0  0  0  0
    0.9564   -0.8026   -1.7629 H   0  0  0  0  0  0  0  0  0  0  0  0
  1  2  1  0
  2  3  1  0
  3  4  1  0
  4  5  1  0
  5  6  1  0
  6  7  1  0
  7  8  1  0
  8  9  1  0
  5  3  1  0
  9  7  1  0
  9  3  1  0
  1 10  1  0
  1 11  1  0
  1 12  1  0
  4 13  1  0
  4 14  1  0
  5 15  1  0
  6 16  1  0
  6 17  1  0
  7 18  1  0
  8 19  1  0
  8 20  1  0
  9 21  1  0
M  END
