
     RDKit          3D

 21 22  0  0  0  0  0  0  0  0999 V2000
    2.3740    0.7687   -0.0988 C   0  0  0  0  0  0  0  0  0  0  0  0
    1.2575    0.3271    0.5596 O   0  0  0  0  0  0  0  0  0  0  0  0
    0.2397   -0.0987   -0.3506 C   0  0  0  0  0  0  0  0  0  0  0  0
    0.6441   -1.1483   -1.1710 C   0  0  0  0  0  0  0  0  0  0  0  0
   -0.2463   -1.5777   -0.1840 C   0  0  0  0  0  0  0  0  0  0  0  0
   -0.4180   -1.3448    1.2911 C   0  0  0  0  0  0  0  0  0  0  0  0
   -1.4416   -0.2188    1.1099 C   0  0  0  0  0  0  0  0  0  0  0  0
   -0.9869    0.5086    0.0886 C   0  0  0  0  0  0  0  0  0  0  0  0
   -1.7445    1.7053   -0.3807 C   0  0  0  0  0  0  0  0  0  0  0  0
    3.1156    1.0814    0.6705 H   0  0  0  0  0  0  0  0  0  0  0  0
    2.1285    1.7150   -0.6655 H   0  0  0  0  0  0  0  0  0  0  0  0
    2.8375    0.0821   -0.8014 H   0  0  0  0  0  0  0  0  0  0  0  0
    1.6865   -1.5552   -1.1391 H   0  0  0  0  0  0  0  0  0  0  0  0
    0.3274   -1.1126   -2.2561 H   0  0  0  0  0  0  0  0  0  0  0  0
   -1.2818   -1.8230   -0.5826 H   0  0  0  0  0  0  0  0  0  0  0  0
    0.4944   -0.9637    1.7557 H   0  0  0  0  0  0  0  0  0  0  0  0
   -0.8382   -2.1824    1.8352 H   0  0  0  0  0  0  0  0  0  0  0  0
   -2.2999   -0.1356    1.7306 H   0  0  0  0  0  0  0  0  0  0  0  0
   -1.3592    2.0873   -1.3421 H   0  0  0  0  0  0  0  0  0  0  0  0
   -2.8023    1.4187   -0.4944 H   0  0  0  0  0  0  0  0  0  0  0  0
   -1.6864    2.4667    0.4250 H   0  0  0  0  0  0  0  0  0  0  0  0
  1  2  1  0
  2  3  1  0
  3  4  1  0
  4  5  1  0
  5  6  1  0
  6  7  1  0
  7  8  2  0
  8  9  1  0
  5  3  1  0
  8  3  1  0
  1 10  1  0
  1 11  1  0
  1 12  1  0
  4 13  1  0
  4 14  1  0
  5 15  1  0
  6 16  1  0
  6 17  1  0
  7 18  1  0
  9 19  1  0
  9 20  1  0
  9 21  1  0
M  END
