
     RDKit          3D

 14 15  0  0  0  0  0  0  0  0999 V2000
    2.2234    0.0861    0.1692 C   0  0  0  0  0  0  0  0  0  0  0  0
    0.9874    0.5648    0.5914 O   0  0  0  0  0  0  0  0  0  0  0  0
   -0.0134   -0.1125   -0.0245 C   0  0  0  0  0  0  0  0  0  0  0  0
   -1.0603   -0.7160    0.8444 C   0  0  0  0  0  0  0  0  0  0  0  0
   -0.9943   -1.4586    1.8001 O   0  0  0  0  0  0  0  0  0  0  0  0
   -2.0777   -0.0155    0.0229 C   0  0  0  0  0  0  0  0  0  0  0  0
   -1.9989   -0.0264   -1.3553 O   0  0  0  0  0  0  0  0  0  0  0  0
   -1.1378    0.7372   -0.6078 C   0  0  0  0  0  0  0  0  0  0  0  0
    3.0521    0.6342    0.6679 H   0  0  0  0  0  0  0  0  0  0  0  0
    2.3719   -0.9834    0.4014 H   0  0  0  0  0  0  0  0  0  0  0  0
    2.3795    0.2288   -0.9233 H   0  0  0  0  0  0  0  0  0  0  0  0
    0.3570   -0.8973   -0.7277 H   0  0  0  0  0  0  0  0  0  0  0  0
   -3.0903    0.1573    0.4076 H   0  0  0  0  0  0  0  0  0  0  0  0
   -0.9986    1.8013   -0.7580 H   0  0  0  0  0  0  0  0  0  0  0  0
  1  2  1  0
  2  3  1  0
  3  4  1  0
  4  5  2  0
  4  6  1  0
  6  7  1  0
  7  8  1  0
  8  3  1  0
  8  6  1  0
  1  9  1  0
  1 10  1  0
  1 11  1  0
  3 12  1  0
  6 13  1  0
  8 14  1  0
M  END
