
     RDKit          3D

 21 22  0  0  0  0  0  0  0  0999 V2000
    2.3846   -0.9984    0.4131 C   0  0  0  0  0  0  0  0  0  0  0  0
    1.3432   -0.0893    0.5729 O   0  0  0  0  0  0  0  0  0  0  0  0
    0.5091   -0.0194   -0.5085 C   0  0  0  0  0  0  0  0  0  0  0  0
    0.3464    1.4427   -0.9723 C   0  0  0  0  0  0  0  0  0  0  0  0
   -1.0950    1.6216   -0.5622 C   0  0  0  0  0  0  0  0  0  0  0  0
   -1.1475    1.0010    0.8200 C   0  0  0  0  0  0  0  0  0  0  0  0
   -0.9269   -0.2003   -0.0215 C   0  0  0  0  0  0  0  0  0  0  0  0
   -1.3503   -1.5160    0.4120 C   0  0  0  0  0  0  0  0  0  0  0  0
   -1.6784    0.4476   -1.0304 O   0  0  0  0  0  0  0  0  0  0  0  0
    1.9591   -2.0315    0.2462 H   0  0  0  0  0  0  0  0  0  0  0  0
    2.9600   -1.0815    1.3580 H   0  0  0  0  0  0  0  0  0  0  0  0
    3.0485   -0.7749   -0.4250 H   0  0  0  0  0  0  0  0  0  0  0  0
    0.7560   -0.6712   -1.3476 H   0  0  0  0  0  0  0  0  0  0  0  0
    0.9883    2.1193   -0.4082 H   0  0  0  0  0  0  0  0  0  0  0  0
    0.4413    1.5158   -2.0685 H   0  0  0  0  0  0  0  0  0  0  0  0
   -1.5789    2.5523   -0.7283 H   0  0  0  0  0  0  0  0  0  0  0  0
   -0.2654    1.3243    1.4101 H   0  0  0  0  0  0  0  0  0  0  0  0
   -2.1147    1.0862    1.3240 H   0  0  0  0  0  0  0  0  0  0  0  0
   -0.5712   -2.3136    0.3778 H   0  0  0  0  0  0  0  0  0  0  0  0
   -1.8477   -1.5269    1.4215 H   0  0  0  0  0  0  0  0  0  0  0  0
   -2.1605   -1.8880   -0.2829 H   0  0  0  0  0  0  0  0  0  0  0  0
  1  2  1  0
  2  3  1  0
  3  4  1  0
  4  5  1  0
  5  6  1  0
  6  7  1  0
  7  8  1  0
  7  9  1  0
  7  3  1  0
  9  5  1  0
  1 10  1  0
  1 11  1  0
  1 12  1  0
  3 13  1  0
  4 14  1  0
  4 15  1  0
  5 16  1  0
  6 17  1  0
  6 18  1  0
  8 19  1  0
  8 20  1  0
  8 21  1  0
M  END
