
     RDKit          3D

 21 22  0  0  0  0  0  0  0  0999 V2000
    2.6839    0.1295    0.7060 C   0  0  0  0  0  0  0  0  0  0  0  0
    1.4304   -0.0419    1.2643 O   0  0  0  0  0  0  0  0  0  0  0  0
    0.4258   -0.2754    0.3532 C   0  0  0  0  0  0  0  0  0  0  0  0
   -0.9882   -0.4817    0.8474 C   0  0  0  0  0  0  0  0  0  0  0  0
   -1.8487    0.4168    0.0310 C   0  0  0  0  0  0  0  0  0  0  0  0
   -2.9679   -0.2575   -0.4901 O   0  0  0  0  0  0  0  0  0  0  0  0
   -1.0377    0.9245   -1.1164 C   0  0  0  0  0  0  0  0  0  0  0  0
    0.3806    0.4810   -0.8983 C   0  0  0  0  0  0  0  0  0  0  0  0
    0.7058   -0.9593   -0.9640 C   0  0  0  0  0  0  0  0  0  0  0  0
    3.3954    0.3117    1.5572 H   0  0  0  0  0  0  0  0  0  0  0  0
    2.7485    0.9521   -0.0322 H   0  0  0  0  0  0  0  0  0  0  0  0
    2.9963   -0.8569    0.2947 H   0  0  0  0  0  0  0  0  0  0  0  0
   -1.0776   -0.3378    1.9412 H   0  0  0  0  0  0  0  0  0  0  0  0
   -1.2570   -1.5307    0.6059 H   0  0  0  0  0  0  0  0  0  0  0  0
   -2.2456    1.2251    0.6736 H   0  0  0  0  0  0  0  0  0  0  0  0
   -3.5895   -0.5509    0.2202 H   0  0  0  0  0  0  0  0  0  0  0  0
   -1.0999    2.0328   -1.1573 H   0  0  0  0  0  0  0  0  0  0  0  0
   -1.4185    0.5691   -2.1148 H   0  0  0  0  0  0  0  0  0  0  0  0
    1.1401    1.1753   -1.2528 H   0  0  0  0  0  0  0  0  0  0  0  0
   -0.0857   -1.6316   -1.4013 H   0  0  0  0  0  0  0  0  0  0  0  0
    1.7092   -1.2944   -1.2123 H   0  0  0  0  0  0  0  0  0  0  0  0
  1  2  1  0
  2  3  1  0
  3  4  1  0
  4  5  1  0
  5  6  1  0
  5  7  1  0
  7  8  1  0
  8  9  1  0
  8  3  1  0
  9  3  1  0
  1 10  1  0
  1 11  1  0
  1 12  1  0
  4 13  1  0
  4 14  1  0
  5 15  1  0
  6 16  1  0
  7 17  1  0
  7 18  1  0
  8 19  1  0
  9 20  1  0
  9 21  1  0
M  END
