
     RDKit          3D

 17 17  0  0  0  0  0  0  0  0999 V2000
    2.4120   -0.6820   -0.2874 C   0  0  0  0  0  0  0  0  0  0  0  0
    1.0629   -0.7321   -0.6644 O   0  0  0  0  0  0  0  0  0  0  0  0
    0.4176    0.3017   -0.0491 C   0  0  0  0  0  0  0  0  0  0  0  0
   -0.2062    1.2015   -0.9742 O   0  0  0  0  0  0  0  0  0  0  0  0
   -1.1099    1.9352   -0.1861 C   0  0  0  0  0  0  0  0  0  0  0  0
   -1.5364    3.1059   -0.4096 O   0  0  0  0  0  0  0  0  0  0  0  0
   -1.4606    1.1414    0.8987 O   0  0  0  0  0  0  0  0  0  0  0  0
   -0.7779   -0.1157    0.7687 C   0  0  0  0  0  0  0  0  0  0  0  0
   -1.7188   -1.0081   -0.0237 C   0  0  0  0  0  0  0  0  0  0  0  0
    2.8311    0.2950   -0.6137 H   0  0  0  0  0  0  0  0  0  0  0  0
    2.9458   -1.5473   -0.6860 H   0  0  0  0  0  0  0  0  0  0  0  0
    2.5164   -0.6951    0.8258 H   0  0  0  0  0  0  0  0  0  0  0  0
    1.0762    0.9056    0.5708 H   0  0  0  0  0  0  0  0  0  0  0  0
   -0.5374   -0.5165    1.7502 H   0  0  0  0  0  0  0  0  0  0  0  0
   -2.2561   -0.3819   -0.7863 H   0  0  0  0  0  0  0  0  0  0  0  0
   -1.1801   -1.8244   -0.5074 H   0  0  0  0  0  0  0  0  0  0  0  0
   -2.4786   -1.3832    0.6886 H   0  0  0  0  0  0  0  0  0  0  0  0
  1  2  1  0
  2  3  1  0
  3  4  1  0
  4  5  1  0
  5  6  2  0
  5  7  1  0
  7  8  1  0
  8  9  1  0
  8  3  1  0
  1 10  1  0
  1 11  1  0
  1 12  1  0
  3 13  1  0
  8 14  1  0
  9 15  1  0
  9 16  1  0
  9 17  1  0
M  END
