
     RDKit          3D

 20 20  0  0  0  0  0  0  0  0999 V2000
    2.8167    0.3049   -0.4981 C   0  0  0  0  0  0  0  0  0  0  0  0
    1.4597    0.5873   -0.4645 O   0  0  0  0  0  0  0  0  0  0  0  0
    0.7355   -0.3486    0.2686 C   0  0  0  0  0  0  0  0  0  0  0  0
   -0.2458   -0.9904   -0.6754 C   0  0  0  0  0  0  0  0  0  0  0  0
   -1.6694   -0.8019   -0.3119 C   0  0  0  0  0  0  0  0  0  0  0  0
   -2.0005    0.4983    0.3339 C   0  0  0  0  0  0  0  0  0  0  0  0
   -0.8493    1.1289    1.0699 C   0  0  0  0  0  0  0  0  0  0  0  0
    0.1350    0.2026    1.3866 O   0  0  0  0  0  0  0  0  0  0  0  0
    3.2440    0.2910    0.5189 H   0  0  0  0  0  0  0  0  0  0  0  0
    2.9970   -0.6893   -0.9828 H   0  0  0  0  0  0  0  0  0  0  0  0
    3.2911    1.1292   -1.0877 H   0  0  0  0  0  0  0  0  0  0  0  0
    1.4758   -1.0934    0.6390 H   0  0  0  0  0  0  0  0  0  0  0  0
   -0.0990   -0.6645   -1.7366 H   0  0  0  0  0  0  0  0  0  0  0  0
   -0.0424   -2.0975   -0.6940 H   0  0  0  0  0  0  0  0  0  0  0  0
   -2.0103   -1.6710    0.3208 H   0  0  0  0  0  0  0  0  0  0  0  0
   -2.3076   -0.8774   -1.2409 H   0  0  0  0  0  0  0  0  0  0  0  0
   -2.8709    0.3112    1.0276 H   0  0  0  0  0  0  0  0  0  0  0  0
   -2.3765    1.2582   -0.3938 H   0  0  0  0  0  0  0  0  0  0  0  0
   -0.4392    1.9940    0.4943 H   0  0  0  0  0  0  0  0  0  0  0  0
   -1.2438    1.5284    2.0263 H   0  0  0  0  0  0  0  0  0  0  0  0
  1  2  1  0
  2  3  1  0
  3  4  1  0
  4  5  1  0
  5  6  1  0
  6  7  1  0
  7  8  1  0
  8  3  1  0
  1  9  1  0
  1 10  1  0
  1 11  1  0
  3 12  1  0
  4 13  1  0
  4 14  1  0
  5 15  1  0
  5 16  1  0
  6 17  1  0
  6 18  1  0
  7 19  1  0
  7 20  1  0
M  END
