
     RDKit          3D

 19 21  0  0  0  0  0  0  0  0999 V2000
    2.2561   -0.6414    0.4193 C   0  0  0  0  0  0  0  0  0  0  0  0
    1.5655    0.1990   -0.4023 O   0  0  0  0  0  0  0  0  0  0  0  0
    0.2262    0.1517   -0.3925 C   0  0  0  0  0  0  0  0  0  0  0  0
   -0.4871   -1.1004   -0.7450 C   0  0  0  0  0  0  0  0  0  0  0  0
   -1.5156   -0.7677    0.3422 C   0  0  0  0  0  0  0  0  0  0  0  0
   -0.5856    0.3256    0.7993 C   0  0  0  0  0  0  0  0  0  0  0  0
   -1.0637    1.6602    0.2984 C   0  0  0  0  0  0  0  0  0  0  0  0
   -1.7432    1.6187   -0.8966 O   0  0  0  0  0  0  0  0  0  0  0  0
   -0.3983    1.3654   -1.0411 C   0  0  0  0  0  0  0  0  0  0  0  0
    3.3480   -0.4495    0.2649 H   0  0  0  0  0  0  0  0  0  0  0  0
    2.0626   -0.5266    1.4904 H   0  0  0  0  0  0  0  0  0  0  0  0
    2.0975   -1.6926    0.0922 H   0  0  0  0  0  0  0  0  0  0  0  0
    0.0369   -2.0444   -0.4976 H   0  0  0  0  0  0  0  0  0  0  0  0
   -0.9403   -1.1135   -1.7540 H   0  0  0  0  0  0  0  0  0  0  0  0
   -1.7119   -1.5782    1.0457 H   0  0  0  0  0  0  0  0  0  0  0  0
   -2.4777   -0.3941   -0.0956 H   0  0  0  0  0  0  0  0  0  0  0  0
   -0.1824    0.2654    1.7937 H   0  0  0  0  0  0  0  0  0  0  0  0
   -0.7514    2.5944    0.7657 H   0  0  0  0  0  0  0  0  0  0  0  0
    0.2645    2.1278   -1.4871 H   0  0  0  0  0  0  0  0  0  0  0  0
  1  2  1  0
  2  3  1  0
  3  4  1  0
  4  5  1  0
  5  6  1  0
  6  7  1  0
  7  8  1  0
  8  9  1  0
  6  3  1  0
  9  7  1  0
  9  3  1  0
  1 10  1  0
  1 11  1  0
  1 12  1  0
  4 13  1  0
  4 14  1  0
  5 15  1  0
  5 16  1  0
  6 17  1  0
  7 18  1  0
  9 19  1  0
M  END
