
     RDKit          3D

 21 22  0  0  0  0  0  0  0  0999 V2000
    2.4621    0.1690    0.3263 C   0  0  0  0  0  0  0  0  0  0  0  0
    1.3414    0.7593    0.8439 O   0  0  0  0  0  0  0  0  0  0  0  0
    0.2276    0.2285    0.3615 C   0  0  0  0  0  0  0  0  0  0  0  0
   -0.0664   -1.2395    0.5637 C   0  0  0  0  0  0  0  0  0  0  0  0
   -1.5160   -0.7978    0.3411 C   0  0  0  0  0  0  0  0  0  0  0  0
   -1.4910   -0.3541   -1.0769 C   0  0  0  0  0  0  0  0  0  0  0  0
   -0.2088    0.5032   -1.0522 C   0  0  0  0  0  0  0  0  0  0  0  0
   -0.5475    1.8461   -1.1328 O   0  0  0  0  0  0  0  0  0  0  0  0
   -1.0877    0.4700    1.0930 C   0  0  0  0  0  0  0  0  0  0  0  0
    3.3859    0.6447    0.7579 H   0  0  0  0  0  0  0  0  0  0  0  0
    2.5030   -0.9157    0.5530 H   0  0  0  0  0  0  0  0  0  0  0  0
    2.5665    0.2695   -0.7701 H   0  0  0  0  0  0  0  0  0  0  0  0
    0.0426   -1.5613    1.6133 H   0  0  0  0  0  0  0  0  0  0  0  0
    0.3049   -1.9165   -0.2124 H   0  0  0  0  0  0  0  0  0  0  0  0
   -2.2904   -1.3830    0.7451 H   0  0  0  0  0  0  0  0  0  0  0  0
   -2.3553    0.2533   -1.3828 H   0  0  0  0  0  0  0  0  0  0  0  0
   -1.3433   -1.2428   -1.7322 H   0  0  0  0  0  0  0  0  0  0  0  0
    0.4979    0.1672   -1.8112 H   0  0  0  0  0  0  0  0  0  0  0  0
    0.2595    2.3760   -0.9128 H   0  0  0  0  0  0  0  0  0  0  0  0
   -1.6379    1.3685    0.7087 H   0  0  0  0  0  0  0  0  0  0  0  0
   -1.0470    0.3554    2.1761 H   0  0  0  0  0  0  0  0  0  0  0  0
  1  2  1  0
  2  3  1  0
  3  4  1  0
  4  5  1  0
  5  6  1  0
  6  7  1  0
  7  8  1  0
  5  9  1  0
  7  3  1  0
  9  3  1  0
  1 10  1  0
  1 11  1  0
  1 12  1  0
  4 13  1  0
  4 14  1  0
  5 15  1  0
  6 16  1  0
  6 17  1  0
  7 18  1  0
  8 19  1  0
  9 20  1  0
  9 21  1  0
M  END
