
     RDKit          3D

 19 20  0  0  0  0  0  0  0  0999 V2000
    2.8534    0.4736   -0.3674 C   0  0  0  0  0  0  0  0  0  0  0  0
    1.5117    0.7687   -0.5098 O   0  0  0  0  0  0  0  0  0  0  0  0
    0.6724   -0.0400    0.2159 C   0  0  0  0  0  0  0  0  0  0  0  0
   -0.3337    0.7247    1.0633 C   0  0  0  0  0  0  0  0  0  0  0  0
   -1.4189   -0.0732    0.4159 C   0  0  0  0  0  0  0  0  0  0  0  0
   -2.7644    0.1874    0.3941 C   0  0  0  0  0  0  0  0  0  0  0  0
   -2.2207   -0.9219    1.1446 O   0  0  0  0  0  0  0  0  0  0  0  0
   -0.4921   -0.5646   -0.6353 C   0  0  0  0  0  0  0  0  0  0  0  0
   -0.3803   -1.9374   -0.7918 O   0  0  0  0  0  0  0  0  0  0  0  0
    3.4326    1.1736   -0.9848 H   0  0  0  0  0  0  0  0  0  0  0  0
    3.0823   -0.5604   -0.7222 H   0  0  0  0  0  0  0  0  0  0  0  0
    3.1929    0.5259    0.6855 H   0  0  0  0  0  0  0  0  0  0  0  0
    1.1345   -0.8297    0.8294 H   0  0  0  0  0  0  0  0  0  0  0  0
   -0.4322    1.8030    0.7780 H   0  0  0  0  0  0  0  0  0  0  0  0
   -0.2408    0.5757    2.1509 H   0  0  0  0  0  0  0  0  0  0  0  0
   -3.4408   -0.1330   -0.4404 H   0  0  0  0  0  0  0  0  0  0  0  0
   -3.2385    0.9872    1.0105 H   0  0  0  0  0  0  0  0  0  0  0  0
   -0.6262   -0.0257   -1.5844 H   0  0  0  0  0  0  0  0  0  0  0  0
   -0.2912   -2.1339   -1.7646 H   0  0  0  0  0  0  0  0  0  0  0  0
  1  2  1  0
  2  3  1  0
  3  4  1  0
  4  5  1  0
  5  6  1  0
  6  7  1  0
  5  8  1  0
  8  9  1  0
  8  3  1  0
  7  5  1  0
  1 10  1  0
  1 11  1  0
  1 12  1  0
  3 13  1  0
  4 14  1  0
  4 15  1  0
  6 16  1  0
  6 17  1  0
  8 18  1  0
  9 19  1  0
M  END
