
     RDKit          3D

 21 23  0  0  0  0  0  0  0  0999 V2000
    2.4887    0.3817    0.3734 C   0  0  0  0  0  0  0  0  0  0  0  0
    1.5091    0.6740   -0.5309 O   0  0  0  0  0  0  0  0  0  0  0  0
    0.3253    0.0831   -0.3295 C   0  0  0  0  0  0  0  0  0  0  0  0
    0.2130   -1.4055   -0.3221 C   0  0  0  0  0  0  0  0  0  0  0  0
   -1.3064   -1.5607   -0.1237 C   0  0  0  0  0  0  0  0  0  0  0  0
   -1.6566   -0.1142    0.0911 C   0  0  0  0  0  0  0  0  0  0  0  0
   -0.5257    0.5205    0.8345 C   0  0  0  0  0  0  0  0  0  0  0  0
   -0.8037    1.7526    0.0174 C   0  0  0  0  0  0  0  0  0  0  0  0
   -0.8965    0.6117   -0.9794 C   0  0  0  0  0  0  0  0  0  0  0  0
    2.2406    0.6616    1.4279 H   0  0  0  0  0  0  0  0  0  0  0  0
    2.7419   -0.7107    0.3055 H   0  0  0  0  0  0  0  0  0  0  0  0
    3.4096    0.9501    0.0438 H   0  0  0  0  0  0  0  0  0  0  0  0
    0.7222   -1.7987    0.5653 H   0  0  0  0  0  0  0  0  0  0  0  0
    0.5447   -1.8200   -1.2750 H   0  0  0  0  0  0  0  0  0  0  0  0
   -1.6952   -1.9735   -1.0676 H   0  0  0  0  0  0  0  0  0  0  0  0
   -1.5378   -2.2065    0.7320 H   0  0  0  0  0  0  0  0  0  0  0  0
   -2.6647    0.1606    0.3058 H   0  0  0  0  0  0  0  0  0  0  0  0
   -0.3030    0.4661    1.8051 H   0  0  0  0  0  0  0  0  0  0  0  0
   -1.7484    2.2504    0.2429 H   0  0  0  0  0  0  0  0  0  0  0  0
    0.0699    2.3817   -0.1690 H   0  0  0  0  0  0  0  0  0  0  0  0
   -1.1270    0.6958   -1.9476 H   0  0  0  0  0  0  0  0  0  0  0  0
  1  2  1  0
  2  3  1  0
  3  4  1  0
  4  5  1  0
  5  6  1  0
  6  7  1  0
  7  8  1  0
  8  9  1  0
  7  3  1  0
  9  3  1  0
  9  6  1  0
  1 10  1  0
  1 11  1  0
  1 12  1  0
  4 13  1  0
  4 14  1  0
  5 15  1  0
  5 16  1  0
  6 17  1  0
  7 18  1  0
  8 19  1  0
  8 20  1  0
  9 21  1  0
M  END
