
     RDKit          3D

 19 20  0  0  0  0  0  0  0  0999 V2000
    2.4419   -0.6571    0.0916 C   0  0  0  0  0  0  0  0  0  0  0  0
    1.3881    0.0593    0.6339 O   0  0  0  0  0  0  0  0  0  0  0  0
    0.4775    0.3351   -0.3916 C   0  0  0  0  0  0  0  0  0  0  0  0
    0.0834    1.8055   -0.3056 C   0  0  0  0  0  0  0  0  0  0  0  0
   -1.1787    1.4267    0.4166 C   0  0  0  0  0  0  0  0  0  0  0  0
   -2.0076    2.0596    1.0124 O   0  0  0  0  0  0  0  0  0  0  0  0
   -0.9138    0.0526    0.0645 C   0  0  0  0  0  0  0  0  0  0  0  0
   -1.2171   -1.1241    0.8512 C   0  0  0  0  0  0  0  0  0  0  0  0
   -1.8184   -0.8997   -0.5250 C   0  0  0  0  0  0  0  0  0  0  0  0
    2.9046   -0.0331   -0.6901 H   0  0  0  0  0  0  0  0  0  0  0  0
    2.0193   -1.5971   -0.3165 H   0  0  0  0  0  0  0  0  0  0  0  0
    3.2338   -0.8487    0.8481 H   0  0  0  0  0  0  0  0  0  0  0  0
    0.7297   -0.0334   -1.3788 H   0  0  0  0  0  0  0  0  0  0  0  0
   -0.1396    2.1887   -1.3035 H   0  0  0  0  0  0  0  0  0  0  0  0
    0.7102    2.4182    0.3550 H   0  0  0  0  0  0  0  0  0  0  0  0
   -0.4820   -1.9620    0.8550 H   0  0  0  0  0  0  0  0  0  0  0  0
   -1.8520   -1.0786    1.7402 H   0  0  0  0  0  0  0  0  0  0  0  0
   -1.4727   -1.5004   -1.3784 H   0  0  0  0  0  0  0  0  0  0  0  0
   -2.9065   -0.6116   -0.5790 H   0  0  0  0  0  0  0  0  0  0  0  0
  1  2  1  0
  2  3  1  0
  3  4  1  0
  4  5  1  0
  5  6  2  0
  5  7  1  0
  7  8  1  0
  8  9  1  0
  7  3  1  0
  9  7  1  0
  1 10  1  0
  1 11  1  0
  1 12  1  0
  3 13  1  0
  4 14  1  0
  4 15  1  0
  8 16  1  0
  8 17  1  0
  9 18  1  0
  9 19  1  0
M  END
