
     RDKit          3D

 21 21  0  0  0  0  0  0  0  0999 V2000
   -2.5541   -1.7040   -0.5563 C   0  0  0  0  0  0  0  0  0  0  0  0
   -1.6637   -1.3302    0.4241 O   0  0  0  0  0  0  0  0  0  0  0  0
   -0.9093   -0.2257    0.1515 C   0  0  0  0  0  0  0  0  0  0  0  0
   -0.3616    0.6938    1.1303 C   0  0  0  0  0  0  0  0  0  0  0  0
   -0.3135    2.1687    0.7989 C   0  0  0  0  0  0  0  0  0  0  0  0
    0.5839   -0.2519    0.4357 C   0  0  0  0  0  0  0  0  0  0  0  0
    1.5357    0.2284   -0.5576 C   0  0  0  0  0  0  0  0  0  0  0  0
    2.8163   -0.4622   -0.8194 C   0  0  0  0  0  0  0  0  0  0  0  0
    1.2935    1.2225   -1.2022 O   0  0  0  0  0  0  0  0  0  0  0  0
   -3.3060   -0.9539   -0.8128 H   0  0  0  0  0  0  0  0  0  0  0  0
   -2.0485   -2.0395   -1.5046 H   0  0  0  0  0  0  0  0  0  0  0  0
   -3.0981   -2.5997   -0.1870 H   0  0  0  0  0  0  0  0  0  0  0  0
   -1.1381    0.2218   -0.8615 H   0  0  0  0  0  0  0  0  0  0  0  0
   -0.4126    0.5192    2.2342 H   0  0  0  0  0  0  0  0  0  0  0  0
   -0.7372    2.7918    1.6104 H   0  0  0  0  0  0  0  0  0  0  0  0
    0.7197    2.5341    0.6423 H   0  0  0  0  0  0  0  0  0  0  0  0
   -0.8928    2.3230   -0.1284 H   0  0  0  0  0  0  0  0  0  0  0  0
    0.8930   -1.1734    0.9768 H   0  0  0  0  0  0  0  0  0  0  0  0
    3.7005    0.1933   -0.5800 H   0  0  0  0  0  0  0  0  0  0  0  0
    2.9370   -0.7847   -1.8714 H   0  0  0  0  0  0  0  0  0  0  0  0
    2.9559   -1.3717   -0.1986 H   0  0  0  0  0  0  0  0  0  0  0  0
  1  2  1  0
  2  3  1  0
  3  4  1  0
  4  5  1  0
  4  6  1  0
  6  7  1  0
  7  8  1  0
  7  9  2  0
  6  3  1  0
  1 10  1  0
  1 11  1  0
  1 12  1  0
  3 13  1  0
  4 14  1  0
  5 15  1  0
  5 16  1  0
  5 17  1  0
  6 18  1  0
  8 19  1  0
  8 20  1  0
  8 21  1  0
M  END
