
     RDKit          3D

 17 19  0  0  0  0  0  0  0  0999 V2000
    2.3001   -0.5086    0.0245 C   0  0  0  0  0  0  0  0  0  0  0  0
    1.1259   -1.2474   -0.0242 O   0  0  0  0  0  0  0  0  0  0  0  0
    0.0555   -0.4681    0.0517 C   0  0  0  0  0  0  0  0  0  0  0  0
   -0.1685    0.4001    1.2346 C   0  0  0  0  0  0  0  0  0  0  0  0
   -1.2674    1.0830    0.9118 C   0  0  0  0  0  0  0  0  0  0  0  0
   -1.6733    0.5175   -0.3834 C   0  0  0  0  0  0  0  0  0  0  0  0
   -0.3923    0.3566   -1.1125 C   0  0  0  0  0  0  0  0  0  0  0  0
   -0.9091   -0.8122   -1.6485 O   0  0  0  0  0  0  0  0  0  0  0  0
   -1.2959   -0.9266   -0.3197 C   0  0  0  0  0  0  0  0  0  0  0  0
    2.3333    0.0595    1.0003 H   0  0  0  0  0  0  0  0  0  0  0  0
    2.3448    0.2274   -0.8079 H   0  0  0  0  0  0  0  0  0  0  0  0
    3.1558   -1.1950   -0.0761 H   0  0  0  0  0  0  0  0  0  0  0  0
    0.4522    0.4262    2.1220 H   0  0  0  0  0  0  0  0  0  0  0  0
   -1.8010    1.8751    1.4176 H   0  0  0  0  0  0  0  0  0  0  0  0
   -2.5610    0.8305   -0.8674 H   0  0  0  0  0  0  0  0  0  0  0  0
    0.1442    1.0594   -1.6007 H   0  0  0  0  0  0  0  0  0  0  0  0
   -1.8433   -1.6774    0.0779 H   0  0  0  0  0  0  0  0  0  0  0  0
  1  2  1  0
  2  3  1  0
  3  4  1  0
  4  5  2  0
  5  6  1  0
  6  7  1  0
  7  8  1  0
  8  9  1  0
  7  3  1  0
  9  3  1  0
  9  6  1  0
  1 10  1  0
  1 11  1  0
  1 12  1  0
  4 13  1  0
  5 14  1  0
  6 15  1  0
  7 16  1  0
  9 17  1  0
M  END
