
     RDKit          3D

 23 24  0  0  0  0  0  0  0  0999 V2000
   -2.4373    0.7517    0.3525 C   0  0  0  0  0  0  0  0  0  0  0  0
   -1.3724    0.2936    1.1238 O   0  0  0  0  0  0  0  0  0  0  0  0
   -0.5823   -0.5068    0.2739 C   0  0  0  0  0  0  0  0  0  0  0  0
   -1.2870   -1.6797   -0.3041 C   0  0  0  0  0  0  0  0  0  0  0  0
    0.7452   -0.7521    0.9266 C   0  0  0  0  0  0  0  0  0  0  0  0
    1.3553    0.3361    0.1155 C   0  0  0  0  0  0  0  0  0  0  0  0
    2.7301    0.1618   -0.4282 C   0  0  0  0  0  0  0  0  0  0  0  0
    0.6839    1.6260   -0.1382 C   0  0  0  0  0  0  0  0  0  0  0  0
    0.1487    0.3858   -0.7246 C   0  0  0  0  0  0  0  0  0  0  0  0
   -2.9922   -0.1265   -0.0127 H   0  0  0  0  0  0  0  0  0  0  0  0
   -1.9964    1.3242   -0.4890 H   0  0  0  0  0  0  0  0  0  0  0  0
   -3.0259    1.4315    0.9818 H   0  0  0  0  0  0  0  0  0  0  0  0
   -1.7652   -1.4338   -1.2789 H   0  0  0  0  0  0  0  0  0  0  0  0
   -0.6869   -2.5758   -0.4505 H   0  0  0  0  0  0  0  0  0  0  0  0
   -2.1349   -1.9394    0.3787 H   0  0  0  0  0  0  0  0  0  0  0  0
    0.7716   -0.6622    2.0138 H   0  0  0  0  0  0  0  0  0  0  0  0
    1.1523   -1.7480    0.6018 H   0  0  0  0  0  0  0  0  0  0  0  0
    3.3428   -0.4626    0.2779 H   0  0  0  0  0  0  0  0  0  0  0  0
    2.7879   -0.1994   -1.4581 H   0  0  0  0  0  0  0  0  0  0  0  0
    3.2290    1.1717   -0.3988 H   0  0  0  0  0  0  0  0  0  0  0  0
    1.1772    2.3236   -0.8088 H   0  0  0  0  0  0  0  0  0  0  0  0
    0.0373    2.1199    0.6236 H   0  0  0  0  0  0  0  0  0  0  0  0
    0.1193    0.1607   -1.7846 H   0  0  0  0  0  0  0  0  0  0  0  0
  1  2  1  0
  2  3  1  0
  3  4  1  0
  3  5  1  0
  5  6  1  0
  6  7  1  0
  6  8  1  0
  8  9  1  0
  9  3  1  0
  9  6  1  0
  1 10  1  0
  1 11  1  0
  1 12  1  0
  4 13  1  0
  4 14  1  0
  4 15  1  0
  5 16  1  0
  5 17  1  0
  7 18  1  0
  7 19  1  0
  7 20  1  0
  8 21  1  0
  8 22  1  0
  9 23  1  0
M  END
