
     RDKit          3D

 21 22  0  0  0  0  0  0  0  0999 V2000
    2.5819   -0.6764   -0.3576 C   0  0  0  0  0  0  0  0  0  0  0  0
    1.3973    0.0160   -0.5976 O   0  0  0  0  0  0  0  0  0  0  0  0
    0.3682   -0.4074    0.2324 C   0  0  0  0  0  0  0  0  0  0  0  0
   -0.1253    0.8171    0.9754 C   0  0  0  0  0  0  0  0  0  0  0  0
    0.0261    2.0423    0.0718 C   0  0  0  0  0  0  0  0  0  0  0  0
   -1.4884    0.6193    1.1387 O   0  0  0  0  0  0  0  0  0  0  0  0
   -1.9453    0.0103   -0.0062 C   0  0  0  0  0  0  0  0  0  0  0  0
   -2.0045   -1.4614   -0.0004 C   0  0  0  0  0  0  0  0  0  0  0  0
   -0.8266   -0.8006   -0.5894 C   0  0  0  0  0  0  0  0  0  0  0  0
    3.3397   -0.2664   -1.0682 H   0  0  0  0  0  0  0  0  0  0  0  0
    2.4067   -1.7283   -0.6954 H   0  0  0  0  0  0  0  0  0  0  0  0
    2.9266   -0.6149    0.6779 H   0  0  0  0  0  0  0  0  0  0  0  0
    0.6873   -1.2202    0.9317 H   0  0  0  0  0  0  0  0  0  0  0  0
    0.4078    0.9497    1.9276 H   0  0  0  0  0  0  0  0  0  0  0  0
    1.0154    2.5003    0.1936 H   0  0  0  0  0  0  0  0  0  0  0  0
   -0.1062    1.6463   -0.9749 H   0  0  0  0  0  0  0  0  0  0  0  0
   -0.8179    2.7268    0.2986 H   0  0  0  0  0  0  0  0  0  0  0  0
   -2.4981    0.6132   -0.7569 H   0  0  0  0  0  0  0  0  0  0  0  0
   -2.6909   -1.9538   -0.7183 H   0  0  0  0  0  0  0  0  0  0  0  0
   -1.9879   -1.9525    0.9903 H   0  0  0  0  0  0  0  0  0  0  0  0
   -0.6659   -0.8594   -1.6731 H   0  0  0  0  0  0  0  0  0  0  0  0
  1  2  1  0
  2  3  1  0
  3  4  1  0
  4  5  1  0
  4  6  1  0
  6  7  1  0
  7  8  1  0
  8  9  1  0
  9  3  1  0
  9  7  1  0
  1 10  1  0
  1 11  1  0
  1 12  1  0
  3 13  1  0
  4 14  1  0
  5 15  1  0
  5 16  1  0
  5 17  1  0
  7 18  1  0
  8 19  1  0
  8 20  1  0
  9 21  1  0
M  END
