
     RDKit          3D

 21 22  0  0  0  0  0  0  0  0999 V2000
   -3.2919   -0.0599   -0.6293 C   0  0  0  0  0  0  0  0  0  0  0  0
   -2.2873   -0.5898    0.1748 O   0  0  0  0  0  0  0  0  0  0  0  0
   -1.1352    0.1451    0.0114 C   0  0  0  0  0  0  0  0  0  0  0  0
   -0.3700    0.3786    1.3146 C   0  0  0  0  0  0  0  0  0  0  0  0
    0.2078   -0.4444    0.2421 C   0  0  0  0  0  0  0  0  0  0  0  0
    0.2046   -1.8229    0.4807 O   0  0  0  0  0  0  0  0  0  0  0  0
    1.3260    0.0852   -0.6306 C   0  0  0  0  0  0  0  0  0  0  0  0
    2.6708   -0.4771   -0.4287 C   0  0  0  0  0  0  0  0  0  0  0  0
    2.3595    0.9827   -0.0556 C   0  0  0  0  0  0  0  0  0  0  0  0
   -2.9184   -0.1249   -1.6933 H   0  0  0  0  0  0  0  0  0  0  0  0
   -3.4739    1.0087   -0.4416 H   0  0  0  0  0  0  0  0  0  0  0  0
   -4.2118   -0.6786   -0.6164 H   0  0  0  0  0  0  0  0  0  0  0  0
   -1.1942    1.0017   -0.7030 H   0  0  0  0  0  0  0  0  0  0  0  0
   -0.7584   -0.1022    2.2464 H   0  0  0  0  0  0  0  0  0  0  0  0
   -0.0874    1.4293    1.4779 H   0  0  0  0  0  0  0  0  0  0  0  0
    0.6422   -2.2948   -0.2801 H   0  0  0  0  0  0  0  0  0  0  0  0
    1.0154    0.3456   -1.6845 H   0  0  0  0  0  0  0  0  0  0  0  0
    3.2846   -0.6251   -1.3565 H   0  0  0  0  0  0  0  0  0  0  0  0
    2.8728   -1.1679    0.4052 H   0  0  0  0  0  0  0  0  0  0  0  0
    2.3321    1.2550    1.0066 H   0  0  0  0  0  0  0  0  0  0  0  0
    2.8129    1.7557   -0.7011 H   0  0  0  0  0  0  0  0  0  0  0  0
  1  2  1  0
  2  3  1  0
  3  4  1  0
  4  5  1  0
  5  6  1  0
  5  7  1  0
  7  8  1  0
  8  9  1  0
  5  3  1  0
  9  7  1  0
  1 10  1  0
  1 11  1  0
  1 12  1  0
  3 13  1  0
  4 14  1  0
  4 15  1  0
  6 16  1  0
  7 17  1  0
  8 18  1  0
  8 19  1  0
  9 20  1  0
  9 21  1  0
M  END
