
     RDKit          3D

 21 22  0  0  0  0  0  0  0  0999 V2000
    2.9543   -0.0880   -0.0885 C   0  0  0  0  0  0  0  0  0  0  0  0
    1.7347    0.4116   -0.4689 O   0  0  0  0  0  0  0  0  0  0  0  0
    0.7405    0.0085    0.4014 C   0  0  0  0  0  0  0  0  0  0  0  0
    0.1786    1.0928    1.0168 O   0  0  0  0  0  0  0  0  0  0  0  0
   -1.0645    1.4697    0.5620 C   0  0  0  0  0  0  0  0  0  0  0  0
   -1.8644    0.3291   -0.0024 C   0  0  0  0  0  0  0  0  0  0  0  0
   -1.1297   -0.0905   -1.2818 C   0  0  0  0  0  0  0  0  0  0  0  0
   -0.2203   -0.8627   -0.3571 C   0  0  0  0  0  0  0  0  0  0  0  0
   -1.4423   -1.0088    0.5578 C   0  0  0  0  0  0  0  0  0  0  0  0
    3.7355    0.2462   -0.7981 H   0  0  0  0  0  0  0  0  0  0  0  0
    3.2479    0.2260    0.9345 H   0  0  0  0  0  0  0  0  0  0  0  0
    2.8902   -1.1913   -0.0901 H   0  0  0  0  0  0  0  0  0  0  0  0
    1.2118   -0.6214    1.1847 H   0  0  0  0  0  0  0  0  0  0  0  0
   -1.5861    2.0103    1.3721 H   0  0  0  0  0  0  0  0  0  0  0  0
   -0.9197    2.1961   -0.2659 H   0  0  0  0  0  0  0  0  0  0  0  0
   -2.9184    0.5373   -0.0992 H   0  0  0  0  0  0  0  0  0  0  0  0
   -1.7690   -0.7738   -1.8447 H   0  0  0  0  0  0  0  0  0  0  0  0
   -0.6693    0.7385   -1.8339 H   0  0  0  0  0  0  0  0  0  0  0  0
    0.2052   -1.7839   -0.7217 H   0  0  0  0  0  0  0  0  0  0  0  0
   -1.2186   -1.0341    1.6212 H   0  0  0  0  0  0  0  0  0  0  0  0
   -2.0964   -1.8115    0.2019 H   0  0  0  0  0  0  0  0  0  0  0  0
  1  2  1  0
  2  3  1  0
  3  4  1  0
  4  5  1  0
  5  6  1  0
  6  7  1  0
  7  8  1  0
  8  9  1  0
  8  3  1  0
  9  6  1  0
  1 10  1  0
  1 11  1  0
  1 12  1  0
  3 13  1  0
  5 14  1  0
  5 15  1  0
  6 16  1  0
  7 17  1  0
  7 18  1  0
  8 19  1  0
  9 20  1  0
  9 21  1  0
M  END
