
     RDKit          3D

 21 22  0  0  0  0  0  0  0  0999 V2000
    2.5063    0.0281    0.6775 C   0  0  0  0  0  0  0  0  0  0  0  0
    1.5770    0.7193   -0.0637 O   0  0  0  0  0  0  0  0  0  0  0  0
    0.5232   -0.0931   -0.4894 C   0  0  0  0  0  0  0  0  0  0  0  0
   -0.4230    0.7587   -1.2536 C   0  0  0  0  0  0  0  0  0  0  0  0
   -0.9403    1.5743   -0.0537 C   0  0  0  0  0  0  0  0  0  0  0  0
   -0.5607    0.8299    1.0902 O   0  0  0  0  0  0  0  0  0  0  0  0
   -0.5725   -0.4379    0.5977 C   0  0  0  0  0  0  0  0  0  0  0  0
   -1.9577   -0.8008    0.1616 C   0  0  0  0  0  0  0  0  0  0  0  0
    0.4319   -1.3399    0.1297 C   0  0  0  0  0  0  0  0  0  0  0  0
    2.9451   -0.8316    0.1034 H   0  0  0  0  0  0  0  0  0  0  0  0
    2.1990   -0.2665    1.6817 H   0  0  0  0  0  0  0  0  0  0  0  0
    3.3912    0.7326    0.7877 H   0  0  0  0  0  0  0  0  0  0  0  0
    0.1248    1.4094   -1.9684 H   0  0  0  0  0  0  0  0  0  0  0  0
   -1.2051    0.2629   -1.8027 H   0  0  0  0  0  0  0  0  0  0  0  0
   -0.3633    2.5364   -0.0629 H   0  0  0  0  0  0  0  0  0  0  0  0
   -1.9891    1.8166   -0.1011 H   0  0  0  0  0  0  0  0  0  0  0  0
   -1.9923   -1.3346   -0.8210 H   0  0  0  0  0  0  0  0  0  0  0  0
   -2.7237   -0.0475    0.2027 H   0  0  0  0  0  0  0  0  0  0  0  0
   -2.2715   -1.6013    0.9005 H   0  0  0  0  0  0  0  0  0  0  0  0
    0.1422   -2.1890   -0.5665 H   0  0  0  0  0  0  0  0  0  0  0  0
    1.1583   -1.7262    0.8500 H   0  0  0  0  0  0  0  0  0  0  0  0
  1  2  1  0
  2  3  1  0
  3  4  1  0
  4  5  1  0
  5  6  1  0
  6  7  1  0
  7  8  1  0
  7  9  1  0
  7  3  1  0
  9  3  1  0
  1 10  1  0
  1 11  1  0
  1 12  1  0
  4 13  1  0
  4 14  1  0
  5 15  1  0
  5 16  1  0
  8 17  1  0
  8 18  1  0
  8 19  1  0
  9 20  1  0
  9 21  1  0
M  END
