
     RDKit          3D

 16 16  0  0  0  0  0  0  0  0999 V2000
   -2.4463    1.1786   -0.1325 C   0  0  0  0  0  0  0  0  0  0  0  0
   -1.1158    0.9834   -0.4775 O   0  0  0  0  0  0  0  0  0  0  0  0
   -0.6559   -0.1808    0.0571 C   0  0  0  0  0  0  0  0  0  0  0  0
    0.1171   -1.0392   -0.9804 C   0  0  0  0  0  0  0  0  0  0  0  0
    0.7335   -0.5083    0.3227 C   0  0  0  0  0  0  0  0  0  0  0  0
    1.8355    0.3073    0.0964 O   0  0  0  0  0  0  0  0  0  0  0  0
    3.0638    0.2152    0.6515 C   0  0  0  0  0  0  0  0  0  0  0  0
    3.2753   -0.6920    1.4658 O   0  0  0  0  0  0  0  0  0  0  0  0
   -2.4884    1.2187    0.9807 H   0  0  0  0  0  0  0  0  0  0  0  0
   -2.9981    0.2512   -0.4424 H   0  0  0  0  0  0  0  0  0  0  0  0
   -2.8916    2.0771   -0.6030 H   0  0  0  0  0  0  0  0  0  0  0  0
   -1.4207   -0.7363    0.6535 H   0  0  0  0  0  0  0  0  0  0  0  0
   -0.1959   -2.0864   -1.0217 H   0  0  0  0  0  0  0  0  0  0  0  0
    0.4035   -0.5758   -1.9280 H   0  0  0  0  0  0  0  0  0  0  0  0
    0.9393   -1.3171    1.0545 H   0  0  0  0  0  0  0  0  0  0  0  0
    3.8446    0.9045    0.4014 H   0  0  0  0  0  0  0  0  0  0  0  0
  1  2  1  0
  2  3  1  0
  3  4  1  0
  4  5  1  0
  5  6  1  0
  6  7  1  0
  7  8  2  0
  5  3  1  0
  1  9  1  0
  1 10  1  0
  1 11  1  0
  3 12  1  0
  4 13  1  0
  4 14  1  0
  5 15  1  0
  7 16  1  0
M  END
