
     RDKit          3D

 25 25  0  0  0  0  0  0  0  0999 V2000
    3.8365    0.9747    0.2581 C   0  0  0  0  0  0  0  0  0  0  0  0
    2.8699    0.4147   -0.5737 O   0  0  0  0  0  0  0  0  0  0  0  0
    1.8799   -0.2290    0.1563 C   0  0  0  0  0  0  0  0  0  0  0  0
    1.1702   -1.4078   -0.3912 C   0  0  0  0  0  0  0  0  0  0  0  0
    0.4954   -0.0949   -0.4537 C   0  0  0  0  0  0  0  0  0  0  0  0
   -0.5770    0.2788    0.5328 C   0  0  0  0  0  0  0  0  0  0  0  0
   -1.9276    0.3950   -0.1408 C   0  0  0  0  0  0  0  0  0  0  0  0
   -2.9689    0.7693    0.8793 C   0  0  0  0  0  0  0  0  0  0  0  0
   -2.2526   -0.9839   -0.7001 C   0  0  0  0  0  0  0  0  0  0  0  0
    3.4423    1.7198    0.9563 H   0  0  0  0  0  0  0  0  0  0  0  0
    4.6048    1.4339   -0.4164 H   0  0  0  0  0  0  0  0  0  0  0  0
    4.3524    0.1205    0.7546 H   0  0  0  0  0  0  0  0  0  0  0  0
    2.0066   -0.1988    1.2440 H   0  0  0  0  0  0  0  0  0  0  0  0
    1.4814   -1.8828   -1.3437 H   0  0  0  0  0  0  0  0  0  0  0  0
    0.7559   -2.1485    0.3391 H   0  0  0  0  0  0  0  0  0  0  0  0
    0.3935    0.3686   -1.4423 H   0  0  0  0  0  0  0  0  0  0  0  0
   -0.5942   -0.5001    1.3142 H   0  0  0  0  0  0  0  0  0  0  0  0
   -0.3217    1.2441    0.9960 H   0  0  0  0  0  0  0  0  0  0  0  0
   -1.9153    1.1685   -0.9103 H   0  0  0  0  0  0  0  0  0  0  0  0
   -3.9403    0.8651    0.3546 H   0  0  0  0  0  0  0  0  0  0  0  0
   -3.0263   -0.0777    1.6159 H   0  0  0  0  0  0  0  0  0  0  0  0
   -2.7145    1.6841    1.4193 H   0  0  0  0  0  0  0  0  0  0  0  0
   -3.3289   -1.2343   -0.5345 H   0  0  0  0  0  0  0  0  0  0  0  0
   -1.6097   -1.7655   -0.2689 H   0  0  0  0  0  0  0  0  0  0  0  0
   -2.1118   -0.9139   -1.8115 H   0  0  0  0  0  0  0  0  0  0  0  0
  1  2  1  0
  2  3  1  0
  3  4  1  0
  4  5  1  0
  5  6  1  0
  6  7  1  0
  7  8  1  0
  7  9  1  0
  5  3  1  0
  1 10  1  0
  1 11  1  0
  1 12  1  0
  3 13  1  0
  4 14  1  0
  4 15  1  0
  5 16  1  0
  6 17  1  0
  6 18  1  0
  7 19  1  0
  8 20  1  0
  8 21  1  0
  8 22  1  0
  9 23  1  0
  9 24  1  0
  9 25  1  0
M  END
