
     RDKit          3D

 16 16  0  0  0  0  0  0  0  0999 V2000
   -2.2819   -0.0026    0.0724 C   0  0  0  0  0  0  0  0  0  0  0  0
   -1.1053   -0.5103    0.6298 O   0  0  0  0  0  0  0  0  0  0  0  0
   -0.0637   -0.2844   -0.2426 C   0  0  0  0  0  0  0  0  0  0  0  0
    0.8887   -1.4634   -0.4305 C   0  0  0  0  0  0  0  0  0  0  0  0
    1.8999   -0.4882   -0.5903 O   0  0  0  0  0  0  0  0  0  0  0  0
    1.2154    0.2266    0.3943 C   0  0  0  0  0  0  0  0  0  0  0  0
    1.4083    1.6777    0.3715 C   0  0  0  0  0  0  0  0  0  0  0  0
    2.1330    2.1554   -0.4804 O   0  0  0  0  0  0  0  0  0  0  0  0
   -3.1557   -0.1561    0.7311 H   0  0  0  0  0  0  0  0  0  0  0  0
   -2.4704   -0.4819   -0.9138 H   0  0  0  0  0  0  0  0  0  0  0  0
   -2.1494    1.1027   -0.0621 H   0  0  0  0  0  0  0  0  0  0  0  0
   -0.3504    0.2269   -1.1623 H   0  0  0  0  0  0  0  0  0  0  0  0
    1.0162   -1.9662    0.5450 H   0  0  0  0  0  0  0  0  0  0  0  0
    0.7003   -2.0853   -1.3036 H   0  0  0  0  0  0  0  0  0  0  0  0
    1.3766   -0.2754    1.3701 H   0  0  0  0  0  0  0  0  0  0  0  0
    0.9384    2.3244    1.0714 H   0  0  0  0  0  0  0  0  0  0  0  0
  1  2  1  0
  2  3  1  0
  3  4  1  0
  4  5  1  0
  5  6  1  0
  6  7  1  0
  7  8  2  0
  6  3  1  0
  1  9  1  0
  1 10  1  0
  1 11  1  0
  3 12  1  0
  4 13  1  0
  4 14  1  0
  6 15  1  0
  7 16  1  0
M  END
