
     RDKit          3D

 23 24  0  0  0  0  0  0  0  0999 V2000
    3.1823   -0.2380   -0.3797 C   0  0  0  0  0  0  0  0  0  0  0  0
    1.9345   -0.6133    0.0301 O   0  0  0  0  0  0  0  0  0  0  0  0
    0.9067    0.1803   -0.3814 C   0  0  0  0  0  0  0  0  0  0  0  0
   -0.1411   -0.6696   -1.1174 C   0  0  0  0  0  0  0  0  0  0  0  0
   -1.0282   -0.4825    0.0449 C   0  0  0  0  0  0  0  0  0  0  0  0
   -2.4585   -0.4957    0.0663 C   0  0  0  0  0  0  0  0  0  0  0  0
   -1.6410   -1.5218    0.8401 C   0  0  0  0  0  0  0  0  0  0  0  0
   -0.1341    0.5555    0.6439 C   0  0  0  0  0  0  0  0  0  0  0  0
   -0.6673    1.9757    0.5137 C   0  0  0  0  0  0  0  0  0  0  0  0
    3.4853    0.7878   -0.0306 H   0  0  0  0  0  0  0  0  0  0  0  0
    3.9190   -0.9238    0.1152 H   0  0  0  0  0  0  0  0  0  0  0  0
    3.3500   -0.3669   -1.4720 H   0  0  0  0  0  0  0  0  0  0  0  0
    1.2224    1.0394   -1.0043 H   0  0  0  0  0  0  0  0  0  0  0  0
    0.1545   -1.7145   -1.2763 H   0  0  0  0  0  0  0  0  0  0  0  0
   -0.4659   -0.2058   -2.0686 H   0  0  0  0  0  0  0  0  0  0  0  0
   -3.0208   -0.9587   -0.7733 H   0  0  0  0  0  0  0  0  0  0  0  0
   -3.0798    0.2100    0.6609 H   0  0  0  0  0  0  0  0  0  0  0  0
   -1.6019   -2.5557    0.5012 H   0  0  0  0  0  0  0  0  0  0  0  0
   -1.6044   -1.4031    1.9540 H   0  0  0  0  0  0  0  0  0  0  0  0
    0.0914    0.3292    1.6852 H   0  0  0  0  0  0  0  0  0  0  0  0
   -0.4132    2.4036   -0.4859 H   0  0  0  0  0  0  0  0  0  0  0  0
   -1.7664    2.0111    0.6655 H   0  0  0  0  0  0  0  0  0  0  0  0
   -0.2236    2.6567    1.2690 H   0  0  0  0  0  0  0  0  0  0  0  0
  1  2  1  0
  2  3  1  0
  3  4  1  0
  4  5  1  0
  5  6  1  0
  6  7  1  0
  5  8  1  0
  8  9  1  0
  8  3  1  0
  7  5  1  0
  1 10  1  0
  1 11  1  0
  1 12  1  0
  3 13  1  0
  4 14  1  0
  4 15  1  0
  6 16  1  0
  6 17  1  0
  7 18  1  0
  7 19  1  0
  8 20  1  0
  9 21  1  0
  9 22  1  0
  9 23  1  0
M  END
