
     RDKit          3D

 19 20  0  0  0  0  0  0  0  0999 V2000
    2.0889    1.0302    0.6255 C   0  0  0  0  0  0  0  0  0  0  0  0
    1.6421    0.2835   -0.4648 O   0  0  0  0  0  0  0  0  0  0  0  0
    0.2790    0.0868   -0.4676 C   0  0  0  0  0  0  0  0  0  0  0  0
   -0.6562    1.2171   -0.5082 C   0  0  0  0  0  0  0  0  0  0  0  0
   -1.7626    0.9319    0.1604 C   0  0  0  0  0  0  0  0  0  0  0  0
   -1.7300   -0.4145    0.7393 C   0  0  0  0  0  0  0  0  0  0  0  0
   -0.3837   -0.9504    0.3460 C   0  0  0  0  0  0  0  0  0  0  0  0
   -0.1689   -1.2462   -1.0908 C   0  0  0  0  0  0  0  0  0  0  0  0
    0.8302   -2.1608   -1.4083 O   0  0  0  0  0  0  0  0  0  0  0  0
    3.1907    1.1220    0.5205 H   0  0  0  0  0  0  0  0  0  0  0  0
    1.5713    1.9868    0.7438 H   0  0  0  0  0  0  0  0  0  0  0  0
    1.9149    0.3667    1.5236 H   0  0  0  0  0  0  0  0  0  0  0  0
   -0.4250    2.1578   -1.0372 H   0  0  0  0  0  0  0  0  0  0  0  0
   -2.6083    1.6320    0.2659 H   0  0  0  0  0  0  0  0  0  0  0  0
   -1.8351   -0.4230    1.8544 H   0  0  0  0  0  0  0  0  0  0  0  0
   -2.5092   -1.0755    0.2612 H   0  0  0  0  0  0  0  0  0  0  0  0
    0.1820   -1.5164    1.1023 H   0  0  0  0  0  0  0  0  0  0  0  0
   -0.9520   -1.1099   -1.8479 H   0  0  0  0  0  0  0  0  0  0  0  0
    1.3320   -1.9180   -2.2304 H   0  0  0  0  0  0  0  0  0  0  0  0
  1  2  1  0
  2  3  1  0
  3  4  1  0
  4  5  2  0
  5  6  1  0
  6  7  1  0
  7  8  1  0
  8  9  1  0
  7  3  1  0
  8  3  1  0
  1 10  1  0
  1 11  1  0
  1 12  1  0
  4 13  1  0
  5 14  1  0
  6 15  1  0
  6 16  1  0
  7 17  1  0
  8 18  1  0
  9 19  1  0
M  END
