
     RDKit          3D

 20 20  0  0  0  0  0  0  0  0999 V2000
    2.2037    1.1853   -0.3563 C   0  0  0  0  0  0  0  0  0  0  0  0
    1.2825    0.3748   -1.0466 O   0  0  0  0  0  0  0  0  0  0  0  0
    0.5076   -0.2539   -0.1185 C   0  0  0  0  0  0  0  0  0  0  0  0
    0.4849   -1.7685   -0.2685 C   0  0  0  0  0  0  0  0  0  0  0  0
   -0.7002   -2.2172    0.2434 O   0  0  0  0  0  0  0  0  0  0  0  0
   -1.5420   -1.1558    0.4571 C   0  0  0  0  0  0  0  0  0  0  0  0
   -0.9887    0.0341   -0.2968 C   0  0  0  0  0  0  0  0  0  0  0  0
   -1.3709    1.3466    0.3166 C   0  0  0  0  0  0  0  0  0  0  0  0
    2.8723    1.7326   -1.0184 H   0  0  0  0  0  0  0  0  0  0  0  0
    2.8467    0.4787    0.2366 H   0  0  0  0  0  0  0  0  0  0  0  0
    1.6971    1.8165    0.4046 H   0  0  0  0  0  0  0  0  0  0  0  0
    0.7457   -0.0138    0.9286 H   0  0  0  0  0  0  0  0  0  0  0  0
    0.4819   -2.0149   -1.3706 H   0  0  0  0  0  0  0  0  0  0  0  0
    1.3811   -2.2445    0.1387 H   0  0  0  0  0  0  0  0  0  0  0  0
   -1.4639   -0.8994    1.5535 H   0  0  0  0  0  0  0  0  0  0  0  0
   -2.6010   -1.3664    0.1757 H   0  0  0  0  0  0  0  0  0  0  0  0
   -1.2776   -0.0576   -1.3521 H   0  0  0  0  0  0  0  0  0  0  0  0
   -1.5347    1.2481    1.4194 H   0  0  0  0  0  0  0  0  0  0  0  0
   -0.6578    2.1414    0.0684 H   0  0  0  0  0  0  0  0  0  0  0  0
   -2.3666    1.6336   -0.1148 H   0  0  0  0  0  0  0  0  0  0  0  0
  1  2  1  0
  2  3  1  0
  3  4  1  0
  4  5  1  0
  5  6  1  0
  6  7  1  0
  7  8  1  0
  7  3  1  0
  1  9  1  0
  1 10  1  0
  1 11  1  0
  3 12  1  0
  4 13  1  0
  4 14  1  0
  6 15  1  0
  6 16  1  0
  7 17  1  0
  8 18  1  0
  8 19  1  0
  8 20  1  0
M  END
