
     RDKit          3D

 19 19  0  0  0  0  0  0  0  0999 V2000
    2.2235   -0.8607    0.6423 C   0  0  0  0  0  0  0  0  0  0  0  0
    1.3486   -0.1463    1.4389 O   0  0  0  0  0  0  0  0  0  0  0  0
    0.3025    0.3328    0.6392 C   0  0  0  0  0  0  0  0  0  0  0  0
    0.8488    1.2918   -0.3694 C   0  0  0  0  0  0  0  0  0  0  0  0
    0.1571    1.7892   -1.2207 O   0  0  0  0  0  0  0  0  0  0  0  0
   -0.4278   -0.8161    0.0293 C   0  0  0  0  0  0  0  0  0  0  0  0
   -1.8667   -0.4637    0.2925 C   0  0  0  0  0  0  0  0  0  0  0  0
   -1.7994    0.9587    0.7612 C   0  0  0  0  0  0  0  0  0  0  0  0
   -0.5979    1.0592    1.4123 O   0  0  0  0  0  0  0  0  0  0  0  0
    1.7690   -1.7334    0.1326 H   0  0  0  0  0  0  0  0  0  0  0  0
    3.0719   -1.2846    1.2497 H   0  0  0  0  0  0  0  0  0  0  0  0
    2.6424   -0.2370   -0.1863 H   0  0  0  0  0  0  0  0  0  0  0  0
    1.9047    1.5825   -0.3736 H   0  0  0  0  0  0  0  0  0  0  0  0
   -0.2254   -0.8528   -1.0708 H   0  0  0  0  0  0  0  0  0  0  0  0
   -0.1714   -1.8141    0.4577 H   0  0  0  0  0  0  0  0  0  0  0  0
   -2.4453   -0.5807   -0.6430 H   0  0  0  0  0  0  0  0  0  0  0  0
   -2.2707   -1.0795    1.1214 H   0  0  0  0  0  0  0  0  0  0  0  0
   -2.6661    1.2006    1.4402 H   0  0  0  0  0  0  0  0  0  0  0  0
   -1.7980    1.6542   -0.1041 H   0  0  0  0  0  0  0  0  0  0  0  0
  1  2  1  0
  2  3  1  0
  3  4  1  0
  4  5  2  0
  3  6  1  0
  6  7  1  0
  7  8  1  0
  8  9  1  0
  9  3  1  0
  1 10  1  0
  1 11  1  0
  1 12  1  0
  4 13  1  0
  6 14  1  0
  6 15  1  0
  7 16  1  0
  7 17  1  0
  8 18  1  0
  8 19  1  0
M  END
