
     RDKit          3D

 19 19  0  0  0  0  0  0  0  0999 V2000
   -2.3675    1.3648    0.5198 C   0  0  0  0  0  0  0  0  0  0  0  0
   -1.6391    0.2804    1.0096 O   0  0  0  0  0  0  0  0  0  0  0  0
   -0.6719   -0.0916    0.0631 C   0  0  0  0  0  0  0  0  0  0  0  0
   -0.4390   -1.5896   -0.0092 C   0  0  0  0  0  0  0  0  0  0  0  0
   -0.3491   -2.0898   -1.2839 O   0  0  0  0  0  0  0  0  0  0  0  0
    0.5863   -0.6803    0.5599 C   0  0  0  0  0  0  0  0  0  0  0  0
    1.9007   -0.4604   -0.1342 C   0  0  0  0  0  0  0  0  0  0  0  0
    2.2641    0.9671   -0.1995 C   0  0  0  0  0  0  0  0  0  0  0  0
    1.5942    1.8727    0.2483 O   0  0  0  0  0  0  0  0  0  0  0  0
   -3.1293    1.6749    1.2398 H   0  0  0  0  0  0  0  0  0  0  0  0
   -2.7882    1.0985   -0.4697 H   0  0  0  0  0  0  0  0  0  0  0  0
   -1.6419    2.1872    0.3502 H   0  0  0  0  0  0  0  0  0  0  0  0
   -0.6340    0.4949   -0.8729 H   0  0  0  0  0  0  0  0  0  0  0  0
   -1.0239   -2.2504    0.6865 H   0  0  0  0  0  0  0  0  0  0  0  0
   -0.1707   -1.4051   -1.9696 H   0  0  0  0  0  0  0  0  0  0  0  0
    0.6955   -0.7534    1.6818 H   0  0  0  0  0  0  0  0  0  0  0  0
    2.6939   -0.9937    0.4268 H   0  0  0  0  0  0  0  0  0  0  0  0
    1.9233   -0.8627   -1.1656 H   0  0  0  0  0  0  0  0  0  0  0  0
    3.1967    1.2367   -0.6813 H   0  0  0  0  0  0  0  0  0  0  0  0
  1  2  1  0
  2  3  1  0
  3  4  1  0
  4  5  1  0
  4  6  1  0
  6  7  1  0
  7  8  1  0
  8  9  2  0
  6  3  1  0
  1 10  1  0
  1 11  1  0
  1 12  1  0
  3 13  1  0
  4 14  1  0
  5 15  1  0
  6 16  1  0
  7 17  1  0
  7 18  1  0
  8 19  1  0
M  END
