
     RDKit          3D

 17 19  0  0  0  0  0  0  0  0999 V2000
    2.7469    0.3964    0.4674 C   0  0  0  0  0  0  0  0  0  0  0  0
    1.6511    0.4512   -0.3906 O   0  0  0  0  0  0  0  0  0  0  0  0
    0.5118   -0.0808    0.1627 C   0  0  0  0  0  0  0  0  0  0  0  0
   -0.3954   -0.8480   -0.7387 C   0  0  0  0  0  0  0  0  0  0  0  0
   -1.7330   -1.2977   -0.1694 C   0  0  0  0  0  0  0  0  0  0  0  0
   -2.8765   -0.6215   -0.5949 O   0  0  0  0  0  0  0  0  0  0  0  0
   -2.0222   -0.0784    0.3458 C   0  0  0  0  0  0  0  0  0  0  0  0
   -0.7571    0.5624   -0.1738 C   0  0  0  0  0  0  0  0  0  0  0  0
   -0.8552    1.5903   -1.0967 O   0  0  0  0  0  0  0  0  0  0  0  0
    3.6284    0.8326   -0.0212 H   0  0  0  0  0  0  0  0  0  0  0  0
    2.9445   -0.6728    0.6652 H   0  0  0  0  0  0  0  0  0  0  0  0
    2.5154    0.9475    1.3798 H   0  0  0  0  0  0  0  0  0  0  0  0
    0.5886   -0.4878    1.2120 H   0  0  0  0  0  0  0  0  0  0  0  0
   -0.2177   -0.9111   -1.8194 H   0  0  0  0  0  0  0  0  0  0  0  0
   -1.8508   -2.3384    0.1598 H   0  0  0  0  0  0  0  0  0  0  0  0
   -2.4055    0.2886    1.3064 H   0  0  0  0  0  0  0  0  0  0  0  0
   -1.4731    2.2679   -0.6945 H   0  0  0  0  0  0  0  0  0  0  0  0
  1  2  1  0
  2  3  1  0
  3  4  1  0
  4  5  1  0
  5  6  1  0
  6  7  1  0
  7  8  1  0
  8  9  1  0
  8  3  1  0
  8  4  1  0
  7  5  1  0
  1 10  1  0
  1 11  1  0
  1 12  1  0
  3 13  1  0
  4 14  1  0
  5 15  1  0
  7 16  1  0
  9 17  1  0
M  END
