
     RDKit          3D

 19 20  0  0  0  0  0  0  0  0999 V2000
    2.4642   -0.1837   -0.0435 C   0  0  0  0  0  0  0  0  0  0  0  0
    1.4478    0.2447   -0.8948 O   0  0  0  0  0  0  0  0  0  0  0  0
    0.2687   -0.0524   -0.4067 C   0  0  0  0  0  0  0  0  0  0  0  0
   -0.1366   -1.4586   -0.1285 C   0  0  0  0  0  0  0  0  0  0  0  0
   -1.3726   -1.3052    0.4035 C   0  0  0  0  0  0  0  0  0  0  0  0
   -1.5782    0.1436    0.3369 C   0  0  0  0  0  0  0  0  0  0  0  0
   -0.2213    0.6386    0.8730 C   0  0  0  0  0  0  0  0  0  0  0  0
   -0.9915    0.5257   -1.0225 C   0  0  0  0  0  0  0  0  0  0  0  0
   -0.9188    1.8995   -1.1341 O   0  0  0  0  0  0  0  0  0  0  0  0
    3.4705    0.0797   -0.4784 H   0  0  0  0  0  0  0  0  0  0  0  0
    2.3788   -1.2675    0.1534 H   0  0  0  0  0  0  0  0  0  0  0  0
    2.3448    0.4143    0.9027 H   0  0  0  0  0  0  0  0  0  0  0  0
    0.4027   -2.3872   -0.2993 H   0  0  0  0  0  0  0  0  0  0  0  0
   -2.0546   -2.0484    0.7873 H   0  0  0  0  0  0  0  0  0  0  0  0
   -2.4487    0.6168    0.6731 H   0  0  0  0  0  0  0  0  0  0  0  0
   -0.1514    1.7256    0.8631 H   0  0  0  0  0  0  0  0  0  0  0  0
    0.0543    0.0989    1.7812 H   0  0  0  0  0  0  0  0  0  0  0  0
   -1.4010   -0.0238   -1.8716 H   0  0  0  0  0  0  0  0  0  0  0  0
   -1.5570    2.3394   -0.4947 H   0  0  0  0  0  0  0  0  0  0  0  0
  1  2  1  0
  2  3  1  0
  3  4  1  0
  4  5  2  0
  5  6  1  0
  6  7  1  0
  6  8  1  0
  8  9  1  0
  7  3  1  0
  8  3  1  0
  1 10  1  0
  1 11  1  0
  1 12  1  0
  4 13  1  0
  5 14  1  0
  6 15  1  0
  7 16  1  0
  7 17  1  0
  8 18  1  0
  9 19  1  0
M  END
