
     RDKit          3D

 17 17  0  0  0  0  0  0  0  0999 V2000
   -2.0119    0.7036    0.7956 C   0  0  0  0  0  0  0  0  0  0  0  0
   -0.8504    0.8906    0.0517 O   0  0  0  0  0  0  0  0  0  0  0  0
   -0.3451   -0.3352   -0.2761 C   0  0  0  0  0  0  0  0  0  0  0  0
    0.0055   -0.3874   -1.7461 C   0  0  0  0  0  0  0  0  0  0  0  0
    1.3437   -0.1080   -1.4725 O   0  0  0  0  0  0  0  0  0  0  0  0
    1.1443   -0.5104   -0.1821 C   0  0  0  0  0  0  0  0  0  0  0  0
    1.8299    0.2907    0.8910 C   0  0  0  0  0  0  0  0  0  0  0  0
   -2.7146    0.1313    0.1378 H   0  0  0  0  0  0  0  0  0  0  0  0
   -2.5169    1.6592    1.0411 H   0  0  0  0  0  0  0  0  0  0  0  0
   -1.8100    0.0912    1.7117 H   0  0  0  0  0  0  0  0  0  0  0  0
   -0.9429   -1.1596    0.1044 H   0  0  0  0  0  0  0  0  0  0  0  0
   -0.1564   -1.4297   -2.1187 H   0  0  0  0  0  0  0  0  0  0  0  0
   -0.4543    0.4055   -2.3337 H   0  0  0  0  0  0  0  0  0  0  0  0
    1.3839   -1.5932   -0.0443 H   0  0  0  0  0  0  0  0  0  0  0  0
    1.6006    1.3603    0.8464 H   0  0  0  0  0  0  0  0  0  0  0  0
    1.5603   -0.1725    1.8685 H   0  0  0  0  0  0  0  0  0  0  0  0
    2.9343    0.1637    0.7254 H   0  0  0  0  0  0  0  0  0  0  0  0
  1  2  1  0
  2  3  1  0
  3  4  1  0
  4  5  1  0
  5  6  1  0
  6  7  1  0
  6  3  1  0
  1  8  1  0
  1  9  1  0
  1 10  1  0
  3 11  1  0
  4 12  1  0
  4 13  1  0
  6 14  1  0
  7 15  1  0
  7 16  1  0
  7 17  1  0
M  END
