
     RDKit          3D

 21 21  0  0  0  0  0  0  0  0999 V2000
    3.2978    0.1791    0.3292 C   0  0  0  0  0  0  0  0  0  0  0  0
    2.1154    0.7481   -0.1288 O   0  0  0  0  0  0  0  0  0  0  0  0
    1.0553   -0.1225    0.1045 C   0  0  0  0  0  0  0  0  0  0  0  0
    0.2512   -0.2890   -1.1659 C   0  0  0  0  0  0  0  0  0  0  0  0
   -0.9390    0.3513   -0.5176 C   0  0  0  0  0  0  0  0  0  0  0  0
   -2.0858   -0.5927   -0.3973 C   0  0  0  0  0  0  0  0  0  0  0  0
   -3.2735    0.0409    0.2481 C   0  0  0  0  0  0  0  0  0  0  0  0
   -3.1496    1.2183    0.5826 O   0  0  0  0  0  0  0  0  0  0  0  0
   -0.1316    0.5731    0.7370 C   0  0  0  0  0  0  0  0  0  0  0  0
    4.1697    0.8128    0.1758 H   0  0  0  0  0  0  0  0  0  0  0  0
    3.1838   -0.0288    1.4213 H   0  0  0  0  0  0  0  0  0  0  0  0
    3.4707   -0.8119   -0.1511 H   0  0  0  0  0  0  0  0  0  0  0  0
    1.3786   -1.0425    0.5862 H   0  0  0  0  0  0  0  0  0  0  0  0
    0.6352    0.2187   -2.0539 H   0  0  0  0  0  0  0  0  0  0  0  0
    0.1146   -1.3757   -1.3885 H   0  0  0  0  0  0  0  0  0  0  0  0
   -1.1986    1.2939   -1.0270 H   0  0  0  0  0  0  0  0  0  0  0  0
   -2.4199   -0.8437   -1.4459 H   0  0  0  0  0  0  0  0  0  0  0  0
   -1.8258   -1.5504    0.0678 H   0  0  0  0  0  0  0  0  0  0  0  0
   -4.1980   -0.4939    0.4181 H   0  0  0  0  0  0  0  0  0  0  0  0
    0.0690    1.6443    0.9156 H   0  0  0  0  0  0  0  0  0  0  0  0
   -0.5191    0.0706    1.6414 H   0  0  0  0  0  0  0  0  0  0  0  0
  1  2  1  0
  2  3  1  0
  3  4  1  0
  4  5  1  0
  5  6  1  0
  6  7  1  0
  7  8  2  0
  5  9  1  0
  9  3  1  0
  1 10  1  0
  1 11  1  0
  1 12  1  0
  3 13  1  0
  4 14  1  0
  4 15  1  0
  5 16  1  0
  6 17  1  0
  6 18  1  0
  7 19  1  0
  9 20  1  0
  9 21  1  0
M  END
