
     RDKit          3D

 19 19  0  0  0  0  0  0  0  0999 V2000
    2.7457   -0.0926    0.2547 C   0  0  0  0  0  0  0  0  0  0  0  0
    1.4244   -0.2461    0.6120 O   0  0  0  0  0  0  0  0  0  0  0  0
    0.5391    0.3107   -0.2983 C   0  0  0  0  0  0  0  0  0  0  0  0
   -0.4316   -0.6891   -0.8593 C   0  0  0  0  0  0  0  0  0  0  0  0
   -1.8653   -0.3359   -0.5112 C   0  0  0  0  0  0  0  0  0  0  0  0
   -1.9244   -0.2097    0.9966 C   0  0  0  0  0  0  0  0  0  0  0  0
   -1.1855    0.9699    1.3210 O   0  0  0  0  0  0  0  0  0  0  0  0
   -0.2121    1.3724    0.4155 C   0  0  0  0  0  0  0  0  0  0  0  0
    0.0413    2.5830    0.1920 O   0  0  0  0  0  0  0  0  0  0  0  0
    2.9894   -0.5691   -0.7319 H   0  0  0  0  0  0  0  0  0  0  0  0
    3.0769    0.9632    0.3018 H   0  0  0  0  0  0  0  0  0  0  0  0
    3.3563   -0.6424    1.0037 H   0  0  0  0  0  0  0  0  0  0  0  0
    1.0501    0.7818   -1.1543 H   0  0  0  0  0  0  0  0  0  0  0  0
   -0.2631   -1.7167   -0.4847 H   0  0  0  0  0  0  0  0  0  0  0  0
   -0.3704   -0.7607   -1.9827 H   0  0  0  0  0  0  0  0  0  0  0  0
   -2.0689    0.6428   -1.0038 H   0  0  0  0  0  0  0  0  0  0  0  0
   -2.5430   -1.1091   -0.8791 H   0  0  0  0  0  0  0  0  0  0  0  0
   -2.9627   -0.1656    1.3807 H   0  0  0  0  0  0  0  0  0  0  0  0
   -1.3959   -1.0868    1.4273 H   0  0  0  0  0  0  0  0  0  0  0  0
  1  2  1  0
  2  3  1  0
  3  4  1  0
  4  5  1  0
  5  6  1  0
  6  7  1  0
  7  8  1  0
  8  9  2  0
  8  3  1  0
  1 10  1  0
  1 11  1  0
  1 12  1  0
  3 13  1  0
  4 14  1  0
  4 15  1  0
  5 16  1  0
  5 17  1  0
  6 18  1  0
  6 19  1  0
M  END
