
     RDKit          3D

 21 22  0  0  0  0  0  0  0  0999 V2000
    2.5880    0.1484   -1.0610 C   0  0  0  0  0  0  0  0  0  0  0  0
    1.4970    0.6606   -0.3611 O   0  0  0  0  0  0  0  0  0  0  0  0
    0.7670   -0.3506    0.2661 C   0  0  0  0  0  0  0  0  0  0  0  0
    0.5947   -0.0492    1.7623 C   0  0  0  0  0  0  0  0  0  0  0  0
   -0.6706    0.7127    1.3391 C   0  0  0  0  0  0  0  0  0  0  0  0
   -0.6994   -0.1849    0.1548 C   0  0  0  0  0  0  0  0  0  0  0  0
   -1.2929    0.2957   -1.0983 C   0  0  0  0  0  0  0  0  0  0  0  0
   -2.4073   -0.6437   -0.6178 C   0  0  0  0  0  0  0  0  0  0  0  0
   -1.4884   -1.3104    0.2260 O   0  0  0  0  0  0  0  0  0  0  0  0
    3.1102    1.0060   -1.5255 H   0  0  0  0  0  0  0  0  0  0  0  0
    3.2973   -0.3991   -0.4430 H   0  0  0  0  0  0  0  0  0  0  0  0
    2.1812   -0.5059   -1.8492 H   0  0  0  0  0  0  0  0  0  0  0  0
    1.1834   -1.3576    0.0942 H   0  0  0  0  0  0  0  0  0  0  0  0
    1.3698    0.5727    2.1985 H   0  0  0  0  0  0  0  0  0  0  0  0
    0.2895   -0.9615    2.2887 H   0  0  0  0  0  0  0  0  0  0  0  0
   -1.5013    0.6331    2.0526 H   0  0  0  0  0  0  0  0  0  0  0  0
   -0.4172    1.7628    1.0185 H   0  0  0  0  0  0  0  0  0  0  0  0
   -1.5937    1.3623   -1.0487 H   0  0  0  0  0  0  0  0  0  0  0  0
   -0.8408   -0.0291   -2.0554 H   0  0  0  0  0  0  0  0  0  0  0  0
   -2.8493   -1.2697   -1.3908 H   0  0  0  0  0  0  0  0  0  0  0  0
   -3.1174   -0.0924    0.0500 H   0  0  0  0  0  0  0  0  0  0  0  0
  1  2  1  0
  2  3  1  0
  3  4  1  0
  4  5  1  0
  5  6  1  0
  6  7  1  0
  7  8  1  0
  8  9  1  0
  6  3  1  0
  9  6  1  0
  1 10  1  0
  1 11  1  0
  1 12  1  0
  3 13  1  0
  4 14  1  0
  4 15  1  0
  5 16  1  0
  5 17  1  0
  7 18  1  0
  7 19  1  0
  8 20  1  0
  8 21  1  0
M  END
