
     RDKit          3D

 23 23  0  0  0  0  0  0  0  0999 V2000
   -3.3214    1.6896    1.0685 C   0  0  0  0  0  0  0  0  0  0  0  0
   -2.6577    0.4783    1.1150 O   0  0  0  0  0  0  0  0  0  0  0  0
   -1.7851    0.2770    0.0630 C   0  0  0  0  0  0  0  0  0  0  0  0
   -1.6610   -1.0535   -0.5679 C   0  0  0  0  0  0  0  0  0  0  0  0
   -0.5180   -0.4271    0.2554 C   0  0  0  0  0  0  0  0  0  0  0  0
    0.6169   -0.2159   -0.4822 O   0  0  0  0  0  0  0  0  0  0  0  0
    1.7964   -0.5400    0.1284 C   0  0  0  0  0  0  0  0  0  0  0  0
    2.6695   -1.4674   -0.6678 C   0  0  0  0  0  0  0  0  0  0  0  0
    2.5849    0.7667    0.3032 C   0  0  0  0  0  0  0  0  0  0  0  0
   -3.9846    1.7296    1.9587 H   0  0  0  0  0  0  0  0  0  0  0  0
   -3.9893    1.7005    0.1862 H   0  0  0  0  0  0  0  0  0  0  0  0
   -2.6714    2.5693    1.1270 H   0  0  0  0  0  0  0  0  0  0  0  0
   -1.7805    1.1560   -0.6467 H   0  0  0  0  0  0  0  0  0  0  0  0
   -2.0744   -1.9671   -0.1062 H   0  0  0  0  0  0  0  0  0  0  0  0
   -1.5571   -1.1073   -1.6503 H   0  0  0  0  0  0  0  0  0  0  0  0
   -0.3366   -0.8403    1.2702 H   0  0  0  0  0  0  0  0  0  0  0  0
    1.6672   -0.9369    1.1570 H   0  0  0  0  0  0  0  0  0  0  0  0
    3.2378   -2.1497   -0.0063 H   0  0  0  0  0  0  0  0  0  0  0  0
    2.0107   -2.0684   -1.3167 H   0  0  0  0  0  0  0  0  0  0  0  0
    3.3705   -0.8679   -1.3028 H   0  0  0  0  0  0  0  0  0  0  0  0
    1.8991    1.6387    0.2701 H   0  0  0  0  0  0  0  0  0  0  0  0
    3.2649    0.8892   -0.5770 H   0  0  0  0  0  0  0  0  0  0  0  0
    3.2193    0.7466    1.1899 H   0  0  0  0  0  0  0  0  0  0  0  0
  1  2  1  0
  2  3  1  0
  3  4  1  0
  4  5  1  0
  5  6  1  0
  6  7  1  0
  7  8  1  0
  7  9  1  0
  5  3  1  0
  1 10  1  0
  1 11  1  0
  1 12  1  0
  3 13  1  0
  4 14  1  0
  4 15  1  0
  5 16  1  0
  7 17  1  0
  8 18  1  0
  8 19  1  0
  8 20  1  0
  9 21  1  0
  9 22  1  0
  9 23  1  0
M  END
