
     RDKit          3D

 21 22  0  0  0  0  0  0  0  0999 V2000
    2.5234   -0.4282    0.1392 C   0  0  0  0  0  0  0  0  0  0  0  0
    1.3674   -1.0298   -0.2519 O   0  0  0  0  0  0  0  0  0  0  0  0
    0.2309   -0.3351   -0.2636 C   0  0  0  0  0  0  0  0  0  0  0  0
    0.1718    0.8740   -1.1384 C   0  0  0  0  0  0  0  0  0  0  0  0
   -0.4782    1.6394   -0.0034 C   0  0  0  0  0  0  0  0  0  0  0  0
   -0.2441    0.4581    0.8787 C   0  0  0  0  0  0  0  0  0  0  0  0
   -1.5084   -0.3653    1.0108 C   0  0  0  0  0  0  0  0  0  0  0  0
   -1.0114   -1.1715   -0.1884 C   0  0  0  0  0  0  0  0  0  0  0  0
   -1.8460   -1.1350   -1.2873 O   0  0  0  0  0  0  0  0  0  0  0  0
    2.8414    0.4379   -0.4496 H   0  0  0  0  0  0  0  0  0  0  0  0
    2.4444   -0.2088    1.2344 H   0  0  0  0  0  0  0  0  0  0  0  0
    3.3483   -1.1826    0.0573 H   0  0  0  0  0  0  0  0  0  0  0  0
   -0.4480    0.7536   -2.0460 H   0  0  0  0  0  0  0  0  0  0  0  0
    1.1877    1.2775   -1.3237 H   0  0  0  0  0  0  0  0  0  0  0  0
    0.0265    2.5506    0.3115 H   0  0  0  0  0  0  0  0  0  0  0  0
   -1.5425    1.8369   -0.2770 H   0  0  0  0  0  0  0  0  0  0  0  0
    0.3568    0.5775    1.7637 H   0  0  0  0  0  0  0  0  0  0  0  0
   -2.4392    0.1971    0.7447 H   0  0  0  0  0  0  0  0  0  0  0  0
   -1.5508   -0.9034    1.9546 H   0  0  0  0  0  0  0  0  0  0  0  0
   -0.7596   -2.2094    0.1740 H   0  0  0  0  0  0  0  0  0  0  0  0
   -2.6702   -1.6334   -1.0396 H   0  0  0  0  0  0  0  0  0  0  0  0
  1  2  1  0
  2  3  1  0
  3  4  1  0
  4  5  1  0
  5  6  1  0
  6  7  1  0
  7  8  1  0
  8  9  1  0
  6  3  1  0
  8  3  1  0
  1 10  1  0
  1 11  1  0
  1 12  1  0
  4 13  1  0
  4 14  1  0
  5 15  1  0
  5 16  1  0
  6 17  1  0
  7 18  1  0
  7 19  1  0
  8 20  1  0
  9 21  1  0
M  END
