
     RDKit          3D

 21 21  0  0  0  0  0  0  0  0999 V2000
    3.0460    0.6037    0.0814 C   0  0  0  0  0  0  0  0  0  0  0  0
    1.7726    0.7503    0.6609 O   0  0  0  0  0  0  0  0  0  0  0  0
    0.8319    0.0817   -0.0868 C   0  0  0  0  0  0  0  0  0  0  0  0
   -0.3064    0.9783   -0.4990 C   0  0  0  0  0  0  0  0  0  0  0  0
   -1.4481    0.2998   -0.4273 C   0  0  0  0  0  0  0  0  0  0  0  0
   -2.7931    0.8380   -0.7541 C   0  0  0  0  0  0  0  0  0  0  0  0
   -1.1814   -1.0943    0.0333 C   0  0  0  0  0  0  0  0  0  0  0  0
    0.1022   -0.8794    0.8402 C   0  0  0  0  0  0  0  0  0  0  0  0
    0.7892   -2.0460    1.0568 O   0  0  0  0  0  0  0  0  0  0  0  0
    3.3578   -0.4514    0.0177 H   0  0  0  0  0  0  0  0  0  0  0  0
    2.9838    1.1003   -0.9212 H   0  0  0  0  0  0  0  0  0  0  0  0
    3.7942    1.1088    0.7434 H   0  0  0  0  0  0  0  0  0  0  0  0
    1.2530   -0.4248   -0.9717 H   0  0  0  0  0  0  0  0  0  0  0  0
   -0.1678    2.0101   -0.7996 H   0  0  0  0  0  0  0  0  0  0  0  0
   -3.5845    0.1276   -0.4779 H   0  0  0  0  0  0  0  0  0  0  0  0
   -2.8934    1.0747   -1.8510 H   0  0  0  0  0  0  0  0  0  0  0  0
   -3.0005    1.8081   -0.2340 H   0  0  0  0  0  0  0  0  0  0  0  0
   -1.0067   -1.7409   -0.8267 H   0  0  0  0  0  0  0  0  0  0  0  0
   -1.9912   -1.4978    0.6601 H   0  0  0  0  0  0  0  0  0  0  0  0
   -0.1469   -0.3113    1.7536 H   0  0  0  0  0  0  0  0  0  0  0  0
    0.5893   -2.3357    2.0021 H   0  0  0  0  0  0  0  0  0  0  0  0
  1  2  1  0
  2  3  1  0
  3  4  1  0
  4  5  2  0
  5  6  1  0
  5  7  1  0
  7  8  1  0
  8  9  1  0
  8  3  1  0
  1 10  1  0
  1 11  1  0
  1 12  1  0
  3 13  1  0
  4 14  1  0
  6 15  1  0
  6 16  1  0
  6 17  1  0
  7 18  1  0
  7 19  1  0
  8 20  1  0
  9 21  1  0
M  END
