
     RDKit          3D

 19 19  0  0  0  0  0  0  0  0999 V2000
   -2.5797   -1.3866    0.0426 C   0  0  0  0  0  0  0  0  0  0  0  0
   -1.5328   -0.5692   -0.2952 O   0  0  0  0  0  0  0  0  0  0  0  0
   -0.6007   -0.3729    0.6922 C   0  0  0  0  0  0  0  0  0  0  0  0
   -0.2573    1.1229    0.8640 C   0  0  0  0  0  0  0  0  0  0  0  0
   -0.6179    2.0002   -0.1370 O   0  0  0  0  0  0  0  0  0  0  0  0
    0.7689    0.0791    0.4728 C   0  0  0  0  0  0  0  0  0  0  0  0
    1.4020    0.2144   -0.8432 C   0  0  0  0  0  0  0  0  0  0  0  0
    2.8646    0.0984   -1.0353 C   0  0  0  0  0  0  0  0  0  0  0  0
    0.6874    0.4303   -1.8063 O   0  0  0  0  0  0  0  0  0  0  0  0
   -3.2512   -1.4578   -0.8388 H   0  0  0  0  0  0  0  0  0  0  0  0
   -2.3012   -2.4138    0.3135 H   0  0  0  0  0  0  0  0  0  0  0  0
   -3.2031   -0.9315    0.8526 H   0  0  0  0  0  0  0  0  0  0  0  0
   -0.8283   -0.9100    1.6374 H   0  0  0  0  0  0  0  0  0  0  0  0
   -0.2908    1.5101    1.8899 H   0  0  0  0  0  0  0  0  0  0  0  0
   -1.4598    2.4840    0.0674 H   0  0  0  0  0  0  0  0  0  0  0  0
    1.4936   -0.1168    1.2973 H   0  0  0  0  0  0  0  0  0  0  0  0
    3.2122   -0.7329   -0.3680 H   0  0  0  0  0  0  0  0  0  0  0  0
    3.0846   -0.0812   -2.0876 H   0  0  0  0  0  0  0  0  0  0  0  0
    3.4093    1.0330   -0.7182 H   0  0  0  0  0  0  0  0  0  0  0  0
  1  2  1  0
  2  3  1  0
  3  4  1  0
  4  5  1  0
  4  6  1  0
  6  7  1  0
  7  8  1  0
  7  9  2  0
  6  3  1  0
  1 10  1  0
  1 11  1  0
  1 12  1  0
  3 13  1  0
  4 14  1  0
  5 15  1  0
  6 16  1  0
  8 17  1  0
  8 18  1  0
  8 19  1  0
M  END
