
     RDKit          3D

 21 21  0  0  0  0  0  0  0  0999 V2000
    3.0516   -0.2384   -0.4837 C   0  0  0  0  0  0  0  0  0  0  0  0
    1.8257   -0.7145   -0.0752 O   0  0  0  0  0  0  0  0  0  0  0  0
    0.7940    0.1822   -0.1984 C   0  0  0  0  0  0  0  0  0  0  0  0
   -0.3840   -0.4501   -0.9159 C   0  0  0  0  0  0  0  0  0  0  0  0
   -1.2988   -0.0835    0.2270 C   0  0  0  0  0  0  0  0  0  0  0  0
   -2.1774    1.1234   -0.0174 C   0  0  0  0  0  0  0  0  0  0  0  0
   -2.0494   -1.1671    0.7105 O   0  0  0  0  0  0  0  0  0  0  0  0
   -0.0829    0.2597    1.0385 C   0  0  0  0  0  0  0  0  0  0  0  0
    0.2657   -0.6970    1.9874 O   0  0  0  0  0  0  0  0  0  0  0  0
    2.9752    0.0443   -1.5730 H   0  0  0  0  0  0  0  0  0  0  0  0
    3.4158    0.6319    0.0882 H   0  0  0  0  0  0  0  0  0  0  0  0
    3.7782   -1.0747   -0.4312 H   0  0  0  0  0  0  0  0  0  0  0  0
    1.0374    1.1822   -0.6055 H   0  0  0  0  0  0  0  0  0  0  0  0
   -0.6590    0.0569   -1.8764 H   0  0  0  0  0  0  0  0  0  0  0  0
   -0.3250   -1.5438   -1.0306 H   0  0  0  0  0  0  0  0  0  0  0  0
   -3.0266    0.8976   -0.6741 H   0  0  0  0  0  0  0  0  0  0  0  0
   -2.6010    1.4105    0.9782 H   0  0  0  0  0  0  0  0  0  0  0  0
   -1.6010    1.9336   -0.4857 H   0  0  0  0  0  0  0  0  0  0  0  0
   -2.6048   -1.4598   -0.0718 H   0  0  0  0  0  0  0  0  0  0  0  0
   -0.1286    1.2528    1.5213 H   0  0  0  0  0  0  0  0  0  0  0  0
   -0.2052   -1.5464    1.8878 H   0  0  0  0  0  0  0  0  0  0  0  0
  1  2  1  0
  2  3  1  0
  3  4  1  0
  4  5  1  0
  5  6  1  0
  5  7  1  0
  5  8  1  0
  8  9  1  0
  8  3  1  0
  1 10  1  0
  1 11  1  0
  1 12  1  0
  3 13  1  0
  4 14  1  0
  4 15  1  0
  6 16  1  0
  6 17  1  0
  6 18  1  0
  7 19  1  0
  8 20  1  0
  9 21  1  0
M  END
