
     RDKit          3D

 18 18  0  0  0  0  0  0  0  0999 V2000
    2.7875   -0.1726    0.1769 C   0  0  0  0  0  0  0  0  0  0  0  0
    1.5426   -0.7638    0.3237 O   0  0  0  0  0  0  0  0  0  0  0  0
    0.4939    0.1071    0.0278 C   0  0  0  0  0  0  0  0  0  0  0  0
   -0.4355    0.3240    1.1715 C   0  0  0  0  0  0  0  0  0  0  0  0
   -1.6195   -0.3559    1.1244 O   0  0  0  0  0  0  0  0  0  0  0  0
   -2.1999   -0.4966   -0.1003 C   0  0  0  0  0  0  0  0  0  0  0  0
   -1.4121    0.1005   -1.2348 C   0  0  0  0  0  0  0  0  0  0  0  0
   -0.1185   -0.3765   -1.1193 O   0  0  0  0  0  0  0  0  0  0  0  0
    2.9522    0.6993    0.8170 H   0  0  0  0  0  0  0  0  0  0  0  0
    2.9190    0.0617   -0.9033 H   0  0  0  0  0  0  0  0  0  0  0  0
    3.5392   -0.9362    0.4660 H   0  0  0  0  0  0  0  0  0  0  0  0
    0.9692    1.0710   -0.2546 H   0  0  0  0  0  0  0  0  0  0  0  0
   -0.6806    1.4114    1.2492 H   0  0  0  0  0  0  0  0  0  0  0  0
    0.0642    0.0715    2.1376 H   0  0  0  0  0  0  0  0  0  0  0  0
   -3.2133   -0.0456   -0.1230 H   0  0  0  0  0  0  0  0  0  0  0  0
   -2.3398   -1.5804   -0.3332 H   0  0  0  0  0  0  0  0  0  0  0  0
   -1.4172    1.1977   -1.2482 H   0  0  0  0  0  0  0  0  0  0  0  0
   -1.8315   -0.3166   -2.1773 H   0  0  0  0  0  0  0  0  0  0  0  0
  1  2  1  0
  2  3  1  0
  3  4  1  0
  4  5  1  0
  5  6  1  0
  6  7  1  0
  7  8  1  0
  8  3  1  0
  1  9  1  0
  1 10  1  0
  1 11  1  0
  3 12  1  0
  4 13  1  0
  4 14  1  0
  6 15  1  0
  6 16  1  0
  7 17  1  0
  7 18  1  0
M  END
