
     RDKit          3D

 21 21  0  0  0  0  0  0  0  0999 V2000
    3.2550    0.3670   -0.2413 C   0  0  0  0  0  0  0  0  0  0  0  0
    1.9264    0.3924   -0.6548 O   0  0  0  0  0  0  0  0  0  0  0  0
    1.1744   -0.3301    0.2463 C   0  0  0  0  0  0  0  0  0  0  0  0
   -0.0690    0.4670    0.6664 C   0  0  0  0  0  0  0  0  0  0  0  0
   -0.7153   -0.0856   -0.6099 C   0  0  0  0  0  0  0  0  0  0  0  0
   -2.1426   -0.3696   -0.5167 C   0  0  0  0  0  0  0  0  0  0  0  0
   -3.1146    0.7140   -0.1905 C   0  0  0  0  0  0  0  0  0  0  0  0
   -2.5268   -1.5193   -0.7124 O   0  0  0  0  0  0  0  0  0  0  0  0
    0.1952   -1.3053   -0.4223 C   0  0  0  0  0  0  0  0  0  0  0  0
    3.4088    0.8018    0.7565 H   0  0  0  0  0  0  0  0  0  0  0  0
    3.8838    0.9415   -0.9626 H   0  0  0  0  0  0  0  0  0  0  0  0
    3.6123   -0.6925   -0.2194 H   0  0  0  0  0  0  0  0  0  0  0  0
    1.7453   -0.7580    1.0665 H   0  0  0  0  0  0  0  0  0  0  0  0
   -0.5476    0.0581    1.5918 H   0  0  0  0  0  0  0  0  0  0  0  0
    0.0450    1.5516    0.6176 H   0  0  0  0  0  0  0  0  0  0  0  0
   -0.3555    0.4867   -1.4798 H   0  0  0  0  0  0  0  0  0  0  0  0
   -2.8596    1.6360   -0.7930 H   0  0  0  0  0  0  0  0  0  0  0  0
   -3.0877    0.9751    0.9001 H   0  0  0  0  0  0  0  0  0  0  0  0
   -4.1645    0.3960   -0.4005 H   0  0  0  0  0  0  0  0  0  0  0  0
   -0.2223   -1.9891    0.3279 H   0  0  0  0  0  0  0  0  0  0  0  0
    0.5592   -1.7377   -1.3628 H   0  0  0  0  0  0  0  0  0  0  0  0
  1  2  1  0
  2  3  1  0
  3  4  1  0
  4  5  1  0
  5  6  1  0
  6  7  1  0
  6  8  2  0
  5  9  1  0
  9  3  1  0
  1 10  1  0
  1 11  1  0
  1 12  1  0
  3 13  1  0
  4 14  1  0
  4 15  1  0
  5 16  1  0
  7 17  1  0
  7 18  1  0
  7 19  1  0
  9 20  1  0
  9 21  1  0
M  END
