
     RDKit          3D

 21 21  0  0  0  0  0  0  0  0999 V2000
    2.9227    1.0020   -0.2676 C   0  0  0  0  0  0  0  0  0  0  0  0
    1.6551    1.0004    0.3002 O   0  0  0  0  0  0  0  0  0  0  0  0
    0.8944   -0.0923   -0.1149 C   0  0  0  0  0  0  0  0  0  0  0  0
    0.5244   -1.0051    1.0031 C   0  0  0  0  0  0  0  0  0  0  0  0
   -0.6698   -1.8338    0.5801 C   0  0  0  0  0  0  0  0  0  0  0  0
   -1.6254   -1.1302    0.0019 C   0  0  0  0  0  0  0  0  0  0  0  0
   -1.3776    0.3204   -0.1351 C   0  0  0  0  0  0  0  0  0  0  0  0
   -2.4689    1.0533   -0.8479 C   0  0  0  0  0  0  0  0  0  0  0  0
   -0.1748    0.4264   -0.8310 O   0  0  0  0  0  0  0  0  0  0  0  0
    3.5000    0.0893   -0.0004 H   0  0  0  0  0  0  0  0  0  0  0  0
    2.8689    1.1130   -1.3700 H   0  0  0  0  0  0  0  0  0  0  0  0
    3.4720    1.8555    0.1931 H   0  0  0  0  0  0  0  0  0  0  0  0
    1.5346   -0.6895   -0.8158 H   0  0  0  0  0  0  0  0  0  0  0  0
    0.2337   -0.5020    1.9288 H   0  0  0  0  0  0  0  0  0  0  0  0
    1.3296   -1.7225    1.2414 H   0  0  0  0  0  0  0  0  0  0  0  0
   -0.7270   -2.8933    0.7388 H   0  0  0  0  0  0  0  0  0  0  0  0
   -2.5253   -1.5767   -0.3478 H   0  0  0  0  0  0  0  0  0  0  0  0
   -1.1973    0.7425    0.8724 H   0  0  0  0  0  0  0  0  0  0  0  0
   -3.4652    0.6284   -0.6995 H   0  0  0  0  0  0  0  0  0  0  0  0
   -2.5004    2.1005   -0.4795 H   0  0  0  0  0  0  0  0  0  0  0  0
   -2.2037    1.1137   -1.9422 H   0  0  0  0  0  0  0  0  0  0  0  0
  1  2  1  0
  2  3  1  0
  3  4  1  0
  4  5  1  0
  5  6  2  0
  6  7  1  0
  7  8  1  0
  7  9  1  0
  9  3  1  0
  1 10  1  0
  1 11  1  0
  1 12  1  0
  3 13  1  0
  4 14  1  0
  4 15  1  0
  5 16  1  0
  6 17  1  0
  7 18  1  0
  8 19  1  0
  8 20  1  0
  8 21  1  0
M  END
