
     RDKit          3D

 17 17  0  0  0  0  0  0  0  0999 V2000
   -3.0450   -0.1111    0.2903 C   0  0  0  0  0  0  0  0  0  0  0  0
   -1.8890   -0.8618    0.6004 O   0  0  0  0  0  0  0  0  0  0  0  0
   -0.7802   -0.0512    0.4054 C   0  0  0  0  0  0  0  0  0  0  0  0
    0.0137    0.1648    1.6728 C   0  0  0  0  0  0  0  0  0  0  0  0
    0.5649   -0.7035    0.5035 C   0  0  0  0  0  0  0  0  0  0  0  0
    1.5395   -0.2545   -0.4094 C   0  0  0  0  0  0  0  0  0  0  0  0
    2.4776    0.1541   -1.2871 C   0  0  0  0  0  0  0  0  0  0  0  0
    3.4159    0.5439   -2.1411 C   0  0  0  0  0  0  0  0  0  0  0  0
    4.3654   -0.3366   -2.5311 O   0  0  0  0  0  0  0  0  0  0  0  0
   -3.0137    0.3110   -0.7064 H   0  0  0  0  0  0  0  0  0  0  0  0
   -3.1981    0.5899    1.1349 H   0  0  0  0  0  0  0  0  0  0  0  0
   -3.9651   -0.7498    0.2934 H   0  0  0  0  0  0  0  0  0  0  0  0
   -0.9125    0.9161   -0.1454 H   0  0  0  0  0  0  0  0  0  0  0  0
   -0.2239   -0.3988    2.5751 H   0  0  0  0  0  0  0  0  0  0  0  0
    0.5230    1.1193    1.8736 H   0  0  0  0  0  0  0  0  0  0  0  0
    0.5324   -1.8336    0.6855 H   0  0  0  0  0  0  0  0  0  0  0  0
    3.5951    1.5018   -2.6264 H   0  0  0  0  0  0  0  0  0  0  0  0
  1  2  1  0
  2  3  1  0
  3  4  1  0
  4  5  1  0
  5  6  1  0
  6  7  3  0
  7  8  1  0
  8  9  2  0
  5  3  1  0
  1 10  1  0
  1 11  1  0
  1 12  1  0
  3 13  1  0
  4 14  1  0
  4 15  1  0
  5 16  1  0
  8 17  1  0
M  END
