
     RDKit          3D

 23 24  0  0  0  0  0  0  0  0999 V2000
    2.9798    0.6920    0.2004 C   0  0  0  0  0  0  0  0  0  0  0  0
    1.8189    0.5350    0.9207 O   0  0  0  0  0  0  0  0  0  0  0  0
    0.7356    0.1355    0.1606 C   0  0  0  0  0  0  0  0  0  0  0  0
    0.3182   -1.2695    0.6211 C   0  0  0  0  0  0  0  0  0  0  0  0
   -1.0008   -1.7218    0.1264 C   0  0  0  0  0  0  0  0  0  0  0  0
   -2.0797   -0.6323    0.0606 C   0  0  0  0  0  0  0  0  0  0  0  0
   -1.4443    0.4849   -0.6453 C   0  0  0  0  0  0  0  0  0  0  0  0
   -1.2299    1.8472   -0.3499 C   0  0  0  0  0  0  0  0  0  0  0  0
   -0.4217    0.9945    0.4317 C   0  0  0  0  0  0  0  0  0  0  0  0
    2.8763    1.4675   -0.6116 H   0  0  0  0  0  0  0  0  0  0  0  0
    3.3151   -0.2241   -0.3197 H   0  0  0  0  0  0  0  0  0  0  0  0
    3.7493    1.1000    0.8868 H   0  0  0  0  0  0  0  0  0  0  0  0
    1.0018    0.0108   -0.9146 H   0  0  0  0  0  0  0  0  0  0  0  0
    1.0744   -2.0197    0.2863 H   0  0  0  0  0  0  0  0  0  0  0  0
    0.3243   -1.2279    1.7427 H   0  0  0  0  0  0  0  0  0  0  0  0
   -0.8688   -2.0412   -0.9498 H   0  0  0  0  0  0  0  0  0  0  0  0
   -1.3292   -2.5729    0.7280 H   0  0  0  0  0  0  0  0  0  0  0  0
   -2.9501   -1.0929   -0.4141 H   0  0  0  0  0  0  0  0  0  0  0  0
   -2.3185   -0.3919    1.1383 H   0  0  0  0  0  0  0  0  0  0  0  0
   -0.9982    0.1239   -1.6224 H   0  0  0  0  0  0  0  0  0  0  0  0
   -0.7558    2.5121   -1.1008 H   0  0  0  0  0  0  0  0  0  0  0  0
   -2.0643    2.4172    0.1570 H   0  0  0  0  0  0  0  0  0  0  0  0
   -0.7323    0.8736    1.5151 H   0  0  0  0  0  0  0  0  0  0  0  0
  1  2  1  0
  2  3  1  0
  3  4  1  0
  4  5  1  0
  5  6  1  0
  6  7  1  0
  7  8  1  0
  8  9  1  0
  9  3  1  0
  9  7  1  0
  1 10  1  0
  1 11  1  0
  1 12  1  0
  3 13  1  0
  4 14  1  0
  4 15  1  0
  5 16  1  0
  5 17  1  0
  6 18  1  0
  6 19  1  0
  7 20  1  0
  8 21  1  0
  8 22  1  0
  9 23  1  0
M  END
