
     RDKit          3D

 19 20  0  0  0  0  0  0  0  0999 V2000
    2.6427   -0.9118   -0.1434 C   0  0  0  0  0  0  0  0  0  0  0  0
    1.6125   -0.3490    0.6052 O   0  0  0  0  0  0  0  0  0  0  0  0
    0.4912   -0.0330   -0.1607 C   0  0  0  0  0  0  0  0  0  0  0  0
   -0.6308   -0.9172    0.3236 C   0  0  0  0  0  0  0  0  0  0  0  0
   -1.8216   -0.1878    0.8385 C   0  0  0  0  0  0  0  0  0  0  0  0
   -2.1712    0.9588    0.2786 C   0  0  0  0  0  0  0  0  0  0  0  0
   -1.3070    1.3671   -0.8080 C   0  0  0  0  0  0  0  0  0  0  0  0
   -0.3572    2.2601   -0.9352 O   0  0  0  0  0  0  0  0  0  0  0  0
    0.0634    1.3590   -0.0729 C   0  0  0  0  0  0  0  0  0  0  0  0
    3.4677   -1.1163    0.5685 H   0  0  0  0  0  0  0  0  0  0  0  0
    2.2789   -1.9001   -0.4888 H   0  0  0  0  0  0  0  0  0  0  0  0
    3.0064   -0.2699   -0.9491 H   0  0  0  0  0  0  0  0  0  0  0  0
    0.7574   -0.3384   -1.2064 H   0  0  0  0  0  0  0  0  0  0  0  0
   -1.0154   -1.5381   -0.5336 H   0  0  0  0  0  0  0  0  0  0  0  0
   -0.2896   -1.6634    1.0689 H   0  0  0  0  0  0  0  0  0  0  0  0
   -2.3936   -0.6185    1.6815 H   0  0  0  0  0  0  0  0  0  0  0  0
   -3.0177    1.4910    0.6329 H   0  0  0  0  0  0  0  0  0  0  0  0
   -1.3911    0.6578   -1.6861 H   0  0  0  0  0  0  0  0  0  0  0  0
    0.0749    1.7497    0.9866 H   0  0  0  0  0  0  0  0  0  0  0  0
  1  2  1  0
  2  3  1  0
  3  4  1  0
  4  5  1  0
  5  6  2  0
  6  7  1  0
  7  8  1  0
  8  9  1  0
  9  3  1  0
  9  7  1  0
  1 10  1  0
  1 11  1  0
  1 12  1  0
  3 13  1  0
  4 14  1  0
  4 15  1  0
  5 16  1  0
  6 17  1  0
  7 18  1  0
  9 19  1  0
M  END
