
     RDKit          3D

 16 16  0  0  0  0  0  0  0  0999 V2000
    1.9620   -0.9081    0.3982 C   0  0  0  0  0  0  0  0  0  0  0  0
    0.7396   -0.3507    0.6419 O   0  0  0  0  0  0  0  0  0  0  0  0
   -0.0912   -0.2523   -0.4414 C   0  0  0  0  0  0  0  0  0  0  0  0
   -1.5059   -0.6927   -0.0338 C   0  0  0  0  0  0  0  0  0  0  0  0
   -1.6049    0.6257    0.6318 C   0  0  0  0  0  0  0  0  0  0  0  0
   -2.1455    1.0646    1.6113 O   0  0  0  0  0  0  0  0  0  0  0  0
   -0.7427    1.1406   -0.4533 C   0  0  0  0  0  0  0  0  0  0  0  0
    0.1410    2.1460   -0.0996 O   0  0  0  0  0  0  0  0  0  0  0  0
    2.4868   -0.2830   -0.3593 H   0  0  0  0  0  0  0  0  0  0  0  0
    1.8792   -1.9539    0.0705 H   0  0  0  0  0  0  0  0  0  0  0  0
    2.5666   -0.8279    1.3325 H   0  0  0  0  0  0  0  0  0  0  0  0
    0.2441   -0.6062   -1.4032 H   0  0  0  0  0  0  0  0  0  0  0  0
   -1.5148   -1.5693    0.6124 H   0  0  0  0  0  0  0  0  0  0  0  0
   -2.1866   -0.7127   -0.9106 H   0  0  0  0  0  0  0  0  0  0  0  0
   -1.3124    1.3125   -1.3917 H   0  0  0  0  0  0  0  0  0  0  0  0
    1.0849    1.8674   -0.2057 H   0  0  0  0  0  0  0  0  0  0  0  0
  1  2  1  0
  2  3  1  0
  3  4  1  0
  4  5  1  0
  5  6  2  0
  5  7  1  0
  7  8  1  0
  7  3  1  0
  1  9  1  0
  1 10  1  0
  1 11  1  0
  3 12  1  0
  4 13  1  0
  4 14  1  0
  7 15  1  0
  8 16  1  0
M  END
