
     RDKit          3D

 21 21  0  0  0  0  0  0  0  0999 V2000
    2.2353    1.2419    0.1241 C   0  0  0  0  0  0  0  0  0  0  0  0
    1.2655    0.6145   -0.6533 O   0  0  0  0  0  0  0  0  0  0  0  0
    0.7525   -0.4315    0.0668 C   0  0  0  0  0  0  0  0  0  0  0  0
    0.7215   -1.6909   -0.7688 C   0  0  0  0  0  0  0  0  0  0  0  0
   -0.5850   -1.9025   -0.2776 O   0  0  0  0  0  0  0  0  0  0  0  0
   -0.7442   -0.5580    0.1093 C   0  0  0  0  0  0  0  0  0  0  0  0
   -1.3902   -0.3632    1.4484 C   0  0  0  0  0  0  0  0  0  0  0  0
   -1.4382    0.2896   -0.9481 C   0  0  0  0  0  0  0  0  0  0  0  0
   -1.5216    1.5783   -0.4257 O   0  0  0  0  0  0  0  0  0  0  0  0
    2.6957    2.1117   -0.4130 H   0  0  0  0  0  0  0  0  0  0  0  0
    3.0082    0.4942    0.4025 H   0  0  0  0  0  0  0  0  0  0  0  0
    1.7871    1.6764    1.0526 H   0  0  0  0  0  0  0  0  0  0  0  0
    1.2072   -0.5346    1.0604 H   0  0  0  0  0  0  0  0  0  0  0  0
    1.4599   -2.4389   -0.4386 H   0  0  0  0  0  0  0  0  0  0  0  0
    0.6993   -1.4736   -1.8615 H   0  0  0  0  0  0  0  0  0  0  0  0
   -0.8299    0.3647    2.0989 H   0  0  0  0  0  0  0  0  0  0  0  0
   -1.4783   -1.3056    2.0305 H   0  0  0  0  0  0  0  0  0  0  0  0
   -2.4185    0.0626    1.3670 H   0  0  0  0  0  0  0  0  0  0  0  0
   -2.4459   -0.1735   -1.0864 H   0  0  0  0  0  0  0  0  0  0  0  0
   -0.8808    0.2662   -1.9179 H   0  0  0  0  0  0  0  0  0  0  0  0
   -2.0997    2.1724   -0.9695 H   0  0  0  0  0  0  0  0  0  0  0  0
  1  2  1  0
  2  3  1  0
  3  4  1  0
  4  5  1  0
  5  6  1  0
  6  7  1  0
  6  8  1  0
  8  9  1  0
  6  3  1  0
  1 10  1  0
  1 11  1  0
  1 12  1  0
  3 13  1  0
  4 14  1  0
  4 15  1  0
  7 16  1  0
  7 17  1  0
  7 18  1  0
  8 19  1  0
  8 20  1  0
  9 21  1  0
M  END
