
     RDKit          3D

 19 20  0  0  0  0  0  0  0  0999 V2000
    3.0023   -0.4092   -0.1906 C   0  0  0  0  0  0  0  0  0  0  0  0
    1.7175   -0.9000   -0.0636 O   0  0  0  0  0  0  0  0  0  0  0  0
    0.7770    0.1173   -0.2279 C   0  0  0  0  0  0  0  0  0  0  0  0
   -0.4347   -0.0466   -0.9799 C   0  0  0  0  0  0  0  0  0  0  0  0
   -1.8434    0.3879   -0.6689 C   0  0  0  0  0  0  0  0  0  0  0  0
   -1.6673   -0.7229    0.3917 C   0  0  0  0  0  0  0  0  0  0  0  0
   -2.5984   -0.5652    1.3759 O   0  0  0  0  0  0  0  0  0  0  0  0
   -0.3707    0.0475    0.6038 C   0  0  0  0  0  0  0  0  0  0  0  0
   -0.7465    1.3019    1.1458 O   0  0  0  0  0  0  0  0  0  0  0  0
    3.1885    0.3798    0.5897 H   0  0  0  0  0  0  0  0  0  0  0  0
    3.0989    0.0041   -1.2203 H   0  0  0  0  0  0  0  0  0  0  0  0
    3.7275   -1.2290   -0.0256 H   0  0  0  0  0  0  0  0  0  0  0  0
    1.3002    1.1029   -0.4257 H   0  0  0  0  0  0  0  0  0  0  0  0
   -0.5167   -1.1186   -1.3569 H   0  0  0  0  0  0  0  0  0  0  0  0
   -2.0061    1.3844   -0.2830 H   0  0  0  0  0  0  0  0  0  0  0  0
   -2.5550    0.1280   -1.4607 H   0  0  0  0  0  0  0  0  0  0  0  0
   -1.5663   -1.6965   -0.0879 H   0  0  0  0  0  0  0  0  0  0  0  0
   -2.1616   -0.2206    2.1926 H   0  0  0  0  0  0  0  0  0  0  0  0
   -0.3453    2.0547    0.6917 H   0  0  0  0  0  0  0  0  0  0  0  0
  1  2  1  0
  2  3  1  0
  3  4  1  0
  4  5  1  0
  5  6  1  0
  6  7  1  0
  6  8  1  0
  8  9  1  0
  8  3  1  0
  8  4  1  0
  1 10  1  0
  1 11  1  0
  1 12  1  0
  3 13  1  0
  4 14  1  0
  5 15  1  0
  5 16  1  0
  6 17  1  0
  7 18  1  0
  9 19  1  0
M  END
