
     RDKit          3D

 19 21  0  0  0  0  0  0  0  0999 V2000
    2.7896   -0.0924    0.0763 C   0  0  0  0  0  0  0  0  0  0  0  0
    1.6192   -0.7799    0.4023 O   0  0  0  0  0  0  0  0  0  0  0  0
    0.5271   -0.0944   -0.0632 C   0  0  0  0  0  0  0  0  0  0  0  0
   -0.5984    0.0725    0.9455 C   0  0  0  0  0  0  0  0  0  0  0  0
   -1.3977    1.3049    0.5491 C   0  0  0  0  0  0  0  0  0  0  0  0
   -2.0457    1.0264   -0.6162 O   0  0  0  0  0  0  0  0  0  0  0  0
   -1.8369   -0.2780   -0.9842 C   0  0  0  0  0  0  0  0  0  0  0  0
   -1.3429   -0.9920    0.2116 C   0  0  0  0  0  0  0  0  0  0  0  0
   -0.4420   -0.8695   -0.9157 C   0  0  0  0  0  0  0  0  0  0  0  0
    2.8823    0.0181   -1.0219 H   0  0  0  0  0  0  0  0  0  0  0  0
    3.6918   -0.6062    0.4614 H   0  0  0  0  0  0  0  0  0  0  0  0
    2.7799    0.9475    0.4962 H   0  0  0  0  0  0  0  0  0  0  0  0
    0.8074    0.8455   -0.5909 H   0  0  0  0  0  0  0  0  0  0  0  0
   -0.3614   -0.0567    1.9854 H   0  0  0  0  0  0  0  0  0  0  0  0
   -0.6238    2.0958    0.3302 H   0  0  0  0  0  0  0  0  0  0  0  0
   -2.0097    1.6879    1.3659 H   0  0  0  0  0  0  0  0  0  0  0  0
   -2.5515   -0.7148   -1.6868 H   0  0  0  0  0  0  0  0  0  0  0  0
   -1.7633   -1.8670    0.6501 H   0  0  0  0  0  0  0  0  0  0  0  0
   -0.1241   -1.6478   -1.5951 H   0  0  0  0  0  0  0  0  0  0  0  0
  1  2  1  0
  2  3  1  0
  3  4  1  0
  4  5  1  0
  5  6  1  0
  6  7  1  0
  7  8  1  0
  8  9  1  0
  9  3  1  0
  8  4  1  0
  9  7  1  0
  1 10  1  0
  1 11  1  0
  1 12  1  0
  3 13  1  0
  4 14  1  0
  5 15  1  0
  5 16  1  0
  7 17  1  0
  8 18  1  0
  9 19  1  0
M  END
