
     RDKit          3D

 21 21  0  0  0  0  0  0  0  0999 V2000
    2.5040    1.1281    0.3525 C   0  0  0  0  0  0  0  0  0  0  0  0
    1.3173    0.7962   -0.3067 O   0  0  0  0  0  0  0  0  0  0  0  0
    0.7102   -0.1981    0.4354 C   0  0  0  0  0  0  0  0  0  0  0  0
    0.3675   -1.3719   -0.4428 C   0  0  0  0  0  0  0  0  0  0  0  0
   -1.0299   -1.3428    0.1629 C   0  0  0  0  0  0  0  0  0  0  0  0
   -1.1336   -2.3066    1.1704 O   0  0  0  0  0  0  0  0  0  0  0  0
   -0.7509    0.0314    0.7559 C   0  0  0  0  0  0  0  0  0  0  0  0
   -1.3059    1.1790   -0.0605 C   0  0  0  0  0  0  0  0  0  0  0  0
   -2.6502    1.3934    0.2315 O   0  0  0  0  0  0  0  0  0  0  0  0
    3.1518    0.2300    0.4137 H   0  0  0  0  0  0  0  0  0  0  0  0
    3.0020    1.9986   -0.1053 H   0  0  0  0  0  0  0  0  0  0  0  0
    2.1898    1.4718    1.3795 H   0  0  0  0  0  0  0  0  0  0  0  0
    1.2513   -0.5142    1.3477 H   0  0  0  0  0  0  0  0  0  0  0  0
    0.3745   -1.1738   -1.5240 H   0  0  0  0  0  0  0  0  0  0  0  0
    0.9421   -2.2775   -0.1838 H   0  0  0  0  0  0  0  0  0  0  0  0
   -1.8113   -1.3762   -0.6008 H   0  0  0  0  0  0  0  0  0  0  0  0
   -1.3585   -3.1810    0.8142 H   0  0  0  0  0  0  0  0  0  0  0  0
   -0.9657    0.1352    1.8266 H   0  0  0  0  0  0  0  0  0  0  0  0
   -0.7316    2.1087    0.0743 H   0  0  0  0  0  0  0  0  0  0  0  0
   -1.2621    0.9192   -1.1554 H   0  0  0  0  0  0  0  0  0  0  0  0
   -2.8108    2.3504    0.2109 H   0  0  0  0  0  0  0  0  0  0  0  0
  1  2  1  0
  2  3  1  0
  3  4  1  0
  4  5  1  0
  5  6  1  0
  5  7  1  0
  7  8  1  0
  8  9  1  0
  7  3  1  0
  1 10  1  0
  1 11  1  0
  1 12  1  0
  3 13  1  0
  4 14  1  0
  4 15  1  0
  5 16  1  0
  6 17  1  0
  7 18  1  0
  8 19  1  0
  8 20  1  0
  9 21  1  0
M  END
