
     RDKit          3D

 23 23  0  0  0  0  0  0  0  0999 V2000
    2.3594   -1.1981    0.5131 C   0  0  0  0  0  0  0  0  0  0  0  0
    1.3285   -1.0381   -0.4018 O   0  0  0  0  0  0  0  0  0  0  0  0
    0.7645    0.2325   -0.2058 C   0  0  0  0  0  0  0  0  0  0  0  0
    0.7304    0.9907   -1.4659 C   0  0  0  0  0  0  0  0  0  0  0  0
   -0.4552    1.5143   -1.6673 C   0  0  0  0  0  0  0  0  0  0  0  0
   -1.4161    1.1978   -0.5803 C   0  0  0  0  0  0  0  0  0  0  0  0
   -0.6992    0.0917    0.1546 C   0  0  0  0  0  0  0  0  0  0  0  0
   -1.1635   -1.2805   -0.2510 C   0  0  0  0  0  0  0  0  0  0  0  0
   -0.8740    0.2739    1.6331 C   0  0  0  0  0  0  0  0  0  0  0  0
    2.8083   -2.2142    0.3544 H   0  0  0  0  0  0  0  0  0  0  0  0
    3.1480   -0.4173    0.3970 H   0  0  0  0  0  0  0  0  0  0  0  0
    1.9266   -1.1924    1.5419 H   0  0  0  0  0  0  0  0  0  0  0  0
    1.2815    0.7690    0.6162 H   0  0  0  0  0  0  0  0  0  0  0  0
    1.5823    1.1006   -2.1415 H   0  0  0  0  0  0  0  0  0  0  0  0
   -0.7184    2.1219   -2.5412 H   0  0  0  0  0  0  0  0  0  0  0  0
   -1.5724    2.0915    0.0510 H   0  0  0  0  0  0  0  0  0  0  0  0
   -2.3995    0.9005   -0.9702 H   0  0  0  0  0  0  0  0  0  0  0  0
   -2.2000   -1.2960   -0.6449 H   0  0  0  0  0  0  0  0  0  0  0  0
   -0.5126   -1.6922   -1.0585 H   0  0  0  0  0  0  0  0  0  0  0  0
   -1.0298   -1.9428    0.6292 H   0  0  0  0  0  0  0  0  0  0  0  0
   -1.8050    0.8579    1.8154 H   0  0  0  0  0  0  0  0  0  0  0  0
   -0.0402    0.8425    2.0886 H   0  0  0  0  0  0  0  0  0  0  0  0
   -1.0437   -0.7133    2.1339 H   0  0  0  0  0  0  0  0  0  0  0  0
  1  2  1  0
  2  3  1  0
  3  4  1  0
  4  5  2  0
  5  6  1  0
  6  7  1  0
  7  8  1  0
  7  9  1  0
  7  3  1  0
  1 10  1  0
  1 11  1  0
  1 12  1  0
  3 13  1  0
  4 14  1  0
  5 15  1  0
  6 16  1  0
  6 17  1  0
  8 18  1  0
  8 19  1  0
  8 20  1  0
  9 21  1  0
  9 22  1  0
  9 23  1  0
M  END
