
     RDKit          3D

 23 23  0  0  0  0  0  0  0  0999 V2000
   -2.3259    0.6253   -1.1617 C   0  0  0  0  0  0  0  0  0  0  0  0
   -2.1251    0.2993    0.1555 O   0  0  0  0  0  0  0  0  0  0  0  0
   -0.8424   -0.0385    0.4777 C   0  0  0  0  0  0  0  0  0  0  0  0
   -0.8099   -0.3677    1.9735 C   0  0  0  0  0  0  0  0  0  0  0  0
    0.1793    0.9460    0.1133 C   0  0  0  0  0  0  0  0  0  0  0  0
    1.3300    0.3481   -0.1730 C   0  0  0  0  0  0  0  0  0  0  0  0
    2.6279    0.9522   -0.5889 C   0  0  0  0  0  0  0  0  0  0  0  0
    1.1579   -1.1446   -0.0151 C   0  0  0  0  0  0  0  0  0  0  0  0
   -0.3470   -1.2907   -0.2289 C   0  0  0  0  0  0  0  0  0  0  0  0
   -1.7050    1.4975   -1.4684 H   0  0  0  0  0  0  0  0  0  0  0  0
   -3.3912    0.9853   -1.2478 H   0  0  0  0  0  0  0  0  0  0  0  0
   -2.1468   -0.1860   -1.8782 H   0  0  0  0  0  0  0  0  0  0  0  0
   -1.3058    0.4509    2.5393 H   0  0  0  0  0  0  0  0  0  0  0  0
    0.2213   -0.4519    2.3376 H   0  0  0  0  0  0  0  0  0  0  0  0
   -1.3821   -1.3143    2.0777 H   0  0  0  0  0  0  0  0  0  0  0  0
    0.0283    2.0153    0.0788 H   0  0  0  0  0  0  0  0  0  0  0  0
    3.2158    0.2321   -1.2070 H   0  0  0  0  0  0  0  0  0  0  0  0
    3.2564    1.2340    0.2618 H   0  0  0  0  0  0  0  0  0  0  0  0
    2.4422    1.8363   -1.2388 H   0  0  0  0  0  0  0  0  0  0  0  0
    1.7168   -1.6982   -0.7785 H   0  0  0  0  0  0  0  0  0  0  0  0
    1.4724   -1.4906    0.9745 H   0  0  0  0  0  0  0  0  0  0  0  0
   -0.7418   -2.1580    0.2991 H   0  0  0  0  0  0  0  0  0  0  0  0
   -0.5254   -1.2816   -1.3025 H   0  0  0  0  0  0  0  0  0  0  0  0
  1  2  1  0
  2  3  1  0
  3  4  1  0
  3  5  1  0
  5  6  2  0
  6  7  1  0
  6  8  1  0
  8  9  1  0
  9  3  1  0
  1 10  1  0
  1 11  1  0
  1 12  1  0
  4 13  1  0
  4 14  1  0
  4 15  1  0
  5 16  1  0
  7 17  1  0
  7 18  1  0
  7 19  1  0
  8 20  1  0
  8 21  1  0
  9 22  1  0
  9 23  1  0
M  END
