
     RDKit          3D

 21 21  0  0  0  0  0  0  0  0999 V2000
    2.5625    0.2718   -0.1297 C   0  0  0  0  0  0  0  0  0  0  0  0
    1.4849   -0.0395    0.7007 O   0  0  0  0  0  0  0  0  0  0  0  0
    0.2905    0.0182    0.0316 C   0  0  0  0  0  0  0  0  0  0  0  0
   -0.6437   -1.1729    0.2963 C   0  0  0  0  0  0  0  0  0  0  0  0
   -0.5414   -2.2490   -0.7399 C   0  0  0  0  0  0  0  0  0  0  0  0
   -1.7461   -0.1905    0.1015 C   0  0  0  0  0  0  0  0  0  0  0  0
   -2.8511   -0.2412   -0.3730 O   0  0  0  0  0  0  0  0  0  0  0  0
   -0.8241    0.7836    0.7485 C   0  0  0  0  0  0  0  0  0  0  0  0
   -0.9742    2.2044    0.3629 C   0  0  0  0  0  0  0  0  0  0  0  0
    2.5050    1.2783   -0.5618 H   0  0  0  0  0  0  0  0  0  0  0  0
    2.6762   -0.4641   -0.9635 H   0  0  0  0  0  0  0  0  0  0  0  0
    3.4763    0.1962    0.4953 H   0  0  0  0  0  0  0  0  0  0  0  0
    0.3280    0.2923   -1.0362 H   0  0  0  0  0  0  0  0  0  0  0  0
   -0.5239   -1.4768    1.3414 H   0  0  0  0  0  0  0  0  0  0  0  0
   -1.1395   -2.0656   -1.6356 H   0  0  0  0  0  0  0  0  0  0  0  0
   -0.7507   -3.2544   -0.2835 H   0  0  0  0  0  0  0  0  0  0  0  0
    0.5279   -2.3232   -1.0925 H   0  0  0  0  0  0  0  0  0  0  0  0
   -0.8332    0.6228    1.8398 H   0  0  0  0  0  0  0  0  0  0  0  0
   -0.3731    2.4507   -0.5230 H   0  0  0  0  0  0  0  0  0  0  0  0
   -2.0500    2.5023    0.2190 H   0  0  0  0  0  0  0  0  0  0  0  0
   -0.6002    2.8566    1.2018 H   0  0  0  0  0  0  0  0  0  0  0  0
  1  2  1  0
  2  3  1  0
  3  4  1  0
  4  5  1  0
  4  6  1  0
  6  7  2  0
  6  8  1  0
  8  9  1  0
  8  3  1  0
  1 10  1  0
  1 11  1  0
  1 12  1  0
  3 13  1  0
  4 14  1  0
  5 15  1  0
  5 16  1  0
  5 17  1  0
  8 18  1  0
  9 19  1  0
  9 20  1  0
  9 21  1  0
M  END
