
     RDKit          3D

 21 22  0  0  0  0  0  0  0  0999 V2000
    2.9275   -0.3840   -0.3031 C   0  0  0  0  0  0  0  0  0  0  0  0
    1.6319   -0.5154   -0.8003 O   0  0  0  0  0  0  0  0  0  0  0  0
    0.6911   -0.0037    0.1230 C   0  0  0  0  0  0  0  0  0  0  0  0
   -0.2295   -1.0877    0.5748 C   0  0  0  0  0  0  0  0  0  0  0  0
   -1.5152   -0.4733    1.0380 C   0  0  0  0  0  0  0  0  0  0  0  0
   -2.2130    0.1558   -0.1738 C   0  0  0  0  0  0  0  0  0  0  0  0
   -1.3168    1.1726   -0.8054 C   0  0  0  0  0  0  0  0  0  0  0  0
   -0.4918    0.8023   -1.8433 O   0  0  0  0  0  0  0  0  0  0  0  0
    0.0448    1.1685   -0.5053 C   0  0  0  0  0  0  0  0  0  0  0  0
    3.6144   -0.7974   -1.0612 H   0  0  0  0  0  0  0  0  0  0  0  0
    3.0406   -0.9465    0.6554 H   0  0  0  0  0  0  0  0  0  0  0  0
    3.2020    0.6725   -0.1044 H   0  0  0  0  0  0  0  0  0  0  0  0
    1.2761    0.3711    1.0148 H   0  0  0  0  0  0  0  0  0  0  0  0
    0.1916   -1.6650    1.4228 H   0  0  0  0  0  0  0  0  0  0  0  0
   -0.4464   -1.8003   -0.2354 H   0  0  0  0  0  0  0  0  0  0  0  0
   -2.2293   -1.1824    1.4747 H   0  0  0  0  0  0  0  0  0  0  0  0
   -1.3526    0.3639    1.7527 H   0  0  0  0  0  0  0  0  0  0  0  0
   -3.1555    0.5973    0.2282 H   0  0  0  0  0  0  0  0  0  0  0  0
   -2.5146   -0.6617   -0.8418 H   0  0  0  0  0  0  0  0  0  0  0  0
   -1.8357    2.1592   -0.9756 H   0  0  0  0  0  0  0  0  0  0  0  0
    0.6805    2.0542   -0.6348 H   0  0  0  0  0  0  0  0  0  0  0  0
  1  2  1  0
  2  3  1  0
  3  4  1  0
  4  5  1  0
  5  6  1  0
  6  7  1  0
  7  8  1  0
  8  9  1  0
  9  3  1  0
  9  7  1  0
  1 10  1  0
  1 11  1  0
  1 12  1  0
  3 13  1  0
  4 14  1  0
  4 15  1  0
  5 16  1  0
  5 17  1  0
  6 18  1  0
  6 19  1  0
  7 20  1  0
  9 21  1  0
M  END
