
     RDKit          3D

 21 22  0  0  0  0  0  0  0  0999 V2000
   -2.5838   -1.0195    0.1918 C   0  0  0  0  0  0  0  0  0  0  0  0
   -1.3002   -1.0817    0.6057 O   0  0  0  0  0  0  0  0  0  0  0  0
   -0.4626   -0.0635    0.2799 C   0  0  0  0  0  0  0  0  0  0  0  0
    0.9565   -0.2501    0.7981 C   0  0  0  0  0  0  0  0  0  0  0  0
    1.9961    0.7692    0.5346 C   0  0  0  0  0  0  0  0  0  0  0  0
    2.0469   -0.6067   -0.1361 C   0  0  0  0  0  0  0  0  0  0  0  0
    3.0744   -1.4071    0.2990 O   0  0  0  0  0  0  0  0  0  0  0  0
   -1.0167    1.3382    0.5889 C   0  0  0  0  0  0  0  0  0  0  0  0
   -0.7103    0.9109   -0.7947 C   0  0  0  0  0  0  0  0  0  0  0  0
   -3.2008   -0.1874    0.5179 H   0  0  0  0  0  0  0  0  0  0  0  0
   -3.1003   -1.9546    0.5564 H   0  0  0  0  0  0  0  0  0  0  0  0
   -2.6383   -1.1084   -0.9287 H   0  0  0  0  0  0  0  0  0  0  0  0
    1.0226   -0.7429    1.8001 H   0  0  0  0  0  0  0  0  0  0  0  0
    1.9050    1.5824   -0.1770 H   0  0  0  0  0  0  0  0  0  0  0  0
    2.7525    0.9798    1.3350 H   0  0  0  0  0  0  0  0  0  0  0  0
    1.8118   -0.6810   -1.2086 H   0  0  0  0  0  0  0  0  0  0  0  0
    3.2170   -2.2162   -0.2172 H   0  0  0  0  0  0  0  0  0  0  0  0
   -2.0625    1.4595    0.8588 H   0  0  0  0  0  0  0  0  0  0  0  0
   -0.3478    2.0753    1.0741 H   0  0  0  0  0  0  0  0  0  0  0  0
    0.1916    1.3690   -1.2492 H   0  0  0  0  0  0  0  0  0  0  0  0
   -1.5513    0.8348   -1.4929 H   0  0  0  0  0  0  0  0  0  0  0  0
  1  2  1  0
  2  3  1  0
  3  4  1  0
  4  5  1  0
  5  6  1  0
  6  7  1  0
  3  8  1  0
  8  9  1  0
  9  3  1  0
  6  4  1  0
  1 10  1  0
  1 11  1  0
  1 12  1  0
  4 13  1  0
  5 14  1  0
  5 15  1  0
  6 16  1  0
  7 17  1  0
  8 18  1  0
  8 19  1  0
  9 20  1  0
  9 21  1  0
M  END
