
     RDKit          3D

 19 19  0  0  0  0  0  0  0  0999 V2000
    1.9444   -0.9971    0.2869 C   0  0  0  0  0  0  0  0  0  0  0  0
    0.7284   -0.6387    0.8030 O   0  0  0  0  0  0  0  0  0  0  0  0
    0.1066    0.4267    0.2323 C   0  0  0  0  0  0  0  0  0  0  0  0
    0.8176    1.7002    0.3073 C   0  0  0  0  0  0  0  0  0  0  0  0
    1.8691    1.8067    0.8550 O   0  0  0  0  0  0  0  0  0  0  0  0
   -1.2914    0.5158    0.8751 C   0  0  0  0  0  0  0  0  0  0  0  0
   -1.9163   -0.7108    0.3107 C   0  0  0  0  0  0  0  0  0  0  0  0
   -1.3676   -0.9365   -0.8765 C   0  0  0  0  0  0  0  0  0  0  0  0
   -0.3538    0.1019   -1.1893 C   0  0  0  0  0  0  0  0  0  0  0  0
    2.7406   -0.2465    0.3262 H   0  0  0  0  0  0  0  0  0  0  0  0
    2.3024   -1.9683    0.7353 H   0  0  0  0  0  0  0  0  0  0  0  0
    1.8344   -1.2531   -0.8057 H   0  0  0  0  0  0  0  0  0  0  0  0
    0.3808    2.5829   -0.1480 H   0  0  0  0  0  0  0  0  0  0  0  0
   -1.2345    0.5155    1.9679 H   0  0  0  0  0  0  0  0  0  0  0  0
   -1.7765    1.3760    0.4198 H   0  0  0  0  0  0  0  0  0  0  0  0
   -2.6907   -1.3048    0.8073 H   0  0  0  0  0  0  0  0  0  0  0  0
   -1.6218   -1.7582   -1.5235 H   0  0  0  0  0  0  0  0  0  0  0  0
    0.4390   -0.2092   -1.8528 H   0  0  0  0  0  0  0  0  0  0  0  0
   -0.9108    0.9976   -1.5309 H   0  0  0  0  0  0  0  0  0  0  0  0
  1  2  1  0
  2  3  1  0
  3  4  1  0
  4  5  2  0
  3  6  1  0
  6  7  1  0
  7  8  2  0
  8  9  1  0
  9  3  1  0
  1 10  1  0
  1 11  1  0
  1 12  1  0
  4 13  1  0
  6 14  1  0
  6 15  1  0
  7 16  1  0
  8 17  1  0
  9 18  1  0
  9 19  1  0
M  END
