
     RDKit          3D

 23 23  0  0  0  0  0  0  0  0999 V2000
    2.9061   -0.7206   -0.2981 C   0  0  0  0  0  0  0  0  0  0  0  0
    1.7289   -0.1905   -0.8649 O   0  0  0  0  0  0  0  0  0  0  0  0
    0.7522   -0.2570    0.0902 C   0  0  0  0  0  0  0  0  0  0  0  0
   -0.4502   -1.0832   -0.3305 C   0  0  0  0  0  0  0  0  0  0  0  0
   -1.4529   -0.6278    0.7406 C   0  0  0  0  0  0  0  0  0  0  0  0
   -2.8285   -0.9050    0.2134 C   0  0  0  0  0  0  0  0  0  0  0  0
   -1.1376    0.8325    0.7870 C   0  0  0  0  0  0  0  0  0  0  0  0
    0.1216    1.0399    0.4152 C   0  0  0  0  0  0  0  0  0  0  0  0
    0.7440    2.3942    0.3554 C   0  0  0  0  0  0  0  0  0  0  0  0
    2.6644   -1.7807   -0.0132 H   0  0  0  0  0  0  0  0  0  0  0  0
    3.1572   -0.2066    0.6597 H   0  0  0  0  0  0  0  0  0  0  0  0
    3.7307   -0.7077   -1.0143 H   0  0  0  0  0  0  0  0  0  0  0  0
    1.1015   -0.6967    1.0534 H   0  0  0  0  0  0  0  0  0  0  0  0
   -0.8658   -0.7179   -1.2995 H   0  0  0  0  0  0  0  0  0  0  0  0
   -0.2713   -2.1567   -0.3001 H   0  0  0  0  0  0  0  0  0  0  0  0
   -1.2227   -1.1450    1.6802 H   0  0  0  0  0  0  0  0  0  0  0  0
   -3.1820   -0.0027   -0.3276 H   0  0  0  0  0  0  0  0  0  0  0  0
   -3.5422   -1.2174    1.0031 H   0  0  0  0  0  0  0  0  0  0  0  0
   -2.7732   -1.7247   -0.5501 H   0  0  0  0  0  0  0  0  0  0  0  0
   -1.8504    1.5984    1.0850 H   0  0  0  0  0  0  0  0  0  0  0  0
    0.2294    3.0508   -0.3960 H   0  0  0  0  0  0  0  0  0  0  0  0
    0.6414    2.8891    1.3380 H   0  0  0  0  0  0  0  0  0  0  0  0
    1.7995    2.3353    0.0589 H   0  0  0  0  0  0  0  0  0  0  0  0
  1  2  1  0
  2  3  1  0
  3  4  1  0
  4  5  1  0
  5  6  1  0
  5  7  1  0
  7  8  2  0
  8  9  1  0
  8  3  1  0
  1 10  1  0
  1 11  1  0
  1 12  1  0
  3 13  1  0
  4 14  1  0
  4 15  1  0
  5 16  1  0
  6 17  1  0
  6 18  1  0
  6 19  1  0
  7 20  1  0
  9 21  1  0
  9 22  1  0
  9 23  1  0
M  END
