
     RDKit          3D

 21 21  0  0  0  0  0  0  0  0999 V2000
    2.7815    0.6637   -0.2118 C   0  0  0  0  0  0  0  0  0  0  0  0
    1.7188   -0.0912   -0.7038 O   0  0  0  0  0  0  0  0  0  0  0  0
    0.6162    0.1357    0.0808 C   0  0  0  0  0  0  0  0  0  0  0  0
    0.0412   -1.1948    0.5666 C   0  0  0  0  0  0  0  0  0  0  0  0
   -1.3288   -0.6411    0.2367 C   0  0  0  0  0  0  0  0  0  0  0  0
   -2.0334   -0.0252    1.4348 C   0  0  0  0  0  0  0  0  0  0  0  0
   -0.6712    0.4263   -0.6485 C   0  0  0  0  0  0  0  0  0  0  0  0
   -0.6926    0.1020   -2.0778 C   0  0  0  0  0  0  0  0  0  0  0  0
   -0.2275   -0.9285   -2.5306 O   0  0  0  0  0  0  0  0  0  0  0  0
    3.0249    0.3844    0.8461 H   0  0  0  0  0  0  0  0  0  0  0  0
    2.5069    1.7586   -0.1631 H   0  0  0  0  0  0  0  0  0  0  0  0
    3.6804    0.6160   -0.8398 H   0  0  0  0  0  0  0  0  0  0  0  0
    0.8100    0.8474    0.9064 H   0  0  0  0  0  0  0  0  0  0  0  0
    0.2660   -1.3382    1.6239 H   0  0  0  0  0  0  0  0  0  0  0  0
    0.3507   -2.0533   -0.0741 H   0  0  0  0  0  0  0  0  0  0  0  0
   -1.9664   -1.2944   -0.3678 H   0  0  0  0  0  0  0  0  0  0  0  0
   -2.4148    0.9763    1.1310 H   0  0  0  0  0  0  0  0  0  0  0  0
   -1.3674    0.0269    2.3254 H   0  0  0  0  0  0  0  0  0  0  0  0
   -2.9263   -0.6177    1.7207 H   0  0  0  0  0  0  0  0  0  0  0  0
   -1.0304    1.4567   -0.4481 H   0  0  0  0  0  0  0  0  0  0  0  0
   -1.1378    0.7905   -2.8071 H   0  0  0  0  0  0  0  0  0  0  0  0
  1  2  1  0
  2  3  1  0
  3  4  1  0
  4  5  1  0
  5  6  1  0
  5  7  1  0
  7  8  1  0
  8  9  2  0
  7  3  1  0
  1 10  1  0
  1 11  1  0
  1 12  1  0
  3 13  1  0
  4 14  1  0
  4 15  1  0
  5 16  1  0
  6 17  1  0
  6 18  1  0
  6 19  1  0
  7 20  1  0
  8 21  1  0
M  END
