
     RDKit          3D

 17 17  0  0  0  0  0  0  0  0999 V2000
    1.8934    0.7309    0.3862 C   0  0  0  0  0  0  0  0  0  0  0  0
    1.4396   -0.4145   -0.2259 O   0  0  0  0  0  0  0  0  0  0  0  0
    0.0635   -0.4257   -0.4070 C   0  0  0  0  0  0  0  0  0  0  0  0
   -0.3720   -1.7407   -1.0066 C   0  0  0  0  0  0  0  0  0  0  0  0
   -0.5579   -0.2834    0.9281 C   0  0  0  0  0  0  0  0  0  0  0  0
   -1.3378    0.7632    0.8993 C   0  0  0  0  0  0  0  0  0  0  0  0
   -1.2806    1.3610   -0.4231 C   0  0  0  0  0  0  0  0  0  0  0  0
   -1.9392    2.3957   -0.7435 O   0  0  0  0  0  0  0  0  0  0  0  0
   -0.4184    0.6094   -1.1875 O   0  0  0  0  0  0  0  0  0  0  0  0
    2.9994    0.6377    0.4824 H   0  0  0  0  0  0  0  0  0  0  0  0
    1.5090    0.8329    1.4369 H   0  0  0  0  0  0  0  0  0  0  0  0
    1.7063    1.6521   -0.2014 H   0  0  0  0  0  0  0  0  0  0  0  0
   -1.2887   -2.1184   -0.4792 H   0  0  0  0  0  0  0  0  0  0  0  0
   -0.6007   -1.6690   -2.0761 H   0  0  0  0  0  0  0  0  0  0  0  0
    0.4646   -2.4620   -0.8950 H   0  0  0  0  0  0  0  0  0  0  0  0
   -0.3548   -0.9666    1.7418 H   0  0  0  0  0  0  0  0  0  0  0  0
   -1.9256    1.0973    1.7705 H   0  0  0  0  0  0  0  0  0  0  0  0
  1  2  1  0
  2  3  1  0
  3  4  1  0
  3  5  1  0
  5  6  2  0
  6  7  1  0
  7  8  2  0
  7  9  1  0
  9  3  1  0
  1 10  1  0
  1 11  1  0
  1 12  1  0
  4 13  1  0
  4 14  1  0
  4 15  1  0
  5 16  1  0
  6 17  1  0
M  END
