
     RDKit          3D

 19 20  0  0  0  0  0  0  0  0999 V2000
   -2.7067   -0.9266   -0.7319 C   0  0  0  0  0  0  0  0  0  0  0  0
   -1.5617   -1.1053    0.0754 O   0  0  0  0  0  0  0  0  0  0  0  0
   -0.8592    0.0622    0.1907 C   0  0  0  0  0  0  0  0  0  0  0  0
   -0.3449    0.4322    1.6214 C   0  0  0  0  0  0  0  0  0  0  0  0
    0.5522    0.1581    0.5163 C   0  0  0  0  0  0  0  0  0  0  0  0
    1.4841    1.1766   -0.0845 C   0  0  0  0  0  0  0  0  0  0  0  0
    2.5465    0.0733   -0.0389 C   0  0  0  0  0  0  0  0  0  0  0  0
    1.5297   -0.9043    0.4390 C   0  0  0  0  0  0  0  0  0  0  0  0
    1.6115   -2.1003    0.6438 O   0  0  0  0  0  0  0  0  0  0  0  0
   -3.2731   -1.8739   -0.8231 H   0  0  0  0  0  0  0  0  0  0  0  0
   -3.4074   -0.1839   -0.2659 H   0  0  0  0  0  0  0  0  0  0  0  0
   -2.4274   -0.5011   -1.7158 H   0  0  0  0  0  0  0  0  0  0  0  0
   -1.3014    0.9357   -0.3606 H   0  0  0  0  0  0  0  0  0  0  0  0
   -0.4808    1.4932    1.9192 H   0  0  0  0  0  0  0  0  0  0  0  0
   -0.5378   -0.3631    2.3735 H   0  0  0  0  0  0  0  0  0  0  0  0
    1.6503    1.9995    0.6223 H   0  0  0  0  0  0  0  0  0  0  0  0
    1.2102    1.4642   -1.1244 H   0  0  0  0  0  0  0  0  0  0  0  0
    3.3740    0.2802    0.6645 H   0  0  0  0  0  0  0  0  0  0  0  0
    2.9418   -0.1167   -1.0572 H   0  0  0  0  0  0  0  0  0  0  0  0
  1  2  1  0
  2  3  1  0
  3  4  1  0
  4  5  1  0
  5  6  1  0
  6  7  1  0
  7  8  1  0
  8  9  2  0
  5  3  1  0
  8  5  1  0
  1 10  1  0
  1 11  1  0
  1 12  1  0
  3 13  1  0
  4 14  1  0
  4 15  1  0
  6 16  1  0
  6 17  1  0
  7 18  1  0
  7 19  1  0
M  END
