
     RDKit          3D

 19 21  0  0  0  0  0  0  0  0999 V2000
    2.6649   -0.1417   -0.0961 C   0  0  0  0  0  0  0  0  0  0  0  0
    1.5487   -0.5848   -0.7819 O   0  0  0  0  0  0  0  0  0  0  0  0
    0.3593   -0.2596   -0.2595 C   0  0  0  0  0  0  0  0  0  0  0  0
   -0.0960    1.1719   -0.0492 C   0  0  0  0  0  0  0  0  0  0  0  0
   -1.4839    0.8395    0.5217 C   0  0  0  0  0  0  0  0  0  0  0  0
   -1.9957   -0.0881   -0.5621 C   0  0  0  0  0  0  0  0  0  0  0  0
   -0.8262   -1.0741   -0.5556 C   0  0  0  0  0  0  0  0  0  0  0  0
   -0.3300   -0.9736    0.8308 C   0  0  0  0  0  0  0  0  0  0  0  0
   -1.1485   -0.0425    1.5160 O   0  0  0  0  0  0  0  0  0  0  0  0
    2.6872    0.9725   -0.0195 H   0  0  0  0  0  0  0  0  0  0  0  0
    2.6133   -0.5165    0.9594 H   0  0  0  0  0  0  0  0  0  0  0  0
    3.5887   -0.4419   -0.6079 H   0  0  0  0  0  0  0  0  0  0  0  0
   -0.1609    1.7484   -0.9695 H   0  0  0  0  0  0  0  0  0  0  0  0
    0.4436    1.6712    0.7792 H   0  0  0  0  0  0  0  0  0  0  0  0
   -2.0846    1.6773    0.7545 H   0  0  0  0  0  0  0  0  0  0  0  0
   -2.9014   -0.5814   -0.1650 H   0  0  0  0  0  0  0  0  0  0  0  0
   -2.1267    0.4001   -1.5280 H   0  0  0  0  0  0  0  0  0  0  0  0
   -0.8538   -1.9693   -1.1483 H   0  0  0  0  0  0  0  0  0  0  0  0
    0.1022   -1.8075    1.3810 H   0  0  0  0  0  0  0  0  0  0  0  0
  1  2  1  0
  2  3  1  0
  3  4  1  0
  4  5  1  0
  5  6  1  0
  6  7  1  0
  7  8  1  0
  8  9  1  0
  7  3  1  0
  8  3  1  0
  9  5  1  0
  1 10  1  0
  1 11  1  0
  1 12  1  0
  4 13  1  0
  4 14  1  0
  5 15  1  0
  6 16  1  0
  6 17  1  0
  7 18  1  0
  8 19  1  0
M  END
