
     RDKit          3D

 21 21  0  0  0  0  0  0  0  0999 V2000
    2.7032   -0.6100   -0.6455 C   0  0  0  0  0  0  0  0  0  0  0  0
    1.4156   -0.1553   -1.0135 O   0  0  0  0  0  0  0  0  0  0  0  0
    0.6665    0.1683    0.1015 C   0  0  0  0  0  0  0  0  0  0  0  0
   -0.3539    1.2561    0.0150 C   0  0  0  0  0  0  0  0  0  0  0  0
   -0.6800    2.1032    1.1654 C   0  0  0  0  0  0  0  0  0  0  0  0
   -0.9451    3.2832    1.0306 O   0  0  0  0  0  0  0  0  0  0  0  0
   -0.8106   -0.1378   -0.0052 C   0  0  0  0  0  0  0  0  0  0  0  0
   -1.3725   -0.8326    1.2002 C   0  0  0  0  0  0  0  0  0  0  0  0
   -1.2974   -0.7242   -1.3377 C   0  0  0  0  0  0  0  0  0  0  0  0
    2.6596   -1.5038   -0.0112 H   0  0  0  0  0  0  0  0  0  0  0  0
    3.1589    0.2685   -0.1023 H   0  0  0  0  0  0  0  0  0  0  0  0
    3.2682   -0.8400   -1.5545 H   0  0  0  0  0  0  0  0  0  0  0  0
    1.1811    0.0231    1.0686 H   0  0  0  0  0  0  0  0  0  0  0  0
   -0.3675    1.7751   -0.9879 H   0  0  0  0  0  0  0  0  0  0  0  0
   -0.6852    1.6693    2.1579 H   0  0  0  0  0  0  0  0  0  0  0  0
   -0.8854   -1.8517    1.2321 H   0  0  0  0  0  0  0  0  0  0  0  0
   -1.0670   -0.3341    2.1387 H   0  0  0  0  0  0  0  0  0  0  0  0
   -2.4526   -1.0321    1.1272 H   0  0  0  0  0  0  0  0  0  0  0  0
   -1.0258   -0.0059   -2.1248 H   0  0  0  0  0  0  0  0  0  0  0  0
   -2.3815   -0.8622   -1.2581 H   0  0  0  0  0  0  0  0  0  0  0  0
   -0.7286   -1.6569   -1.5032 H   0  0  0  0  0  0  0  0  0  0  0  0
  1  2  1  0
  2  3  1  0
  3  4  1  0
  4  5  1  0
  5  6  2  0
  4  7  1  0
  7  8  1  0
  7  9  1  0
  7  3  1  0
  1 10  1  0
  1 11  1  0
  1 12  1  0
  3 13  1  0
  4 14  1  0
  5 15  1  0
  8 16  1  0
  8 17  1  0
  8 18  1  0
  9 19  1  0
  9 20  1  0
  9 21  1  0
M  END
