
     RDKit          3D

 19 19  0  0  0  0  0  0  0  0999 V2000
    2.6913    0.5817    0.0806 C   0  0  0  0  0  0  0  0  0  0  0  0
    1.4756    0.2461    0.6233 O   0  0  0  0  0  0  0  0  0  0  0  0
    0.4744    0.0489   -0.2893 C   0  0  0  0  0  0  0  0  0  0  0  0
   -0.6550    0.9845    0.0142 C   0  0  0  0  0  0  0  0  0  0  0  0
   -1.9213    0.2736    0.4365 C   0  0  0  0  0  0  0  0  0  0  0  0
   -2.2541   -0.8313   -0.5184 C   0  0  0  0  0  0  0  0  0  0  0  0
   -3.4129   -1.0433   -0.9407 O   0  0  0  0  0  0  0  0  0  0  0  0
   -1.1778   -1.6233   -0.9157 O   0  0  0  0  0  0  0  0  0  0  0  0
    0.0328   -1.4096   -0.1716 C   0  0  0  0  0  0  0  0  0  0  0  0
    2.6936    1.5069   -0.5096 H   0  0  0  0  0  0  0  0  0  0  0  0
    3.1659   -0.2616   -0.4968 H   0  0  0  0  0  0  0  0  0  0  0  0
    3.3939    0.7539    0.9443 H   0  0  0  0  0  0  0  0  0  0  0  0
    0.7792    0.1866   -1.3451 H   0  0  0  0  0  0  0  0  0  0  0  0
   -0.9338    1.6101   -0.8761 H   0  0  0  0  0  0  0  0  0  0  0  0
   -0.3994    1.6903    0.8423 H   0  0  0  0  0  0  0  0  0  0  0  0
   -1.8490   -0.1088    1.4675 H   0  0  0  0  0  0  0  0  0  0  0  0
   -2.7432    1.0174    0.3983 H   0  0  0  0  0  0  0  0  0  0  0  0
   -0.2048   -1.5615    0.9017 H   0  0  0  0  0  0  0  0  0  0  0  0
    0.8447   -2.0604   -0.5359 H   0  0  0  0  0  0  0  0  0  0  0  0
  1  2  1  0
  2  3  1  0
  3  4  1  0
  4  5  1  0
  5  6  1  0
  6  7  2  0
  6  8  1  0
  8  9  1  0
  9  3  1  0
  1 10  1  0
  1 11  1  0
  1 12  1  0
  3 13  1  0
  4 14  1  0
  4 15  1  0
  5 16  1  0
  5 17  1  0
  9 18  1  0
  9 19  1  0
M  END
