
     RDKit          3D

 19 19  0  0  0  0  0  0  0  0999 V2000
   -2.3135   -0.9116    0.4138 C   0  0  0  0  0  0  0  0  0  0  0  0
   -0.9950   -0.7977    0.9079 O   0  0  0  0  0  0  0  0  0  0  0  0
   -0.3907    0.3325    0.3708 C   0  0  0  0  0  0  0  0  0  0  0  0
   -1.0901    1.6067    0.6960 C   0  0  0  0  0  0  0  0  0  0  0  0
   -0.6437    2.6603    0.2739 O   0  0  0  0  0  0  0  0  0  0  0  0
    0.1760    0.2264   -0.9990 C   0  0  0  0  0  0  0  0  0  0  0  0
    1.0766    0.4141    0.2083 C   0  0  0  0  0  0  0  0  0  0  0  0
    1.9770   -0.7383    0.5072 C   0  0  0  0  0  0  0  0  0  0  0  0
    3.2879   -0.3355    0.2518 O   0  0  0  0  0  0  0  0  0  0  0  0
   -2.3315   -0.9997   -0.6816 H   0  0  0  0  0  0  0  0  0  0  0  0
   -2.8158   -1.8004    0.8405 H   0  0  0  0  0  0  0  0  0  0  0  0
   -2.9314   -0.0388    0.6907 H   0  0  0  0  0  0  0  0  0  0  0  0
   -1.9906    1.6668    1.2962 H   0  0  0  0  0  0  0  0  0  0  0  0
    0.1225   -0.7621   -1.4699 H   0  0  0  0  0  0  0  0  0  0  0  0
    0.1951    1.0760   -1.6975 H   0  0  0  0  0  0  0  0  0  0  0  0
    1.5496    1.4215    0.3596 H   0  0  0  0  0  0  0  0  0  0  0  0
    1.7886   -1.6058   -0.1781 H   0  0  0  0  0  0  0  0  0  0  0  0
    1.9428   -1.0735    1.5594 H   0  0  0  0  0  0  0  0  0  0  0  0
    3.3862   -0.3409   -0.7375 H   0  0  0  0  0  0  0  0  0  0  0  0
  1  2  1  0
  2  3  1  0
  3  4  1  0
  4  5  2  0
  3  6  1  0
  6  7  1  0
  7  8  1  0
  8  9  1  0
  7  3  1  0
  1 10  1  0
  1 11  1  0
  1 12  1  0
  4 13  1  0
  6 14  1  0
  6 15  1  0
  7 16  1  0
  8 17  1  0
  8 18  1  0
  9 19  1  0
M  END
