
     RDKit          3D

 23 23  0  0  0  0  0  0  0  0999 V2000
    2.3537   -1.0623    0.1451 C   0  0  0  0  0  0  0  0  0  0  0  0
    1.3061   -0.5186    0.8593 O   0  0  0  0  0  0  0  0  0  0  0  0
    0.6131    0.4652    0.2248 C   0  0  0  0  0  0  0  0  0  0  0  0
    1.3391    1.6965   -0.1917 C   0  0  0  0  0  0  0  0  0  0  0  0
   -0.3017   -0.0026   -0.9157 C   0  0  0  0  0  0  0  0  0  0  0  0
   -1.2325   -0.4645    0.1989 C   0  0  0  0  0  0  0  0  0  0  0  0
   -2.6923   -0.3487   -0.1239 C   0  0  0  0  0  0  0  0  0  0  0  0
   -0.8002   -1.6860    0.6707 O   0  0  0  0  0  0  0  0  0  0  0  0
   -0.6796    0.7241    0.9994 C   0  0  0  0  0  0  0  0  0  0  0  0
    2.8128   -1.8501    0.8071 H   0  0  0  0  0  0  0  0  0  0  0  0
    2.0240   -1.6161   -0.7610 H   0  0  0  0  0  0  0  0  0  0  0  0
    3.1305   -0.3458   -0.1470 H   0  0  0  0  0  0  0  0  0  0  0  0
    1.8810    1.5406   -1.1447 H   0  0  0  0  0  0  0  0  0  0  0  0
    0.5834    2.4907   -0.4021 H   0  0  0  0  0  0  0  0  0  0  0  0
    1.9666    2.0680    0.6215 H   0  0  0  0  0  0  0  0  0  0  0  0
   -0.7378    0.8738   -1.4066 H   0  0  0  0  0  0  0  0  0  0  0  0
    0.1213   -0.7908   -1.5373 H   0  0  0  0  0  0  0  0  0  0  0  0
   -3.1568    0.3028    0.6311 H   0  0  0  0  0  0  0  0  0  0  0  0
   -3.1650   -1.3516   -0.0324 H   0  0  0  0  0  0  0  0  0  0  0  0
   -2.8607    0.0526   -1.1469 H   0  0  0  0  0  0  0  0  0  0  0  0
   -0.7033   -2.2895   -0.1320 H   0  0  0  0  0  0  0  0  0  0  0  0
   -1.1542    1.6686    0.7282 H   0  0  0  0  0  0  0  0  0  0  0  0
   -0.6475    0.4439    2.0552 H   0  0  0  0  0  0  0  0  0  0  0  0
  1  2  1  0
  2  3  1  0
  3  4  1  0
  3  5  1  0
  5  6  1  0
  6  7  1  0
  6  8  1  0
  6  9  1  0
  9  3  1  0
  1 10  1  0
  1 11  1  0
  1 12  1  0
  4 13  1  0
  4 14  1  0
  4 15  1  0
  5 16  1  0
  5 17  1  0
  7 18  1  0
  7 19  1  0
  7 20  1  0
  8 21  1  0
  9 22  1  0
  9 23  1  0
M  END
