
     RDKit          3D

 21 21  0  0  0  0  0  0  0  0999 V2000
    2.7499    0.6232    0.6977 C   0  0  0  0  0  0  0  0  0  0  0  0
    1.9672    0.2224   -0.3576 O   0  0  0  0  0  0  0  0  0  0  0  0
    0.6512    0.0077   -0.0802 C   0  0  0  0  0  0  0  0  0  0  0  0
    0.1787   -1.3895   -0.4038 C   0  0  0  0  0  0  0  0  0  0  0  0
   -1.3062   -1.4980   -0.2815 C   0  0  0  0  0  0  0  0  0  0  0  0
   -1.8086   -0.6505    0.8418 C   0  0  0  0  0  0  0  0  0  0  0  0
   -1.6704    0.6564    0.9334 C   0  0  0  0  0  0  0  0  0  0  0  0
   -1.0179    1.6064    0.0078 C   0  0  0  0  0  0  0  0  0  0  0  0
   -0.0830    0.9699   -0.8015 O   0  0  0  0  0  0  0  0  0  0  0  0
    3.7866    0.7548    0.3114 H   0  0  0  0  0  0  0  0  0  0  0  0
    2.8054   -0.0844    1.5328 H   0  0  0  0  0  0  0  0  0  0  0  0
    2.4511    1.6102    1.1179 H   0  0  0  0  0  0  0  0  0  0  0  0
    0.4613    0.2043    0.9762 H   0  0  0  0  0  0  0  0  0  0  0  0
    0.4485   -1.6873   -1.4474 H   0  0  0  0  0  0  0  0  0  0  0  0
    0.6323   -2.0666    0.3537 H   0  0  0  0  0  0  0  0  0  0  0  0
   -1.6005   -2.5566   -0.1041 H   0  0  0  0  0  0  0  0  0  0  0  0
   -1.8089   -1.1236   -1.1971 H   0  0  0  0  0  0  0  0  0  0  0  0
   -2.3248   -1.1309    1.6447 H   0  0  0  0  0  0  0  0  0  0  0  0
   -2.0954    1.1032    1.8134 H   0  0  0  0  0  0  0  0  0  0  0  0
   -1.8226    1.9789   -0.6830 H   0  0  0  0  0  0  0  0  0  0  0  0
   -0.5939    2.4498    0.5843 H   0  0  0  0  0  0  0  0  0  0  0  0
  1  2  1  0
  2  3  1  0
  3  4  1  0
  4  5  1  0
  5  6  1  0
  6  7  2  0
  7  8  1  0
  8  9  1  0
  9  3  1  0
  1 10  1  0
  1 11  1  0
  1 12  1  0
  3 13  1  0
  4 14  1  0
  4 15  1  0
  5 16  1  0
  5 17  1  0
  6 18  1  0
  7 19  1  0
  8 20  1  0
  8 21  1  0
M  END
