
     RDKit          3D

 21 21  0  0  0  0  0  0  0  0999 V2000
   -0.6829    2.4761    0.2718 C   0  0  0  0  0  0  0  0  0  0  0  0
   -0.0932    1.2634    0.5715 O   0  0  0  0  0  0  0  0  0  0  0  0
   -0.2775    0.3078   -0.4173 C   0  0  0  0  0  0  0  0  0  0  0  0
   -0.7389   -0.9887    0.2102 C   0  0  0  0  0  0  0  0  0  0  0  0
   -2.2013   -1.2760    0.0129 C   0  0  0  0  0  0  0  0  0  0  0  0
    0.1410   -1.6539   -0.6055 O   0  0  0  0  0  0  0  0  0  0  0  0
    0.9172   -0.5300   -0.7479 C   0  0  0  0  0  0  0  0  0  0  0  0
    2.0761   -0.4048    0.2184 C   0  0  0  0  0  0  0  0  0  0  0  0
    2.9065   -1.5036    0.0330 O   0  0  0  0  0  0  0  0  0  0  0  0
   -1.7844    2.3432    0.1392 H   0  0  0  0  0  0  0  0  0  0  0  0
   -0.5904    3.1020    1.2051 H   0  0  0  0  0  0  0  0  0  0  0  0
   -0.2214    2.9779   -0.5906 H   0  0  0  0  0  0  0  0  0  0  0  0
   -0.8482    0.6037   -1.2959 H   0  0  0  0  0  0  0  0  0  0  0  0
   -0.4301   -1.0790    1.2737 H   0  0  0  0  0  0  0  0  0  0  0  0
   -2.4147   -1.3208   -1.0889 H   0  0  0  0  0  0  0  0  0  0  0  0
   -2.8236   -0.4641    0.4133 H   0  0  0  0  0  0  0  0  0  0  0  0
   -2.4158   -2.2657    0.4782 H   0  0  0  0  0  0  0  0  0  0  0  0
    1.2909   -0.4424   -1.7894 H   0  0  0  0  0  0  0  0  0  0  0  0
    2.6516    0.5033   -0.0556 H   0  0  0  0  0  0  0  0  0  0  0  0
    1.7651   -0.2852    1.2605 H   0  0  0  0  0  0  0  0  0  0  0  0
    3.7737   -1.3631    0.5033 H   0  0  0  0  0  0  0  0  0  0  0  0
  1  2  1  0
  2  3  1  0
  3  4  1  0
  4  5  1  0
  4  6  1  0
  6  7  1  0
  7  8  1  0
  8  9  1  0
  7  3  1  0
  1 10  1  0
  1 11  1  0
  1 12  1  0
  3 13  1  0
  4 14  1  0
  5 15  1  0
  5 16  1  0
  5 17  1  0
  7 18  1  0
  8 19  1  0
  8 20  1  0
  9 21  1  0
M  END
