
     RDKit          3D

 17 17  0  0  0  0  0  0  0  0999 V2000
    2.5931    0.3310   -0.0523 C   0  0  0  0  0  0  0  0  0  0  0  0
    1.4182    0.3187   -0.8355 O   0  0  0  0  0  0  0  0  0  0  0  0
    0.3056    0.0971   -0.0410 C   0  0  0  0  0  0  0  0  0  0  0  0
   -0.4409   -1.1601   -0.4351 C   0  0  0  0  0  0  0  0  0  0  0  0
   -1.7483   -0.9622    0.2311 C   0  0  0  0  0  0  0  0  0  0  0  0
   -2.4834   -1.8291    0.6244 O   0  0  0  0  0  0  0  0  0  0  0  0
   -1.9797    0.5030    0.3217 C   0  0  0  0  0  0  0  0  0  0  0  0
   -0.7413    1.1212   -0.1990 C   0  0  0  0  0  0  0  0  0  0  0  0
   -0.6203    2.2217   -0.6520 O   0  0  0  0  0  0  0  0  0  0  0  0
    2.6634   -0.6696    0.4416 H   0  0  0  0  0  0  0  0  0  0  0  0
    3.4722    0.5352   -0.6817 H   0  0  0  0  0  0  0  0  0  0  0  0
    2.5596    1.1106    0.7237 H   0  0  0  0  0  0  0  0  0  0  0  0
    0.5708   -0.0226    1.0313 H   0  0  0  0  0  0  0  0  0  0  0  0
   -0.6431   -1.1462   -1.5373 H   0  0  0  0  0  0  0  0  0  0  0  0
    0.0795   -2.0785   -0.1208 H   0  0  0  0  0  0  0  0  0  0  0  0
   -2.8865    0.8251   -0.2194 H   0  0  0  0  0  0  0  0  0  0  0  0
   -2.1188    0.8048    1.4003 H   0  0  0  0  0  0  0  0  0  0  0  0
  1  2  1  0
  2  3  1  0
  3  4  1  0
  4  5  1  0
  5  6  2  0
  5  7  1  0
  7  8  1  0
  8  9  2  0
  8  3  1  0
  1 10  1  0
  1 11  1  0
  1 12  1  0
  3 13  1  0
  4 14  1  0
  4 15  1  0
  7 16  1  0
  7 17  1  0
M  END
