
     RDKit          3D

 21 22  0  0  0  0  0  0  0  0999 V2000
    2.5406   -0.5876    0.7817 C   0  0  0  0  0  0  0  0  0  0  0  0
    1.3838    0.1551    0.9965 O   0  0  0  0  0  0  0  0  0  0  0  0
    0.6120    0.0807   -0.1549 C   0  0  0  0  0  0  0  0  0  0  0  0
    0.1373    1.4080   -0.6890 C   0  0  0  0  0  0  0  0  0  0  0  0
   -0.9254    2.1874   -0.0659 C   0  0  0  0  0  0  0  0  0  0  0  0
   -1.2550    0.8654   -0.6812 C   0  0  0  0  0  0  0  0  0  0  0  0
   -0.8277   -0.3016    0.1306 C   0  0  0  0  0  0  0  0  0  0  0  0
   -1.1338   -1.6672   -0.4058 C   0  0  0  0  0  0  0  0  0  0  0  0
   -1.0946   -0.1958    1.4811 O   0  0  0  0  0  0  0  0  0  0  0  0
    3.1991   -0.5637    1.6745 H   0  0  0  0  0  0  0  0  0  0  0  0
    3.0445   -0.1174   -0.1046 H   0  0  0  0  0  0  0  0  0  0  0  0
    2.2838   -1.6365    0.4748 H   0  0  0  0  0  0  0  0  0  0  0  0
    1.0964   -0.5370   -0.9413 H   0  0  0  0  0  0  0  0  0  0  0  0
    0.6117    1.7667   -1.6143 H   0  0  0  0  0  0  0  0  0  0  0  0
   -1.2998    3.0576   -0.5938 H   0  0  0  0  0  0  0  0  0  0  0  0
   -1.0930    2.2228    1.0342 H   0  0  0  0  0  0  0  0  0  0  0  0
   -1.8256    0.7756   -1.6066 H   0  0  0  0  0  0  0  0  0  0  0  0
   -2.2148   -1.9215   -0.2701 H   0  0  0  0  0  0  0  0  0  0  0  0
   -0.5814   -2.4040    0.2257 H   0  0  0  0  0  0  0  0  0  0  0  0
   -0.8042   -1.7998   -1.4402 H   0  0  0  0  0  0  0  0  0  0  0  0
   -1.8541   -0.7873    1.7685 H   0  0  0  0  0  0  0  0  0  0  0  0
  1  2  1  0
  2  3  1  0
  3  4  1  0
  4  5  1  0
  5  6  1  0
  6  7  1  0
  7  8  1  0
  7  9  1  0
  7  3  1  0
  6  4  1  0
  1 10  1  0
  1 11  1  0
  1 12  1  0
  3 13  1  0
  4 14  1  0
  5 15  1  0
  5 16  1  0
  6 17  1  0
  8 18  1  0
  8 19  1  0
  8 20  1  0
  9 21  1  0
M  END
