
     RDKit          3D

 21 21  0  0  0  0  0  0  0  0999 V2000
   -1.8329    1.2250    0.1804 C   0  0  0  0  0  0  0  0  0  0  0  0
   -0.8646    0.5033    0.8126 O   0  0  0  0  0  0  0  0  0  0  0  0
   -0.1816   -0.4212    0.0780 C   0  0  0  0  0  0  0  0  0  0  0  0
   -1.0422   -1.4946   -0.5349 C   0  0  0  0  0  0  0  0  0  0  0  0
    0.8212   -1.0760    1.0538 C   0  0  0  0  0  0  0  0  0  0  0  0
    1.7818    0.0479    1.1956 C   0  0  0  0  0  0  0  0  0  0  0  0
    1.7790    0.8085    0.1079 C   0  0  0  0  0  0  0  0  0  0  0  0
    0.7810    0.2224   -0.8675 C   0  0  0  0  0  0  0  0  0  0  0  0
    0.2719    1.1822   -1.6950 O   0  0  0  0  0  0  0  0  0  0  0  0
   -2.6397    0.5616   -0.2471 H   0  0  0  0  0  0  0  0  0  0  0  0
   -2.3950    1.7761    0.9995 H   0  0  0  0  0  0  0  0  0  0  0  0
   -1.5077    2.0210   -0.4949 H   0  0  0  0  0  0  0  0  0  0  0  0
   -0.4844   -2.4639   -0.4950 H   0  0  0  0  0  0  0  0  0  0  0  0
   -1.2815   -1.2756   -1.5899 H   0  0  0  0  0  0  0  0  0  0  0  0
   -1.9396   -1.6406    0.1006 H   0  0  0  0  0  0  0  0  0  0  0  0
    1.3187   -1.8943    0.5188 H   0  0  0  0  0  0  0  0  0  0  0  0
    0.3334   -1.3619    1.9933 H   0  0  0  0  0  0  0  0  0  0  0  0
    2.3912    0.2116    2.0672 H   0  0  0  0  0  0  0  0  0  0  0  0
    2.3829    1.6802   -0.0378 H   0  0  0  0  0  0  0  0  0  0  0  0
    1.3706   -0.5517   -1.4214 H   0  0  0  0  0  0  0  0  0  0  0  0
    0.9374    1.9400   -1.7241 H   0  0  0  0  0  0  0  0  0  0  0  0
  1  2  1  0
  2  3  1  0
  3  4  1  0
  3  5  1  0
  5  6  1  0
  6  7  2  0
  7  8  1  0
  8  9  1  0
  8  3  1  0
  1 10  1  0
  1 11  1  0
  1 12  1  0
  4 13  1  0
  4 14  1  0
  4 15  1  0
  5 16  1  0
  5 17  1  0
  6 18  1  0
  7 19  1  0
  8 20  1  0
  9 21  1  0
M  END
