
     RDKit          3D

 19 19  0  0  0  0  0  0  0  0999 V2000
    1.9192   -0.7195    1.1095 C   0  0  0  0  0  0  0  0  0  0  0  0
    1.1377   -1.1428    0.0613 O   0  0  0  0  0  0  0  0  0  0  0  0
    0.1283   -0.2799   -0.2924 C   0  0  0  0  0  0  0  0  0  0  0  0
    0.5530    1.0918   -0.7265 C   0  0  0  0  0  0  0  0  0  0  0  0
   -0.5773    1.9636   -1.0909 C   0  0  0  0  0  0  0  0  0  0  0  0
   -0.3633    3.0906   -1.4563 O   0  0  0  0  0  0  0  0  0  0  0  0
   -1.0451   -0.9431   -0.9771 C   0  0  0  0  0  0  0  0  0  0  0  0
   -1.1621   -0.4566    0.4249 C   0  0  0  0  0  0  0  0  0  0  0  0
   -1.1901   -1.3744    1.4799 O   0  0  0  0  0  0  0  0  0  0  0  0
    1.2531   -0.5931    1.9922 H   0  0  0  0  0  0  0  0  0  0  0  0
    2.5431    0.1529    0.9084 H   0  0  0  0  0  0  0  0  0  0  0  0
    2.6076   -1.5566    1.3696 H   0  0  0  0  0  0  0  0  0  0  0  0
    1.2567    1.0263   -1.5888 H   0  0  0  0  0  0  0  0  0  0  0  0
    1.0513    1.5679    0.1634 H   0  0  0  0  0  0  0  0  0  0  0  0
   -1.5810    1.6031   -1.0331 H   0  0  0  0  0  0  0  0  0  0  0  0
   -1.5859   -0.4209   -1.7815 H   0  0  0  0  0  0  0  0  0  0  0  0
   -1.0432   -2.0512   -1.0952 H   0  0  0  0  0  0  0  0  0  0  0  0
   -1.8709    0.3778    0.5717 H   0  0  0  0  0  0  0  0  0  0  0  0
   -2.0311   -1.3360    1.9608 H   0  0  0  0  0  0  0  0  0  0  0  0
  1  2  1  0
  2  3  1  0
  3  4  1  0
  4  5  1  0
  5  6  2  0
  3  7  1  0
  7  8  1  0
  8  9  1  0
  8  3  1  0
  1 10  1  0
  1 11  1  0
  1 12  1  0
  4 13  1  0
  4 14  1  0
  5 15  1  0
  7 16  1  0
  7 17  1  0
  8 18  1  0
  9 19  1  0
M  END
