
     RDKit          3D

 19 20  0  0  0  0  0  0  0  0999 V2000
    2.5131   -0.0712    0.9204 C   0  0  0  0  0  0  0  0  0  0  0  0
    1.1371   -0.1969    1.1760 O   0  0  0  0  0  0  0  0  0  0  0  0
    0.4794    0.0701    0.0005 C   0  0  0  0  0  0  0  0  0  0  0  0
   -0.6278   -0.8781   -0.3734 C   0  0  0  0  0  0  0  0  0  0  0  0
   -0.5474   -2.0831   -0.6935 O   0  0  0  0  0  0  0  0  0  0  0  0
   -1.1729    0.2620   -1.2139 C   0  0  0  0  0  0  0  0  0  0  0  0
   -0.7546    0.9229    0.0996 C   0  0  0  0  0  0  0  0  0  0  0  0
   -0.8550    2.1310    0.3877 O   0  0  0  0  0  0  0  0  0  0  0  0
   -1.4136   -0.2623    0.7564 C   0  0  0  0  0  0  0  0  0  0  0  0
    3.1178   -0.2703    1.8173 H   0  0  0  0  0  0  0  0  0  0  0  0
    2.7529   -0.8721    0.1611 H   0  0  0  0  0  0  0  0  0  0  0  0
    2.7504    0.8843    0.4194 H   0  0  0  0  0  0  0  0  0  0  0  0
    1.0842    0.3192   -0.8809 H   0  0  0  0  0  0  0  0  0  0  0  0
   -0.7850   -2.7579   -0.0121 H   0  0  0  0  0  0  0  0  0  0  0  0
   -0.5497    0.5280   -2.0793 H   0  0  0  0  0  0  0  0  0  0  0  0
   -2.2515    0.2449   -1.3868 H   0  0  0  0  0  0  0  0  0  0  0  0
   -1.2974    2.7893   -0.2089 H   0  0  0  0  0  0  0  0  0  0  0  0
   -2.4914   -0.2627    0.5502 H   0  0  0  0  0  0  0  0  0  0  0  0
   -1.0885   -0.4970    1.7706 H   0  0  0  0  0  0  0  0  0  0  0  0
  1  2  1  0
  2  3  1  0
  3  4  1  0
  4  5  1  0
  4  6  1  0
  6  7  1  0
  7  8  1  0
  7  9  1  0
  7  3  1  0
  9  4  1  0
  1 10  1  0
  1 11  1  0
  1 12  1  0
  3 13  1  0
  5 14  1  0
  6 15  1  0
  6 16  1  0
  8 17  1  0
  9 18  1  0
  9 19  1  0
M  END
