
     RDKit          3D

 17 18  0  0  0  0  0  0  0  0999 V2000
    2.7041   -0.0954   -0.7523 C   0  0  0  0  0  0  0  0  0  0  0  0
    1.4993    0.5714   -0.9673 O   0  0  0  0  0  0  0  0  0  0  0  0
    0.5136   -0.0871   -0.2624 C   0  0  0  0  0  0  0  0  0  0  0  0
   -0.3053    0.7699    0.6384 C   0  0  0  0  0  0  0  0  0  0  0  0
   -0.0129    1.5541    1.5117 O   0  0  0  0  0  0  0  0  0  0  0  0
   -1.6014    0.3162    0.0802 C   0  0  0  0  0  0  0  0  0  0  0  0
   -2.5485    1.2417   -0.2845 O   0  0  0  0  0  0  0  0  0  0  0  0
   -1.7974   -1.0931   -0.3374 C   0  0  0  0  0  0  0  0  0  0  0  0
   -0.7660   -0.3438   -1.0562 C   0  0  0  0  0  0  0  0  0  0  0  0
    3.5508    0.3761   -1.2891 H   0  0  0  0  0  0  0  0  0  0  0  0
    2.5465   -1.1569   -1.0550 H   0  0  0  0  0  0  0  0  0  0  0  0
    2.8744   -0.0779    0.3596 H   0  0  0  0  0  0  0  0  0  0  0  0
    0.8701   -0.9785    0.3091 H   0  0  0  0  0  0  0  0  0  0  0  0
   -2.4656    2.0995    0.2049 H   0  0  0  0  0  0  0  0  0  0  0  0
   -1.4236   -1.9375    0.3085 H   0  0  0  0  0  0  0  0  0  0  0  0
   -2.7339   -1.3104   -0.8652 H   0  0  0  0  0  0  0  0  0  0  0  0
   -0.9042    0.1518   -2.0139 H   0  0  0  0  0  0  0  0  0  0  0  0
  1  2  1  0
  2  3  1  0
  3  4  1  0
  4  5  2  0
  4  6  1  0
  6  7  1  0
  6  8  1  0
  8  9  1  0
  9  3  1  0
  9  6  1  0
  1 10  1  0
  1 11  1  0
  1 12  1  0
  3 13  1  0
  7 14  1  0
  8 15  1  0
  8 16  1  0
  9 17  1  0
M  END
