
     RDKit          3D

 23 23  0  0  0  0  0  0  0  0999 V2000
    2.9807    0.4633   -0.4483 C   0  0  0  0  0  0  0  0  0  0  0  0
    2.0757   -0.0172    0.4926 O   0  0  0  0  0  0  0  0  0  0  0  0
    0.7653    0.0022    0.0042 C   0  0  0  0  0  0  0  0  0  0  0  0
    0.0045    0.9684    0.9141 C   0  0  0  0  0  0  0  0  0  0  0  0
   -1.2098    1.5171    0.2199 C   0  0  0  0  0  0  0  0  0  0  0  0
   -2.2825    0.4864    0.2995 C   0  0  0  0  0  0  0  0  0  0  0  0
   -2.1954   -0.7848   -0.0596 C   0  0  0  0  0  0  0  0  0  0  0  0
   -1.0840   -1.5786   -0.6265 C   0  0  0  0  0  0  0  0  0  0  0  0
    0.2145   -1.3803    0.1214 C   0  0  0  0  0  0  0  0  0  0  0  0
    3.9853    0.4111    0.0226 H   0  0  0  0  0  0  0  0  0  0  0  0
    3.0345   -0.2424   -1.3267 H   0  0  0  0  0  0  0  0  0  0  0  0
    2.7983    1.4993   -0.7500 H   0  0  0  0  0  0  0  0  0  0  0  0
    0.7201    0.3979   -1.0347 H   0  0  0  0  0  0  0  0  0  0  0  0
   -0.3240    0.4770    1.8489 H   0  0  0  0  0  0  0  0  0  0  0  0
    0.7145    1.8158    1.1189 H   0  0  0  0  0  0  0  0  0  0  0  0
   -1.5317    2.4675    0.6714 H   0  0  0  0  0  0  0  0  0  0  0  0
   -0.9757    1.7380   -0.8568 H   0  0  0  0  0  0  0  0  0  0  0  0
   -3.2532    0.7857    0.6921 H   0  0  0  0  0  0  0  0  0  0  0  0
   -3.1085   -1.3425    0.0911 H   0  0  0  0  0  0  0  0  0  0  0  0
   -0.9952   -1.3066   -1.6976 H   0  0  0  0  0  0  0  0  0  0  0  0
   -1.3149   -2.6604   -0.5768 H   0  0  0  0  0  0  0  0  0  0  0  0
    0.0296   -1.6219    1.1706 H   0  0  0  0  0  0  0  0  0  0  0  0
    0.9517   -2.0949   -0.2906 H   0  0  0  0  0  0  0  0  0  0  0  0
  1  2  1  0
  2  3  1  0
  3  4  1  0
  4  5  1  0
  5  6  1  0
  6  7  2  0
  7  8  1  0
  8  9  1  0
  9  3  1  0
  1 10  1  0
  1 11  1  0
  1 12  1  0
  3 13  1  0
  4 14  1  0
  4 15  1  0
  5 16  1  0
  5 17  1  0
  6 18  1  0
  7 19  1  0
  8 20  1  0
  8 21  1  0
  9 22  1  0
  9 23  1  0
M  END
