
     RDKit          3D

 19 20  0  0  0  0  0  0  0  0999 V2000
    2.5304   -0.2531   -0.0263 C   0  0  0  0  0  0  0  0  0  0  0  0
    1.4674   -0.4003   -0.8744 O   0  0  0  0  0  0  0  0  0  0  0  0
    0.3180   -0.1421   -0.2500 C   0  0  0  0  0  0  0  0  0  0  0  0
    0.1059    1.3151    0.1690 C   0  0  0  0  0  0  0  0  0  0  0  0
   -1.2705    1.4410    0.3144 O   0  0  0  0  0  0  0  0  0  0  0  0
   -1.8425    0.2098    0.0091 C   0  0  0  0  0  0  0  0  0  0  0  0
   -1.4133   -0.8566    0.9846 C   0  0  0  0  0  0  0  0  0  0  0  0
   -0.0238   -0.9055    0.8384 O   0  0  0  0  0  0  0  0  0  0  0  0
   -0.9245   -0.2224   -1.1570 C   0  0  0  0  0  0  0  0  0  0  0  0
    2.5401    0.7944    0.3419 H   0  0  0  0  0  0  0  0  0  0  0  0
    3.5040   -0.5646   -0.4428 H   0  0  0  0  0  0  0  0  0  0  0  0
    2.3450   -0.9189    0.8635 H   0  0  0  0  0  0  0  0  0  0  0  0
    0.4065    1.9148   -0.7346 H   0  0  0  0  0  0  0  0  0  0  0  0
    0.6722    1.5812    1.0583 H   0  0  0  0  0  0  0  0  0  0  0  0
   -2.8768    0.2306   -0.2536 H   0  0  0  0  0  0  0  0  0  0  0  0
   -1.7850   -1.8366    0.5627 H   0  0  0  0  0  0  0  0  0  0  0  0
   -1.7430   -0.6815    2.0075 H   0  0  0  0  0  0  0  0  0  0  0  0
   -1.1306   -1.2392   -1.4758 H   0  0  0  0  0  0  0  0  0  0  0  0
   -0.8795    0.5341   -1.9351 H   0  0  0  0  0  0  0  0  0  0  0  0
  1  2  1  0
  2  3  1  0
  3  4  1  0
  4  5  1  0
  5  6  1  0
  6  7  1  0
  7  8  1  0
  6  9  1  0
  8  3  1  0
  9  3  1  0
  1 10  1  0
  1 11  1  0
  1 12  1  0
  4 13  1  0
  4 14  1  0
  6 15  1  0
  7 16  1  0
  7 17  1  0
  9 18  1  0
  9 19  1  0
M  END
