
     RDKit          3D

 19 20  0  0  0  0  0  0  0  0999 V2000
    2.6666   -0.2850   -0.4536 C   0  0  0  0  0  0  0  0  0  0  0  0
    1.3097   -0.6308   -0.3910 O   0  0  0  0  0  0  0  0  0  0  0  0
    0.6371    0.4447    0.1876 C   0  0  0  0  0  0  0  0  0  0  0  0
    0.0819   -0.0400    1.3826 O   0  0  0  0  0  0  0  0  0  0  0  0
   -0.8603   -1.0263    1.0380 C   0  0  0  0  0  0  0  0  0  0  0  0
   -1.6924   -0.5793   -0.1434 C   0  0  0  0  0  0  0  0  0  0  0  0
   -1.8119    0.9433   -0.0261 C   0  0  0  0  0  0  0  0  0  0  0  0
   -0.4868    0.8205   -0.7411 C   0  0  0  0  0  0  0  0  0  0  0  0
   -0.9580   -0.3837   -1.2860 O   0  0  0  0  0  0  0  0  0  0  0  0
    3.0882   -0.0831    0.5502 H   0  0  0  0  0  0  0  0  0  0  0  0
    3.2590   -1.1034   -0.9418 H   0  0  0  0  0  0  0  0  0  0  0  0
    2.7262    0.6642   -1.0357 H   0  0  0  0  0  0  0  0  0  0  0  0
    1.3038    1.2659    0.4429 H   0  0  0  0  0  0  0  0  0  0  0  0
   -1.5588   -1.1306    1.8940 H   0  0  0  0  0  0  0  0  0  0  0  0
   -0.3966   -2.0115    0.8845 H   0  0  0  0  0  0  0  0  0  0  0  0
   -2.6418   -1.1091   -0.2192 H   0  0  0  0  0  0  0  0  0  0  0  0
   -1.7723    1.3274    0.9988 H   0  0  0  0  0  0  0  0  0  0  0  0
   -2.5984    1.2999   -0.6827 H   0  0  0  0  0  0  0  0  0  0  0  0
   -0.2951    1.6168   -1.4579 H   0  0  0  0  0  0  0  0  0  0  0  0
  1  2  1  0
  2  3  1  0
  3  4  1  0
  4  5  1  0
  5  6  1  0
  6  7  1  0
  7  8  1  0
  8  9  1  0
  8  3  1  0
  9  6  1  0
  1 10  1  0
  1 11  1  0
  1 12  1  0
  3 13  1  0
  5 14  1  0
  5 15  1  0
  6 16  1  0
  7 17  1  0
  7 18  1  0
  8 19  1  0
M  END
