
     RDKit          3D

 17 19  0  0  0  0  0  0  0  0999 V2000
   -2.5965   -0.8916   -1.0447 C   0  0  0  0  0  0  0  0  0  0  0  0
   -1.8752    0.0865   -0.3908 O   0  0  0  0  0  0  0  0  0  0  0  0
   -0.5400   -0.1009   -0.3289 C   0  0  0  0  0  0  0  0  0  0  0  0
    0.1711    0.2425    0.9496 C   0  0  0  0  0  0  0  0  0  0  0  0
   -0.0625    1.5713    0.6236 O   0  0  0  0  0  0  0  0  0  0  0  0
    0.3730    1.0457   -0.6003 C   0  0  0  0  0  0  0  0  0  0  0  0
    1.3998    0.3232    0.1581 C   0  0  0  0  0  0  0  0  0  0  0  0
    2.7099    0.4433    0.3898 C   0  0  0  0  0  0  0  0  0  0  0  0
    2.1163   -0.7398   -0.3028 O   0  0  0  0  0  0  0  0  0  0  0  0
   -2.4884   -1.8996   -0.5789 H   0  0  0  0  0  0  0  0  0  0  0  0
   -3.6801   -0.6251   -0.9039 H   0  0  0  0  0  0  0  0  0  0  0  0
   -2.4390   -0.9049   -2.1389 H   0  0  0  0  0  0  0  0  0  0  0  0
   -0.2066   -1.0161   -0.8126 H   0  0  0  0  0  0  0  0  0  0  0  0
    0.0041   -0.1853    1.8512 H   0  0  0  0  0  0  0  0  0  0  0  0
    0.4518    1.5755   -1.4574 H   0  0  0  0  0  0  0  0  0  0  0  0
    3.4449    0.9400   -0.2890 H   0  0  0  0  0  0  0  0  0  0  0  0
    3.2175    0.1354    1.3503 H   0  0  0  0  0  0  0  0  0  0  0  0
  1  2  1  0
  2  3  1  0
  3  4  1  0
  4  5  1  0
  5  6  1  0
  6  7  1  0
  7  8  1  0
  8  9  1  0
  6  3  1  0
  9  7  1  0
  7  4  1  0
  1 10  1  0
  1 11  1  0
  1 12  1  0
  3 13  1  0
  4 14  1  0
  6 15  1  0
  8 16  1  0
  8 17  1  0
M  END
