
     RDKit          3D

 19 19  0  0  0  0  0  0  0  0999 V2000
    2.7300    0.2492   -0.4681 C   0  0  0  0  0  0  0  0  0  0  0  0
    1.4787   -0.2090   -0.9309 O   0  0  0  0  0  0  0  0  0  0  0  0
    0.4702    0.0939   -0.0401 C   0  0  0  0  0  0  0  0  0  0  0  0
   -0.8217    0.5701   -0.6025 C   0  0  0  0  0  0  0  0  0  0  0  0
   -1.6157    1.6469    0.1023 C   0  0  0  0  0  0  0  0  0  0  0  0
   -0.7282   -0.7636    0.0980 C   0  0  0  0  0  0  0  0  0  0  0  0
   -0.9102   -1.9806   -0.7806 C   0  0  0  0  0  0  0  0  0  0  0  0
    2.6925    1.3595   -0.3370 H   0  0  0  0  0  0  0  0  0  0  0  0
    3.5281    0.0153   -1.1959 H   0  0  0  0  0  0  0  0  0  0  0  0
    2.9744   -0.2114    0.5281 H   0  0  0  0  0  0  0  0  0  0  0  0
    0.8160    0.6356    0.8681 H   0  0  0  0  0  0  0  0  0  0  0  0
   -0.9527    0.5948   -1.7116 H   0  0  0  0  0  0  0  0  0  0  0  0
   -1.6135    1.5306    1.1965 H   0  0  0  0  0  0  0  0  0  0  0  0
   -2.6738    1.5391   -0.2794 H   0  0  0  0  0  0  0  0  0  0  0  0
   -1.3063    2.6660   -0.2319 H   0  0  0  0  0  0  0  0  0  0  0  0
   -1.1605   -0.8523    1.1163 H   0  0  0  0  0  0  0  0  0  0  0  0
   -1.2677   -1.6877   -1.7902 H   0  0  0  0  0  0  0  0  0  0  0  0
    0.0520   -2.5567   -0.8773 H   0  0  0  0  0  0  0  0  0  0  0  0
   -1.6916   -2.6398   -0.3489 H   0  0  0  0  0  0  0  0  0  0  0  0
  1  2  1  0
  2  3  1  0
  3  4  1  0
  4  5  1  0
  4  6  1  0
  6  7  1  0
  6  3  1  0
  1  8  1  0
  1  9  1  0
  1 10  1  0
  3 11  1  0
  4 12  1  0
  5 13  1  0
  5 14  1  0
  5 15  1  0
  6 16  1  0
  7 17  1  0
  7 18  1  0
  7 19  1  0
M  END
