
     RDKit          3D

 15 15  0  0  0  0  0  0  0  0999 V2000
    2.4205   -0.2167   -0.2678 C   0  0  0  0  0  0  0  0  0  0  0  0
    1.3504   -0.2864    0.6020 O   0  0  0  0  0  0  0  0  0  0  0  0
    0.1425   -0.0766   -0.0588 C   0  0  0  0  0  0  0  0  0  0  0  0
   -0.9328   -1.0679    0.3481 C   0  0  0  0  0  0  0  0  0  0  0  0
   -0.9991    0.4230    0.7418 C   0  0  0  0  0  0  0  0  0  0  0  0
   -2.1031    1.1829    0.0964 C   0  0  0  0  0  0  0  0  0  0  0  0
   -2.7177    2.0233    0.7282 O   0  0  0  0  0  0  0  0  0  0  0  0
    2.4151    0.7964   -0.7190 H   0  0  0  0  0  0  0  0  0  0  0  0
    3.3463   -0.3767    0.3221 H   0  0  0  0  0  0  0  0  0  0  0  0
    2.4005   -1.0001   -1.0469 H   0  0  0  0  0  0  0  0  0  0  0  0
    0.2155    0.1091   -1.1481 H   0  0  0  0  0  0  0  0  0  0  0  0
   -0.7285   -1.7900    1.1564 H   0  0  0  0  0  0  0  0  0  0  0  0
   -1.6292   -1.4127   -0.4398 H   0  0  0  0  0  0  0  0  0  0  0  0
   -0.7800    0.6648    1.8020 H   0  0  0  0  0  0  0  0  0  0  0  0
   -2.4005    1.0277   -0.9319 H   0  0  0  0  0  0  0  0  0  0  0  0
  1  2  1  0
  2  3  1  0
  3  4  1  0
  4  5  1  0
  5  6  1  0
  6  7  2  0
  5  3  1  0
  1  8  1  0
  1  9  1  0
  1 10  1  0
  3 11  1  0
  4 12  1  0
  4 13  1  0
  5 14  1  0
  6 15  1  0
M  END
