
     RDKit          3D

 21 22  0  0  0  0  0  0  0  0999 V2000
    2.4713    0.9342    0.0978 C   0  0  0  0  0  0  0  0  0  0  0  0
    1.7533    0.2403   -0.8714 O   0  0  0  0  0  0  0  0  0  0  0  0
    0.5288   -0.0533   -0.4679 C   0  0  0  0  0  0  0  0  0  0  0  0
   -0.4476    1.0209   -0.0852 C   0  0  0  0  0  0  0  0  0  0  0  0
   -1.5936    0.1280    0.4326 C   0  0  0  0  0  0  0  0  0  0  0  0
   -2.7974    0.4615   -0.1065 O   0  0  0  0  0  0  0  0  0  0  0  0
   -1.0516   -1.2013    0.0415 C   0  0  0  0  0  0  0  0  0  0  0  0
    0.3604   -1.1060    0.6423 C   0  0  0  0  0  0  0  0  0  0  0  0
   -0.3335   -0.9804   -1.2963 C   0  0  0  0  0  0  0  0  0  0  0  0
    2.5782    0.3589    1.0362 H   0  0  0  0  0  0  0  0  0  0  0  0
    3.5141    1.1494   -0.2673 H   0  0  0  0  0  0  0  0  0  0  0  0
    1.9886    1.8968    0.3784 H   0  0  0  0  0  0  0  0  0  0  0  0
   -0.8631    1.5151   -1.0026 H   0  0  0  0  0  0  0  0  0  0  0  0
   -0.0967    1.7158    0.6715 H   0  0  0  0  0  0  0  0  0  0  0  0
   -1.5471    0.2050    1.5443 H   0  0  0  0  0  0  0  0  0  0  0  0
   -3.3693    0.8350    0.6333 H   0  0  0  0  0  0  0  0  0  0  0  0
   -1.5890   -2.0979    0.1802 H   0  0  0  0  0  0  0  0  0  0  0  0
    0.9376   -2.0132    0.4812 H   0  0  0  0  0  0  0  0  0  0  0  0
    0.3983   -0.6138    1.6124 H   0  0  0  0  0  0  0  0  0  0  0  0
   -0.9747   -0.4776   -2.0463 H   0  0  0  0  0  0  0  0  0  0  0  0
    0.1327   -1.9175   -1.6082 H   0  0  0  0  0  0  0  0  0  0  0  0
  1  2  1  0
  2  3  1  0
  3  4  1  0
  4  5  1  0
  5  6  1  0
  5  7  1  0
  7  8  1  0
  7  9  1  0
  8  3  1  0
  9  3  1  0
  1 10  1  0
  1 11  1  0
  1 12  1  0
  4 13  1  0
  4 14  1  0
  5 15  1  0
  6 16  1  0
  7 17  1  0
  8 18  1  0
  8 19  1  0
  9 20  1  0
  9 21  1  0
M  END
