
     RDKit          3D

 21 22  0  0  0  0  0  0  0  0999 V2000
    2.9135    0.1887   -0.6299 C   0  0  0  0  0  0  0  0  0  0  0  0
    1.8936    0.2546    0.3183 O   0  0  0  0  0  0  0  0  0  0  0  0
    0.6428    0.1215   -0.2450 C   0  0  0  0  0  0  0  0  0  0  0  0
   -0.2172   -0.8866    0.5301 C   0  0  0  0  0  0  0  0  0  0  0  0
   -1.4486   -1.1209   -0.2832 C   0  0  0  0  0  0  0  0  0  0  0  0
   -2.2901    0.1591   -0.2086 C   0  0  0  0  0  0  0  0  0  0  0  0
   -1.4819    1.2598   -0.3439 O   0  0  0  0  0  0  0  0  0  0  0  0
   -0.2894    1.1822    0.3479 C   0  0  0  0  0  0  0  0  0  0  0  0
   -0.4007    0.2386    1.5526 C   0  0  0  0  0  0  0  0  0  0  0  0
    2.7198    1.0354   -1.3410 H   0  0  0  0  0  0  0  0  0  0  0  0
    2.8368   -0.7672   -1.2013 H   0  0  0  0  0  0  0  0  0  0  0  0
    3.8807    0.2815   -0.1205 H   0  0  0  0  0  0  0  0  0  0  0  0
    0.5742   -0.0152   -1.3186 H   0  0  0  0  0  0  0  0  0  0  0  0
    0.3246   -1.7615    0.8996 H   0  0  0  0  0  0  0  0  0  0  0  0
   -1.1143   -1.1887   -1.3610 H   0  0  0  0  0  0  0  0  0  0  0  0
   -2.0209   -2.0094   -0.0146 H   0  0  0  0  0  0  0  0  0  0  0  0
   -2.9872    0.1393   -1.0971 H   0  0  0  0  0  0  0  0  0  0  0  0
   -2.8948    0.1750    0.7361 H   0  0  0  0  0  0  0  0  0  0  0  0
    0.1911    2.1351    0.5651 H   0  0  0  0  0  0  0  0  0  0  0  0
   -1.3525    0.2546    2.0686 H   0  0  0  0  0  0  0  0  0  0  0  0
    0.5202    0.3242    2.1447 H   0  0  0  0  0  0  0  0  0  0  0  0
  1  2  1  0
  2  3  1  0
  3  4  1  0
  4  5  1  0
  5  6  1  0
  6  7  1  0
  7  8  1  0
  8  9  1  0
  8  3  1  0
  9  4  1  0
  1 10  1  0
  1 11  1  0
  1 12  1  0
  3 13  1  0
  4 14  1  0
  5 15  1  0
  5 16  1  0
  6 17  1  0
  6 18  1  0
  8 19  1  0
  9 20  1  0
  9 21  1  0
M  END
