
     RDKit          3D

 19 20  0  0  0  0  0  0  0  0999 V2000
    2.4485   -0.7379   -0.2892 C   0  0  0  0  0  0  0  0  0  0  0  0
    1.0612   -0.7613   -0.2362 O   0  0  0  0  0  0  0  0  0  0  0  0
    0.4939    0.3168    0.3425 C   0  0  0  0  0  0  0  0  0  0  0  0
   -0.4474    0.0806    1.5375 C   0  0  0  0  0  0  0  0  0  0  0  0
   -0.7656    1.2448    2.1807 O   0  0  0  0  0  0  0  0  0  0  0  0
   -1.3651   -0.3807    0.4361 C   0  0  0  0  0  0  0  0  0  0  0  0
   -0.8894   -1.6153   -0.0132 O   0  0  0  0  0  0  0  0  0  0  0  0
   -1.9850    0.3648   -0.6078 C   0  0  0  0  0  0  0  0  0  0  0  0
   -0.7451    0.9231   -0.2164 C   0  0  0  0  0  0  0  0  0  0  0  0
    2.7936    0.1414   -0.8676 H   0  0  0  0  0  0  0  0  0  0  0  0
    2.8152   -0.7474    0.7539 H   0  0  0  0  0  0  0  0  0  0  0  0
    2.7837   -1.6734   -0.7652 H   0  0  0  0  0  0  0  0  0  0  0  0
    1.2691    1.0343    0.6736 H   0  0  0  0  0  0  0  0  0  0  0  0
   -0.1351   -0.6975    2.2235 H   0  0  0  0  0  0  0  0  0  0  0  0
    0.0275    1.8286    2.1870 H   0  0  0  0  0  0  0  0  0  0  0  0
   -1.3672   -1.9767   -0.7709 H   0  0  0  0  0  0  0  0  0  0  0  0
   -2.0445    0.0044   -1.6818 H   0  0  0  0  0  0  0  0  0  0  0  0
   -3.0100    0.7768   -0.3487 H   0  0  0  0  0  0  0  0  0  0  0  0
   -0.9381    1.8748    0.3838 H   0  0  0  0  0  0  0  0  0  0  0  0
  1  2  1  0
  2  3  1  0
  3  4  1  0
  4  5  1  0
  4  6  1  0
  6  7  1  0
  6  8  1  0
  8  9  1  0
  9  3  1  0
  9  6  1  0
  1 10  1  0
  1 11  1  0
  1 12  1  0
  3 13  1  0
  4 14  1  0
  5 15  1  0
  7 16  1  0
  8 17  1  0
  8 18  1  0
  9 19  1  0
M  END
