
     RDKit          3D

 23 24  0  0  0  0  0  0  0  0999 V2000
    2.8695    0.9174   -0.3518 C   0  0  0  0  0  0  0  0  0  0  0  0
    1.6114    1.0176    0.2271 O   0  0  0  0  0  0  0  0  0  0  0  0
    1.1133   -0.2363    0.4501 C   0  0  0  0  0  0  0  0  0  0  0  0
    0.5072   -0.4856    1.8720 C   0  0  0  0  0  0  0  0  0  0  0  0
   -0.2790   -0.5590    0.6587 C   0  0  0  0  0  0  0  0  0  0  0  0
   -0.9540   -1.7820    0.1387 C   0  0  0  0  0  0  0  0  0  0  0  0
   -1.9763   -0.8685   -0.5111 C   0  0  0  0  0  0  0  0  0  0  0  0
   -1.4719    0.2319    0.4017 C   0  0  0  0  0  0  0  0  0  0  0  0
   -1.3552    1.5806   -0.2273 C   0  0  0  0  0  0  0  0  0  0  0  0
    3.2758    1.9374   -0.5337 H   0  0  0  0  0  0  0  0  0  0  0  0
    2.8447    0.4129   -1.3382 H   0  0  0  0  0  0  0  0  0  0  0  0
    3.5837    0.3558    0.2780 H   0  0  0  0  0  0  0  0  0  0  0  0
    1.7841   -1.0649    0.1378 H   0  0  0  0  0  0  0  0  0  0  0  0
    0.7986   -1.3911    2.3926 H   0  0  0  0  0  0  0  0  0  0  0  0
    0.4658    0.4319    2.5141 H   0  0  0  0  0  0  0  0  0  0  0  0
   -1.3712   -2.4558    0.9127 H   0  0  0  0  0  0  0  0  0  0  0  0
   -0.3824   -2.3567   -0.6188 H   0  0  0  0  0  0  0  0  0  0  0  0
   -3.0316   -1.1630   -0.3317 H   0  0  0  0  0  0  0  0  0  0  0  0
   -1.7218   -0.6347   -1.5630 H   0  0  0  0  0  0  0  0  0  0  0  0
   -2.1437    0.2687    1.3089 H   0  0  0  0  0  0  0  0  0  0  0  0
   -1.5864    2.3704    0.5243 H   0  0  0  0  0  0  0  0  0  0  0  0
   -0.3935    1.8151   -0.6709 H   0  0  0  0  0  0  0  0  0  0  0  0
   -2.1870    1.6579   -0.9870 H   0  0  0  0  0  0  0  0  0  0  0  0
  1  2  1  0
  2  3  1  0
  3  4  1  0
  4  5  1  0
  5  6  1  0
  6  7  1  0
  7  8  1  0
  8  9  1  0
  5  3  1  0
  8  5  1  0
  1 10  1  0
  1 11  1  0
  1 12  1  0
  3 13  1  0
  4 14  1  0
  4 15  1  0
  6 16  1  0
  6 17  1  0
  7 18  1  0
  7 19  1  0
  8 20  1  0
  9 21  1  0
  9 22  1  0
  9 23  1  0
M  END
