
     RDKit          3D

 21 22  0  0  0  0  0  0  0  0999 V2000
    2.5563    0.9446   -0.2363 C   0  0  0  0  0  0  0  0  0  0  0  0
    1.2314    0.7033   -0.5875 O   0  0  0  0  0  0  0  0  0  0  0  0
    0.6489   -0.1286    0.3548 C   0  0  0  0  0  0  0  0  0  0  0  0
    0.2335   -1.4170   -0.3581 C   0  0  0  0  0  0  0  0  0  0  0  0
   -0.9399   -0.8951   -1.1909 C   0  0  0  0  0  0  0  0  0  0  0  0
   -1.7205   -0.1334   -0.1686 C   0  0  0  0  0  0  0  0  0  0  0  0
   -1.5042    1.3044    0.0859 C   0  0  0  0  0  0  0  0  0  0  0  0
   -0.6680    0.3753    0.8581 C   0  0  0  0  0  0  0  0  0  0  0  0
   -0.9845    0.1168    2.1996 O   0  0  0  0  0  0  0  0  0  0  0  0
    2.5444    1.4308    0.7633 H   0  0  0  0  0  0  0  0  0  0  0  0
    3.0594    1.5820   -0.9880 H   0  0  0  0  0  0  0  0  0  0  0  0
    3.1350   -0.0063   -0.1565 H   0  0  0  0  0  0  0  0  0  0  0  0
    1.3279   -0.4236    1.1676 H   0  0  0  0  0  0  0  0  0  0  0  0
   -0.1412   -2.1652    0.3611 H   0  0  0  0  0  0  0  0  0  0  0  0
    1.0276   -1.7931   -1.0055 H   0  0  0  0  0  0  0  0  0  0  0  0
   -1.5138   -1.7720   -1.5397 H   0  0  0  0  0  0  0  0  0  0  0  0
   -0.5533   -0.2624   -2.0138 H   0  0  0  0  0  0  0  0  0  0  0  0
   -2.5985   -0.6694    0.2736 H   0  0  0  0  0  0  0  0  0  0  0  0
   -1.0924    1.9412   -0.7211 H   0  0  0  0  0  0  0  0  0  0  0  0
   -2.3170    1.8118    0.6548 H   0  0  0  0  0  0  0  0  0  0  0  0
   -1.7313   -0.5441    2.2471 H   0  0  0  0  0  0  0  0  0  0  0  0
  1  2  1  0
  2  3  1  0
  3  4  1  0
  4  5  1  0
  5  6  1  0
  6  7  1  0
  7  8  1  0
  8  9  1  0
  8  3  1  0
  8  6  1  0
  1 10  1  0
  1 11  1  0
  1 12  1  0
  3 13  1  0
  4 14  1  0
  4 15  1  0
  5 16  1  0
  5 17  1  0
  6 18  1  0
  7 19  1  0
  7 20  1  0
  9 21  1  0
M  END
