
     RDKit          3D

 19 20  0  0  0  0  0  0  0  0999 V2000
    2.5790    0.5684    0.4099 C   0  0  0  0  0  0  0  0  0  0  0  0
    1.4371    0.4964   -0.3646 O   0  0  0  0  0  0  0  0  0  0  0  0
    0.5055   -0.4098    0.0764 C   0  0  0  0  0  0  0  0  0  0  0  0
   -0.0281   -1.2824   -1.0574 C   0  0  0  0  0  0  0  0  0  0  0  0
   -1.3776   -0.6487   -0.8629 C   0  0  0  0  0  0  0  0  0  0  0  0
   -2.0036   -0.6671    0.4997 C   0  0  0  0  0  0  0  0  0  0  0  0
   -0.8457    0.2049    0.2003 C   0  0  0  0  0  0  0  0  0  0  0  0
   -1.0413    1.6520    0.2714 C   0  0  0  0  0  0  0  0  0  0  0  0
   -1.2213    2.1460    1.3934 O   0  0  0  0  0  0  0  0  0  0  0  0
    3.2446    1.3279   -0.0469 H   0  0  0  0  0  0  0  0  0  0  0  0
    3.0565   -0.4246    0.5169 H   0  0  0  0  0  0  0  0  0  0  0  0
    2.2899    0.9946    1.4115 H   0  0  0  0  0  0  0  0  0  0  0  0
    0.7632   -0.9790    0.9924 H   0  0  0  0  0  0  0  0  0  0  0  0
    0.3790   -0.9967   -2.0459 H   0  0  0  0  0  0  0  0  0  0  0  0
    0.0264   -2.3661   -0.8628 H   0  0  0  0  0  0  0  0  0  0  0  0
   -1.9196   -0.3060   -1.7387 H   0  0  0  0  0  0  0  0  0  0  0  0
   -1.8083   -1.4933    1.2049 H   0  0  0  0  0  0  0  0  0  0  0  0
   -2.9884   -0.1621    0.5469 H   0  0  0  0  0  0  0  0  0  0  0  0
   -1.0473    2.3455   -0.5446 H   0  0  0  0  0  0  0  0  0  0  0  0
  1  2  1  0
  2  3  1  0
  3  4  1  0
  4  5  1  0
  5  6  1  0
  6  7  1  0
  7  8  1  0
  8  9  2  0
  7  3  1  0
  7  5  1  0
  1 10  1  0
  1 11  1  0
  1 12  1  0
  3 13  1  0
  4 14  1  0
  4 15  1  0
  5 16  1  0
  6 17  1  0
  6 18  1  0
  8 19  1  0
M  END
