
     RDKit          3D

 17 18  0  0  0  0  0  0  0  0999 V2000
   -3.0294    0.1434    0.4490 C   0  0  0  0  0  0  0  0  0  0  0  0
   -1.7785   -0.3515    0.7452 O   0  0  0  0  0  0  0  0  0  0  0  0
   -0.8043    0.0123   -0.1983 C   0  0  0  0  0  0  0  0  0  0  0  0
    0.1864   -0.9535   -0.5144 C   0  0  0  0  0  0  0  0  0  0  0  0
    1.3266   -1.3148    0.2029 O   0  0  0  0  0  0  0  0  0  0  0  0
    1.8341   -0.1376   -0.4150 C   0  0  0  0  0  0  0  0  0  0  0  0
    3.0319    0.3851    0.2641 C   0  0  0  0  0  0  0  0  0  0  0  0
    3.5050   -0.1733    1.2571 O   0  0  0  0  0  0  0  0  0  0  0  0
    0.5342    0.4287    0.1747 C   0  0  0  0  0  0  0  0  0  0  0  0
   -3.3375   -0.2626   -0.5524 H   0  0  0  0  0  0  0  0  0  0  0  0
   -3.0064    1.2639    0.3092 H   0  0  0  0  0  0  0  0  0  0  0  0
   -3.7259   -0.1630    1.2266 H   0  0  0  0  0  0  0  0  0  0  0  0
   -1.2678    0.6448   -1.0138 H   0  0  0  0  0  0  0  0  0  0  0  0
    0.4680   -1.0011   -1.6134 H   0  0  0  0  0  0  0  0  0  0  0  0
    1.9008   -0.1557   -1.4953 H   0  0  0  0  0  0  0  0  0  0  0  0
    3.4927    1.2746   -0.1272 H   0  0  0  0  0  0  0  0  0  0  0  0
    0.6701    0.3603    1.3009 H   0  0  0  0  0  0  0  0  0  0  0  0
  1  2  1  0
  2  3  1  0
  3  4  1  0
  4  5  1  0
  5  6  1  0
  6  7  1  0
  7  8  2  0
  6  9  1  0
  9  3  1  0
  9  4  1  0
  1 10  1  0
  1 11  1  0
  1 12  1  0
  3 13  1  0
  4 14  1  0
  6 15  1  0
  7 16  1  0
  9 17  1  0
M  END
