
     RDKit          3D

 19 19  0  0  0  0  0  0  0  0999 V2000
    1.5208    1.5696    0.0965 C   0  0  0  0  0  0  0  0  0  0  0  0
    1.5395    0.2381   -0.2545 O   0  0  0  0  0  0  0  0  0  0  0  0
    0.3345   -0.4030   -0.1234 C   0  0  0  0  0  0  0  0  0  0  0  0
    0.5584   -1.8590   -0.5576 C   0  0  0  0  0  0  0  0  0  0  0  0
   -0.1935   -0.4437    1.2398 C   0  0  0  0  0  0  0  0  0  0  0  0
   -1.4026    0.0880    1.2890 C   0  0  0  0  0  0  0  0  0  0  0  0
   -1.8304    0.5444   -0.0131 C   0  0  0  0  0  0  0  0  0  0  0  0
   -2.8865    1.1600   -0.3322 O   0  0  0  0  0  0  0  0  0  0  0  0
   -0.7551    0.1473   -0.9891 C   0  0  0  0  0  0  0  0  0  0  0  0
    2.5618    1.9584   -0.0596 H   0  0  0  0  0  0  0  0  0  0  0  0
    1.2858    1.7311    1.1861 H   0  0  0  0  0  0  0  0  0  0  0  0
    0.8206    2.1402   -0.5391 H   0  0  0  0  0  0  0  0  0  0  0  0
    0.9980   -1.8699   -1.5772 H   0  0  0  0  0  0  0  0  0  0  0  0
    1.2767   -2.2964    0.1422 H   0  0  0  0  0  0  0  0  0  0  0  0
   -0.4150   -2.3873   -0.5224 H   0  0  0  0  0  0  0  0  0  0  0  0
    0.3216   -0.8490    2.0981 H   0  0  0  0  0  0  0  0  0  0  0  0
   -2.0429    0.1940    2.1781 H   0  0  0  0  0  0  0  0  0  0  0  0
   -0.4527    0.9807   -1.6328 H   0  0  0  0  0  0  0  0  0  0  0  0
   -1.2391   -0.6434   -1.6288 H   0  0  0  0  0  0  0  0  0  0  0  0
  1  2  1  0
  2  3  1  0
  3  4  1  0
  3  5  1  0
  5  6  2  0
  6  7  1  0
  7  8  2  0
  7  9  1  0
  9  3  1  0
  1 10  1  0
  1 11  1  0
  1 12  1  0
  4 13  1  0
  4 14  1  0
  4 15  1  0
  5 16  1  0
  6 17  1  0
  9 18  1  0
  9 19  1  0
M  END
