
     RDKit          3D

 21 22  0  0  0  0  0  0  0  0999 V2000
    2.1668    0.0039   -0.7400 C   0  0  0  0  0  0  0  0  0  0  0  0
    1.3531   -1.1128   -0.5819 O   0  0  0  0  0  0  0  0  0  0  0  0
    0.0902   -0.7648   -0.1639 C   0  0  0  0  0  0  0  0  0  0  0  0
   -0.6386    0.1187   -1.0958 C   0  0  0  0  0  0  0  0  0  0  0  0
   -0.7530    1.4167   -0.3310 C   0  0  0  0  0  0  0  0  0  0  0  0
   -0.8869    0.9778    1.1251 C   0  0  0  0  0  0  0  0  0  0  0  0
   -0.0111   -0.2130    1.2249 C   0  0  0  0  0  0  0  0  0  0  0  0
   -0.5296   -1.3892    1.6888 O   0  0  0  0  0  0  0  0  0  0  0  0
   -0.7621   -1.8434    0.4100 C   0  0  0  0  0  0  0  0  0  0  0  0
    2.2727    0.5678    0.2197 H   0  0  0  0  0  0  0  0  0  0  0  0
    1.7285    0.6304   -1.5348 H   0  0  0  0  0  0  0  0  0  0  0  0
    3.1993   -0.3454   -1.0161 H   0  0  0  0  0  0  0  0  0  0  0  0
   -0.1723    0.2113   -2.0827 H   0  0  0  0  0  0  0  0  0  0  0  0
   -1.6922   -0.2497   -1.2298 H   0  0  0  0  0  0  0  0  0  0  0  0
   -1.6640    1.9818   -0.5852 H   0  0  0  0  0  0  0  0  0  0  0  0
    0.1114    2.0587   -0.4893 H   0  0  0  0  0  0  0  0  0  0  0  0
   -1.9246    0.6826    1.3621 H   0  0  0  0  0  0  0  0  0  0  0  0
   -0.5392    1.8292    1.7373 H   0  0  0  0  0  0  0  0  0  0  0  0
    0.9487    0.0214    1.7251 H   0  0  0  0  0  0  0  0  0  0  0  0
   -1.8557   -1.6973    0.1679 H   0  0  0  0  0  0  0  0  0  0  0  0
   -0.4413   -2.8844    0.1896 H   0  0  0  0  0  0  0  0  0  0  0  0
  1  2  1  0
  2  3  1  0
  3  4  1  0
  4  5  1  0
  5  6  1  0
  6  7  1  0
  7  8  1  0
  8  9  1  0
  7  3  1  0
  9  3  1  0
  1 10  1  0
  1 11  1  0
  1 12  1  0
  4 13  1  0
  4 14  1  0
  5 15  1  0
  5 16  1  0
  6 17  1  0
  6 18  1  0
  7 19  1  0
  9 20  1  0
  9 21  1  0
M  END
