
     RDKit          3D

 21 21  0  0  0  0  0  0  0  0999 V2000
    2.5217   -0.8937   -0.3903 C   0  0  0  0  0  0  0  0  0  0  0  0
    1.2049   -0.6520   -0.8419 O   0  0  0  0  0  0  0  0  0  0  0  0
    0.5357    0.2021   -0.0149 C   0  0  0  0  0  0  0  0  0  0  0  0
    0.0500    1.4622   -0.7081 C   0  0  0  0  0  0  0  0  0  0  0  0
   -0.9955    1.9302    0.2467 C   0  0  0  0  0  0  0  0  0  0  0  0
   -1.4519    0.9070    0.9622 C   0  0  0  0  0  0  0  0  0  0  0  0
   -0.7457   -0.3480    0.5456 C   0  0  0  0  0  0  0  0  0  0  0  0
   -1.6021   -1.0096   -0.4992 C   0  0  0  0  0  0  0  0  0  0  0  0
   -0.5817   -1.1393    1.6540 O   0  0  0  0  0  0  0  0  0  0  0  0
    3.0244   -1.5866   -1.0857 H   0  0  0  0  0  0  0  0  0  0  0  0
    2.4971   -1.3954    0.6172 H   0  0  0  0  0  0  0  0  0  0  0  0
    3.0715    0.0623   -0.2502 H   0  0  0  0  0  0  0  0  0  0  0  0
    1.1499    0.5459    0.8553 H   0  0  0  0  0  0  0  0  0  0  0  0
   -0.4009    1.2303   -1.7008 H   0  0  0  0  0  0  0  0  0  0  0  0
    0.8396    2.1955   -0.8654 H   0  0  0  0  0  0  0  0  0  0  0  0
   -1.3612    2.9419    0.3744 H   0  0  0  0  0  0  0  0  0  0  0  0
   -2.2159    0.9249    1.7388 H   0  0  0  0  0  0  0  0  0  0  0  0
   -1.5791   -0.4560   -1.4470 H   0  0  0  0  0  0  0  0  0  0  0  0
   -2.6712   -0.9681   -0.1437 H   0  0  0  0  0  0  0  0  0  0  0  0
   -1.3330   -2.0633   -0.5783 H   0  0  0  0  0  0  0  0  0  0  0  0
    0.0433   -1.8904    1.5314 H   0  0  0  0  0  0  0  0  0  0  0  0
  1  2  1  0
  2  3  1  0
  3  4  1  0
  4  5  1  0
  5  6  2  0
  6  7  1  0
  7  8  1  0
  7  9  1  0
  7  3  1  0
  1 10  1  0
  1 11  1  0
  1 12  1  0
  3 13  1  0
  4 14  1  0
  4 15  1  0
  5 16  1  0
  6 17  1  0
  8 18  1  0
  8 19  1  0
  8 20  1  0
  9 21  1  0
M  END
