
     RDKit          3D

 19 19  0  0  0  0  0  0  0  0999 V2000
   -1.3908   -1.3270    1.0153 C   0  0  0  0  0  0  0  0  0  0  0  0
   -0.5937   -1.1741   -0.0718 O   0  0  0  0  0  0  0  0  0  0  0  0
   -0.0809    0.0399   -0.3563 C   0  0  0  0  0  0  0  0  0  0  0  0
   -0.8970    1.2544   -0.6365 C   0  0  0  0  0  0  0  0  0  0  0  0
   -1.7250    1.0758   -1.7435 O   0  0  0  0  0  0  0  0  0  0  0  0
    1.2312   -0.0071   -1.1692 C   0  0  0  0  0  0  0  0  0  0  0  0
    1.3058    0.3615    0.2639 C   0  0  0  0  0  0  0  0  0  0  0  0
    1.7532   -0.5971    1.2840 C   0  0  0  0  0  0  0  0  0  0  0  0
    2.3410   -0.1876    2.2672 O   0  0  0  0  0  0  0  0  0  0  0  0
   -2.3122   -0.7225    1.0294 H   0  0  0  0  0  0  0  0  0  0  0  0
   -0.8584   -1.1504    1.9799 H   0  0  0  0  0  0  0  0  0  0  0  0
   -1.7236   -2.3876    1.0517 H   0  0  0  0  0  0  0  0  0  0  0  0
   -0.2136    2.0957   -0.8847 H   0  0  0  0  0  0  0  0  0  0  0  0
   -1.5279    1.5943    0.1923 H   0  0  0  0  0  0  0  0  0  0  0  0
   -1.4620    1.6321   -2.5123 H   0  0  0  0  0  0  0  0  0  0  0  0
    1.6198   -1.0110   -1.4590 H   0  0  0  0  0  0  0  0  0  0  0  0
    1.4076    0.7552   -1.9233 H   0  0  0  0  0  0  0  0  0  0  0  0
    1.5388    1.4173    0.4625 H   0  0  0  0  0  0  0  0  0  0  0  0
    1.5879   -1.6619    1.2102 H   0  0  0  0  0  0  0  0  0  0  0  0
  1  2  1  0
  2  3  1  0
  3  4  1  0
  4  5  1  0
  3  6  1  0
  6  7  1  0
  7  8  1  0
  8  9  2  0
  7  3  1  0
  1 10  1  0
  1 11  1  0
  1 12  1  0
  4 13  1  0
  4 14  1  0
  5 15  1  0
  6 16  1  0
  6 17  1  0
  7 18  1  0
  8 19  1  0
M  END
