
     RDKit          3D

 21 23  0  0  0  0  0  0  0  0999 V2000
    2.6675   -0.5307    0.0074 C   0  0  0  0  0  0  0  0  0  0  0  0
    1.6336   -0.9863    0.7826 O   0  0  0  0  0  0  0  0  0  0  0  0
    0.4564   -0.4265    0.3990 C   0  0  0  0  0  0  0  0  0  0  0  0
   -0.8356   -0.8004    1.1383 C   0  0  0  0  0  0  0  0  0  0  0  0
   -1.8031    0.0321    0.3265 C   0  0  0  0  0  0  0  0  0  0  0  0
   -1.1508    1.3955    0.4519 C   0  0  0  0  0  0  0  0  0  0  0  0
    0.2789    0.9916    0.0456 C   0  0  0  0  0  0  0  0  0  0  0  0
    0.1039   -0.0480   -0.9706 C   0  0  0  0  0  0  0  0  0  0  0  0
   -1.4006   -0.3394   -1.0814 C   0  0  0  0  0  0  0  0  0  0  0  0
    2.5636   -0.7481   -1.0748 H   0  0  0  0  0  0  0  0  0  0  0  0
    2.8563    0.5637    0.1988 H   0  0  0  0  0  0  0  0  0  0  0  0
    3.6046   -1.0332    0.3854 H   0  0  0  0  0  0  0  0  0  0  0  0
   -0.7687   -0.3795    2.1720 H   0  0  0  0  0  0  0  0  0  0  0  0
   -1.0369   -1.8708    1.1076 H   0  0  0  0  0  0  0  0  0  0  0  0
   -2.8276   -0.0343    0.5749 H   0  0  0  0  0  0  0  0  0  0  0  0
   -1.1652    1.7069    1.5000 H   0  0  0  0  0  0  0  0  0  0  0  0
   -1.5722    2.1296   -0.2478 H   0  0  0  0  0  0  0  0  0  0  0  0
    1.0611    1.7398    0.0584 H   0  0  0  0  0  0  0  0  0  0  0  0
    0.7440   -0.2119   -1.8254 H   0  0  0  0  0  0  0  0  0  0  0  0
   -1.5323   -1.4276   -1.2176 H   0  0  0  0  0  0  0  0  0  0  0  0
   -1.8767    0.2776   -1.8529 H   0  0  0  0  0  0  0  0  0  0  0  0
  1  2  1  0
  2  3  1  0
  3  4  1  0
  4  5  1  0
  5  6  1  0
  6  7  1  0
  7  8  1  0
  8  9  1  0
  7  3  1  0
  8  3  1  0
  9  5  1  0
  1 10  1  0
  1 11  1  0
  1 12  1  0
  4 13  1  0
  4 14  1  0
  5 15  1  0
  6 16  1  0
  6 17  1  0
  7 18  1  0
  8 19  1  0
  9 20  1  0
  9 21  1  0
M  END
