
     RDKit          3D

 23 23  0  0  0  0  0  0  0  0999 V2000
    1.9972   -0.9923    0.3724 C   0  0  0  0  0  0  0  0  0  0  0  0
    1.5158    0.2541    0.0619 O   0  0  0  0  0  0  0  0  0  0  0  0
    0.1698    0.4250    0.3421 C   0  0  0  0  0  0  0  0  0  0  0  0
   -0.0630    0.2105    1.8152 C   0  0  0  0  0  0  0  0  0  0  0  0
   -0.1910    1.8303   -0.0942 C   0  0  0  0  0  0  0  0  0  0  0  0
   -0.2807    1.6095   -1.6123 C   0  0  0  0  0  0  0  0  0  0  0  0
   -0.9716    0.2783   -1.6280 C   0  0  0  0  0  0  0  0  0  0  0  0
   -0.7086   -0.3874   -0.5112 C   0  0  0  0  0  0  0  0  0  0  0  0
   -1.2286   -1.7471   -0.1830 C   0  0  0  0  0  0  0  0  0  0  0  0
    1.8533   -1.1604    1.4553 H   0  0  0  0  0  0  0  0  0  0  0  0
    3.1155   -0.9464    0.2139 H   0  0  0  0  0  0  0  0  0  0  0  0
    1.5965   -1.8051   -0.2627 H   0  0  0  0  0  0  0  0  0  0  0  0
   -0.0982   -0.8856    1.9806 H   0  0  0  0  0  0  0  0  0  0  0  0
    0.7792    0.6329    2.3847 H   0  0  0  0  0  0  0  0  0  0  0  0
   -1.0530    0.6097    2.1202 H   0  0  0  0  0  0  0  0  0  0  0  0
   -1.2042    2.0954    0.2837 H   0  0  0  0  0  0  0  0  0  0  0  0
    0.5779    2.5606    0.1540 H   0  0  0  0  0  0  0  0  0  0  0  0
    0.7514    1.4917   -1.9684 H   0  0  0  0  0  0  0  0  0  0  0  0
   -0.8531    2.3939   -2.1081 H   0  0  0  0  0  0  0  0  0  0  0  0
   -1.6033   -0.1256   -2.4128 H   0  0  0  0  0  0  0  0  0  0  0  0
   -1.2166   -2.3513   -1.1253 H   0  0  0  0  0  0  0  0  0  0  0  0
   -0.6116   -2.2553    0.5601 H   0  0  0  0  0  0  0  0  0  0  0  0
   -2.2732   -1.7355    0.1618 H   0  0  0  0  0  0  0  0  0  0  0  0
  1  2  1  0
  2  3  1  0
  3  4  1  0
  3  5  1  0
  5  6  1  0
  6  7  1  0
  7  8  2  0
  8  9  1  0
  8  3  1  0
  1 10  1  0
  1 11  1  0
  1 12  1  0
  4 13  1  0
  4 14  1  0
  4 15  1  0
  5 16  1  0
  5 17  1  0
  6 18  1  0
  6 19  1  0
  7 20  1  0
  9 21  1  0
  9 22  1  0
  9 23  1  0
M  END
