
     RDKit          3D

 21 22  0  0  0  0  0  0  0  0999 V2000
    2.4898    0.5468    0.4584 C   0  0  0  0  0  0  0  0  0  0  0  0
    1.1973    0.9210    0.2632 O   0  0  0  0  0  0  0  0  0  0  0  0
    0.3258    0.0031   -0.2370 C   0  0  0  0  0  0  0  0  0  0  0  0
   -1.0827    0.5792   -0.4104 C   0  0  0  0  0  0  0  0  0  0  0  0
   -1.0837    1.6746   -1.2904 O   0  0  0  0  0  0  0  0  0  0  0  0
   -2.2859   -0.2222   -0.2126 C   0  0  0  0  0  0  0  0  0  0  0  0
   -1.8354    0.7033    0.8924 C   0  0  0  0  0  0  0  0  0  0  0  0
    0.7033   -1.1506   -1.0603 C   0  0  0  0  0  0  0  0  0  0  0  0
    0.4210   -1.3817    0.3898 C   0  0  0  0  0  0  0  0  0  0  0  0
    2.6939   -0.2690    1.1444 H   0  0  0  0  0  0  0  0  0  0  0  0
    3.0041    0.4212   -0.5340 H   0  0  0  0  0  0  0  0  0  0  0  0
    3.0131    1.4475    0.9011 H   0  0  0  0  0  0  0  0  0  0  0  0
   -0.6134    2.4122   -0.7973 H   0  0  0  0  0  0  0  0  0  0  0  0
   -2.3101   -1.3028   -0.0710 H   0  0  0  0  0  0  0  0  0  0  0  0
   -3.1955    0.1489   -0.7710 H   0  0  0  0  0  0  0  0  0  0  0  0
   -2.3702    1.6398    1.0685 H   0  0  0  0  0  0  0  0  0  0  0  0
   -1.4268    0.2359    1.8048 H   0  0  0  0  0  0  0  0  0  0  0  0
    1.7006   -1.2983   -1.4891 H   0  0  0  0  0  0  0  0  0  0  0  0
   -0.1080   -1.5509   -1.7340 H   0  0  0  0  0  0  0  0  0  0  0  0
    1.2822   -1.6830    0.9824 H   0  0  0  0  0  0  0  0  0  0  0  0
   -0.5193   -1.8750    0.7023 H   0  0  0  0  0  0  0  0  0  0  0  0
  1  2  1  0
  2  3  1  0
  3  4  1  0
  4  5  1  0
  4  6  1  0
  6  7  1  0
  3  8  1  0
  8  9  1  0
  9  3  1  0
  7  4  1  0
  1 10  1  0
  1 11  1  0
  1 12  1  0
  5 13  1  0
  6 14  1  0
  6 15  1  0
  7 16  1  0
  7 17  1  0
  8 18  1  0
  8 19  1  0
  9 20  1  0
  9 21  1  0
M  END
