
     RDKit          3D

 23 24  0  0  0  0  0  0  0  0999 V2000
    2.5006    0.3224    0.8532 C   0  0  0  0  0  0  0  0  0  0  0  0
    1.1928    0.8476    0.7354 O   0  0  0  0  0  0  0  0  0  0  0  0
    0.4251    0.0516   -0.1080 C   0  0  0  0  0  0  0  0  0  0  0  0
    0.9769   -0.0520   -1.4836 C   0  0  0  0  0  0  0  0  0  0  0  0
    0.0224   -1.2311    0.5658 C   0  0  0  0  0  0  0  0  0  0  0  0
   -1.2903   -0.6803    0.9898 C   0  0  0  0  0  0  0  0  0  0  0  0
   -1.4990    0.7333    1.3583 C   0  0  0  0  0  0  0  0  0  0  0  0
   -1.0315    0.4878   -0.0081 C   0  0  0  0  0  0  0  0  0  0  0  0
   -1.9041    0.4536   -1.2032 C   0  0  0  0  0  0  0  0  0  0  0  0
    3.0739    0.9842    1.5303 H   0  0  0  0  0  0  0  0  0  0  0  0
    2.4869   -0.6893    1.2929 H   0  0  0  0  0  0  0  0  0  0  0  0
    3.0225    0.3555   -0.1370 H   0  0  0  0  0  0  0  0  0  0  0  0
    1.5147   -0.9990   -1.6179 H   0  0  0  0  0  0  0  0  0  0  0  0
    0.1982    0.0694   -2.2874 H   0  0  0  0  0  0  0  0  0  0  0  0
    1.6792    0.8138   -1.6608 H   0  0  0  0  0  0  0  0  0  0  0  0
   -0.0951   -2.0647   -0.1832 H   0  0  0  0  0  0  0  0  0  0  0  0
    0.6502   -1.5835    1.3824 H   0  0  0  0  0  0  0  0  0  0  0  0
   -2.1633   -1.3074    0.8118 H   0  0  0  0  0  0  0  0  0  0  0  0
   -0.7371    1.2113    2.0432 H   0  0  0  0  0  0  0  0  0  0  0  0
   -2.5198    1.0263    1.6161 H   0  0  0  0  0  0  0  0  0  0  0  0
   -1.7755   -0.5045   -1.7733 H   0  0  0  0  0  0  0  0  0  0  0  0
   -1.7521    1.3194   -1.8510 H   0  0  0  0  0  0  0  0  0  0  0  0
   -2.9756    0.4356   -0.8659 H   0  0  0  0  0  0  0  0  0  0  0  0
  1  2  1  0
  2  3  1  0
  3  4  1  0
  3  5  1  0
  5  6  1  0
  6  7  1  0
  7  8  1  0
  8  9  1  0
  8  3  1  0
  8  6  1  0
  1 10  1  0
  1 11  1  0
  1 12  1  0
  4 13  1  0
  4 14  1  0
  4 15  1  0
  5 16  1  0
  5 17  1  0
  6 18  1  0
  7 19  1  0
  7 20  1  0
  9 21  1  0
  9 22  1  0
  9 23  1  0
M  END
