
     RDKit          3D

 23 23  0  0  0  0  0  0  0  0999 V2000
    2.6319   -0.9245    0.2829 C   0  0  0  0  0  0  0  0  0  0  0  0
    1.4426   -0.5225    0.8886 O   0  0  0  0  0  0  0  0  0  0  0  0
    0.6975    0.1482   -0.0705 C   0  0  0  0  0  0  0  0  0  0  0  0
    0.2740    1.5226    0.4693 C   0  0  0  0  0  0  0  0  0  0  0  0
   -1.0776    1.2610   -0.2136 C   0  0  0  0  0  0  0  0  0  0  0  0
   -1.0495    1.7866   -1.4817 O   0  0  0  0  0  0  0  0  0  0  0  0
   -0.7756   -0.2050   -0.0776 C   0  0  0  0  0  0  0  0  0  0  0  0
   -1.2169   -1.0921   -1.1870 C   0  0  0  0  0  0  0  0  0  0  0  0
   -1.2585   -0.7296    1.2602 C   0  0  0  0  0  0  0  0  0  0  0  0
    3.1572   -0.0181   -0.0715 H   0  0  0  0  0  0  0  0  0  0  0  0
    2.4168   -1.5600   -0.6049 H   0  0  0  0  0  0  0  0  0  0  0  0
    3.2808   -1.5015    0.9758 H   0  0  0  0  0  0  0  0  0  0  0  0
    1.1807    0.2115   -1.0413 H   0  0  0  0  0  0  0  0  0  0  0  0
    0.2160    1.5719    1.5617 H   0  0  0  0  0  0  0  0  0  0  0  0
    0.8355    2.3675    0.0485 H   0  0  0  0  0  0  0  0  0  0  0  0
   -1.9198    1.6128    0.4116 H   0  0  0  0  0  0  0  0  0  0  0  0
   -0.6869    2.7150   -1.4115 H   0  0  0  0  0  0  0  0  0  0  0  0
   -2.2026   -1.5383   -0.9423 H   0  0  0  0  0  0  0  0  0  0  0  0
   -0.5058   -1.9696   -1.2176 H   0  0  0  0  0  0  0  0  0  0  0  0
   -1.2831   -0.6177   -2.1708 H   0  0  0  0  0  0  0  0  0  0  0  0
   -2.3548   -0.4748    1.3043 H   0  0  0  0  0  0  0  0  0  0  0  0
   -1.1124   -1.8253    1.2498 H   0  0  0  0  0  0  0  0  0  0  0  0
   -0.6893   -0.2179    2.0375 H   0  0  0  0  0  0  0  0  0  0  0  0
  1  2  1  0
  2  3  1  0
  3  4  1  0
  4  5  1  0
  5  6  1  0
  5  7  1  0
  7  8  1  0
  7  9  1  0
  7  3  1  0
  1 10  1  0
  1 11  1  0
  1 12  1  0
  3 13  1  0
  4 14  1  0
  4 15  1  0
  5 16  1  0
  6 17  1  0
  8 18  1  0
  8 19  1  0
  8 20  1  0
  9 21  1  0
  9 22  1  0
  9 23  1  0
M  END
