
     RDKit          3D

 17 18  0  0  0  0  0  0  0  0999 V2000
    2.2595   -0.5153    0.4521 C   0  0  0  0  0  0  0  0  0  0  0  0
    1.1647   -0.0040    1.1791 O   0  0  0  0  0  0  0  0  0  0  0  0
    0.0999    0.1839    0.3451 C   0  0  0  0  0  0  0  0  0  0  0  0
   -0.5211   -0.9328   -0.4242 C   0  0  0  0  0  0  0  0  0  0  0  0
   -1.8980   -0.3609   -0.0778 C   0  0  0  0  0  0  0  0  0  0  0  0
   -1.2035    0.6857    0.7421 C   0  0  0  0  0  0  0  0  0  0  0  0
   -0.2584    1.5710   -0.0075 C   0  0  0  0  0  0  0  0  0  0  0  0
    2.0215   -1.4824   -0.0212 H   0  0  0  0  0  0  0  0  0  0  0  0
    2.5468    0.1858   -0.3667 H   0  0  0  0  0  0  0  0  0  0  0  0
    3.1393   -0.5887    1.1360 H   0  0  0  0  0  0  0  0  0  0  0  0
   -0.3569   -1.9535   -0.0181 H   0  0  0  0  0  0  0  0  0  0  0  0
   -0.2997   -0.8317   -1.5068 H   0  0  0  0  0  0  0  0  0  0  0  0
   -2.5044   -1.0236    0.5801 H   0  0  0  0  0  0  0  0  0  0  0  0
   -2.4436   -0.0027   -0.9662 H   0  0  0  0  0  0  0  0  0  0  0  0
   -1.5141    0.9306    1.7559 H   0  0  0  0  0  0  0  0  0  0  0  0
    0.1837    2.3853    0.6008 H   0  0  0  0  0  0  0  0  0  0  0  0
   -0.4157    1.7533   -1.1014 H   0  0  0  0  0  0  0  0  0  0  0  0
  1  2  1  0
  2  3  1  0
  3  4  1  0
  4  5  1  0
  5  6  1  0
  6  7  1  0
  6  3  1  0
  7  3  1  0
  1  8  1  0
  1  9  1  0
  1 10  1  0
  4 11  1  0
  4 12  1  0
  5 13  1  0
  5 14  1  0
  6 15  1  0
  7 16  1  0
  7 17  1  0
M  END
