
     RDKit          3D

 19 19  0  0  0  0  0  0  0  0999 V2000
    2.7114   -0.0456    0.2903 C   0  0  0  0  0  0  0  0  0  0  0  0
    1.4501   -0.2061    0.8353 O   0  0  0  0  0  0  0  0  0  0  0  0
    0.5079    0.0863   -0.1177 C   0  0  0  0  0  0  0  0  0  0  0  0
   -0.3810    1.2437    0.2630 C   0  0  0  0  0  0  0  0  0  0  0  0
   -1.5660    0.8862    0.8539 O   0  0  0  0  0  0  0  0  0  0  0  0
   -2.3942    0.1554    0.0079 C   0  0  0  0  0  0  0  0  0  0  0  0
   -1.6149   -0.6853   -0.9295 C   0  0  0  0  0  0  0  0  0  0  0  0
   -1.9954   -0.9882   -2.0325 O   0  0  0  0  0  0  0  0  0  0  0  0
   -0.2961   -1.1714   -0.4672 C   0  0  0  0  0  0  0  0  0  0  0  0
    2.8816   -0.7175   -0.5886 H   0  0  0  0  0  0  0  0  0  0  0  0
    3.4412   -0.4022    1.0648 H   0  0  0  0  0  0  0  0  0  0  0  0
    2.9216    0.9903   -0.0362 H   0  0  0  0  0  0  0  0  0  0  0  0
    1.0173    0.3695   -1.0584 H   0  0  0  0  0  0  0  0  0  0  0  0
    0.1847    1.8626    0.9980 H   0  0  0  0  0  0  0  0  0  0  0  0
   -0.5641    1.9343   -0.6065 H   0  0  0  0  0  0  0  0  0  0  0  0
   -2.9475   -0.5653    0.6802 H   0  0  0  0  0  0  0  0  0  0  0  0
   -3.0970    0.7882   -0.5633 H   0  0  0  0  0  0  0  0  0  0  0  0
   -0.4695   -1.7699    0.4663 H   0  0  0  0  0  0  0  0  0  0  0  0
    0.2098   -1.7649   -1.2395 H   0  0  0  0  0  0  0  0  0  0  0  0
  1  2  1  0
  2  3  1  0
  3  4  1  0
  4  5  1  0
  5  6  1  0
  6  7  1  0
  7  8  2  0
  7  9  1  0
  9  3  1  0
  1 10  1  0
  1 11  1  0
  1 12  1  0
  3 13  1  0
  4 14  1  0
  4 15  1  0
  6 16  1  0
  6 17  1  0
  9 18  1  0
  9 19  1  0
M  END
