
     RDKit          3D

 21 22  0  0  0  0  0  0  0  0999 V2000
    2.1500   -1.2328   -0.3150 C   0  0  0  0  0  0  0  0  0  0  0  0
    0.9983   -0.6664   -0.8473 O   0  0  0  0  0  0  0  0  0  0  0  0
    0.3729    0.1550    0.0567 C   0  0  0  0  0  0  0  0  0  0  0  0
    1.0699    1.3535    0.6305 C   0  0  0  0  0  0  0  0  0  0  0  0
    0.1266    1.5716   -0.4708 C   0  0  0  0  0  0  0  0  0  0  0  0
   -1.3230    1.8023   -0.2220 C   0  0  0  0  0  0  0  0  0  0  0  0
   -1.8680    0.8115    0.4415 C   0  0  0  0  0  0  0  0  0  0  0  0
   -0.8796   -0.2574    0.7538 C   0  0  0  0  0  0  0  0  0  0  0  0
   -1.3778   -1.6208    0.3525 C   0  0  0  0  0  0  0  0  0  0  0  0
    1.8444   -1.8226    0.5733 H   0  0  0  0  0  0  0  0  0  0  0  0
    2.9342   -0.4758   -0.0815 H   0  0  0  0  0  0  0  0  0  0  0  0
    2.5852   -1.9355   -1.0653 H   0  0  0  0  0  0  0  0  0  0  0  0
    0.8086    1.6442    1.6887 H   0  0  0  0  0  0  0  0  0  0  0  0
    2.1418    1.5328    0.4223 H   0  0  0  0  0  0  0  0  0  0  0  0
    0.5077    1.8342   -1.4723 H   0  0  0  0  0  0  0  0  0  0  0  0
   -1.8390    2.6919   -0.5603 H   0  0  0  0  0  0  0  0  0  0  0  0
   -2.9117    0.7393    0.7467 H   0  0  0  0  0  0  0  0  0  0  0  0
   -0.7043   -0.2278    1.8487 H   0  0  0  0  0  0  0  0  0  0  0  0
   -0.7895   -2.1045   -0.4290 H   0  0  0  0  0  0  0  0  0  0  0  0
   -1.3888   -2.2929    1.2571 H   0  0  0  0  0  0  0  0  0  0  0  0
   -2.4577   -1.4998    0.0719 H   0  0  0  0  0  0  0  0  0  0  0  0
  1  2  1  0
  2  3  1  0
  3  4  1  0
  4  5  1  0
  5  6  1  0
  6  7  2  0
  7  8  1  0
  8  9  1  0
  5  3  1  0
  8  3  1  0
  1 10  1  0
  1 11  1  0
  1 12  1  0
  4 13  1  0
  4 14  1  0
  5 15  1  0
  6 16  1  0
  7 17  1  0
  8 18  1  0
  9 19  1  0
  9 20  1  0
  9 21  1  0
M  END
