
     RDKit          3D

 18 19  0  0  0  0  0  0  0  0999 V2000
   -2.8899    0.4561    0.0710 C   0  0  0  0  0  0  0  0  0  0  0  0
   -1.6779    0.5522    0.7218 O   0  0  0  0  0  0  0  0  0  0  0  0
   -0.6164    0.0389    0.0108 C   0  0  0  0  0  0  0  0  0  0  0  0
    0.2648   -0.9430    0.7354 C   0  0  0  0  0  0  0  0  0  0  0  0
    1.4246   -0.0271    0.4912 C   0  0  0  0  0  0  0  0  0  0  0  0
    2.5398   -0.4212   -0.4253 C   0  0  0  0  0  0  0  0  0  0  0  0
    1.3407    1.2438    1.0054 O   0  0  0  0  0  0  0  0  0  0  0  0
    0.4995    1.0261   -0.0728 C   0  0  0  0  0  0  0  0  0  0  0  0
   -3.6572    0.9038    0.7492 H   0  0  0  0  0  0  0  0  0  0  0  0
   -2.9281    1.0305   -0.8667 H   0  0  0  0  0  0  0  0  0  0  0  0
   -3.1755   -0.6080   -0.0399 H   0  0  0  0  0  0  0  0  0  0  0  0
   -0.9431   -0.3584   -0.9608 H   0  0  0  0  0  0  0  0  0  0  0  0
    0.0884   -1.0437    1.8186 H   0  0  0  0  0  0  0  0  0  0  0  0
    0.4208   -1.9170    0.2239 H   0  0  0  0  0  0  0  0  0  0  0  0
    2.2938   -0.2470   -1.5042 H   0  0  0  0  0  0  0  0  0  0  0  0
    2.8442   -1.4771   -0.3433 H   0  0  0  0  0  0  0  0  0  0  0  0
    3.4257    0.2213   -0.1486 H   0  0  0  0  0  0  0  0  0  0  0  0
    0.7459    1.5698   -0.9769 H   0  0  0  0  0  0  0  0  0  0  0  0
  1  2  1  0
  2  3  1  0
  3  4  1  0
  4  5  1  0
  5  6  1  0
  5  7  1  0
  7  8  1  0
  8  3  1  0
  8  5  1  0
  1  9  1  0
  1 10  1  0
  1 11  1  0
  3 12  1  0
  4 13  1  0
  4 14  1  0
  6 15  1  0
  6 16  1  0
  6 17  1  0
  8 18  1  0
M  END
