
     RDKit          3D

 19 19  0  0  0  0  0  0  0  0999 V2000
    2.0737   -0.2060   -0.4922 C   0  0  0  0  0  0  0  0  0  0  0  0
    0.8103   -0.3901   -1.0340 O   0  0  0  0  0  0  0  0  0  0  0  0
   -0.1168    0.2094   -0.1974 C   0  0  0  0  0  0  0  0  0  0  0  0
    0.0624    1.6719    0.0058 C   0  0  0  0  0  0  0  0  0  0  0  0
   -0.3818   -0.6070    1.0605 C   0  0  0  0  0  0  0  0  0  0  0  0
   -1.3012   -1.4535    0.1665 C   0  0  0  0  0  0  0  0  0  0  0  0
   -1.5685   -0.1430   -0.5674 C   0  0  0  0  0  0  0  0  0  0  0  0
    2.1944   -0.6411    0.5115 H   0  0  0  0  0  0  0  0  0  0  0  0
    2.8219   -0.7351   -1.1435 H   0  0  0  0  0  0  0  0  0  0  0  0
    2.3283    0.8710   -0.4022 H   0  0  0  0  0  0  0  0  0  0  0  0
    0.5709    1.9464    0.9391 H   0  0  0  0  0  0  0  0  0  0  0  0
   -0.9317    2.1997   -0.0251 H   0  0  0  0  0  0  0  0  0  0  0  0
    0.7131    2.0692   -0.8239 H   0  0  0  0  0  0  0  0  0  0  0  0
   -0.9582    0.0123    1.7983 H   0  0  0  0  0  0  0  0  0  0  0  0
    0.4662   -1.1443    1.4717 H   0  0  0  0  0  0  0  0  0  0  0  0
   -0.6829   -2.1300   -0.4235 H   0  0  0  0  0  0  0  0  0  0  0  0
   -2.1149   -1.8456    0.7599 H   0  0  0  0  0  0  0  0  0  0  0  0
   -1.7640   -0.2213   -1.6296 H   0  0  0  0  0  0  0  0  0  0  0  0
   -2.2212    0.5374    0.0255 H   0  0  0  0  0  0  0  0  0  0  0  0
  1  2  1  0
  2  3  1  0
  3  4  1  0
  3  5  1  0
  5  6  1  0
  6  7  1  0
  7  3  1  0
  1  8  1  0
  1  9  1  0
  1 10  1  0
  4 11  1  0
  4 12  1  0
  4 13  1  0
  5 14  1  0
  5 15  1  0
  6 16  1  0
  6 17  1  0
  7 18  1  0
  7 19  1  0
M  END
