
     RDKit          3D

 21 22  0  0  0  0  0  0  0  0999 V2000
    2.6923    0.9124    0.4102 C   0  0  0  0  0  0  0  0  0  0  0  0
    1.8244   -0.0260    0.9798 O   0  0  0  0  0  0  0  0  0  0  0  0
    0.7122   -0.0986    0.1805 C   0  0  0  0  0  0  0  0  0  0  0  0
   -0.1509    1.1029   -0.0734 C   0  0  0  0  0  0  0  0  0  0  0  0
   -1.3487    0.2662    0.3654 C   0  0  0  0  0  0  0  0  0  0  0  0
   -2.4373    0.1400   -0.6660 C   0  0  0  0  0  0  0  0  0  0  0  0
   -0.4488   -0.9375    0.4477 C   0  0  0  0  0  0  0  0  0  0  0  0
   -0.5529   -1.8297    1.4799 O   0  0  0  0  0  0  0  0  0  0  0  0
    0.4344   -1.2833   -0.6728 C   0  0  0  0  0  0  0  0  0  0  0  0
    3.6200    1.0395    0.9866 H   0  0  0  0  0  0  0  0  0  0  0  0
    2.8651    0.5825   -0.6419 H   0  0  0  0  0  0  0  0  0  0  0  0
    2.2011    1.9140    0.3241 H   0  0  0  0  0  0  0  0  0  0  0  0
   -0.2359    1.2614   -1.1859 H   0  0  0  0  0  0  0  0  0  0  0  0
    0.0353    1.9937    0.5212 H   0  0  0  0  0  0  0  0  0  0  0  0
   -1.7324    0.5693    1.3513 H   0  0  0  0  0  0  0  0  0  0  0  0
   -3.2440    0.8909   -0.4439 H   0  0  0  0  0  0  0  0  0  0  0  0
   -2.9245   -0.8479   -0.6778 H   0  0  0  0  0  0  0  0  0  0  0  0
   -2.0548    0.3173   -1.6956 H   0  0  0  0  0  0  0  0  0  0  0  0
   -0.5863   -2.7518    1.0699 H   0  0  0  0  0  0  0  0  0  0  0  0
    0.2146   -1.0742   -1.7238 H   0  0  0  0  0  0  0  0  0  0  0  0
    1.1172   -2.1409   -0.5202 H   0  0  0  0  0  0  0  0  0  0  0  0
  1  2  1  0
  2  3  1  0
  3  4  1  0
  4  5  1  0
  5  6  1  0
  5  7  1  0
  7  8  1  0
  7  9  1  0
  7  3  1  0
  9  3  1  0
  1 10  1  0
  1 11  1  0
  1 12  1  0
  4 13  1  0
  4 14  1  0
  5 15  1  0
  6 16  1  0
  6 17  1  0
  6 18  1  0
  8 19  1  0
  9 20  1  0
  9 21  1  0
M  END
