
     RDKit          3D

 21 21  0  0  0  0  0  0  0  0999 V2000
   -0.9467    2.1509   -0.3297 C   0  0  0  0  0  0  0  0  0  0  0  0
   -0.8940    0.8656   -0.8288 O   0  0  0  0  0  0  0  0  0  0  0  0
   -0.3439   -0.0618    0.0102 C   0  0  0  0  0  0  0  0  0  0  0  0
    1.0785    0.0884    0.4955 C   0  0  0  0  0  0  0  0  0  0  0  0
    2.0630    0.0457   -0.6514 C   0  0  0  0  0  0  0  0  0  0  0  0
    1.3616   -0.9928    1.3264 O   0  0  0  0  0  0  0  0  0  0  0  0
   -1.2968   -0.9061    0.8665 C   0  0  0  0  0  0  0  0  0  0  0  0
   -0.7187   -1.5125   -0.3536 C   0  0  0  0  0  0  0  0  0  0  0  0
   -1.4843   -1.7221   -1.4861 O   0  0  0  0  0  0  0  0  0  0  0  0
   -1.5367    2.2522    0.5975 H   0  0  0  0  0  0  0  0  0  0  0  0
    0.0673    2.5916   -0.1784 H   0  0  0  0  0  0  0  0  0  0  0  0
   -1.4493    2.7828   -1.0954 H   0  0  0  0  0  0  0  0  0  0  0  0
    1.1839    1.0595    0.9991 H   0  0  0  0  0  0  0  0  0  0  0  0
    3.0811    0.1243   -0.2301 H   0  0  0  0  0  0  0  0  0  0  0  0
    1.8712    0.8807   -1.3756 H   0  0  0  0  0  0  0  0  0  0  0  0
    2.0113   -0.9274   -1.1930 H   0  0  0  0  0  0  0  0  0  0  0  0
    1.5738   -0.6297    2.2427 H   0  0  0  0  0  0  0  0  0  0  0  0
   -0.8862   -1.2205    1.8483 H   0  0  0  0  0  0  0  0  0  0  0  0
   -2.3607   -0.6109    0.8253 H   0  0  0  0  0  0  0  0  0  0  0  0
    0.0446   -2.2956   -0.1908 H   0  0  0  0  0  0  0  0  0  0  0  0
   -2.4188   -1.9624   -1.2985 H   0  0  0  0  0  0  0  0  0  0  0  0
  1  2  1  0
  2  3  1  0
  3  4  1  0
  4  5  1  0
  4  6  1  0
  3  7  1  0
  7  8  1  0
  8  9  1  0
  8  3  1  0
  1 10  1  0
  1 11  1  0
  1 12  1  0
  4 13  1  0
  5 14  1  0
  5 15  1  0
  5 16  1  0
  6 17  1  0
  7 18  1  0
  7 19  1  0
  8 20  1  0
  9 21  1  0
M  END
