
     RDKit          3D

 21 23  0  0  0  0  0  0  0  0999 V2000
    3.4211    0.3608    0.2248 C   0  0  0  0  0  0  0  0  0  0  0  0
    2.3424    0.4446   -0.6853 O   0  0  0  0  0  0  0  0  0  0  0  0
    1.1934   -0.1104   -0.1491 C   0  0  0  0  0  0  0  0  0  0  0  0
    0.2556   -0.7196   -1.1119 C   0  0  0  0  0  0  0  0  0  0  0  0
   -1.0728   -1.2701   -0.6856 C   0  0  0  0  0  0  0  0  0  0  0  0
   -1.3503   -0.0081    0.0308 C   0  0  0  0  0  0  0  0  0  0  0  0
   -1.9051    0.0834    1.3760 C   0  0  0  0  0  0  0  0  0  0  0  0
   -2.6214    0.6759    0.1171 C   0  0  0  0  0  0  0  0  0  0  0  0
   -0.0642    0.6309   -0.3888 C   0  0  0  0  0  0  0  0  0  0  0  0
    3.6514   -0.6778    0.4895 H   0  0  0  0  0  0  0  0  0  0  0  0
    4.2766    0.9064   -0.2243 H   0  0  0  0  0  0  0  0  0  0  0  0
    3.0928    0.9677    1.1089 H   0  0  0  0  0  0  0  0  0  0  0  0
    1.3201   -0.5125    0.8747 H   0  0  0  0  0  0  0  0  0  0  0  0
    0.4875   -0.6449   -2.1874 H   0  0  0  0  0  0  0  0  0  0  0  0
   -1.7464   -1.4429   -1.5498 H   0  0  0  0  0  0  0  0  0  0  0  0
   -1.0173   -2.1948   -0.0777 H   0  0  0  0  0  0  0  0  0  0  0  0
   -2.4140   -0.8042    1.8136 H   0  0  0  0  0  0  0  0  0  0  0  0
   -1.5709    0.8256    2.1232 H   0  0  0  0  0  0  0  0  0  0  0  0
   -3.5428    0.1661   -0.1963 H   0  0  0  0  0  0  0  0  0  0  0  0
   -2.6499    1.8034    0.1069 H   0  0  0  0  0  0  0  0  0  0  0  0
   -0.0858    1.5205   -1.0092 H   0  0  0  0  0  0  0  0  0  0  0  0
  1  2  1  0
  2  3  1  0
  3  4  1  0
  4  5  1  0
  5  6  1  0
  6  7  1  0
  7  8  1  0
  6  9  1  0
  9  3  1  0
  9  4  1  0
  8  6  1  0
  1 10  1  0
  1 11  1  0
  1 12  1  0
  3 13  1  0
  4 14  1  0
  5 15  1  0
  5 16  1  0
  7 17  1  0
  7 18  1  0
  8 19  1  0
  8 20  1  0
  9 21  1  0
M  END
