
     RDKit          3D

 19 20  0  0  0  0  0  0  0  0999 V2000
    2.4476    0.7336   -0.5269 C   0  0  0  0  0  0  0  0  0  0  0  0
    1.4212    0.0032   -1.0961 O   0  0  0  0  0  0  0  0  0  0  0  0
    0.5017   -0.3073   -0.1328 C   0  0  0  0  0  0  0  0  0  0  0  0
    0.1222   -1.7518   -0.0014 C   0  0  0  0  0  0  0  0  0  0  0  0
   -0.8915   -2.3231   -0.7036 O   0  0  0  0  0  0  0  0  0  0  0  0
   -1.3197   -1.2820    0.0852 C   0  0  0  0  0  0  0  0  0  0  0  0
   -0.9279    0.0852   -0.4223 C   0  0  0  0  0  0  0  0  0  0  0  0
   -1.4352    1.2421    0.3749 C   0  0  0  0  0  0  0  0  0  0  0  0
   -1.1554    0.1568   -1.7949 O   0  0  0  0  0  0  0  0  0  0  0  0
    2.9725    0.1750    0.2846 H   0  0  0  0  0  0  0  0  0  0  0  0
    3.2281    0.9350   -1.3126 H   0  0  0  0  0  0  0  0  0  0  0  0
    2.1273    1.7202   -0.1430 H   0  0  0  0  0  0  0  0  0  0  0  0
    0.7822    0.0889    0.8648 H   0  0  0  0  0  0  0  0  0  0  0  0
    0.5660   -2.3271    0.8054 H   0  0  0  0  0  0  0  0  0  0  0  0
   -1.7565   -1.4171    1.0662 H   0  0  0  0  0  0  0  0  0  0  0  0
   -2.4982    1.4145    0.0707 H   0  0  0  0  0  0  0  0  0  0  0  0
   -0.7867    2.1138    0.1746 H   0  0  0  0  0  0  0  0  0  0  0  0
   -1.3636    0.9705    1.4488 H   0  0  0  0  0  0  0  0  0  0  0  0
   -2.0342   -0.2304   -2.0525 H   0  0  0  0  0  0  0  0  0  0  0  0
  1  2  1  0
  2  3  1  0
  3  4  1  0
  4  5  1  0
  5  6  1  0
  6  7  1  0
  7  8  1  0
  7  9  1  0
  7  3  1  0
  6  4  1  0
  1 10  1  0
  1 11  1  0
  1 12  1  0
  3 13  1  0
  4 14  1  0
  6 15  1  0
  8 16  1  0
  8 17  1  0
  8 18  1  0
  9 19  1  0
M  END
