
     RDKit          3D

 21 21  0  0  0  0  0  0  0  0999 V2000
    2.7834    0.5483    0.2495 C   0  0  0  0  0  0  0  0  0  0  0  0
    1.5015    0.1287    0.5688 O   0  0  0  0  0  0  0  0  0  0  0  0
    0.8046   -0.4085   -0.4768 C   0  0  0  0  0  0  0  0  0  0  0  0
    0.1395   -1.7392   -0.1603 C   0  0  0  0  0  0  0  0  0  0  0  0
   -1.1991   -1.1963   -0.6279 C   0  0  0  0  0  0  0  0  0  0  0  0
   -0.5832    0.1917   -0.5760 C   0  0  0  0  0  0  0  0  0  0  0  0
   -1.0251    0.8834    0.6965 C   0  0  0  0  0  0  0  0  0  0  0  0
   -2.3687    1.4417    0.5412 C   0  0  0  0  0  0  0  0  0  0  0  0
   -2.8758    2.0385    1.4887 O   0  0  0  0  0  0  0  0  0  0  0  0
    3.2307    0.9585    1.1790 H   0  0  0  0  0  0  0  0  0  0  0  0
    2.6888    1.4346   -0.4396 H   0  0  0  0  0  0  0  0  0  0  0  0
    3.3640   -0.2651   -0.2032 H   0  0  0  0  0  0  0  0  0  0  0  0
    1.3436   -0.4467   -1.4581 H   0  0  0  0  0  0  0  0  0  0  0  0
    0.0988   -1.9578    0.9351 H   0  0  0  0  0  0  0  0  0  0  0  0
    0.5249   -2.5885   -0.7372 H   0  0  0  0  0  0  0  0  0  0  0  0
   -2.0224   -1.3649    0.0923 H   0  0  0  0  0  0  0  0  0  0  0  0
   -1.5133   -1.5266   -1.6292 H   0  0  0  0  0  0  0  0  0  0  0  0
   -0.7700    0.7631   -1.5077 H   0  0  0  0  0  0  0  0  0  0  0  0
   -0.2595    1.6665    0.9525 H   0  0  0  0  0  0  0  0  0  0  0  0
   -0.9662    0.1128    1.5054 H   0  0  0  0  0  0  0  0  0  0  0  0
   -2.8967    1.3259   -0.3932 H   0  0  0  0  0  0  0  0  0  0  0  0
  1  2  1  0
  2  3  1  0
  3  4  1  0
  4  5  1  0
  5  6  1  0
  6  7  1  0
  7  8  1  0
  8  9  2  0
  6  3  1  0
  1 10  1  0
  1 11  1  0
  1 12  1  0
  3 13  1  0
  4 14  1  0
  4 15  1  0
  5 16  1  0
  5 17  1  0
  6 18  1  0
  7 19  1  0
  7 20  1  0
  8 21  1  0
M  END
