
     RDKit          3D

 21 21  0  0  0  0  0  0  0  0999 V2000
   -2.1082   -0.7429    1.0536 C   0  0  0  0  0  0  0  0  0  0  0  0
   -0.8955   -0.9173    0.4701 O   0  0  0  0  0  0  0  0  0  0  0  0
   -0.3250    0.1256   -0.1827 C   0  0  0  0  0  0  0  0  0  0  0  0
    1.0364   -0.2331   -0.8017 C   0  0  0  0  0  0  0  0  0  0  0  0
    0.8968   -1.2646   -1.7177 O   0  0  0  0  0  0  0  0  0  0  0  0
    1.9167   -0.6586    0.3547 C   0  0  0  0  0  0  0  0  0  0  0  0
    3.1863   -1.0205   -0.0451 O   0  0  0  0  0  0  0  0  0  0  0  0
   -0.3194    1.4539    0.5237 C   0  0  0  0  0  0  0  0  0  0  0  0
   -1.0681    1.2495   -0.7701 C   0  0  0  0  0  0  0  0  0  0  0  0
   -2.0580    0.0435    1.8213 H   0  0  0  0  0  0  0  0  0  0  0  0
   -2.9499   -0.6038    0.3464 H   0  0  0  0  0  0  0  0  0  0  0  0
   -2.3404   -1.6912    1.6220 H   0  0  0  0  0  0  0  0  0  0  0  0
    1.4376    0.6757   -1.3132 H   0  0  0  0  0  0  0  0  0  0  0  0
   -0.0552   -1.3559   -1.9413 H   0  0  0  0  0  0  0  0  0  0  0  0
    1.9431    0.2058    1.0581 H   0  0  0  0  0  0  0  0  0  0  0  0
    1.3876   -1.4736    0.8845 H   0  0  0  0  0  0  0  0  0  0  0  0
    3.3523   -0.5702   -0.9255 H   0  0  0  0  0  0  0  0  0  0  0  0
   -0.8830    1.6215    1.4584 H   0  0  0  0  0  0  0  0  0  0  0  0
    0.6033    2.0788    0.4843 H   0  0  0  0  0  0  0  0  0  0  0  0
   -2.1542    1.3479   -0.7264 H   0  0  0  0  0  0  0  0  0  0  0  0
   -0.6033    1.7294   -1.6535 H   0  0  0  0  0  0  0  0  0  0  0  0
  1  2  1  0
  2  3  1  0
  3  4  1  0
  4  5  1  0
  4  6  1  0
  6  7  1  0
  3  8  1  0
  8  9  1  0
  9  3  1  0
  1 10  1  0
  1 11  1  0
  1 12  1  0
  4 13  1  0
  5 14  1  0
  6 15  1  0
  6 16  1  0
  7 17  1  0
  8 18  1  0
  8 19  1  0
  9 20  1  0
  9 21  1  0
M  END
