
     RDKit          3D

 17 17  0  0  0  0  0  0  0  0999 V2000
   -2.5374    0.0910    0.6835 C   0  0  0  0  0  0  0  0  0  0  0  0
   -1.1575   -0.0105    0.8164 O   0  0  0  0  0  0  0  0  0  0  0  0
   -0.5049   -0.0497   -0.4146 C   0  0  0  0  0  0  0  0  0  0  0  0
    0.3000    1.1644   -0.5395 C   0  0  0  0  0  0  0  0  0  0  0  0
    1.6244    1.1499   -0.3111 C   0  0  0  0  0  0  0  0  0  0  0  0
    2.1718   -0.1359    0.0592 C   0  0  0  0  0  0  0  0  0  0  0  0
    3.3479   -0.1972    0.4822 O   0  0  0  0  0  0  0  0  0  0  0  0
    1.3834   -1.3620   -0.0496 C   0  0  0  0  0  0  0  0  0  0  0  0
    0.1590   -1.2269   -0.6415 O   0  0  0  0  0  0  0  0  0  0  0  0
   -2.8374    1.0132    0.1358 H   0  0  0  0  0  0  0  0  0  0  0  0
   -2.9750   -0.8048    0.1814 H   0  0  0  0  0  0  0  0  0  0  0  0
   -2.9529    0.1145    1.7126 H   0  0  0  0  0  0  0  0  0  0  0  0
   -1.3166    0.0148   -1.1996 H   0  0  0  0  0  0  0  0  0  0  0  0
   -0.1824    2.0950   -0.8222 H   0  0  0  0  0  0  0  0  0  0  0  0
    2.2045    2.0569   -0.4079 H   0  0  0  0  0  0  0  0  0  0  0  0
    1.2956   -1.8291    0.9679 H   0  0  0  0  0  0  0  0  0  0  0  0
    1.9776   -2.0837   -0.6531 H   0  0  0  0  0  0  0  0  0  0  0  0
  1  2  1  0
  2  3  1  0
  3  4  1  0
  4  5  2  0
  5  6  1  0
  6  7  2  0
  6  8  1  0
  8  9  1  0
  9  3  1  0
  1 10  1  0
  1 11  1  0
  1 12  1  0
  3 13  1  0
  4 14  1  0
  5 15  1  0
  8 16  1  0
  8 17  1  0
M  END
