
     RDKit          3D

 20 20  0  0  0  0  0  0  0  0999 V2000
    2.8541   -0.6592    0.5990 C   0  0  0  0  0  0  0  0  0  0  0  0
    1.7363   -0.6163   -0.1594 O   0  0  0  0  0  0  0  0  0  0  0  0
    0.6366    0.0154    0.3056 C   0  0  0  0  0  0  0  0  0  0  0  0
    0.0194    1.0624   -0.6324 C   0  0  0  0  0  0  0  0  0  0  0  0
   -0.2732    2.3091   -0.1382 O   0  0  0  0  0  0  0  0  0  0  0  0
   -0.7464   -0.1529   -0.0603 C   0  0  0  0  0  0  0  0  0  0  0  0
   -1.8068    0.2531    0.9586 C   0  0  0  0  0  0  0  0  0  0  0  0
   -1.2649   -1.1434   -1.0658 C   0  0  0  0  0  0  0  0  0  0  0  0
    3.1912    0.3863    0.7969 H   0  0  0  0  0  0  0  0  0  0  0  0
    3.6975   -1.2139    0.2235 H   0  0  0  0  0  0  0  0  0  0  0  0
    2.5536   -1.0448    1.6198 H   0  0  0  0  0  0  0  0  0  0  0  0
    0.8378    0.4428    1.3331 H   0  0  0  0  0  0  0  0  0  0  0  0
    0.3011    0.9446   -1.7045 H   0  0  0  0  0  0  0  0  0  0  0  0
   -1.1681    2.6459   -0.3507 H   0  0  0  0  0  0  0  0  0  0  0  0
   -1.7611   -0.4860    1.7919 H   0  0  0  0  0  0  0  0  0  0  0  0
   -2.8376    0.1611    0.5218 H   0  0  0  0  0  0  0  0  0  0  0  0
   -1.6390    1.2727    1.3503 H   0  0  0  0  0  0  0  0  0  0  0  0
   -1.5478   -0.5821   -1.9948 H   0  0  0  0  0  0  0  0  0  0  0  0
   -0.5658   -1.9719   -1.2753 H   0  0  0  0  0  0  0  0  0  0  0  0
   -2.2166   -1.6228   -0.7464 H   0  0  0  0  0  0  0  0  0  0  0  0
  1  2  1  0
  2  3  1  0
  3  4  1  0
  4  5  1  0
  4  6  1  0
  6  7  1  0
  6  8  1  0
  6  3  1  0
  1  9  1  0
  1 10  1  0
  1 11  1  0
  3 12  1  0
  4 13  1  0
  5 14  1  0
  7 15  1  0
  7 16  1  0
  7 17  1  0
  8 18  1  0
  8 19  1  0
  8 20  1  0
M  END
