
     RDKit          3D

 21 21  0  0  0  0  0  0  0  0999 V2000
    2.9104    0.2895    0.3193 C   0  0  0  0  0  0  0  0  0  0  0  0
    1.8954   -0.3847   -0.3008 O   0  0  0  0  0  0  0  0  0  0  0  0
    0.6277    0.0160   -0.0260 C   0  0  0  0  0  0  0  0  0  0  0  0
   -0.0917   -1.1186    0.6672 C   0  0  0  0  0  0  0  0  0  0  0  0
   -1.5864   -1.0444    0.4772 C   0  0  0  0  0  0  0  0  0  0  0  0
   -2.0331    0.4019    0.5712 C   0  0  0  0  0  0  0  0  0  0  0  0
   -1.4223    1.1124   -0.6030 C   0  0  0  0  0  0  0  0  0  0  0  0
   -1.8910    2.1289   -1.0200 O   0  0  0  0  0  0  0  0  0  0  0  0
   -0.2024    0.4485   -1.1902 C   0  0  0  0  0  0  0  0  0  0  0  0
    2.9122    0.2693    1.4048 H   0  0  0  0  0  0  0  0  0  0  0  0
    3.8701   -0.1507   -0.0309 H   0  0  0  0  0  0  0  0  0  0  0  0
    2.9181    1.3431   -0.0789 H   0  0  0  0  0  0  0  0  0  0  0  0
    0.6684    0.8637    0.6918 H   0  0  0  0  0  0  0  0  0  0  0  0
    0.3109   -2.0866    0.2604 H   0  0  0  0  0  0  0  0  0  0  0  0
    0.1792   -1.0710    1.7404 H   0  0  0  0  0  0  0  0  0  0  0  0
   -2.1049   -1.6736    1.1972 H   0  0  0  0  0  0  0  0  0  0  0  0
   -1.8499   -1.3821   -0.5499 H   0  0  0  0  0  0  0  0  0  0  0  0
   -1.6853    0.8037    1.5297 H   0  0  0  0  0  0  0  0  0  0  0  0
   -3.1528    0.3948    0.4856 H   0  0  0  0  0  0  0  0  0  0  0  0
    0.2727    1.2179   -1.8264 H   0  0  0  0  0  0  0  0  0  0  0  0
   -0.5451   -0.3780   -1.8373 H   0  0  0  0  0  0  0  0  0  0  0  0
  1  2  1  0
  2  3  1  0
  3  4  1  0
  4  5  1  0
  5  6  1  0
  6  7  1  0
  7  8  2  0
  7  9  1  0
  9  3  1  0
  1 10  1  0
  1 11  1  0
  1 12  1  0
  3 13  1  0
  4 14  1  0
  4 15  1  0
  5 16  1  0
  5 17  1  0
  6 18  1  0
  6 19  1  0
  9 20  1  0
  9 21  1  0
M  END
