
     RDKit          3D

 21 22  0  0  0  0  0  0  0  0999 V2000
    2.7466    0.3652   -0.9463 C   0  0  0  0  0  0  0  0  0  0  0  0
    1.5133   -0.2916   -0.8863 O   0  0  0  0  0  0  0  0  0  0  0  0
    0.6953    0.3599    0.0432 C   0  0  0  0  0  0  0  0  0  0  0  0
    0.3266   -0.6971    1.0840 C   0  0  0  0  0  0  0  0  0  0  0  0
   -0.6399   -1.5403    0.2520 C   0  0  0  0  0  0  0  0  0  0  0  0
   -1.5397   -0.5051   -0.3247 C   0  0  0  0  0  0  0  0  0  0  0  0
   -1.7771    0.8050    0.2797 C   0  0  0  0  0  0  0  0  0  0  0  0
   -2.8358    1.5456   -0.2614 O   0  0  0  0  0  0  0  0  0  0  0  0
   -0.6106    0.6445   -0.6243 C   0  0  0  0  0  0  0  0  0  0  0  0
    3.2614    0.3650    0.0441 H   0  0  0  0  0  0  0  0  0  0  0  0
    3.3714   -0.2029   -1.6749 H   0  0  0  0  0  0  0  0  0  0  0  0
    2.5588    1.3993   -1.2954 H   0  0  0  0  0  0  0  0  0  0  0  0
    1.1767    1.2191    0.5131 H   0  0  0  0  0  0  0  0  0  0  0  0
   -0.1574   -0.2633    1.9664 H   0  0  0  0  0  0  0  0  0  0  0  0
    1.2481   -1.2417    1.3308 H   0  0  0  0  0  0  0  0  0  0  0  0
   -0.0139   -1.9446   -0.5960 H   0  0  0  0  0  0  0  0  0  0  0  0
   -1.1213   -2.3265    0.8267 H   0  0  0  0  0  0  0  0  0  0  0  0
   -2.2379   -0.8622   -1.1169 H   0  0  0  0  0  0  0  0  0  0  0  0
   -1.6121    1.0289    1.3535 H   0  0  0  0  0  0  0  0  0  0  0  0
   -3.7025    1.1514   -0.0104 H   0  0  0  0  0  0  0  0  0  0  0  0
   -0.6501    0.9911   -1.6747 H   0  0  0  0  0  0  0  0  0  0  0  0
  1  2  1  0
  2  3  1  0
  3  4  1  0
  4  5  1  0
  5  6  1  0
  6  7  1  0
  7  8  1  0
  7  9  1  0
  9  3  1  0
  9  6  1  0
  1 10  1  0
  1 11  1  0
  1 12  1  0
  3 13  1  0
  4 14  1  0
  4 15  1  0
  5 16  1  0
  5 17  1  0
  6 18  1  0
  7 19  1  0
  8 20  1  0
  9 21  1  0
M  END
