
     RDKit          3D

 21 22  0  0  0  0  0  0  0  0999 V2000
    3.2836   -0.5263    0.2329 C   0  0  0  0  0  0  0  0  0  0  0  0
    2.2482    0.3580    0.4870 O   0  0  0  0  0  0  0  0  0  0  0  0
    1.1103   -0.0541   -0.1537 C   0  0  0  0  0  0  0  0  0  0  0  0
   -0.1585    0.0562    0.6025 C   0  0  0  0  0  0  0  0  0  0  0  0
   -1.3592   -0.5956   -0.0596 C   0  0  0  0  0  0  0  0  0  0  0  0
   -2.6451   -0.4909    0.6921 C   0  0  0  0  0  0  0  0  0  0  0  0
   -1.1774    0.3814   -1.2028 C   0  0  0  0  0  0  0  0  0  0  0  0
    0.0717    0.9197   -0.5662 C   0  0  0  0  0  0  0  0  0  0  0  0
    0.2921    2.2718   -0.4601 O   0  0  0  0  0  0  0  0  0  0  0  0
    4.2285   -0.2302    0.7343 H   0  0  0  0  0  0  0  0  0  0  0  0
    3.0447   -1.5536    0.6365 H   0  0  0  0  0  0  0  0  0  0  0  0
    3.4127   -0.6794   -0.8663 H   0  0  0  0  0  0  0  0  0  0  0  0
    1.2101   -0.9915   -0.7449 H   0  0  0  0  0  0  0  0  0  0  0  0
   -0.2467    0.5238    1.5771 H   0  0  0  0  0  0  0  0  0  0  0  0
   -1.1180   -1.6523   -0.3236 H   0  0  0  0  0  0  0  0  0  0  0  0
   -3.2262    0.4166    0.4770 H   0  0  0  0  0  0  0  0  0  0  0  0
   -3.3038   -1.3529    0.3852 H   0  0  0  0  0  0  0  0  0  0  0  0
   -2.4966   -0.6405    1.7998 H   0  0  0  0  0  0  0  0  0  0  0  0
   -1.9420    1.1809   -1.2688 H   0  0  0  0  0  0  0  0  0  0  0  0
   -0.9715   -0.0817   -2.1740 H   0  0  0  0  0  0  0  0  0  0  0  0
   -0.2566    2.7406    0.1954 H   0  0  0  0  0  0  0  0  0  0  0  0
  1  2  1  0
  2  3  1  0
  3  4  1  0
  4  5  1  0
  5  6  1  0
  5  7  1  0
  7  8  1  0
  8  9  1  0
  8  3  1  0
  8  4  1  0
  1 10  1  0
  1 11  1  0
  1 12  1  0
  3 13  1  0
  4 14  1  0
  5 15  1  0
  6 16  1  0
  6 17  1  0
  6 18  1  0
  7 19  1  0
  7 20  1  0
  9 21  1  0
M  END
