
     RDKit          3D

 19 21  0  0  0  0  0  0  0  0999 V2000
    2.5420    0.7351    0.2639 C   0  0  0  0  0  0  0  0  0  0  0  0
    1.8964   -0.3778   -0.1901 O   0  0  0  0  0  0  0  0  0  0  0  0
    0.5266   -0.2780   -0.2192 C   0  0  0  0  0  0  0  0  0  0  0  0
   -0.2699   -1.4642   -0.7084 C   0  0  0  0  0  0  0  0  0  0  0  0
   -1.3397   -1.0568    0.3023 C   0  0  0  0  0  0  0  0  0  0  0  0
   -2.2414   -0.0977   -0.3725 C   0  0  0  0  0  0  0  0  0  0  0  0
   -1.5912    1.0319   -0.5264 C   0  0  0  0  0  0  0  0  0  0  0  0
   -0.2137    0.9505    0.0213 C   0  0  0  0  0  0  0  0  0  0  0  0
   -0.3279   -0.2018    0.9520 C   0  0  0  0  0  0  0  0  0  0  0  0
    2.2584    1.0151    1.3091 H   0  0  0  0  0  0  0  0  0  0  0  0
    3.6343    0.5466    0.2961 H   0  0  0  0  0  0  0  0  0  0  0  0
    2.3938    1.5752   -0.4407 H   0  0  0  0  0  0  0  0  0  0  0  0
    0.1897   -2.4502   -0.4967 H   0  0  0  0  0  0  0  0  0  0  0  0
   -0.5440   -1.2936   -1.7699 H   0  0  0  0  0  0  0  0  0  0  0  0
   -1.7988   -1.8691    0.8574 H   0  0  0  0  0  0  0  0  0  0  0  0
   -3.2685   -0.3506   -0.6679 H   0  0  0  0  0  0  0  0  0  0  0  0
   -2.0509    1.9088   -1.0092 H   0  0  0  0  0  0  0  0  0  0  0  0
    0.2581    1.8784    0.4158 H   0  0  0  0  0  0  0  0  0  0  0  0
   -0.0534   -0.2018    1.9831 H   0  0  0  0  0  0  0  0  0  0  0  0
  1  2  1  0
  2  3  1  0
  3  4  1  0
  4  5  1  0
  5  6  1  0
  6  7  2  0
  7  8  1  0
  8  9  1  0
  8  3  1  0
  9  3  1  0
  9  5  1  0
  1 10  1  0
  1 11  1  0
  1 12  1  0
  4 13  1  0
  4 14  1  0
  5 15  1  0
  6 16  1  0
  7 17  1  0
  8 18  1  0
  9 19  1  0
M  END
