
     RDKit          3D

 18 18  0  0  0  0  0  0  0  0999 V2000
    2.6820    0.2384    0.1430 C   0  0  0  0  0  0  0  0  0  0  0  0
    1.5916   -0.1260   -0.6449 O   0  0  0  0  0  0  0  0  0  0  0  0
    0.3849    0.2117   -0.0345 C   0  0  0  0  0  0  0  0  0  0  0  0
   -0.3196    1.1617   -0.7739 O   0  0  0  0  0  0  0  0  0  0  0  0
   -1.6673    0.9366   -0.5128 C   0  0  0  0  0  0  0  0  0  0  0  0
   -1.7471   -0.5740   -0.6535 C   0  0  0  0  0  0  0  0  0  0  0  0
   -0.5089   -0.9877    0.1133 C   0  0  0  0  0  0  0  0  0  0  0  0
   -0.7574   -1.1764    1.4622 O   0  0  0  0  0  0  0  0  0  0  0  0
    3.5913   -0.0731   -0.4311 H   0  0  0  0  0  0  0  0  0  0  0  0
    2.6518   -0.2383    1.1530 H   0  0  0  0  0  0  0  0  0  0  0  0
    2.7277    1.3333    0.2448 H   0  0  0  0  0  0  0  0  0  0  0  0
    0.6249    0.6933    0.9417 H   0  0  0  0  0  0  0  0  0  0  0  0
   -1.8725    1.1714    0.5485 H   0  0  0  0  0  0  0  0  0  0  0  0
   -2.2916    1.4633   -1.2281 H   0  0  0  0  0  0  0  0  0  0  0  0
   -2.6158   -1.0125   -0.1666 H   0  0  0  0  0  0  0  0  0  0  0  0
   -1.6194   -0.8551   -1.7163 H   0  0  0  0  0  0  0  0  0  0  0  0
   -0.0855   -1.9018   -0.3291 H   0  0  0  0  0  0  0  0  0  0  0  0
   -0.7692   -0.2647    1.8841 H   0  0  0  0  0  0  0  0  0  0  0  0
  1  2  1  0
  2  3  1  0
  3  4  1  0
  4  5  1  0
  5  6  1  0
  6  7  1  0
  7  8  1  0
  7  3  1  0
  1  9  1  0
  1 10  1  0
  1 11  1  0
  3 12  1  0
  5 13  1  0
  5 14  1  0
  6 15  1  0
  6 16  1  0
  7 17  1  0
  8 18  1  0
M  END
