
     RDKit          3D

 18 18  0  0  0  0  0  0  0  0999 V2000
   -2.8228    0.1586    0.5108 C   0  0  0  0  0  0  0  0  0  0  0  0
   -1.4576   -0.0961    0.6135 O   0  0  0  0  0  0  0  0  0  0  0  0
   -0.8641   -0.2809   -0.6325 C   0  0  0  0  0  0  0  0  0  0  0  0
    0.2542    0.6846   -0.7270 C   0  0  0  0  0  0  0  0  0  0  0  0
    1.2993    0.1133   -0.1469 C   0  0  0  0  0  0  0  0  0  0  0  0
    2.6623    0.6623    0.0242 C   0  0  0  0  0  0  0  0  0  0  0  0
    0.8370   -1.2522    0.3115 C   0  0  0  0  0  0  0  0  0  0  0  0
   -0.2141   -1.5059   -0.6076 O   0  0  0  0  0  0  0  0  0  0  0  0
   -3.3810   -0.6549    0.0250 H   0  0  0  0  0  0  0  0  0  0  0  0
   -3.1958    0.3472    1.5392 H   0  0  0  0  0  0  0  0  0  0  0  0
   -2.9553    1.1356   -0.0293 H   0  0  0  0  0  0  0  0  0  0  0  0
   -1.5837   -0.1913   -1.4638 H   0  0  0  0  0  0  0  0  0  0  0  0
    0.2632    1.6806   -1.1760 H   0  0  0  0  0  0  0  0  0  0  0  0
    2.6731    1.5474    0.7095 H   0  0  0  0  0  0  0  0  0  0  0  0
    3.3159   -0.0982    0.4912 H   0  0  0  0  0  0  0  0  0  0  0  0
    3.0845    0.9151   -0.9651 H   0  0  0  0  0  0  0  0  0  0  0  0
    1.6670   -1.9511    0.1911 H   0  0  0  0  0  0  0  0  0  0  0  0
    0.4177   -1.2141    1.3323 H   0  0  0  0  0  0  0  0  0  0  0  0
  1  2  1  0
  2  3  1  0
  3  4  1  0
  4  5  2  0
  5  6  1  0
  5  7  1  0
  7  8  1  0
  8  3  1  0
  1  9  1  0
  1 10  1  0
  1 11  1  0
  3 12  1  0
  4 13  1  0
  6 14  1  0
  6 15  1  0
  6 16  1  0
  7 17  1  0
  7 18  1  0
M  END
