
     RDKit          3D

 21 22  0  0  0  0  0  0  0  0999 V2000
    2.4422    0.4916    0.0255 C   0  0  0  0  0  0  0  0  0  0  0  0
    1.5942   -0.1832   -0.8143 O   0  0  0  0  0  0  0  0  0  0  0  0
    0.3538   -0.2988   -0.2555 C   0  0  0  0  0  0  0  0  0  0  0  0
   -0.4276    0.9166    0.0801 C   0  0  0  0  0  0  0  0  0  0  0  0
   -1.7720    0.7592    0.6958 C   0  0  0  0  0  0  0  0  0  0  0  0
   -1.6395    1.3095   -0.6844 C   0  0  0  0  0  0  0  0  0  0  0  0
    0.3472   -1.3926    0.8163 C   0  0  0  0  0  0  0  0  0  0  0  0
    0.4346   -2.3097   -0.2588 O   0  0  0  0  0  0  0  0  0  0  0  0
   -0.4087   -1.4067   -0.9497 C   0  0  0  0  0  0  0  0  0  0  0  0
    3.4412    0.5282   -0.5124 H   0  0  0  0  0  0  0  0  0  0  0  0
    2.6321   -0.0396    0.9944 H   0  0  0  0  0  0  0  0  0  0  0  0
    2.1284    1.5163    0.2966 H   0  0  0  0  0  0  0  0  0  0  0  0
    0.1626    1.7775    0.4539 H   0  0  0  0  0  0  0  0  0  0  0  0
   -2.2147   -0.2529    0.7698 H   0  0  0  0  0  0  0  0  0  0  0  0
   -2.0295    1.4554    1.5450 H   0  0  0  0  0  0  0  0  0  0  0  0
   -1.9842    0.6780   -1.5457 H   0  0  0  0  0  0  0  0  0  0  0  0
   -1.8799    2.3804   -0.8210 H   0  0  0  0  0  0  0  0  0  0  0  0
   -0.6652   -1.5141    1.2766 H   0  0  0  0  0  0  0  0  0  0  0  0
    1.1974   -1.3944    1.4970 H   0  0  0  0  0  0  0  0  0  0  0  0
   -0.2782   -1.4647   -2.0441 H   0  0  0  0  0  0  0  0  0  0  0  0
   -1.4345   -1.5560   -0.5652 H   0  0  0  0  0  0  0  0  0  0  0  0
  1  2  1  0
  2  3  1  0
  3  4  1  0
  4  5  1  0
  5  6  1  0
  3  7  1  0
  7  8  1  0
  8  9  1  0
  9  3  1  0
  6  4  1  0
  1 10  1  0
  1 11  1  0
  1 12  1  0
  4 13  1  0
  5 14  1  0
  5 15  1  0
  6 16  1  0
  6 17  1  0
  7 18  1  0
  7 19  1  0
  9 20  1  0
  9 21  1  0
M  END
