
     RDKit          3D

 19 20  0  0  0  0  0  0  0  0999 V2000
   -1.8728    1.0804   -0.2319 C   0  0  0  0  0  0  0  0  0  0  0  0
   -0.8008    0.5985   -0.9795 O   0  0  0  0  0  0  0  0  0  0  0  0
   -0.2585   -0.4712   -0.2754 C   0  0  0  0  0  0  0  0  0  0  0  0
   -1.1894   -1.6324   -0.0158 C   0  0  0  0  0  0  0  0  0  0  0  0
    1.1964   -0.7459   -0.2816 C   0  0  0  0  0  0  0  0  0  0  0  0
    1.9605    0.1627   -1.0182 O   0  0  0  0  0  0  0  0  0  0  0  0
    2.2204    1.1890   -0.1486 C   0  0  0  0  0  0  0  0  0  0  0  0
    1.1999    1.2404    0.7831 O   0  0  0  0  0  0  0  0  0  0  0  0
    0.6427   -0.0156    0.8740 C   0  0  0  0  0  0  0  0  0  0  0  0
   -2.3457    1.9397   -0.7498 H   0  0  0  0  0  0  0  0  0  0  0  0
   -1.4743    1.3547    0.7673 H   0  0  0  0  0  0  0  0  0  0  0  0
   -2.6137    0.2717   -0.0651 H   0  0  0  0  0  0  0  0  0  0  0  0
   -1.5225   -1.6461    1.0389 H   0  0  0  0  0  0  0  0  0  0  0  0
   -0.6476   -2.5784   -0.2863 H   0  0  0  0  0  0  0  0  0  0  0  0
   -2.0693   -1.5916   -0.6916 H   0  0  0  0  0  0  0  0  0  0  0  0
    1.5401   -1.7942   -0.2191 H   0  0  0  0  0  0  0  0  0  0  0  0
    3.2020    0.9756    0.3424 H   0  0  0  0  0  0  0  0  0  0  0  0
    2.3270    2.1454   -0.7101 H   0  0  0  0  0  0  0  0  0  0  0  0
    0.5053   -0.4825    1.8674 H   0  0  0  0  0  0  0  0  0  0  0  0
  1  2  1  0
  2  3  1  0
  3  4  1  0
  3  5  1  0
  5  6  1  0
  6  7  1  0
  7  8  1  0
  8  9  1  0
  9  3  1  0
  9  5  1  0
  1 10  1  0
  1 11  1  0
  1 12  1  0
  4 13  1  0
  4 14  1  0
  4 15  1  0
  5 16  1  0
  7 17  1  0
  7 18  1  0
  9 19  1  0
M  END
