
     RDKit          3D

 19 19  0  0  0  0  0  0  0  0999 V2000
    2.6833    0.3394    0.4131 C   0  0  0  0  0  0  0  0  0  0  0  0
    1.6861   -0.1768   -0.3371 O   0  0  0  0  0  0  0  0  0  0  0  0
    0.4807    0.5463   -0.2342 C   0  0  0  0  0  0  0  0  0  0  0  0
   -0.2989    0.5960   -1.3221 C   0  0  0  0  0  0  0  0  0  0  0  0
   -0.8109   -0.0893   -0.1582 C   0  0  0  0  0  0  0  0  0  0  0  0
   -0.5391   -1.1199    0.8287 C   0  0  0  0  0  0  0  0  0  0  0  0
   -2.2280   -0.0219   -0.3771 C   0  0  0  0  0  0  0  0  0  0  0  0
    2.4727    0.3803    1.5064 H   0  0  0  0  0  0  0  0  0  0  0  0
    2.9813    1.3477    0.0360 H   0  0  0  0  0  0  0  0  0  0  0  0
    3.5893   -0.2932    0.3135 H   0  0  0  0  0  0  0  0  0  0  0  0
    0.6160    1.4308    0.4659 H   0  0  0  0  0  0  0  0  0  0  0  0
   -0.7027    1.5950   -1.6119 H   0  0  0  0  0  0  0  0  0  0  0  0
   -0.0420    0.0435   -2.2837 H   0  0  0  0  0  0  0  0  0  0  0  0
   -1.1064   -0.8559    1.7747 H   0  0  0  0  0  0  0  0  0  0  0  0
   -1.0439   -2.0829    0.5031 H   0  0  0  0  0  0  0  0  0  0  0  0
    0.4224   -1.4262    1.1972 H   0  0  0  0  0  0  0  0  0  0  0  0
   -2.6400   -0.9735   -0.8381 H   0  0  0  0  0  0  0  0  0  0  0  0
   -2.7705    0.0224    0.6198 H   0  0  0  0  0  0  0  0  0  0  0  0
   -2.7494    0.7383   -0.9693 H   0  0  0  0  0  0  0  0  0  0  0  0
  1  2  1  0
  2  3  1  0
  3  4  1  0
  4  5  1  0
  5  6  1  0
  5  7  1  0
  5  3  1  0
  1  8  1  0
  1  9  1  0
  1 10  1  0
  3 11  1  0
  4 12  1  0
  4 13  1  0
  6 14  1  0
  6 15  1  0
  6 16  1  0
  7 17  1  0
  7 18  1  0
  7 19  1  0
M  END
