
     RDKit          3D

 21 22  0  0  0  0  0  0  0  0999 V2000
   -3.3261    0.8792   -0.3580 C   0  0  0  0  0  0  0  0  0  0  0  0
   -2.4008    0.2070   -1.1159 O   0  0  0  0  0  0  0  0  0  0  0  0
   -1.5554   -0.6058   -0.3820 C   0  0  0  0  0  0  0  0  0  0  0  0
   -0.9632   -1.8363   -0.9578 C   0  0  0  0  0  0  0  0  0  0  0  0
   -0.1000   -0.6471   -0.8959 C   0  0  0  0  0  0  0  0  0  0  0  0
    0.8154   -0.4173    0.0917 O   0  0  0  0  0  0  0  0  0  0  0  0
    1.8594    0.3968   -0.2345 C   0  0  0  0  0  0  0  0  0  0  0  0
    2.5339    1.1957    0.8159 C   0  0  0  0  0  0  0  0  0  0  0  0
    3.2007   -0.0615    0.3689 C   0  0  0  0  0  0  0  0  0  0  0  0
   -2.7564    1.5207    0.3668 H   0  0  0  0  0  0  0  0  0  0  0  0
   -3.9395    0.1338    0.1861 H   0  0  0  0  0  0  0  0  0  0  0  0
   -3.9122    1.5342   -1.0122 H   0  0  0  0  0  0  0  0  0  0  0  0
   -1.7319   -0.6068    0.6898 H   0  0  0  0  0  0  0  0  0  0  0  0
   -0.7847   -2.7118   -0.2923 H   0  0  0  0  0  0  0  0  0  0  0  0
   -1.3704   -2.1352   -1.9452 H   0  0  0  0  0  0  0  0  0  0  0  0
    0.1127   -0.1413   -1.8568 H   0  0  0  0  0  0  0  0  0  0  0  0
    1.9170    0.8254   -1.2620 H   0  0  0  0  0  0  0  0  0  0  0  0
    3.0917    2.1281    0.5476 H   0  0  0  0  0  0  0  0  0  0  0  0
    2.0297    1.2274    1.7991 H   0  0  0  0  0  0  0  0  0  0  0  0
    3.2032   -0.8973    1.0673 H   0  0  0  0  0  0  0  0  0  0  0  0
    4.0767    0.0122   -0.3188 H   0  0  0  0  0  0  0  0  0  0  0  0
  1  2  1  0
  2  3  1  0
  3  4  1  0
  4  5  1  0
  5  6  1  0
  6  7  1  0
  7  8  1  0
  8  9  1  0
  5  3  1  0
  9  7  1  0
  1 10  1  0
  1 11  1  0
  1 12  1  0
  3 13  1  0
  4 14  1  0
  4 15  1  0
  5 16  1  0
  7 17  1  0
  8 18  1  0
  8 19  1  0
  9 20  1  0
  9 21  1  0
M  END
