
     RDKit          3D

 17 18  0  0  0  0  0  0  0  0999 V2000
    2.5748   -0.5042   -0.2190 C   0  0  0  0  0  0  0  0  0  0  0  0
    1.3935    0.0789   -0.6660 O   0  0  0  0  0  0  0  0  0  0  0  0
    0.3371   -0.5369   -0.0291 C   0  0  0  0  0  0  0  0  0  0  0  0
   -0.4982   -1.0917   -1.0292 O   0  0  0  0  0  0  0  0  0  0  0  0
   -1.8266   -0.7968   -0.7785 C   0  0  0  0  0  0  0  0  0  0  0  0
   -2.7659   -1.4262   -1.3311 O   0  0  0  0  0  0  0  0  0  0  0  0
   -1.8583    0.3123    0.1873 C   0  0  0  0  0  0  0  0  0  0  0  0
   -1.1225    1.5712   -0.0204 C   0  0  0  0  0  0  0  0  0  0  0  0
   -0.5026    0.4244    0.7699 C   0  0  0  0  0  0  0  0  0  0  0  0
    2.6294   -1.5817   -0.4264 H   0  0  0  0  0  0  0  0  0  0  0  0
    2.6278   -0.3203    0.8767 H   0  0  0  0  0  0  0  0  0  0  0  0
    3.4025    0.0448   -0.7456 H   0  0  0  0  0  0  0  0  0  0  0  0
    0.6837   -1.3284    0.6676 H   0  0  0  0  0  0  0  0  0  0  0  0
   -2.6978    0.3075    0.9109 H   0  0  0  0  0  0  0  0  0  0  0  0
   -1.4608    2.4421    0.5812 H   0  0  0  0  0  0  0  0  0  0  0  0
   -0.6009    1.8029   -0.9643 H   0  0  0  0  0  0  0  0  0  0  0  0
   -0.3152    0.6020    1.8294 H   0  0  0  0  0  0  0  0  0  0  0  0
  1  2  1  0
  2  3  1  0
  3  4  1  0
  4  5  1  0
  5  6  2  0
  5  7  1  0
  7  8  1  0
  8  9  1  0
  9  3  1  0
  9  7  1  0
  1 10  1  0
  1 11  1  0
  1 12  1  0
  3 13  1  0
  7 14  1  0
  8 15  1  0
  8 16  1  0
  9 17  1  0
M  END
