
     RDKit          3D

 17 19  0  0  0  0  0  0  0  0999 V2000
    2.0452    0.8564   -0.2992 C   0  0  0  0  0  0  0  0  0  0  0  0
    0.9561    0.7667   -1.1881 O   0  0  0  0  0  0  0  0  0  0  0  0
   -0.0728    0.1944   -0.5663 C   0  0  0  0  0  0  0  0  0  0  0  0
   -0.7162    0.7833    0.6878 C   0  0  0  0  0  0  0  0  0  0  0  0
   -1.5448   -0.4479    1.0300 C   0  0  0  0  0  0  0  0  0  0  0  0
   -0.5600   -1.4110    1.0646 O   0  0  0  0  0  0  0  0  0  0  0  0
    0.0205   -1.2546   -0.2016 C   0  0  0  0  0  0  0  0  0  0  0  0
   -1.0534   -0.7393   -1.0595 C   0  0  0  0  0  0  0  0  0  0  0  0
   -2.1639   -0.6925   -0.1869 O   0  0  0  0  0  0  0  0  0  0  0  0
    2.2921   -0.1762    0.0043 H   0  0  0  0  0  0  0  0  0  0  0  0
    1.7647    1.5164    0.5253 H   0  0  0  0  0  0  0  0  0  0  0  0
    2.9061    1.2632   -0.8886 H   0  0  0  0  0  0  0  0  0  0  0  0
    0.0153    1.0265    1.4582 H   0  0  0  0  0  0  0  0  0  0  0  0
   -1.3454    1.6240    0.3532 H   0  0  0  0  0  0  0  0  0  0  0  0
   -2.1743   -0.3525    1.8824 H   0  0  0  0  0  0  0  0  0  0  0  0
    0.8290   -1.8942   -0.5255 H   0  0  0  0  0  0  0  0  0  0  0  0
   -1.1981   -1.0627   -2.0903 H   0  0  0  0  0  0  0  0  0  0  0  0
  1  2  1  0
  2  3  1  0
  3  4  1  0
  4  5  1  0
  5  6  1  0
  6  7  1  0
  7  8  1  0
  8  9  1  0
  7  3  1  0
  8  3  1  0
  9  5  1  0
  1 10  1  0
  1 11  1  0
  1 12  1  0
  4 13  1  0
  4 14  1  0
  5 15  1  0
  7 16  1  0
  8 17  1  0
M  END
