
     RDKit          3D

 21 22  0  0  0  0  0  0  0  0999 V2000
    2.6463   -0.5019    0.8546 C   0  0  0  0  0  0  0  0  0  0  0  0
    1.3981    0.0482    1.1875 O   0  0  0  0  0  0  0  0  0  0  0  0
    0.7491    0.3664    0.0289 C   0  0  0  0  0  0  0  0  0  0  0  0
    0.4325    1.7497   -0.0468 O   0  0  0  0  0  0  0  0  0  0  0  0
   -0.9086    1.7454   -0.3078 C   0  0  0  0  0  0  0  0  0  0  0  0
   -1.4614    0.7240    0.7012 C   0  0  0  0  0  0  0  0  0  0  0  0
   -0.6163   -0.2175   -0.1191 C   0  0  0  0  0  0  0  0  0  0  0  0
   -0.8536   -1.6332   -0.1008 C   0  0  0  0  0  0  0  0  0  0  0  0
   -1.1114    0.6044   -1.3198 C   0  0  0  0  0  0  0  0  0  0  0  0
    3.2594    0.2171    0.2783 H   0  0  0  0  0  0  0  0  0  0  0  0
    2.4286   -1.3742    0.1839 H   0  0  0  0  0  0  0  0  0  0  0  0
    3.1856   -0.8690    1.7431 H   0  0  0  0  0  0  0  0  0  0  0  0
    1.3267    0.1302   -0.8923 H   0  0  0  0  0  0  0  0  0  0  0  0
   -1.4623    2.6332   -0.4561 H   0  0  0  0  0  0  0  0  0  0  0  0
   -2.5366    0.4978    0.5533 H   0  0  0  0  0  0  0  0  0  0  0  0
   -1.1408    0.9112    1.7252 H   0  0  0  0  0  0  0  0  0  0  0  0
   -1.8321   -1.8717    0.3591 H   0  0  0  0  0  0  0  0  0  0  0  0
   -0.8840   -2.0304   -1.1575 H   0  0  0  0  0  0  0  0  0  0  0  0
   -0.0848   -2.1682    0.4884 H   0  0  0  0  0  0  0  0  0  0  0  0
   -2.1625    0.4384   -1.5780 H   0  0  0  0  0  0  0  0  0  0  0  0
   -0.3719    0.6002   -2.1252 H   0  0  0  0  0  0  0  0  0  0  0  0
  1  2  1  0
  2  3  1  0
  3  4  1  0
  4  5  1  0
  5  6  1  0
  6  7  1  0
  7  8  1  0
  7  9  1  0
  7  3  1  0
  9  5  1  0
  1 10  1  0
  1 11  1  0
  1 12  1  0
  3 13  1  0
  5 14  1  0
  6 15  1  0
  6 16  1  0
  8 17  1  0
  8 18  1  0
  8 19  1  0
  9 20  1  0
  9 21  1  0
M  END
