
     RDKit          3D

 21 22  0  0  0  0  0  0  0  0999 V2000
    3.2904    0.3804    0.3250 C   0  0  0  0  0  0  0  0  0  0  0  0
    2.1016    0.6011   -0.3712 O   0  0  0  0  0  0  0  0  0  0  0  0
    1.1818   -0.4151   -0.1222 C   0  0  0  0  0  0  0  0  0  0  0  0
    0.3245   -0.7702   -1.3064 C   0  0  0  0  0  0  0  0  0  0  0  0
   -0.2387   -0.0924   -0.1348 C   0  0  0  0  0  0  0  0  0  0  0  0
   -1.2682   -0.8259    0.6714 C   0  0  0  0  0  0  0  0  0  0  0  0
   -2.4892    0.0799    0.5054 C   0  0  0  0  0  0  0  0  0  0  0  0
   -1.9753    1.3139   -0.1935 C   0  0  0  0  0  0  0  0  0  0  0  0
   -0.5806    1.2453   -0.1285 O   0  0  0  0  0  0  0  0  0  0  0  0
    3.7182   -0.5894   -0.0068 H   0  0  0  0  0  0  0  0  0  0  0  0
    4.0137    1.1706    0.1302 H   0  0  0  0  0  0  0  0  0  0  0  0
    3.0581    0.3642    1.3923 H   0  0  0  0  0  0  0  0  0  0  0  0
    1.5202   -1.2125    0.5634 H   0  0  0  0  0  0  0  0  0  0  0  0
    0.1160   -1.8659   -1.3921 H   0  0  0  0  0  0  0  0  0  0  0  0
    0.4605   -0.2373   -2.2530 H   0  0  0  0  0  0  0  0  0  0  0  0
   -0.9609   -0.8242    1.7277 H   0  0  0  0  0  0  0  0  0  0  0  0
   -1.5409   -1.8100    0.2722 H   0  0  0  0  0  0  0  0  0  0  0  0
   -3.2401   -0.3899   -0.1886 H   0  0  0  0  0  0  0  0  0  0  0  0
   -2.9409    0.3493    1.4705 H   0  0  0  0  0  0  0  0  0  0  0  0
   -2.3237    2.2237    0.3220 H   0  0  0  0  0  0  0  0  0  0  0  0
   -2.2262    1.3044   -1.2827 H   0  0  0  0  0  0  0  0  0  0  0  0
  1  2  1  0
  2  3  1  0
  3  4  1  0
  4  5  1  0
  5  6  1  0
  6  7  1  0
  7  8  1  0
  8  9  1  0
  5  3  1  0
  9  5  1  0
  1 10  1  0
  1 11  1  0
  1 12  1  0
  3 13  1  0
  4 14  1  0
  4 15  1  0
  6 16  1  0
  6 17  1  0
  7 18  1  0
  7 19  1  0
  8 20  1  0
  8 21  1  0
M  END
