
     RDKit          3D

 17 17  0  0  0  0  0  0  0  0999 V2000
    2.7740    0.0253    0.1631 C   0  0  0  0  0  0  0  0  0  0  0  0
    1.5888    0.4175    0.7892 O   0  0  0  0  0  0  0  0  0  0  0  0
    0.4809    0.0198    0.0413 C   0  0  0  0  0  0  0  0  0  0  0  0
   -0.4125    1.1536   -0.2657 C   0  0  0  0  0  0  0  0  0  0  0  0
   -1.6645    0.7835   -0.1471 C   0  0  0  0  0  0  0  0  0  0  0  0
   -1.7688   -0.6347    0.2520 C   0  0  0  0  0  0  0  0  0  0  0  0
   -2.6958   -0.7266    1.3094 O   0  0  0  0  0  0  0  0  0  0  0  0
   -0.3877   -0.9060    0.8066 C   0  0  0  0  0  0  0  0  0  0  0  0
   -0.0619   -1.6881    1.6671 O   0  0  0  0  0  0  0  0  0  0  0  0
    3.6223    0.3612    0.7906 H   0  0  0  0  0  0  0  0  0  0  0  0
    2.8336   -1.0878    0.0642 H   0  0  0  0  0  0  0  0  0  0  0  0
    2.8865    0.4750   -0.8390 H   0  0  0  0  0  0  0  0  0  0  0  0
    0.7761   -0.5186   -0.8837 H   0  0  0  0  0  0  0  0  0  0  0  0
   -0.0685    2.1869   -0.5593 H   0  0  0  0  0  0  0  0  0  0  0  0
   -2.5301    1.4652   -0.3281 H   0  0  0  0  0  0  0  0  0  0  0  0
   -2.0131   -1.3122   -0.5755 H   0  0  0  0  0  0  0  0  0  0  0  0
   -3.3593   -0.0139    1.1422 H   0  0  0  0  0  0  0  0  0  0  0  0
  1  2  1  0
  2  3  1  0
  3  4  1  0
  4  5  2  0
  5  6  1  0
  6  7  1  0
  6  8  1  0
  8  9  2  0
  8  3  1  0
  1 10  1  0
  1 11  1  0
  1 12  1  0
  3 13  1  0
  4 14  1  0
  5 15  1  0
  6 16  1  0
  7 17  1  0
M  END
