
     RDKit          3D

 21 21  0  0  0  0  0  0  0  0999 V2000
    3.1593   -0.4536    0.3264 C   0  0  0  0  0  0  0  0  0  0  0  0
    1.9369   -0.6981   -0.2919 O   0  0  0  0  0  0  0  0  0  0  0  0
    0.9096    0.0604    0.2677 C   0  0  0  0  0  0  0  0  0  0  0  0
    0.3506    0.9551   -0.7633 C   0  0  0  0  0  0  0  0  0  0  0  0
   -0.8845    1.3522   -1.0065 C   0  0  0  0  0  0  0  0  0  0  0  0
   -2.1105    0.9829   -0.2648 C   0  0  0  0  0  0  0  0  0  0  0  0
   -2.2337   -0.5392   -0.3836 C   0  0  0  0  0  0  0  0  0  0  0  0
   -1.3312   -1.1501    0.6261 C   0  0  0  0  0  0  0  0  0  0  0  0
   -0.0728   -0.8742    0.8492 C   0  0  0  0  0  0  0  0  0  0  0  0
    3.9042   -1.1037   -0.1912 H   0  0  0  0  0  0  0  0  0  0  0  0
    3.4974    0.5893    0.2353 H   0  0  0  0  0  0  0  0  0  0  0  0
    3.1244   -0.6901    1.4247 H   0  0  0  0  0  0  0  0  0  0  0  0
    1.3443    0.6828    1.0869 H   0  0  0  0  0  0  0  0  0  0  0  0
    1.0677    1.3885   -1.4788 H   0  0  0  0  0  0  0  0  0  0  0  0
   -1.0140    2.0202   -1.8387 H   0  0  0  0  0  0  0  0  0  0  0  0
   -3.0005    1.4880   -0.6769 H   0  0  0  0  0  0  0  0  0  0  0  0
   -2.0472    1.1918    0.8213 H   0  0  0  0  0  0  0  0  0  0  0  0
   -3.2902   -0.8579   -0.2459 H   0  0  0  0  0  0  0  0  0  0  0  0
   -1.9195   -0.8488   -1.4113 H   0  0  0  0  0  0  0  0  0  0  0  0
   -1.7626   -1.9172    1.2563 H   0  0  0  0  0  0  0  0  0  0  0  0
    0.3724   -1.4722    1.6591 H   0  0  0  0  0  0  0  0  0  0  0  0
  1  2  1  0
  2  3  1  0
  3  4  1  0
  4  5  2  0
  5  6  1  0
  6  7  1  0
  7  8  1  0
  8  9  2  0
  9  3  1  0
  1 10  1  0
  1 11  1  0
  1 12  1  0
  3 13  1  0
  4 14  1  0
  5 15  1  0
  6 16  1  0
  6 17  1  0
  7 18  1  0
  7 19  1  0
  8 20  1  0
  9 21  1  0
M  END
