
     RDKit          3D

 21 22  0  0  0  0  0  0  0  0999 V2000
   -2.2240    1.2139    0.2950 C   0  0  0  0  0  0  0  0  0  0  0  0
   -1.2137    0.3526    0.7359 O   0  0  0  0  0  0  0  0  0  0  0  0
   -0.6511   -0.2279   -0.3760 C   0  0  0  0  0  0  0  0  0  0  0  0
   -0.3988   -1.6927   -0.1470 C   0  0  0  0  0  0  0  0  0  0  0  0
    0.6691   -1.2498    0.8226 C   0  0  0  0  0  0  0  0  0  0  0  0
    0.8584   -0.3462   -0.3692 C   0  0  0  0  0  0  0  0  0  0  0  0
    1.6921    0.5739   -0.5171 O   0  0  0  0  0  0  0  0  0  0  0  0
    1.7031    1.6178    0.3662 C   0  0  0  0  0  0  0  0  0  0  0  0
    0.6592   -1.5643   -1.2099 C   0  0  0  0  0  0  0  0  0  0  0  0
   -2.6924    1.6921    1.1535 H   0  0  0  0  0  0  0  0  0  0  0  0
   -1.7932    1.9258   -0.4399 H   0  0  0  0  0  0  0  0  0  0  0  0
   -2.9707    0.6121   -0.2623 H   0  0  0  0  0  0  0  0  0  0  0  0
   -1.0540    0.0564   -1.3471 H   0  0  0  0  0  0  0  0  0  0  0  0
   -1.0660   -2.4232   -0.0275 H   0  0  0  0  0  0  0  0  0  0  0  0
    1.4315   -2.0335    0.9232 H   0  0  0  0  0  0  0  0  0  0  0  0
    0.3217   -0.7824    1.7459 H   0  0  0  0  0  0  0  0  0  0  0  0
    2.5149    2.3467    0.0791 H   0  0  0  0  0  0  0  0  0  0  0  0
    1.7517    1.3334    1.4237 H   0  0  0  0  0  0  0  0  0  0  0  0
    0.7566    2.2245    0.2597 H   0  0  0  0  0  0  0  0  0  0  0  0
    1.4383   -2.3268   -1.1855 H   0  0  0  0  0  0  0  0  0  0  0  0
    0.2673   -1.3025   -2.2044 H   0  0  0  0  0  0  0  0  0  0  0  0
  1  2  1  0
  2  3  1  0
  3  4  1  0
  4  5  1  0
  5  6  1  0
  6  7  1  0
  7  8  1  0
  6  9  1  0
  6  3  1  0
  9  4  1  0
  1 10  1  0
  1 11  1  0
  1 12  1  0
  3 13  1  0
  4 14  1  0
  5 15  1  0
  5 16  1  0
  8 17  1  0
  8 18  1  0
  8 19  1  0
  9 20  1  0
  9 21  1  0
M  END
