
     RDKit          3D

 19 20  0  0  0  0  0  0  0  0999 V2000
   -2.6835    0.8684    0.2374 C   0  0  0  0  0  0  0  0  0  0  0  0
   -1.2909    0.8143    0.2070 O   0  0  0  0  0  0  0  0  0  0  0  0
   -0.8828   -0.4859    0.1245 C   0  0  0  0  0  0  0  0  0  0  0  0
   -0.0475   -0.8591    1.1987 O   0  0  0  0  0  0  0  0  0  0  0  0
    1.2319   -1.0696    0.6405 C   0  0  0  0  0  0  0  0  0  0  0  0
    1.2418   -0.1141   -0.4823 C   0  0  0  0  0  0  0  0  0  0  0  0
    2.0761    1.0036   -0.2939 C   0  0  0  0  0  0  0  0  0  0  0  0
    0.8044   -0.0651   -1.7325 O   0  0  0  0  0  0  0  0  0  0  0  0
    0.0729   -0.7516   -1.0189 C   0  0  0  0  0  0  0  0  0  0  0  0
   -3.0579    1.9097    0.3045 H   0  0  0  0  0  0  0  0  0  0  0  0
   -3.0901    0.3480    1.1531 H   0  0  0  0  0  0  0  0  0  0  0  0
   -3.1092    0.4004   -0.6851 H   0  0  0  0  0  0  0  0  0  0  0  0
   -1.7658   -1.1587    0.1033 H   0  0  0  0  0  0  0  0  0  0  0  0
    1.3321   -2.1359    0.3336 H   0  0  0  0  0  0  0  0  0  0  0  0
    1.9461   -0.8603    1.4165 H   0  0  0  0  0  0  0  0  0  0  0  0
    3.1634    0.7352   -0.4724 H   0  0  0  0  0  0  0  0  0  0  0  0
    1.9407    1.9562   -0.8445 H   0  0  0  0  0  0  0  0  0  0  0  0
    2.0811    1.3324    0.7923 H   0  0  0  0  0  0  0  0  0  0  0  0
    0.0370   -1.8678   -1.2528 H   0  0  0  0  0  0  0  0  0  0  0  0
  1  2  1  0
  2  3  1  0
  3  4  1  0
  4  5  1  0
  5  6  1  0
  6  7  1  0
  6  8  1  0
  8  9  1  0
  9  3  1  0
  9  6  1  0
  1 10  1  0
  1 11  1  0
  1 12  1  0
  3 13  1  0
  5 14  1  0
  5 15  1  0
  7 16  1  0
  7 17  1  0
  7 18  1  0
  9 19  1  0
M  END
