
     RDKit          3D

 23 23  0  0  0  0  0  0  0  0999 V2000
    3.2955    0.1581    0.5407 C   0  0  0  0  0  0  0  0  0  0  0  0
    1.9775    0.1552    1.0010 O   0  0  0  0  0  0  0  0  0  0  0  0
    1.0908   -0.2370    0.0311 C   0  0  0  0  0  0  0  0  0  0  0  0
    0.3250   -1.4468    0.4767 C   0  0  0  0  0  0  0  0  0  0  0  0
   -1.1391   -1.1642    0.2718 C   0  0  0  0  0  0  0  0  0  0  0  0
   -1.1477    0.0839   -0.5953 C   0  0  0  0  0  0  0  0  0  0  0  0
   -2.4263    0.8241   -0.3194 C   0  0  0  0  0  0  0  0  0  0  0  0
   -2.5540    1.2045    1.0072 O   0  0  0  0  0  0  0  0  0  0  0  0
    0.0794    0.8559   -0.2455 C   0  0  0  0  0  0  0  0  0  0  0  0
    3.4679    0.8273   -0.3036 H   0  0  0  0  0  0  0  0  0  0  0  0
    3.9996    0.3266    1.3770 H   0  0  0  0  0  0  0  0  0  0  0  0
    3.4803   -0.8884    0.1664 H   0  0  0  0  0  0  0  0  0  0  0  0
    1.5669   -0.4804   -0.9365 H   0  0  0  0  0  0  0  0  0  0  0  0
    0.5694   -2.3476   -0.1456 H   0  0  0  0  0  0  0  0  0  0  0  0
    0.4789   -1.6712    1.5588 H   0  0  0  0  0  0  0  0  0  0  0  0
   -1.6796   -1.9778   -0.2300 H   0  0  0  0  0  0  0  0  0  0  0  0
   -1.6639   -0.8993    1.2104 H   0  0  0  0  0  0  0  0  0  0  0  0
   -1.1202   -0.1872   -1.6541 H   0  0  0  0  0  0  0  0  0  0  0  0
   -3.2688    0.1337   -0.5493 H   0  0  0  0  0  0  0  0  0  0  0  0
   -2.5069    1.7171   -0.9823 H   0  0  0  0  0  0  0  0  0  0  0  0
   -3.1237    2.0284    1.0034 H   0  0  0  0  0  0  0  0  0  0  0  0
   -0.0887    1.5034    0.6283 H   0  0  0  0  0  0  0  0  0  0  0  0
    0.3876    1.4818   -1.1089 H   0  0  0  0  0  0  0  0  0  0  0  0
  1  2  1  0
  2  3  1  0
  3  4  1  0
  4  5  1  0
  5  6  1  0
  6  7  1  0
  7  8  1  0
  6  9  1  0
  9  3  1  0
  1 10  1  0
  1 11  1  0
  1 12  1  0
  3 13  1  0
  4 14  1  0
  4 15  1  0
  5 16  1  0
  5 17  1  0
  6 18  1  0
  7 19  1  0
  7 20  1  0
  8 21  1  0
  9 22  1  0
  9 23  1  0
M  END
