
     RDKit          3D

 17 19  0  0  0  0  0  0  0  0999 V2000
    2.5707   -0.3634   -0.0920 C   0  0  0  0  0  0  0  0  0  0  0  0
    1.3921    0.0223   -0.6957 O   0  0  0  0  0  0  0  0  0  0  0  0
    0.3368    0.1561    0.1912 C   0  0  0  0  0  0  0  0  0  0  0  0
   -0.2572    1.5402   -0.0302 C   0  0  0  0  0  0  0  0  0  0  0  0
   -0.5336    1.8191   -1.3429 O   0  0  0  0  0  0  0  0  0  0  0  0
   -1.4113    0.9051   -0.7860 C   0  0  0  0  0  0  0  0  0  0  0  0
   -0.9754   -0.3824   -0.2194 C   0  0  0  0  0  0  0  0  0  0  0  0
   -1.8590   -1.2156    0.5056 C   0  0  0  0  0  0  0  0  0  0  0  0
   -1.1958   -1.5970   -0.7719 O   0  0  0  0  0  0  0  0  0  0  0  0
    2.4945   -1.3436    0.4267 H   0  0  0  0  0  0  0  0  0  0  0  0
    3.3387   -0.4263   -0.8982 H   0  0  0  0  0  0  0  0  0  0  0  0
    2.9289    0.4406    0.6162 H   0  0  0  0  0  0  0  0  0  0  0  0
    0.5891   -0.0650    1.2555 H   0  0  0  0  0  0  0  0  0  0  0  0
   -0.4299    2.2129    0.7880 H   0  0  0  0  0  0  0  0  0  0  0  0
   -2.4340    1.3045   -0.6463 H   0  0  0  0  0  0  0  0  0  0  0  0
   -2.9626   -1.0863    0.3672 H   0  0  0  0  0  0  0  0  0  0  0  0
   -1.5919   -1.9213    1.3322 H   0  0  0  0  0  0  0  0  0  0  0  0
  1  2  1  0
  2  3  1  0
  3  4  1  0
  4  5  1  0
  5  6  1  0
  6  7  1  0
  7  8  1  0
  8  9  1  0
  7  3  1  0
  6  4  1  0
  9  7  1  0
  1 10  1  0
  1 11  1  0
  1 12  1  0
  3 13  1  0
  4 14  1  0
  6 15  1  0
  8 16  1  0
  8 17  1  0
M  END
