
     RDKit          3D

 23 24  0  0  0  0  0  0  0  0999 V2000
    2.3831    0.4298    0.4156 C   0  0  0  0  0  0  0  0  0  0  0  0
    1.2731   -0.2335    0.7940 O   0  0  0  0  0  0  0  0  0  0  0  0
    0.2632   -0.4570   -0.0744 C   0  0  0  0  0  0  0  0  0  0  0  0
    0.6573   -1.1515   -1.3793 C   0  0  0  0  0  0  0  0  0  0  0  0
   -0.6671    0.6744   -0.2694 C   0  0  0  0  0  0  0  0  0  0  0  0
   -0.2444    2.0491    0.1181 C   0  0  0  0  0  0  0  0  0  0  0  0
   -1.5848    0.0035    0.7616 C   0  0  0  0  0  0  0  0  0  0  0  0
   -2.2085   -1.2179    0.2746 C   0  0  0  0  0  0  0  0  0  0  0  0
   -0.8014   -1.3135    0.6195 C   0  0  0  0  0  0  0  0  0  0  0  0
    3.0553    0.4746    1.3312 H   0  0  0  0  0  0  0  0  0  0  0  0
    2.2244    1.4544    0.1198 H   0  0  0  0  0  0  0  0  0  0  0  0
    2.9488   -0.1623   -0.3641 H   0  0  0  0  0  0  0  0  0  0  0  0
    1.2521   -0.4800   -2.0007 H   0  0  0  0  0  0  0  0  0  0  0  0
    1.1314   -2.1318   -1.1762 H   0  0  0  0  0  0  0  0  0  0  0  0
   -0.3027   -1.3575   -1.9029 H   0  0  0  0  0  0  0  0  0  0  0  0
   -1.1837    0.6328   -1.2832 H   0  0  0  0  0  0  0  0  0  0  0  0
   -1.2106    2.6415    0.2226 H   0  0  0  0  0  0  0  0  0  0  0  0
    0.3281    2.5385   -0.6731 H   0  0  0  0  0  0  0  0  0  0  0  0
    0.2028    2.0333    1.1091 H   0  0  0  0  0  0  0  0  0  0  0  0
   -1.6019    0.3759    1.7794 H   0  0  0  0  0  0  0  0  0  0  0  0
   -2.5067   -1.2144   -0.8125 H   0  0  0  0  0  0  0  0  0  0  0  0
   -2.9301   -1.7295    0.9010 H   0  0  0  0  0  0  0  0  0  0  0  0
   -0.4780   -1.8590    1.4889 H   0  0  0  0  0  0  0  0  0  0  0  0
  1  2  1  0
  2  3  1  0
  3  4  1  0
  3  5  1  0
  5  6  1  0
  5  7  1  0
  7  8  1  0
  8  9  1  0
  9  3  1  0
  9  7  1  0
  1 10  1  0
  1 11  1  0
  1 12  1  0
  4 13  1  0
  4 14  1  0
  4 15  1  0
  5 16  1  0
  6 17  1  0
  6 18  1  0
  6 19  1  0
  7 20  1  0
  8 21  1  0
  8 22  1  0
  9 23  1  0
M  END
