
     RDKit          3D

 23 24  0  0  0  0  0  0  0  0999 V2000
    2.5703    0.4259   -0.2799 C   0  0  0  0  0  0  0  0  0  0  0  0
    1.3680    0.6244    0.3730 O   0  0  0  0  0  0  0  0  0  0  0  0
    0.3544   -0.1971   -0.0267 C   0  0  0  0  0  0  0  0  0  0  0  0
    0.5479   -1.6718    0.1305 C   0  0  0  0  0  0  0  0  0  0  0  0
   -0.3418    0.1556   -1.3125 C   0  0  0  0  0  0  0  0  0  0  0  0
   -0.7611    1.4165   -0.6108 C   0  0  0  0  0  0  0  0  0  0  0  0
   -0.9844    0.3334    0.4178 C   0  0  0  0  0  0  0  0  0  0  0  0
   -1.4476    0.4798    1.6931 C   0  0  0  0  0  0  0  0  0  0  0  0
   -1.5743   -0.4651   -0.7057 C   0  0  0  0  0  0  0  0  0  0  0  0
    2.9451   -0.6193   -0.1239 H   0  0  0  0  0  0  0  0  0  0  0  0
    2.5842    0.7303   -1.3246 H   0  0  0  0  0  0  0  0  0  0  0  0
    3.3242    1.0792    0.2506 H   0  0  0  0  0  0  0  0  0  0  0  0
    0.4845   -2.1399   -0.8803 H   0  0  0  0  0  0  0  0  0  0  0  0
    1.5449   -1.9547    0.5308 H   0  0  0  0  0  0  0  0  0  0  0  0
   -0.1909   -2.1276    0.8428 H   0  0  0  0  0  0  0  0  0  0  0  0
   -0.0027    0.0523   -2.2433 H   0  0  0  0  0  0  0  0  0  0  0  0
   -1.6488    1.9135   -0.9932 H   0  0  0  0  0  0  0  0  0  0  0  0
    0.1307    2.0608   -0.4155 H   0  0  0  0  0  0  0  0  0  0  0  0
   -2.0582    1.4089    1.8599 H   0  0  0  0  0  0  0  0  0  0  0  0
   -2.1121   -0.3485    2.0482 H   0  0  0  0  0  0  0  0  0  0  0  0
   -0.6427    0.5458    2.4755 H   0  0  0  0  0  0  0  0  0  0  0  0
   -2.5390   -0.1400   -1.1036 H   0  0  0  0  0  0  0  0  0  0  0  0
   -1.5506   -1.5626   -0.6020 H   0  0  0  0  0  0  0  0  0  0  0  0
  1  2  1  0
  2  3  1  0
  3  4  1  0
  3  5  1  0
  5  6  1  0
  6  7  1  0
  7  8  1  0
  7  9  1  0
  7  3  1  0
  9  5  1  0
  1 10  1  0
  1 11  1  0
  1 12  1  0
  4 13  1  0
  4 14  1  0
  4 15  1  0
  5 16  1  0
  6 17  1  0
  6 18  1  0
  8 19  1  0
  8 20  1  0
  8 21  1  0
  9 22  1  0
  9 23  1  0
M  END
