
     RDKit          3D

 21 22  0  0  0  0  0  0  0  0999 V2000
    2.4104   -0.2988    0.7855 C   0  0  0  0  0  0  0  0  0  0  0  0
    1.0574   -0.2649    1.1835 O   0  0  0  0  0  0  0  0  0  0  0  0
    0.3265    0.1296    0.0950 C   0  0  0  0  0  0  0  0  0  0  0  0
    0.3847   -0.7098   -1.1228 C   0  0  0  0  0  0  0  0  0  0  0  0
   -0.8795   -0.5328   -0.3854 C   0  0  0  0  0  0  0  0  0  0  0  0
   -1.5688   -1.6451    0.3178 C   0  0  0  0  0  0  0  0  0  0  0  0
   -1.5815    0.7941   -0.6003 C   0  0  0  0  0  0  0  0  0  0  0  0
   -0.3889    1.4546    0.0882 C   0  0  0  0  0  0  0  0  0  0  0  0
    0.2816    2.3801   -0.6751 O   0  0  0  0  0  0  0  0  0  0  0  0
    2.7383    0.7180    0.4442 H   0  0  0  0  0  0  0  0  0  0  0  0
    3.0750   -0.5592    1.6432 H   0  0  0  0  0  0  0  0  0  0  0  0
    2.5636   -0.9770   -0.0773 H   0  0  0  0  0  0  0  0  0  0  0  0
    0.5654   -0.1439   -2.0704 H   0  0  0  0  0  0  0  0  0  0  0  0
    0.8797   -1.6790   -1.0195 H   0  0  0  0  0  0  0  0  0  0  0  0
   -0.9331   -2.0682    1.1065 H   0  0  0  0  0  0  0  0  0  0  0  0
   -1.9460   -2.4430   -0.3587 H   0  0  0  0  0  0  0  0  0  0  0  0
   -2.4735   -1.2236    0.8375 H   0  0  0  0  0  0  0  0  0  0  0  0
   -1.6104    1.0864   -1.6650 H   0  0  0  0  0  0  0  0  0  0  0  0
   -2.5347    0.9009   -0.0783 H   0  0  0  0  0  0  0  0  0  0  0  0
   -0.6411    1.7832    1.1036 H   0  0  0  0  0  0  0  0  0  0  0  0
    0.2746    3.2984   -0.2674 H   0  0  0  0  0  0  0  0  0  0  0  0
  1  2  1  0
  2  3  1  0
  3  4  1  0
  4  5  1  0
  5  6  1  0
  5  7  1  0
  7  8  1  0
  8  9  1  0
  5  3  1  0
  8  3  1  0
  1 10  1  0
  1 11  1  0
  1 12  1  0
  4 13  1  0
  4 14  1  0
  6 15  1  0
  6 16  1  0
  6 17  1  0
  7 18  1  0
  7 19  1  0
  8 20  1  0
  9 21  1  0
M  END
