
     RDKit          3D

 21 22  0  0  0  0  0  0  0  0999 V2000
    2.4589    0.0222    0.6668 C   0  0  0  0  0  0  0  0  0  0  0  0
    1.2023    0.5243    0.9839 O   0  0  0  0  0  0  0  0  0  0  0  0
    0.2633   -0.2185    0.3105 C   0  0  0  0  0  0  0  0  0  0  0  0
    0.1102   -1.6682    0.5089 C   0  0  0  0  0  0  0  0  0  0  0  0
   -0.9488   -0.7677    1.0188 C   0  0  0  0  0  0  0  0  0  0  0  0
   -2.0374   -0.5655    0.2117 O   0  0  0  0  0  0  0  0  0  0  0  0
   -1.6061   -0.3724   -1.0824 C   0  0  0  0  0  0  0  0  0  0  0  0
   -0.3649    0.4783   -0.8791 C   0  0  0  0  0  0  0  0  0  0  0  0
   -0.7856    1.8540   -0.4274 C   0  0  0  0  0  0  0  0  0  0  0  0
    2.6096    0.1051   -0.4262 H   0  0  0  0  0  0  0  0  0  0  0  0
    2.4767   -1.0517    0.9275 H   0  0  0  0  0  0  0  0  0  0  0  0
    3.2666    0.5205    1.2441 H   0  0  0  0  0  0  0  0  0  0  0  0
    0.7927   -2.1552    1.2154 H   0  0  0  0  0  0  0  0  0  0  0  0
   -0.1749   -2.3396   -0.3434 H   0  0  0  0  0  0  0  0  0  0  0  0
   -1.0100   -0.4656    2.0813 H   0  0  0  0  0  0  0  0  0  0  0  0
   -2.3190    0.2362   -1.6634 H   0  0  0  0  0  0  0  0  0  0  0  0
   -1.4005   -1.3006   -1.6337 H   0  0  0  0  0  0  0  0  0  0  0  0
    0.2891    0.4832   -1.7631 H   0  0  0  0  0  0  0  0  0  0  0  0
   -0.4768    2.0784    0.6136 H   0  0  0  0  0  0  0  0  0  0  0  0
   -0.4383    2.6520   -1.1384 H   0  0  0  0  0  0  0  0  0  0  0  0
   -1.9070    1.9510   -0.4254 H   0  0  0  0  0  0  0  0  0  0  0  0
  1  2  1  0
  2  3  1  0
  3  4  1  0
  4  5  1  0
  5  6  1  0
  6  7  1  0
  7  8  1  0
  8  9  1  0
  5  3  1  0
  8  3  1  0
  1 10  1  0
  1 11  1  0
  1 12  1  0
  4 13  1  0
  4 14  1  0
  5 15  1  0
  7 16  1  0
  7 17  1  0
  8 18  1  0
  9 19  1  0
  9 20  1  0
  9 21  1  0
M  END
