
     RDKit          3D

 16 17  0  0  0  0  0  0  0  0999 V2000
   -2.3451   -0.8905   -0.3016 C   0  0  0  0  0  0  0  0  0  0  0  0
   -1.5190    0.1914   -0.2129 O   0  0  0  0  0  0  0  0  0  0  0  0
   -0.2071   -0.0409    0.0084 C   0  0  0  0  0  0  0  0  0  0  0  0
    0.5115    0.7295    1.0618 C   0  0  0  0  0  0  0  0  0  0  0  0
    1.9229    0.1971    0.9334 C   0  0  0  0  0  0  0  0  0  0  0  0
    2.0673    0.2281   -0.3945 C   0  0  0  0  0  0  0  0  0  0  0  0
    0.7404    0.7842   -0.8110 C   0  0  0  0  0  0  0  0  0  0  0  0
    0.5787    1.7914    0.1592 O   0  0  0  0  0  0  0  0  0  0  0  0
   -3.3839   -0.4936   -0.4856 H   0  0  0  0  0  0  0  0  0  0  0  0
   -2.1283   -1.5764   -1.1431 H   0  0  0  0  0  0  0  0  0  0  0  0
   -2.4219   -1.5035    0.6131 H   0  0  0  0  0  0  0  0  0  0  0  0
    0.0213   -1.1186    0.0897 H   0  0  0  0  0  0  0  0  0  0  0  0
    0.1156    0.8719    2.0271 H   0  0  0  0  0  0  0  0  0  0  0  0
    2.6038   -0.1146    1.7150 H   0  0  0  0  0  0  0  0  0  0  0  0
    2.8895   -0.0565   -1.0355 H   0  0  0  0  0  0  0  0  0  0  0  0
    0.5543    1.0008   -1.8217 H   0  0  0  0  0  0  0  0  0  0  0  0
  1  2  1  0
  2  3  1  0
  3  4  1  0
  4  5  1  0
  5  6  2  0
  6  7  1  0
  7  8  1  0
  7  3  1  0
  8  4  1  0
  1  9  1  0
  1 10  1  0
  1 11  1  0
  3 12  1  0
  4 13  1  0
  5 14  1  0
  6 15  1  0
  7 16  1  0
M  END
