
     RDKit          3D

 21 22  0  0  0  0  0  0  0  0999 V2000
    2.9651    0.6305    0.6650 C   0  0  0  0  0  0  0  0  0  0  0  0
    1.7626   -0.0630    0.6222 O   0  0  0  0  0  0  0  0  0  0  0  0
    0.9511    0.3501   -0.4335 C   0  0  0  0  0  0  0  0  0  0  0  0
    0.6194   -0.8401   -1.2399 C   0  0  0  0  0  0  0  0  0  0  0  0
   -0.6359   -1.1807   -1.0208 C   0  0  0  0  0  0  0  0  0  0  0  0
   -1.3112   -0.2999   -0.0677 C   0  0  0  0  0  0  0  0  0  0  0  0
   -2.7734   -0.0352   -0.3563 C   0  0  0  0  0  0  0  0  0  0  0  0
   -0.8667   -0.0794    1.3138 C   0  0  0  0  0  0  0  0  0  0  0  0
   -0.3573    0.7785    0.1596 C   0  0  0  0  0  0  0  0  0  0  0  0
    3.5464    0.2427    1.5282 H   0  0  0  0  0  0  0  0  0  0  0  0
    3.4878    0.4741   -0.2869 H   0  0  0  0  0  0  0  0  0  0  0  0
    2.7007    1.7039    0.8349 H   0  0  0  0  0  0  0  0  0  0  0  0
    1.4274    1.1542   -1.0337 H   0  0  0  0  0  0  0  0  0  0  0  0
    1.3308   -1.3536   -1.9192 H   0  0  0  0  0  0  0  0  0  0  0  0
   -1.1179   -2.0430   -1.5110 H   0  0  0  0  0  0  0  0  0  0  0  0
   -3.2192   -0.9982   -0.6551 H   0  0  0  0  0  0  0  0  0  0  0  0
   -2.9267    0.7698   -1.0965 H   0  0  0  0  0  0  0  0  0  0  0  0
   -3.2910    0.2780    0.5733 H   0  0  0  0  0  0  0  0  0  0  0  0
   -0.0980   -0.6693    1.8179 H   0  0  0  0  0  0  0  0  0  0  0  0
   -1.5450    0.4581    1.9806 H   0  0  0  0  0  0  0  0  0  0  0  0
   -0.6490    1.8488    0.1250 H   0  0  0  0  0  0  0  0  0  0  0  0
  1  2  1  0
  2  3  1  0
  3  4  1  0
  4  5  2  0
  5  6  1  0
  6  7  1  0
  6  8  1  0
  8  9  1  0
  9  3  1  0
  9  6  1  0
  1 10  1  0
  1 11  1  0
  1 12  1  0
  3 13  1  0
  4 14  1  0
  5 15  1  0
  7 16  1  0
  7 17  1  0
  7 18  1  0
  8 19  1  0
  8 20  1  0
  9 21  1  0
M  END
