
     RDKit          3D

 21 23  0  0  0  0  0  0  0  0999 V2000
    2.4095    0.2604   -0.9731 C   0  0  0  0  0  0  0  0  0  0  0  0
    1.0566    0.0217   -1.1831 O   0  0  0  0  0  0  0  0  0  0  0  0
    0.3998   -0.3407   -0.0190 C   0  0  0  0  0  0  0  0  0  0  0  0
    0.8218   -1.5365    0.7016 C   0  0  0  0  0  0  0  0  0  0  0  0
   -0.4381   -1.6412   -0.0565 C   0  0  0  0  0  0  0  0  0  0  0  0
   -1.6251   -0.8749    0.5238 C   0  0  0  0  0  0  0  0  0  0  0  0
   -0.8823    0.3666    0.2505 C   0  0  0  0  0  0  0  0  0  0  0  0
   -1.4003    1.4476   -0.5793 C   0  0  0  0  0  0  0  0  0  0  0  0
   -1.0212    1.6392    0.9075 C   0  0  0  0  0  0  0  0  0  0  0  0
    2.8951   -0.6556   -0.5790 H   0  0  0  0  0  0  0  0  0  0  0  0
    2.8713    0.6481   -1.8778 H   0  0  0  0  0  0  0  0  0  0  0  0
    2.5172    1.0318   -0.1582 H   0  0  0  0  0  0  0  0  0  0  0  0
    1.6821   -2.0997    0.2686 H   0  0  0  0  0  0  0  0  0  0  0  0
    0.7402   -1.6201    1.8165 H   0  0  0  0  0  0  0  0  0  0  0  0
   -0.5256   -2.1070   -1.0362 H   0  0  0  0  0  0  0  0  0  0  0  0
   -1.7954   -1.1659    1.5750 H   0  0  0  0  0  0  0  0  0  0  0  0
   -2.5469   -0.9489   -0.0822 H   0  0  0  0  0  0  0  0  0  0  0  0
   -2.4980    1.4908   -0.8069 H   0  0  0  0  0  0  0  0  0  0  0  0
   -0.7518    1.9057   -1.3354 H   0  0  0  0  0  0  0  0  0  0  0  0
   -0.0932    2.2601    1.0356 H   0  0  0  0  0  0  0  0  0  0  0  0
   -1.8156    1.9184    1.6077 H   0  0  0  0  0  0  0  0  0  0  0  0
  1  2  1  0
  2  3  1  0
  3  4  1  0
  4  5  1  0
  5  6  1  0
  6  7  1  0
  7  8  1  0
  8  9  1  0
  5  3  1  0
  9  7  1  0
  7  3  1  0
  1 10  1  0
  1 11  1  0
  1 12  1  0
  4 13  1  0
  4 14  1  0
  5 15  1  0
  6 16  1  0
  6 17  1  0
  8 18  1  0
  8 19  1  0
  9 20  1  0
  9 21  1  0
M  END
