
     RDKit          3D

 21 22  0  0  0  0  0  0  0  0999 V2000
    3.4749    0.3605    0.2212 C   0  0  0  0  0  0  0  0  0  0  0  0
    2.3479   -0.3842    0.5642 O   0  0  0  0  0  0  0  0  0  0  0  0
    1.2482   -0.0584   -0.2102 C   0  0  0  0  0  0  0  0  0  0  0  0
    0.2606   -1.1172   -0.4340 C   0  0  0  0  0  0  0  0  0  0  0  0
   -0.7845   -0.8306   -1.3216 O   0  0  0  0  0  0  0  0  0  0  0  0
   -1.3586   -0.0730   -0.2878 C   0  0  0  0  0  0  0  0  0  0  0  0
   -1.9005    1.2592   -0.6914 C   0  0  0  0  0  0  0  0  0  0  0  0
   -2.3621   -0.8996    0.5040 C   0  0  0  0  0  0  0  0  0  0  0  0
   -0.0683    0.0175    0.4588 C   0  0  0  0  0  0  0  0  0  0  0  0
    4.3491    0.0994    0.8390 H   0  0  0  0  0  0  0  0  0  0  0  0
    3.6827    0.2083   -0.8433 H   0  0  0  0  0  0  0  0  0  0  0  0
    3.2414    1.4277    0.4424 H   0  0  0  0  0  0  0  0  0  0  0  0
    1.4142    0.7423   -0.9887 H   0  0  0  0  0  0  0  0  0  0  0  0
    0.3970   -2.1301   -0.0653 H   0  0  0  0  0  0  0  0  0  0  0  0
   -1.1673    2.0615   -0.4649 H   0  0  0  0  0  0  0  0  0  0  0  0
   -2.8351    1.4983   -0.1345 H   0  0  0  0  0  0  0  0  0  0  0  0
   -2.0942    1.2431   -1.7961 H   0  0  0  0  0  0  0  0  0  0  0  0
   -1.8790   -1.3997    1.3818 H   0  0  0  0  0  0  0  0  0  0  0  0
   -2.7548   -1.7288   -0.1285 H   0  0  0  0  0  0  0  0  0  0  0  0
   -3.1502   -0.2185    0.8638 H   0  0  0  0  0  0  0  0  0  0  0  0
   -0.0613   -0.0778    1.5603 H   0  0  0  0  0  0  0  0  0  0  0  0
  1  2  1  0
  2  3  1  0
  3  4  1  0
  4  5  1  0
  5  6  1  0
  6  7  1  0
  6  8  1  0
  6  9  1  0
  9  3  1  0
  9  4  1  0
  1 10  1  0
  1 11  1  0
  1 12  1  0
  3 13  1  0
  4 14  1  0
  7 15  1  0
  7 16  1  0
  7 17  1  0
  8 18  1  0
  8 19  1  0
  8 20  1  0
  9 21  1  0
M  END
