
     RDKit          3D

 21 22  0  0  0  0  0  0  0  0999 V2000
   -3.1607    0.1560   -0.0513 C   0  0  0  0  0  0  0  0  0  0  0  0
   -1.9812    0.2282    0.6896 O   0  0  0  0  0  0  0  0  0  0  0  0
   -0.9325   -0.0499   -0.1449 C   0  0  0  0  0  0  0  0  0  0  0  0
   -0.1836   -1.2467    0.4115 C   0  0  0  0  0  0  0  0  0  0  0  0
    1.1542   -1.1119   -0.2902 C   0  0  0  0  0  0  0  0  0  0  0  0
    1.4440    0.3433   -0.4130 C   0  0  0  0  0  0  0  0  0  0  0  0
    2.7176    0.9184    0.1480 C   0  0  0  0  0  0  0  0  0  0  0  0
    0.8040    1.1387   -1.3427 O   0  0  0  0  0  0  0  0  0  0  0  0
    0.1438    1.0091   -0.1430 C   0  0  0  0  0  0  0  0  0  0  0  0
   -4.0574    0.3670    0.5454 H   0  0  0  0  0  0  0  0  0  0  0  0
   -3.2015   -0.8729   -0.5142 H   0  0  0  0  0  0  0  0  0  0  0  0
   -3.0396    0.8550   -0.9135 H   0  0  0  0  0  0  0  0  0  0  0  0
   -1.2682   -0.2609   -1.1862 H   0  0  0  0  0  0  0  0  0  0  0  0
   -0.0268   -1.0632    1.4818 H   0  0  0  0  0  0  0  0  0  0  0  0
   -0.7057   -2.1775    0.1836 H   0  0  0  0  0  0  0  0  0  0  0  0
    1.1108   -1.6553   -1.2350 H   0  0  0  0  0  0  0  0  0  0  0  0
    1.9152   -1.5644    0.3758 H   0  0  0  0  0  0  0  0  0  0  0  0
    2.5426    1.1598    1.2228 H   0  0  0  0  0  0  0  0  0  0  0  0
    3.5491    0.1962    0.0222 H   0  0  0  0  0  0  0  0  0  0  0  0
    3.0146    1.8456   -0.3491 H   0  0  0  0  0  0  0  0  0  0  0  0
    0.1616    1.7857    0.6229 H   0  0  0  0  0  0  0  0  0  0  0  0
  1  2  1  0
  2  3  1  0
  3  4  1  0
  4  5  1  0
  5  6  1  0
  6  7  1  0
  6  8  1  0
  8  9  1  0
  9  3  1  0
  9  6  1  0
  1 10  1  0
  1 11  1  0
  1 12  1  0
  3 13  1  0
  4 14  1  0
  4 15  1  0
  5 16  1  0
  5 17  1  0
  7 18  1  0
  7 19  1  0
  7 20  1  0
  9 21  1  0
M  END
