
     RDKit          3D

 16 16  0  0  0  0  0  0  0  0999 V2000
    2.4813   -0.1904    0.3488 C   0  0  0  0  0  0  0  0  0  0  0  0
    1.4572   -0.6533   -0.4793 O   0  0  0  0  0  0  0  0  0  0  0  0
    0.3040   -0.0011   -0.1287 C   0  0  0  0  0  0  0  0  0  0  0  0
   -0.8105   -1.0152    0.1661 C   0  0  0  0  0  0  0  0  0  0  0  0
   -1.9692   -0.0889    0.1708 C   0  0  0  0  0  0  0  0  0  0  0  0
   -3.0051   -0.2233    0.7470 O   0  0  0  0  0  0  0  0  0  0  0  0
   -1.5518    1.0423   -0.7012 C   0  0  0  0  0  0  0  0  0  0  0  0
   -0.2822    0.6862   -1.1914 O   0  0  0  0  0  0  0  0  0  0  0  0
    3.4027   -0.7085    0.0720 H   0  0  0  0  0  0  0  0  0  0  0  0
    2.2023   -0.3538    1.4072 H   0  0  0  0  0  0  0  0  0  0  0  0
    2.6154    0.8868    0.1076 H   0  0  0  0  0  0  0  0  0  0  0  0
    0.4183    0.7211    0.6971 H   0  0  0  0  0  0  0  0  0  0  0  0
   -0.8567   -1.6805   -0.6921 H   0  0  0  0  0  0  0  0  0  0  0  0
   -0.6469   -1.5128    1.1330 H   0  0  0  0  0  0  0  0  0  0  0  0
   -2.3071    1.0943   -1.5138 H   0  0  0  0  0  0  0  0  0  0  0  0
   -1.4516    1.9970   -0.1433 H   0  0  0  0  0  0  0  0  0  0  0  0
  1  2  1  0
  2  3  1  0
  3  4  1  0
  4  5  1  0
  5  6  2  0
  5  7  1  0
  7  8  1  0
  8  3  1  0
  1  9  1  0
  1 10  1  0
  1 11  1  0
  3 12  1  0
  4 13  1  0
  4 14  1  0
  7 15  1  0
  7 16  1  0
M  END
