
     RDKit          3D

 19 19  0  0  0  0  0  0  0  0999 V2000
   -2.1274   -1.1820   -0.2875 C   0  0  0  0  0  0  0  0  0  0  0  0
   -0.9726   -0.7107   -0.8437 O   0  0  0  0  0  0  0  0  0  0  0  0
   -0.3179    0.2877   -0.1853 C   0  0  0  0  0  0  0  0  0  0  0  0
   -1.0074    1.5648    0.0332 C   0  0  0  0  0  0  0  0  0  0  0  0
   -2.1299    1.7300   -0.3715 O   0  0  0  0  0  0  0  0  0  0  0  0
    1.0506    0.5034   -0.8530 C   0  0  0  0  0  0  0  0  0  0  0  0
    1.7767    0.1336    0.4054 C   0  0  0  0  0  0  0  0  0  0  0  0
    2.5994   -0.9922    0.3153 O   0  0  0  0  0  0  0  0  0  0  0  0
    0.4721   -0.2188    1.0273 C   0  0  0  0  0  0  0  0  0  0  0  0
   -2.4978   -1.9942   -0.9829 H   0  0  0  0  0  0  0  0  0  0  0  0
   -1.9721   -1.7152    0.6858 H   0  0  0  0  0  0  0  0  0  0  0  0
   -2.9261   -0.4412   -0.2364 H   0  0  0  0  0  0  0  0  0  0  0  0
   -0.5194    2.3640    0.5551 H   0  0  0  0  0  0  0  0  0  0  0  0
    1.2913   -0.1979   -1.6589 H   0  0  0  0  0  0  0  0  0  0  0  0
    1.2127    1.5488   -1.1772 H   0  0  0  0  0  0  0  0  0  0  0  0
    2.3174    1.0152    0.8502 H   0  0  0  0  0  0  0  0  0  0  0  0
    3.2302   -0.8743   -0.4338 H   0  0  0  0  0  0  0  0  0  0  0  0
    0.2484    0.4499    1.9024 H   0  0  0  0  0  0  0  0  0  0  0  0
    0.2716   -1.2709    1.2554 H   0  0  0  0  0  0  0  0  0  0  0  0
  1  2  1  0
  2  3  1  0
  3  4  1  0
  4  5  2  0
  3  6  1  0
  6  7  1  0
  7  8  1  0
  7  9  1  0
  9  3  1  0
  1 10  1  0
  1 11  1  0
  1 12  1  0
  4 13  1  0
  6 14  1  0
  6 15  1  0
  7 16  1  0
  8 17  1  0
  9 18  1  0
  9 19  1  0
M  END
