
     RDKit          3D

 23 23  0  0  0  0  0  0  0  0999 V2000
    3.4229    0.0121   -0.0374 C   0  0  0  0  0  0  0  0  0  0  0  0
    2.2658   -0.5553    0.4844 O   0  0  0  0  0  0  0  0  0  0  0  0
    1.1326    0.1881    0.1968 C   0  0  0  0  0  0  0  0  0  0  0  0
    0.1147   -0.5834   -0.5923 C   0  0  0  0  0  0  0  0  0  0  0  0
   -1.1892   -0.0615    0.0286 C   0  0  0  0  0  0  0  0  0  0  0  0
   -1.6148    1.2300   -0.5814 C   0  0  0  0  0  0  0  0  0  0  0  0
   -2.2808   -1.0835   -0.0767 C   0  0  0  0  0  0  0  0  0  0  0  0
   -0.7124    0.1209    1.4616 C   0  0  0  0  0  0  0  0  0  0  0  0
    0.5511    0.6322    1.3513 O   0  0  0  0  0  0  0  0  0  0  0  0
    3.6228    1.0303    0.3499 H   0  0  0  0  0  0  0  0  0  0  0  0
    4.2695   -0.6297    0.3205 H   0  0  0  0  0  0  0  0  0  0  0  0
    3.4578   -0.0392   -1.1520 H   0  0  0  0  0  0  0  0  0  0  0  0
    1.4051    1.1039   -0.4069 H   0  0  0  0  0  0  0  0  0  0  0  0
    0.1542   -1.6581   -0.3450 H   0  0  0  0  0  0  0  0  0  0  0  0
    0.1398   -0.3766   -1.6707 H   0  0  0  0  0  0  0  0  0  0  0  0
   -1.1177    1.3007   -1.5887 H   0  0  0  0  0  0  0  0  0  0  0  0
   -1.2699    2.1304   -0.0036 H   0  0  0  0  0  0  0  0  0  0  0  0
   -2.7007    1.3388   -0.7274 H   0  0  0  0  0  0  0  0  0  0  0  0
   -1.8402   -2.0834    0.1183 H   0  0  0  0  0  0  0  0  0  0  0  0
   -2.7051   -1.0086   -1.1035 H   0  0  0  0  0  0  0  0  0  0  0  0
   -3.0851   -0.8193    0.6455 H   0  0  0  0  0  0  0  0  0  0  0  0
   -1.3902    0.7355    2.0555 H   0  0  0  0  0  0  0  0  0  0  0  0
   -0.6302   -0.9242    1.8775 H   0  0  0  0  0  0  0  0  0  0  0  0
  1  2  1  0
  2  3  1  0
  3  4  1  0
  4  5  1  0
  5  6  1  0
  5  7  1  0
  5  8  1  0
  8  9  1  0
  9  3  1  0
  1 10  1  0
  1 11  1  0
  1 12  1  0
  3 13  1  0
  4 14  1  0
  4 15  1  0
  6 16  1  0
  6 17  1  0
  6 18  1  0
  7 19  1  0
  7 20  1  0
  7 21  1  0
  8 22  1  0
  8 23  1  0
M  END
