
     RDKit          3D

 21 22  0  0  0  0  0  0  0  0999 V2000
    2.5060    0.2738   -0.6880 C   0  0  0  0  0  0  0  0  0  0  0  0
    1.2110    0.2550   -1.1128 O   0  0  0  0  0  0  0  0  0  0  0  0
    0.3398    0.0095   -0.2553 C   0  0  0  0  0  0  0  0  0  0  0  0
    0.0180    0.7688    1.0057 C   0  0  0  0  0  0  0  0  0  0  0  0
   -0.9554   -0.3719    1.0191 C   0  0  0  0  0  0  0  0  0  0  0  0
   -1.1384   -0.1226   -0.4496 C   0  0  0  0  0  0  0  0  0  0  0  0
   -1.8768    1.1144   -0.8377 C   0  0  0  0  0  0  0  0  0  0  0  0
    0.2119   -1.2341    0.6049 C   0  0  0  0  0  0  0  0  0  0  0  0
   -0.2473   -2.3483   -0.0827 O   0  0  0  0  0  0  0  0  0  0  0  0
    2.8700   -0.6738   -0.2490 H   0  0  0  0  0  0  0  0  0  0  0  0
    2.6919    1.0802    0.0627 H   0  0  0  0  0  0  0  0  0  0  0  0
    3.1982    0.4751   -1.5575 H   0  0  0  0  0  0  0  0  0  0  0  0
    0.7777    0.6603    1.7837 H   0  0  0  0  0  0  0  0  0  0  0  0
   -0.4157    1.7642    0.8823 H   0  0  0  0  0  0  0  0  0  0  0  0
   -1.6522   -0.5856    1.7020 H   0  0  0  0  0  0  0  0  0  0  0  0
   -1.4826   -1.0496   -0.9540 H   0  0  0  0  0  0  0  0  0  0  0  0
   -2.5713    0.9454   -1.6871 H   0  0  0  0  0  0  0  0  0  0  0  0
   -1.2311    1.9646   -1.1122 H   0  0  0  0  0  0  0  0  0  0  0  0
   -2.5265    1.4212    0.0261 H   0  0  0  0  0  0  0  0  0  0  0  0
    0.9970   -1.3919    1.3447 H   0  0  0  0  0  0  0  0  0  0  0  0
   -0.7242   -2.9548    0.5547 H   0  0  0  0  0  0  0  0  0  0  0  0
  1  2  1  0
  2  3  1  0
  3  4  1  0
  4  5  1  0
  5  6  1  0
  6  7  1  0
  5  8  1  0
  8  9  1  0
  6  3  1  0
  8  3  1  0
  1 10  1  0
  1 11  1  0
  1 12  1  0
  4 13  1  0
  4 14  1  0
  5 15  1  0
  6 16  1  0
  7 17  1  0
  7 18  1  0
  7 19  1  0
  8 20  1  0
  9 21  1  0
M  END
