
     RDKit          3D

 19 20  0  0  0  0  0  0  0  0999 V2000
    2.6305   -0.7632   -0.1302 C   0  0  0  0  0  0  0  0  0  0  0  0
    1.5797   -0.2100   -0.8568 O   0  0  0  0  0  0  0  0  0  0  0  0
    0.4868    0.0978   -0.0459 C   0  0  0  0  0  0  0  0  0  0  0  0
    0.2129    1.6149   -0.1375 C   0  0  0  0  0  0  0  0  0  0  0  0
   -1.1900    1.7268   -0.3292 O   0  0  0  0  0  0  0  0  0  0  0  0
   -1.6418    0.6002    0.2761 C   0  0  0  0  0  0  0  0  0  0  0  0
   -2.0588   -0.6716   -0.1455 C   0  0  0  0  0  0  0  0  0  0  0  0
   -2.1564   -1.7362    0.7820 O   0  0  0  0  0  0  0  0  0  0  0  0
   -0.7860   -0.3650   -0.6451 C   0  0  0  0  0  0  0  0  0  0  0  0
    3.4415   -0.9685   -0.8666 H   0  0  0  0  0  0  0  0  0  0  0  0
    2.3335   -1.6827    0.4209 H   0  0  0  0  0  0  0  0  0  0  0  0
    3.0360   -0.0595    0.6339 H   0  0  0  0  0  0  0  0  0  0  0  0
    0.6369   -0.1436    1.0081 H   0  0  0  0  0  0  0  0  0  0  0  0
    0.5144    2.1365    0.7672 H   0  0  0  0  0  0  0  0  0  0  0  0
    0.6826    1.9786   -1.0695 H   0  0  0  0  0  0  0  0  0  0  0  0
   -1.3207    0.6426    1.3646 H   0  0  0  0  0  0  0  0  0  0  0  0
   -2.9402   -0.7335   -0.8452 H   0  0  0  0  0  0  0  0  0  0  0  0
   -2.6959   -1.3958    1.5625 H   0  0  0  0  0  0  0  0  0  0  0  0
   -0.7651   -0.0678   -1.7438 H   0  0  0  0  0  0  0  0  0  0  0  0
  1  2  1  0
  2  3  1  0
  3  4  1  0
  4  5  1  0
  5  6  1  0
  6  7  1  0
  7  8  1  0
  7  9  1  0
  9  3  1  0
  9  6  1  0
  1 10  1  0
  1 11  1  0
  1 12  1  0
  3 13  1  0
  4 14  1  0
  4 15  1  0
  6 16  1  0
  7 17  1  0
  8 18  1  0
  9 19  1  0
M  END
