
     RDKit          3D

 23 23  0  0  0  0  0  0  0  0999 V2000
    2.9830   -0.8425    0.7060 C   0  0  0  0  0  0  0  0  0  0  0  0
    1.8736   -0.0271    0.6226 O   0  0  0  0  0  0  0  0  0  0  0  0
    1.1592   -0.2137   -0.5506 C   0  0  0  0  0  0  0  0  0  0  0  0
   -0.0364    0.7172   -0.5585 C   0  0  0  0  0  0  0  0  0  0  0  0
   -0.8645    0.5810   -1.7926 C   0  0  0  0  0  0  0  0  0  0  0  0
   -0.7898    0.5098    0.7126 C   0  0  0  0  0  0  0  0  0  0  0  0
   -1.3375   -0.8339    1.0115 C   0  0  0  0  0  0  0  0  0  0  0  0
   -2.4045   -0.1937    1.6632 O   0  0  0  0  0  0  0  0  0  0  0  0
   -2.2577    0.8247    0.6906 C   0  0  0  0  0  0  0  0  0  0  0  0
    3.5047   -0.6430    1.6624 H   0  0  0  0  0  0  0  0  0  0  0  0
    3.6844   -0.5156   -0.1023 H   0  0  0  0  0  0  0  0  0  0  0  0
    2.6855   -1.9049    0.6040 H   0  0  0  0  0  0  0  0  0  0  0  0
    0.8601   -1.2745   -0.5962 H   0  0  0  0  0  0  0  0  0  0  0  0
    1.8255   -0.0347   -1.4239 H   0  0  0  0  0  0  0  0  0  0  0  0
    0.3557    1.7597   -0.5382 H   0  0  0  0  0  0  0  0  0  0  0  0
   -1.5562   -0.2780   -1.7828 H   0  0  0  0  0  0  0  0  0  0  0  0
   -1.4576    1.5015   -1.9728 H   0  0  0  0  0  0  0  0  0  0  0  0
   -0.1962    0.4741   -2.6753 H   0  0  0  0  0  0  0  0  0  0  0  0
   -0.2638    0.9389    1.5700 H   0  0  0  0  0  0  0  0  0  0  0  0
   -0.7651   -1.4786    1.6989 H   0  0  0  0  0  0  0  0  0  0  0  0
   -1.7468   -1.4234    0.1728 H   0  0  0  0  0  0  0  0  0  0  0  0
   -2.7908    0.5194   -0.2102 H   0  0  0  0  0  0  0  0  0  0  0  0
   -2.4650    1.8374    1.0889 H   0  0  0  0  0  0  0  0  0  0  0  0
  1  2  1  0
  2  3  1  0
  3  4  1  0
  4  5  1  0
  4  6  1  0
  6  7  1  0
  7  8  1  0
  8  9  1  0
  9  6  1  0
  1 10  1  0
  1 11  1  0
  1 12  1  0
  3 13  1  0
  3 14  1  0
  4 15  1  0
  5 16  1  0
  5 17  1  0
  5 18  1  0
  6 19  1  0
  7 20  1  0
  7 21  1  0
  9 22  1  0
  9 23  1  0
M  END
