
     RDKit          3D

 21 20  0  0  0  0  0  0  0  0999 V2000
    2.9548    0.1530   -0.1519 C   0  0  0  0  0  0  0  0  0  0  0  0
    1.6196    0.5593   -0.1108 O   0  0  0  0  0  0  0  0  0  0  0  0
    0.7504   -0.5054    0.0513 C   0  0  0  0  0  0  0  0  0  0  0  0
   -0.6544    0.0527    0.0933 C   0  0  0  0  0  0  0  0  0  0  0  0
   -1.6911   -1.0510    0.1326 C   0  0  0  0  0  0  0  0  0  0  0  0
   -1.5636   -1.9030   -1.0922 C   0  0  0  0  0  0  0  0  0  0  0  0
   -1.6790   -3.1060   -0.9390 O   0  0  0  0  0  0  0  0  0  0  0  0
   -0.7374    0.9204    1.1417 O   0  0  0  0  0  0  0  0  0  0  0  0
   -1.0251    2.2285    0.7949 C   0  0  0  0  0  0  0  0  0  0  0  0
    3.5625    1.0732   -0.2864 H   0  0  0  0  0  0  0  0  0  0  0  0
    3.1041   -0.5262   -1.0014 H   0  0  0  0  0  0  0  0  0  0  0  0
    3.2353   -0.3600    0.8007 H   0  0  0  0  0  0  0  0  0  0  0  0
    0.8673   -1.2168   -0.7995 H   0  0  0  0  0  0  0  0  0  0  0  0
    1.0209   -0.9971    1.0251 H   0  0  0  0  0  0  0  0  0  0  0  0
   -0.8249    0.6051   -0.8675 H   0  0  0  0  0  0  0  0  0  0  0  0
   -2.6871   -0.5682    0.0871 H   0  0  0  0  0  0  0  0  0  0  0  0
   -1.5896   -1.6651    1.0559 H   0  0  0  0  0  0  0  0  0  0  0  0
   -1.3797   -1.5214   -2.0838 H   0  0  0  0  0  0  0  0  0  0  0  0
   -1.0529    2.8342    1.7321 H   0  0  0  0  0  0  0  0  0  0  0  0
   -0.2352    2.6528    0.1469 H   0  0  0  0  0  0  0  0  0  0  0  0
   -1.9949    2.3410    0.2709 H   0  0  0  0  0  0  0  0  0  0  0  0
  1  2  1  0
  2  3  1  0
  3  4  1  0
  4  5  1  0
  5  6  1  0
  6  7  2  0
  4  8  1  0
  8  9  1  0
  1 10  1  0
  1 11  1  0
  1 12  1  0
  3 13  1  0
  3 14  1  0
  4 15  1  0
  5 16  1  0
  5 17  1  0
  6 18  1  0
  9 19  1  0
  9 20  1  0
  9 21  1  0
M  END
