
     RDKit          3D

 18 18  0  0  0  0  0  0  0  0999 V2000
    2.6332   -0.4039    0.3681 C   0  0  0  0  0  0  0  0  0  0  0  0
    1.2553   -0.1752    0.5177 O   0  0  0  0  0  0  0  0  0  0  0  0
    0.7574    0.0543   -0.7734 C   0  0  0  0  0  0  0  0  0  0  0  0
   -0.7228    0.3103   -0.7061 C   0  0  0  0  0  0  0  0  0  0  0  0
   -1.5666   -0.7816   -0.1371 C   0  0  0  0  0  0  0  0  0  0  0  0
   -2.1892    0.2788    0.7562 C   0  0  0  0  0  0  0  0  0  0  0  0
   -1.0172    1.1495    0.5114 C   0  0  0  0  0  0  0  0  0  0  0  0
   -0.5133    2.1172    1.0546 O   0  0  0  0  0  0  0  0  0  0  0  0
    3.1268   -0.5972    1.3348 H   0  0  0  0  0  0  0  0  0  0  0  0
    3.0860    0.5137   -0.0655 H   0  0  0  0  0  0  0  0  0  0  0  0
    2.8099   -1.2613   -0.3161 H   0  0  0  0  0  0  0  0  0  0  0  0
    1.0207   -0.7849   -1.4417 H   0  0  0  0  0  0  0  0  0  0  0  0
    1.2404    0.9996   -1.1143 H   0  0  0  0  0  0  0  0  0  0  0  0
   -1.1583    0.7043   -1.6313 H   0  0  0  0  0  0  0  0  0  0  0  0
   -1.0350   -1.5816    0.4061 H   0  0  0  0  0  0  0  0  0  0  0  0
   -2.3222   -1.2257   -0.8499 H   0  0  0  0  0  0  0  0  0  0  0  0
   -2.3031   -0.0019    1.8127 H   0  0  0  0  0  0  0  0  0  0  0  0
   -3.1019    0.6856    0.2738 H   0  0  0  0  0  0  0  0  0  0  0  0
  1  2  1  0
  2  3  1  0
  3  4  1  0
  4  5  1  0
  5  6  1  0
  6  7  1  0
  7  8  2  0
  7  4  1  0
  1  9  1  0
  1 10  1  0
  1 11  1  0
  3 12  1  0
  3 13  1  0
  4 14  1  0
  5 15  1  0
  5 16  1  0
  6 17  1  0
  6 18  1  0
M  END
