
     RDKit          3D

 21 22  0  0  0  0  0  0  0  0999 V2000
    3.3776    0.3912    0.0275 C   0  0  0  0  0  0  0  0  0  0  0  0
    2.0966    0.5150    0.5734 O   0  0  0  0  0  0  0  0  0  0  0  0
    1.1935   -0.3466   -0.0918 C   0  0  0  0  0  0  0  0  0  0  0  0
   -0.1264   -0.1524    0.5445 C   0  0  0  0  0  0  0  0  0  0  0  0
   -1.3050   -0.9299    0.0680 C   0  0  0  0  0  0  0  0  0  0  0  0
   -1.3586   -0.0150   -1.0973 C   0  0  0  0  0  0  0  0  0  0  0  0
   -1.0516    0.9015    0.0276 C   0  0  0  0  0  0  0  0  0  0  0  0
   -2.0951    0.1356    0.8007 C   0  0  0  0  0  0  0  0  0  0  0  0
   -3.3935    0.3011    0.4483 O   0  0  0  0  0  0  0  0  0  0  0  0
    4.0222    1.0915    0.5966 H   0  0  0  0  0  0  0  0  0  0  0  0
    3.3083    0.6820   -1.0334 H   0  0  0  0  0  0  0  0  0  0  0  0
    3.7330   -0.6370    0.1912 H   0  0  0  0  0  0  0  0  0  0  0  0
    1.5423   -1.4050    0.0673 H   0  0  0  0  0  0  0  0  0  0  0  0
    1.1876   -0.1478   -1.1614 H   0  0  0  0  0  0  0  0  0  0  0  0
   -0.1109   -0.1553    1.6780 H   0  0  0  0  0  0  0  0  0  0  0  0
   -1.4599   -1.9151    0.1137 H   0  0  0  0  0  0  0  0  0  0  0  0
   -2.3590    0.1150   -1.5772 H   0  0  0  0  0  0  0  0  0  0  0  0
   -0.6248   -0.1327   -1.9007 H   0  0  0  0  0  0  0  0  0  0  0  0
   -0.9156    1.8919    0.0221 H   0  0  0  0  0  0  0  0  0  0  0  0
   -1.8896    0.1663    1.8734 H   0  0  0  0  0  0  0  0  0  0  0  0
   -3.7714   -0.3544   -0.1704 H   0  0  0  0  0  0  0  0  0  0  0  0
  1  2  1  0
  2  3  1  0
  3  4  1  0
  4  5  1  0
  5  6  1  0
  6  7  1  0
  7  8  1  0
  8  9  1  0
  7  4  1  0
  8  5  1  0
  1 10  1  0
  1 11  1  0
  1 12  1  0
  3 13  1  0
  3 14  1  0
  4 15  1  0
  5 16  1  0
  6 17  1  0
  6 18  1  0
  7 19  1  0
  8 20  1  0
  9 21  1  0
M  END
