
     RDKit          3D

 23 23  0  0  0  0  0  0  0  0999 V2000
    3.2023   -0.1329   -0.1078 C   0  0  0  0  0  0  0  0  0  0  0  0
    1.9473   -0.3646    0.4057 O   0  0  0  0  0  0  0  0  0  0  0  0
    0.9261   -0.1089   -0.4911 C   0  0  0  0  0  0  0  0  0  0  0  0
   -0.4018   -0.3895    0.1569 C   0  0  0  0  0  0  0  0  0  0  0  0
   -0.4349   -1.8590    0.5317 C   0  0  0  0  0  0  0  0  0  0  0  0
   -1.5724   -0.0829   -0.7060 C   0  0  0  0  0  0  0  0  0  0  0  0
   -2.2337    1.1472   -0.0988 C   0  0  0  0  0  0  0  0  0  0  0  0
   -1.1255    1.6083    0.8564 C   0  0  0  0  0  0  0  0  0  0  0  0
   -0.5475    0.4196    1.2601 O   0  0  0  0  0  0  0  0  0  0  0  0
    3.3637    0.9174   -0.4361 H   0  0  0  0  0  0  0  0  0  0  0  0
    3.9319   -0.3038    0.7204 H   0  0  0  0  0  0  0  0  0  0  0  0
    3.4539   -0.7911   -0.9645 H   0  0  0  0  0  0  0  0  0  0  0  0
    1.0722   -0.7855   -1.3624 H   0  0  0  0  0  0  0  0  0  0  0  0
    0.9905    0.9233   -0.8971 H   0  0  0  0  0  0  0  0  0  0  0  0
    0.0623   -1.9453    1.5165 H   0  0  0  0  0  0  0  0  0  0  0  0
    0.1174   -2.4118   -0.2566 H   0  0  0  0  0  0  0  0  0  0  0  0
   -1.4629   -2.2555    0.5369 H   0  0  0  0  0  0  0  0  0  0  0  0
   -1.3265    0.1197   -1.7576 H   0  0  0  0  0  0  0  0  0  0  0  0
   -2.3094   -0.9088   -0.6696 H   0  0  0  0  0  0  0  0  0  0  0  0
   -2.4667    1.9164   -0.8479 H   0  0  0  0  0  0  0  0  0  0  0  0
   -3.1194    0.8745    0.5103 H   0  0  0  0  0  0  0  0  0  0  0  0
   -0.4371    2.3138    0.3813 H   0  0  0  0  0  0  0  0  0  0  0  0
   -1.6299    2.0994    1.7192 H   0  0  0  0  0  0  0  0  0  0  0  0
  1  2  1  0
  2  3  1  0
  3  4  1  0
  4  5  1  0
  4  6  1  0
  6  7  1  0
  7  8  1  0
  8  9  1  0
  9  4  1  0
  1 10  1  0
  1 11  1  0
  1 12  1  0
  3 13  1  0
  3 14  1  0
  5 15  1  0
  5 16  1  0
  5 17  1  0
  6 18  1  0
  6 19  1  0
  7 20  1  0
  7 21  1  0
  8 22  1  0
  8 23  1  0
M  END
