
     RDKit          3D

 23 23  0  0  0  0  0  0  0  0999 V2000
    2.9773    0.3184   -0.5794 C   0  0  0  0  0  0  0  0  0  0  0  0
    1.7572    0.7113   -0.0337 O   0  0  0  0  0  0  0  0  0  0  0  0
    1.1736   -0.3446    0.6658 C   0  0  0  0  0  0  0  0  0  0  0  0
   -0.1599    0.1606    1.2354 C   0  0  0  0  0  0  0  0  0  0  0  0
   -1.0414    0.5966    0.1049 C   0  0  0  0  0  0  0  0  0  0  0  0
   -0.5001    1.7053   -0.7601 C   0  0  0  0  0  0  0  0  0  0  0  0
   -2.4246    0.6383    0.2943 O   0  0  0  0  0  0  0  0  0  0  0  0
   -1.8830   -0.4421   -0.5189 C   0  0  0  0  0  0  0  0  0  0  0  0
   -2.1129   -1.7649    0.1426 C   0  0  0  0  0  0  0  0  0  0  0  0
    3.4467    1.1386   -1.1318 H   0  0  0  0  0  0  0  0  0  0  0  0
    3.6618   -0.0220    0.2412 H   0  0  0  0  0  0  0  0  0  0  0  0
    2.8576   -0.5388   -1.2791 H   0  0  0  0  0  0  0  0  0  0  0  0
    1.8200   -0.7078    1.4782 H   0  0  0  0  0  0  0  0  0  0  0  0
    0.9880   -1.1764   -0.0406 H   0  0  0  0  0  0  0  0  0  0  0  0
    0.0288    1.0242    1.9007 H   0  0  0  0  0  0  0  0  0  0  0  0
   -0.5691   -0.6461    1.8394 H   0  0  0  0  0  0  0  0  0  0  0  0
    0.1209    2.3777   -0.1282 H   0  0  0  0  0  0  0  0  0  0  0  0
   -1.3291    2.3686   -1.1467 H   0  0  0  0  0  0  0  0  0  0  0  0
    0.0224    1.3387   -1.6575 H   0  0  0  0  0  0  0  0  0  0  0  0
   -2.1766   -0.3931   -1.5880 H   0  0  0  0  0  0  0  0  0  0  0  0
   -1.3254   -2.5107   -0.0748 H   0  0  0  0  0  0  0  0  0  0  0  0
   -2.2094   -1.7042    1.2471 H   0  0  0  0  0  0  0  0  0  0  0  0
   -3.1225   -2.1279   -0.2108 H   0  0  0  0  0  0  0  0  0  0  0  0
  1  2  1  0
  2  3  1  0
  3  4  1  0
  4  5  1  0
  5  6  1  0
  5  7  1  0
  7  8  1  0
  8  9  1  0
  8  5  1  0
  1 10  1  0
  1 11  1  0
  1 12  1  0
  3 13  1  0
  3 14  1  0
  4 15  1  0
  4 16  1  0
  6 17  1  0
  6 18  1  0
  6 19  1  0
  8 20  1  0
  9 21  1  0
  9 22  1  0
  9 23  1  0
M  END
