
     RDKit          3D

 19 18  0  0  0  0  0  0  0  0999 V2000
   -3.1569    0.8074   -0.3632 C   0  0  0  0  0  0  0  0  0  0  0  0
   -1.8685    0.7867    0.1709 O   0  0  0  0  0  0  0  0  0  0  0  0
   -1.5012   -0.5205    0.3405 C   0  0  0  0  0  0  0  0  0  0  0  0
   -0.1214   -0.6967    0.9145 C   0  0  0  0  0  0  0  0  0  0  0  0
    0.9357   -0.1177    0.0932 C   0  0  0  0  0  0  0  0  0  0  0  0
    0.6916    0.4691   -0.9897 O   0  0  0  0  0  0  0  0  0  0  0  0
    2.3221   -0.2139    0.5271 C   0  0  0  0  0  0  0  0  0  0  0  0
    3.4325    0.3612   -0.2774 C   0  0  0  0  0  0  0  0  0  0  0  0
    2.6502   -0.7883    1.6041 O   0  0  0  0  0  0  0  0  0  0  0  0
   -3.5078    1.8672   -0.5227 H   0  0  0  0  0  0  0  0  0  0  0  0
   -3.2340    0.2562   -1.3175 H   0  0  0  0  0  0  0  0  0  0  0  0
   -3.9028    0.3754    0.3519 H   0  0  0  0  0  0  0  0  0  0  0  0
   -2.2499   -1.0581    0.9356 H   0  0  0  0  0  0  0  0  0  0  0  0
   -1.5000   -0.9989   -0.6782 H   0  0  0  0  0  0  0  0  0  0  0  0
    0.1154   -1.7556    1.1325 H   0  0  0  0  0  0  0  0  0  0  0  0
   -0.1232   -0.1857    1.9206 H   0  0  0  0  0  0  0  0  0  0  0  0
    3.7107    1.3673    0.0846 H   0  0  0  0  0  0  0  0  0  0  0  0
    3.0404    0.4144   -1.3350 H   0  0  0  0  0  0  0  0  0  0  0  0
    4.2672   -0.3695   -0.2361 H   0  0  0  0  0  0  0  0  0  0  0  0
  1  2  1  0
  2  3  1  0
  3  4  1  0
  4  5  1  0
  5  6  2  0
  5  7  1  0
  7  8  1  0
  7  9  2  0
  1 10  1  0
  1 11  1  0
  1 12  1  0
  3 13  1  0
  3 14  1  0
  4 15  1  0
  4 16  1  0
  8 17  1  0
  8 18  1  0
  8 19  1  0
M  END
