
     RDKit          3D

 23 23  0  0  0  0  0  0  0  0999 V2000
    2.9775    0.0248    0.6338 C   0  0  0  0  0  0  0  0  0  0  0  0
    1.6966   -0.5573    0.6713 O   0  0  0  0  0  0  0  0  0  0  0  0
    0.9314    0.1244   -0.2617 C   0  0  0  0  0  0  0  0  0  0  0  0
   -0.4867   -0.4051   -0.3267 C   0  0  0  0  0  0  0  0  0  0  0  0
   -0.4759   -1.8657   -0.7119 C   0  0  0  0  0  0  0  0  0  0  0  0
   -1.2165    0.4343   -1.2860 C   0  0  0  0  0  0  0  0  0  0  0  0
   -1.8247    1.4027   -0.6385 C   0  0  0  0  0  0  0  0  0  0  0  0
   -1.5508    1.2935    0.8429 C   0  0  0  0  0  0  0  0  0  0  0  0
   -1.2075   -0.1884    0.9688 C   0  0  0  0  0  0  0  0  0  0  0  0
    2.8767    1.0890    0.8916 H   0  0  0  0  0  0  0  0  0  0  0  0
    3.3336   -0.1144   -0.4147 H   0  0  0  0  0  0  0  0  0  0  0  0
    3.6885   -0.5152    1.2909 H   0  0  0  0  0  0  0  0  0  0  0  0
    0.8832    1.2147   -0.0431 H   0  0  0  0  0  0  0  0  0  0  0  0
    1.3687   -0.0135   -1.2775 H   0  0  0  0  0  0  0  0  0  0  0  0
   -1.4668   -2.1894   -1.0563 H   0  0  0  0  0  0  0  0  0  0  0  0
    0.2839   -2.0650   -1.4667 H   0  0  0  0  0  0  0  0  0  0  0  0
   -0.2335   -2.4344    0.2252 H   0  0  0  0  0  0  0  0  0  0  0  0
   -1.2663    0.3028   -2.3685 H   0  0  0  0  0  0  0  0  0  0  0  0
   -2.4556    2.2085   -1.0447 H   0  0  0  0  0  0  0  0  0  0  0  0
   -0.6573    1.8559    1.1380 H   0  0  0  0  0  0  0  0  0  0  0  0
   -2.4585    1.5258    1.4139 H   0  0  0  0  0  0  0  0  0  0  0  0
   -2.1571   -0.7356    0.9572 H   0  0  0  0  0  0  0  0  0  0  0  0
   -0.5830   -0.3924    1.8624 H   0  0  0  0  0  0  0  0  0  0  0  0
  1  2  1  0
  2  3  1  0
  3  4  1  0
  4  5  1  0
  4  6  1  0
  6  7  2  0
  7  8  1  0
  8  9  1  0
  9  4  1  0
  1 10  1  0
  1 11  1  0
  1 12  1  0
  3 13  1  0
  3 14  1  0
  5 15  1  0
  5 16  1  0
  5 17  1  0
  6 18  1  0
  7 19  1  0
  8 20  1  0
  8 21  1  0
  9 22  1  0
  9 23  1  0
M  END
