
     RDKit          3D

 19 19  0  0  0  0  0  0  0  0999 V2000
    2.8642    0.4256    0.5034 C   0  0  0  0  0  0  0  0  0  0  0  0
    1.9360    0.6457   -0.4773 O   0  0  0  0  0  0  0  0  0  0  0  0
    0.8503   -0.2208   -0.4637 C   0  0  0  0  0  0  0  0  0  0  0  0
    0.1608   -0.0800    0.8706 C   0  0  0  0  0  0  0  0  0  0  0  0
   -0.3058    1.2505    1.1359 O   0  0  0  0  0  0  0  0  0  0  0  0
   -1.2484    0.1107    0.9989 C   0  0  0  0  0  0  0  0  0  0  0  0
   -2.1822    0.3339   -0.1483 C   0  0  0  0  0  0  0  0  0  0  0  0
   -2.2044   -0.7832   -1.1275 C   0  0  0  0  0  0  0  0  0  0  0  0
   -2.4481   -1.9389   -0.7597 O   0  0  0  0  0  0  0  0  0  0  0  0
    3.6714    1.1834    0.3753 H   0  0  0  0  0  0  0  0  0  0  0  0
    3.2737   -0.6062    0.4730 H   0  0  0  0  0  0  0  0  0  0  0  0
    2.4618    0.5426    1.5355 H   0  0  0  0  0  0  0  0  0  0  0  0
    0.1921   -0.0385   -1.3112 H   0  0  0  0  0  0  0  0  0  0  0  0
    1.2769   -1.2499   -0.5234 H   0  0  0  0  0  0  0  0  0  0  0  0
    0.7243   -0.5021    1.7217 H   0  0  0  0  0  0  0  0  0  0  0  0
   -1.7381   -0.1119    1.9723 H   0  0  0  0  0  0  0  0  0  0  0  0
   -2.0361    1.3032   -0.6823 H   0  0  0  0  0  0  0  0  0  0  0  0
   -3.2402    0.4055    0.2518 H   0  0  0  0  0  0  0  0  0  0  0  0
   -2.0084   -0.6695   -2.2004 H   0  0  0  0  0  0  0  0  0  0  0  0
  1  2  1  0
  2  3  1  0
  3  4  1  0
  4  5  1  0
  5  6  1  0
  6  7  1  0
  7  8  1  0
  8  9  2  0
  6  4  1  0
  1 10  1  0
  1 11  1  0
  1 12  1  0
  3 13  1  0
  3 14  1  0
  4 15  1  0
  6 16  1  0
  7 17  1  0
  7 18  1  0
  8 19  1  0
M  END
