
     RDKit          3D

 19 18  0  0  0  0  0  0  0  0999 V2000
    3.2918   -0.5166   -0.0213 C   0  0  0  0  0  0  0  0  0  0  0  0
    2.1814    0.1426    0.4992 O   0  0  0  0  0  0  0  0  0  0  0  0
    1.0767   -0.1779   -0.2830 C   0  0  0  0  0  0  0  0  0  0  0  0
   -0.1255    0.5175    0.2561 C   0  0  0  0  0  0  0  0  0  0  0  0
   -0.0108    1.2271    1.2377 O   0  0  0  0  0  0  0  0  0  0  0  0
   -1.4675    0.3739   -0.3667 C   0  0  0  0  0  0  0  0  0  0  0  0
   -2.4486    1.1941    0.4095 C   0  0  0  0  0  0  0  0  0  0  0  0
   -1.8273   -1.0567   -0.2721 C   0  0  0  0  0  0  0  0  0  0  0  0
   -2.3521   -1.4707    0.7284 O   0  0  0  0  0  0  0  0  0  0  0  0
    3.0640   -1.6146    0.0223 H   0  0  0  0  0  0  0  0  0  0  0  0
    3.3159   -0.2908   -1.1290 H   0  0  0  0  0  0  0  0  0  0  0  0
    4.2321   -0.2457    0.4581 H   0  0  0  0  0  0  0  0  0  0  0  0
    0.8643   -1.2801   -0.2802 H   0  0  0  0  0  0  0  0  0  0  0  0
    1.2652    0.0817   -1.3520 H   0  0  0  0  0  0  0  0  0  0  0  0
   -1.3868    0.6785   -1.4308 H   0  0  0  0  0  0  0  0  0  0  0  0
   -2.7846    0.5585    1.2815 H   0  0  0  0  0  0  0  0  0  0  0  0
   -3.3394    1.5040   -0.1764 H   0  0  0  0  0  0  0  0  0  0  0  0
   -1.9302    2.0841    0.8531 H   0  0  0  0  0  0  0  0  0  0  0  0
   -1.6183   -1.7089   -1.0917 H   0  0  0  0  0  0  0  0  0  0  0  0
  1  2  1  0
  2  3  1  0
  3  4  1  0
  4  5  2  0
  4  6  1  0
  6  7  1  0
  6  8  1  0
  8  9  2  0
  1 10  1  0
  1 11  1  0
  1 12  1  0
  3 13  1  0
  3 14  1  0
  6 15  1  0
  7 16  1  0
  7 17  1  0
  7 18  1  0
  8 19  1  0
M  END
