
     RDKit          3D

 19 19  0  0  0  0  0  0  0  0999 V2000
    3.0703    0.1592    0.1139 C   0  0  0  0  0  0  0  0  0  0  0  0
    1.8372   -0.4036   -0.2049 O   0  0  0  0  0  0  0  0  0  0  0  0
    0.8292    0.5539   -0.2546 C   0  0  0  0  0  0  0  0  0  0  0  0
   -0.4495   -0.1464   -0.6025 C   0  0  0  0  0  0  0  0  0  0  0  0
   -0.8582   -1.2125    0.3972 C   0  0  0  0  0  0  0  0  0  0  0  0
   -1.6855    0.0185    0.1829 C   0  0  0  0  0  0  0  0  0  0  0  0
   -1.7790    0.9341    1.2169 O   0  0  0  0  0  0  0  0  0  0  0  0
   -2.9703   -0.2249   -0.5230 C   0  0  0  0  0  0  0  0  0  0  0  0
   -3.0026   -1.0116   -1.4486 O   0  0  0  0  0  0  0  0  0  0  0  0
    3.4164    0.9123   -0.5912 H   0  0  0  0  0  0  0  0  0  0  0  0
    2.9536    0.5923    1.1468 H   0  0  0  0  0  0  0  0  0  0  0  0
    3.8485   -0.6225    0.2139 H   0  0  0  0  0  0  0  0  0  0  0  0
    1.0652    1.3678   -0.9783 H   0  0  0  0  0  0  0  0  0  0  0  0
    0.7871    1.0019    0.7780 H   0  0  0  0  0  0  0  0  0  0  0  0
   -0.5565   -0.3845   -1.6830 H   0  0  0  0  0  0  0  0  0  0  0  0
   -0.3443   -1.2621    1.3668 H   0  0  0  0  0  0  0  0  0  0  0  0
   -1.1532   -2.1790   -0.0220 H   0  0  0  0  0  0  0  0  0  0  0  0
   -1.1154    1.6400    1.1462 H   0  0  0  0  0  0  0  0  0  0  0  0
   -3.8930    0.2672   -0.2544 H   0  0  0  0  0  0  0  0  0  0  0  0
  1  2  1  0
  2  3  1  0
  3  4  1  0
  4  5  1  0
  5  6  1  0
  6  7  1  0
  6  8  1  0
  8  9  2  0
  6  4  1  0
  1 10  1  0
  1 11  1  0
  1 12  1  0
  3 13  1  0
  3 14  1  0
  4 15  1  0
  5 16  1  0
  5 17  1  0
  7 18  1  0
  8 19  1  0
M  END
