
     RDKit          3D

 23 23  0  0  0  0  0  0  0  0999 V2000
    3.4566   -0.4315   -0.6517 C   0  0  0  0  0  0  0  0  0  0  0  0
    2.3962   -1.0625   -0.0622 O   0  0  0  0  0  0  0  0  0  0  0  0
    1.4983   -0.2395    0.5605 C   0  0  0  0  0  0  0  0  0  0  0  0
    0.8508    0.7717   -0.3548 C   0  0  0  0  0  0  0  0  0  0  0  0
    0.1114    0.3512   -1.4381 O   0  0  0  0  0  0  0  0  0  0  0  0
   -0.5693    1.0275   -0.3410 C   0  0  0  0  0  0  0  0  0  0  0  0
   -1.5840    0.1457    0.3077 C   0  0  0  0  0  0  0  0  0  0  0  0
   -1.6089   -1.2594   -0.2577 C   0  0  0  0  0  0  0  0  0  0  0  0
   -2.9894    0.7077    0.1363 C   0  0  0  0  0  0  0  0  0  0  0  0
    4.1062   -1.1978   -1.1178 H   0  0  0  0  0  0  0  0  0  0  0  0
    3.1070    0.2331   -1.4614 H   0  0  0  0  0  0  0  0  0  0  0  0
    4.1019    0.1335    0.0516 H   0  0  0  0  0  0  0  0  0  0  0  0
    0.7539   -0.8699    1.0895 H   0  0  0  0  0  0  0  0  0  0  0  0
    2.0353    0.3418    1.3573 H   0  0  0  0  0  0  0  0  0  0  0  0
    1.5242    1.6414   -0.5705 H   0  0  0  0  0  0  0  0  0  0  0  0
   -0.9521    2.0460   -0.6094 H   0  0  0  0  0  0  0  0  0  0  0  0
   -1.3666    0.0513    1.3941 H   0  0  0  0  0  0  0  0  0  0  0  0
   -2.3660   -1.2799   -1.0949 H   0  0  0  0  0  0  0  0  0  0  0  0
   -0.6523   -1.5473   -0.7329 H   0  0  0  0  0  0  0  0  0  0  0  0
   -1.9510   -1.9763    0.5158 H   0  0  0  0  0  0  0  0  0  0  0  0
   -3.6894   -0.0935    0.5132 H   0  0  0  0  0  0  0  0  0  0  0  0
   -3.0810    1.6351    0.7149 H   0  0  0  0  0  0  0  0  0  0  0  0
   -3.1316    0.8715   -0.9656 H   0  0  0  0  0  0  0  0  0  0  0  0
  1  2  1  0
  2  3  1  0
  3  4  1  0
  4  5  1  0
  5  6  1  0
  6  7  1  0
  7  8  1  0
  7  9  1  0
  6  4  1  0
  1 10  1  0
  1 11  1  0
  1 12  1  0
  3 13  1  0
  3 14  1  0
  4 15  1  0
  6 16  1  0
  7 17  1  0
  8 18  1  0
  8 19  1  0
  8 20  1  0
  9 21  1  0
  9 22  1  0
  9 23  1  0
M  END
