
     RDKit          3D

 23 23  0  0  0  0  0  0  0  0999 V2000
    2.8606    0.2573   -0.7015 C   0  0  0  0  0  0  0  0  0  0  0  0
    1.8742   -0.1486    0.1919 O   0  0  0  0  0  0  0  0  0  0  0  0
    0.9810    0.9193    0.3799 C   0  0  0  0  0  0  0  0  0  0  0  0
   -0.1106    0.5677    1.3264 C   0  0  0  0  0  0  0  0  0  0  0  0
   -0.9593   -0.5921    0.9005 C   0  0  0  0  0  0  0  0  0  0  0  0
   -0.2070   -1.8739    0.7230 C   0  0  0  0  0  0  0  0  0  0  0  0
   -1.6471   -0.2613   -0.3874 C   0  0  0  0  0  0  0  0  0  0  0  0
   -2.5564    0.8779   -0.4805 C   0  0  0  0  0  0  0  0  0  0  0  0
   -3.0464   -0.4285   -0.3753 O   0  0  0  0  0  0  0  0  0  0  0  0
    3.3803    1.1369   -0.2541 H   0  0  0  0  0  0  0  0  0  0  0  0
    2.4183    0.6112   -1.6614 H   0  0  0  0  0  0  0  0  0  0  0  0
    3.5543   -0.5902   -0.8942 H   0  0  0  0  0  0  0  0  0  0  0  0
    0.6339    1.2544   -0.6113 H   0  0  0  0  0  0  0  0  0  0  0  0
    1.5484    1.7685    0.8163 H   0  0  0  0  0  0  0  0  0  0  0  0
   -0.7372    1.4687    1.4826 H   0  0  0  0  0  0  0  0  0  0  0  0
    0.3650    0.3568    2.3187 H   0  0  0  0  0  0  0  0  0  0  0  0
   -1.7321   -0.7691    1.6743 H   0  0  0  0  0  0  0  0  0  0  0  0
    0.4495   -2.1209    1.5827 H   0  0  0  0  0  0  0  0  0  0  0  0
   -0.9668   -2.6959    0.6775 H   0  0  0  0  0  0  0  0  0  0  0  0
    0.3734   -1.9323   -0.2090 H   0  0  0  0  0  0  0  0  0  0  0  0
   -1.1444   -0.6650   -1.3060 H   0  0  0  0  0  0  0  0  0  0  0  0
   -2.7183    1.4632    0.4490 H   0  0  0  0  0  0  0  0  0  0  0  0
   -2.6133    1.3960   -1.4605 H   0  0  0  0  0  0  0  0  0  0  0  0
  1  2  1  0
  2  3  1  0
  3  4  1  0
  4  5  1  0
  5  6  1  0
  5  7  1  0
  7  8  1  0
  8  9  1  0
  9  7  1  0
  1 10  1  0
  1 11  1  0
  1 12  1  0
  3 13  1  0
  3 14  1  0
  4 15  1  0
  4 16  1  0
  5 17  1  0
  6 18  1  0
  6 19  1  0
  6 20  1  0
  7 21  1  0
  8 22  1  0
  8 23  1  0
M  END
