
     RDKit          3D

 19 20  0  0  0  0  0  0  0  0999 V2000
    2.7120   -0.4147    0.5985 C   0  0  0  0  0  0  0  0  0  0  0  0
    1.4802   -0.7017    0.0820 O   0  0  0  0  0  0  0  0  0  0  0  0
    0.6949    0.3889   -0.1925 C   0  0  0  0  0  0  0  0  0  0  0  0
   -0.6391   -0.1336   -0.7610 C   0  0  0  0  0  0  0  0  0  0  0  0
   -0.9092   -1.4905   -0.5326 C   0  0  0  0  0  0  0  0  0  0  0  0
   -1.6626   -0.6730    0.3253 C   0  0  0  0  0  0  0  0  0  0  0  0
   -1.3887    0.3933    1.1421 O   0  0  0  0  0  0  0  0  0  0  0  0
   -1.6713    1.4487    0.2346 C   0  0  0  0  0  0  0  0  0  0  0  0
   -1.4295    0.9488   -1.0490 O   0  0  0  0  0  0  0  0  0  0  0  0
    3.2400   -1.3824    0.7730 H   0  0  0  0  0  0  0  0  0  0  0  0
    2.7014    0.1546    1.5372 H   0  0  0  0  0  0  0  0  0  0  0  0
    3.3667    0.1565   -0.1182 H   0  0  0  0  0  0  0  0  0  0  0  0
    0.4312    0.9257    0.7668 H   0  0  0  0  0  0  0  0  0  0  0  0
    1.1301    1.1474   -0.8417 H   0  0  0  0  0  0  0  0  0  0  0  0
   -1.4101   -2.0787   -1.3483 H   0  0  0  0  0  0  0  0  0  0  0  0
   -0.1081   -2.1433   -0.0777 H   0  0  0  0  0  0  0  0  0  0  0  0
   -2.7600   -0.5881    0.0435 H   0  0  0  0  0  0  0  0  0  0  0  0
   -2.7464    1.7347    0.3097 H   0  0  0  0  0  0  0  0  0  0  0  0
   -1.0316    2.3076    0.4824 H   0  0  0  0  0  0  0  0  0  0  0  0
  1  2  1  0
  2  3  1  0
  3  4  1  0
  4  5  1  0
  5  6  1  0
  6  7  1  0
  7  8  1  0
  8  9  1  0
  6  4  1  0
  9  4  1  0
  1 10  1  0
  1 11  1  0
  1 12  1  0
  3 13  1  0
  3 14  1  0
  5 15  1  0
  5 16  1  0
  6 17  1  0
  8 18  1  0
  8 19  1  0
M  END
