
     RDKit          3D

 22 22  0  0  0  0  0  0  0  0999 V2000
    3.2651   -0.7359   -0.3558 C   0  0  0  0  0  0  0  0  0  0  0  0
    1.9201   -0.9566   -0.7350 O   0  0  0  0  0  0  0  0  0  0  0  0
    1.2333    0.1855   -0.2726 C   0  0  0  0  0  0  0  0  0  0  0  0
   -0.2375    0.0902   -0.6109 C   0  0  0  0  0  0  0  0  0  0  0  0
   -0.9366    1.3108   -0.1103 C   0  0  0  0  0  0  0  0  0  0  0  0
   -2.2028    0.8969    0.5528 C   0  0  0  0  0  0  0  0  0  0  0  0
   -2.3175   -0.5622    0.2086 C   0  0  0  0  0  0  0  0  0  0  0  0
   -0.8550   -1.0146    0.2436 C   0  0  0  0  0  0  0  0  0  0  0  0
    3.9232   -1.5512   -0.6529 H   0  0  0  0  0  0  0  0  0  0  0  0
    3.2324   -0.5816    0.7557 H   0  0  0  0  0  0  0  0  0  0  0  0
    3.6080    0.2209   -0.7917 H   0  0  0  0  0  0  0  0  0  0  0  0
    1.4158    0.2301    0.8080 H   0  0  0  0  0  0  0  0  0  0  0  0
    1.7064    1.0500   -0.7593 H   0  0  0  0  0  0  0  0  0  0  0  0
   -0.4253   -0.1730   -1.6493 H   0  0  0  0  0  0  0  0  0  0  0  0
   -0.3049    1.8850    0.6283 H   0  0  0  0  0  0  0  0  0  0  0  0
   -1.0867    2.0240   -0.9600 H   0  0  0  0  0  0  0  0  0  0  0  0
   -3.0926    1.4683    0.2198 H   0  0  0  0  0  0  0  0  0  0  0  0
   -2.0810    0.9544    1.6642 H   0  0  0  0  0  0  0  0  0  0  0  0
   -2.9310   -1.1379    0.9077 H   0  0  0  0  0  0  0  0  0  0  0  0
   -2.6420   -0.6615   -0.8514 H   0  0  0  0  0  0  0  0  0  0  0  0
   -0.4682   -0.9332    1.2806 H   0  0  0  0  0  0  0  0  0  0  0  0
   -0.7230   -2.0085   -0.2056 H   0  0  0  0  0  0  0  0  0  0  0  0
  1  2  1  0
  2  3  1  0
  3  4  1  0
  4  5  1  0
  5  6  1  0
  6  7  1  0
  7  8  1  0
  8  4  1  0
  1  9  1  0
  1 10  1  0
  1 11  1  0
  3 12  1  0
  3 13  1  0
  4 14  1  0
  5 15  1  0
  5 16  1  0
  6 17  1  0
  6 18  1  0
  7 19  1  0
  7 20  1  0
  8 21  1  0
  8 22  1  0
M  END
