
     RDKit          3D

 23 23  0  0  0  0  0  0  0  0999 V2000
    3.5123   -0.5417    0.3782 C   0  0  0  0  0  0  0  0  0  0  0  0
    2.3333    0.0923    0.7771 O   0  0  0  0  0  0  0  0  0  0  0  0
    1.6058    0.3645   -0.3857 C   0  0  0  0  0  0  0  0  0  0  0  0
    0.2933    1.0625   -0.0334 C   0  0  0  0  0  0  0  0  0  0  0  0
   -0.5636    0.2108    0.8641 C   0  0  0  0  0  0  0  0  0  0  0  0
   -1.0131   -1.1412    0.3748 C   0  0  0  0  0  0  0  0  0  0  0  0
   -1.9852   -0.0123    0.5097 C   0  0  0  0  0  0  0  0  0  0  0  0
   -2.5973    0.5458   -0.7344 C   0  0  0  0  0  0  0  0  0  0  0  0
   -2.9285   -0.1640    1.5524 O   0  0  0  0  0  0  0  0  0  0  0  0
    4.1432   -0.7868    1.2798 H   0  0  0  0  0  0  0  0  0  0  0  0
    3.2120   -1.4882   -0.1021 H   0  0  0  0  0  0  0  0  0  0  0  0
    4.1152    0.0578   -0.3151 H   0  0  0  0  0  0  0  0  0  0  0  0
    1.4222   -0.5211   -0.9928 H   0  0  0  0  0  0  0  0  0  0  0  0
    2.2056    1.1454   -0.9345 H   0  0  0  0  0  0  0  0  0  0  0  0
   -0.2450    1.1914   -0.9894 H   0  0  0  0  0  0  0  0  0  0  0  0
    0.4723    2.0241    0.4474 H   0  0  0  0  0  0  0  0  0  0  0  0
   -0.3608    0.2760    1.9570 H   0  0  0  0  0  0  0  0  0  0  0  0
   -0.6895   -1.4581   -0.6488 H   0  0  0  0  0  0  0  0  0  0  0  0
   -1.0753   -1.9675    1.0872 H   0  0  0  0  0  0  0  0  0  0  0  0
   -3.5730    0.0023   -0.9089 H   0  0  0  0  0  0  0  0  0  0  0  0
   -2.7986    1.6363   -0.6148 H   0  0  0  0  0  0  0  0  0  0  0  0
   -2.0128    0.4107   -1.6427 H   0  0  0  0  0  0  0  0  0  0  0  0
   -3.4723   -0.9390    1.3001 H   0  0  0  0  0  0  0  0  0  0  0  0
  1  2  1  0
  2  3  1  0
  3  4  1  0
  4  5  1  0
  5  6  1  0
  6  7  1  0
  7  8  1  0
  7  9  1  0
  7  5  1  0
  1 10  1  0
  1 11  1  0
  1 12  1  0
  3 13  1  0
  3 14  1  0
  4 15  1  0
  4 16  1  0
  5 17  1  0
  6 18  1  0
  6 19  1  0
  8 20  1  0
  8 21  1  0
  8 22  1  0
  9 23  1  0
M  END
