
     RDKit          3D

 23 22  0  0  0  0  0  0  0  0999 V2000
    3.0600   -0.4041    0.8288 C   0  0  0  0  0  0  0  0  0  0  0  0
    1.7394   -0.6814    0.4468 O   0  0  0  0  0  0  0  0  0  0  0  0
    1.2556    0.4164   -0.2426 C   0  0  0  0  0  0  0  0  0  0  0  0
   -0.1357    0.2957   -0.7235 C   0  0  0  0  0  0  0  0  0  0  0  0
   -0.4941    1.5553   -1.4386 C   0  0  0  0  0  0  0  0  0  0  0  0
   -0.2166    1.7588   -2.5999 O   0  0  0  0  0  0  0  0  0  0  0  0
   -1.1770   -0.0401    0.2688 C   0  0  0  0  0  0  0  0  0  0  0  0
   -2.5350   -0.1221   -0.3984 C   0  0  0  0  0  0  0  0  0  0  0  0
   -0.9828   -1.2693    1.0702 C   0  0  0  0  0  0  0  0  0  0  0  0
    3.0573    0.5124    1.4891 H   0  0  0  0  0  0  0  0  0  0  0  0
    3.6059   -0.1855   -0.1135 H   0  0  0  0  0  0  0  0  0  0  0  0
    3.5116   -1.1992    1.4228 H   0  0  0  0  0  0  0  0  0  0  0  0
    1.9188    0.5555   -1.1239 H   0  0  0  0  0  0  0  0  0  0  0  0
    1.3435    1.3565    0.3526 H   0  0  0  0  0  0  0  0  0  0  0  0
   -0.1536   -0.5042   -1.5227 H   0  0  0  0  0  0  0  0  0  0  0  0
   -1.0280    2.3348   -0.9083 H   0  0  0  0  0  0  0  0  0  0  0  0
   -1.2455    0.8202    0.9987 H   0  0  0  0  0  0  0  0  0  0  0  0
   -2.4735    0.4814   -1.3329 H   0  0  0  0  0  0  0  0  0  0  0  0
   -2.7835   -1.1757   -0.6792 H   0  0  0  0  0  0  0  0  0  0  0  0
   -3.3149    0.3243    0.2536 H   0  0  0  0  0  0  0  0  0  0  0  0
   -0.5879   -2.1394    0.5049 H   0  0  0  0  0  0  0  0  0  0  0  0
   -0.3826   -1.0911    2.0105 H   0  0  0  0  0  0  0  0  0  0  0  0
   -1.9815   -1.5990    1.4368 H   0  0  0  0  0  0  0  0  0  0  0  0
  1  2  1  0
  2  3  1  0
  3  4  1  0
  4  5  1  0
  5  6  2  0
  4  7  1  0
  7  8  1  0
  7  9  1  0
  1 10  1  0
  1 11  1  0
  1 12  1  0
  3 13  1  0
  3 14  1  0
  4 15  1  0
  5 16  1  0
  7 17  1  0
  8 18  1  0
  8 19  1  0
  8 20  1  0
  9 21  1  0
  9 22  1  0
  9 23  1  0
M  END
