
     RDKit          3D

 23 22  0  0  0  0  0  0  0  0999 V2000
   -2.9646   -0.2265    1.2995 C   0  0  0  0  0  0  0  0  0  0  0  0
   -1.9688   -0.7725    0.4925 O   0  0  0  0  0  0  0  0  0  0  0  0
   -0.8487    0.0487    0.4239 C   0  0  0  0  0  0  0  0  0  0  0  0
    0.1528   -0.6343   -0.4659 C   0  0  0  0  0  0  0  0  0  0  0  0
   -0.5043   -0.8026   -1.8241 C   0  0  0  0  0  0  0  0  0  0  0  0
    1.4088    0.1687   -0.6659 C   0  0  0  0  0  0  0  0  0  0  0  0
    1.1326    1.3814   -1.2410 O   0  0  0  0  0  0  0  0  0  0  0  0
    2.1711    0.3838    0.6139 C   0  0  0  0  0  0  0  0  0  0  0  0
    2.4873   -0.8044    1.2550 O   0  0  0  0  0  0  0  0  0  0  0  0
   -3.8281   -0.9220    1.3159 H   0  0  0  0  0  0  0  0  0  0  0  0
   -3.3642    0.7326    0.8810 H   0  0  0  0  0  0  0  0  0  0  0  0
   -2.6435   -0.0545    2.3343 H   0  0  0  0  0  0  0  0  0  0  0  0
   -1.1679    0.9985   -0.0468 H   0  0  0  0  0  0  0  0  0  0  0  0
   -0.4416    0.2797    1.4292 H   0  0  0  0  0  0  0  0  0  0  0  0
    0.3755   -1.6303   -0.0415 H   0  0  0  0  0  0  0  0  0  0  0  0
   -1.6145   -0.9449   -1.6848 H   0  0  0  0  0  0  0  0  0  0  0  0
   -0.4085    0.1187   -2.4374 H   0  0  0  0  0  0  0  0  0  0  0  0
   -0.0954   -1.6341   -2.4011 H   0  0  0  0  0  0  0  0  0  0  0  0
    2.0666   -0.4202   -1.3397 H   0  0  0  0  0  0  0  0  0  0  0  0
    1.9921    1.8911   -1.3168 H   0  0  0  0  0  0  0  0  0  0  0  0
    3.1456    0.8651    0.3193 H   0  0  0  0  0  0  0  0  0  0  0  0
    1.6022    1.0197    1.3072 H   0  0  0  0  0  0  0  0  0  0  0  0
    3.3155   -0.6191    1.7931 H   0  0  0  0  0  0  0  0  0  0  0  0
  1  2  1  0
  2  3  1  0
  3  4  1  0
  4  5  1  0
  4  6  1  0
  6  7  1  0
  6  8  1  0
  8  9  1  0
  1 10  1  0
  1 11  1  0
  1 12  1  0
  3 13  1  0
  3 14  1  0
  4 15  1  0
  5 16  1  0
  5 17  1  0
  5 18  1  0
  6 19  1  0
  7 20  1  0
  8 21  1  0
  8 22  1  0
  9 23  1  0
M  END
