
     RDKit          3D

 19 19  0  0  0  0  0  0  0  0999 V2000
    2.7631   -0.9353    0.4520 C   0  0  0  0  0  0  0  0  0  0  0  0
    1.4557   -0.8945   -0.0283 O   0  0  0  0  0  0  0  0  0  0  0  0
    0.8412    0.3264    0.2559 C   0  0  0  0  0  0  0  0  0  0  0  0
   -0.5580    0.2344   -0.3156 C   0  0  0  0  0  0  0  0  0  0  0  0
   -0.6298    0.0197   -1.6679 O   0  0  0  0  0  0  0  0  0  0  0  0
   -1.4924   -0.6075    0.5366 C   0  0  0  0  0  0  0  0  0  0  0  0
   -2.5366    0.3950    0.2390 C   0  0  0  0  0  0  0  0  0  0  0  0
   -3.7310    0.4008    0.1301 O   0  0  0  0  0  0  0  0  0  0  0  0
   -1.4543    1.3970    0.1333 C   0  0  0  0  0  0  0  0  0  0  0  0
    3.1688   -1.9273    0.1855 H   0  0  0  0  0  0  0  0  0  0  0  0
    3.3016   -0.0894    0.0046 H   0  0  0  0  0  0  0  0  0  0  0  0
    2.7718   -0.8347    1.5701 H   0  0  0  0  0  0  0  0  0  0  0  0
    0.7377    0.4780    1.3398 H   0  0  0  0  0  0  0  0  0  0  0  0
    1.3444    1.1685   -0.2591 H   0  0  0  0  0  0  0  0  0  0  0  0
   -0.5101   -0.9283   -1.9433 H   0  0  0  0  0  0  0  0  0  0  0  0
   -1.6621   -1.6266    0.1909 H   0  0  0  0  0  0  0  0  0  0  0  0
   -1.1030   -0.5809    1.5942 H   0  0  0  0  0  0  0  0  0  0  0  0
   -1.1276    1.8200    1.1257 H   0  0  0  0  0  0  0  0  0  0  0  0
   -1.5794    2.1849   -0.6132 H   0  0  0  0  0  0  0  0  0  0  0  0
  1  2  1  0
  2  3  1  0
  3  4  1  0
  4  5  1  0
  4  6  1  0
  6  7  1  0
  7  8  2  0
  7  9  1  0
  9  4  1  0
  1 10  1  0
  1 11  1  0
  1 12  1  0
  3 13  1  0
  3 14  1  0
  5 15  1  0
  6 16  1  0
  6 17  1  0
  9 18  1  0
  9 19  1  0
M  END
