
     RDKit          3D

 25 24  0  0  0  0  0  0  0  0999 V2000
    3.6252   -0.2385   -0.4537 C   0  0  0  0  0  0  0  0  0  0  0  0
    2.6908    0.7864   -0.4946 O   0  0  0  0  0  0  0  0  0  0  0  0
    1.7212    0.6852    0.4627 C   0  0  0  0  0  0  0  0  0  0  0  0
    0.8768   -0.5406    0.4317 C   0  0  0  0  0  0  0  0  0  0  0  0
    0.1185   -0.7147   -0.8558 C   0  0  0  0  0  0  0  0  0  0  0  0
   -0.8169    0.4116   -1.1518 C   0  0  0  0  0  0  0  0  0  0  0  0
   -1.8692    0.6026   -0.0917 C   0  0  0  0  0  0  0  0  0  0  0  0
   -2.6669   -0.5244    0.0713 O   0  0  0  0  0  0  0  0  0  0  0  0
   -3.6004   -0.2465    1.0666 C   0  0  0  0  0  0  0  0  0  0  0  0
    3.1392   -1.2192   -0.6081 H   0  0  0  0  0  0  0  0  0  0  0  0
    4.3566   -0.0395   -1.2854 H   0  0  0  0  0  0  0  0  0  0  0  0
    4.2063   -0.2391    0.5008 H   0  0  0  0  0  0  0  0  0  0  0  0
    2.2472    0.6794    1.4641 H   0  0  0  0  0  0  0  0  0  0  0  0
    1.0486    1.5601    0.5155 H   0  0  0  0  0  0  0  0  0  0  0  0
    0.1907   -0.4785    1.3156 H   0  0  0  0  0  0  0  0  0  0  0  0
    1.5175   -1.4302    0.5760 H   0  0  0  0  0  0  0  0  0  0  0  0
    0.8802   -0.7336   -1.6725 H   0  0  0  0  0  0  0  0  0  0  0  0
   -0.4117   -1.6820   -0.9102 H   0  0  0  0  0  0  0  0  0  0  0  0
   -0.2786    1.3680   -1.2717 H   0  0  0  0  0  0  0  0  0  0  0  0
   -1.3326    0.1907   -2.1000 H   0  0  0  0  0  0  0  0  0  0  0  0
   -1.4697    0.8892    0.8828 H   0  0  0  0  0  0  0  0  0  0  0  0
   -2.5378    1.4242   -0.4415 H   0  0  0  0  0  0  0  0  0  0  0  0
   -4.2765   -1.1137    1.2490 H   0  0  0  0  0  0  0  0  0  0  0  0
   -4.2603    0.5983    0.7796 H   0  0  0  0  0  0  0  0  0  0  0  0
   -3.0981    0.0663    2.0212 H   0  0  0  0  0  0  0  0  0  0  0  0
  1  2  1  0
  2  3  1  0
  3  4  1  0
  4  5  1  0
  5  6  1  0
  6  7  1  0
  7  8  1  0
  8  9  1  0
  1 10  1  0
  1 11  1  0
  1 12  1  0
  3 13  1  0
  3 14  1  0
  4 15  1  0
  4 16  1  0
  5 17  1  0
  5 18  1  0
  6 19  1  0
  6 20  1  0
  7 21  1  0
  7 22  1  0
  9 23  1  0
  9 24  1  0
  9 25  1  0
M  END
