
     RDKit          3D

 15 14  0  0  0  0  0  0  0  0999 V2000
   -2.3942   -2.0533    0.3474 C   0  0  0  0  0  0  0  0  0  0  0  0
   -1.1909   -1.3363    0.4713 O   0  0  0  0  0  0  0  0  0  0  0  0
   -1.1508   -0.4232   -0.5696 C   0  0  0  0  0  0  0  0  0  0  0  0
    0.1190    0.3197   -0.4225 C   0  0  0  0  0  0  0  0  0  0  0  0
    1.1473    0.9418   -0.3139 C   0  0  0  0  0  0  0  0  0  0  0  0
    2.3806    1.6693   -0.2038 C   0  0  0  0  0  0  0  0  0  0  0  0
    2.9713    2.0090   -1.2567 O   0  0  0  0  0  0  0  0  0  0  0  0
    2.9750    2.0295    1.0590 C   0  0  0  0  0  0  0  0  0  0  0  0
    2.4335    1.7187    2.1394 O   0  0  0  0  0  0  0  0  0  0  0  0
   -3.2795   -1.4144    0.4015 H   0  0  0  0  0  0  0  0  0  0  0  0
   -2.3543   -2.8167    1.1780 H   0  0  0  0  0  0  0  0  0  0  0  0
   -2.4057   -2.5811   -0.6404 H   0  0  0  0  0  0  0  0  0  0  0  0
   -1.9564    0.3088   -0.5660 H   0  0  0  0  0  0  0  0  0  0  0  0
   -1.1900   -0.9434   -1.5661 H   0  0  0  0  0  0  0  0  0  0  0  0
    3.8952    2.5720    1.0758 H   0  0  0  0  0  0  0  0  0  0  0  0
  1  2  1  0
  2  3  1  0
  3  4  1  0
  4  5  3  0
  5  6  1  0
  6  7  2  0
  6  8  1  0
  8  9  2  0
  1 10  1  0
  1 11  1  0
  1 12  1  0
  3 13  1  0
  3 14  1  0
  8 15  1  0
M  END
