
     RDKit          3D

 23 24  0  0  0  0  0  0  0  0999 V2000
    3.4969    0.4220    0.4284 C   0  0  0  0  0  0  0  0  0  0  0  0
    2.2492    0.0442    0.9350 O   0  0  0  0  0  0  0  0  0  0  0  0
    1.6264   -0.7187   -0.0480 C   0  0  0  0  0  0  0  0  0  0  0  0
    0.2716   -1.1963    0.3576 C   0  0  0  0  0  0  0  0  0  0  0  0
   -0.6832   -0.0730    0.6676 C   0  0  0  0  0  0  0  0  0  0  0  0
   -0.9533    0.8805   -0.4566 C   0  0  0  0  0  0  0  0  0  0  0  0
   -2.4316    0.7527   -0.2985 C   0  0  0  0  0  0  0  0  0  0  0  0
   -3.0834    0.6271    1.0232 C   0  0  0  0  0  0  0  0  0  0  0  0
   -2.1407   -0.4525    0.6492 C   0  0  0  0  0  0  0  0  0  0  0  0
    4.0128    1.0332    1.1982 H   0  0  0  0  0  0  0  0  0  0  0  0
    3.4265    0.9480   -0.5278 H   0  0  0  0  0  0  0  0  0  0  0  0
    4.0924   -0.5127    0.2397 H   0  0  0  0  0  0  0  0  0  0  0  0
    1.6357   -0.1947   -1.0230 H   0  0  0  0  0  0  0  0  0  0  0  0
    2.2673   -1.6243   -0.1887 H   0  0  0  0  0  0  0  0  0  0  0  0
   -0.1110   -1.8950   -0.3946 H   0  0  0  0  0  0  0  0  0  0  0  0
    0.3978   -1.7783    1.3066 H   0  0  0  0  0  0  0  0  0  0  0  0
   -0.4384    0.4639    1.5965 H   0  0  0  0  0  0  0  0  0  0  0  0
   -0.6093    1.9219   -0.2562 H   0  0  0  0  0  0  0  0  0  0  0  0
   -0.6280    0.5583   -1.4660 H   0  0  0  0  0  0  0  0  0  0  0  0
   -3.0283    0.5530   -1.1886 H   0  0  0  0  0  0  0  0  0  0  0  0
   -4.1502    0.4074    1.0304 H   0  0  0  0  0  0  0  0  0  0  0  0
   -2.7580    1.2456    1.8982 H   0  0  0  0  0  0  0  0  0  0  0  0
   -2.4612   -1.4123    0.2291 H   0  0  0  0  0  0  0  0  0  0  0  0
  1  2  1  0
  2  3  1  0
  3  4  1  0
  4  5  1  0
  5  6  1  0
  6  7  1  0
  7  8  1  0
  8  9  1  0
  9  5  1  0
  9  7  1  0
  1 10  1  0
  1 11  1  0
  1 12  1  0
  3 13  1  0
  3 14  1  0
  4 15  1  0
  4 16  1  0
  5 17  1  0
  6 18  1  0
  6 19  1  0
  7 20  1  0
  8 21  1  0
  8 22  1  0
  9 23  1  0
M  END
