
     RDKit          3D

 21 21  0  0  0  0  0  0  0  0999 V2000
    3.1624   -0.3069    0.2424 C   0  0  0  0  0  0  0  0  0  0  0  0
    2.0244    0.3771   -0.1389 O   0  0  0  0  0  0  0  0  0  0  0  0
    1.0088   -0.4648   -0.5836 C   0  0  0  0  0  0  0  0  0  0  0  0
   -0.1497    0.4201   -0.9582 C   0  0  0  0  0  0  0  0  0  0  0  0
   -0.6568    1.2549    0.2304 C   0  0  0  0  0  0  0  0  0  0  0  0
   -0.7607    2.6076   -0.0382 O   0  0  0  0  0  0  0  0  0  0  0  0
   -1.5005    0.2493   -0.4493 C   0  0  0  0  0  0  0  0  0  0  0  0
   -1.9473   -0.9577    0.3290 C   0  0  0  0  0  0  0  0  0  0  0  0
   -3.3027   -0.8198    0.6756 O   0  0  0  0  0  0  0  0  0  0  0  0
    3.6179   -0.9024   -0.5476 H   0  0  0  0  0  0  0  0  0  0  0  0
    2.9086   -0.8886    1.1631 H   0  0  0  0  0  0  0  0  0  0  0  0
    3.9062    0.4494    0.5635 H   0  0  0  0  0  0  0  0  0  0  0  0
    1.4156   -1.0148   -1.4567 H   0  0  0  0  0  0  0  0  0  0  0  0
    0.7377   -1.2396    0.1645 H   0  0  0  0  0  0  0  0  0  0  0  0
    0.0019    0.9490   -1.9260 H   0  0  0  0  0  0  0  0  0  0  0  0
   -0.3115    1.0108    1.2342 H   0  0  0  0  0  0  0  0  0  0  0  0
   -0.8655    3.1455    0.7724 H   0  0  0  0  0  0  0  0  0  0  0  0
   -2.3241    0.6819   -1.0795 H   0  0  0  0  0  0  0  0  0  0  0  0
   -1.3815   -0.9721    1.2822 H   0  0  0  0  0  0  0  0  0  0  0  0
   -1.8187   -1.9007   -0.2221 H   0  0  0  0  0  0  0  0  0  0  0  0
   -3.7647   -1.6781    0.7427 H   0  0  0  0  0  0  0  0  0  0  0  0
  1  2  1  0
  2  3  1  0
  3  4  1  0
  4  5  1  0
  5  6  1  0
  5  7  1  0
  7  8  1  0
  8  9  1  0
  7  4  1  0
  1 10  1  0
  1 11  1  0
  1 12  1  0
  3 13  1  0
  3 14  1  0
  4 15  1  0
  5 16  1  0
  6 17  1  0
  7 18  1  0
  8 19  1  0
  8 20  1  0
  9 21  1  0
M  END
