
     RDKit          3D

 21 21  0  0  0  0  0  0  0  0999 V2000
    2.6872    1.2521   -0.5932 C   0  0  0  0  0  0  0  0  0  0  0  0
    1.6439    0.7167    0.1443 O   0  0  0  0  0  0  0  0  0  0  0  0
    0.6853    0.1562   -0.6945 C   0  0  0  0  0  0  0  0  0  0  0  0
   -0.4600   -0.4332    0.0781 C   0  0  0  0  0  0  0  0  0  0  0  0
   -1.1565    0.4340    0.8903 O   0  0  0  0  0  0  0  0  0  0  0  0
   -1.6903    1.4304    0.0910 C   0  0  0  0  0  0  0  0  0  0  0  0
   -1.4020   -1.3599   -0.7146 C   0  0  0  0  0  0  0  0  0  0  0  0
   -0.4485   -1.8935    0.3301 C   0  0  0  0  0  0  0  0  0  0  0  0
   -0.9460   -2.3089    1.5502 O   0  0  0  0  0  0  0  0  0  0  0  0
    3.1682    0.4441   -1.2028 H   0  0  0  0  0  0  0  0  0  0  0  0
    2.2268    1.9787   -1.3198 H   0  0  0  0  0  0  0  0  0  0  0  0
    3.3859    1.7421    0.0979 H   0  0  0  0  0  0  0  0  0  0  0  0
    0.3070    0.8584   -1.4533 H   0  0  0  0  0  0  0  0  0  0  0  0
    1.1936   -0.6788   -1.2329 H   0  0  0  0  0  0  0  0  0  0  0  0
   -0.9505    2.0358   -0.4591 H   0  0  0  0  0  0  0  0  0  0  0  0
   -2.2828    0.9021   -0.7035 H   0  0  0  0  0  0  0  0  0  0  0  0
   -2.3384    2.0920    0.7009 H   0  0  0  0  0  0  0  0  0  0  0  0
   -1.1484   -1.5026   -1.7952 H   0  0  0  0  0  0  0  0  0  0  0  0
   -2.4571   -1.4246   -0.4173 H   0  0  0  0  0  0  0  0  0  0  0  0
    0.4054   -2.4511   -0.1016 H   0  0  0  0  0  0  0  0  0  0  0  0
   -0.4227   -1.9900    2.3253 H   0  0  0  0  0  0  0  0  0  0  0  0
  1  2  1  0
  2  3  1  0
  3  4  1  0
  4  5  1  0
  5  6  1  0
  4  7  1  0
  7  8  1  0
  8  9  1  0
  8  4  1  0
  1 10  1  0
  1 11  1  0
  1 12  1  0
  3 13  1  0
  3 14  1  0
  6 15  1  0
  6 16  1  0
  6 17  1  0
  7 18  1  0
  7 19  1  0
  8 20  1  0
  9 21  1  0
M  END
