
     RDKit          3D

 21 22  0  0  0  0  0  0  0  0999 V2000
    2.8725    0.5594   -0.1095 C   0  0  0  0  0  0  0  0  0  0  0  0
    2.1363   -0.2889    0.6725 O   0  0  0  0  0  0  0  0  0  0  0  0
    1.1609   -1.0122    0.0195 C   0  0  0  0  0  0  0  0  0  0  0  0
    0.1275   -0.1370   -0.6387 C   0  0  0  0  0  0  0  0  0  0  0  0
   -0.8616   -0.9281   -1.2839 O   0  0  0  0  0  0  0  0  0  0  0  0
   -2.0211   -0.4708   -0.7317 C   0  0  0  0  0  0  0  0  0  0  0  0
   -1.6797   -0.5434    0.7662 C   0  0  0  0  0  0  0  0  0  0  0  0
   -0.6998    0.5410    0.3748 C   0  0  0  0  0  0  0  0  0  0  0  0
   -1.8510    1.0420   -0.5197 C   0  0  0  0  0  0  0  0  0  0  0  0
    2.2183    1.3036   -0.5672 H   0  0  0  0  0  0  0  0  0  0  0  0
    3.4416    0.0122   -0.8890 H   0  0  0  0  0  0  0  0  0  0  0  0
    3.6066    1.1012    0.5147 H   0  0  0  0  0  0  0  0  0  0  0  0
    0.7018   -1.6665    0.8067 H   0  0  0  0  0  0  0  0  0  0  0  0
    1.5896   -1.7344   -0.7129 H   0  0  0  0  0  0  0  0  0  0  0  0
    0.5716    0.5425   -1.3915 H   0  0  0  0  0  0  0  0  0  0  0  0
   -2.9748   -0.8191   -1.0313 H   0  0  0  0  0  0  0  0  0  0  0  0
   -1.2974   -1.5328    0.9847 H   0  0  0  0  0  0  0  0  0  0  0  0
   -2.4974   -0.1653    1.4103 H   0  0  0  0  0  0  0  0  0  0  0  0
   -0.3240    1.2013    1.0993 H   0  0  0  0  0  0  0  0  0  0  0  0
   -1.5258    1.5704   -1.4100 H   0  0  0  0  0  0  0  0  0  0  0  0
   -2.6941    1.4248    0.0536 H   0  0  0  0  0  0  0  0  0  0  0  0
  1  2  1  0
  2  3  1  0
  3  4  1  0
  4  5  1  0
  5  6  1  0
  6  7  1  0
  7  8  1  0
  8  9  1  0
  8  4  1  0
  9  6  1  0
  1 10  1  0
  1 11  1  0
  1 12  1  0
  3 13  1  0
  3 14  1  0
  4 15  1  0
  6 16  1  0
  7 17  1  0
  7 18  1  0
  8 19  1  0
  9 20  1  0
  9 21  1  0
M  END
