
     RDKit          3D

 19 19  0  0  0  0  0  0  0  0999 V2000
    3.1415    0.0627    0.4066 C   0  0  0  0  0  0  0  0  0  0  0  0
    1.8181    0.3068    0.7369 O   0  0  0  0  0  0  0  0  0  0  0  0
    0.9300   -0.5026    0.0378 C   0  0  0  0  0  0  0  0  0  0  0  0
   -0.4600   -0.1199    0.5042 C   0  0  0  0  0  0  0  0  0  0  0  0
   -1.6538   -0.7927   -0.0437 C   0  0  0  0  0  0  0  0  0  0  0  0
   -1.4832   -1.7770   -1.0394 O   0  0  0  0  0  0  0  0  0  0  0  0
   -1.2551    0.6548   -0.4727 C   0  0  0  0  0  0  0  0  0  0  0  0
   -2.2036    1.7041    0.0068 C   0  0  0  0  0  0  0  0  0  0  0  0
   -2.6172    1.7014    1.1516 O   0  0  0  0  0  0  0  0  0  0  0  0
    3.7584    0.7556    1.0158 H   0  0  0  0  0  0  0  0  0  0  0  0
    3.4532   -0.9740    0.6523 H   0  0  0  0  0  0  0  0  0  0  0  0
    3.3464    0.2293   -0.6733 H   0  0  0  0  0  0  0  0  0  0  0  0
    1.0542   -1.5786    0.3023 H   0  0  0  0  0  0  0  0  0  0  0  0
    1.0225   -0.3526   -1.0679 H   0  0  0  0  0  0  0  0  0  0  0  0
   -0.5109    0.2172    1.5684 H   0  0  0  0  0  0  0  0  0  0  0  0
   -2.5287   -0.8762    0.6295 H   0  0  0  0  0  0  0  0  0  0  0  0
   -2.3337   -1.8874   -1.5328 H   0  0  0  0  0  0  0  0  0  0  0  0
   -0.9360    0.7438   -1.5334 H   0  0  0  0  0  0  0  0  0  0  0  0
   -2.5420    2.4851   -0.6492 H   0  0  0  0  0  0  0  0  0  0  0  0
  1  2  1  0
  2  3  1  0
  3  4  1  0
  4  5  1  0
  5  6  1  0
  5  7  1  0
  7  8  1  0
  8  9  2  0
  7  4  1  0
  1 10  1  0
  1 11  1  0
  1 12  1  0
  3 13  1  0
  3 14  1  0
  4 15  1  0
  5 16  1  0
  6 17  1  0
  7 18  1  0
  8 19  1  0
M  END
