
     RDKit          3D

 19 19  0  0  0  0  0  0  0  0999 V2000
    3.9885    0.3040   -0.6747 C   0  0  0  0  0  0  0  0  0  0  0  0
    2.6261    0.4530   -0.3918 O   0  0  0  0  0  0  0  0  0  0  0  0
    2.0609   -0.8182   -0.4426 C   0  0  0  0  0  0  0  0  0  0  0  0
    0.6289   -0.6622   -0.1455 C   0  0  0  0  0  0  0  0  0  0  0  0
   -0.5440   -0.5346    0.1194 C   0  0  0  0  0  0  0  0  0  0  0  0
   -1.9580   -0.3630    0.4305 C   0  0  0  0  0  0  0  0  0  0  0  0
   -2.4746    1.0365    0.4007 C   0  0  0  0  0  0  0  0  0  0  0  0
   -3.7025    0.2914   -0.0806 C   0  0  0  0  0  0  0  0  0  0  0  0
   -2.8187   -0.6514   -0.6491 O   0  0  0  0  0  0  0  0  0  0  0  0
    4.4357    1.3146   -0.6339 H   0  0  0  0  0  0  0  0  0  0  0  0
    4.4018   -0.2952    0.1881 H   0  0  0  0  0  0  0  0  0  0  0  0
    4.1624   -0.2084   -1.6357 H   0  0  0  0  0  0  0  0  0  0  0  0
    2.5220   -1.5268    0.2691 H   0  0  0  0  0  0  0  0  0  0  0  0
    2.2141   -1.2293   -1.4807 H   0  0  0  0  0  0  0  0  0  0  0  0
   -2.2606   -0.8795    1.3607 H   0  0  0  0  0  0  0  0  0  0  0  0
   -2.6028    1.4729    1.4233 H   0  0  0  0  0  0  0  0  0  0  0  0
   -2.0987    1.7053   -0.3723 H   0  0  0  0  0  0  0  0  0  0  0  0
   -4.2663   -0.2281    0.7358 H   0  0  0  0  0  0  0  0  0  0  0  0
   -4.3144    0.8189   -0.8223 H   0  0  0  0  0  0  0  0  0  0  0  0
  1  2  1  0
  2  3  1  0
  3  4  1  0
  4  5  3  0
  5  6  1  0
  6  7  1  0
  7  8  1  0
  8  9  1  0
  9  6  1  0
  1 10  1  0
  1 11  1  0
  1 12  1  0
  3 13  1  0
  3 14  1  0
  6 15  1  0
  7 16  1  0
  7 17  1  0
  8 18  1  0
  8 19  1  0
M  END
