
     RDKit          3D

 25 24  0  0  0  0  0  0  0  0999 V2000
    2.9212   -0.6894    0.3525 C   0  0  0  0  0  0  0  0  0  0  0  0
    1.5496   -0.5360    0.5711 O   0  0  0  0  0  0  0  0  0  0  0  0
    1.0301    0.5109   -0.1823 C   0  0  0  0  0  0  0  0  0  0  0  0
   -0.4489    0.6789    0.0512 C   0  0  0  0  0  0  0  0  0  0  0  0
   -1.0162    1.6930   -0.6625 O   0  0  0  0  0  0  0  0  0  0  0  0
   -1.5258    2.7315    0.0928 C   0  0  0  0  0  0  0  0  0  0  0  0
   -1.1918   -0.6319   -0.0696 C   0  0  0  0  0  0  0  0  0  0  0  0
   -0.7014   -1.6532    0.9348 C   0  0  0  0  0  0  0  0  0  0  0  0
   -0.9855   -1.2608   -1.4433 C   0  0  0  0  0  0  0  0  0  0  0  0
    3.4433    0.2628    0.6442 H   0  0  0  0  0  0  0  0  0  0  0  0
    3.1245   -0.9411   -0.6912 H   0  0  0  0  0  0  0  0  0  0  0  0
    3.3560   -1.4696    0.9975 H   0  0  0  0  0  0  0  0  0  0  0  0
    1.2671    0.2775   -1.2461 H   0  0  0  0  0  0  0  0  0  0  0  0
    1.6127    1.4048    0.0722 H   0  0  0  0  0  0  0  0  0  0  0  0
   -0.5491    0.9691    1.1412 H   0  0  0  0  0  0  0  0  0  0  0  0
   -1.9749    3.5329   -0.4868 H   0  0  0  0  0  0  0  0  0  0  0  0
   -2.2056    2.4087    0.8975 H   0  0  0  0  0  0  0  0  0  0  0  0
   -0.6416    3.1850    0.6320 H   0  0  0  0  0  0  0  0  0  0  0  0
   -2.2700   -0.5217    0.0811 H   0  0  0  0  0  0  0  0  0  0  0  0
    0.0619   -2.3347    0.5221 H   0  0  0  0  0  0  0  0  0  0  0  0
   -1.5485   -2.3035    1.2868 H   0  0  0  0  0  0  0  0  0  0  0  0
   -0.3350   -1.1027    1.8276 H   0  0  0  0  0  0  0  0  0  0  0  0
   -0.0033   -1.7541   -1.5350 H   0  0  0  0  0  0  0  0  0  0  0  0
   -1.8166   -1.9853   -1.5727 H   0  0  0  0  0  0  0  0  0  0  0  0
   -1.1522   -0.4710   -2.2151 H   0  0  0  0  0  0  0  0  0  0  0  0
  1  2  1  0
  2  3  1  0
  3  4  1  0
  4  5  1  0
  5  6  1  0
  4  7  1  0
  7  8  1  0
  7  9  1  0
  1 10  1  0
  1 11  1  0
  1 12  1  0
  3 13  1  0
  3 14  1  0
  4 15  1  0
  6 16  1  0
  6 17  1  0
  6 18  1  0
  7 19  1  0
  8 20  1  0
  8 21  1  0
  8 22  1  0
  9 23  1  0
  9 24  1  0
  9 25  1  0
M  END
