
     RDKit          3D

 25 25  0  0  0  0  0  0  0  0999 V2000
    3.4407    0.0954   -0.2897 C   0  0  0  0  0  0  0  0  0  0  0  0
    2.1531    0.3969    0.0831 O   0  0  0  0  0  0  0  0  0  0  0  0
    1.2554   -0.6250   -0.0848 C   0  0  0  0  0  0  0  0  0  0  0  0
   -0.1011   -0.1513    0.3621 C   0  0  0  0  0  0  0  0  0  0  0  0
   -0.6478    1.0384   -0.3817 C   0  0  0  0  0  0  0  0  0  0  0  0
   -0.7162    2.3242    0.3874 C   0  0  0  0  0  0  0  0  0  0  0  0
   -2.0142    0.3383   -0.2863 C   0  0  0  0  0  0  0  0  0  0  0  0
   -1.2142   -0.9576   -0.3185 C   0  0  0  0  0  0  0  0  0  0  0  0
   -1.7598   -2.0728    0.5051 C   0  0  0  0  0  0  0  0  0  0  0  0
    3.5351   -0.1878   -1.3645 H   0  0  0  0  0  0  0  0  0  0  0  0
    3.9419   -0.6438    0.3440 H   0  0  0  0  0  0  0  0  0  0  0  0
    4.0360    1.0479   -0.1886 H   0  0  0  0  0  0  0  0  0  0  0  0
    1.4923   -1.5488    0.4469 H   0  0  0  0  0  0  0  0  0  0  0  0
    1.1644   -0.9042   -1.1748 H   0  0  0  0  0  0  0  0  0  0  0  0
   -0.2422   -0.0641    1.4438 H   0  0  0  0  0  0  0  0  0  0  0  0
   -0.3437    1.1231   -1.4348 H   0  0  0  0  0  0  0  0  0  0  0  0
   -1.3176    2.1781    1.2901 H   0  0  0  0  0  0  0  0  0  0  0  0
   -1.2521    3.0607   -0.2480 H   0  0  0  0  0  0  0  0  0  0  0  0
    0.2844    2.7599    0.5945 H   0  0  0  0  0  0  0  0  0  0  0  0
   -2.4777    0.5276    0.7127 H   0  0  0  0  0  0  0  0  0  0  0  0
   -2.6773    0.5092   -1.1301 H   0  0  0  0  0  0  0  0  0  0  0  0
   -0.9594   -1.1865   -1.3738 H   0  0  0  0  0  0  0  0  0  0  0  0
   -2.3546   -2.7317   -0.1630 H   0  0  0  0  0  0  0  0  0  0  0  0
   -2.3497   -1.6871    1.3464 H   0  0  0  0  0  0  0  0  0  0  0  0
   -0.8759   -2.6390    0.9228 H   0  0  0  0  0  0  0  0  0  0  0  0
  1  2  1  0
  2  3  1  0
  3  4  1  0
  4  5  1  0
  5  6  1  0
  5  7  1  0
  7  8  1  0
  8  9  1  0
  8  4  1  0
  1 10  1  0
  1 11  1  0
  1 12  1  0
  3 13  1  0
  3 14  1  0
  4 15  1  0
  5 16  1  0
  6 17  1  0
  6 18  1  0
  6 19  1  0
  7 20  1  0
  7 21  1  0
  8 22  1  0
  9 23  1  0
  9 24  1  0
  9 25  1  0
M  END
