
     RDKit          3D

 25 24  0  0  0  0  0  0  0  0999 V2000
    3.2309    0.4811   -0.6150 C   0  0  0  0  0  0  0  0  0  0  0  0
    2.2603   -0.3461   -0.0424 O   0  0  0  0  0  0  0  0  0  0  0  0
    1.0264    0.2219   -0.3199 C   0  0  0  0  0  0  0  0  0  0  0  0
   -0.1082   -0.6067    0.2636 C   0  0  0  0  0  0  0  0  0  0  0  0
    0.1071   -0.6591    1.7559 C   0  0  0  0  0  0  0  0  0  0  0  0
   -0.0440   -2.0183   -0.2776 C   0  0  0  0  0  0  0  0  0  0  0  0
   -1.4530   -0.0202   -0.0947 C   0  0  0  0  0  0  0  0  0  0  0  0
   -1.6001    1.2776    0.3857 O   0  0  0  0  0  0  0  0  0  0  0  0
   -2.8495    1.7466    0.0209 C   0  0  0  0  0  0  0  0  0  0  0  0
    3.1196    0.5808   -1.6989 H   0  0  0  0  0  0  0  0  0  0  0  0
    4.2574    0.1648   -0.3296 H   0  0  0  0  0  0  0  0  0  0  0  0
    3.1104    1.5188   -0.1940 H   0  0  0  0  0  0  0  0  0  0  0  0
    1.0288    1.2379    0.1048 H   0  0  0  0  0  0  0  0  0  0  0  0
    0.9344    0.3168   -1.4264 H   0  0  0  0  0  0  0  0  0  0  0  0
    1.0706   -1.1820    1.9240 H   0  0  0  0  0  0  0  0  0  0  0  0
   -0.7252   -1.1461    2.2996 H   0  0  0  0  0  0  0  0  0  0  0  0
    0.2740    0.3929    2.1168 H   0  0  0  0  0  0  0  0  0  0  0  0
    0.9431   -2.4703   -0.0779 H   0  0  0  0  0  0  0  0  0  0  0  0
   -0.2517   -1.9843   -1.3729 H   0  0  0  0  0  0  0  0  0  0  0  0
   -0.8664   -2.5811    0.2282 H   0  0  0  0  0  0  0  0  0  0  0  0
   -1.5298    0.0447   -1.1994 H   0  0  0  0  0  0  0  0  0  0  0  0
   -2.2667   -0.6812    0.2548 H   0  0  0  0  0  0  0  0  0  0  0  0
   -3.0132    2.7860    0.3851 H   0  0  0  0  0  0  0  0  0  0  0  0
   -2.9887    1.7858   -1.0777 H   0  0  0  0  0  0  0  0  0  0  0  0
   -3.6665    1.1397    0.4951 H   0  0  0  0  0  0  0  0  0  0  0  0
  1  2  1  0
  2  3  1  0
  3  4  1  0
  4  5  1  0
  4  6  1  0
  4  7  1  0
  7  8  1  0
  8  9  1  0
  1 10  1  0
  1 11  1  0
  1 12  1  0
  3 13  1  0
  3 14  1  0
  5 15  1  0
  5 16  1  0
  5 17  1  0
  6 18  1  0
  6 19  1  0
  6 20  1  0
  7 21  1  0
  7 22  1  0
  9 23  1  0
  9 24  1  0
  9 25  1  0
M  END
