
     RDKit          3D

 19 18  0  0  0  0  0  0  0  0999 V2000
    2.3421   -0.2006    1.1908 C   0  0  0  0  0  0  0  0  0  0  0  0
    1.1566    0.4595    0.8397 O   0  0  0  0  0  0  0  0  0  0  0  0
    0.8801    0.0869   -0.4650 C   0  0  0  0  0  0  0  0  0  0  0  0
   -0.3620    0.6991   -1.0174 C   0  0  0  0  0  0  0  0  0  0  0  0
   -0.5173    0.2409   -2.3285 O   0  0  0  0  0  0  0  0  0  0  0  0
   -1.5972    0.3307   -0.2212 C   0  0  0  0  0  0  0  0  0  0  0  0
   -1.7311   -1.0724   -0.2380 O   0  0  0  0  0  0  0  0  0  0  0  0
   -1.5587    0.8265    1.1506 C   0  0  0  0  0  0  0  0  0  0  0  0
   -1.6381    0.0590    2.0789 O   0  0  0  0  0  0  0  0  0  0  0  0
    3.1121    0.1527    0.4721 H   0  0  0  0  0  0  0  0  0  0  0  0
    2.6227   -0.0020    2.2492 H   0  0  0  0  0  0  0  0  0  0  0  0
    2.1343   -1.2945    1.0300 H   0  0  0  0  0  0  0  0  0  0  0  0
    0.8279   -1.0167   -0.5773 H   0  0  0  0  0  0  0  0  0  0  0  0
    1.7306    0.4173   -1.0952 H   0  0  0  0  0  0  0  0  0  0  0  0
   -0.2917    1.7985   -1.0581 H   0  0  0  0  0  0  0  0  0  0  0  0
   -0.4593   -0.7633   -2.3510 H   0  0  0  0  0  0  0  0  0  0  0  0
   -2.5024    0.7185   -0.7270 H   0  0  0  0  0  0  0  0  0  0  0  0
   -2.6894   -1.3241   -0.2816 H   0  0  0  0  0  0  0  0  0  0  0  0
   -1.4593    1.8801    1.3489 H   0  0  0  0  0  0  0  0  0  0  0  0
  1  2  1  0
  2  3  1  0
  3  4  1  0
  4  5  1  0
  4  6  1  0
  6  7  1  0
  6  8  1  0
  8  9  2  0
  1 10  1  0
  1 11  1  0
  1 12  1  0
  3 13  1  0
  3 14  1  0
  4 15  1  0
  5 16  1  0
  6 17  1  0
  7 18  1  0
  8 19  1  0
M  END
