
     RDKit          3D

 19 19  0  0  0  0  0  0  0  0999 V2000
    2.8213   -1.1804    0.6926 C   0  0  0  0  0  0  0  0  0  0  0  0
    2.1847   -2.2816    0.1085 O   0  0  0  0  0  0  0  0  0  0  0  0
    0.8511   -2.2742    0.5162 C   0  0  0  0  0  0  0  0  0  0  0  0
    0.2201   -1.0240    0.1245 C   0  0  0  0  0  0  0  0  0  0  0  0
   -0.3470    0.1410   -0.2229 C   0  0  0  0  0  0  0  0  0  0  0  0
   -0.9150    1.2915   -0.5644 C   0  0  0  0  0  0  0  0  0  0  0  0
   -2.3160    1.5025   -0.1353 C   0  0  0  0  0  0  0  0  0  0  0  0
   -2.6243    0.8423   -1.4408 O   0  0  0  0  0  0  0  0  0  0  0  0
   -1.5715    1.5890   -1.8906 C   0  0  0  0  0  0  0  0  0  0  0  0
    3.9074   -1.1087    0.3450 H   0  0  0  0  0  0  0  0  0  0  0  0
    2.3282   -0.2060    0.5980 H   0  0  0  0  0  0  0  0  0  0  0  0
    2.9408   -1.3715    1.8232 H   0  0  0  0  0  0  0  0  0  0  0  0
    0.6366   -2.5229    1.5123 H   0  0  0  0  0  0  0  0  0  0  0  0
    0.3897   -3.1062   -0.2341 H   0  0  0  0  0  0  0  0  0  0  0  0
   -0.1889    2.2492   -0.4071 H   0  0  0  0  0  0  0  0  0  0  0  0
   -2.7134    2.5110   -0.1104 H   0  0  0  0  0  0  0  0  0  0  0  0
   -2.7179    0.8218    0.5996 H   0  0  0  0  0  0  0  0  0  0  0  0
   -1.8783    2.7258   -1.8909 H   0  0  0  0  0  0  0  0  0  0  0  0
   -1.0076    1.4012   -2.7762 H   0  0  0  0  0  0  0  0  0  0  0  0
  1  2  1  0
  2  3  1  0
  3  4  1  0
  4  5  3  0
  5  6  1  0
  6  7  1  0
  7  8  1  0
  8  9  1  0
  9  6  1  0
  1 10  1  0
  1 11  1  0
  1 12  1  0
  3 13  1  0
  3 14  1  0
  6 15  1  0
  7 16  1  0
  7 17  1  0
  9 18  1  0
  9 19  1  0
M  END
