
     RDKit          3D

 20 20  0  0  0  0  0  0  0  0999 V2000
    2.9364   -0.2109   -0.2702 C   0  0  0  0  0  0  0  0  0  0  0  0
    1.6437   -0.7612   -0.1283 O   0  0  0  0  0  0  0  0  0  0  0  0
    0.7607    0.2918   -0.1485 C   0  0  0  0  0  0  0  0  0  0  0  0
   -0.6730   -0.1122   -0.0081 C   0  0  0  0  0  0  0  0  0  0  0  0
   -1.6374    1.0719   -0.0330 C   0  0  0  0  0  0  0  0  0  0  0  0
   -1.3563    1.9460    1.0086 O   0  0  0  0  0  0  0  0  0  0  0  0
   -1.0582   -1.2469    0.8829 C   0  0  0  0  0  0  0  0  0  0  0  0
   -1.2046   -1.3547   -0.6088 C   0  0  0  0  0  0  0  0  0  0  0  0
    3.1083    0.4801    0.5790 H   0  0  0  0  0  0  0  0  0  0  0  0
    3.7049   -0.9950   -0.3624 H   0  0  0  0  0  0  0  0  0  0  0  0
    2.9920    0.4204   -1.1972 H   0  0  0  0  0  0  0  0  0  0  0  0
    0.9114    0.9014   -1.0636 H   0  0  0  0  0  0  0  0  0  0  0  0
    1.0310    0.9594    0.7194 H   0  0  0  0  0  0  0  0  0  0  0  0
   -1.4458    1.6211   -0.9805 H   0  0  0  0  0  0  0  0  0  0  0  0
   -2.6791    0.7555   -0.0103 H   0  0  0  0  0  0  0  0  0  0  0  0
   -2.0184    2.6907    0.9286 H   0  0  0  0  0  0  0  0  0  0  0  0
   -0.2676   -1.8998    1.3038 H   0  0  0  0  0  0  0  0  0  0  0  0
   -1.9526   -1.1242    1.5226 H   0  0  0  0  0  0  0  0  0  0  0  0
   -2.2583   -1.4038   -0.9567 H   0  0  0  0  0  0  0  0  0  0  0  0
   -0.5369   -2.0295   -1.1774 H   0  0  0  0  0  0  0  0  0  0  0  0
  1  2  1  0
  2  3  1  0
  3  4  1  0
  4  5  1  0
  5  6  1  0
  4  7  1  0
  7  8  1  0
  8  4  1  0
  1  9  1  0
  1 10  1  0
  1 11  1  0
  3 12  1  0
  3 13  1  0
  5 14  1  0
  5 15  1  0
  6 16  1  0
  7 17  1  0
  7 18  1  0
  8 19  1  0
  8 20  1  0
M  END
