
     RDKit          3D

 23 23  0  0  0  0  0  0  0  0999 V2000
    3.4461    0.7383   -0.0436 C   0  0  0  0  0  0  0  0  0  0  0  0
    2.3345    0.1956    0.5942 O   0  0  0  0  0  0  0  0  0  0  0  0
    1.2144    0.3179   -0.2305 C   0  0  0  0  0  0  0  0  0  0  0  0
   -0.0224   -0.2606    0.4233 C   0  0  0  0  0  0  0  0  0  0  0  0
    0.1625   -1.7380    0.7312 C   0  0  0  0  0  0  0  0  0  0  0  0
   -1.1827   -0.0743   -0.5259 C   0  0  0  0  0  0  0  0  0  0  0  0
   -2.5527   -0.5621   -0.1295 C   0  0  0  0  0  0  0  0  0  0  0  0
   -2.2403    0.9182   -0.2296 C   0  0  0  0  0  0  0  0  0  0  0  0
   -2.2891    1.5681    1.0061 O   0  0  0  0  0  0  0  0  0  0  0  0
    4.3440    0.6621    0.5698 H   0  0  0  0  0  0  0  0  0  0  0  0
    3.1808    1.8170   -0.2482 H   0  0  0  0  0  0  0  0  0  0  0  0
    3.5866    0.2976   -1.0665 H   0  0  0  0  0  0  0  0  0  0  0  0
    0.9989    1.3917   -0.4194 H   0  0  0  0  0  0  0  0  0  0  0  0
    1.3840   -0.1550   -1.2243 H   0  0  0  0  0  0  0  0  0  0  0  0
   -0.1772    0.2594    1.3892 H   0  0  0  0  0  0  0  0  0  0  0  0
   -0.3687   -2.3866    0.0095 H   0  0  0  0  0  0  0  0  0  0  0  0
    1.2449   -2.0088    0.7403 H   0  0  0  0  0  0  0  0  0  0  0  0
   -0.2565   -1.9786    1.7475 H   0  0  0  0  0  0  0  0  0  0  0  0
   -0.9544   -0.2097   -1.6057 H   0  0  0  0  0  0  0  0  0  0  0  0
   -2.6881   -1.0256    0.8632 H   0  0  0  0  0  0  0  0  0  0  0  0
   -3.2231   -0.9778   -0.9214 H   0  0  0  0  0  0  0  0  0  0  0  0
   -2.6696    1.5068   -1.0590 H   0  0  0  0  0  0  0  0  0  0  0  0
   -3.2718    1.7043    1.1873 H   0  0  0  0  0  0  0  0  0  0  0  0
  1  2  1  0
  2  3  1  0
  3  4  1  0
  4  5  1  0
  4  6  1  0
  6  7  1  0
  7  8  1  0
  8  9  1  0
  8  6  1  0
  1 10  1  0
  1 11  1  0
  1 12  1  0
  3 13  1  0
  3 14  1  0
  4 15  1  0
  5 16  1  0
  5 17  1  0
  5 18  1  0
  6 19  1  0
  7 20  1  0
  7 21  1  0
  8 22  1  0
  9 23  1  0
M  END
