
     RDKit          3D

 23 23  0  0  0  0  0  0  0  0999 V2000
    3.0133   -0.2937    0.4497 C   0  0  0  0  0  0  0  0  0  0  0  0
    2.1100    0.3261    1.2740 O   0  0  0  0  0  0  0  0  0  0  0  0
    1.1223    1.0013    0.6015 C   0  0  0  0  0  0  0  0  0  0  0  0
    0.2740    0.1591   -0.2958 C   0  0  0  0  0  0  0  0  0  0  0  0
   -0.8110    0.9773   -1.0169 C   0  0  0  0  0  0  0  0  0  0  0  0
   -0.9329    0.6787   -2.3594 O   0  0  0  0  0  0  0  0  0  0  0  0
   -1.1597   -0.0812    0.0087 C   0  0  0  0  0  0  0  0  0  0  0  0
   -1.6847    0.3523    1.3529 C   0  0  0  0  0  0  0  0  0  0  0  0
   -1.8529   -1.2661   -0.5824 C   0  0  0  0  0  0  0  0  0  0  0  0
    3.5532    0.4111   -0.2306 H   0  0  0  0  0  0  0  0  0  0  0  0
    3.8183   -0.7146    1.1071 H   0  0  0  0  0  0  0  0  0  0  0  0
    2.6106   -1.1424   -0.1369 H   0  0  0  0  0  0  0  0  0  0  0  0
    0.4655    1.5977    1.2653 H   0  0  0  0  0  0  0  0  0  0  0  0
    1.6482    1.7458   -0.0675 H   0  0  0  0  0  0  0  0  0  0  0  0
    0.7806   -0.6234   -0.8602 H   0  0  0  0  0  0  0  0  0  0  0  0
   -1.0144    1.9952   -0.6896 H   0  0  0  0  0  0  0  0  0  0  0  0
   -0.1468    0.1765   -2.6848 H   0  0  0  0  0  0  0  0  0  0  0  0
   -1.1288   -0.1122    2.2004 H   0  0  0  0  0  0  0  0  0  0  0  0
   -1.7009    1.4721    1.4397 H   0  0  0  0  0  0  0  0  0  0  0  0
   -2.7497    0.0425    1.4366 H   0  0  0  0  0  0  0  0  0  0  0  0
   -2.2558   -1.9716    0.2001 H   0  0  0  0  0  0  0  0  0  0  0  0
   -1.2087   -1.8458   -1.2882 H   0  0  0  0  0  0  0  0  0  0  0  0
   -2.7496   -0.8997   -1.1239 H   0  0  0  0  0  0  0  0  0  0  0  0
  1  2  1  0
  2  3  1  0
  3  4  1  0
  4  5  1  0
  5  6  1  0
  5  7  1  0
  7  8  1  0
  7  9  1  0
  7  4  1  0
  1 10  1  0
  1 11  1  0
  1 12  1  0
  3 13  1  0
  3 14  1  0
  4 15  1  0
  5 16  1  0
  6 17  1  0
  8 18  1  0
  8 19  1  0
  8 20  1  0
  9 21  1  0
  9 22  1  0
  9 23  1  0
M  END
