
     RDKit          3D

 21 21  0  0  0  0  0  0  0  0999 V2000
    2.8931   -0.2681    0.4317 C   0  0  0  0  0  0  0  0  0  0  0  0
    2.0345   -1.2880    0.0951 O   0  0  0  0  0  0  0  0  0  0  0  0
    0.9430   -0.8294   -0.6264 C   0  0  0  0  0  0  0  0  0  0  0  0
    0.1056    0.1822    0.1148 C   0  0  0  0  0  0  0  0  0  0  0  0
   -0.4455   -0.3643    1.3816 C   0  0  0  0  0  0  0  0  0  0  0  0
   -1.6402    0.1631    1.6006 C   0  0  0  0  0  0  0  0  0  0  0  0
   -1.9895    1.1144    0.4878 C   0  0  0  0  0  0  0  0  0  0  0  0
   -1.1990    0.4551   -0.6521 C   0  0  0  0  0  0  0  0  0  0  0  0
   -1.7601   -0.7635   -1.0003 O   0  0  0  0  0  0  0  0  0  0  0  0
    3.2909    0.2573   -0.4645 H   0  0  0  0  0  0  0  0  0  0  0  0
    2.3640    0.4908    1.0351 H   0  0  0  0  0  0  0  0  0  0  0  0
    3.7242   -0.7483    1.0152 H   0  0  0  0  0  0  0  0  0  0  0  0
    0.3031   -1.6755   -0.9392 H   0  0  0  0  0  0  0  0  0  0  0  0
    1.3335   -0.3723   -1.5496 H   0  0  0  0  0  0  0  0  0  0  0  0
    0.5954    1.1344    0.3050 H   0  0  0  0  0  0  0  0  0  0  0  0
    0.0676   -1.0795    2.0088 H   0  0  0  0  0  0  0  0  0  0  0  0
   -2.2808   -0.0512    2.4520 H   0  0  0  0  0  0  0  0  0  0  0  0
   -3.0555    1.1504    0.2852 H   0  0  0  0  0  0  0  0  0  0  0  0
   -1.5071    2.0737    0.7089 H   0  0  0  0  0  0  0  0  0  0  0  0
   -1.0448    1.1367   -1.4920 H   0  0  0  0  0  0  0  0  0  0  0  0
   -2.7322   -0.7180   -0.8453 H   0  0  0  0  0  0  0  0  0  0  0  0
  1  2  1  0
  2  3  1  0
  3  4  1  0
  4  5  1  0
  5  6  2  0
  6  7  1  0
  7  8  1  0
  8  9  1  0
  8  4  1  0
  1 10  1  0
  1 11  1  0
  1 12  1  0
  3 13  1  0
  3 14  1  0
  4 15  1  0
  5 16  1  0
  6 17  1  0
  7 18  1  0
  7 19  1  0
  8 20  1  0
  9 21  1  0
M  END
