
     RDKit          3D

 18 17  0  0  0  0  0  0  0  0999 V2000
    2.5681   -0.1082    0.2372 C   0  0  0  0  0  0  0  0  0  0  0  0
    1.9173    0.1938   -0.9306 O   0  0  0  0  0  0  0  0  0  0  0  0
    0.5655   -0.1357   -0.9523 C   0  0  0  0  0  0  0  0  0  0  0  0
   -0.1670    0.5916    0.1235 C   0  0  0  0  0  0  0  0  0  0  0  0
   -1.6260    0.2462    0.0877 C   0  0  0  0  0  0  0  0  0  0  0  0
   -2.2738    0.9527    1.1070 O   0  0  0  0  0  0  0  0  0  0  0  0
   -1.7920   -1.1988    0.2986 C   0  0  0  0  0  0  0  0  0  0  0  0
   -2.3900   -1.6286    1.2699 O   0  0  0  0  0  0  0  0  0  0  0  0
    3.6410    0.2156    0.0796 H   0  0  0  0  0  0  0  0  0  0  0  0
    2.5965   -1.1661    0.5051 H   0  0  0  0  0  0  0  0  0  0  0  0
    2.2496    0.4756    1.1244 H   0  0  0  0  0  0  0  0  0  0  0  0
    0.1813    0.1805   -1.9432 H   0  0  0  0  0  0  0  0  0  0  0  0
    0.4188   -1.2305   -0.8311 H   0  0  0  0  0  0  0  0  0  0  0  0
   -0.0921    1.6975   -0.0049 H   0  0  0  0  0  0  0  0  0  0  0  0
    0.2305    0.3854    1.1430 H   0  0  0  0  0  0  0  0  0  0  0  0
   -2.0629    0.6084   -0.8746 H   0  0  0  0  0  0  0  0  0  0  0  0
   -2.5651    1.8393    0.7493 H   0  0  0  0  0  0  0  0  0  0  0  0
   -1.3997   -1.9187   -0.3841 H   0  0  0  0  0  0  0  0  0  0  0  0
  1  2  1  0
  2  3  1  0
  3  4  1  0
  4  5  1  0
  5  6  1  0
  5  7  1  0
  7  8  2  0
  1  9  1  0
  1 10  1  0
  1 11  1  0
  3 12  1  0
  3 13  1  0
  4 14  1  0
  4 15  1  0
  5 16  1  0
  6 17  1  0
  7 18  1  0
M  END
