
     RDKit          3D

 23 22  0  0  0  0  0  0  0  0999 V2000
    2.3776   -1.2559    0.4890 C   0  0  0  0  0  0  0  0  0  0  0  0
    2.1373    0.0119    1.0033 O   0  0  0  0  0  0  0  0  0  0  0  0
    1.5612    0.8853    0.0879 C   0  0  0  0  0  0  0  0  0  0  0  0
    0.1961    0.3508   -0.3817 C   0  0  0  0  0  0  0  0  0  0  0  0
   -0.3061    1.4033   -1.3655 C   0  0  0  0  0  0  0  0  0  0  0  0
   -0.7451    0.3085    0.7784 C   0  0  0  0  0  0  0  0  0  0  0  0
   -2.1129   -0.1938    0.5236 C   0  0  0  0  0  0  0  0  0  0  0  0
   -2.2043   -1.5520   -0.0047 C   0  0  0  0  0  0  0  0  0  0  0  0
   -2.4122   -1.7647   -1.1742 O   0  0  0  0  0  0  0  0  0  0  0  0
    3.0812   -1.2047   -0.3933 H   0  0  0  0  0  0  0  0  0  0  0  0
    1.4780   -1.8340    0.2482 H   0  0  0  0  0  0  0  0  0  0  0  0
    2.9022   -1.8163    1.2903 H   0  0  0  0  0  0  0  0  0  0  0  0
    1.3716    1.8403    0.6047 H   0  0  0  0  0  0  0  0  0  0  0  0
    2.2047    1.1148   -0.7669 H   0  0  0  0  0  0  0  0  0  0  0  0
    0.3695   -0.5895   -0.8949 H   0  0  0  0  0  0  0  0  0  0  0  0
    0.2585    2.3625   -1.2868 H   0  0  0  0  0  0  0  0  0  0  0  0
   -0.2166    1.0799   -2.4230 H   0  0  0  0  0  0  0  0  0  0  0  0
   -1.3679    1.7006   -1.1319 H   0  0  0  0  0  0  0  0  0  0  0  0
   -0.8817    1.3667    1.1777 H   0  0  0  0  0  0  0  0  0  0  0  0
   -0.2523   -0.2476    1.6106 H   0  0  0  0  0  0  0  0  0  0  0  0
   -2.6645   -0.0792    1.5168 H   0  0  0  0  0  0  0  0  0  0  0  0
   -2.6851    0.5109   -0.1549 H   0  0  0  0  0  0  0  0  0  0  0  0
   -2.0891   -2.3979    0.6474 H   0  0  0  0  0  0  0  0  0  0  0  0
  1  2  1  0
  2  3  1  0
  3  4  1  0
  4  5  1  0
  4  6  1  0
  6  7  1  0
  7  8  1  0
  8  9  2  0
  1 10  1  0
  1 11  1  0
  1 12  1  0
  3 13  1  0
  3 14  1  0
  4 15  1  0
  5 16  1  0
  5 17  1  0
  5 18  1  0
  6 19  1  0
  6 20  1  0
  7 21  1  0
  7 22  1  0
  8 23  1  0
M  END
