
     RDKit          3D

 23 23  0  0  0  0  0  0  0  0999 V2000
    2.9210    0.1618    0.4089 C   0  0  0  0  0  0  0  0  0  0  0  0
    2.3728    0.1365   -0.8357 O   0  0  0  0  0  0  0  0  0  0  0  0
    1.3552   -0.7615   -1.0444 C   0  0  0  0  0  0  0  0  0  0  0  0
    0.1971   -0.4499   -0.1323 C   0  0  0  0  0  0  0  0  0  0  0  0
   -0.9289   -1.4001   -0.3346 C   0  0  0  0  0  0  0  0  0  0  0  0
   -2.1099   -1.0661    0.1441 C   0  0  0  0  0  0  0  0  0  0  0  0
   -2.2737    0.2085    0.8482 C   0  0  0  0  0  0  0  0  0  0  0  0
   -1.5039    1.3532    0.2611 C   0  0  0  0  0  0  0  0  0  0  0  0
   -0.2195    0.9757   -0.3892 C   0  0  0  0  0  0  0  0  0  0  0  0
    3.7429    0.9206    0.4209 H   0  0  0  0  0  0  0  0  0  0  0  0
    3.3381   -0.8381    0.6362 H   0  0  0  0  0  0  0  0  0  0  0  0
    2.2017    0.4230    1.1936 H   0  0  0  0  0  0  0  0  0  0  0  0
    1.0095   -0.5699   -2.1073 H   0  0  0  0  0  0  0  0  0  0  0  0
    1.6831   -1.8218   -0.9561 H   0  0  0  0  0  0  0  0  0  0  0  0
    0.5363   -0.5827    0.9137 H   0  0  0  0  0  0  0  0  0  0  0  0
   -0.7962   -2.3174   -0.8452 H   0  0  0  0  0  0  0  0  0  0  0  0
   -2.9835   -1.7189    0.0319 H   0  0  0  0  0  0  0  0  0  0  0  0
   -3.3464    0.4912    0.8342 H   0  0  0  0  0  0  0  0  0  0  0  0
   -2.0206    0.1173    1.9442 H   0  0  0  0  0  0  0  0  0  0  0  0
   -2.1762    1.9304   -0.4390 H   0  0  0  0  0  0  0  0  0  0  0  0
   -1.2721    2.0617    1.0891 H   0  0  0  0  0  0  0  0  0  0  0  0
    0.6380    1.6312   -0.1409 H   0  0  0  0  0  0  0  0  0  0  0  0
   -0.3647    1.1152   -1.5015 H   0  0  0  0  0  0  0  0  0  0  0  0
  1  2  1  0
  2  3  1  0
  3  4  1  0
  4  5  1  0
  5  6  2  0
  6  7  1  0
  7  8  1  0
  8  9  1  0
  9  4  1  0
  1 10  1  0
  1 11  1  0
  1 12  1  0
  3 13  1  0
  3 14  1  0
  4 15  1  0
  5 16  1  0
  6 17  1  0
  7 18  1  0
  7 19  1  0
  8 20  1  0
  8 21  1  0
  9 22  1  0
  9 23  1  0
M  END
