
     RDKit          3D

 21 21  0  0  0  0  0  0  0  0999 V2000
    2.6582    0.9072   -0.4616 C   0  0  0  0  0  0  0  0  0  0  0  0
    1.4081    0.3737   -0.6970 O   0  0  0  0  0  0  0  0  0  0  0  0
    1.1585   -0.7998   -0.0531 C   0  0  0  0  0  0  0  0  0  0  0  0
   -0.1818   -1.3378   -0.3275 C   0  0  0  0  0  0  0  0  0  0  0  0
   -1.3900   -0.6015    0.0513 C   0  0  0  0  0  0  0  0  0  0  0  0
   -2.5842   -1.3154   -0.3131 O   0  0  0  0  0  0  0  0  0  0  0  0
   -1.5396    0.1248    1.3339 C   0  0  0  0  0  0  0  0  0  0  0  0
   -1.5366    0.8497    0.0021 C   0  0  0  0  0  0  0  0  0  0  0  0
   -0.5381    1.7886   -0.0860 O   0  0  0  0  0  0  0  0  0  0  0  0
    3.4315    0.1653   -0.8040 H   0  0  0  0  0  0  0  0  0  0  0  0
    2.8200    1.1471    0.6248 H   0  0  0  0  0  0  0  0  0  0  0  0
    2.7826    1.8259   -1.0466 H   0  0  0  0  0  0  0  0  0  0  0  0
    1.9063   -1.5442   -0.4734 H   0  0  0  0  0  0  0  0  0  0  0  0
    1.4289   -0.7788    1.0306 H   0  0  0  0  0  0  0  0  0  0  0  0
   -0.2428   -1.5333   -1.4488 H   0  0  0  0  0  0  0  0  0  0  0  0
   -0.2180   -2.3706    0.1431 H   0  0  0  0  0  0  0  0  0  0  0  0
   -2.7446   -1.1606   -1.2905 H   0  0  0  0  0  0  0  0  0  0  0  0
   -2.5186    0.1118    1.8498 H   0  0  0  0  0  0  0  0  0  0  0  0
   -0.6897    0.2340    2.0189 H   0  0  0  0  0  0  0  0  0  0  0  0
   -2.5204    1.2746   -0.3465 H   0  0  0  0  0  0  0  0  0  0  0  0
   -0.8896    2.6392    0.2935 H   0  0  0  0  0  0  0  0  0  0  0  0
  1  2  1  0
  2  3  1  0
  3  4  1  0
  4  5  1  0
  5  6  1  0
  5  7  1  0
  7  8  1  0
  8  9  1  0
  8  5  1  0
  1 10  1  0
  1 11  1  0
  1 12  1  0
  3 13  1  0
  3 14  1  0
  4 15  1  0
  4 16  1  0
  6 17  1  0
  7 18  1  0
  7 19  1  0
  8 20  1  0
  9 21  1  0
M  END
