
     RDKit          3D

 23 23  0  0  0  0  0  0  0  0999 V2000
    2.9466    0.1511    0.7654 C   0  0  0  0  0  0  0  0  0  0  0  0
    1.5631    0.3289    0.6666 O   0  0  0  0  0  0  0  0  0  0  0  0
    1.2269    0.2251   -0.6605 C   0  0  0  0  0  0  0  0  0  0  0  0
   -0.2394    0.3941   -0.9392 C   0  0  0  0  0  0  0  0  0  0  0  0
   -0.7552    1.7465   -0.4966 C   0  0  0  0  0  0  0  0  0  0  0  0
   -1.0831   -0.7375   -0.4260 C   0  0  0  0  0  0  0  0  0  0  0  0
   -2.5629   -0.5689   -0.7064 C   0  0  0  0  0  0  0  0  0  0  0  0
   -0.7109   -1.5706    0.6941 C   0  0  0  0  0  0  0  0  0  0  0  0
   -0.5145   -1.9985   -0.6407 O   0  0  0  0  0  0  0  0  0  0  0  0
    3.2673   -0.8442    0.3822 H   0  0  0  0  0  0  0  0  0  0  0  0
    3.2928    0.2125    1.8083 H   0  0  0  0  0  0  0  0  0  0  0  0
    3.4298    0.9379    0.1225 H   0  0  0  0  0  0  0  0  0  0  0  0
    1.7728    0.9753   -1.2793 H   0  0  0  0  0  0  0  0  0  0  0  0
    1.5636   -0.7687   -1.0195 H   0  0  0  0  0  0  0  0  0  0  0  0
   -0.3537    0.3829   -2.0565 H   0  0  0  0  0  0  0  0  0  0  0  0
   -1.8340    1.7805   -0.8027 H   0  0  0  0  0  0  0  0  0  0  0  0
   -0.6678    1.9043    0.5900 H   0  0  0  0  0  0  0  0  0  0  0  0
   -0.2090    2.5172   -1.0952 H   0  0  0  0  0  0  0  0  0  0  0  0
   -3.0153   -0.0377    0.1482 H   0  0  0  0  0  0  0  0  0  0  0  0
   -3.0586   -1.5284   -0.9342 H   0  0  0  0  0  0  0  0  0  0  0  0
   -2.7298    0.0859   -1.6008 H   0  0  0  0  0  0  0  0  0  0  0  0
    0.1809   -1.4349    1.3327 H   0  0  0  0  0  0  0  0  0  0  0  0
   -1.5096   -2.1528    1.1961 H   0  0  0  0  0  0  0  0  0  0  0  0
  1  2  1  0
  2  3  1  0
  3  4  1  0
  4  5  1  0
  4  6  1  0
  6  7  1  0
  6  8  1  0
  8  9  1  0
  9  6  1  0
  1 10  1  0
  1 11  1  0
  1 12  1  0
  3 13  1  0
  3 14  1  0
  4 15  1  0
  5 16  1  0
  5 17  1  0
  5 18  1  0
  7 19  1  0
  7 20  1  0
  7 21  1  0
  8 22  1  0
  8 23  1  0
M  END
