
     RDKit          3D

 19 19  0  0  0  0  0  0  0  0999 V2000
    2.5294    0.6517    0.2720 C   0  0  0  0  0  0  0  0  0  0  0  0
    1.6792    0.0683    1.1914 O   0  0  0  0  0  0  0  0  0  0  0  0
    0.7491   -0.7824    0.6491 C   0  0  0  0  0  0  0  0  0  0  0  0
   -0.1367   -0.0681   -0.2896 C   0  0  0  0  0  0  0  0  0  0  0  0
   -1.2232   -0.9593   -0.9386 C   0  0  0  0  0  0  0  0  0  0  0  0
   -2.0748    0.3095   -0.8882 C   0  0  0  0  0  0  0  0  0  0  0  0
   -1.3192    0.6325    0.3892 C   0  0  0  0  0  0  0  0  0  0  0  0
    3.2843    1.3132    0.7752 H   0  0  0  0  0  0  0  0  0  0  0  0
    3.0360   -0.1407   -0.2875 H   0  0  0  0  0  0  0  0  0  0  0  0
    2.0033    1.3570   -0.4128 H   0  0  0  0  0  0  0  0  0  0  0  0
    1.2787   -1.5987    0.1104 H   0  0  0  0  0  0  0  0  0  0  0  0
    0.0998   -1.2057    1.4669 H   0  0  0  0  0  0  0  0  0  0  0  0
    0.3389    0.5627   -1.0456 H   0  0  0  0  0  0  0  0  0  0  0  0
   -0.9641   -1.2981   -1.9488 H   0  0  0  0  0  0  0  0  0  0  0  0
   -1.5557   -1.7063   -0.2152 H   0  0  0  0  0  0  0  0  0  0  0  0
   -1.7755    1.0347   -1.6752 H   0  0  0  0  0  0  0  0  0  0  0  0
   -3.1505    0.1326   -0.7657 H   0  0  0  0  0  0  0  0  0  0  0  0
   -1.6305    0.0027    1.2647 H   0  0  0  0  0  0  0  0  0  0  0  0
   -1.1684    1.6945    0.5887 H   0  0  0  0  0  0  0  0  0  0  0  0
  1  2  1  0
  2  3  1  0
  3  4  1  0
  4  5  1  0
  5  6  1  0
  6  7  1  0
  7  4  1  0
  1  8  1  0
  1  9  1  0
  1 10  1  0
  3 11  1  0
  3 12  1  0
  4 13  1  0
  5 14  1  0
  5 15  1  0
  6 16  1  0
  6 17  1  0
  7 18  1  0
  7 19  1  0
M  END
