
     RDKit          3D

 22 22  0  0  0  0  0  0  0  0999 V2000
    2.7637   -0.9724   -0.2932 C   0  0  0  0  0  0  0  0  0  0  0  0
    1.3829   -0.8956   -0.1053 O   0  0  0  0  0  0  0  0  0  0  0  0
    0.9444    0.4266   -0.1378 C   0  0  0  0  0  0  0  0  0  0  0  0
   -0.5415    0.5155    0.0640 C   0  0  0  0  0  0  0  0  0  0  0  0
   -1.0816    1.9207    0.0398 C   0  0  0  0  0  0  0  0  0  0  0  0
   -0.9167   -0.2125    1.3532 C   0  0  0  0  0  0  0  0  0  0  0  0
   -1.4038   -1.3510    0.5066 C   0  0  0  0  0  0  0  0  0  0  0  0
   -1.3832   -0.4324   -0.7088 C   0  0  0  0  0  0  0  0  0  0  0  0
    3.2087   -0.3790    0.5580 H   0  0  0  0  0  0  0  0  0  0  0  0
    3.1435   -1.9863   -0.1972 H   0  0  0  0  0  0  0  0  0  0  0  0
    3.0726   -0.4461   -1.2090 H   0  0  0  0  0  0  0  0  0  0  0  0
    1.4158    0.9357    0.7530 H   0  0  0  0  0  0  0  0  0  0  0  0
    1.2969    0.9734   -1.0146 H   0  0  0  0  0  0  0  0  0  0  0  0
   -0.2469    2.6650    0.0183 H   0  0  0  0  0  0  0  0  0  0  0  0
   -1.6592    2.1175    0.9567 H   0  0  0  0  0  0  0  0  0  0  0  0
   -1.7376    2.0350   -0.8515 H   0  0  0  0  0  0  0  0  0  0  0  0
   -0.0879   -0.4938    1.9935 H   0  0  0  0  0  0  0  0  0  0  0  0
   -1.6882    0.3408    1.9220 H   0  0  0  0  0  0  0  0  0  0  0  0
   -2.4043   -1.6856    0.7917 H   0  0  0  0  0  0  0  0  0  0  0  0
   -0.6766   -2.1756    0.4321 H   0  0  0  0  0  0  0  0  0  0  0  0
   -0.9754   -0.8667   -1.6240 H   0  0  0  0  0  0  0  0  0  0  0  0
   -2.4256   -0.0332   -0.8723 H   0  0  0  0  0  0  0  0  0  0  0  0
  1  2  1  0
  2  3  1  0
  3  4  1  0
  4  5  1  0
  4  6  1  0
  6  7  1  0
  7  8  1  0
  8  4  1  0
  1  9  1  0
  1 10  1  0
  1 11  1  0
  3 12  1  0
  3 13  1  0
  5 14  1  0
  5 15  1  0
  5 16  1  0
  6 17  1  0
  6 18  1  0
  7 19  1  0
  7 20  1  0
  8 21  1  0
  8 22  1  0
M  END
