
     RDKit          3D

 25 25  0  0  0  0  0  0  0  0999 V2000
    4.0801    0.2786   -0.0106 C   0  0  0  0  0  0  0  0  0  0  0  0
    2.9040   -0.2866    0.4682 O   0  0  0  0  0  0  0  0  0  0  0  0
    1.8074   -0.0089   -0.3214 C   0  0  0  0  0  0  0  0  0  0  0  0
    0.6108   -0.6863    0.3229 C   0  0  0  0  0  0  0  0  0  0  0  0
   -0.6543   -0.4443   -0.4675 C   0  0  0  0  0  0  0  0  0  0  0  0
   -1.7873   -1.1464    0.2357 C   0  0  0  0  0  0  0  0  0  0  0  0
   -2.9476   -0.1871    0.2663 C   0  0  0  0  0  0  0  0  0  0  0  0
   -2.5629    0.8850   -0.7317 C   0  0  0  0  0  0  0  0  0  0  0  0
   -1.0631    1.0187   -0.4324 C   0  0  0  0  0  0  0  0  0  0  0  0
    4.0337    1.3792   -0.0779 H   0  0  0  0  0  0  0  0  0  0  0  0
    4.3066   -0.2041   -0.9858 H   0  0  0  0  0  0  0  0  0  0  0  0
    4.8924   -0.0136    0.6874 H   0  0  0  0  0  0  0  0  0  0  0  0
    1.5737    1.0966   -0.3021 H   0  0  0  0  0  0  0  0  0  0  0  0
    1.9162   -0.3329   -1.3665 H   0  0  0  0  0  0  0  0  0  0  0  0
    0.4874   -0.3654    1.3570 H   0  0  0  0  0  0  0  0  0  0  0  0
    0.8063   -1.7778    0.2826 H   0  0  0  0  0  0  0  0  0  0  0  0
   -0.5437   -0.7213   -1.5228 H   0  0  0  0  0  0  0  0  0  0  0  0
   -2.0418   -2.1240   -0.2017 H   0  0  0  0  0  0  0  0  0  0  0  0
   -1.5204   -1.3559    1.3128 H   0  0  0  0  0  0  0  0  0  0  0  0
   -3.8982   -0.6974   -0.0533 H   0  0  0  0  0  0  0  0  0  0  0  0
   -3.0809    0.2928    1.2637 H   0  0  0  0  0  0  0  0  0  0  0  0
   -3.0551    1.8457   -0.5537 H   0  0  0  0  0  0  0  0  0  0  0  0
   -2.7006    0.4861   -1.7594 H   0  0  0  0  0  0  0  0  0  0  0  0
   -1.0154    1.4376    0.6016 H   0  0  0  0  0  0  0  0  0  0  0  0
   -0.5474    1.6318   -1.1718 H   0  0  0  0  0  0  0  0  0  0  0  0
  1  2  1  0
  2  3  1  0
  3  4  1  0
  4  5  1  0
  5  6  1  0
  6  7  1  0
  7  8  1  0
  8  9  1  0
  9  5  1  0
  1 10  1  0
  1 11  1  0
  1 12  1  0
  3 13  1  0
  3 14  1  0
  4 15  1  0
  4 16  1  0
  5 17  1  0
  6 18  1  0
  6 19  1  0
  7 20  1  0
  7 21  1  0
  8 22  1  0
  8 23  1  0
  9 24  1  0
  9 25  1  0
M  END
