
     RDKit          3D

 17 16  0  0  0  0  0  0  0  0999 V2000
    2.2038   -0.2411    1.4911 C   0  0  0  0  0  0  0  0  0  0  0  0
    0.8709    0.0578    1.1887 O   0  0  0  0  0  0  0  0  0  0  0  0
    0.6033   -0.4730   -0.0724 C   0  0  0  0  0  0  0  0  0  0  0  0
   -0.8394   -0.1721   -0.4456 C   0  0  0  0  0  0  0  0  0  0  0  0
   -1.0953   -0.8033   -1.7666 C   0  0  0  0  0  0  0  0  0  0  0  0
   -0.9878   -2.0117   -1.8846 O   0  0  0  0  0  0  0  0  0  0  0  0
   -0.9989    1.2098   -0.4579 O   0  0  0  0  0  0  0  0  0  0  0  0
   -1.9359    1.8154    0.3602 C   0  0  0  0  0  0  0  0  0  0  0  0
   -2.6161    1.0582    1.0959 O   0  0  0  0  0  0  0  0  0  0  0  0
    2.3322   -1.3468    1.4908 H   0  0  0  0  0  0  0  0  0  0  0  0
    2.5196    0.2226    2.4499 H   0  0  0  0  0  0  0  0  0  0  0  0
    2.8944    0.1425    0.7011 H   0  0  0  0  0  0  0  0  0  0  0  0
    1.2432    0.0551   -0.8120 H   0  0  0  0  0  0  0  0  0  0  0  0
    0.8255   -1.5443   -0.0539 H   0  0  0  0  0  0  0  0  0  0  0  0
   -1.5476   -0.6175    0.2798 H   0  0  0  0  0  0  0  0  0  0  0  0
   -1.3756   -0.2516   -2.6455 H   0  0  0  0  0  0  0  0  0  0  0  0
   -2.0964    2.9002    0.3840 H   0  0  0  0  0  0  0  0  0  0  0  0
  1  2  1  0
  2  3  1  0
  3  4  1  0
  4  5  1  0
  5  6  2  0
  4  7  1  0
  7  8  1  0
  8  9  2  0
  1 10  1  0
  1 11  1  0
  1 12  1  0
  3 13  1  0
  3 14  1  0
  4 15  1  0
  5 16  1  0
  8 17  1  0
M  END
