
     RDKit          3D

 23 24  0  0  0  0  0  0  0  0999 V2000
    2.6437    0.2132    1.2286 C   0  0  0  0  0  0  0  0  0  0  0  0
    1.9352   -0.8906    0.8597 O   0  0  0  0  0  0  0  0  0  0  0  0
    1.2611   -0.7901   -0.3578 C   0  0  0  0  0  0  0  0  0  0  0  0
    0.2639    0.3034   -0.3765 C   0  0  0  0  0  0  0  0  0  0  0  0
   -0.5451    0.5651   -1.5886 C   0  0  0  0  0  0  0  0  0  0  0  0
   -1.4905    1.2653   -0.6018 C   0  0  0  0  0  0  0  0  0  0  0  0
   -1.1262   -0.0467    0.0691 C   0  0  0  0  0  0  0  0  0  0  0  0
   -1.5413   -0.5168    1.2749 C   0  0  0  0  0  0  0  0  0  0  0  0
   -1.3386   -0.6461   -1.2945 C   0  0  0  0  0  0  0  0  0  0  0  0
    3.4424    0.4973    0.4862 H   0  0  0  0  0  0  0  0  0  0  0  0
    2.0450    1.0925    1.4530 H   0  0  0  0  0  0  0  0  0  0  0  0
    3.2524   -0.0807    2.1361 H   0  0  0  0  0  0  0  0  0  0  0  0
    1.9815   -0.7387   -1.2184 H   0  0  0  0  0  0  0  0  0  0  0  0
    0.7623   -1.7739   -0.4707 H   0  0  0  0  0  0  0  0  0  0  0  0
    0.6087    1.2828    0.0475 H   0  0  0  0  0  0  0  0  0  0  0  0
   -0.2643    0.9551   -2.4653 H   0  0  0  0  0  0  0  0  0  0  0  0
   -1.0312    2.1502   -0.1574 H   0  0  0  0  0  0  0  0  0  0  0  0
   -2.5146    1.3294   -0.9648 H   0  0  0  0  0  0  0  0  0  0  0  0
   -2.1631    0.1982    1.8923 H   0  0  0  0  0  0  0  0  0  0  0  0
   -2.1916   -1.4426    1.2314 H   0  0  0  0  0  0  0  0  0  0  0  0
   -0.7199   -0.8204    1.9912 H   0  0  0  0  0  0  0  0  0  0  0  0
   -2.3943   -0.5135   -1.6324 H   0  0  0  0  0  0  0  0  0  0  0  0
   -0.8755   -1.5922   -1.5417 H   0  0  0  0  0  0  0  0  0  0  0  0
  1  2  1  0
  2  3  1  0
  3  4  1  0
  4  5  1  0
  5  6  1  0
  6  7  1  0
  7  8  1  0
  7  9  1  0
  7  4  1  0
  9  5  1  0
  1 10  1  0
  1 11  1  0
  1 12  1  0
  3 13  1  0
  3 14  1  0
  4 15  1  0
  5 16  1  0
  6 17  1  0
  6 18  1  0
  8 19  1  0
  8 20  1  0
  8 21  1  0
  9 22  1  0
  9 23  1  0
M  END
