
     RDKit          3D

 19 19  0  0  0  0  0  0  0  0999 V2000
    2.8629   -0.3741    0.2678 C   0  0  0  0  0  0  0  0  0  0  0  0
    2.2125    0.0881   -0.8498 O   0  0  0  0  0  0  0  0  0  0  0  0
    0.9898    0.6859   -0.5911 C   0  0  0  0  0  0  0  0  0  0  0  0
    0.0201   -0.2709    0.0774 C   0  0  0  0  0  0  0  0  0  0  0  0
   -1.3063    0.3997    0.3476 C   0  0  0  0  0  0  0  0  0  0  0  0
   -2.3409   -0.4544    1.0066 C   0  0  0  0  0  0  0  0  0  0  0  0
   -3.2750    0.2455    0.1910 O   0  0  0  0  0  0  0  0  0  0  0  0
   -2.2802    0.3451   -0.7524 C   0  0  0  0  0  0  0  0  0  0  0  0
   -2.2588    0.3730   -1.9868 O   0  0  0  0  0  0  0  0  0  0  0  0
    3.0799    0.4495    1.0092 H   0  0  0  0  0  0  0  0  0  0  0  0
    3.8747   -0.7714   -0.0429 H   0  0  0  0  0  0  0  0  0  0  0  0
    2.3430   -1.1805    0.8183 H   0  0  0  0  0  0  0  0  0  0  0  0
    0.5831    1.0152   -1.5795 H   0  0  0  0  0  0  0  0  0  0  0  0
    1.1302    1.6030    0.0039 H   0  0  0  0  0  0  0  0  0  0  0  0
    0.4442   -0.5097    1.0838 H   0  0  0  0  0  0  0  0  0  0  0  0
   -0.1058   -1.1972   -0.4970 H   0  0  0  0  0  0  0  0  0  0  0  0
   -1.2337    1.3756    0.8425 H   0  0  0  0  0  0  0  0  0  0  0  0
   -2.5024   -0.3117    2.0800 H   0  0  0  0  0  0  0  0  0  0  0  0
   -2.2374   -1.5105    0.6633 H   0  0  0  0  0  0  0  0  0  0  0  0
  1  2  1  0
  2  3  1  0
  3  4  1  0
  4  5  1  0
  5  6  1  0
  6  7  1  0
  7  8  1  0
  8  9  2  0
  8  5  1  0
  1 10  1  0
  1 11  1  0
  1 12  1  0
  3 13  1  0
  3 14  1  0
  4 15  1  0
  4 16  1  0
  5 17  1  0
  6 18  1  0
  6 19  1  0
M  END
