
     RDKit          3D

 21 21  0  0  0  0  0  0  0  0999 V2000
    3.9319   -0.2019   -0.4455 C   0  0  0  0  0  0  0  0  0  0  0  0
    2.7282   -0.7722    0.0067 O   0  0  0  0  0  0  0  0  0  0  0  0
    1.6784    0.1067   -0.2942 C   0  0  0  0  0  0  0  0  0  0  0  0
    0.4163   -0.5579    0.2135 C   0  0  0  0  0  0  0  0  0  0  0  0
   -0.7613    0.2732   -0.0458 C   0  0  0  0  0  0  0  0  0  0  0  0
   -0.6571    1.3342   -0.5960 O   0  0  0  0  0  0  0  0  0  0  0  0
   -2.0805   -0.2067    0.3766 C   0  0  0  0  0  0  0  0  0  0  0  0
   -3.1537   -0.0253   -0.7280 C   0  0  0  0  0  0  0  0  0  0  0  0
   -3.2303    0.7027    0.5748 C   0  0  0  0  0  0  0  0  0  0  0  0
    4.0507    0.7698    0.0930 H   0  0  0  0  0  0  0  0  0  0  0  0
    4.7340   -0.9016   -0.1201 H   0  0  0  0  0  0  0  0  0  0  0  0
    3.9288   -0.0888   -1.5363 H   0  0  0  0  0  0  0  0  0  0  0  0
    1.5919    0.2280   -1.3992 H   0  0  0  0  0  0  0  0  0  0  0  0
    1.7848    1.0741    0.2162 H   0  0  0  0  0  0  0  0  0  0  0  0
    0.5472   -0.7725    1.3102 H   0  0  0  0  0  0  0  0  0  0  0  0
    0.2604   -1.5554   -0.2558 H   0  0  0  0  0  0  0  0  0  0  0  0
   -2.0753   -1.2005    0.8780 H   0  0  0  0  0  0  0  0  0  0  0  0
   -3.7637   -0.9216   -0.9080 H   0  0  0  0  0  0  0  0  0  0  0  0
   -2.8918    0.5848   -1.6138 H   0  0  0  0  0  0  0  0  0  0  0  0
   -3.0665    1.7921    0.5569 H   0  0  0  0  0  0  0  0  0  0  0  0
   -3.9723    0.3388    1.3412 H   0  0  0  0  0  0  0  0  0  0  0  0
  1  2  1  0
  2  3  1  0
  3  4  1  0
  4  5  1  0
  5  6  2  0
  5  7  1  0
  7  8  1  0
  8  9  1  0
  9  7  1  0
  1 10  1  0
  1 11  1  0
  1 12  1  0
  3 13  1  0
  3 14  1  0
  4 15  1  0
  4 16  1  0
  7 17  1  0
  8 18  1  0
  8 19  1  0
  9 20  1  0
  9 21  1  0
M  END
