
     RDKit          3D

 23 22  0  0  0  0  0  0  0  0999 V2000
    2.8731   -0.7225   -0.8029 C   0  0  0  0  0  0  0  0  0  0  0  0
    1.5143   -0.4205   -0.7957 O   0  0  0  0  0  0  0  0  0  0  0  0
    1.1774   -0.0198    0.4864 C   0  0  0  0  0  0  0  0  0  0  0  0
   -0.2583    0.3378    0.6452 C   0  0  0  0  0  0  0  0  0  0  0  0
   -0.7113    1.4646   -0.2352 C   0  0  0  0  0  0  0  0  0  0  0  0
   -0.0576    2.6424   -0.0435 O   0  0  0  0  0  0  0  0  0  0  0  0
   -1.0900   -0.8948    0.3898 C   0  0  0  0  0  0  0  0  0  0  0  0
   -2.5448   -0.5139    0.5552 C   0  0  0  0  0  0  0  0  0  0  0  0
   -0.8942   -1.3869   -0.8958 O   0  0  0  0  0  0  0  0  0  0  0  0
    3.2009   -1.0537   -1.8196 H   0  0  0  0  0  0  0  0  0  0  0  0
    3.1237   -1.5575   -0.1198 H   0  0  0  0  0  0  0  0  0  0  0  0
    3.5032    0.1449   -0.5155 H   0  0  0  0  0  0  0  0  0  0  0  0
    1.3914   -0.8776    1.1586 H   0  0  0  0  0  0  0  0  0  0  0  0
    1.8684    0.7995    0.8439 H   0  0  0  0  0  0  0  0  0  0  0  0
   -0.4200    0.6453    1.6994 H   0  0  0  0  0  0  0  0  0  0  0  0
   -0.5728    1.1469   -1.3088 H   0  0  0  0  0  0  0  0  0  0  0  0
   -1.8012    1.6196   -0.1101 H   0  0  0  0  0  0  0  0  0  0  0  0
    0.7445    2.7790   -0.5976 H   0  0  0  0  0  0  0  0  0  0  0  0
   -0.7985   -1.6606    1.1613 H   0  0  0  0  0  0  0  0  0  0  0  0
   -3.1004   -1.4285    0.8386 H   0  0  0  0  0  0  0  0  0  0  0  0
   -2.8751   -0.0899   -0.4104 H   0  0  0  0  0  0  0  0  0  0  0  0
   -2.5902    0.2772    1.3311 H   0  0  0  0  0  0  0  0  0  0  0  0
   -1.6822   -1.2310   -1.4547 H   0  0  0  0  0  0  0  0  0  0  0  0
  1  2  1  0
  2  3  1  0
  3  4  1  0
  4  5  1  0
  5  6  1  0
  4  7  1  0
  7  8  1  0
  7  9  1  0
  1 10  1  0
  1 11  1  0
  1 12  1  0
  3 13  1  0
  3 14  1  0
  4 15  1  0
  5 16  1  0
  5 17  1  0
  6 18  1  0
  7 19  1  0
  8 20  1  0
  8 21  1  0
  8 22  1  0
  9 23  1  0
M  END
