
     RDKit          3D

 19 20  0  0  0  0  0  0  0  0999 V2000
    2.6246    0.7995    0.1127 C   0  0  0  0  0  0  0  0  0  0  0  0
    2.5125   -0.5703   -0.0706 O   0  0  0  0  0  0  0  0  0  0  0  0
    1.2944   -0.9408   -0.6171 C   0  0  0  0  0  0  0  0  0  0  0  0
    0.1174   -0.5544    0.2178 C   0  0  0  0  0  0  0  0  0  0  0  0
   -1.2154   -0.9212   -0.3097 C   0  0  0  0  0  0  0  0  0  0  0  0
   -2.3461   -0.9166    0.5071 O   0  0  0  0  0  0  0  0  0  0  0  0
   -2.8315    0.3875    0.2809 C   0  0  0  0  0  0  0  0  0  0  0  0
   -1.6905    1.1344    0.5626 O   0  0  0  0  0  0  0  0  0  0  0  0
   -0.7430    0.5366   -0.2431 C   0  0  0  0  0  0  0  0  0  0  0  0
    3.6243    0.9973    0.5506 H   0  0  0  0  0  0  0  0  0  0  0  0
    2.6098    1.3519   -0.8638 H   0  0  0  0  0  0  0  0  0  0  0  0
    1.8535    1.1983    0.8127 H   0  0  0  0  0  0  0  0  0  0  0  0
    1.3163   -2.0614   -0.6922 H   0  0  0  0  0  0  0  0  0  0  0  0
    1.1616   -0.5678   -1.6614 H   0  0  0  0  0  0  0  0  0  0  0  0
    0.2883   -0.6394    1.3161 H   0  0  0  0  0  0  0  0  0  0  0  0
   -1.2907   -1.3883   -1.3193 H   0  0  0  0  0  0  0  0  0  0  0  0
   -3.6839    0.6262    0.9212 H   0  0  0  0  0  0  0  0  0  0  0  0
   -3.0251    0.4590   -0.7999 H   0  0  0  0  0  0  0  0  0  0  0  0
   -0.5765    1.0696   -1.2037 H   0  0  0  0  0  0  0  0  0  0  0  0
  1  2  1  0
  2  3  1  0
  3  4  1  0
  4  5  1  0
  5  6  1  0
  6  7  1  0
  7  8  1  0
  8  9  1  0
  9  4  1  0
  9  5  1  0
  1 10  1  0
  1 11  1  0
  1 12  1  0
  3 13  1  0
  3 14  1  0
  4 15  1  0
  5 16  1  0
  7 17  1  0
  7 18  1  0
  9 19  1  0
M  END
