
     RDKit          3D

 21 21  0  0  0  0  0  0  0  0999 V2000
    2.9707   -1.0909    0.0385 C   0  0  0  0  0  0  0  0  0  0  0  0
    1.8126   -0.5991   -0.5908 O   0  0  0  0  0  0  0  0  0  0  0  0
    1.0635    0.1545    0.2943 C   0  0  0  0  0  0  0  0  0  0  0  0
   -0.1576    0.6637   -0.3966 C   0  0  0  0  0  0  0  0  0  0  0  0
   -1.0695    1.5076    0.4631 C   0  0  0  0  0  0  0  0  0  0  0  0
   -2.2366    0.8838   -0.3172 C   0  0  0  0  0  0  0  0  0  0  0  0
   -1.3039   -0.3178   -0.5212 C   0  0  0  0  0  0  0  0  0  0  0  0
   -1.4692   -1.2498    0.6122 C   0  0  0  0  0  0  0  0  0  0  0  0
   -2.6046   -1.4857    0.9958 O   0  0  0  0  0  0  0  0  0  0  0  0
    2.7167   -1.7360    0.9091 H   0  0  0  0  0  0  0  0  0  0  0  0
    3.5967   -0.2655    0.4085 H   0  0  0  0  0  0  0  0  0  0  0  0
    3.5724   -1.6520   -0.6945 H   0  0  0  0  0  0  0  0  0  0  0  0
    1.6916    1.0553    0.5518 H   0  0  0  0  0  0  0  0  0  0  0  0
    0.8490   -0.3413    1.2442 H   0  0  0  0  0  0  0  0  0  0  0  0
    0.0721    1.0877   -1.3912 H   0  0  0  0  0  0  0  0  0  0  0  0
   -1.0111    1.1511    1.5226 H   0  0  0  0  0  0  0  0  0  0  0  0
   -0.9881    2.5962    0.3260 H   0  0  0  0  0  0  0  0  0  0  0  0
   -3.1187    0.6740    0.2889 H   0  0  0  0  0  0  0  0  0  0  0  0
   -2.3782    1.4565   -1.2456 H   0  0  0  0  0  0  0  0  0  0  0  0
   -1.3662   -0.7637   -1.5241 H   0  0  0  0  0  0  0  0  0  0  0  0
   -0.6413   -1.7285    1.1135 H   0  0  0  0  0  0  0  0  0  0  0  0
  1  2  1  0
  2  3  1  0
  3  4  1  0
  4  5  1  0
  5  6  1  0
  6  7  1  0
  7  8  1  0
  8  9  2  0
  7  4  1  0
  1 10  1  0
  1 11  1  0
  1 12  1  0
  3 13  1  0
  3 14  1  0
  4 15  1  0
  5 16  1  0
  5 17  1  0
  6 18  1  0
  6 19  1  0
  7 20  1  0
  8 21  1  0
M  END
