
     RDKit          3D

 23 23  0  0  0  0  0  0  0  0999 V2000
    3.2624    0.4272    0.3821 C   0  0  0  0  0  0  0  0  0  0  0  0
    1.9230    0.0898    0.5985 O   0  0  0  0  0  0  0  0  0  0  0  0
    1.4049   -0.3568   -0.6120 C   0  0  0  0  0  0  0  0  0  0  0  0
   -0.0627   -0.7427   -0.4409 C   0  0  0  0  0  0  0  0  0  0  0  0
   -0.2402   -1.8336    0.5667 C   0  0  0  0  0  0  0  0  0  0  0  0
   -0.8127    0.5073   -0.1248 C   0  0  0  0  0  0  0  0  0  0  0  0
   -2.2838    0.3054    0.0758 C   0  0  0  0  0  0  0  0  0  0  0  0
   -3.0387    1.5845    0.3973 C   0  0  0  0  0  0  0  0  0  0  0  0
   -3.2040    0.8322   -0.7936 O   0  0  0  0  0  0  0  0  0  0  0  0
    3.3339    1.2319   -0.3885 H   0  0  0  0  0  0  0  0  0  0  0  0
    3.7308    0.8017    1.3227 H   0  0  0  0  0  0  0  0  0  0  0  0
    3.8664   -0.4677    0.0690 H   0  0  0  0  0  0  0  0  0  0  0  0
    1.3953    0.5273   -1.2970 H   0  0  0  0  0  0  0  0  0  0  0  0
    1.9934   -1.1377   -1.0912 H   0  0  0  0  0  0  0  0  0  0  0  0
   -0.4021   -1.1320   -1.4367 H   0  0  0  0  0  0  0  0  0  0  0  0
    0.4053   -2.6849    0.2526 H   0  0  0  0  0  0  0  0  0  0  0  0
   -1.2875   -2.1816    0.5076 H   0  0  0  0  0  0  0  0  0  0  0  0
    0.0576   -1.4959    1.5802 H   0  0  0  0  0  0  0  0  0  0  0  0
   -0.3399    0.9723    0.7854 H   0  0  0  0  0  0  0  0  0  0  0  0
   -0.6806    1.2138   -0.9641 H   0  0  0  0  0  0  0  0  0  0  0  0
   -2.6494   -0.5856    0.6444 H   0  0  0  0  0  0  0  0  0  0  0  0
   -3.8505    1.5610    1.1426 H   0  0  0  0  0  0  0  0  0  0  0  0
   -2.5209    2.5638    0.1884 H   0  0  0  0  0  0  0  0  0  0  0  0
  1  2  1  0
  2  3  1  0
  3  4  1  0
  4  5  1  0
  4  6  1  0
  6  7  1  0
  7  8  1  0
  8  9  1  0
  9  7  1  0
  1 10  1  0
  1 11  1  0
  1 12  1  0
  3 13  1  0
  3 14  1  0
  4 15  1  0
  5 16  1  0
  5 17  1  0
  5 18  1  0
  6 19  1  0
  6 20  1  0
  7 21  1  0
  8 22  1  0
  8 23  1  0
M  END
