
     RDKit          3D

 19 18  0  0  0  0  0  0  0  0999 V2000
   -3.5293    0.2583   -0.1844 C   0  0  0  0  0  0  0  0  0  0  0  0
   -2.1467    0.3512   -0.0149 O   0  0  0  0  0  0  0  0  0  0  0  0
   -1.5352   -0.8786   -0.1530 C   0  0  0  0  0  0  0  0  0  0  0  0
   -0.0503   -0.6690    0.0473 C   0  0  0  0  0  0  0  0  0  0  0  0
    0.7473   -1.6347   -0.0258 O   0  0  0  0  0  0  0  0  0  0  0  0
    0.4682    0.5707    0.3127 O   0  0  0  0  0  0  0  0  0  0  0  0
    1.7923    0.8619    0.5029 C   0  0  0  0  0  0  0  0  0  0  0  0
    2.7471    0.6350   -0.6072 C   0  0  0  0  0  0  0  0  0  0  0  0
    2.8556   -0.6565   -1.0738 O   0  0  0  0  0  0  0  0  0  0  0  0
   -3.9628   -0.4363    0.5826 H   0  0  0  0  0  0  0  0  0  0  0  0
   -4.0058    1.2483   -0.0581 H   0  0  0  0  0  0  0  0  0  0  0  0
   -3.7719   -0.1562   -1.1704 H   0  0  0  0  0  0  0  0  0  0  0  0
   -1.8427   -1.5434    0.6933 H   0  0  0  0  0  0  0  0  0  0  0  0
   -1.6854   -1.3386   -1.1266 H   0  0  0  0  0  0  0  0  0  0  0  0
    1.8603    1.9583    0.7937 H   0  0  0  0  0  0  0  0  0  0  0  0
    2.2368    0.3664    1.4225 H   0  0  0  0  0  0  0  0  0  0  0  0
    2.5728    1.2862   -1.4936 H   0  0  0  0  0  0  0  0  0  0  0  0
    3.7727    0.9528   -0.2496 H   0  0  0  0  0  0  0  0  0  0  0  0
    3.4770   -1.1759   -0.4872 H   0  0  0  0  0  0  0  0  0  0  0  0
  1  2  1  0
  2  3  1  0
  3  4  1  0
  4  5  2  0
  4  6  1  0
  6  7  1  0
  7  8  1  0
  8  9  1  0
  1 10  1  0
  1 11  1  0
  1 12  1  0
  3 13  1  0
  3 14  1  0
  7 15  1  0
  7 16  1  0
  8 17  1  0
  8 18  1  0
  9 19  1  0
M  END
