
     RDKit          3D

 20 20  0  0  0  0  0  0  0  0999 V2000
    2.8965   -0.7098   -0.1328 C   0  0  0  0  0  0  0  0  0  0  0  0
    1.5139   -0.6340   -0.0869 O   0  0  0  0  0  0  0  0  0  0  0  0
    1.0824    0.6664   -0.3517 C   0  0  0  0  0  0  0  0  0  0  0  0
   -0.4278    0.7132   -0.2934 C   0  0  0  0  0  0  0  0  0  0  0  0
   -1.0064    1.9632   -0.5407 O   0  0  0  0  0  0  0  0  0  0  0  0
   -1.1583   -0.4888   -0.8558 C   0  0  0  0  0  0  0  0  0  0  0  0
   -1.1188   -0.2104    0.6434 C   0  0  0  0  0  0  0  0  0  0  0  0
   -2.4685    0.1388    1.2137 C   0  0  0  0  0  0  0  0  0  0  0  0
    3.2001   -0.4023   -1.1651 H   0  0  0  0  0  0  0  0  0  0  0  0
    3.1642   -1.7776    0.0382 H   0  0  0  0  0  0  0  0  0  0  0  0
    3.3642   -0.0461    0.6045 H   0  0  0  0  0  0  0  0  0  0  0  0
    1.5443    1.3881    0.3524 H   0  0  0  0  0  0  0  0  0  0  0  0
    1.3739    0.8734   -1.4101 H   0  0  0  0  0  0  0  0  0  0  0  0
   -0.3157    2.6248   -0.7161 H   0  0  0  0  0  0  0  0  0  0  0  0
   -2.0955   -0.3401   -1.4058 H   0  0  0  0  0  0  0  0  0  0  0  0
   -0.5480   -1.3948   -1.1346 H   0  0  0  0  0  0  0  0  0  0  0  0
   -0.4912   -0.8417    1.2899 H   0  0  0  0  0  0  0  0  0  0  0  0
   -2.4266    0.5973    2.2069 H   0  0  0  0  0  0  0  0  0  0  0  0
   -3.0578   -0.8039    1.2616 H   0  0  0  0  0  0  0  0  0  0  0  0
   -3.0247    0.7884    0.4825 H   0  0  0  0  0  0  0  0  0  0  0  0
  1  2  1  0
  2  3  1  0
  3  4  1  0
  4  5  1  0
  4  6  1  0
  6  7  1  0
  7  8  1  0
  7  4  1  0
  1  9  1  0
  1 10  1  0
  1 11  1  0
  3 12  1  0
  3 13  1  0
  5 14  1  0
  6 15  1  0
  6 16  1  0
  7 17  1  0
  8 18  1  0
  8 19  1  0
  8 20  1  0
M  END
