
     RDKit          3D

 23 23  0  0  0  0  0  0  0  0999 V2000
   -2.9256    0.9386    0.6079 C   0  0  0  0  0  0  0  0  0  0  0  0
   -1.6563    0.4193    0.7000 O   0  0  0  0  0  0  0  0  0  0  0  0
   -1.0068    0.3148   -0.5119 C   0  0  0  0  0  0  0  0  0  0  0  0
    0.3724   -0.2665   -0.2773 C   0  0  0  0  0  0  0  0  0  0  0  0
    1.0379   -0.3572   -1.6437 C   0  0  0  0  0  0  0  0  0  0  0  0
    0.2582   -1.7182    0.2064 C   0  0  0  0  0  0  0  0  0  0  0  0
    1.0972    0.5760    0.7032 C   0  0  0  0  0  0  0  0  0  0  0  0
    2.4170    0.3639    1.1832 C   0  0  0  0  0  0  0  0  0  0  0  0
    2.2751    1.2130    0.0528 O   0  0  0  0  0  0  0  0  0  0  0  0
   -2.8343    1.9614    0.1659 H   0  0  0  0  0  0  0  0  0  0  0  0
   -3.3384    0.9851    1.6432 H   0  0  0  0  0  0  0  0  0  0  0  0
   -3.6235    0.3077    0.0150 H   0  0  0  0  0  0  0  0  0  0  0  0
   -0.9421    1.3301   -0.9526 H   0  0  0  0  0  0  0  0  0  0  0  0
   -1.5879   -0.2930   -1.2427 H   0  0  0  0  0  0  0  0  0  0  0  0
    1.8594   -1.1085   -1.6432 H   0  0  0  0  0  0  0  0  0  0  0  0
    0.2259   -0.7278   -2.3343 H   0  0  0  0  0  0  0  0  0  0  0  0
    1.3512    0.6133   -2.0342 H   0  0  0  0  0  0  0  0  0  0  0  0
    0.0202   -1.7427    1.2790 H   0  0  0  0  0  0  0  0  0  0  0  0
   -0.4449   -2.2805   -0.4221 H   0  0  0  0  0  0  0  0  0  0  0  0
    1.2647   -2.1784    0.0822 H   0  0  0  0  0  0  0  0  0  0  0  0
    0.4628    1.3249    1.2429 H   0  0  0  0  0  0  0  0  0  0  0  0
    2.9524   -0.6004    1.0188 H   0  0  0  0  0  0  0  0  0  0  0  0
    2.7654    0.9252    2.0702 H   0  0  0  0  0  0  0  0  0  0  0  0
  1  2  1  0
  2  3  1  0
  3  4  1  0
  4  5  1  0
  4  6  1  0
  4  7  1  0
  7  8  1  0
  8  9  1  0
  9  7  1  0
  1 10  1  0
  1 11  1  0
  1 12  1  0
  3 13  1  0
  3 14  1  0
  5 15  1  0
  5 16  1  0
  5 17  1  0
  6 18  1  0
  6 19  1  0
  6 20  1  0
  7 21  1  0
  8 22  1  0
  8 23  1  0
M  END
