
     RDKit          3D

 17 16  0  0  0  0  0  0  0  0999 V2000
   -3.1758   -0.5152    1.0785 C   0  0  0  0  0  0  0  0  0  0  0  0
   -2.5371   -0.3419    2.2913 O   0  0  0  0  0  0  0  0  0  0  0  0
   -1.4068   -1.1012    2.3871 C   0  0  0  0  0  0  0  0  0  0  0  0
   -0.4631   -0.7843    1.4102 C   0  0  0  0  0  0  0  0  0  0  0  0
    0.4576   -0.4538    0.4488 C   0  0  0  0  0  0  0  0  0  0  0  0
    1.4261   -0.1010   -0.5997 C   0  0  0  0  0  0  0  0  0  0  0  0
    2.1070    0.1424   -1.3249 C   0  0  0  0  0  0  0  0  0  0  0  0
    2.9721    0.4379   -2.2485 C   0  0  0  0  0  0  0  0  0  0  0  0
    3.0595    1.7899   -2.7334 O   0  0  0  0  0  0  0  0  0  0  0  0
   -3.4508   -1.5956    0.8941 H   0  0  0  0  0  0  0  0  0  0  0  0
   -4.1556    0.0678    1.1696 H   0  0  0  0  0  0  0  0  0  0  0  0
   -2.5834   -0.1250    0.2587 H   0  0  0  0  0  0  0  0  0  0  0  0
   -1.7332   -2.2075    2.3141 H   0  0  0  0  0  0  0  0  0  0  0  0
   -0.9471   -1.0236    3.4294 H   0  0  0  0  0  0  0  0  0  0  0  0
    2.7928   -0.1375   -3.2380 H   0  0  0  0  0  0  0  0  0  0  0  0
    4.0668    0.2441   -1.9384 H   0  0  0  0  0  0  0  0  0  0  0  0
    3.5710    1.7235   -3.5991 H   0  0  0  0  0  0  0  0  0  0  0  0
  1  2  1  0
  2  3  1  0
  3  4  1  0
  4  5  3  0
  5  6  1  0
  6  7  3  0
  7  8  1  0
  8  9  1  0
  1 10  1  0
  1 11  1  0
  1 12  1  0
  3 13  1  0
  3 14  1  0
  8 15  1  0
  8 16  1  0
  9 17  1  0
M  END
