
     RDKit          3D

 25 24  0  0  0  0  0  0  0  0999 V2000
    3.1231    0.3761    1.6796 C   0  0  0  0  0  0  0  0  0  0  0  0
    2.5140    0.8312    0.5141 O   0  0  0  0  0  0  0  0  0  0  0  0
    1.4235    0.0046    0.1754 C   0  0  0  0  0  0  0  0  0  0  0  0
    0.7576    0.4864   -1.0820 C   0  0  0  0  0  0  0  0  0  0  0  0
   -0.3652   -0.3259   -1.5456 C   0  0  0  0  0  0  0  0  0  0  0  0
   -1.5662   -0.5370   -0.7271 C   0  0  0  0  0  0  0  0  0  0  0  0
   -1.4192   -1.2138    0.5865 C   0  0  0  0  0  0  0  0  0  0  0  0
   -2.4282    0.6997   -0.5549 C   0  0  0  0  0  0  0  0  0  0  0  0
   -1.7853    1.7429    0.0448 O   0  0  0  0  0  0  0  0  0  0  0  0
    3.4930   -0.6687    1.5271 H   0  0  0  0  0  0  0  0  0  0  0  0
    3.9733    1.0268    1.9053 H   0  0  0  0  0  0  0  0  0  0  0  0
    2.3963    0.3858    2.5228 H   0  0  0  0  0  0  0  0  0  0  0  0
    0.7609    0.0450    1.0763 H   0  0  0  0  0  0  0  0  0  0  0  0
    1.8251   -1.0145    0.0523 H   0  0  0  0  0  0  0  0  0  0  0  0
    1.5924    0.4934   -1.8564 H   0  0  0  0  0  0  0  0  0  0  0  0
    0.5399    1.5750   -0.9706 H   0  0  0  0  0  0  0  0  0  0  0  0
    0.0262   -1.3694   -1.8025 H   0  0  0  0  0  0  0  0  0  0  0  0
   -0.6389    0.0395   -2.5930 H   0  0  0  0  0  0  0  0  0  0  0  0
   -2.2419   -1.2146   -1.3496 H   0  0  0  0  0  0  0  0  0  0  0  0
   -2.2812   -1.9596    0.6877 H   0  0  0  0  0  0  0  0  0  0  0  0
   -0.5239   -1.8604    0.6690 H   0  0  0  0  0  0  0  0  0  0  0  0
   -1.4445   -0.5457    1.4709 H   0  0  0  0  0  0  0  0  0  0  0  0
   -2.8465    0.9903   -1.5149 H   0  0  0  0  0  0  0  0  0  0  0  0
   -3.2779    0.3882    0.0946 H   0  0  0  0  0  0  0  0  0  0  0  0
   -1.6065    1.6562    0.9903 H   0  0  0  0  0  0  0  0  0  0  0  0
  1  2  1  0
  2  3  1  0
  3  4  1  0
  4  5  1  0
  5  6  1  0
  6  7  1  0
  6  8  1  0
  8  9  1  0
  1 10  1  0
  1 11  1  0
  1 12  1  0
  3 13  1  0
  3 14  1  0
  4 15  1  0
  4 16  1  0
  5 17  1  0
  5 18  1  0
  6 19  1  0
  7 20  1  0
  7 21  1  0
  7 22  1  0
  8 23  1  0
  8 24  1  0
  9 25  1  0
M  END
