
     RDKit          3D

 23 23  0  0  0  0  0  0  0  0999 V2000
    3.0527   -0.4220   -0.8658 C   0  0  0  0  0  0  0  0  0  0  0  0
    2.0063   -0.1914    0.0318 O   0  0  0  0  0  0  0  0  0  0  0  0
    0.9630    0.4983   -0.5851 C   0  0  0  0  0  0  0  0  0  0  0  0
   -0.1174    0.7062    0.4411 C   0  0  0  0  0  0  0  0  0  0  0  0
    0.3239    1.4520    1.5554 O   0  0  0  0  0  0  0  0  0  0  0  0
   -1.5339    0.8231    0.0910 C   0  0  0  0  0  0  0  0  0  0  0  0
   -2.0448    0.6716   -1.3086 C   0  0  0  0  0  0  0  0  0  0  0  0
   -1.0410   -0.4044    0.7985 C   0  0  0  0  0  0  0  0  0  0  0  0
   -1.0414   -1.6971    0.0259 C   0  0  0  0  0  0  0  0  0  0  0  0
    2.6083   -1.0310   -1.6927 H   0  0  0  0  0  0  0  0  0  0  0  0
    3.8458   -1.0454   -0.4266 H   0  0  0  0  0  0  0  0  0  0  0  0
    3.4272    0.5185   -1.3265 H   0  0  0  0  0  0  0  0  0  0  0  0
    0.6147   -0.1077   -1.4406 H   0  0  0  0  0  0  0  0  0  0  0  0
    1.3396    1.5015   -0.9174 H   0  0  0  0  0  0  0  0  0  0  0  0
    1.0482    2.0612    1.3187 H   0  0  0  0  0  0  0  0  0  0  0  0
   -2.1671    1.5110    0.7187 H   0  0  0  0  0  0  0  0  0  0  0  0
   -1.3529    0.1783   -1.9907 H   0  0  0  0  0  0  0  0  0  0  0  0
   -2.9738    0.0326   -1.2718 H   0  0  0  0  0  0  0  0  0  0  0  0
   -2.3210    1.6648   -1.7147 H   0  0  0  0  0  0  0  0  0  0  0  0
   -1.3574   -0.5516    1.8725 H   0  0  0  0  0  0  0  0  0  0  0  0
   -0.3339   -2.4472    0.4485 H   0  0  0  0  0  0  0  0  0  0  0  0
   -2.0646   -2.1496    0.1521 H   0  0  0  0  0  0  0  0  0  0  0  0
   -0.8805   -1.5719   -1.0472 H   0  0  0  0  0  0  0  0  0  0  0  0
  1  2  1  0
  2  3  1  0
  3  4  1  0
  4  5  1  0
  4  6  1  0
  6  7  1  0
  6  8  1  0
  8  9  1  0
  8  4  1  0
  1 10  1  0
  1 11  1  0
  1 12  1  0
  3 13  1  0
  3 14  1  0
  5 15  1  0
  6 16  1  0
  7 17  1  0
  7 18  1  0
  7 19  1  0
  8 20  1  0
  9 21  1  0
  9 22  1  0
  9 23  1  0
M  END
