
     RDKit          3D

 23 23  0  0  0  0  0  0  0  0999 V2000
    3.3652    0.4119   -0.1036 C   0  0  0  0  0  0  0  0  0  0  0  0
    2.1526   -0.2332    0.1109 O   0  0  0  0  0  0  0  0  0  0  0  0
    1.1439    0.7265    0.0778 C   0  0  0  0  0  0  0  0  0  0  0  0
   -0.1825    0.0648    0.3064 C   0  0  0  0  0  0  0  0  0  0  0  0
   -0.2553   -0.5782    1.5188 O   0  0  0  0  0  0  0  0  0  0  0  0
   -0.5152   -0.9478   -0.7763 C   0  0  0  0  0  0  0  0  0  0  0  0
   -1.9826   -1.2433   -0.4441 C   0  0  0  0  0  0  0  0  0  0  0  0
   -2.5125    0.0296    0.1809 C   0  0  0  0  0  0  0  0  0  0  0  0
   -1.3480    1.0045    0.1631 C   0  0  0  0  0  0  0  0  0  0  0  0
    3.3053    0.8996   -1.0981 H   0  0  0  0  0  0  0  0  0  0  0  0
    4.2115   -0.3046   -0.1038 H   0  0  0  0  0  0  0  0  0  0  0  0
    3.4905    1.1895    0.6989 H   0  0  0  0  0  0  0  0  0  0  0  0
    1.1939    1.3258   -0.8290 H   0  0  0  0  0  0  0  0  0  0  0  0
    1.3250    1.3922    0.9556 H   0  0  0  0  0  0  0  0  0  0  0  0
    0.3836   -1.3262    1.6166 H   0  0  0  0  0  0  0  0  0  0  0  0
    0.1042   -1.8394   -0.7386 H   0  0  0  0  0  0  0  0  0  0  0  0
   -0.5110   -0.4201   -1.7343 H   0  0  0  0  0  0  0  0  0  0  0  0
   -2.5502   -1.5503   -1.3333 H   0  0  0  0  0  0  0  0  0  0  0  0
   -1.9458   -2.0789    0.3009 H   0  0  0  0  0  0  0  0  0  0  0  0
   -3.3942    0.4230   -0.3579 H   0  0  0  0  0  0  0  0  0  0  0  0
   -2.7228   -0.1866    1.2522 H   0  0  0  0  0  0  0  0  0  0  0  0
   -1.3416    1.4844   -0.8533 H   0  0  0  0  0  0  0  0  0  0  0  0
   -1.4140    1.7567    0.9667 H   0  0  0  0  0  0  0  0  0  0  0  0
  1  2  1  0
  2  3  1  0
  3  4  1  0
  4  5  1  0
  4  6  1  0
  6  7  1  0
  7  8  1  0
  8  9  1  0
  9  4  1  0
  1 10  1  0
  1 11  1  0
  1 12  1  0
  3 13  1  0
  3 14  1  0
  5 15  1  0
  6 16  1  0
  6 17  1  0
  7 18  1  0
  7 19  1  0
  8 20  1  0
  8 21  1  0
  9 22  1  0
  9 23  1  0
M  END
