
     RDKit          3D

 23 23  0  0  0  0  0  0  0  0999 V2000
    3.1270   -0.6046   -0.2732 C   0  0  0  0  0  0  0  0  0  0  0  0
    2.1466   -1.4006   -0.8077 O   0  0  0  0  0  0  0  0  0  0  0  0
    0.8789   -1.2271   -0.2857 C   0  0  0  0  0  0  0  0  0  0  0  0
    0.4206    0.1679   -0.5065 C   0  0  0  0  0  0  0  0  0  0  0  0
   -0.9651    0.4434    0.0205 C   0  0  0  0  0  0  0  0  0  0  0  0
   -1.1894    0.2497    1.4677 C   0  0  0  0  0  0  0  0  0  0  0  0
   -2.0379   -0.2145   -0.8284 C   0  0  0  0  0  0  0  0  0  0  0  0
   -1.8245    0.8141   -1.7509 O   0  0  0  0  0  0  0  0  0  0  0  0
   -1.5944    1.6447   -0.6286 C   0  0  0  0  0  0  0  0  0  0  0  0
    2.9965    0.4754   -0.3816 H   0  0  0  0  0  0  0  0  0  0  0  0
    4.0846   -0.9207   -0.7852 H   0  0  0  0  0  0  0  0  0  0  0  0
    3.2763   -0.9085    0.7975 H   0  0  0  0  0  0  0  0  0  0  0  0
    0.9357   -1.5109    0.7840 H   0  0  0  0  0  0  0  0  0  0  0  0
    0.2316   -1.9798   -0.8128 H   0  0  0  0  0  0  0  0  0  0  0  0
    0.5164    0.4391   -1.5565 H   0  0  0  0  0  0  0  0  0  0  0  0
    1.0963    0.8560    0.0762 H   0  0  0  0  0  0  0  0  0  0  0  0
   -1.4756   -0.8165    1.7009 H   0  0  0  0  0  0  0  0  0  0  0  0
   -2.0856    0.8477    1.7753 H   0  0  0  0  0  0  0  0  0  0  0  0
   -0.3083    0.5391    2.0735 H   0  0  0  0  0  0  0  0  0  0  0  0
   -1.7493   -1.2173   -1.1648 H   0  0  0  0  0  0  0  0  0  0  0  0
   -3.0476   -0.1117   -0.3897 H   0  0  0  0  0  0  0  0  0  0  0  0
   -2.5047    1.9363   -0.0989 H   0  0  0  0  0  0  0  0  0  0  0  0
   -0.9282    2.4988   -0.8319 H   0  0  0  0  0  0  0  0  0  0  0  0
  1  2  1  0
  2  3  1  0
  3  4  1  0
  4  5  1  0
  5  6  1  0
  5  7  1  0
  7  8  1  0
  8  9  1  0
  9  5  1  0
  1 10  1  0
  1 11  1  0
  1 12  1  0
  3 13  1  0
  3 14  1  0
  4 15  1  0
  4 16  1  0
  6 17  1  0
  6 18  1  0
  6 19  1  0
  7 20  1  0
  7 21  1  0
  9 22  1  0
  9 23  1  0
M  END
