
     RDKit          3D

 21 20  0  0  0  0  0  0  0  0999 V2000
    2.7211   -0.4530   -0.1550 C   0  0  0  0  0  0  0  0  0  0  0  0
    2.1118    0.7588    0.0246 O   0  0  0  0  0  0  0  0  0  0  0  0
    0.9593    0.7585    0.7570 C   0  0  0  0  0  0  0  0  0  0  0  0
   -0.1529   -0.1097    0.1323 C   0  0  0  0  0  0  0  0  0  0  0  0
   -0.3932    0.5099   -1.2355 C   0  0  0  0  0  0  0  0  0  0  0  0
   -1.3302   -0.0681   -2.0158 O   0  0  0  0  0  0  0  0  0  0  0  0
   -1.3605   -0.0119    1.0301 C   0  0  0  0  0  0  0  0  0  0  0  0
   -2.4749   -0.8430    0.5684 C   0  0  0  0  0  0  0  0  0  0  0  0
   -2.2811   -1.6317   -0.3487 O   0  0  0  0  0  0  0  0  0  0  0  0
    3.6570   -0.3737   -0.7634 H   0  0  0  0  0  0  0  0  0  0  0  0
    2.0530   -1.1208   -0.7329 H   0  0  0  0  0  0  0  0  0  0  0  0
    3.0536   -0.9264    0.8087 H   0  0  0  0  0  0  0  0  0  0  0  0
    0.5427    1.7885    0.7406 H   0  0  0  0  0  0  0  0  0  0  0  0
    1.1415    0.4835    1.8016 H   0  0  0  0  0  0  0  0  0  0  0  0
    0.2142   -1.1313    0.1083 H   0  0  0  0  0  0  0  0  0  0  0  0
    0.6049    0.4839   -1.7565 H   0  0  0  0  0  0  0  0  0  0  0  0
   -0.6773    1.5861   -1.0882 H   0  0  0  0  0  0  0  0  0  0  0  0
   -2.1791    0.4702   -2.1340 H   0  0  0  0  0  0  0  0  0  0  0  0
   -1.6545    1.0460    1.2221 H   0  0  0  0  0  0  0  0  0  0  0  0
   -1.0801   -0.3978    2.0596 H   0  0  0  0  0  0  0  0  0  0  0  0
   -3.4753   -0.8181    0.9765 H   0  0  0  0  0  0  0  0  0  0  0  0
  1  2  1  0
  2  3  1  0
  3  4  1  0
  4  5  1  0
  5  6  1  0
  4  7  1  0
  7  8  1  0
  8  9  2  0
  1 10  1  0
  1 11  1  0
  1 12  1  0
  3 13  1  0
  3 14  1  0
  4 15  1  0
  5 16  1  0
  5 17  1  0
  6 18  1  0
  7 19  1  0
  7 20  1  0
  8 21  1  0
M  END
