
     RDKit          3D

 23 23  0  0  0  0  0  0  0  0999 V2000
    3.3727   -0.5819    0.3440 C   0  0  0  0  0  0  0  0  0  0  0  0
    2.0116   -0.7884    0.5581 O   0  0  0  0  0  0  0  0  0  0  0  0
    1.3292   -0.0588   -0.4130 C   0  0  0  0  0  0  0  0  0  0  0  0
   -0.1364   -0.1957   -0.2931 C   0  0  0  0  0  0  0  0  0  0  0  0
   -0.9713    0.8100   -0.0843 C   0  0  0  0  0  0  0  0  0  0  0  0
   -0.6562    2.2539    0.0733 C   0  0  0  0  0  0  0  0  0  0  0  0
   -2.3558    0.2601   -0.0260 C   0  0  0  0  0  0  0  0  0  0  0  0
   -2.1421   -1.1945    0.3732 C   0  0  0  0  0  0  0  0  0  0  0  0
   -0.8847   -1.5035   -0.3942 C   0  0  0  0  0  0  0  0  0  0  0  0
    3.6497    0.4925    0.4253 H   0  0  0  0  0  0  0  0  0  0  0  0
    3.6901   -0.8965   -0.6759 H   0  0  0  0  0  0  0  0  0  0  0  0
    3.9797   -1.1064    1.1393 H   0  0  0  0  0  0  0  0  0  0  0  0
    1.6018    0.9998   -0.2571 H   0  0  0  0  0  0  0  0  0  0  0  0
    1.6333   -0.3994   -1.4240 H   0  0  0  0  0  0  0  0  0  0  0  0
   -1.4071    2.6659    0.8089 H   0  0  0  0  0  0  0  0  0  0  0  0
   -0.7890    2.7939   -0.9033 H   0  0  0  0  0  0  0  0  0  0  0  0
    0.3640    2.4639    0.4005 H   0  0  0  0  0  0  0  0  0  0  0  0
   -2.8652    0.3559   -0.9961 H   0  0  0  0  0  0  0  0  0  0  0  0
   -2.9648    0.7237    0.7600 H   0  0  0  0  0  0  0  0  0  0  0  0
   -2.9870   -1.8127    0.0341 H   0  0  0  0  0  0  0  0  0  0  0  0
   -2.0120   -1.2443    1.4586 H   0  0  0  0  0  0  0  0  0  0  0  0
   -1.1162   -1.7433   -1.4338 H   0  0  0  0  0  0  0  0  0  0  0  0
   -0.3443   -2.2943    0.1565 H   0  0  0  0  0  0  0  0  0  0  0  0
  1  2  1  0
  2  3  1  0
  3  4  1  0
  4  5  2  0
  5  6  1  0
  5  7  1  0
  7  8  1  0
  8  9  1  0
  9  4  1  0
  1 10  1  0
  1 11  1  0
  1 12  1  0
  3 13  1  0
  3 14  1  0
  6 15  1  0
  6 16  1  0
  6 17  1  0
  7 18  1  0
  7 19  1  0
  8 20  1  0
  8 21  1  0
  9 22  1  0
  9 23  1  0
M  END
