
     RDKit          3D

 21 22  0  0  0  0  0  0  0  0999 V2000
    3.0046    0.4388   -0.0725 C   0  0  0  0  0  0  0  0  0  0  0  0
    2.0434    0.8747    0.7941 O   0  0  0  0  0  0  0  0  0  0  0  0
    0.9384    0.0917    0.9548 C   0  0  0  0  0  0  0  0  0  0  0  0
    0.1835   -0.1154   -0.2997 C   0  0  0  0  0  0  0  0  0  0  0  0
   -0.2882    1.0497   -0.8982 O   0  0  0  0  0  0  0  0  0  0  0  0
   -1.7045    0.9439   -0.9552 C   0  0  0  0  0  0  0  0  0  0  0  0
   -1.9368    0.1843    0.3038 C   0  0  0  0  0  0  0  0  0  0  0  0
   -2.0630   -1.1585    0.6716 C   0  0  0  0  0  0  0  0  0  0  0  0
   -1.0018   -0.9811   -0.2312 C   0  0  0  0  0  0  0  0  0  0  0  0
    3.8234    1.2223   -0.0471 H   0  0  0  0  0  0  0  0  0  0  0  0
    3.4172   -0.5617    0.1467 H   0  0  0  0  0  0  0  0  0  0  0  0
    2.6839    0.4395   -1.1358 H   0  0  0  0  0  0  0  0  0  0  0  0
    0.3788    0.4615    1.8227 H   0  0  0  0  0  0  0  0  0  0  0  0
    1.3131   -0.9237    1.2689 H   0  0  0  0  0  0  0  0  0  0  0  0
    0.9295   -0.5469   -1.0348 H   0  0  0  0  0  0  0  0  0  0  0  0
   -2.1641    1.9311   -0.9779 H   0  0  0  0  0  0  0  0  0  0  0  0
   -2.0179    0.3822   -1.8611 H   0  0  0  0  0  0  0  0  0  0  0  0
   -1.4819    0.8277    1.1228 H   0  0  0  0  0  0  0  0  0  0  0  0
   -3.0102   -1.6983    0.3763 H   0  0  0  0  0  0  0  0  0  0  0  0
   -1.7919   -1.5194    1.7081 H   0  0  0  0  0  0  0  0  0  0  0  0
   -1.2554   -1.3425   -1.2811 H   0  0  0  0  0  0  0  0  0  0  0  0
  1  2  1  0
  2  3  1  0
  3  4  1  0
  4  5  1  0
  5  6  1  0
  6  7  1  0
  7  8  1  0
  8  9  1  0
  9  4  1  0
  9  7  1  0
  1 10  1  0
  1 11  1  0
  1 12  1  0
  3 13  1  0
  3 14  1  0
  4 15  1  0
  6 16  1  0
  6 17  1  0
  7 18  1  0
  8 19  1  0
  8 20  1  0
  9 21  1  0
M  END
