
     RDKit          3D

 23 23  0  0  0  0  0  0  0  0999 V2000
    2.4891    0.4776   -0.6899 C   0  0  0  0  0  0  0  0  0  0  0  0
    2.2149   -0.2348    0.4391 O   0  0  0  0  0  0  0  0  0  0  0  0
    1.0842    0.0329    1.1259 C   0  0  0  0  0  0  0  0  0  0  0  0
   -0.1862   -0.1732    0.3588 C   0  0  0  0  0  0  0  0  0  0  0  0
   -0.2700   -1.6285   -0.0974 C   0  0  0  0  0  0  0  0  0  0  0  0
   -1.4373   -1.8666   -0.8159 O   0  0  0  0  0  0  0  0  0  0  0  0
   -0.5047    0.8622   -0.6515 C   0  0  0  0  0  0  0  0  0  0  0  0
   -1.8488    1.0826   -0.0197 C   0  0  0  0  0  0  0  0  0  0  0  0
   -1.4337    0.2181    1.1309 C   0  0  0  0  0  0  0  0  0  0  0  0
    1.7836    0.4158   -1.5114 H   0  0  0  0  0  0  0  0  0  0  0  0
    3.4766    0.0968   -1.0788 H   0  0  0  0  0  0  0  0  0  0  0  0
    2.7035    1.5402   -0.3819 H   0  0  0  0  0  0  0  0  0  0  0  0
    1.1469    1.0971    1.5003 H   0  0  0  0  0  0  0  0  0  0  0  0
    1.0575   -0.6485    2.0238 H   0  0  0  0  0  0  0  0  0  0  0  0
    0.5747   -1.8967   -0.7361 H   0  0  0  0  0  0  0  0  0  0  0  0
   -0.2905   -2.2458    0.8078 H   0  0  0  0  0  0  0  0  0  0  0  0
   -2.0329   -2.5143   -0.3942 H   0  0  0  0  0  0  0  0  0  0  0  0
   -0.5461    0.5520   -1.7216 H   0  0  0  0  0  0  0  0  0  0  0  0
    0.1103    1.7852   -0.4940 H   0  0  0  0  0  0  0  0  0  0  0  0
   -2.0786    2.1311    0.2711 H   0  0  0  0  0  0  0  0  0  0  0  0
   -2.6934    0.6982   -0.6270 H   0  0  0  0  0  0  0  0  0  0  0  0
   -2.1171   -0.6196    1.2887 H   0  0  0  0  0  0  0  0  0  0  0  0
   -1.2022    0.8386    2.0197 H   0  0  0  0  0  0  0  0  0  0  0  0
  1  2  1  0
  2  3  1  0
  3  4  1  0
  4  5  1  0
  5  6  1  0
  4  7  1  0
  7  8  1  0
  8  9  1  0
  9  4  1  0
  1 10  1  0
  1 11  1  0
  1 12  1  0
  3 13  1  0
  3 14  1  0
  5 15  1  0
  5 16  1  0
  6 17  1  0
  7 18  1  0
  7 19  1  0
  8 20  1  0
  8 21  1  0
  9 22  1  0
  9 23  1  0
M  END
