
     RDKit          3D

 21 21  0  0  0  0  0  0  0  0999 V2000
    2.8913    1.1093   -0.4205 C   0  0  0  0  0  0  0  0  0  0  0  0
    1.5809    0.6689   -0.4038 O   0  0  0  0  0  0  0  0  0  0  0  0
    1.4001   -0.2386    0.6024 C   0  0  0  0  0  0  0  0  0  0  0  0
    0.0466   -0.8174    0.7664 C   0  0  0  0  0  0  0  0  0  0  0  0
   -0.3515   -1.5232   -0.4888 O   0  0  0  0  0  0  0  0  0  0  0  0
   -1.1854   -0.5364    0.1787 C   0  0  0  0  0  0  0  0  0  0  0  0
   -2.4072   -1.3117    0.7468 C   0  0  0  0  0  0  0  0  0  0  0  0
   -1.6498    0.5898   -0.6728 C   0  0  0  0  0  0  0  0  0  0  0  0
   -0.7143    1.3828   -1.2551 O   0  0  0  0  0  0  0  0  0  0  0  0
    3.0013    1.8531   -1.2598 H   0  0  0  0  0  0  0  0  0  0  0  0
    3.6121    0.2941   -0.6596 H   0  0  0  0  0  0  0  0  0  0  0  0
    3.2117    1.5753    0.5293 H   0  0  0  0  0  0  0  0  0  0  0  0
    1.7479    0.2157    1.5632 H   0  0  0  0  0  0  0  0  0  0  0  0
    2.1521   -1.0609    0.4112 H   0  0  0  0  0  0  0  0  0  0  0  0
    0.0448   -1.6028    1.5984 H   0  0  0  0  0  0  0  0  0  0  0  0
   -2.9283   -0.5594    1.3779 H   0  0  0  0  0  0  0  0  0  0  0  0
   -3.0523   -1.5204   -0.1206 H   0  0  0  0  0  0  0  0  0  0  0  0
   -2.0820   -2.1909    1.3052 H   0  0  0  0  0  0  0  0  0  0  0  0
   -2.2923    1.2387   -0.0007 H   0  0  0  0  0  0  0  0  0  0  0  0
   -2.3833    0.1956   -1.4212 H   0  0  0  0  0  0  0  0  0  0  0  0
   -0.6425    2.2385   -0.7738 H   0  0  0  0  0  0  0  0  0  0  0  0
  1  2  1  0
  2  3  1  0
  3  4  1  0
  4  5  1  0
  5  6  1  0
  6  7  1  0
  6  8  1  0
  8  9  1  0
  6  4  1  0
  1 10  1  0
  1 11  1  0
  1 12  1  0
  3 13  1  0
  3 14  1  0
  4 15  1  0
  7 16  1  0
  7 17  1  0
  7 18  1  0
  8 19  1  0
  8 20  1  0
  9 21  1  0
M  END
