
     RDKit          3D

 17 18  0  0  0  0  0  0  0  0999 V2000
    2.7216    0.1944    0.1809 C   0  0  0  0  0  0  0  0  0  0  0  0
    1.5134   -0.4402    0.5143 O   0  0  0  0  0  0  0  0  0  0  0  0
    0.5976   -0.2932   -0.5382 C   0  0  0  0  0  0  0  0  0  0  0  0
   -0.7117   -0.9449   -0.2518 C   0  0  0  0  0  0  0  0  0  0  0  0
   -1.5624   -0.5686    0.8918 C   0  0  0  0  0  0  0  0  0  0  0  0
   -1.3562    0.6822    1.5254 O   0  0  0  0  0  0  0  0  0  0  0  0
   -1.8607    1.2748    0.3521 C   0  0  0  0  0  0  0  0  0  0  0  0
   -2.1655    2.4545    0.0690 O   0  0  0  0  0  0  0  0  0  0  0  0
   -1.8952    0.0177   -0.4004 C   0  0  0  0  0  0  0  0  0  0  0  0
    3.0887   -0.2958   -0.7278 H   0  0  0  0  0  0  0  0  0  0  0  0
    3.4486    0.1603    0.9900 H   0  0  0  0  0  0  0  0  0  0  0  0
    2.4283    1.2596   -0.0462 H   0  0  0  0  0  0  0  0  0  0  0  0
    1.0476   -0.7699   -1.4388 H   0  0  0  0  0  0  0  0  0  0  0  0
    0.5252    0.7897   -0.7785 H   0  0  0  0  0  0  0  0  0  0  0  0
   -0.8795   -1.9581   -0.6685 H   0  0  0  0  0  0  0  0  0  0  0  0
   -2.2145   -1.3038    1.3650 H   0  0  0  0  0  0  0  0  0  0  0  0
   -2.7253   -0.2586   -1.0382 H   0  0  0  0  0  0  0  0  0  0  0  0
  1  2  1  0
  2  3  1  0
  3  4  1  0
  4  5  1  0
  5  6  1  0
  6  7  1  0
  7  8  2  0
  7  9  1  0
  9  4  1  0
  9  5  1  0
  1 10  1  0
  1 11  1  0
  1 12  1  0
  3 13  1  0
  3 14  1  0
  4 15  1  0
  5 16  1  0
  9 17  1  0
M  END
