
     RDKit          3D

 25 24  0  0  0  0  0  0  0  0999 V2000
    3.4696    0.8614   -0.2787 C   0  0  0  0  0  0  0  0  0  0  0  0
    2.5830    0.1262    0.4989 O   0  0  0  0  0  0  0  0  0  0  0  0
    1.2955    0.0993   -0.0986 C   0  0  0  0  0  0  0  0  0  0  0  0
    0.4456   -0.7049    0.8117 C   0  0  0  0  0  0  0  0  0  0  0  0
   -0.9701   -0.9215    0.4470 C   0  0  0  0  0  0  0  0  0  0  0  0
   -1.1549   -1.6335   -0.8842 C   0  0  0  0  0  0  0  0  0  0  0  0
   -1.8979    0.2297    0.6289 C   0  0  0  0  0  0  0  0  0  0  0  0
   -1.6121    1.4668   -0.1301 C   0  0  0  0  0  0  0  0  0  0  0  0
   -2.0189    0.4768    2.0017 O   0  0  0  0  0  0  0  0  0  0  0  0
    4.4442    0.8349    0.2514 H   0  0  0  0  0  0  0  0  0  0  0  0
    3.6660    0.3568   -1.2683 H   0  0  0  0  0  0  0  0  0  0  0  0
    3.1822    1.8996   -0.4261 H   0  0  0  0  0  0  0  0  0  0  0  0
    1.3618   -0.2939   -1.1284 H   0  0  0  0  0  0  0  0  0  0  0  0
    0.9996    1.1690   -0.0805 H   0  0  0  0  0  0  0  0  0  0  0  0
    0.9714   -1.6925    0.9713 H   0  0  0  0  0  0  0  0  0  0  0  0
    0.4868   -0.2259    1.8192 H   0  0  0  0  0  0  0  0  0  0  0  0
   -1.3399   -1.7008    1.1928 H   0  0  0  0  0  0  0  0  0  0  0  0
   -2.1657   -2.0942   -0.8679 H   0  0  0  0  0  0  0  0  0  0  0  0
   -0.4272   -2.4639   -0.9217 H   0  0  0  0  0  0  0  0  0  0  0  0
   -1.0763   -0.9411   -1.7449 H   0  0  0  0  0  0  0  0  0  0  0  0
   -2.9171   -0.1368    0.3034 H   0  0  0  0  0  0  0  0  0  0  0  0
   -2.5716    2.0205   -0.3769 H   0  0  0  0  0  0  0  0  0  0  0  0
   -1.1391    1.3208   -1.1096 H   0  0  0  0  0  0  0  0  0  0  0  0
   -1.0706    2.1861    0.5191 H   0  0  0  0  0  0  0  0  0  0  0  0
   -2.5441   -0.2389    2.4531 H   0  0  0  0  0  0  0  0  0  0  0  0
  1  2  1  0
  2  3  1  0
  3  4  1  0
  4  5  1  0
  5  6  1  0
  5  7  1  0
  7  8  1  0
  7  9  1  0
  1 10  1  0
  1 11  1  0
  1 12  1  0
  3 13  1  0
  3 14  1  0
  4 15  1  0
  4 16  1  0
  5 17  1  0
  6 18  1  0
  6 19  1  0
  6 20  1  0
  7 21  1  0
  8 22  1  0
  8 23  1  0
  8 24  1  0
  9 25  1  0
M  END
