
     RDKit          3D

 21 20  0  0  0  0  0  0  0  0999 V2000
    2.9061    2.8576    0.8321 C   0  0  0  0  0  0  0  0  0  0  0  0
    1.7501    2.1487    0.5564 O   0  0  0  0  0  0  0  0  0  0  0  0
    2.0511    0.8115    0.2129 C   0  0  0  0  0  0  0  0  0  0  0  0
    0.8167    0.0776   -0.0755 C   0  0  0  0  0  0  0  0  0  0  0  0
   -0.2098   -0.5459   -0.3026 C   0  0  0  0  0  0  0  0  0  0  0  0
   -1.4316   -1.3123   -0.5599 C   0  0  0  0  0  0  0  0  0  0  0  0
   -2.6138   -0.3925   -0.6393 C   0  0  0  0  0  0  0  0  0  0  0  0
   -1.6817   -2.3149    0.5531 C   0  0  0  0  0  0  0  0  0  0  0  0
   -1.2943   -2.0129   -1.7451 O   0  0  0  0  0  0  0  0  0  0  0  0
    3.5482    2.8424   -0.0820 H   0  0  0  0  0  0  0  0  0  0  0  0
    2.6553    3.8989    1.0350 H   0  0  0  0  0  0  0  0  0  0  0  0
    3.4559    2.3924    1.6827 H   0  0  0  0  0  0  0  0  0  0  0  0
    2.6566    0.7854   -0.7114 H   0  0  0  0  0  0  0  0  0  0  0  0
    2.6215    0.3687    1.0531 H   0  0  0  0  0  0  0  0  0  0  0  0
   -3.5080   -0.9598   -0.2870 H   0  0  0  0  0  0  0  0  0  0  0  0
   -2.5015    0.4470    0.1048 H   0  0  0  0  0  0  0  0  0  0  0  0
   -2.7817    0.0311   -1.6293 H   0  0  0  0  0  0  0  0  0  0  0  0
   -2.1177   -1.8128    1.4401 H   0  0  0  0  0  0  0  0  0  0  0  0
   -2.3173   -3.1531    0.2200 H   0  0  0  0  0  0  0  0  0  0  0  0
   -0.6744   -2.6991    0.8874 H   0  0  0  0  0  0  0  0  0  0  0  0
   -1.3296   -1.4584   -2.5453 H   0  0  0  0  0  0  0  0  0  0  0  0
  1  2  1  0
  2  3  1  0
  3  4  1  0
  4  5  3  0
  5  6  1  0
  6  7  1  0
  6  8  1  0
  6  9  1  0
  1 10  1  0
  1 11  1  0
  1 12  1  0
  3 13  1  0
  3 14  1  0
  7 15  1  0
  7 16  1  0
  7 17  1  0
  8 18  1  0
  8 19  1  0
  8 20  1  0
  9 21  1  0
M  END
