
     RDKit          3D

 17 17  0  0  0  0  0  0  0  0999 V2000
    2.2372    0.4017    0.6612 C   0  0  0  0  0  0  0  0  0  0  0  0
    1.8498   -0.8939    0.4274 O   0  0  0  0  0  0  0  0  0  0  0  0
    0.5996   -1.0379   -0.1124 C   0  0  0  0  0  0  0  0  0  0  0  0
   -0.4985   -0.4666    0.7655 C   0  0  0  0  0  0  0  0  0  0  0  0
   -1.8907   -0.6256    0.1669 C   0  0  0  0  0  0  0  0  0  0  0  0
   -1.2431    0.7315    0.2994 C   0  0  0  0  0  0  0  0  0  0  0  0
   -0.9272    1.3108   -0.9328 O   0  0  0  0  0  0  0  0  0  0  0  0
    3.2556    0.3800    1.0936 H   0  0  0  0  0  0  0  0  0  0  0  0
    2.1905    1.0674   -0.2086 H   0  0  0  0  0  0  0  0  0  0  0  0
    1.5687    0.8288    1.4429 H   0  0  0  0  0  0  0  0  0  0  0  0
    0.3897   -2.1170   -0.2218 H   0  0  0  0  0  0  0  0  0  0  0  0
    0.4807   -0.5822   -1.1085 H   0  0  0  0  0  0  0  0  0  0  0  0
   -0.4450   -0.6783    1.8313 H   0  0  0  0  0  0  0  0  0  0  0  0
   -1.9887   -1.0871   -0.8381 H   0  0  0  0  0  0  0  0  0  0  0  0
   -2.7308   -0.8946    0.8418 H   0  0  0  0  0  0  0  0  0  0  0  0
   -1.6008    1.4421    1.0550 H   0  0  0  0  0  0  0  0  0  0  0  0
   -1.2470    2.2208   -1.0198 H   0  0  0  0  0  0  0  0  0  0  0  0
  1  2  1  0
  2  3  1  0
  3  4  1  0
  4  5  1  0
  5  6  1  0
  6  7  1  0
  6  4  1  0
  1  8  1  0
  1  9  1  0
  1 10  1  0
  3 11  1  0
  3 12  1  0
  4 13  1  0
  5 14  1  0
  5 15  1  0
  6 16  1  0
  7 17  1  0
M  END
