
     RDKit          3D

 21 20  0  0  0  0  0  0  0  0999 V2000
   -2.8961    0.8217    0.5907 C   0  0  0  0  0  0  0  0  0  0  0  0
   -1.7853    0.0336    0.9643 O   0  0  0  0  0  0  0  0  0  0  0  0
   -1.2963   -0.5193   -0.2116 C   0  0  0  0  0  0  0  0  0  0  0  0
   -0.0951   -1.3979    0.0221 C   0  0  0  0  0  0  0  0  0  0  0  0
    1.0505   -0.6352    0.6503 C   0  0  0  0  0  0  0  0  0  0  0  0
    1.4872    0.5152   -0.2538 C   0  0  0  0  0  0  0  0  0  0  0  0
    1.8991   -0.0008   -1.4780 O   0  0  0  0  0  0  0  0  0  0  0  0
    2.6423    1.2220    0.3571 C   0  0  0  0  0  0  0  0  0  0  0  0
    3.6981    1.2674   -0.2123 O   0  0  0  0  0  0  0  0  0  0  0  0
   -2.5973    1.6241   -0.1218 H   0  0  0  0  0  0  0  0  0  0  0  0
   -3.5926    0.1405    0.0816 H   0  0  0  0  0  0  0  0  0  0  0  0
   -3.3342    1.3431    1.4650 H   0  0  0  0  0  0  0  0  0  0  0  0
   -2.1103   -1.1411   -0.6357 H   0  0  0  0  0  0  0  0  0  0  0  0
   -1.0982    0.3021   -0.9106 H   0  0  0  0  0  0  0  0  0  0  0  0
    0.2207   -1.7978   -0.9624 H   0  0  0  0  0  0  0  0  0  0  0  0
   -0.3875   -2.2427    0.6709 H   0  0  0  0  0  0  0  0  0  0  0  0
    0.8049   -0.2675    1.6617 H   0  0  0  0  0  0  0  0  0  0  0  0
    1.9090   -1.3331    0.7332 H   0  0  0  0  0  0  0  0  0  0  0  0
    0.6656    1.2550   -0.3680 H   0  0  0  0  0  0  0  0  0  0  0  0
    2.3303   -0.8843   -1.2813 H   0  0  0  0  0  0  0  0  0  0  0  0
    2.4851    1.6949    1.3425 H   0  0  0  0  0  0  0  0  0  0  0  0
  1  2  1  0
  2  3  1  0
  3  4  1  0
  4  5  1  0
  5  6  1  0
  6  7  1  0
  6  8  1  0
  8  9  2  0
  1 10  1  0
  1 11  1  0
  1 12  1  0
  3 13  1  0
  3 14  1  0
  4 15  1  0
  4 16  1  0
  5 17  1  0
  5 18  1  0
  6 19  1  0
  7 20  1  0
  8 21  1  0
M  END
