
     RDKit          3D

 19 19  0  0  0  0  0  0  0  0999 V2000
    2.7113    0.6492   -0.3904 C   0  0  0  0  0  0  0  0  0  0  0  0
    1.5091    0.0023   -0.5325 O   0  0  0  0  0  0  0  0  0  0  0  0
    0.5326    0.4204    0.3379 C   0  0  0  0  0  0  0  0  0  0  0  0
   -0.7137   -0.3621    0.0738 C   0  0  0  0  0  0  0  0  0  0  0  0
   -0.6279   -1.7935    0.5127 C   0  0  0  0  0  0  0  0  0  0  0  0
   -2.0069    0.2577    0.4827 C   0  0  0  0  0  0  0  0  0  0  0  0
   -1.8849    0.9214   -0.8034 C   0  0  0  0  0  0  0  0  0  0  0  0
   -2.2485    1.9839   -1.3399 O   0  0  0  0  0  0  0  0  0  0  0  0
   -1.1496   -0.1560   -1.2579 O   0  0  0  0  0  0  0  0  0  0  0  0
    3.4104    0.2187   -1.1506 H   0  0  0  0  0  0  0  0  0  0  0  0
    2.6650    1.7434   -0.5584 H   0  0  0  0  0  0  0  0  0  0  0  0
    3.1745    0.4917    0.6196 H   0  0  0  0  0  0  0  0  0  0  0  0
    0.3935    1.5082    0.2619 H   0  0  0  0  0  0  0  0  0  0  0  0
    0.8673    0.2068    1.3746 H   0  0  0  0  0  0  0  0  0  0  0  0
   -0.9116   -2.4812   -0.3209 H   0  0  0  0  0  0  0  0  0  0  0  0
   -1.2863   -1.9545    1.3906 H   0  0  0  0  0  0  0  0  0  0  0  0
    0.3986   -2.0110    0.8423 H   0  0  0  0  0  0  0  0  0  0  0  0
   -2.8218   -0.5215    0.4451 H   0  0  0  0  0  0  0  0  0  0  0  0
   -2.0112    0.8760    1.3929 H   0  0  0  0  0  0  0  0  0  0  0  0
  1  2  1  0
  2  3  1  0
  3  4  1  0
  4  5  1  0
  4  6  1  0
  6  7  1  0
  7  8  2  0
  7  9  1  0
  9  4  1  0
  1 10  1  0
  1 11  1  0
  1 12  1  0
  3 13  1  0
  3 14  1  0
  5 15  1  0
  5 16  1  0
  5 17  1  0
  6 18  1  0
  6 19  1  0
M  END
