
     RDKit          3D

 15 14  0  0  0  0  0  0  0  0999 V2000
   -2.9244   -1.0280   -0.5260 C   0  0  0  0  0  0  0  0  0  0  0  0
   -1.5379   -0.9065   -0.6195 O   0  0  0  0  0  0  0  0  0  0  0  0
   -1.0896    0.2569    0.0246 C   0  0  0  0  0  0  0  0  0  0  0  0
    0.3662    0.2986   -0.1250 C   0  0  0  0  0  0  0  0  0  0  0  0
    1.5835    0.3228   -0.2315 C   0  0  0  0  0  0  0  0  0  0  0  0
    3.0408    0.3628   -0.3822 C   0  0  0  0  0  0  0  0  0  0  0  0
    3.6144    1.2916    0.4888 O   0  0  0  0  0  0  0  0  0  0  0  0
   -3.1922   -1.0745    0.5502 H   0  0  0  0  0  0  0  0  0  0  0  0
   -3.4621   -0.2227   -1.0669 H   0  0  0  0  0  0  0  0  0  0  0  0
   -3.1912   -2.0077   -0.9723 H   0  0  0  0  0  0  0  0  0  0  0  0
   -1.5758    1.1036   -0.5420 H   0  0  0  0  0  0  0  0  0  0  0  0
   -1.4122    0.3073    1.0666 H   0  0  0  0  0  0  0  0  0  0  0  0
    3.4708   -0.6361   -0.0752 H   0  0  0  0  0  0  0  0  0  0  0  0
    3.2539    0.5862   -1.4389 H   0  0  0  0  0  0  0  0  0  0  0  0
    3.0558    1.3455    1.3292 H   0  0  0  0  0  0  0  0  0  0  0  0
  1  2  1  0
  2  3  1  0
  3  4  1  0
  4  5  3  0
  5  6  1  0
  6  7  1  0
  1  8  1  0
  1  9  1  0
  1 10  1  0
  3 11  1  0
  3 12  1  0
  6 13  1  0
  6 14  1  0
  7 15  1  0
M  END
