
     RDKit          3D

 21 22  0  0  0  0  0  0  0  0999 V2000
    2.4650   -0.2665    1.0792 C   0  0  0  0  0  0  0  0  0  0  0  0
    1.5743    0.7796    1.2197 O   0  0  0  0  0  0  0  0  0  0  0  0
    1.0581    1.1592   -0.0059 C   0  0  0  0  0  0  0  0  0  0  0  0
    0.3013    0.0737   -0.7282 C   0  0  0  0  0  0  0  0  0  0  0  0
   -0.8153   -0.3964    0.1367 C   0  0  0  0  0  0  0  0  0  0  0  0
   -1.6427   -1.4917   -0.4976 C   0  0  0  0  0  0  0  0  0  0  0  0
   -2.8218   -0.9937    0.0007 O   0  0  0  0  0  0  0  0  0  0  0  0
   -2.2056    0.2609    0.0360 C   0  0  0  0  0  0  0  0  0  0  0  0
   -1.3197    0.4574    1.1976 C   0  0  0  0  0  0  0  0  0  0  0  0
    2.0357   -1.1755    0.6570 H   0  0  0  0  0  0  0  0  0  0  0  0
    2.8359   -0.5155    2.1026 H   0  0  0  0  0  0  0  0  0  0  0  0
    3.3143    0.1210    0.4575 H   0  0  0  0  0  0  0  0  0  0  0  0
    0.4422    2.0759    0.1528 H   0  0  0  0  0  0  0  0  0  0  0  0
    1.9001    1.5169   -0.6919 H   0  0  0  0  0  0  0  0  0  0  0  0
    1.0296   -0.7322   -0.9926 H   0  0  0  0  0  0  0  0  0  0  0  0
   -0.0870    0.5512   -1.6813 H   0  0  0  0  0  0  0  0  0  0  0  0
   -1.3650   -2.5185   -0.2182 H   0  0  0  0  0  0  0  0  0  0  0  0
   -1.6430   -1.3962   -1.6034 H   0  0  0  0  0  0  0  0  0  0  0  0
   -2.3743    0.9920   -0.7459 H   0  0  0  0  0  0  0  0  0  0  0  0
   -0.9697    1.4859    1.3623 H   0  0  0  0  0  0  0  0  0  0  0  0
   -1.7124    0.0125    2.1503 H   0  0  0  0  0  0  0  0  0  0  0  0
  1  2  1  0
  2  3  1  0
  3  4  1  0
  4  5  1  0
  5  6  1  0
  6  7  1  0
  7  8  1  0
  8  9  1  0
  8  5  1  0
  9  5  1  0
  1 10  1  0
  1 11  1  0
  1 12  1  0
  3 13  1  0
  3 14  1  0
  4 15  1  0
  4 16  1  0
  6 17  1  0
  6 18  1  0
  8 19  1  0
  9 20  1  0
  9 21  1  0
M  END
