
     RDKit          3D

 21 20  0  0  0  0  0  0  0  0999 V2000
    3.4903   -0.1957   -0.7618 C   0  0  0  0  0  0  0  0  0  0  0  0
    2.3187   -0.6337   -0.1787 O   0  0  0  0  0  0  0  0  0  0  0  0
    1.2133    0.0996   -0.5220 C   0  0  0  0  0  0  0  0  0  0  0  0
    0.0272   -0.4618    0.1601 C   0  0  0  0  0  0  0  0  0  0  0  0
    0.1411   -1.4251    0.8872 O   0  0  0  0  0  0  0  0  0  0  0  0
   -1.3156    0.1411   -0.0326 C   0  0  0  0  0  0  0  0  0  0  0  0
   -2.2885   -0.8842   -0.5832 C   0  0  0  0  0  0  0  0  0  0  0  0
   -1.8280    0.5417    1.3332 C   0  0  0  0  0  0  0  0  0  0  0  0
   -1.2164    1.2159   -0.8901 O   0  0  0  0  0  0  0  0  0  0  0  0
    4.3022   -0.8875   -0.3902 H   0  0  0  0  0  0  0  0  0  0  0  0
    3.4849   -0.2406   -1.8671 H   0  0  0  0  0  0  0  0  0  0  0  0
    3.7995    0.8171   -0.3804 H   0  0  0  0  0  0  0  0  0  0  0  0
    1.0652    0.0734   -1.6411 H   0  0  0  0  0  0  0  0  0  0  0  0
    1.3405    1.1963   -0.2988 H   0  0  0  0  0  0  0  0  0  0  0  0
   -3.0938   -0.3229   -1.1019 H   0  0  0  0  0  0  0  0  0  0  0  0
   -2.7755   -1.4509    0.2325 H   0  0  0  0  0  0  0  0  0  0  0  0
   -1.8106   -1.5324   -1.3376 H   0  0  0  0  0  0  0  0  0  0  0  0
   -1.4810    1.5628    1.5416 H   0  0  0  0  0  0  0  0  0  0  0  0
   -2.9305    0.5271    1.3951 H   0  0  0  0  0  0  0  0  0  0  0  0
   -1.4492   -0.2047    2.0579 H   0  0  0  0  0  0  0  0  0  0  0  0
   -0.9937    2.0647   -0.4031 H   0  0  0  0  0  0  0  0  0  0  0  0
  1  2  1  0
  2  3  1  0
  3  4  1  0
  4  5  2  0
  4  6  1  0
  6  7  1  0
  6  8  1  0
  6  9  1  0
  1 10  1  0
  1 11  1  0
  1 12  1  0
  3 13  1  0
  3 14  1  0
  7 15  1  0
  7 16  1  0
  7 17  1  0
  8 18  1  0
  8 19  1  0
  8 20  1  0
  9 21  1  0
M  END
