
     RDKit          3D

 19 19  0  0  0  0  0  0  0  0999 V2000
   -2.8737   -0.3050   -0.9326 C   0  0  0  0  0  0  0  0  0  0  0  0
   -1.9405   -1.1258   -0.3496 O   0  0  0  0  0  0  0  0  0  0  0  0
   -1.2450   -0.5571    0.7116 C   0  0  0  0  0  0  0  0  0  0  0  0
   -0.4721    0.6631    0.3306 C   0  0  0  0  0  0  0  0  0  0  0  0
    0.2289    1.1830    1.4915 O   0  0  0  0  0  0  0  0  0  0  0  0
    0.9385    0.8550    0.3477 C   0  0  0  0  0  0  0  0  0  0  0  0
    1.9123   -0.2409    0.3478 C   0  0  0  0  0  0  0  0  0  0  0  0
    3.2384   -0.1386   -0.2954 C   0  0  0  0  0  0  0  0  0  0  0  0
    1.6274   -1.2765    0.8951 O   0  0  0  0  0  0  0  0  0  0  0  0
   -2.5200    0.6210   -1.3693 H   0  0  0  0  0  0  0  0  0  0  0  0
   -3.3590   -0.8886   -1.7465 H   0  0  0  0  0  0  0  0  0  0  0  0
   -3.7065   -0.0344   -0.2354 H   0  0  0  0  0  0  0  0  0  0  0  0
   -0.6626   -1.3573    1.1854 H   0  0  0  0  0  0  0  0  0  0  0  0
   -2.0545   -0.3228    1.4728 H   0  0  0  0  0  0  0  0  0  0  0  0
   -1.1118    1.4369   -0.1802 H   0  0  0  0  0  0  0  0  0  0  0  0
    1.3209    1.7755   -0.1886 H   0  0  0  0  0  0  0  0  0  0  0  0
    3.0460    0.0171   -1.3972 H   0  0  0  0  0  0  0  0  0  0  0  0
    3.8197   -1.0541   -0.2144 H   0  0  0  0  0  0  0  0  0  0  0  0
    3.8134    0.7494    0.0452 H   0  0  0  0  0  0  0  0  0  0  0  0
  1  2  1  0
  2  3  1  0
  3  4  1  0
  4  5  1  0
  5  6  1  0
  6  7  1  0
  7  8  1  0
  7  9  2  0
  6  4  1  0
  1 10  1  0
  1 11  1  0
  1 12  1  0
  3 13  1  0
  3 14  1  0
  4 15  1  0
  6 16  1  0
  8 17  1  0
  8 18  1  0
  8 19  1  0
M  END
