
     RDKit          3D

 23 23  0  0  0  0  0  0  0  0999 V2000
    3.7733    0.0273    0.9540 C   0  0  0  0  0  0  0  0  0  0  0  0
    2.4291    0.4484    0.9694 O   0  0  0  0  0  0  0  0  0  0  0  0
    1.8266    0.2151   -0.2665 C   0  0  0  0  0  0  0  0  0  0  0  0
    0.4073    0.6876   -0.1683 C   0  0  0  0  0  0  0  0  0  0  0  0
   -0.4088   -0.0189    0.9014 C   0  0  0  0  0  0  0  0  0  0  0  0
   -0.7398   -0.1351   -0.5705 C   0  0  0  0  0  0  0  0  0  0  0  0
   -1.9755    0.6062   -1.0376 C   0  0  0  0  0  0  0  0  0  0  0  0
   -3.0013   -0.2764   -1.3942 O   0  0  0  0  0  0  0  0  0  0  0  0
   -3.3070   -1.0286   -0.2637 C   0  0  0  0  0  0  0  0  0  0  0  0
    4.2729    0.6180    0.1599 H   0  0  0  0  0  0  0  0  0  0  0  0
    4.2209    0.1154    1.9428 H   0  0  0  0  0  0  0  0  0  0  0  0
    3.8445   -1.0465    0.6215 H   0  0  0  0  0  0  0  0  0  0  0  0
    2.4149    0.7240   -1.0350 H   0  0  0  0  0  0  0  0  0  0  0  0
    1.8268   -0.8906   -0.4048 H   0  0  0  0  0  0  0  0  0  0  0  0
    0.3046    1.7967   -0.2414 H   0  0  0  0  0  0  0  0  0  0  0  0
   -1.0639    0.5974    1.5512 H   0  0  0  0  0  0  0  0  0  0  0  0
    0.0121   -0.8945    1.4167 H   0  0  0  0  0  0  0  0  0  0  0  0
   -0.6284   -1.1593   -0.9778 H   0  0  0  0  0  0  0  0  0  0  0  0
   -2.2694    1.3170   -0.2548 H   0  0  0  0  0  0  0  0  0  0  0  0
   -1.7479    1.2176   -1.9452 H   0  0  0  0  0  0  0  0  0  0  0  0
   -3.6370   -0.3306    0.5403 H   0  0  0  0  0  0  0  0  0  0  0  0
   -2.4363   -1.6336    0.0314 H   0  0  0  0  0  0  0  0  0  0  0  0
   -4.1176   -1.7505   -0.5287 H   0  0  0  0  0  0  0  0  0  0  0  0
  1  2  1  0
  2  3  1  0
  3  4  1  0
  4  5  1  0
  5  6  1  0
  6  7  1  0
  7  8  1  0
  8  9  1  0
  6  4  1  0
  1 10  1  0
  1 11  1  0
  1 12  1  0
  3 13  1  0
  3 14  1  0
  4 15  1  0
  5 16  1  0
  5 17  1  0
  6 18  1  0
  7 19  1  0
  7 20  1  0
  9 21  1  0
  9 22  1  0
  9 23  1  0
M  END
