
     RDKit          3D

 21 21  0  0  0  0  0  0  0  0999 V2000
    3.4035   -0.0322   -0.1150 C   0  0  0  0  0  0  0  0  0  0  0  0
    2.4374   -0.3325    0.8016 O   0  0  0  0  0  0  0  0  0  0  0  0
    1.1899   -0.5176    0.2484 C   0  0  0  0  0  0  0  0  0  0  0  0
    0.7522    0.7452   -0.4447 C   0  0  0  0  0  0  0  0  0  0  0  0
   -0.5124    0.6177   -1.0177 O   0  0  0  0  0  0  0  0  0  0  0  0
   -1.4708    0.3787   -0.0632 C   0  0  0  0  0  0  0  0  0  0  0  0
   -2.8658    0.8548   -0.2526 C   0  0  0  0  0  0  0  0  0  0  0  0
   -2.6185   -0.5760   -0.4381 C   0  0  0  0  0  0  0  0  0  0  0  0
   -2.8965   -1.5309    0.5127 O   0  0  0  0  0  0  0  0  0  0  0  0
    4.3700    0.0514    0.4909 H   0  0  0  0  0  0  0  0  0  0  0  0
    3.4613   -0.8153   -0.8727 H   0  0  0  0  0  0  0  0  0  0  0  0
    3.3285    1.0049   -0.5460 H   0  0  0  0  0  0  0  0  0  0  0  0
    0.4699   -0.8151    1.0552 H   0  0  0  0  0  0  0  0  0  0  0  0
    1.1863   -1.3813   -0.4746 H   0  0  0  0  0  0  0  0  0  0  0  0
    0.7532    1.5503    0.3298 H   0  0  0  0  0  0  0  0  0  0  0  0
    1.5063    1.0062   -1.2296 H   0  0  0  0  0  0  0  0  0  0  0  0
   -1.1278    0.3440    0.9919 H   0  0  0  0  0  0  0  0  0  0  0  0
   -3.0868    1.4661   -1.1762 H   0  0  0  0  0  0  0  0  0  0  0  0
   -3.4047    1.2640    0.6263 H   0  0  0  0  0  0  0  0  0  0  0  0
   -2.5622   -0.9515   -1.4862 H   0  0  0  0  0  0  0  0  0  0  0  0
   -2.3131   -2.3311    0.3673 H   0  0  0  0  0  0  0  0  0  0  0  0
  1  2  1  0
  2  3  1  0
  3  4  1  0
  4  5  1  0
  5  6  1  0
  6  7  1  0
  7  8  1  0
  8  9  1  0
  8  6  1  0
  1 10  1  0
  1 11  1  0
  1 12  1  0
  3 13  1  0
  3 14  1  0
  4 15  1  0
  4 16  1  0
  6 17  1  0
  7 18  1  0
  7 19  1  0
  8 20  1  0
  9 21  1  0
M  END
