
     RDKit          3D

 18 17  0  0  0  0  0  0  0  0999 V2000
    3.4311   -0.1564   -0.3039 C   0  0  0  0  0  0  0  0  0  0  0  0
    2.3573    0.0152    0.5354 O   0  0  0  0  0  0  0  0  0  0  0  0
    1.1659   -0.0542   -0.1623 C   0  0  0  0  0  0  0  0  0  0  0  0
   -0.0216    0.1337    0.7542 C   0  0  0  0  0  0  0  0  0  0  0  0
   -1.2787    0.0564   -0.0072 C   0  0  0  0  0  0  0  0  0  0  0  0
   -1.2142   -0.1436   -1.2475 O   0  0  0  0  0  0  0  0  0  0  0  0
   -2.5337    0.1984    0.6068 O   0  0  0  0  0  0  0  0  0  0  0  0
   -3.6679    0.1042   -0.2343 C   0  0  0  0  0  0  0  0  0  0  0  0
    4.3824   -0.1009    0.2542 H   0  0  0  0  0  0  0  0  0  0  0  0
    3.4343    0.6439   -1.0668 H   0  0  0  0  0  0  0  0  0  0  0  0
    3.3745   -1.1314   -0.8288 H   0  0  0  0  0  0  0  0  0  0  0  0
    1.1126   -1.0905   -0.5930 H   0  0  0  0  0  0  0  0  0  0  0  0
    1.1658    0.6964   -0.9831 H   0  0  0  0  0  0  0  0  0  0  0  0
    0.0607   -0.6378    1.5441 H   0  0  0  0  0  0  0  0  0  0  0  0
    0.0298    1.1734    1.1835 H   0  0  0  0  0  0  0  0  0  0  0  0
   -4.5935   -0.1467    0.3237 H   0  0  0  0  0  0  0  0  0  0  0  0
   -3.4373   -0.6535   -1.0126 H   0  0  0  0  0  0  0  0  0  0  0  0
   -3.7678    1.0934   -0.7562 H   0  0  0  0  0  0  0  0  0  0  0  0
  1  2  1  0
  2  3  1  0
  3  4  1  0
  4  5  1  0
  5  6  2  0
  5  7  1  0
  7  8  1  0
  1  9  1  0
  1 10  1  0
  1 11  1  0
  3 12  1  0
  3 13  1  0
  4 14  1  0
  4 15  1  0
  8 16  1  0
  8 17  1  0
  8 18  1  0
M  END
