
     RDKit          3D

 21 22  0  0  0  0  0  0  0  0999 V2000
    3.0382    0.5035   -0.0338 C   0  0  0  0  0  0  0  0  0  0  0  0
    1.6747    0.7004    0.2663 O   0  0  0  0  0  0  0  0  0  0  0  0
    0.9730   -0.3457   -0.3008 C   0  0  0  0  0  0  0  0  0  0  0  0
   -0.4420   -0.2747   -0.0732 C   0  0  0  0  0  0  0  0  0  0  0  0
   -1.3841   -1.2926   -0.5911 C   0  0  0  0  0  0  0  0  0  0  0  0
   -2.6203   -0.7641   -0.1306 O   0  0  0  0  0  0  0  0  0  0  0  0
   -2.2292    0.4092    0.4764 C   0  0  0  0  0  0  0  0  0  0  0  0
   -0.9986   -0.0028    1.3064 C   0  0  0  0  0  0  0  0  0  0  0  0
   -1.1740    1.0191   -0.4647 C   0  0  0  0  0  0  0  0  0  0  0  0
    3.2180    0.4874   -1.1241 H   0  0  0  0  0  0  0  0  0  0  0  0
    3.6732    1.2790    0.4577 H   0  0  0  0  0  0  0  0  0  0  0  0
    3.3207   -0.4860    0.3977 H   0  0  0  0  0  0  0  0  0  0  0  0
    1.3857   -1.2927    0.0649 H   0  0  0  0  0  0  0  0  0  0  0  0
    1.1769   -0.3234   -1.4019 H   0  0  0  0  0  0  0  0  0  0  0  0
   -1.2290   -2.3162   -0.2302 H   0  0  0  0  0  0  0  0  0  0  0  0
   -1.4243   -1.2447   -1.7175 H   0  0  0  0  0  0  0  0  0  0  0  0
   -2.9240    1.0648    0.9248 H   0  0  0  0  0  0  0  0  0  0  0  0
   -0.5333    0.8091    1.8632 H   0  0  0  0  0  0  0  0  0  0  0  0
   -1.2448   -0.9264    1.8354 H   0  0  0  0  0  0  0  0  0  0  0  0
   -1.4935    1.0695   -1.5032 H   0  0  0  0  0  0  0  0  0  0  0  0
   -0.7633    1.9274   -0.0218 H   0  0  0  0  0  0  0  0  0  0  0  0
  1  2  1  0
  2  3  1  0
  3  4  1  0
  4  5  1  0
  5  6  1  0
  6  7  1  0
  7  8  1  0
  7  9  1  0
  8  4  1  0
  9  4  1  0
  1 10  1  0
  1 11  1  0
  1 12  1  0
  3 13  1  0
  3 14  1  0
  5 15  1  0
  5 16  1  0
  7 17  1  0
  8 18  1  0
  8 19  1  0
  9 20  1  0
  9 21  1  0
M  END
