
     RDKit          3D

 21 21  0  0  0  0  0  0  0  0999 V2000
    3.3852   -0.1833   -0.4578 C   0  0  0  0  0  0  0  0  0  0  0  0
    2.2524   -0.3581    0.2996 O   0  0  0  0  0  0  0  0  0  0  0  0
    1.0838   -0.0165   -0.3247 C   0  0  0  0  0  0  0  0  0  0  0  0
   -0.0654   -0.2583    0.6173 C   0  0  0  0  0  0  0  0  0  0  0  0
   -1.3815    0.4556    0.3541 C   0  0  0  0  0  0  0  0  0  0  0  0
   -2.0604   -0.2904   -0.6033 O   0  0  0  0  0  0  0  0  0  0  0  0
   -3.2901    0.2841   -0.9174 C   0  0  0  0  0  0  0  0  0  0  0  0
    0.2655   -0.5277    2.0116 C   0  0  0  0  0  0  0  0  0  0  0  0
   -0.2655   -1.5655    1.0917 O   0  0  0  0  0  0  0  0  0  0  0  0
    3.4086   -0.7681   -1.3934 H   0  0  0  0  0  0  0  0  0  0  0  0
    3.5693    0.8879   -0.7159 H   0  0  0  0  0  0  0  0  0  0  0  0
    4.2555   -0.5029    0.1628 H   0  0  0  0  0  0  0  0  0  0  0  0
    0.9303   -0.5309   -1.2968 H   0  0  0  0  0  0  0  0  0  0  0  0
    1.1248    1.0805   -0.5342 H   0  0  0  0  0  0  0  0  0  0  0  0
   -1.9804    0.4685    1.2759 H   0  0  0  0  0  0  0  0  0  0  0  0
   -1.2022    1.4790   -0.0276 H   0  0  0  0  0  0  0  0  0  0  0  0
   -3.0750    1.3175   -1.3170 H   0  0  0  0  0  0  0  0  0  0  0  0
   -3.8007   -0.2472   -1.7401 H   0  0  0  0  0  0  0  0  0  0  0  0
   -3.9471    0.4186   -0.0466 H   0  0  0  0  0  0  0  0  0  0  0  0
   -0.4513   -0.2869    2.8238 H   0  0  0  0  0  0  0  0  0  0  0  0
    1.2442   -0.8559    2.3650 H   0  0  0  0  0  0  0  0  0  0  0  0
  1  2  1  0
  2  3  1  0
  3  4  1  0
  4  5  1  0
  5  6  1  0
  6  7  1  0
  4  8  1  0
  8  9  1  0
  9  4  1  0
  1 10  1  0
  1 11  1  0
  1 12  1  0
  3 13  1  0
  3 14  1  0
  5 15  1  0
  5 16  1  0
  7 17  1  0
  7 18  1  0
  7 19  1  0
  8 20  1  0
  8 21  1  0
M  END
