
     RDKit          3D

 21 21  0  0  0  0  0  0  0  0999 V2000
    3.0004   -0.3099   -0.1529 C   0  0  0  0  0  0  0  0  0  0  0  0
    1.7371    0.1773   -0.4341 O   0  0  0  0  0  0  0  0  0  0  0  0
    0.7411   -0.3826    0.3258 C   0  0  0  0  0  0  0  0  0  0  0  0
   -0.5712    0.2714   -0.1202 C   0  0  0  0  0  0  0  0  0  0  0  0
   -0.5740    1.7737    0.0770 C   0  0  0  0  0  0  0  0  0  0  0  0
   -1.8043   -0.3462    0.4712 C   0  0  0  0  0  0  0  0  0  0  0  0
   -2.0132   -1.0091   -0.8590 C   0  0  0  0  0  0  0  0  0  0  0  0
   -0.9753   -0.1255   -1.4856 C   0  0  0  0  0  0  0  0  0  0  0  0
   -0.5937    0.1704   -2.6000 O   0  0  0  0  0  0  0  0  0  0  0  0
    3.7111    0.2217   -0.8325 H   0  0  0  0  0  0  0  0  0  0  0  0
    3.3317   -0.0859    0.8781 H   0  0  0  0  0  0  0  0  0  0  0  0
    3.0674   -1.4148   -0.3400 H   0  0  0  0  0  0  0  0  0  0  0  0
    0.6146   -1.4720    0.0711 H   0  0  0  0  0  0  0  0  0  0  0  0
    0.8785   -0.2805    1.4174 H   0  0  0  0  0  0  0  0  0  0  0  0
    0.0867    2.2914   -0.6383 H   0  0  0  0  0  0  0  0  0  0  0  0
   -0.1489    1.9403    1.1085 H   0  0  0  0  0  0  0  0  0  0  0  0
   -1.6002    2.1417   -0.0182 H   0  0  0  0  0  0  0  0  0  0  0  0
   -1.5658   -1.0300    1.3174 H   0  0  0  0  0  0  0  0  0  0  0  0
   -2.5825    0.3907    0.7764 H   0  0  0  0  0  0  0  0  0  0  0  0
   -1.7073   -2.0830   -0.7895 H   0  0  0  0  0  0  0  0  0  0  0  0
   -3.0325   -0.8389   -1.2377 H   0  0  0  0  0  0  0  0  0  0  0  0
  1  2  1  0
  2  3  1  0
  3  4  1  0
  4  5  1  0
  4  6  1  0
  6  7  1  0
  7  8  1  0
  8  9  2  0
  8  4  1  0
  1 10  1  0
  1 11  1  0
  1 12  1  0
  3 13  1  0
  3 14  1  0
  5 15  1  0
  5 16  1  0
  5 17  1  0
  6 18  1  0
  6 19  1  0
  7 20  1  0
  7 21  1  0
M  END
