
     RDKit          3D

 21 21  0  0  0  0  0  0  0  0999 V2000
    3.6123    0.2721   -0.1622 C   0  0  0  0  0  0  0  0  0  0  0  0
    2.4811   -0.5305   -0.1790 O   0  0  0  0  0  0  0  0  0  0  0  0
    1.3166    0.1933   -0.0432 C   0  0  0  0  0  0  0  0  0  0  0  0
    0.1632   -0.8147   -0.0790 C   0  0  0  0  0  0  0  0  0  0  0  0
   -1.0974   -0.0026    0.0707 C   0  0  0  0  0  0  0  0  0  0  0  0
   -2.3791   -0.8315    0.0602 C   0  0  0  0  0  0  0  0  0  0  0  0
   -2.9594    0.3916   -0.6633 C   0  0  0  0  0  0  0  0  0  0  0  0
   -1.5903    0.6402   -1.1671 C   0  0  0  0  0  0  0  0  0  0  0  0
   -1.0843    1.1365   -2.1373 O   0  0  0  0  0  0  0  0  0  0  0  0
    3.5438    0.9873   -1.0024 H   0  0  0  0  0  0  0  0  0  0  0  0
    3.7162    0.8293    0.8053 H   0  0  0  0  0  0  0  0  0  0  0  0
    4.4875   -0.3959   -0.3323 H   0  0  0  0  0  0  0  0  0  0  0  0
    1.2711    0.7801    0.9024 H   0  0  0  0  0  0  0  0  0  0  0  0
    1.2442    0.9111   -0.8649 H   0  0  0  0  0  0  0  0  0  0  0  0
    0.2751   -1.5033    0.7803 H   0  0  0  0  0  0  0  0  0  0  0  0
    0.2179   -1.3316   -1.0558 H   0  0  0  0  0  0  0  0  0  0  0  0
   -1.1126    0.6859    0.9297 H   0  0  0  0  0  0  0  0  0  0  0  0
   -2.3320   -1.7124   -0.6212 H   0  0  0  0  0  0  0  0  0  0  0  0
   -2.8190   -1.0109    1.0515 H   0  0  0  0  0  0  0  0  0  0  0  0
   -3.7279    0.1611   -1.4046 H   0  0  0  0  0  0  0  0  0  0  0  0
   -3.2269    1.1450    0.1043 H   0  0  0  0  0  0  0  0  0  0  0  0
  1  2  1  0
  2  3  1  0
  3  4  1  0
  4  5  1  0
  5  6  1  0
  6  7  1  0
  7  8  1  0
  8  9  2  0
  8  5  1  0
  1 10  1  0
  1 11  1  0
  1 12  1  0
  3 13  1  0
  3 14  1  0
  4 15  1  0
  4 16  1  0
  5 17  1  0
  6 18  1  0
  6 19  1  0
  7 20  1  0
  7 21  1  0
M  END
