
     RDKit          3D

 21 22  0  0  0  0  0  0  0  0999 V2000
    3.1052    0.4506   -0.2703 C   0  0  0  0  0  0  0  0  0  0  0  0
    1.8022    0.3123   -0.6895 O   0  0  0  0  0  0  0  0  0  0  0  0
    1.0549   -0.5445    0.1102 C   0  0  0  0  0  0  0  0  0  0  0  0
   -0.3372   -0.5943   -0.4687 C   0  0  0  0  0  0  0  0  0  0  0  0
   -1.2963   -1.4982    0.2957 C   0  0  0  0  0  0  0  0  0  0  0  0
   -2.3584   -0.4231    0.0147 C   0  0  0  0  0  0  0  0  0  0  0  0
   -1.2343    0.5425   -0.1520 C   0  0  0  0  0  0  0  0  0  0  0  0
   -1.2460    1.8310   -0.5975 C   0  0  0  0  0  0  0  0  0  0  0  0
   -0.9523    1.4726    0.8091 O   0  0  0  0  0  0  0  0  0  0  0  0
    3.6145    1.1419   -0.9588 H   0  0  0  0  0  0  0  0  0  0  0  0
    3.1159    0.8102    0.7730 H   0  0  0  0  0  0  0  0  0  0  0  0
    3.5820   -0.5643   -0.3408 H   0  0  0  0  0  0  0  0  0  0  0  0
    1.0812   -0.2884    1.1652 H   0  0  0  0  0  0  0  0  0  0  0  0
    1.4896   -1.5702   -0.0244 H   0  0  0  0  0  0  0  0  0  0  0  0
   -0.3800   -0.8664   -1.5422 H   0  0  0  0  0  0  0  0  0  0  0  0
   -1.5097   -2.4610   -0.1868 H   0  0  0  0  0  0  0  0  0  0  0  0
   -1.0749   -1.5801    1.3743 H   0  0  0  0  0  0  0  0  0  0  0  0
   -3.0482   -0.2616    0.8586 H   0  0  0  0  0  0  0  0  0  0  0  0
   -2.8406   -0.6899   -0.9597 H   0  0  0  0  0  0  0  0  0  0  0  0
   -2.1836    2.4428   -0.6899 H   0  0  0  0  0  0  0  0  0  0  0  0
   -0.3839    2.3381   -1.0631 H   0  0  0  0  0  0  0  0  0  0  0  0
  1  2  1  0
  2  3  1  0
  3  4  1  0
  4  5  1  0
  5  6  1  0
  6  7  1  0
  7  8  1  0
  8  9  1  0
  7  4  1  0
  9  7  1  0
  1 10  1  0
  1 11  1  0
  1 12  1  0
  3 13  1  0
  3 14  1  0
  4 15  1  0
  5 16  1  0
  5 17  1  0
  6 18  1  0
  6 19  1  0
  8 20  1  0
  8 21  1  0
M  END
