
     RDKit          3D

 17 17  0  0  0  0  0  0  0  0999 V2000
    2.7128    0.5335    0.3335 C   0  0  0  0  0  0  0  0  0  0  0  0
    1.3137    0.5344    0.4939 O   0  0  0  0  0  0  0  0  0  0  0  0
    0.7946   -0.2680   -0.4890 C   0  0  0  0  0  0  0  0  0  0  0  0
   -0.7024   -0.3736   -0.4560 C   0  0  0  0  0  0  0  0  0  0  0  0
   -1.3291    0.8558   -0.6116 O   0  0  0  0  0  0  0  0  0  0  0  0
   -2.6484    0.5263   -0.2325 C   0  0  0  0  0  0  0  0  0  0  0  0
   -2.5221   -0.2863    0.9231 O   0  0  0  0  0  0  0  0  0  0  0  0
   -1.2180   -0.8148    0.8607 C   0  0  0  0  0  0  0  0  0  0  0  0
   -0.6252   -1.5061    1.7288 O   0  0  0  0  0  0  0  0  0  0  0  0
    2.9934    0.9274   -0.6697 H   0  0  0  0  0  0  0  0  0  0  0  0
    3.2119    1.1940    1.0684 H   0  0  0  0  0  0  0  0  0  0  0  0
    3.1087   -0.5080    0.3678 H   0  0  0  0  0  0  0  0  0  0  0  0
    1.2260   -1.2801   -0.4446 H   0  0  0  0  0  0  0  0  0  0  0  0
    1.0670    0.1745   -1.4760 H   0  0  0  0  0  0  0  0  0  0  0  0
   -1.0562   -1.0747   -1.2081 H   0  0  0  0  0  0  0  0  0  0  0  0
   -3.0581   -0.0477   -1.1022 H   0  0  0  0  0  0  0  0  0  0  0  0
   -3.2684    1.4134   -0.0694 H   0  0  0  0  0  0  0  0  0  0  0  0
  1  2  1  0
  2  3  1  0
  3  4  1  0
  4  5  1  0
  5  6  1  0
  6  7  1  0
  7  8  1  0
  8  9  2  0
  8  4  1  0
  1 10  1  0
  1 11  1  0
  1 12  1  0
  3 13  1  0
  3 14  1  0
  4 15  1  0
  6 16  1  0
  6 17  1  0
M  END
