
     RDKit          3D

 19 19  0  0  0  0  0  0  0  0999 V2000
    2.7735    0.1623   -0.2017 C   0  0  0  0  0  0  0  0  0  0  0  0
    1.4558    0.4867    0.1274 O   0  0  0  0  0  0  0  0  0  0  0  0
    0.5620   -0.5077   -0.2849 C   0  0  0  0  0  0  0  0  0  0  0  0
   -0.8109   -0.0332    0.1293 C   0  0  0  0  0  0  0  0  0  0  0  0
   -1.1286    1.2763   -0.5312 C   0  0  0  0  0  0  0  0  0  0  0  0
   -1.9048   -1.0608    0.0516 C   0  0  0  0  0  0  0  0  0  0  0  0
   -2.3987   -0.4881    1.2495 O   0  0  0  0  0  0  0  0  0  0  0  0
   -1.0927   -0.1345    1.5645 C   0  0  0  0  0  0  0  0  0  0  0  0
   -0.4817    0.0153    2.6531 O   0  0  0  0  0  0  0  0  0  0  0  0
    3.3978    1.0069    0.1648 H   0  0  0  0  0  0  0  0  0  0  0  0
    3.1066   -0.7585    0.3259 H   0  0  0  0  0  0  0  0  0  0  0  0
    2.8969    0.0584   -1.2869 H   0  0  0  0  0  0  0  0  0  0  0  0
    0.5923   -0.5059   -1.3932 H   0  0  0  0  0  0  0  0  0  0  0  0
    0.8225   -1.4897    0.1577 H   0  0  0  0  0  0  0  0  0  0  0  0
   -1.3816    1.9971    0.2928 H   0  0  0  0  0  0  0  0  0  0  0  0
   -1.9814    1.1978   -1.2564 H   0  0  0  0  0  0  0  0  0  0  0  0
   -0.2326    1.7105   -1.0581 H   0  0  0  0  0  0  0  0  0  0  0  0
   -2.5768   -0.8250   -0.8001 H   0  0  0  0  0  0  0  0  0  0  0  0
   -1.6175   -2.1080    0.0958 H   0  0  0  0  0  0  0  0  0  0  0  0
  1  2  1  0
  2  3  1  0
  3  4  1  0
  4  5  1  0
  4  6  1  0
  6  7  1  0
  7  8  1  0
  8  9  2  0
  8  4  1  0
  1 10  1  0
  1 11  1  0
  1 12  1  0
  3 13  1  0
  3 14  1  0
  5 15  1  0
  5 16  1  0
  5 17  1  0
  6 18  1  0
  6 19  1  0
M  END
