
     RDKit          3D

 21 21  0  0  0  0  0  0  0  0999 V2000
    3.1443    0.8912   -0.0250 C   0  0  0  0  0  0  0  0  0  0  0  0
    1.9571    0.6378   -0.7101 O   0  0  0  0  0  0  0  0  0  0  0  0
    1.2223   -0.3188    0.0084 C   0  0  0  0  0  0  0  0  0  0  0  0
   -0.0787   -0.6430   -0.6760 C   0  0  0  0  0  0  0  0  0  0  0  0
   -0.8418    0.5918   -1.0037 C   0  0  0  0  0  0  0  0  0  0  0  0
   -1.7844    0.9598    0.0996 C   0  0  0  0  0  0  0  0  0  0  0  0
   -2.4282   -0.0503    0.6779 C   0  0  0  0  0  0  0  0  0  0  0  0
   -2.1105   -1.4162    0.1336 C   0  0  0  0  0  0  0  0  0  0  0  0
   -0.7499   -1.5769    0.0667 O   0  0  0  0  0  0  0  0  0  0  0  0
    3.7341    1.6479   -0.5858 H   0  0  0  0  0  0  0  0  0  0  0  0
    2.8832    1.2666    0.9868 H   0  0  0  0  0  0  0  0  0  0  0  0
    3.7539   -0.0407    0.1151 H   0  0  0  0  0  0  0  0  0  0  0  0
    1.8858   -1.2016    0.0975 H   0  0  0  0  0  0  0  0  0  0  0  0
    1.0389    0.1062    1.0205 H   0  0  0  0  0  0  0  0  0  0  0  0
    0.1881   -1.1362   -1.6563 H   0  0  0  0  0  0  0  0  0  0  0  0
   -1.4459    0.4464   -1.9461 H   0  0  0  0  0  0  0  0  0  0  0  0
   -0.1559    1.4780   -1.1093 H   0  0  0  0  0  0  0  0  0  0  0  0
   -1.9630    1.9540    0.4370 H   0  0  0  0  0  0  0  0  0  0  0  0
   -3.1338    0.0686    1.4820 H   0  0  0  0  0  0  0  0  0  0  0  0
   -2.6044   -1.5035   -0.8785 H   0  0  0  0  0  0  0  0  0  0  0  0
   -2.5109   -2.1608    0.8411 H   0  0  0  0  0  0  0  0  0  0  0  0
  1  2  1  0
  2  3  1  0
  3  4  1  0
  4  5  1  0
  5  6  1  0
  6  7  2  0
  7  8  1  0
  8  9  1  0
  9  4  1  0
  1 10  1  0
  1 11  1  0
  1 12  1  0
  3 13  1  0
  3 14  1  0
  4 15  1  0
  5 16  1  0
  5 17  1  0
  6 18  1  0
  7 19  1  0
  8 20  1  0
  8 21  1  0
M  END
