
     RDKit          3D

 16 15  0  0  0  0  0  0  0  0999 V2000
   -2.6201    0.2968    0.3848 C   0  0  0  0  0  0  0  0  0  0  0  0
   -1.3414    0.5712   -0.0999 O   0  0  0  0  0  0  0  0  0  0  0  0
   -0.6566   -0.6311   -0.1549 C   0  0  0  0  0  0  0  0  0  0  0  0
    0.7529   -0.4904   -0.6647 C   0  0  0  0  0  0  0  0  0  0  0  0
    1.5656    0.4101    0.1932 C   0  0  0  0  0  0  0  0  0  0  0  0
    1.0661    0.9553    1.2106 O   0  0  0  0  0  0  0  0  0  0  0  0
    2.9607    0.6917   -0.1117 C   0  0  0  0  0  0  0  0  0  0  0  0
    3.5233    0.1738   -1.1222 O   0  0  0  0  0  0  0  0  0  0  0  0
   -3.1885   -0.3987   -0.2399 H   0  0  0  0  0  0  0  0  0  0  0  0
   -3.1722    1.2640    0.5330 H   0  0  0  0  0  0  0  0  0  0  0  0
   -2.5758   -0.1684    1.4089 H   0  0  0  0  0  0  0  0  0  0  0  0
   -1.2331   -1.3009   -0.8228 H   0  0  0  0  0  0  0  0  0  0  0  0
   -0.6387   -1.0406    0.8753 H   0  0  0  0  0  0  0  0  0  0  0  0
    1.2107   -1.5046   -0.6493 H   0  0  0  0  0  0  0  0  0  0  0  0
    0.7842   -0.1633   -1.7232 H   0  0  0  0  0  0  0  0  0  0  0  0
    3.5630    1.3353    0.4905 H   0  0  0  0  0  0  0  0  0  0  0  0
  1  2  1  0
  2  3  1  0
  3  4  1  0
  4  5  1  0
  5  6  2  0
  5  7  1  0
  7  8  2  0
  1  9  1  0
  1 10  1  0
  1 11  1  0
  3 12  1  0
  3 13  1  0
  4 14  1  0
  4 15  1  0
  7 16  1  0
M  END
