
     RDKit          3D

 18 17  0  0  0  0  0  0  0  0999 V2000
   -2.9051    0.2321   -0.6833 C   0  0  0  0  0  0  0  0  0  0  0  0
   -1.5709    0.5960   -0.4477 O   0  0  0  0  0  0  0  0  0  0  0  0
   -1.1642   -0.0765    0.6978 C   0  0  0  0  0  0  0  0  0  0  0  0
    0.2694    0.2402    1.0524 C   0  0  0  0  0  0  0  0  0  0  0  0
    1.2224   -0.1512   -0.0539 C   0  0  0  0  0  0  0  0  0  0  0  0
    2.5495    0.1626    0.3192 O   0  0  0  0  0  0  0  0  0  0  0  0
    3.6395   -0.0858   -0.5019 C   0  0  0  0  0  0  0  0  0  0  0  0
    3.3847   -0.6170   -1.6229 O   0  0  0  0  0  0  0  0  0  0  0  0
   -2.9976   -0.8756   -0.8345 H   0  0  0  0  0  0  0  0  0  0  0  0
   -3.4963    0.4842    0.2406 H   0  0  0  0  0  0  0  0  0  0  0  0
   -3.3577    0.8113   -1.5047 H   0  0  0  0  0  0  0  0  0  0  0  0
   -1.2638   -1.1777    0.5109 H   0  0  0  0  0  0  0  0  0  0  0  0
   -1.8547    0.2143    1.5144 H   0  0  0  0  0  0  0  0  0  0  0  0
    0.5035   -0.2762    2.0033 H   0  0  0  0  0  0  0  0  0  0  0  0
    0.3397    1.3266    1.2527 H   0  0  0  0  0  0  0  0  0  0  0  0
    1.0955   -1.2616   -0.1860 H   0  0  0  0  0  0  0  0  0  0  0  0
    0.9494    0.2935   -1.0219 H   0  0  0  0  0  0  0  0  0  0  0  0
    4.6565    0.1608   -0.2024 H   0  0  0  0  0  0  0  0  0  0  0  0
  1  2  1  0
  2  3  1  0
  3  4  1  0
  4  5  1  0
  5  6  1  0
  6  7  1  0
  7  8  2  0
  1  9  1  0
  1 10  1  0
  1 11  1  0
  3 12  1  0
  3 13  1  0
  4 14  1  0
  4 15  1  0
  5 16  1  0
  5 17  1  0
  7 18  1  0
M  END
