
     RDKit          3D

 21 22  0  0  0  0  0  0  0  0999 V2000
    3.5376   -0.3908    0.5081 C   0  0  0  0  0  0  0  0  0  0  0  0
    2.1926   -0.7561    0.5527 O   0  0  0  0  0  0  0  0  0  0  0  0
    1.4476    0.3279    0.1754 C   0  0  0  0  0  0  0  0  0  0  0  0
   -0.0181    0.0618    0.1827 C   0  0  0  0  0  0  0  0  0  0  0  0
   -0.6962   -1.0419    0.4925 C   0  0  0  0  0  0  0  0  0  0  0  0
   -2.0941   -0.7549    0.3358 C   0  0  0  0  0  0  0  0  0  0  0  0
   -3.0427   -0.6977   -0.6903 C   0  0  0  0  0  0  0  0  0  0  0  0
   -1.9246    0.0846   -0.9755 C   0  0  0  0  0  0  0  0  0  0  0  0
   -1.0774    1.0821   -0.2410 C   0  0  0  0  0  0  0  0  0  0  0  0
    4.2238   -1.1860    0.7920 H   0  0  0  0  0  0  0  0  0  0  0  0
    3.7226    0.0162   -0.5181 H   0  0  0  0  0  0  0  0  0  0  0  0
    3.6387    0.5083    1.1824 H   0  0  0  0  0  0  0  0  0  0  0  0
    1.7411    0.6526   -0.8387 H   0  0  0  0  0  0  0  0  0  0  0  0
    1.7008    1.1773    0.8681 H   0  0  0  0  0  0  0  0  0  0  0  0
   -0.1998   -1.9641    0.8029 H   0  0  0  0  0  0  0  0  0  0  0  0
   -2.4236   -0.1709    1.2622 H   0  0  0  0  0  0  0  0  0  0  0  0
   -4.0326   -0.1816   -0.5502 H   0  0  0  0  0  0  0  0  0  0  0  0
   -3.2468   -1.6527   -1.2539 H   0  0  0  0  0  0  0  0  0  0  0  0
   -1.2474   -0.3646   -1.7724 H   0  0  0  0  0  0  0  0  0  0  0  0
   -0.6187    1.7949   -0.9374 H   0  0  0  0  0  0  0  0  0  0  0  0
   -1.5829    1.5080    0.6226 H   0  0  0  0  0  0  0  0  0  0  0  0
  1  2  1  0
  2  3  1  0
  3  4  1  0
  4  5  2  0
  5  6  1  0
  6  7  1  0
  7  8  1  0
  8  9  1  0
  9  4  1  0
  8  6  1  0
  1 10  1  0
  1 11  1  0
  1 12  1  0
  3 13  1  0
  3 14  1  0
  5 15  1  0
  6 16  1  0
  7 17  1  0
  7 18  1  0
  8 19  1  0
  9 20  1  0
  9 21  1  0
M  END
