
     RDKit          3D

 21 20  0  0  0  0  0  0  0  0999 V2000
    2.8916    0.0504    0.4309 C   0  0  0  0  0  0  0  0  0  0  0  0
    1.5441    0.2272    0.7875 O   0  0  0  0  0  0  0  0  0  0  0  0
    0.8048   -0.3311   -0.2780 C   0  0  0  0  0  0  0  0  0  0  0  0
   -0.6928   -0.1979   -0.0035 C   0  0  0  0  0  0  0  0  0  0  0  0
   -1.3964   -0.8200   -1.1918 C   0  0  0  0  0  0  0  0  0  0  0  0
   -1.0862   -0.9264    1.2066 C   0  0  0  0  0  0  0  0  0  0  0  0
   -1.5068   -2.0903    1.1938 O   0  0  0  0  0  0  0  0  0  0  0  0
   -0.9949    1.2737    0.0540 C   0  0  0  0  0  0  0  0  0  0  0  0
   -2.3394    1.5315    0.3007 O   0  0  0  0  0  0  0  0  0  0  0  0
    3.0174   -1.0637    0.3300 H   0  0  0  0  0  0  0  0  0  0  0  0
    3.1378    0.5452   -0.5138 H   0  0  0  0  0  0  0  0  0  0  0  0
    3.5488    0.4375    1.2239 H   0  0  0  0  0  0  0  0  0  0  0  0
    1.0995   -1.3715   -0.4844 H   0  0  0  0  0  0  0  0  0  0  0  0
    1.0798    0.2720   -1.1679 H   0  0  0  0  0  0  0  0  0  0  0  0
   -0.9840   -0.3320   -2.1008 H   0  0  0  0  0  0  0  0  0  0  0  0
   -1.0456   -1.8830   -1.2466 H   0  0  0  0  0  0  0  0  0  0  0  0
   -2.4823   -0.7996   -1.1205 H   0  0  0  0  0  0  0  0  0  0  0  0
   -1.0254   -0.4670    2.1976 H   0  0  0  0  0  0  0  0  0  0  0  0
   -0.4093    1.7167    0.8763 H   0  0  0  0  0  0  0  0  0  0  0  0
   -0.7396    1.7141   -0.9322 H   0  0  0  0  0  0  0  0  0  0  0  0
   -2.4211    2.5141    0.4185 H   0  0  0  0  0  0  0  0  0  0  0  0
  1  2  1  0
  2  3  1  0
  3  4  1  0
  4  5  1  0
  4  6  1  0
  6  7  2  0
  4  8  1  0
  8  9  1  0
  1 10  1  0
  1 11  1  0
  1 12  1  0
  3 13  1  0
  3 14  1  0
  5 15  1  0
  5 16  1  0
  5 17  1  0
  6 18  1  0
  8 19  1  0
  8 20  1  0
  9 21  1  0
M  END
