
     RDKit          3D

 23 23  0  0  0  0  0  0  0  0999 V2000
    3.4661   -0.1661    0.0959 C   0  0  0  0  0  0  0  0  0  0  0  0
    2.2231   -0.0268    0.7168 O   0  0  0  0  0  0  0  0  0  0  0  0
    1.1820   -0.3875   -0.1363 C   0  0  0  0  0  0  0  0  0  0  0  0
   -0.1075   -0.2046    0.6183 C   0  0  0  0  0  0  0  0  0  0  0  0
   -0.3664    1.2109    1.0965 C   0  0  0  0  0  0  0  0  0  0  0  0
   -1.8506    0.8855    0.8640 C   0  0  0  0  0  0  0  0  0  0  0  0
   -1.3386   -0.0180   -0.2607 C   0  0  0  0  0  0  0  0  0  0  0  0
   -2.1447   -1.2841   -0.4277 C   0  0  0  0  0  0  0  0  0  0  0  0
   -1.1419    0.7297   -1.3950 O   0  0  0  0  0  0  0  0  0  0  0  0
    4.2585    0.1273    0.7996 H   0  0  0  0  0  0  0  0  0  0  0  0
    3.4932    0.5086   -0.7687 H   0  0  0  0  0  0  0  0  0  0  0  0
    3.5951   -1.2257   -0.2262 H   0  0  0  0  0  0  0  0  0  0  0  0
    1.2257    0.1646   -1.0727 H   0  0  0  0  0  0  0  0  0  0  0  0
    1.2952   -1.4983   -0.2903 H   0  0  0  0  0  0  0  0  0  0  0  0
   -0.2945   -0.9263    1.4110 H   0  0  0  0  0  0  0  0  0  0  0  0
   -0.1032    1.4283    2.1319 H   0  0  0  0  0  0  0  0  0  0  0  0
    0.0086    1.9620    0.3440 H   0  0  0  0  0  0  0  0  0  0  0  0
   -2.2037    0.3032    1.7491 H   0  0  0  0  0  0  0  0  0  0  0  0
   -2.4623    1.7244    0.5471 H   0  0  0  0  0  0  0  0  0  0  0  0
   -2.0196   -1.9177    0.4565 H   0  0  0  0  0  0  0  0  0  0  0  0
   -3.1988   -1.0625   -0.6772 H   0  0  0  0  0  0  0  0  0  0  0  0
   -1.7196   -1.8230   -1.2945 H   0  0  0  0  0  0  0  0  0  0  0  0
   -1.7960    1.4961   -1.3947 H   0  0  0  0  0  0  0  0  0  0  0  0
  1  2  1  0
  2  3  1  0
  3  4  1  0
  4  5  1  0
  5  6  1  0
  6  7  1  0
  7  8  1  0
  7  9  1  0
  7  4  1  0
  1 10  1  0
  1 11  1  0
  1 12  1  0
  3 13  1  0
  3 14  1  0
  4 15  1  0
  5 16  1  0
  5 17  1  0
  6 18  1  0
  6 19  1  0
  8 20  1  0
  8 21  1  0
  8 22  1  0
  9 23  1  0
M  END
