
     RDKit          3D

 19 20  0  0  0  0  0  0  0  0999 V2000
    2.4478    0.1669   -0.5841 C   0  0  0  0  0  0  0  0  0  0  0  0
    1.8135   -1.0250   -0.8325 O   0  0  0  0  0  0  0  0  0  0  0  0
    0.7339   -1.3129   -0.0249 C   0  0  0  0  0  0  0  0  0  0  0  0
   -0.3115   -0.3282   -0.1180 C   0  0  0  0  0  0  0  0  0  0  0  0
   -0.1804    1.0115    0.5173 C   0  0  0  0  0  0  0  0  0  0  0  0
   -1.3347    1.5857    0.1182 C   0  0  0  0  0  0  0  0  0  0  0  0
   -1.9713    0.4373   -0.6151 C   0  0  0  0  0  0  0  0  0  0  0  0
   -1.7185   -0.7118    0.3317 C   0  0  0  0  0  0  0  0  0  0  0  0
   -0.9116   -0.0584   -1.3448 O   0  0  0  0  0  0  0  0  0  0  0  0
    3.3275    0.2824   -1.2915 H   0  0  0  0  0  0  0  0  0  0  0  0
    1.7883    1.0336   -0.8964 H   0  0  0  0  0  0  0  0  0  0  0  0
    2.8310    0.3150    0.4214 H   0  0  0  0  0  0  0  0  0  0  0  0
    0.3493   -2.3144   -0.3762 H   0  0  0  0  0  0  0  0  0  0  0  0
    1.0609   -1.5319    1.0310 H   0  0  0  0  0  0  0  0  0  0  0  0
    0.5941    1.4509    1.1326 H   0  0  0  0  0  0  0  0  0  0  0  0
   -1.6960    2.5921    0.2830 H   0  0  0  0  0  0  0  0  0  0  0  0
   -2.9250    0.5719   -1.0444 H   0  0  0  0  0  0  0  0  0  0  0  0
   -2.0255   -1.6996   -0.0126 H   0  0  0  0  0  0  0  0  0  0  0  0
   -1.8717   -0.4654    1.3892 H   0  0  0  0  0  0  0  0  0  0  0  0
  1  2  1  0
  2  3  1  0
  3  4  1  0
  4  5  1  0
  5  6  2  0
  6  7  1  0
  7  8  1  0
  7  9  1  0
  8  4  1  0
  9  4  1  0
  1 10  1  0
  1 11  1  0
  1 12  1  0
  3 13  1  0
  3 14  1  0
  5 15  1  0
  6 16  1  0
  7 17  1  0
  8 18  1  0
  8 19  1  0
M  END
