
     RDKit          3D

 18 19  0  0  0  0  0  0  0  0999 V2000
    2.7169    0.4933    0.3059 C   0  0  0  0  0  0  0  0  0  0  0  0
    1.3269    0.5929    0.3485 O   0  0  0  0  0  0  0  0  0  0  0  0
    0.8097   -0.4541   -0.3778 C   0  0  0  0  0  0  0  0  0  0  0  0
   -0.6918   -0.4812   -0.4240 C   0  0  0  0  0  0  0  0  0  0  0  0
   -1.3946   -0.5965    0.8969 C   0  0  0  0  0  0  0  0  0  0  0  0
   -2.4035    0.4025    0.3271 C   0  0  0  0  0  0  0  0  0  0  0  0
   -1.8919    1.6505    0.1766 O   0  0  0  0  0  0  0  0  0  0  0  0
   -1.3868    0.7835   -0.7408 C   0  0  0  0  0  0  0  0  0  0  0  0
    3.0634   -0.4760    0.7454 H   0  0  0  0  0  0  0  0  0  0  0  0
    3.0860    0.5698   -0.7504 H   0  0  0  0  0  0  0  0  0  0  0  0
    3.1564    1.2923    0.9379 H   0  0  0  0  0  0  0  0  0  0  0  0
    1.1804   -1.3949    0.0831 H   0  0  0  0  0  0  0  0  0  0  0  0
    1.1625   -0.3995   -1.4354 H   0  0  0  0  0  0  0  0  0  0  0  0
   -1.0259   -1.3035   -1.0975 H   0  0  0  0  0  0  0  0  0  0  0  0
   -0.8392   -0.0993    1.7180 H   0  0  0  0  0  0  0  0  0  0  0  0
   -1.8038   -1.5700    1.1637 H   0  0  0  0  0  0  0  0  0  0  0  0
   -3.3333    0.0500   -0.0983 H   0  0  0  0  0  0  0  0  0  0  0  0
   -1.7315    0.9404   -1.7789 H   0  0  0  0  0  0  0  0  0  0  0  0
  1  2  1  0
  2  3  1  0
  3  4  1  0
  4  5  1  0
  5  6  1  0
  6  7  1  0
  7  8  1  0
  8  4  1  0
  8  6  1  0
  1  9  1  0
  1 10  1  0
  1 11  1  0
  3 12  1  0
  3 13  1  0
  4 14  1  0
  5 15  1  0
  5 16  1  0
  6 17  1  0
  8 18  1  0
M  END
