
     RDKit          3D

 15 14  0  0  0  0  0  0  0  0999 V2000
    2.3059   -0.1084   -0.2408 C   0  0  0  0  0  0  0  0  0  0  0  0
    0.9614   -0.2056   -0.6262 O   0  0  0  0  0  0  0  0  0  0  0  0
    0.1482    0.3893    0.3386 C   0  0  0  0  0  0  0  0  0  0  0  0
   -1.2762    0.2547   -0.1275 C   0  0  0  0  0  0  0  0  0  0  0  0
   -2.1865    0.8143    0.7577 O   0  0  0  0  0  0  0  0  0  0  0  0
   -1.5619   -1.1875   -0.3086 C   0  0  0  0  0  0  0  0  0  0  0  0
   -2.4778   -1.7194    0.2715 O   0  0  0  0  0  0  0  0  0  0  0  0
    2.9163   -0.5952   -1.0390 H   0  0  0  0  0  0  0  0  0  0  0  0
    2.4278   -0.6480    0.7253 H   0  0  0  0  0  0  0  0  0  0  0  0
    2.5488    0.9711   -0.1564 H   0  0  0  0  0  0  0  0  0  0  0  0
    0.4581    1.4300    0.5105 H   0  0  0  0  0  0  0  0  0  0  0  0
    0.2969   -0.1845    1.2763 H   0  0  0  0  0  0  0  0  0  0  0  0
   -1.4042    0.7345   -1.1196 H   0  0  0  0  0  0  0  0  0  0  0  0
   -2.2348    1.7926    0.7136 H   0  0  0  0  0  0  0  0  0  0  0  0
   -0.9219   -1.7377   -0.9754 H   0  0  0  0  0  0  0  0  0  0  0  0
  1  2  1  0
  2  3  1  0
  3  4  1  0
  4  5  1  0
  4  6  1  0
  6  7  2  0
  1  8  1  0
  1  9  1  0
  1 10  1  0
  3 11  1  0
  3 12  1  0
  4 13  1  0
  5 14  1  0
  6 15  1  0
M  END
