
     RDKit          3D

 21 21  0  0  0  0  0  0  0  0999 V2000
    3.1561    0.9197    0.5939 C   0  0  0  0  0  0  0  0  0  0  0  0
    2.9736   -0.4475    0.5371 O   0  0  0  0  0  0  0  0  0  0  0  0
    1.8483   -0.8889   -0.0838 C   0  0  0  0  0  0  0  0  0  0  0  0
    0.5582   -0.4842    0.5091 C   0  0  0  0  0  0  0  0  0  0  0  0
    0.4297    0.1820    1.5104 O   0  0  0  0  0  0  0  0  0  0  0  0
   -0.6842   -0.9333   -0.1829 C   0  0  0  0  0  0  0  0  0  0  0  0
   -1.9167   -0.4598    0.5138 C   0  0  0  0  0  0  0  0  0  0  0  0
   -2.1987    0.9830    0.7085 C   0  0  0  0  0  0  0  0  0  0  0  0
   -2.9289    0.2285   -0.3966 C   0  0  0  0  0  0  0  0  0  0  0  0
    4.1304    1.1320    1.1258 H   0  0  0  0  0  0  0  0  0  0  0  0
    3.1277    1.4101   -0.4002 H   0  0  0  0  0  0  0  0  0  0  0  0
    2.3536    1.3581    1.2121 H   0  0  0  0  0  0  0  0  0  0  0  0
    1.8131   -0.6355   -1.1700 H   0  0  0  0  0  0  0  0  0  0  0  0
    1.9112   -2.0224   -0.0934 H   0  0  0  0  0  0  0  0  0  0  0  0
   -0.6599   -0.6002   -1.2534 H   0  0  0  0  0  0  0  0  0  0  0  0
   -0.6748   -2.0471   -0.1756 H   0  0  0  0  0  0  0  0  0  0  0  0
   -2.3130   -1.1770    1.2816 H   0  0  0  0  0  0  0  0  0  0  0  0
   -2.8242    1.2355    1.5890 H   0  0  0  0  0  0  0  0  0  0  0  0
   -1.4714    1.7678    0.4115 H   0  0  0  0  0  0  0  0  0  0  0  0
   -2.6218    0.4940   -1.4173 H   0  0  0  0  0  0  0  0  0  0  0  0
   -4.0082   -0.0147   -0.2173 H   0  0  0  0  0  0  0  0  0  0  0  0
  1  2  1  0
  2  3  1  0
  3  4  1  0
  4  5  2  0
  4  6  1  0
  6  7  1  0
  7  8  1  0
  8  9  1  0
  9  7  1  0
  1 10  1  0
  1 11  1  0
  1 12  1  0
  3 13  1  0
  3 14  1  0
  6 15  1  0
  6 16  1  0
  7 17  1  0
  8 18  1  0
  8 19  1  0
  9 20  1  0
  9 21  1  0
M  END
