
     RDKit          3D

 19 19  0  0  0  0  0  0  0  0999 V2000
   -3.1248   -0.1916    0.1168 C   0  0  0  0  0  0  0  0  0  0  0  0
   -1.8566    0.2336   -0.2629 O   0  0  0  0  0  0  0  0  0  0  0  0
   -1.0381    0.4872    0.8274 C   0  0  0  0  0  0  0  0  0  0  0  0
    0.3172    0.9440    0.2710 C   0  0  0  0  0  0  0  0  0  0  0  0
    0.8839   -0.1389   -0.5790 C   0  0  0  0  0  0  0  0  0  0  0  0
    1.0810   -1.3531    0.1654 O   0  0  0  0  0  0  0  0  0  0  0  0
    2.2083   -0.6705   -0.5179 C   0  0  0  0  0  0  0  0  0  0  0  0
    3.2492   -0.3600    0.4600 C   0  0  0  0  0  0  0  0  0  0  0  0
    2.9925    0.3031    1.4476 O   0  0  0  0  0  0  0  0  0  0  0  0
   -3.7242   -0.3754   -0.7982 H   0  0  0  0  0  0  0  0  0  0  0  0
   -3.6642    0.5941    0.6942 H   0  0  0  0  0  0  0  0  0  0  0  0
   -3.1287   -1.0980    0.7254 H   0  0  0  0  0  0  0  0  0  0  0  0
   -1.4446    1.2473    1.4998 H   0  0  0  0  0  0  0  0  0  0  0  0
   -0.8854   -0.4741    1.3851 H   0  0  0  0  0  0  0  0  0  0  0  0
    0.9669    1.3512    1.0395 H   0  0  0  0  0  0  0  0  0  0  0  0
    0.0514    1.7994   -0.4174 H   0  0  0  0  0  0  0  0  0  0  0  0
    0.3062   -0.2752   -1.5360 H   0  0  0  0  0  0  0  0  0  0  0  0
    2.5439   -1.2896   -1.3873 H   0  0  0  0  0  0  0  0  0  0  0  0
    4.2664   -0.7336    0.2909 H   0  0  0  0  0  0  0  0  0  0  0  0
  1  2  1  0
  2  3  1  0
  3  4  1  0
  4  5  1  0
  5  6  1  0
  6  7  1  0
  7  8  1  0
  8  9  2  0
  7  5  1  0
  1 10  1  0
  1 11  1  0
  1 12  1  0
  3 13  1  0
  3 14  1  0
  4 15  1  0
  4 16  1  0
  5 17  1  0
  7 18  1  0
  8 19  1  0
M  END
