
     RDKit          3D

 19 18  0  0  0  0  0  0  0  0999 V2000
    2.3402   -0.8644    0.3136 C   0  0  0  0  0  0  0  0  0  0  0  0
    1.2408   -1.2091   -0.4271 O   0  0  0  0  0  0  0  0  0  0  0  0
    0.5150   -0.1474   -0.9342 C   0  0  0  0  0  0  0  0  0  0  0  0
   -0.0157    0.7422    0.1462 C   0  0  0  0  0  0  0  0  0  0  0  0
   -0.8037    1.8844   -0.3994 C   0  0  0  0  0  0  0  0  0  0  0  0
   -1.6089    2.4909    0.2813 O   0  0  0  0  0  0  0  0  0  0  0  0
   -0.8566   -0.0200    1.1034 C   0  0  0  0  0  0  0  0  0  0  0  0
   -2.0846   -0.7488    0.7080 C   0  0  0  0  0  0  0  0  0  0  0  0
   -0.5264   -0.0518    2.2722 O   0  0  0  0  0  0  0  0  0  0  0  0
    3.0136   -0.2648   -0.3426 H   0  0  0  0  0  0  0  0  0  0  0  0
    2.0538   -0.3217    1.2323 H   0  0  0  0  0  0  0  0  0  0  0  0
    2.9450   -1.7569    0.6067 H   0  0  0  0  0  0  0  0  0  0  0  0
   -0.3188   -0.6143   -1.5373 H   0  0  0  0  0  0  0  0  0  0  0  0
    1.1441    0.3797   -1.6664 H   0  0  0  0  0  0  0  0  0  0  0  0
    0.8641    1.1914    0.6648 H   0  0  0  0  0  0  0  0  0  0  0  0
   -0.6854    2.2134   -1.4230 H   0  0  0  0  0  0  0  0  0  0  0  0
   -2.1340   -1.6890    1.3046 H   0  0  0  0  0  0  0  0  0  0  0  0
   -3.0091   -0.1809    0.9115 H   0  0  0  0  0  0  0  0  0  0  0  0
   -2.0733   -1.0328   -0.3706 H   0  0  0  0  0  0  0  0  0  0  0  0
  1  2  1  0
  2  3  1  0
  3  4  1  0
  4  5  1  0
  5  6  2  0
  4  7  1  0
  7  8  1  0
  7  9  2  0
  1 10  1  0
  1 11  1  0
  1 12  1  0
  3 13  1  0
  3 14  1  0
  4 15  1  0
  5 16  1  0
  8 17  1  0
  8 18  1  0
  8 19  1  0
M  END
