
     RDKit          3D

 19 20  0  0  0  0  0  0  0  0999 V2000
    2.6946   -0.6269    0.5266 C   0  0  0  0  0  0  0  0  0  0  0  0
    1.9218   -0.6373   -0.6289 O   0  0  0  0  0  0  0  0  0  0  0  0
    1.0153    0.4073   -0.6809 C   0  0  0  0  0  0  0  0  0  0  0  0
    0.0407    0.3838    0.4746 C   0  0  0  0  0  0  0  0  0  0  0  0
   -0.8428   -0.7871    0.6684 C   0  0  0  0  0  0  0  0  0  0  0  0
   -1.3369   -1.3999   -0.4796 O   0  0  0  0  0  0  0  0  0  0  0  0
   -2.1882   -0.3262   -0.6717 C   0  0  0  0  0  0  0  0  0  0  0  0
   -1.3986    0.5721    0.2261 C   0  0  0  0  0  0  0  0  0  0  0  0
   -2.1742    1.2710    1.1564 O   0  0  0  0  0  0  0  0  0  0  0  0
    3.2932    0.3027    0.6317 H   0  0  0  0  0  0  0  0  0  0  0  0
    2.0985   -0.7672    1.4497 H   0  0  0  0  0  0  0  0  0  0  0  0
    3.4253   -1.4578    0.4378 H   0  0  0  0  0  0  0  0  0  0  0  0
    1.5129    1.4074   -0.6786 H   0  0  0  0  0  0  0  0  0  0  0  0
    0.4981    0.3357   -1.6623 H   0  0  0  0  0  0  0  0  0  0  0  0
    0.4350    0.8508    1.4009 H   0  0  0  0  0  0  0  0  0  0  0  0
   -1.1806   -1.1064    1.6586 H   0  0  0  0  0  0  0  0  0  0  0  0
   -2.3041   -0.0003   -1.7265 H   0  0  0  0  0  0  0  0  0  0  0  0
   -3.1989   -0.5951   -0.2515 H   0  0  0  0  0  0  0  0  0  0  0  0
   -2.3113    2.1732    0.8240 H   0  0  0  0  0  0  0  0  0  0  0  0
  1  2  1  0
  2  3  1  0
  3  4  1  0
  4  5  1  0
  5  6  1  0
  6  7  1  0
  7  8  1  0
  8  9  1  0
  8  4  1  0
  8  5  1  0
  1 10  1  0
  1 11  1  0
  1 12  1  0
  3 13  1  0
  3 14  1  0
  4 15  1  0
  5 16  1  0
  7 17  1  0
  7 18  1  0
  9 19  1  0
M  END
