
     RDKit          3D

 23 22  0  0  0  0  0  0  0  0999 V2000
    3.5634    0.4096    0.0906 C   0  0  0  0  0  0  0  0  0  0  0  0
    2.3582    0.6733    0.7258 O   0  0  0  0  0  0  0  0  0  0  0  0
    1.3395    0.1488   -0.0659 C   0  0  0  0  0  0  0  0  0  0  0  0
    0.0073    0.3966    0.5588 C   0  0  0  0  0  0  0  0  0  0  0  0
   -0.0687    0.9914    1.6268 O   0  0  0  0  0  0  0  0  0  0  0  0
   -1.1868   -0.0917   -0.1443 C   0  0  0  0  0  0  0  0  0  0  0  0
   -1.1127   -1.5882   -0.3071 C   0  0  0  0  0  0  0  0  0  0  0  0
   -1.3797    0.6429   -1.4292 C   0  0  0  0  0  0  0  0  0  0  0  0
   -2.4099    0.1824    0.7420 C   0  0  0  0  0  0  0  0  0  0  0  0
    3.6316    0.8633   -0.9209 H   0  0  0  0  0  0  0  0  0  0  0  0
    3.7720   -0.6951    0.0222 H   0  0  0  0  0  0  0  0  0  0  0  0
    4.3597    0.8672    0.7451 H   0  0  0  0  0  0  0  0  0  0  0  0
    1.4639   -0.9426   -0.2492 H   0  0  0  0  0  0  0  0  0  0  0  0
    1.3881    0.7027   -1.0413 H   0  0  0  0  0  0  0  0  0  0  0  0
   -1.0217   -2.0181    0.7137 H   0  0  0  0  0  0  0  0  0  0  0  0
   -0.2215   -1.9216   -0.8732 H   0  0  0  0  0  0  0  0  0  0  0  0
   -1.9966   -1.9841   -0.8478 H   0  0  0  0  0  0  0  0  0  0  0  0
   -0.4303    0.8485   -1.9580 H   0  0  0  0  0  0  0  0  0  0  0  0
   -2.0436    0.1392   -2.1452 H   0  0  0  0  0  0  0  0  0  0  0  0
   -1.8461    1.6446   -1.2058 H   0  0  0  0  0  0  0  0  0  0  0  0
   -2.9234    1.0934    0.4354 H   0  0  0  0  0  0  0  0  0  0  0  0
   -2.0983    0.2974    1.7961 H   0  0  0  0  0  0  0  0  0  0  0  0
   -3.1444   -0.6599    0.6419 H   0  0  0  0  0  0  0  0  0  0  0  0
  1  2  1  0
  2  3  1  0
  3  4  1  0
  4  5  2  0
  4  6  1  0
  6  7  1  0
  6  8  1  0
  6  9  1  0
  1 10  1  0
  1 11  1  0
  1 12  1  0
  3 13  1  0
  3 14  1  0
  7 15  1  0
  7 16  1  0
  7 17  1  0
  8 18  1  0
  8 19  1  0
  8 20  1  0
  9 21  1  0
  9 22  1  0
  9 23  1  0
M  END
