
     RDKit          3D

 19 19  0  0  0  0  0  0  0  0999 V2000
   -3.4214   -0.5277   -0.9225 C   0  0  0  0  0  0  0  0  0  0  0  0
   -2.6791   -1.4861   -0.3849 O   0  0  0  0  0  0  0  0  0  0  0  0
   -1.9755   -1.5971    0.5601 C   0  0  0  0  0  0  0  0  0  0  0  0
   -0.7350   -0.4348    0.4718 C   0  0  0  0  0  0  0  0  0  0  0  0
    0.1048    0.3784    0.4059 C   0  0  0  0  0  0  0  0  0  0  0  0
    1.1174    1.3724    0.3340 C   0  0  0  0  0  0  0  0  0  0  0  0
    2.3661    0.4940   -0.0597 C   0  0  0  0  0  0  0  0  0  0  0  0
    3.7309    0.8116   -0.0762 C   0  0  0  0  0  0  0  0  0  0  0  0
    3.0864   -0.1418    0.9143 O   0  0  0  0  0  0  0  0  0  0  0  0
   -2.8373    0.4234   -1.1186 H   0  0  0  0  0  0  0  0  0  0  0  0
   -4.3923   -0.3577   -0.4807 H   0  0  0  0  0  0  0  0  0  0  0  0
   -3.6034   -0.8286   -2.0309 H   0  0  0  0  0  0  0  0  0  0  0  0
   -2.3652   -1.1890    1.6855 H   0  0  0  0  0  0  0  0  0  0  0  0
   -1.2960   -2.4284    0.8202 H   0  0  0  0  0  0  0  0  0  0  0  0
    1.1573    1.9099    1.2247 H   0  0  0  0  0  0  0  0  0  0  0  0
    0.9324    2.0058   -0.6193 H   0  0  0  0  0  0  0  0  0  0  0  0
    2.0829   -0.2297   -0.9487 H   0  0  0  0  0  0  0  0  0  0  0  0
    4.2807    1.5609    0.5836 H   0  0  0  0  0  0  0  0  0  0  0  0
    4.4464    0.2645   -0.6954 H   0  0  0  0  0  0  0  0  0  0  0  0
  1  2  1  0
  2  3  1  0
  3  4  1  0
  4  5  3  0
  5  6  1  0
  6  7  1  0
  7  8  1  0
  8  9  1  0
  9  7  1  0
  1 10  1  0
  1 11  1  0
  1 12  1  0
  3 13  1  0
  3 14  1  0
  6 15  1  0
  6 16  1  0
  7 17  1  0
  8 18  1  0
  8 19  1  0
M  END
