
     RDKit          3D

 21 22  0  0  0  0  0  0  0  0999 V2000
    2.9179   -1.3032   -0.4566 C   0  0  0  0  0  0  0  0  0  0  0  0
    1.8628   -0.5015   -0.9108 O   0  0  0  0  0  0  0  0  0  0  0  0
    0.9347   -0.2791    0.1307 C   0  0  0  0  0  0  0  0  0  0  0  0
   -0.1543    0.5729   -0.4111 C   0  0  0  0  0  0  0  0  0  0  0  0
    0.1624    1.8131   -0.9001 O   0  0  0  0  0  0  0  0  0  0  0  0
   -0.8880    2.4753   -0.2632 C   0  0  0  0  0  0  0  0  0  0  0  0
   -1.2027    1.1807    0.4277 C   0  0  0  0  0  0  0  0  0  0  0  0
   -1.5432    0.0520   -0.4814 C   0  0  0  0  0  0  0  0  0  0  0  0
   -1.9024   -1.2157    0.2111 C   0  0  0  0  0  0  0  0  0  0  0  0
    2.4993   -2.2727   -0.1168 H   0  0  0  0  0  0  0  0  0  0  0  0
    3.4515   -0.7663    0.3472 H   0  0  0  0  0  0  0  0  0  0  0  0
    3.6083   -1.4165   -1.3175 H   0  0  0  0  0  0  0  0  0  0  0  0
    1.4300    0.1239    1.0354 H   0  0  0  0  0  0  0  0  0  0  0  0
    0.5645   -1.2921    0.4054 H   0  0  0  0  0  0  0  0  0  0  0  0
   -1.6851    2.6748   -1.0383 H   0  0  0  0  0  0  0  0  0  0  0  0
   -0.6193    3.3259    0.3606 H   0  0  0  0  0  0  0  0  0  0  0  0
   -1.2400    1.0986    1.5098 H   0  0  0  0  0  0  0  0  0  0  0  0
   -2.0987    0.2875   -1.3886 H   0  0  0  0  0  0  0  0  0  0  0  0
   -2.9792   -1.1184    0.5391 H   0  0  0  0  0  0  0  0  0  0  0  0
   -1.7831   -2.0491   -0.5141 H   0  0  0  0  0  0  0  0  0  0  0  0
   -1.3354   -1.3902    1.1420 H   0  0  0  0  0  0  0  0  0  0  0  0
  1  2  1  0
  2  3  1  0
  3  4  1  0
  4  5  1  0
  5  6  1  0
  6  7  1  0
  7  8  1  0
  8  9  1  0
  7  4  1  0
  8  4  1  0
  1 10  1  0
  1 11  1  0
  1 12  1  0
  3 13  1  0
  3 14  1  0
  6 15  1  0
  6 16  1  0
  7 17  1  0
  8 18  1  0
  9 19  1  0
  9 20  1  0
  9 21  1  0
M  END
