
     RDKit          3D

 25 25  0  0  0  0  0  0  0  0999 V2000
    3.8486   -0.2146   -0.0863 C   0  0  0  0  0  0  0  0  0  0  0  0
    2.6286   -0.7402    0.2785 O   0  0  0  0  0  0  0  0  0  0  0  0
    1.5585    0.0906    0.0300 C   0  0  0  0  0  0  0  0  0  0  0  0
    0.3257   -0.6517    0.4914 C   0  0  0  0  0  0  0  0  0  0  0  0
   -0.9406    0.1364    0.2833 C   0  0  0  0  0  0  0  0  0  0  0  0
   -0.9616    1.4378    1.0130 C   0  0  0  0  0  0  0  0  0  0  0  0
   -2.1384   -0.7126    0.6551 C   0  0  0  0  0  0  0  0  0  0  0  0
   -2.7046   -0.5954   -0.7433 C   0  0  0  0  0  0  0  0  0  0  0  0
   -1.4580    0.1783   -1.1310 C   0  0  0  0  0  0  0  0  0  0  0  0
    4.6207   -0.9789    0.1655 H   0  0  0  0  0  0  0  0  0  0  0  0
    3.9368   -0.0734   -1.1969 H   0  0  0  0  0  0  0  0  0  0  0  0
    4.1255    0.6980    0.4757 H   0  0  0  0  0  0  0  0  0  0  0  0
    1.4390    0.3548   -1.0364 H   0  0  0  0  0  0  0  0  0  0  0  0
    1.6677    1.0742    0.5679 H   0  0  0  0  0  0  0  0  0  0  0  0
    0.4430   -0.8104    1.5904 H   0  0  0  0  0  0  0  0  0  0  0  0
    0.3036   -1.6097   -0.0591 H   0  0  0  0  0  0  0  0  0  0  0  0
   -0.3882    2.1987    0.4721 H   0  0  0  0  0  0  0  0  0  0  0  0
   -2.0408    1.7702    1.0550 H   0  0  0  0  0  0  0  0  0  0  0  0
   -0.6030    1.2550    2.0501 H   0  0  0  0  0  0  0  0  0  0  0  0
   -2.7828   -0.2823    1.4508 H   0  0  0  0  0  0  0  0  0  0  0  0
   -1.9093   -1.7638    0.9077 H   0  0  0  0  0  0  0  0  0  0  0  0
   -3.6440   -0.0307   -0.8253 H   0  0  0  0  0  0  0  0  0  0  0  0
   -2.7952   -1.5720   -1.2559 H   0  0  0  0  0  0  0  0  0  0  0  0
   -1.7144    1.2011   -1.4947 H   0  0  0  0  0  0  0  0  0  0  0  0
   -0.8170   -0.3594   -1.8503 H   0  0  0  0  0  0  0  0  0  0  0  0
  1  2  1  0
  2  3  1  0
  3  4  1  0
  4  5  1  0
  5  6  1  0
  5  7  1  0
  7  8  1  0
  8  9  1  0
  9  5  1  0
  1 10  1  0
  1 11  1  0
  1 12  1  0
  3 13  1  0
  3 14  1  0
  4 15  1  0
  4 16  1  0
  6 17  1  0
  6 18  1  0
  6 19  1  0
  7 20  1  0
  7 21  1  0
  8 22  1  0
  8 23  1  0
  9 24  1  0
  9 25  1  0
M  END
