
     RDKit          3D

 20 20  0  0  0  0  0  0  0  0999 V2000
   -3.2516   -0.3245   -0.0435 C   0  0  0  0  0  0  0  0  0  0  0  0
   -1.9349   -0.6868    0.2355 O   0  0  0  0  0  0  0  0  0  0  0  0
   -1.1541    0.4466    0.4448 C   0  0  0  0  0  0  0  0  0  0  0  0
    0.2686    0.0518    0.7461 C   0  0  0  0  0  0  0  0  0  0  0  0
    0.9234   -0.6675   -0.4136 C   0  0  0  0  0  0  0  0  0  0  0  0
    2.3590   -0.1880   -0.2889 C   0  0  0  0  0  0  0  0  0  0  0  0
    2.3455    0.5975    0.9841 C   0  0  0  0  0  0  0  0  0  0  0  0
    1.0579    1.1818    0.9571 O   0  0  0  0  0  0  0  0  0  0  0  0
   -3.8602   -1.2351   -0.2075 H   0  0  0  0  0  0  0  0  0  0  0  0
   -3.2962    0.3162   -0.9454 H   0  0  0  0  0  0  0  0  0  0  0  0
   -3.6032    0.2404    0.8683 H   0  0  0  0  0  0  0  0  0  0  0  0
   -1.1846    1.0996   -0.4496 H   0  0  0  0  0  0  0  0  0  0  0  0
   -1.5136    1.0386    1.3127 H   0  0  0  0  0  0  0  0  0  0  0  0
    0.3669   -0.5856    1.6276 H   0  0  0  0  0  0  0  0  0  0  0  0
    0.9050   -1.7512   -0.3266 H   0  0  0  0  0  0  0  0  0  0  0  0
    0.4840   -0.3875   -1.3925 H   0  0  0  0  0  0  0  0  0  0  0  0
    2.5329    0.5249   -1.1204 H   0  0  0  0  0  0  0  0  0  0  0  0
    3.0745   -1.0327   -0.2868 H   0  0  0  0  0  0  0  0  0  0  0  0
    2.3988   -0.0427    1.8925 H   0  0  0  0  0  0  0  0  0  0  0  0
    3.0820    1.4042    1.0374 H   0  0  0  0  0  0  0  0  0  0  0  0
  1  2  1  0
  2  3  1  0
  3  4  1  0
  4  5  1  0
  5  6  1  0
  6  7  1  0
  7  8  1  0
  8  4  1  0
  1  9  1  0
  1 10  1  0
  1 11  1  0
  3 12  1  0
  3 13  1  0
  4 14  1  0
  5 15  1  0
  5 16  1  0
  6 17  1  0
  6 18  1  0
  7 19  1  0
  7 20  1  0
M  END
