
     RDKit          3D

 21 22  0  0  0  0  0  0  0  0999 V2000
   -3.1825   -0.2003   -0.3029 C   0  0  0  0  0  0  0  0  0  0  0  0
   -2.0019   -0.3250    0.4093 O   0  0  0  0  0  0  0  0  0  0  0  0
   -0.9755    0.4419   -0.1439 C   0  0  0  0  0  0  0  0  0  0  0  0
    0.2333    0.2516    0.6694 C   0  0  0  0  0  0  0  0  0  0  0  0
    1.4467    1.0350    0.1798 C   0  0  0  0  0  0  0  0  0  0  0  0
    2.4723   -0.0693   -0.1649 C   0  0  0  0  0  0  0  0  0  0  0  0
    1.4896   -1.1097   -0.5959 C   0  0  0  0  0  0  0  0  0  0  0  0
    0.9164   -2.1222   -0.0186 O   0  0  0  0  0  0  0  0  0  0  0  0
    0.7743   -1.1105    0.7950 C   0  0  0  0  0  0  0  0  0  0  0  0
   -3.0755   -0.5282   -1.3660 H   0  0  0  0  0  0  0  0  0  0  0  0
   -3.5961    0.8369   -0.2700 H   0  0  0  0  0  0  0  0  0  0  0  0
   -3.9169   -0.8935    0.1805 H   0  0  0  0  0  0  0  0  0  0  0  0
   -0.9234    0.2347   -1.2032 H   0  0  0  0  0  0  0  0  0  0  0  0
   -1.2788    1.5271   -0.0504 H   0  0  0  0  0  0  0  0  0  0  0  0
    0.0156    0.6679    1.6977 H   0  0  0  0  0  0  0  0  0  0  0  0
    1.2257    1.6175   -0.7311 H   0  0  0  0  0  0  0  0  0  0  0  0
    1.8657    1.7000    0.9317 H   0  0  0  0  0  0  0  0  0  0  0  0
    3.0597   -0.3449    0.7227 H   0  0  0  0  0  0  0  0  0  0  0  0
    3.1085    0.2726   -0.9806 H   0  0  0  0  0  0  0  0  0  0  0  0
    0.8717   -0.6871   -1.4484 H   0  0  0  0  0  0  0  0  0  0  0  0
    1.4711   -1.1942    1.6897 H   0  0  0  0  0  0  0  0  0  0  0  0
  1  2  1  0
  2  3  1  0
  3  4  1  0
  4  5  1  0
  5  6  1  0
  6  7  1  0
  7  8  1  0
  8  9  1  0
  9  4  1  0
  9  7  1  0
  1 10  1  0
  1 11  1  0
  1 12  1  0
  3 13  1  0
  3 14  1  0
  4 15  1  0
  5 16  1  0
  5 17  1  0
  6 18  1  0
  6 19  1  0
  7 20  1  0
  9 21  1  0
M  END
