
     RDKit          3D

 21 21  0  0  0  0  0  0  0  0999 V2000
    2.3038   -1.8215   -1.0226 C   0  0  0  0  0  0  0  0  0  0  0  0
    1.2311   -1.4593   -0.2204 O   0  0  0  0  0  0  0  0  0  0  0  0
    0.7423   -0.2466   -0.7098 C   0  0  0  0  0  0  0  0  0  0  0  0
   -0.4398    0.2130    0.1251 C   0  0  0  0  0  0  0  0  0  0  0  0
   -1.4588   -0.6975    0.0980 O   0  0  0  0  0  0  0  0  0  0  0  0
   -1.6742   -1.1699    1.3876 C   0  0  0  0  0  0  0  0  0  0  0  0
   -0.8285    1.5765   -0.3666 C   0  0  0  0  0  0  0  0  0  0  0  0
   -0.8507    2.6739    0.6187 C   0  0  0  0  0  0  0  0  0  0  0  0
    0.1065    2.5960   -0.3919 O   0  0  0  0  0  0  0  0  0  0  0  0
    1.9868   -1.9367   -2.0583 H   0  0  0  0  0  0  0  0  0  0  0  0
    3.0828   -1.0395   -0.9289 H   0  0  0  0  0  0  0  0  0  0  0  0
    2.7434   -2.7608   -0.5882 H   0  0  0  0  0  0  0  0  0  0  0  0
    0.3673   -0.3706   -1.7559 H   0  0  0  0  0  0  0  0  0  0  0  0
    1.5364    0.5337   -0.6660 H   0  0  0  0  0  0  0  0  0  0  0  0
   -0.0578    0.3330    1.1586 H   0  0  0  0  0  0  0  0  0  0  0  0
   -0.7539   -1.6570    1.7767 H   0  0  0  0  0  0  0  0  0  0  0  0
   -2.5355   -1.8636    1.3473 H   0  0  0  0  0  0  0  0  0  0  0  0
   -1.8916   -0.3334    2.0835 H   0  0  0  0  0  0  0  0  0  0  0  0
   -1.4912    1.5645   -1.2526 H   0  0  0  0  0  0  0  0  0  0  0  0
   -0.4504    2.4709    1.6213 H   0  0  0  0  0  0  0  0  0  0  0  0
   -1.6678    3.3950    0.5593 H   0  0  0  0  0  0  0  0  0  0  0  0
  1  2  1  0
  2  3  1  0
  3  4  1  0
  4  5  1  0
  5  6  1  0
  4  7  1  0
  7  8  1  0
  8  9  1  0
  9  7  1  0
  1 10  1  0
  1 11  1  0
  1 12  1  0
  3 13  1  0
  3 14  1  0
  4 15  1  0
  6 16  1  0
  6 17  1  0
  6 18  1  0
  7 19  1  0
  8 20  1  0
  8 21  1  0
M  END
