
     RDKit          3D

 17 17  0  0  0  0  0  0  0  0999 V2000
   -2.4732    0.0723   -0.3534 C   0  0  0  0  0  0  0  0  0  0  0  0
   -1.5226   -0.4767   -1.1874 O   0  0  0  0  0  0  0  0  0  0  0  0
   -0.4905   -0.9978   -0.4689 C   0  0  0  0  0  0  0  0  0  0  0  0
    0.2862   -0.0697    0.3985 C   0  0  0  0  0  0  0  0  0  0  0  0
    1.3324   -0.8190    1.0516 O   0  0  0  0  0  0  0  0  0  0  0  0
    2.1992   -0.4674    0.0284 C   0  0  0  0  0  0  0  0  0  0  0  0
    3.2526   -0.9884   -0.4281 O   0  0  0  0  0  0  0  0  0  0  0  0
    1.3702    0.7259   -0.2624 C   0  0  0  0  0  0  0  0  0  0  0  0
    1.7512    1.7930    0.5608 O   0  0  0  0  0  0  0  0  0  0  0  0
   -1.9895    0.8831    0.2172 H   0  0  0  0  0  0  0  0  0  0  0  0
   -2.8107   -0.6729    0.4016 H   0  0  0  0  0  0  0  0  0  0  0  0
   -3.3243    0.4255   -0.9704 H   0  0  0  0  0  0  0  0  0  0  0  0
   -0.9524   -1.7588    0.2326 H   0  0  0  0  0  0  0  0  0  0  0  0
    0.1762   -1.6141   -1.1322 H   0  0  0  0  0  0  0  0  0  0  0  0
   -0.2710    0.5024    1.1367 H   0  0  0  0  0  0  0  0  0  0  0  0
    1.2304    0.9727   -1.3223 H   0  0  0  0  0  0  0  0  0  0  0  0
    2.2360    2.4897    0.0733 H   0  0  0  0  0  0  0  0  0  0  0  0
  1  2  1  0
  2  3  1  0
  3  4  1  0
  4  5  1  0
  5  6  1  0
  6  7  2  0
  6  8  1  0
  8  9  1  0
  8  4  1  0
  1 10  1  0
  1 11  1  0
  1 12  1  0
  3 13  1  0
  3 14  1  0
  4 15  1  0
  8 16  1  0
  9 17  1  0
M  END
