
     RDKit          3D

 27 26  0  0  0  0  0  0  0  0999 V2000
    3.2687   -0.6081    0.2175 C   0  0  0  0  0  0  0  0  0  0  0  0
    2.5953    0.3129   -0.4736 O   0  0  0  0  0  0  0  0  0  0  0  0
    1.3372    0.7049   -0.1972 C   0  0  0  0  0  0  0  0  0  0  0  0
    0.2408   -0.2703   -0.2208 C   0  0  0  0  0  0  0  0  0  0  0  0
    0.3691   -1.3849    0.7812 C   0  0  0  0  0  0  0  0  0  0  0  0
   -1.1438    0.3174   -0.2380 C   0  0  0  0  0  0  0  0  0  0  0  0
   -1.4573    1.1770    0.9470 C   0  0  0  0  0  0  0  0  0  0  0  0
   -2.1618   -0.8055   -0.2527 C   0  0  0  0  0  0  0  0  0  0  0  0
   -1.3573    1.1437   -1.4889 C   0  0  0  0  0  0  0  0  0  0  0  0
    2.8591   -1.6268    0.2052 H   0  0  0  0  0  0  0  0  0  0  0  0
    3.4750   -0.2814    1.2694 H   0  0  0  0  0  0  0  0  0  0  0  0
    4.3118   -0.6918   -0.2224 H   0  0  0  0  0  0  0  0  0  0  0  0
    1.3155    1.2066    0.8435 H   0  0  0  0  0  0  0  0  0  0  0  0
    1.1406    1.6081   -0.8465 H   0  0  0  0  0  0  0  0  0  0  0  0
    0.3032   -0.8054   -1.2250 H   0  0  0  0  0  0  0  0  0  0  0  0
   -0.6023   -1.5087    1.3477 H   0  0  0  0  0  0  0  0  0  0  0  0
    1.0829   -1.1172    1.5851 H   0  0  0  0  0  0  0  0  0  0  0  0
    0.6807   -2.3567    0.3520 H   0  0  0  0  0  0  0  0  0  0  0  0
   -2.5444    1.4057    0.9075 H   0  0  0  0  0  0  0  0  0  0  0  0
   -1.2992    0.6493    1.9156 H   0  0  0  0  0  0  0  0  0  0  0  0
   -0.9440    2.1605    0.9244 H   0  0  0  0  0  0  0  0  0  0  0  0
   -2.5439   -0.9984    0.7895 H   0  0  0  0  0  0  0  0  0  0  0  0
   -3.0491   -0.5217   -0.8507 H   0  0  0  0  0  0  0  0  0  0  0  0
   -1.7286   -1.7690   -0.5897 H   0  0  0  0  0  0  0  0  0  0  0  0
   -2.1362    0.7000   -2.1473 H   0  0  0  0  0  0  0  0  0  0  0  0
   -1.5956    2.2099   -1.2499 H   0  0  0  0  0  0  0  0  0  0  0  0
   -0.4163    1.1501   -2.0828 H   0  0  0  0  0  0  0  0  0  0  0  0
  1  2  1  0
  2  3  1  0
  3  4  1  0
  4  5  1  0
  4  6  1  0
  6  7  1  0
  6  8  1  0
  6  9  1  0
  1 10  1  0
  1 11  1  0
  1 12  1  0
  3 13  1  0
  3 14  1  0
  4 15  1  0
  5 16  1  0
  5 17  1  0
  5 18  1  0
  7 19  1  0
  7 20  1  0
  7 21  1  0
  8 22  1  0
  8 23  1  0
  8 24  1  0
  9 25  1  0
  9 26  1  0
  9 27  1  0
M  END
