
     RDKit          3D

 21 21  0  0  0  0  0  0  0  0999 V2000
    3.2807    0.7707    0.0858 C   0  0  0  0  0  0  0  0  0  0  0  0
    1.9803    0.8034    0.6033 O   0  0  0  0  0  0  0  0  0  0  0  0
    1.2939   -0.2649    0.0353 C   0  0  0  0  0  0  0  0  0  0  0  0
   -0.1231   -0.2984    0.5455 C   0  0  0  0  0  0  0  0  0  0  0  0
   -0.7682    0.9991    0.1572 C   0  0  0  0  0  0  0  0  0  0  0  0
   -2.0902    0.9503    0.0237 C   0  0  0  0  0  0  0  0  0  0  0  0
   -2.9102   -0.2530    0.2278 C   0  0  0  0  0  0  0  0  0  0  0  0
   -2.2104   -1.4173    0.3490 O   0  0  0  0  0  0  0  0  0  0  0  0
   -0.9192   -1.3970   -0.0907 C   0  0  0  0  0  0  0  0  0  0  0  0
    3.1729    0.8749   -1.0232 H   0  0  0  0  0  0  0  0  0  0  0  0
    3.9277    1.5473    0.5173 H   0  0  0  0  0  0  0  0  0  0  0  0
    3.6685   -0.2577    0.3222 H   0  0  0  0  0  0  0  0  0  0  0  0
    1.2868   -0.1422   -1.0661 H   0  0  0  0  0  0  0  0  0  0  0  0
    1.8054   -1.2327    0.2312 H   0  0  0  0  0  0  0  0  0  0  0  0
   -0.1792   -0.3462    1.6478 H   0  0  0  0  0  0  0  0  0  0  0  0
   -0.1975    1.9064   -0.0019 H   0  0  0  0  0  0  0  0  0  0  0  0
   -2.5918    1.8678   -0.2559 H   0  0  0  0  0  0  0  0  0  0  0  0
   -3.6717   -0.2850   -0.5891 H   0  0  0  0  0  0  0  0  0  0  0  0
   -3.4946   -0.1079    1.1663 H   0  0  0  0  0  0  0  0  0  0  0  0
   -0.8098   -1.3444   -1.1892 H   0  0  0  0  0  0  0  0  0  0  0  0
   -0.4502   -2.3734    0.2101 H   0  0  0  0  0  0  0  0  0  0  0  0
  1  2  1  0
  2  3  1  0
  3  4  1  0
  4  5  1  0
  5  6  2  0
  6  7  1  0
  7  8  1  0
  8  9  1  0
  9  4  1  0
  1 10  1  0
  1 11  1  0
  1 12  1  0
  3 13  1  0
  3 14  1  0
  4 15  1  0
  5 16  1  0
  6 17  1  0
  7 18  1  0
  7 19  1  0
  9 20  1  0
  9 21  1  0
M  END
