
     RDKit          3D

 19 20  0  0  0  0  0  0  0  0999 V2000
    2.8721    0.4062    0.0634 C   0  0  0  0  0  0  0  0  0  0  0  0
    2.1665   -0.7477    0.2755 O   0  0  0  0  0  0  0  0  0  0  0  0
    1.0817   -0.9611   -0.5330 C   0  0  0  0  0  0  0  0  0  0  0  0
    0.0923    0.1406   -0.3654 C   0  0  0  0  0  0  0  0  0  0  0  0
   -1.0481   -0.0554   -1.1886 O   0  0  0  0  0  0  0  0  0  0  0  0
   -1.9525   -0.5093   -0.2834 C   0  0  0  0  0  0  0  0  0  0  0  0
   -2.9093    0.0845    0.5533 C   0  0  0  0  0  0  0  0  0  0  0  0
   -1.6487    0.6746    0.7266 C   0  0  0  0  0  0  0  0  0  0  0  0
   -0.3905    0.2133    0.9622 O   0  0  0  0  0  0  0  0  0  0  0  0
    2.3141    1.3456    0.1895 H   0  0  0  0  0  0  0  0  0  0  0  0
    3.6727    0.4329    0.8610 H   0  0  0  0  0  0  0  0  0  0  0  0
    3.4505    0.4003   -0.8943 H   0  0  0  0  0  0  0  0  0  0  0  0
    0.6209   -1.9216   -0.2319 H   0  0  0  0  0  0  0  0  0  0  0  0
    1.4240   -0.9555   -1.5813 H   0  0  0  0  0  0  0  0  0  0  0  0
    0.4927    1.1157   -0.6645 H   0  0  0  0  0  0  0  0  0  0  0  0
   -1.6022   -1.5354    0.0594 H   0  0  0  0  0  0  0  0  0  0  0  0
   -3.7482    0.6644    0.0696 H   0  0  0  0  0  0  0  0  0  0  0  0
   -3.3502   -0.4903    1.4171 H   0  0  0  0  0  0  0  0  0  0  0  0
   -1.5380    1.6982    0.2427 H   0  0  0  0  0  0  0  0  0  0  0  0
  1  2  1  0
  2  3  1  0
  3  4  1  0
  4  5  1  0
  5  6  1  0
  6  7  1  0
  7  8  1  0
  8  9  1  0
  9  4  1  0
  8  6  1  0
  1 10  1  0
  1 11  1  0
  1 12  1  0
  3 13  1  0
  3 14  1  0
  4 15  1  0
  6 16  1  0
  7 17  1  0
  7 18  1  0
  8 19  1  0
M  END
