
     RDKit          3D

 23 22  0  0  0  0  0  0  0  0999 V2000
    3.2971    1.1321    0.1491 C   0  0  0  0  0  0  0  0  0  0  0  0
    1.9974    0.9070   -0.2841 O   0  0  0  0  0  0  0  0  0  0  0  0
    1.8178   -0.4362   -0.6363 C   0  0  0  0  0  0  0  0  0  0  0  0
    0.4075   -0.6597   -1.1017 C   0  0  0  0  0  0  0  0  0  0  0  0
   -0.6039   -0.3162   -0.0183 C   0  0  0  0  0  0  0  0  0  0  0  0
   -0.3758   -1.1251    1.1069 O   0  0  0  0  0  0  0  0  0  0  0  0
   -1.9546   -0.6215   -0.6112 C   0  0  0  0  0  0  0  0  0  0  0  0
   -3.0224   -0.4331    0.2254 O   0  0  0  0  0  0  0  0  0  0  0  0
   -3.0678    0.8902    0.6234 C   0  0  0  0  0  0  0  0  0  0  0  0
    4.0448    0.8849   -0.6477 H   0  0  0  0  0  0  0  0  0  0  0  0
    3.3905    2.1962    0.4308 H   0  0  0  0  0  0  0  0  0  0  0  0
    3.5408    0.5439    1.0774 H   0  0  0  0  0  0  0  0  0  0  0  0
    2.4836   -0.6291   -1.5018 H   0  0  0  0  0  0  0  0  0  0  0  0
    2.0554   -1.1261    0.1744 H   0  0  0  0  0  0  0  0  0  0  0  0
    0.2540   -1.7211   -1.3608 H   0  0  0  0  0  0  0  0  0  0  0  0
    0.1619   -0.0532   -1.9919 H   0  0  0  0  0  0  0  0  0  0  0  0
   -0.4518    0.7230    0.2882 H   0  0  0  0  0  0  0  0  0  0  0  0
   -0.7159   -2.0261    0.8802 H   0  0  0  0  0  0  0  0  0  0  0  0
   -1.8986   -1.7102   -0.9172 H   0  0  0  0  0  0  0  0  0  0  0  0
   -2.1055   -0.0857   -1.5831 H   0  0  0  0  0  0  0  0  0  0  0  0
   -3.9570    1.0241    1.2903 H   0  0  0  0  0  0  0  0  0  0  0  0
   -3.1407    1.5668   -0.2302 H   0  0  0  0  0  0  0  0  0  0  0  0
   -2.1568    1.0753    1.2604 H   0  0  0  0  0  0  0  0  0  0  0  0
  1  2  1  0
  2  3  1  0
  3  4  1  0
  4  5  1  0
  5  6  1  0
  5  7  1  0
  7  8  1  0
  8  9  1  0
  1 10  1  0
  1 11  1  0
  1 12  1  0
  3 13  1  0
  3 14  1  0
  4 15  1  0
  4 16  1  0
  5 17  1  0
  6 18  1  0
  7 19  1  0
  7 20  1  0
  9 21  1  0
  9 22  1  0
  9 23  1  0
M  END
