
     RDKit          3D

 23 24  0  0  0  0  0  0  0  0999 V2000
    3.2392    0.3015    0.5868 C   0  0  0  0  0  0  0  0  0  0  0  0
    2.0644    0.9845    0.7530 O   0  0  0  0  0  0  0  0  0  0  0  0
    1.0872    0.7459   -0.1753 C   0  0  0  0  0  0  0  0  0  0  0  0
    0.6803   -0.6873   -0.2005 C   0  0  0  0  0  0  0  0  0  0  0  0
   -0.3766   -1.0447   -1.1763 C   0  0  0  0  0  0  0  0  0  0  0  0
   -1.5610   -0.1291   -1.2445 C   0  0  0  0  0  0  0  0  0  0  0  0
   -1.8952   -0.5196    0.1727 C   0  0  0  0  0  0  0  0  0  0  0  0
   -2.2538    0.6189    1.0778 C   0  0  0  0  0  0  0  0  0  0  0  0
   -0.5847   -1.1758    0.3716 C   0  0  0  0  0  0  0  0  0  0  0  0
    3.6651    0.5821   -0.4216 H   0  0  0  0  0  0  0  0  0  0  0  0
    3.2197   -0.7726    0.7613 H   0  0  0  0  0  0  0  0  0  0  0  0
    4.0008    0.7233    1.3028 H   0  0  0  0  0  0  0  0  0  0  0  0
    0.2452    1.4426    0.0214 H   0  0  0  0  0  0  0  0  0  0  0  0
    1.4270    1.0057   -1.2221 H   0  0  0  0  0  0  0  0  0  0  0  0
    1.5299   -1.4100   -0.1627 H   0  0  0  0  0  0  0  0  0  0  0  0
   -0.3491   -1.9907   -1.7356 H   0  0  0  0  0  0  0  0  0  0  0  0
   -1.2574    0.9240   -1.3883 H   0  0  0  0  0  0  0  0  0  0  0  0
   -2.3252   -0.3935   -1.9983 H   0  0  0  0  0  0  0  0  0  0  0  0
   -2.7595   -1.2465    0.1430 H   0  0  0  0  0  0  0  0  0  0  0  0
   -2.5096    1.4915    0.4072 H   0  0  0  0  0  0  0  0  0  0  0  0
   -3.2043    0.4345    1.6482 H   0  0  0  0  0  0  0  0  0  0  0  0
   -1.4479    0.9646    1.7256 H   0  0  0  0  0  0  0  0  0  0  0  0
   -0.6347   -2.2209    0.7536 H   0  0  0  0  0  0  0  0  0  0  0  0
  1  2  1  0
  2  3  1  0
  3  4  1  0
  4  5  1  0
  5  6  1  0
  6  7  1  0
  7  8  1  0
  7  9  1  0
  9  4  1  0
  9  5  1  0
  1 10  1  0
  1 11  1  0
  1 12  1  0
  3 13  1  0
  3 14  1  0
  4 15  1  0
  5 16  1  0
  6 17  1  0
  6 18  1  0
  7 19  1  0
  8 20  1  0
  8 21  1  0
  8 22  1  0
  9 23  1  0
M  END
