
     RDKit          3D

 23 24  0  0  0  0  0  0  0  0999 V2000
    3.5970   -0.3447    0.3066 C   0  0  0  0  0  0  0  0  0  0  0  0
    2.5815    0.4407    0.8476 O   0  0  0  0  0  0  0  0  0  0  0  0
    1.3852   -0.0229    0.2946 C   0  0  0  0  0  0  0  0  0  0  0  0
    0.1973    0.7880    0.8350 C   0  0  0  0  0  0  0  0  0  0  0  0
   -0.9836    0.3417    0.2989 C   0  0  0  0  0  0  0  0  0  0  0  0
   -1.5558   -1.0471    0.4237 C   0  0  0  0  0  0  0  0  0  0  0  0
   -2.5281   -0.3206   -0.4691 C   0  0  0  0  0  0  0  0  0  0  0  0
   -2.3636    0.8436    0.4795 C   0  0  0  0  0  0  0  0  0  0  0  0
   -1.3070    0.2154   -1.1676 C   0  0  0  0  0  0  0  0  0  0  0  0
    3.5587   -0.1996   -0.7959 H   0  0  0  0  0  0  0  0  0  0  0  0
    3.2705   -1.4142    0.4634 H   0  0  0  0  0  0  0  0  0  0  0  0
    4.5828   -0.1486    0.7355 H   0  0  0  0  0  0  0  0  0  0  0  0
    1.4519    0.0376   -0.7897 H   0  0  0  0  0  0  0  0  0  0  0  0
    1.2943   -1.0875    0.6179 H   0  0  0  0  0  0  0  0  0  0  0  0
    0.2223    0.7178    1.9478 H   0  0  0  0  0  0  0  0  0  0  0  0
    0.4320    1.8356    0.5956 H   0  0  0  0  0  0  0  0  0  0  0  0
   -0.9419   -1.8192   -0.0731 H   0  0  0  0  0  0  0  0  0  0  0  0
   -1.9280   -1.2978    1.4320 H   0  0  0  0  0  0  0  0  0  0  0  0
   -3.3699   -0.6650   -0.8721 H   0  0  0  0  0  0  0  0  0  0  0  0
   -2.6255    1.8172    0.0272 H   0  0  0  0  0  0  0  0  0  0  0  0
   -2.8368    0.6662    1.4696 H   0  0  0  0  0  0  0  0  0  0  0  0
   -1.4501    1.1798   -1.6854 H   0  0  0  0  0  0  0  0  0  0  0  0
   -0.6830   -0.5163   -1.6759 H   0  0  0  0  0  0  0  0  0  0  0  0
  1  2  1  0
  2  3  1  0
  3  4  1  0
  4  5  1  0
  5  6  1  0
  6  7  1  0
  7  8  1  0
  7  9  1  0
  8  5  1  0
  9  5  1  0
  1 10  1  0
  1 11  1  0
  1 12  1  0
  3 13  1  0
  3 14  1  0
  4 15  1  0
  4 16  1  0
  6 17  1  0
  6 18  1  0
  7 19  1  0
  8 20  1  0
  8 21  1  0
  9 22  1  0
  9 23  1  0
M  END
