
     RDKit          3D

 19 20  0  0  0  0  0  0  0  0999 V2000
    2.9052    0.2361    0.1826 C   0  0  0  0  0  0  0  0  0  0  0  0
    1.5109    0.4114    0.3480 O   0  0  0  0  0  0  0  0  0  0  0  0
    0.9483   -0.8116    0.0000 C   0  0  0  0  0  0  0  0  0  0  0  0
   -0.5449   -0.8269    0.1120 C   0  0  0  0  0  0  0  0  0  0  0  0
   -1.0891   -0.5756    1.3406 O   0  0  0  0  0  0  0  0  0  0  0  0
   -2.0852    0.1729    0.6711 C   0  0  0  0  0  0  0  0  0  0  0  0
   -1.6800    1.5164    0.2635 C   0  0  0  0  0  0  0  0  0  0  0  0
   -1.1576    0.3924   -0.5064 C   0  0  0  0  0  0  0  0  0  0  0  0
   -1.6369    0.2041   -1.7945 O   0  0  0  0  0  0  0  0  0  0  0  0
    3.2046   -0.5933    0.8725 H   0  0  0  0  0  0  0  0  0  0  0  0
    3.1219   -0.1221   -0.8555 H   0  0  0  0  0  0  0  0  0  0  0  0
    3.4567    1.1588    0.3662 H   0  0  0  0  0  0  0  0  0  0  0  0
    1.1979   -0.9732   -1.0777 H   0  0  0  0  0  0  0  0  0  0  0  0
    1.4192   -1.6244    0.5983 H   0  0  0  0  0  0  0  0  0  0  0  0
   -0.9464   -1.7719   -0.3084 H   0  0  0  0  0  0  0  0  0  0  0  0
   -3.0220   -0.3108    0.4148 H   0  0  0  0  0  0  0  0  0  0  0  0
   -2.4841    2.1350   -0.2317 H   0  0  0  0  0  0  0  0  0  0  0  0
   -1.0657    2.0887    1.0055 H   0  0  0  0  0  0  0  0  0  0  0  0
   -2.0528   -0.7059   -1.8038 H   0  0  0  0  0  0  0  0  0  0  0  0
  1  2  1  0
  2  3  1  0
  3  4  1  0
  4  5  1  0
  5  6  1  0
  6  7  1  0
  7  8  1  0
  8  9  1  0
  8  4  1  0
  8  6  1  0
  1 10  1  0
  1 11  1  0
  1 12  1  0
  3 13  1  0
  3 14  1  0
  4 15  1  0
  6 16  1  0
  7 17  1  0
  7 18  1  0
  9 19  1  0
M  END
