
     RDKit          3D

 18 19  0  0  0  0  0  0  0  0999 V2000
    2.7787    0.1906    0.7882 C   0  0  0  0  0  0  0  0  0  0  0  0
    1.4055   -0.0504    0.7488 O   0  0  0  0  0  0  0  0  0  0  0  0
    1.0320    0.0183   -0.5912 C   0  0  0  0  0  0  0  0  0  0  0  0
   -0.4776   -0.2356   -0.7441 C   0  0  0  0  0  0  0  0  0  0  0  0
   -1.4717    0.6004   -0.1139 C   0  0  0  0  0  0  0  0  0  0  0  0
   -2.6614    0.0865    0.7150 C   0  0  0  0  0  0  0  0  0  0  0  0
   -1.5991   -0.3908    1.5322 O   0  0  0  0  0  0  0  0  0  0  0  0
   -1.1602   -0.8932    0.3070 C   0  0  0  0  0  0  0  0  0  0  0  0
    3.2807   -0.5981    0.1781 H   0  0  0  0  0  0  0  0  0  0  0  0
    3.0047    1.1700    0.3373 H   0  0  0  0  0  0  0  0  0  0  0  0
    3.1905    0.1749    1.8142 H   0  0  0  0  0  0  0  0  0  0  0  0
    1.6180   -0.6245   -1.2422 H   0  0  0  0  0  0  0  0  0  0  0  0
    1.2003    1.0730   -0.9144 H   0  0  0  0  0  0  0  0  0  0  0  0
   -0.6933   -0.5012   -1.8236 H   0  0  0  0  0  0  0  0  0  0  0  0
   -0.9735    1.3814    0.5458 H   0  0  0  0  0  0  0  0  0  0  0  0
   -3.2785   -0.6663    0.2431 H   0  0  0  0  0  0  0  0  0  0  0  0
   -3.2426    0.8993    1.1595 H   0  0  0  0  0  0  0  0  0  0  0  0
   -1.9526   -1.6342   -0.0313 H   0  0  0  0  0  0  0  0  0  0  0  0
  1  2  1  0
  2  3  1  0
  3  4  1  0
  4  5  1  0
  5  6  1  0
  6  7  1  0
  7  8  1  0
  8  4  1  0
  8  5  1  0
  1  9  1  0
  1 10  1  0
  1 11  1  0
  3 12  1  0
  3 13  1  0
  4 14  1  0
  5 15  1  0
  6 16  1  0
  6 17  1  0
  8 18  1  0
M  END
