
     RDKit          3D

 15 14  0  0  0  0  0  0  0  0999 V2000
   -2.5883    0.6442   -0.1440 C   0  0  0  0  0  0  0  0  0  0  0  0
   -1.2166    0.5210   -0.2994 O   0  0  0  0  0  0  0  0  0  0  0  0
   -0.7578   -0.4302    0.6018 C   0  0  0  0  0  0  0  0  0  0  0  0
    0.7071   -0.5466    0.4201 C   0  0  0  0  0  0  0  0  0  0  0  0
    1.3790   -1.3433    1.1154 O   0  0  0  0  0  0  0  0  0  0  0  0
    1.3963    0.2074   -0.5127 O   0  0  0  0  0  0  0  0  0  0  0  0
    2.7993    0.1094   -0.7009 C   0  0  0  0  0  0  0  0  0  0  0  0
   -2.7774    0.9618    0.8952 H   0  0  0  0  0  0  0  0  0  0  0  0
   -3.1029   -0.3164   -0.2897 H   0  0  0  0  0  0  0  0  0  0  0  0
   -3.0267    1.3882   -0.8389 H   0  0  0  0  0  0  0  0  0  0  0  0
   -0.9948   -0.0814    1.6262 H   0  0  0  0  0  0  0  0  0  0  0  0
   -1.2996   -1.3629    0.3972 H   0  0  0  0  0  0  0  0  0  0  0  0
    3.1027    0.3654   -1.7321 H   0  0  0  0  0  0  0  0  0  0  0  0
    3.2675    0.8251   -0.0079 H   0  0  0  0  0  0  0  0  0  0  0  0
    3.1120   -0.9417   -0.5303 H   0  0  0  0  0  0  0  0  0  0  0  0
  1  2  1  0
  2  3  1  0
  3  4  1  0
  4  5  2  0
  4  6  1  0
  6  7  1  0
  1  8  1  0
  1  9  1  0
  1 10  1  0
  3 11  1  0
  3 12  1  0
  7 13  1  0
  7 14  1  0
  7 15  1  0
M  END
