
     RDKit          3D

 21 21  0  0  0  0  0  0  0  0999 V2000
    2.6799   -0.2546    0.6607 C   0  0  0  0  0  0  0  0  0  0  0  0
    1.5065   -0.3694   -0.0616 O   0  0  0  0  0  0  0  0  0  0  0  0
    0.8070    0.8189   -0.1050 C   0  0  0  0  0  0  0  0  0  0  0  0
   -0.4599    0.7811   -0.8584 C   0  0  0  0  0  0  0  0  0  0  0  0
   -1.0218    2.0820   -0.7885 O   0  0  0  0  0  0  0  0  0  0  0  0
   -1.4824   -0.1798   -0.5019 C   0  0  0  0  0  0  0  0  0  0  0  0
   -1.3074   -1.6243   -0.5194 C   0  0  0  0  0  0  0  0  0  0  0  0
   -0.7027   -1.5689    0.7112 O   0  0  0  0  0  0  0  0  0  0  0  0
   -1.5056   -0.4626    0.9881 C   0  0  0  0  0  0  0  0  0  0  0  0
    3.2135   -1.2269    0.6736 H   0  0  0  0  0  0  0  0  0  0  0  0
    3.3859    0.4840    0.2229 H   0  0  0  0  0  0  0  0  0  0  0  0
    2.4561    0.0247    1.7280 H   0  0  0  0  0  0  0  0  0  0  0  0
    0.6551    1.1405    0.9635 H   0  0  0  0  0  0  0  0  0  0  0  0
    1.4928    1.5826   -0.5309 H   0  0  0  0  0  0  0  0  0  0  0  0
   -0.2016    0.6665   -1.9537 H   0  0  0  0  0  0  0  0  0  0  0  0
   -0.3551    2.7774   -0.9411 H   0  0  0  0  0  0  0  0  0  0  0  0
   -2.4999    0.1304   -0.8672 H   0  0  0  0  0  0  0  0  0  0  0  0
   -0.7595   -2.1186   -1.3326 H   0  0  0  0  0  0  0  0  0  0  0  0
   -2.2996   -2.1544   -0.4121 H   0  0  0  0  0  0  0  0  0  0  0  0
   -2.5237   -0.8316    1.2896 H   0  0  0  0  0  0  0  0  0  0  0  0
   -1.0778    0.3031    1.6345 H   0  0  0  0  0  0  0  0  0  0  0  0
  1  2  1  0
  2  3  1  0
  3  4  1  0
  4  5  1  0
  4  6  1  0
  6  7  1  0
  7  8  1  0
  8  9  1  0
  9  6  1  0
  1 10  1  0
  1 11  1  0
  1 12  1  0
  3 13  1  0
  3 14  1  0
  4 15  1  0
  5 16  1  0
  6 17  1  0
  7 18  1  0
  7 19  1  0
  9 20  1  0
  9 21  1  0
M  END
