
     RDKit          3D

 21 21  0  0  0  0  0  0  0  0999 V2000
    2.7089    0.4381    0.8502 C   0  0  0  0  0  0  0  0  0  0  0  0
    1.5386   -0.3075    0.7133 O   0  0  0  0  0  0  0  0  0  0  0  0
    0.6668    0.4572   -0.0967 C   0  0  0  0  0  0  0  0  0  0  0  0
   -0.5923   -0.3423   -0.2454 C   0  0  0  0  0  0  0  0  0  0  0  0
   -1.5997    0.2036   -1.0002 O   0  0  0  0  0  0  0  0  0  0  0  0
   -2.0134    1.4024   -0.4733 C   0  0  0  0  0  0  0  0  0  0  0  0
   -1.0900   -1.0034    1.0206 C   0  0  0  0  0  0  0  0  0  0  0  0
   -0.1278   -1.9969    0.8233 O   0  0  0  0  0  0  0  0  0  0  0  0
   -0.2817   -1.8000   -0.5457 C   0  0  0  0  0  0  0  0  0  0  0  0
    2.4825    1.4033    1.3246 H   0  0  0  0  0  0  0  0  0  0  0  0
    3.1419    0.5472   -0.1687 H   0  0  0  0  0  0  0  0  0  0  0  0
    3.4025   -0.1285    1.4719 H   0  0  0  0  0  0  0  0  0  0  0  0
    1.1430    0.5186   -1.0968 H   0  0  0  0  0  0  0  0  0  0  0  0
    0.5483    1.4157    0.4095 H   0  0  0  0  0  0  0  0  0  0  0  0
   -2.8249    1.7952   -1.1213 H   0  0  0  0  0  0  0  0  0  0  0  0
   -2.3963    1.2619    0.5768 H   0  0  0  0  0  0  0  0  0  0  0  0
   -1.1858    2.1396   -0.3841 H   0  0  0  0  0  0  0  0  0  0  0  0
   -0.9269   -0.4076    1.9304 H   0  0  0  0  0  0  0  0  0  0  0  0
   -2.1036   -1.3857    0.8671 H   0  0  0  0  0  0  0  0  0  0  0  0
    0.6683   -1.9205   -1.0837 H   0  0  0  0  0  0  0  0  0  0  0  0
   -1.1585   -2.2904   -0.9983 H   0  0  0  0  0  0  0  0  0  0  0  0
  1  2  1  0
  2  3  1  0
  3  4  1  0
  4  5  1  0
  5  6  1  0
  4  7  1  0
  7  8  1  0
  8  9  1  0
  9  4  1  0
  1 10  1  0
  1 11  1  0
  1 12  1  0
  3 13  1  0
  3 14  1  0
  6 15  1  0
  6 16  1  0
  6 17  1  0
  7 18  1  0
  7 19  1  0
  9 20  1  0
  9 21  1  0
M  END
