
     RDKit          3D

 23 23  0  0  0  0  0  0  0  0999 V2000
    2.6791    1.3485    0.4897 C   0  0  0  0  0  0  0  0  0  0  0  0
    1.3384    1.0084    0.4921 O   0  0  0  0  0  0  0  0  0  0  0  0
    1.1540   -0.2962    0.0747 C   0  0  0  0  0  0  0  0  0  0  0  0
   -0.2607   -0.7392    0.0493 C   0  0  0  0  0  0  0  0  0  0  0  0
   -0.3768   -2.1587   -0.4623 C   0  0  0  0  0  0  0  0  0  0  0  0
   -0.8312   -0.6553    1.3205 O   0  0  0  0  0  0  0  0  0  0  0  0
   -2.0602   -0.4125    0.6741 C   0  0  0  0  0  0  0  0  0  0  0  0
   -1.2921    0.1287   -0.5263 C   0  0  0  0  0  0  0  0  0  0  0  0
   -1.1440    1.6099   -0.4418 C   0  0  0  0  0  0  0  0  0  0  0  0
    3.0375    1.2279   -0.5603 H   0  0  0  0  0  0  0  0  0  0  0  0
    3.2134    0.5818    1.0955 H   0  0  0  0  0  0  0  0  0  0  0  0
    2.8239    2.3759    0.8542 H   0  0  0  0  0  0  0  0  0  0  0  0
    1.7486   -0.9409    0.7603 H   0  0  0  0  0  0  0  0  0  0  0  0
    1.6408   -0.4037   -0.9244 H   0  0  0  0  0  0  0  0  0  0  0  0
   -0.2557   -2.8581    0.3814 H   0  0  0  0  0  0  0  0  0  0  0  0
   -1.3473   -2.3103   -0.9808 H   0  0  0  0  0  0  0  0  0  0  0  0
    0.4320   -2.3046   -1.2078 H   0  0  0  0  0  0  0  0  0  0  0  0
   -2.6085   -1.3570    0.4753 H   0  0  0  0  0  0  0  0  0  0  0  0
   -2.6134    0.3516    1.2514 H   0  0  0  0  0  0  0  0  0  0  0  0
   -1.7741   -0.1924   -1.4496 H   0  0  0  0  0  0  0  0  0  0  0  0
   -0.5316    1.9611   -1.2987 H   0  0  0  0  0  0  0  0  0  0  0  0
   -2.1675    2.0530   -0.5958 H   0  0  0  0  0  0  0  0  0  0  0  0
   -0.8046    1.9823    0.5292 H   0  0  0  0  0  0  0  0  0  0  0  0
  1  2  1  0
  2  3  1  0
  3  4  1  0
  4  5  1  0
  4  6  1  0
  6  7  1  0
  7  8  1  0
  8  9  1  0
  8  4  1  0
  1 10  1  0
  1 11  1  0
  1 12  1  0
  3 13  1  0
  3 14  1  0
  5 15  1  0
  5 16  1  0
  5 17  1  0
  7 18  1  0
  7 19  1  0
  8 20  1  0
  9 21  1  0
  9 22  1  0
  9 23  1  0
M  END
