
     RDKit          3D

 25 25  0  0  0  0  0  0  0  0999 V2000
    3.0002    1.1527    0.0044 C   0  0  0  0  0  0  0  0  0  0  0  0
    2.7332    0.2916    1.0406 O   0  0  0  0  0  0  0  0  0  0  0  0
    2.4493   -0.9963    0.6489 C   0  0  0  0  0  0  0  0  0  0  0  0
    1.2431   -1.1002   -0.2548 C   0  0  0  0  0  0  0  0  0  0  0  0
    0.0402   -0.5515    0.5174 C   0  0  0  0  0  0  0  0  0  0  0  0
   -1.1432   -0.6702   -0.4130 C   0  0  0  0  0  0  0  0  0  0  0  0
   -2.4234   -0.1759    0.1791 C   0  0  0  0  0  0  0  0  0  0  0  0
   -2.6399    1.1852    0.6406 C   0  0  0  0  0  0  0  0  0  0  0  0
   -3.1908    0.8401   -0.6965 C   0  0  0  0  0  0  0  0  0  0  0  0
    2.1856    1.2711   -0.7173 H   0  0  0  0  0  0  0  0  0  0  0  0
    3.9018    0.8500   -0.5814 H   0  0  0  0  0  0  0  0  0  0  0  0
    3.1839    2.1602    0.4520 H   0  0  0  0  0  0  0  0  0  0  0  0
    2.1842   -1.5639    1.5850 H   0  0  0  0  0  0  0  0  0  0  0  0
    3.3247   -1.5299    0.2295 H   0  0  0  0  0  0  0  0  0  0  0  0
    1.1045   -2.2039   -0.4431 H   0  0  0  0  0  0  0  0  0  0  0  0
    1.3616   -0.6320   -1.2241 H   0  0  0  0  0  0  0  0  0  0  0  0
   -0.1607   -1.1658    1.4058 H   0  0  0  0  0  0  0  0  0  0  0  0
    0.2726    0.4879    0.7547 H   0  0  0  0  0  0  0  0  0  0  0  0
   -1.2276   -1.7294   -0.7261 H   0  0  0  0  0  0  0  0  0  0  0  0
   -0.8891   -0.0973   -1.3263 H   0  0  0  0  0  0  0  0  0  0  0  0
   -3.0479   -0.9923    0.6371 H   0  0  0  0  0  0  0  0  0  0  0  0
   -3.4345    1.3332    1.4291 H   0  0  0  0  0  0  0  0  0  0  0  0
   -1.8770    1.9719    0.6776 H   0  0  0  0  0  0  0  0  0  0  0  0
   -4.2720    0.6260   -0.8409 H   0  0  0  0  0  0  0  0  0  0  0  0
   -2.6789    1.2387   -1.5840 H   0  0  0  0  0  0  0  0  0  0  0  0
  1  2  1  0
  2  3  1  0
  3  4  1  0
  4  5  1  0
  5  6  1  0
  6  7  1  0
  7  8  1  0
  8  9  1  0
  9  7  1  0
  1 10  1  0
  1 11  1  0
  1 12  1  0
  3 13  1  0
  3 14  1  0
  4 15  1  0
  4 16  1  0
  5 17  1  0
  5 18  1  0
  6 19  1  0
  6 20  1  0
  7 21  1  0
  8 22  1  0
  8 23  1  0
  9 24  1  0
  9 25  1  0
M  END
