
     RDKit          3D

 21 21  0  0  0  0  0  0  0  0999 V2000
    3.1936    0.8652    0.1466 C   0  0  0  0  0  0  0  0  0  0  0  0
    1.9406    0.4543    0.6304 O   0  0  0  0  0  0  0  0  0  0  0  0
    1.4829   -0.5416   -0.2082 C   0  0  0  0  0  0  0  0  0  0  0  0
    0.1529   -1.0900    0.1707 C   0  0  0  0  0  0  0  0  0  0  0  0
   -0.2123   -2.0768   -0.7293 O   0  0  0  0  0  0  0  0  0  0  0  0
   -0.9121   -0.0244    0.2975 C   0  0  0  0  0  0  0  0  0  0  0  0
   -2.1539   -0.6917    0.7729 O   0  0  0  0  0  0  0  0  0  0  0  0
   -2.0833    0.0237   -0.5090 C   0  0  0  0  0  0  0  0  0  0  0  0
   -2.9632    1.2321   -0.4696 C   0  0  0  0  0  0  0  0  0  0  0  0
    3.9299    0.0610    0.1229 H   0  0  0  0  0  0  0  0  0  0  0  0
    3.0606    1.2043   -0.9157 H   0  0  0  0  0  0  0  0  0  0  0  0
    3.5513    1.7544    0.7307 H   0  0  0  0  0  0  0  0  0  0  0  0
    2.2203   -1.3698   -0.1675 H   0  0  0  0  0  0  0  0  0  0  0  0
    1.5021   -0.1818   -1.2693 H   0  0  0  0  0  0  0  0  0  0  0  0
    0.2512   -1.5611    1.1767 H   0  0  0  0  0  0  0  0  0  0  0  0
   -0.3842   -2.9409   -0.2810 H   0  0  0  0  0  0  0  0  0  0  0  0
   -0.6690    0.8077    0.9871 H   0  0  0  0  0  0  0  0  0  0  0  0
   -2.2395   -0.6228   -1.3926 H   0  0  0  0  0  0  0  0  0  0  0  0
   -2.5238    2.0538    0.1541 H   0  0  0  0  0  0  0  0  0  0  0  0
   -3.9517    1.0039    0.0189 H   0  0  0  0  0  0  0  0  0  0  0  0
   -3.1923    1.6405   -1.4617 H   0  0  0  0  0  0  0  0  0  0  0  0
  1  2  1  0
  2  3  1  0
  3  4  1  0
  4  5  1  0
  4  6  1  0
  6  7  1  0
  7  8  1  0
  8  9  1  0
  8  6  1  0
  1 10  1  0
  1 11  1  0
  1 12  1  0
  3 13  1  0
  3 14  1  0
  4 15  1  0
  5 16  1  0
  6 17  1  0
  8 18  1  0
  9 19  1  0
  9 20  1  0
  9 21  1  0
M  END
