
     RDKit          3D

 17 18  0  0  0  0  0  0  0  0999 V2000
    2.8672   -0.1730    0.1474 C   0  0  0  0  0  0  0  0  0  0  0  0
    1.6854    0.5554   -0.0734 O   0  0  0  0  0  0  0  0  0  0  0  0
    0.6197   -0.3371    0.0431 C   0  0  0  0  0  0  0  0  0  0  0  0
   -0.6625    0.1596   -0.1367 C   0  0  0  0  0  0  0  0  0  0  0  0
   -1.9229   -0.6334   -0.1340 C   0  0  0  0  0  0  0  0  0  0  0  0
   -2.2708    0.7868   -0.4677 C   0  0  0  0  0  0  0  0  0  0  0  0
   -1.1516    0.7732   -1.2872 O   0  0  0  0  0  0  0  0  0  0  0  0
   -1.3563    1.1864    0.6179 C   0  0  0  0  0  0  0  0  0  0  0  0
   -1.3888    1.9659    1.5211 O   0  0  0  0  0  0  0  0  0  0  0  0
    2.8375   -0.6176    1.1652 H   0  0  0  0  0  0  0  0  0  0  0  0
    2.8876   -0.9954   -0.6020 H   0  0  0  0  0  0  0  0  0  0  0  0
    3.7559    0.5022    0.0539 H   0  0  0  0  0  0  0  0  0  0  0  0
    0.8648   -1.1725   -0.6792 H   0  0  0  0  0  0  0  0  0  0  0  0
    0.7419   -0.8164    1.0468 H   0  0  0  0  0  0  0  0  0  0  0  0
   -2.2947   -0.9785    0.8552 H   0  0  0  0  0  0  0  0  0  0  0  0
   -2.0327   -1.3680   -0.9641 H   0  0  0  0  0  0  0  0  0  0  0  0
   -3.1799    1.1624   -0.6769 H   0  0  0  0  0  0  0  0  0  0  0  0
  1  2  1  0
  2  3  1  0
  3  4  1  0
  4  5  1  0
  5  6  1  0
  6  7  1  0
  6  8  1  0
  8  9  2  0
  7  4  1  0
  8  4  1  0
  1 10  1  0
  1 11  1  0
  1 12  1  0
  3 13  1  0
  3 14  1  0
  5 15  1  0
  5 16  1  0
  6 17  1  0
M  END
