
     RDKit          3D

 20 19  0  0  0  0  0  0  0  0999 V2000
    3.1679    0.0917   -0.1653 C   0  0  0  0  0  0  0  0  0  0  0  0
    2.4482   -1.0795    0.0457 O   0  0  0  0  0  0  0  0  0  0  0  0
    1.2294   -0.8997    0.6307 C   0  0  0  0  0  0  0  0  0  0  0  0
    0.2632   -0.0323   -0.1425 C   0  0  0  0  0  0  0  0  0  0  0  0
   -1.0153    0.0111    0.7058 C   0  0  0  0  0  0  0  0  0  0  0  0
   -1.9842    0.8656   -0.0435 C   0  0  0  0  0  0  0  0  0  0  0  0
   -3.0181    0.1895   -0.8485 C   0  0  0  0  0  0  0  0  0  0  0  0
   -1.8559    2.0730    0.0603 O   0  0  0  0  0  0  0  0  0  0  0  0
    2.5981    0.7623   -0.8296 H   0  0  0  0  0  0  0  0  0  0  0  0
    4.1511   -0.1076   -0.6397 H   0  0  0  0  0  0  0  0  0  0  0  0
    3.3079    0.5635    0.8296 H   0  0  0  0  0  0  0  0  0  0  0  0
    0.7733   -1.9143    0.7631 H   0  0  0  0  0  0  0  0  0  0  0  0
    1.2895   -0.4502    1.6560 H   0  0  0  0  0  0  0  0  0  0  0  0
    0.6674    0.9936   -0.2853 H   0  0  0  0  0  0  0  0  0  0  0  0
    0.0346   -0.4296   -1.1392 H   0  0  0  0  0  0  0  0  0  0  0  0
   -1.3551   -1.0224    0.8149 H   0  0  0  0  0  0  0  0  0  0  0  0
   -0.8463    0.4889    1.6686 H   0  0  0  0  0  0  0  0  0  0  0  0
   -3.4574    0.8190   -1.6335 H   0  0  0  0  0  0  0  0  0  0  0  0
   -2.6150   -0.7179   -1.3675 H   0  0  0  0  0  0  0  0  0  0  0  0
   -3.7834   -0.2046   -0.1385 H   0  0  0  0  0  0  0  0  0  0  0  0
  1  2  1  0
  2  3  1  0
  3  4  1  0
  4  5  1  0
  5  6  1  0
  6  7  1  0
  6  8  2  0
  1  9  1  0
  1 10  1  0
  1 11  1  0
  3 12  1  0
  3 13  1  0
  4 14  1  0
  4 15  1  0
  5 16  1  0
  5 17  1  0
  7 18  1  0
  7 19  1  0
  7 20  1  0
M  END
