
     RDKit          3D

 23 22  0  0  0  0  0  0  0  0999 V2000
   -3.9230    0.6842   -0.0332 C   0  0  0  0  0  0  0  0  0  0  0  0
   -2.6745    0.8906    0.5651 O   0  0  0  0  0  0  0  0  0  0  0  0
   -1.7512    0.1669   -0.1606 C   0  0  0  0  0  0  0  0  0  0  0  0
   -0.3472    0.3034    0.3849 C   0  0  0  0  0  0  0  0  0  0  0  0
    0.5877   -0.5016   -0.4461 C   0  0  0  0  0  0  0  0  0  0  0  0
    0.1389   -1.1257   -1.3944 O   0  0  0  0  0  0  0  0  0  0  0  0
    2.0363   -0.5864   -0.1842 C   0  0  0  0  0  0  0  0  0  0  0  0
    2.7221    0.7549   -0.2476 C   0  0  0  0  0  0  0  0  0  0  0  0
    2.2150   -1.2136    1.1944 C   0  0  0  0  0  0  0  0  0  0  0  0
   -4.1936   -0.4040   -0.0222 H   0  0  0  0  0  0  0  0  0  0  0  0
   -4.7359    1.2062    0.5177 H   0  0  0  0  0  0  0  0  0  0  0  0
   -3.8757    1.0352   -1.0836 H   0  0  0  0  0  0  0  0  0  0  0  0
   -2.0801   -0.9011   -0.1307 H   0  0  0  0  0  0  0  0  0  0  0  0
   -1.7831    0.4463   -1.2447 H   0  0  0  0  0  0  0  0  0  0  0  0
   -0.0809    1.3941    0.3027 H   0  0  0  0  0  0  0  0  0  0  0  0
   -0.3461    0.0366    1.4414 H   0  0  0  0  0  0  0  0  0  0  0  0
    2.5179   -1.2323   -0.9400 H   0  0  0  0  0  0  0  0  0  0  0  0
    2.2875    1.5000    0.4275 H   0  0  0  0  0  0  0  0  0  0  0  0
    2.7611    1.0767   -1.2987 H   0  0  0  0  0  0  0  0  0  0  0  0
    3.7766    0.5934    0.0713 H   0  0  0  0  0  0  0  0  0  0  0  0
    1.2752   -1.1513    1.7900 H   0  0  0  0  0  0  0  0  0  0  0  0
    3.0230   -0.6831    1.7398 H   0  0  0  0  0  0  0  0  0  0  0  0
    2.4501   -2.2893    1.0508 H   0  0  0  0  0  0  0  0  0  0  0  0
  1  2  1  0
  2  3  1  0
  3  4  1  0
  4  5  1  0
  5  6  2  0
  5  7  1  0
  7  8  1  0
  7  9  1  0
  1 10  1  0
  1 11  1  0
  1 12  1  0
  3 13  1  0
  3 14  1  0
  4 15  1  0
  4 16  1  0
  7 17  1  0
  8 18  1  0
  8 19  1  0
  8 20  1  0
  9 21  1  0
  9 22  1  0
  9 23  1  0
M  END
