
     RDKit          3D

 21 21  0  0  0  0  0  0  0  0999 V2000
   -2.8998   -0.2476    0.8492 C   0  0  0  0  0  0  0  0  0  0  0  0
   -2.1403    0.8993    0.9283 O   0  0  0  0  0  0  0  0  0  0  0  0
   -1.4386    1.1876   -0.2133 C   0  0  0  0  0  0  0  0  0  0  0  0
   -0.4595    0.1210   -0.6249 C   0  0  0  0  0  0  0  0  0  0  0  0
    0.5867   -0.1472    0.4169 C   0  0  0  0  0  0  0  0  0  0  0  0
    1.4824   -1.2144   -0.1150 C   0  0  0  0  0  0  0  0  0  0  0  0
    2.7414   -0.8541    0.0839 C   0  0  0  0  0  0  0  0  0  0  0  0
    2.7158    0.4714    0.7580 C   0  0  0  0  0  0  0  0  0  0  0  0
    1.4129    0.9433    0.6098 O   0  0  0  0  0  0  0  0  0  0  0  0
   -2.2845   -1.1491    0.6457 H   0  0  0  0  0  0  0  0  0  0  0  0
   -3.6428   -0.2064    0.0100 H   0  0  0  0  0  0  0  0  0  0  0  0
   -3.4394   -0.4190    1.7817 H   0  0  0  0  0  0  0  0  0  0  0  0
   -2.1715    1.2907   -1.0546 H   0  0  0  0  0  0  0  0  0  0  0  0
   -0.9385    2.1551   -0.0979 H   0  0  0  0  0  0  0  0  0  0  0  0
    0.0422    0.4686   -1.5513 H   0  0  0  0  0  0  0  0  0  0  0  0
   -0.9603   -0.8244   -0.8702 H   0  0  0  0  0  0  0  0  0  0  0  0
    0.1120   -0.4868    1.3684 H   0  0  0  0  0  0  0  0  0  0  0  0
    1.2130   -2.1503   -0.5947 H   0  0  0  0  0  0  0  0  0  0  0  0
    3.6535   -1.3710   -0.1677 H   0  0  0  0  0  0  0  0  0  0  0  0
    3.0070    0.3330    1.8066 H   0  0  0  0  0  0  0  0  0  0  0  0
    3.4081    1.2003    0.2532 H   0  0  0  0  0  0  0  0  0  0  0  0
  1  2  1  0
  2  3  1  0
  3  4  1  0
  4  5  1  0
  5  6  1  0
  6  7  2  0
  7  8  1  0
  8  9  1  0
  9  5  1  0
  1 10  1  0
  1 11  1  0
  1 12  1  0
  3 13  1  0
  3 14  1  0
  4 15  1  0
  4 16  1  0
  5 17  1  0
  6 18  1  0
  7 19  1  0
  8 20  1  0
  8 21  1  0
M  END
