
     RDKit          3D

 17 17  0  0  0  0  0  0  0  0999 V2000
    2.9434    0.4754   -0.3542 C   0  0  0  0  0  0  0  0  0  0  0  0
    1.7114    0.1703   -0.9282 O   0  0  0  0  0  0  0  0  0  0  0  0
    0.8220   -0.3216    0.0233 C   0  0  0  0  0  0  0  0  0  0  0  0
   -0.4821   -0.6148   -0.7337 C   0  0  0  0  0  0  0  0  0  0  0  0
   -1.4285   -1.1108    0.1405 O   0  0  0  0  0  0  0  0  0  0  0  0
   -2.6100   -0.4589   -0.1106 C   0  0  0  0  0  0  0  0  0  0  0  0
   -2.1518    0.8939   -0.5215 C   0  0  0  0  0  0  0  0  0  0  0  0
   -2.7563    1.9771   -0.3048 O   0  0  0  0  0  0  0  0  0  0  0  0
   -0.9472    0.6568   -1.1714 O   0  0  0  0  0  0  0  0  0  0  0  0
    3.5907    0.8594   -1.1774 H   0  0  0  0  0  0  0  0  0  0  0  0
    2.8001    1.2448    0.4373 H   0  0  0  0  0  0  0  0  0  0  0  0
    3.3312   -0.4669    0.0849 H   0  0  0  0  0  0  0  0  0  0  0  0
    1.1868   -1.2131    0.5452 H   0  0  0  0  0  0  0  0  0  0  0  0
    0.6075    0.5273    0.7201 H   0  0  0  0  0  0  0  0  0  0  0  0
   -0.2448   -1.2913   -1.5735 H   0  0  0  0  0  0  0  0  0  0  0  0
   -3.0800   -0.9186   -1.0030 H   0  0  0  0  0  0  0  0  0  0  0  0
   -3.2924   -0.4090    0.7543 H   0  0  0  0  0  0  0  0  0  0  0  0
  1  2  1  0
  2  3  1  0
  3  4  1  0
  4  5  1  0
  5  6  1  0
  6  7  1  0
  7  8  2  0
  7  9  1  0
  9  4  1  0
  1 10  1  0
  1 11  1  0
  1 12  1  0
  3 13  1  0
  3 14  1  0
  4 15  1  0
  6 16  1  0
  6 17  1  0
M  END
