
     RDKit          3D

 19 19  0  0  0  0  0  0  0  0999 V2000
    2.8254   -0.7970    0.5786 C   0  0  0  0  0  0  0  0  0  0  0  0
    1.5012   -0.4264    0.8537 O   0  0  0  0  0  0  0  0  0  0  0  0
    1.0993    0.4169   -0.1686 C   0  0  0  0  0  0  0  0  0  0  0  0
   -0.3100    0.8994   -0.0089 C   0  0  0  0  0  0  0  0  0  0  0  0
   -0.5723    1.6286    1.1674 O   0  0  0  0  0  0  0  0  0  0  0  0
   -1.8456    1.0971    1.1642 C   0  0  0  0  0  0  0  0  0  0  0  0
   -2.9577    1.4975    1.5533 O   0  0  0  0  0  0  0  0  0  0  0  0
   -1.2996   -0.1118    0.5142 C   0  0  0  0  0  0  0  0  0  0  0  0
   -2.1789   -0.7368   -0.5371 C   0  0  0  0  0  0  0  0  0  0  0  0
    3.4870    0.1043    0.5384 H   0  0  0  0  0  0  0  0  0  0  0  0
    2.8554   -1.2904   -0.4028 H   0  0  0  0  0  0  0  0  0  0  0  0
    3.2241   -1.5069    1.3214 H   0  0  0  0  0  0  0  0  0  0  0  0
    1.7895    1.2845   -0.1670 H   0  0  0  0  0  0  0  0  0  0  0  0
    1.1617   -0.0828   -1.1685 H   0  0  0  0  0  0  0  0  0  0  0  0
   -0.6662    1.4291   -0.8994 H   0  0  0  0  0  0  0  0  0  0  0  0
   -0.8845   -0.8024    1.2634 H   0  0  0  0  0  0  0  0  0  0  0  0
   -1.5603   -1.2527   -1.2867 H   0  0  0  0  0  0  0  0  0  0  0  0
   -2.8753   -1.4247   -0.0045 H   0  0  0  0  0  0  0  0  0  0  0  0
   -2.7932    0.0747   -1.0001 H   0  0  0  0  0  0  0  0  0  0  0  0
  1  2  1  0
  2  3  1  0
  3  4  1  0
  4  5  1  0
  5  6  1  0
  6  7  2  0
  6  8  1  0
  8  9  1  0
  8  4  1  0
  1 10  1  0
  1 11  1  0
  1 12  1  0
  3 13  1  0
  3 14  1  0
  4 15  1  0
  8 16  1  0
  9 17  1  0
  9 18  1  0
  9 19  1  0
M  END
