
     RDKit          3D

 22 22  0  0  0  0  0  0  0  0999 V2000
   -3.6410    0.3735    0.7411 C   0  0  0  0  0  0  0  0  0  0  0  0
   -2.6513   -0.5428    0.4025 O   0  0  0  0  0  0  0  0  0  0  0  0
   -1.4536    0.0980    0.0623 C   0  0  0  0  0  0  0  0  0  0  0  0
   -0.4644   -0.9863   -0.2829 C   0  0  0  0  0  0  0  0  0  0  0  0
    0.8826   -0.4962   -0.6832 C   0  0  0  0  0  0  0  0  0  0  0  0
    1.5569    0.2910    0.3879 C   0  0  0  0  0  0  0  0  0  0  0  0
    2.9374    0.8477    0.1090 C   0  0  0  0  0  0  0  0  0  0  0  0
    2.8188   -0.3047    1.0268 C   0  0  0  0  0  0  0  0  0  0  0  0
   -3.3641    1.0065    1.6054 H   0  0  0  0  0  0  0  0  0  0  0  0
   -3.9464    1.0238   -0.0867 H   0  0  0  0  0  0  0  0  0  0  0  0
   -4.5282   -0.2279    1.0518 H   0  0  0  0  0  0  0  0  0  0  0  0
   -1.0571    0.6725    0.9106 H   0  0  0  0  0  0  0  0  0  0  0  0
   -1.5674    0.7595   -0.8228 H   0  0  0  0  0  0  0  0  0  0  0  0
   -0.9104   -1.6263   -1.0943 H   0  0  0  0  0  0  0  0  0  0  0  0
   -0.3361   -1.5949    0.6470 H   0  0  0  0  0  0  0  0  0  0  0  0
    1.5235   -1.3791   -0.9084 H   0  0  0  0  0  0  0  0  0  0  0  0
    0.7757    0.1156   -1.6095 H   0  0  0  0  0  0  0  0  0  0  0  0
    0.9233    0.8986    1.0364 H   0  0  0  0  0  0  0  0  0  0  0  0
    3.3258    0.6951   -0.9179 H   0  0  0  0  0  0  0  0  0  0  0  0
    3.1707    1.8304    0.5236 H   0  0  0  0  0  0  0  0  0  0  0  0
    3.0543   -1.3196    0.6778 H   0  0  0  0  0  0  0  0  0  0  0  0
    2.9511   -0.1344    2.1198 H   0  0  0  0  0  0  0  0  0  0  0  0
  1  2  1  0
  2  3  1  0
  3  4  1  0
  4  5  1  0
  5  6  1  0
  6  7  1  0
  7  8  1  0
  8  6  1  0
  1  9  1  0
  1 10  1  0
  1 11  1  0
  3 12  1  0
  3 13  1  0
  4 14  1  0
  4 15  1  0
  5 16  1  0
  5 17  1  0
  6 18  1  0
  7 19  1  0
  7 20  1  0
  8 21  1  0
  8 22  1  0
M  END
