
     RDKit          3D

 18 18  0  0  0  0  0  0  0  0999 V2000
   -2.7892   -0.0764    0.8886 C   0  0  0  0  0  0  0  0  0  0  0  0
   -2.7331    0.8621   -0.1558 O   0  0  0  0  0  0  0  0  0  0  0  0
   -2.0127    0.3211   -1.2314 C   0  0  0  0  0  0  0  0  0  0  0  0
   -0.6420   -0.0231   -0.8480 C   0  0  0  0  0  0  0  0  0  0  0  0
    0.4817   -0.3127   -0.5125 C   0  0  0  0  0  0  0  0  0  0  0  0
    1.8631   -0.6533   -0.1085 C   0  0  0  0  0  0  0  0  0  0  0  0
    2.3976    0.1633    1.0018 C   0  0  0  0  0  0  0  0  0  0  0  0
    2.8722    0.3657   -0.4123 C   0  0  0  0  0  0  0  0  0  0  0  0
   -1.7575   -0.3031    1.1974 H   0  0  0  0  0  0  0  0  0  0  0  0
   -3.3954    0.2632    1.7240 H   0  0  0  0  0  0  0  0  0  0  0  0
   -3.2221   -1.0411    0.5270 H   0  0  0  0  0  0  0  0  0  0  0  0
   -2.5790   -0.5996   -1.5472 H   0  0  0  0  0  0  0  0  0  0  0  0
   -2.0289    0.9881   -2.1085 H   0  0  0  0  0  0  0  0  0  0  0  0
    2.1737   -1.7222   -0.1653 H   0  0  0  0  0  0  0  0  0  0  0  0
    3.0637   -0.3168    1.7327 H   0  0  0  0  0  0  0  0  0  0  0  0
    1.7809    0.9851    1.4600 H   0  0  0  0  0  0  0  0  0  0  0  0
    3.9119    0.0117   -0.5854 H   0  0  0  0  0  0  0  0  0  0  0  0
    2.6151    1.3485   -0.8566 H   0  0  0  0  0  0  0  0  0  0  0  0
  1  2  1  0
  2  3  1  0
  3  4  1  0
  4  5  3  0
  5  6  1  0
  6  7  1  0
  7  8  1  0
  8  6  1  0
  1  9  1  0
  1 10  1  0
  1 11  1  0
  3 12  1  0
  3 13  1  0
  6 14  1  0
  7 15  1  0
  7 16  1  0
  8 17  1  0
  8 18  1  0
M  END
