
     RDKit          3D

 19 19  0  0  0  0  0  0  0  0999 V2000
    2.8982   -0.3568   -0.4218 C   0  0  0  0  0  0  0  0  0  0  0  0
    1.6663   -0.6380    0.1428 O   0  0  0  0  0  0  0  0  0  0  0  0
    0.8258    0.4528    0.0826 C   0  0  0  0  0  0  0  0  0  0  0  0
   -0.5284    0.1731    0.6931 C   0  0  0  0  0  0  0  0  0  0  0  0
   -1.1235   -0.9878   -0.1146 C   0  0  0  0  0  0  0  0  0  0  0  0
   -2.5117   -0.7378    0.0760 O   0  0  0  0  0  0  0  0  0  0  0  0
   -2.7198    0.6261   -0.0718 C   0  0  0  0  0  0  0  0  0  0  0  0
   -3.7317    1.2172   -0.5557 O   0  0  0  0  0  0  0  0  0  0  0  0
   -1.4962    1.2920    0.4597 C   0  0  0  0  0  0  0  0  0  0  0  0
    3.5833   -1.2109   -0.3849 H   0  0  0  0  0  0  0  0  0  0  0  0
    2.7397   -0.1119   -1.5072 H   0  0  0  0  0  0  0  0  0  0  0  0
    3.4093    0.4982    0.0819 H   0  0  0  0  0  0  0  0  0  0  0  0
    0.6920    0.7600   -0.9811 H   0  0  0  0  0  0  0  0  0  0  0  0
    1.2616    1.3060    0.6553 H   0  0  0  0  0  0  0  0  0  0  0  0
   -0.4235   -0.1148    1.7449 H   0  0  0  0  0  0  0  0  0  0  0  0
   -0.8082   -1.9598    0.2787 H   0  0  0  0  0  0  0  0  0  0  0  0
   -0.8914   -0.8179   -1.1756 H   0  0  0  0  0  0  0  0  0  0  0  0
   -1.1082    1.9614   -0.3565 H   0  0  0  0  0  0  0  0  0  0  0  0
   -1.7335    1.8823    1.3543 H   0  0  0  0  0  0  0  0  0  0  0  0
  1  2  1  0
  2  3  1  0
  3  4  1  0
  4  5  1  0
  5  6  1  0
  6  7  1  0
  7  8  2  0
  7  9  1  0
  9  4  1  0
  1 10  1  0
  1 11  1  0
  1 12  1  0
  3 13  1  0
  3 14  1  0
  4 15  1  0
  5 16  1  0
  5 17  1  0
  9 18  1  0
  9 19  1  0
M  END
