
     RDKit          3D

 21 21  0  0  0  0  0  0  0  0999 V2000
    3.3590    0.0494   -0.1164 C   0  0  0  0  0  0  0  0  0  0  0  0
    2.4210    0.1537    0.8753 O   0  0  0  0  0  0  0  0  0  0  0  0
    1.2377    0.7277    0.5013 C   0  0  0  0  0  0  0  0  0  0  0  0
    0.5929   -0.0617   -0.5883 C   0  0  0  0  0  0  0  0  0  0  0  0
   -0.6729    0.5095   -1.0225 O   0  0  0  0  0  0  0  0  0  0  0  0
   -0.6035   -0.8322   -0.4588 C   0  0  0  0  0  0  0  0  0  0  0  0
   -1.4244   -0.9826    0.7633 C   0  0  0  0  0  0  0  0  0  0  0  0
   -2.7587   -0.7668    0.6024 O   0  0  0  0  0  0  0  0  0  0  0  0
   -3.1629    0.4597    0.1616 C   0  0  0  0  0  0  0  0  0  0  0  0
    3.6601    1.0371   -0.5539 H   0  0  0  0  0  0  0  0  0  0  0  0
    3.1142   -0.6990   -0.8990 H   0  0  0  0  0  0  0  0  0  0  0  0
    4.3007   -0.3437    0.3678 H   0  0  0  0  0  0  0  0  0  0  0  0
    0.5949    0.8024    1.4109 H   0  0  0  0  0  0  0  0  0  0  0  0
    1.3636    1.7921    0.1500 H   0  0  0  0  0  0  0  0  0  0  0  0
    1.2239   -0.2044   -1.4847 H   0  0  0  0  0  0  0  0  0  0  0  0
   -0.7884   -1.6379   -1.2280 H   0  0  0  0  0  0  0  0  0  0  0  0
   -1.3194   -2.0563    1.1094 H   0  0  0  0  0  0  0  0  0  0  0  0
   -1.0401   -0.3970    1.6309 H   0  0  0  0  0  0  0  0  0  0  0  0
   -2.8438    1.3018    0.8352 H   0  0  0  0  0  0  0  0  0  0  0  0
   -4.3004    0.4431    0.2366 H   0  0  0  0  0  0  0  0  0  0  0  0
   -2.9534    0.7051   -0.8902 H   0  0  0  0  0  0  0  0  0  0  0  0
  1  2  1  0
  2  3  1  0
  3  4  1  0
  4  5  1  0
  5  6  1  0
  6  7  1  0
  7  8  1  0
  8  9  1  0
  6  4  1  0
  1 10  1  0
  1 11  1  0
  1 12  1  0
  3 13  1  0
  3 14  1  0
  4 15  1  0
  6 16  1  0
  7 17  1  0
  7 18  1  0
  9 19  1  0
  9 20  1  0
  9 21  1  0
M  END
