
     RDKit          3D

 23 22  0  0  0  0  0  0  0  0999 V2000
    3.3175    0.3758    0.3980 C   0  0  0  0  0  0  0  0  0  0  0  0
    2.2146   -0.4541    0.1608 O   0  0  0  0  0  0  0  0  0  0  0  0
    1.1155    0.3967    0.0466 C   0  0  0  0  0  0  0  0  0  0  0  0
   -0.1652   -0.3632   -0.2141 C   0  0  0  0  0  0  0  0  0  0  0  0
   -0.3676   -1.3582    0.8926 C   0  0  0  0  0  0  0  0  0  0  0  0
   -0.0609   -1.0886   -1.4033 O   0  0  0  0  0  0  0  0  0  0  0  0
   -1.2653    0.6369   -0.3457 C   0  0  0  0  0  0  0  0  0  0  0  0
   -2.6131    0.0441   -0.6085 C   0  0  0  0  0  0  0  0  0  0  0  0
   -3.5178    1.1248   -0.7024 O   0  0  0  0  0  0  0  0  0  0  0  0
    4.2589   -0.1901    0.5078 H   0  0  0  0  0  0  0  0  0  0  0  0
    3.0622    0.9722    1.2988 H   0  0  0  0  0  0  0  0  0  0  0  0
    3.3469    1.0871   -0.4601 H   0  0  0  0  0  0  0  0  0  0  0  0
    1.2951    1.1784   -0.7228 H   0  0  0  0  0  0  0  0  0  0  0  0
    0.9922    0.9243    1.0155 H   0  0  0  0  0  0  0  0  0  0  0  0
    0.4142   -2.1578    0.7489 H   0  0  0  0  0  0  0  0  0  0  0  0
   -1.3358   -1.8797    0.8181 H   0  0  0  0  0  0  0  0  0  0  0  0
   -0.1784   -0.9451    1.9007 H   0  0  0  0  0  0  0  0  0  0  0  0
    0.8387   -1.5012   -1.5085 H   0  0  0  0  0  0  0  0  0  0  0  0
   -1.0180    1.3234   -1.1615 H   0  0  0  0  0  0  0  0  0  0  0  0
   -1.3436    1.2284    0.6019 H   0  0  0  0  0  0  0  0  0  0  0  0
   -2.9907   -0.5847    0.2186 H   0  0  0  0  0  0  0  0  0  0  0  0
   -2.6813   -0.4834   -1.5737 H   0  0  0  0  0  0  0  0  0  0  0  0
   -3.3181    1.7139    0.0923 H   0  0  0  0  0  0  0  0  0  0  0  0
  1  2  1  0
  2  3  1  0
  3  4  1  0
  4  5  1  0
  4  6  1  0
  4  7  1  0
  7  8  1  0
  8  9  1  0
  1 10  1  0
  1 11  1  0
  1 12  1  0
  3 13  1  0
  3 14  1  0
  5 15  1  0
  5 16  1  0
  5 17  1  0
  6 18  1  0
  7 19  1  0
  7 20  1  0
  8 21  1  0
  8 22  1  0
  9 23  1  0
M  END
