
     RDKit          3D

 25 25  0  0  0  0  0  0  0  0999 V2000
   -2.6654    0.9955   -0.1000 C   0  0  0  0  0  0  0  0  0  0  0  0
   -2.0776    0.4865    1.0435 O   0  0  0  0  0  0  0  0  0  0  0  0
   -1.4753   -0.7210    0.8581 C   0  0  0  0  0  0  0  0  0  0  0  0
   -0.2991   -0.7426   -0.0864 C   0  0  0  0  0  0  0  0  0  0  0  0
    0.1347   -2.2288   -0.1085 C   0  0  0  0  0  0  0  0  0  0  0  0
    0.8703    0.0508    0.4520 C   0  0  0  0  0  0  0  0  0  0  0  0
    2.0322   -0.0285   -0.5517 C   0  0  0  0  0  0  0  0  0  0  0  0
    2.3223    1.4252   -0.1323 C   0  0  0  0  0  0  0  0  0  0  0  0
    0.8090    1.5096    0.1616 C   0  0  0  0  0  0  0  0  0  0  0  0
   -3.4709    0.3047   -0.4802 H   0  0  0  0  0  0  0  0  0  0  0  0
   -3.1533    1.9652    0.1463 H   0  0  0  0  0  0  0  0  0  0  0  0
   -1.9552    1.1734   -0.9280 H   0  0  0  0  0  0  0  0  0  0  0  0
   -2.1913   -1.4985    0.4537 H   0  0  0  0  0  0  0  0  0  0  0  0
   -1.1098   -1.1852    1.8090 H   0  0  0  0  0  0  0  0  0  0  0  0
   -0.5367   -0.3868   -1.0950 H   0  0  0  0  0  0  0  0  0  0  0  0
   -0.7820   -2.7695   -0.4658 H   0  0  0  0  0  0  0  0  0  0  0  0
    1.0029   -2.3754   -0.7540 H   0  0  0  0  0  0  0  0  0  0  0  0
    0.2799   -2.5303    0.9439 H   0  0  0  0  0  0  0  0  0  0  0  0
    1.2250   -0.2439    1.4450 H   0  0  0  0  0  0  0  0  0  0  0  0
    2.8286   -0.7202   -0.2746 H   0  0  0  0  0  0  0  0  0  0  0  0
    1.7065   -0.0350   -1.6047 H   0  0  0  0  0  0  0  0  0  0  0  0
    2.9554    1.5167    0.7654 H   0  0  0  0  0  0  0  0  0  0  0  0
    2.6495    2.0744   -0.9635 H   0  0  0  0  0  0  0  0  0  0  0  0
    0.2742    1.7974   -0.7424 H   0  0  0  0  0  0  0  0  0  0  0  0
    0.6262    2.1664    1.0464 H   0  0  0  0  0  0  0  0  0  0  0  0
  1  2  1  0
  2  3  1  0
  3  4  1  0
  4  5  1  0
  4  6  1  0
  6  7  1  0
  7  8  1  0
  8  9  1  0
  9  6  1  0
  1 10  1  0
  1 11  1  0
  1 12  1  0
  3 13  1  0
  3 14  1  0
  4 15  1  0
  5 16  1  0
  5 17  1  0
  5 18  1  0
  6 19  1  0
  7 20  1  0
  7 21  1  0
  8 22  1  0
  8 23  1  0
  9 24  1  0
  9 25  1  0
M  END
