
     RDKit          3D

 19 19  0  0  0  0  0  0  0  0999 V2000
    3.2226   -0.2213   -0.2766 C   0  0  0  0  0  0  0  0  0  0  0  0
    2.4094    0.6185    0.4480 O   0  0  0  0  0  0  0  0  0  0  0  0
    1.0940    0.6083    0.0986 C   0  0  0  0  0  0  0  0  0  0  0  0
    0.3911   -0.6756    0.3120 C   0  0  0  0  0  0  0  0  0  0  0  0
    0.9429   -1.5991    0.8441 O   0  0  0  0  0  0  0  0  0  0  0  0
   -1.0353   -0.7195   -0.1799 C   0  0  0  0  0  0  0  0  0  0  0  0
   -1.8733    0.2226    0.6408 C   0  0  0  0  0  0  0  0  0  0  0  0
   -3.2881    0.4182    0.4379 C   0  0  0  0  0  0  0  0  0  0  0  0
   -2.3954    1.3014   -0.2174 O   0  0  0  0  0  0  0  0  0  0  0  0
    2.9328   -1.2826   -0.2053 H   0  0  0  0  0  0  0  0  0  0  0  0
    4.2603   -0.1177    0.1169 H   0  0  0  0  0  0  0  0  0  0  0  0
    3.2578    0.0274   -1.3643 H   0  0  0  0  0  0  0  0  0  0  0  0
    0.9502    0.9867   -0.9439 H   0  0  0  0  0  0  0  0  0  0  0  0
    0.5965    1.3930    0.7399 H   0  0  0  0  0  0  0  0  0  0  0  0
   -1.0052   -0.4723   -1.2682 H   0  0  0  0  0  0  0  0  0  0  0  0
   -1.3563   -1.7820   -0.0975 H   0  0  0  0  0  0  0  0  0  0  0  0
   -1.3954    0.6170    1.5785 H   0  0  0  0  0  0  0  0  0  0  0  0
   -3.8448    0.9722    1.2521 H   0  0  0  0  0  0  0  0  0  0  0  0
   -3.8638   -0.2951   -0.1921 H   0  0  0  0  0  0  0  0  0  0  0  0
  1  2  1  0
  2  3  1  0
  3  4  1  0
  4  5  2  0
  4  6  1  0
  6  7  1  0
  7  8  1  0
  8  9  1  0
  9  7  1  0
  1 10  1  0
  1 11  1  0
  1 12  1  0
  3 13  1  0
  3 14  1  0
  6 15  1  0
  6 16  1  0
  7 17  1  0
  8 18  1  0
  8 19  1  0
M  END
