
     RDKit          3D

 21 22  0  0  0  0  0  0  0  0999 V2000
    2.8337    0.3057    0.6823 C   0  0  0  0  0  0  0  0  0  0  0  0
    2.1903   -0.9150    0.6742 O   0  0  0  0  0  0  0  0  0  0  0  0
    1.2193   -1.0862   -0.2560 C   0  0  0  0  0  0  0  0  0  0  0  0
    0.0397   -0.1763   -0.2101 C   0  0  0  0  0  0  0  0  0  0  0  0
   -1.1557   -0.7523   -0.9903 C   0  0  0  0  0  0  0  0  0  0  0  0
   -2.3430    0.0653   -0.6046 C   0  0  0  0  0  0  0  0  0  0  0  0
   -1.9182    0.8945    0.5636 C   0  0  0  0  0  0  0  0  0  0  0  0
   -0.4283    0.6569    0.7561 C   0  0  0  0  0  0  0  0  0  0  0  0
    0.2987    1.1758   -0.3671 O   0  0  0  0  0  0  0  0  0  0  0  0
    3.6157    0.2640    1.5018 H   0  0  0  0  0  0  0  0  0  0  0  0
    3.3560    0.5071   -0.2906 H   0  0  0  0  0  0  0  0  0  0  0  0
    2.2019    1.1788    0.8866 H   0  0  0  0  0  0  0  0  0  0  0  0
    0.9055   -2.1723   -0.2692 H   0  0  0  0  0  0  0  0  0  0  0  0
    1.7142   -0.9235   -1.2644 H   0  0  0  0  0  0  0  0  0  0  0  0
   -0.9191   -0.6925   -2.0786 H   0  0  0  0  0  0  0  0  0  0  0  0
   -1.2211   -1.8172   -0.6478 H   0  0  0  0  0  0  0  0  0  0  0  0
   -3.1508   -0.6339   -0.2677 H   0  0  0  0  0  0  0  0  0  0  0  0
   -2.6604    0.6666   -1.4851 H   0  0  0  0  0  0  0  0  0  0  0  0
   -2.4842    0.6427    1.4990 H   0  0  0  0  0  0  0  0  0  0  0  0
   -2.0981    1.9915    0.4128 H   0  0  0  0  0  0  0  0  0  0  0  0
    0.0038    0.8203    1.7552 H   0  0  0  0  0  0  0  0  0  0  0  0
  1  2  1  0
  2  3  1  0
  3  4  1  0
  4  5  1  0
  5  6  1  0
  6  7  1  0
  7  8  1  0
  8  9  1  0
  8  4  1  0
  9  4  1  0
  1 10  1  0
  1 11  1  0
  1 12  1  0
  3 13  1  0
  3 14  1  0
  5 15  1  0
  5 16  1  0
  6 17  1  0
  6 18  1  0
  7 19  1  0
  7 20  1  0
  8 21  1  0
M  END
