
     RDKit          3D

 23 23  0  0  0  0  0  0  0  0999 V2000
    3.7163    0.4393    0.7118 C   0  0  0  0  0  0  0  0  0  0  0  0
    2.5083   -0.2534    0.7122 O   0  0  0  0  0  0  0  0  0  0  0  0
    1.6159    0.2632   -0.2259 C   0  0  0  0  0  0  0  0  0  0  0  0
    0.3569   -0.5573   -0.1353 C   0  0  0  0  0  0  0  0  0  0  0  0
   -0.7504   -0.1511   -1.0852 C   0  0  0  0  0  0  0  0  0  0  0  0
   -1.7089   -0.5341    0.0239 C   0  0  0  0  0  0  0  0  0  0  0  0
   -2.9450    0.3164    0.1185 C   0  0  0  0  0  0  0  0  0  0  0  0
   -3.6944   -0.2004    1.2013 O   0  0  0  0  0  0  0  0  0  0  0  0
   -0.5910   -0.1223    0.9855 C   0  0  0  0  0  0  0  0  0  0  0  0
    4.4317    0.0516    1.4397 H   0  0  0  0  0  0  0  0  0  0  0  0
    3.4929    1.4883    0.9454 H   0  0  0  0  0  0  0  0  0  0  0  0
    4.1358    0.3080   -0.3270 H   0  0  0  0  0  0  0  0  0  0  0  0
    1.4433    1.3326   -0.1105 H   0  0  0  0  0  0  0  0  0  0  0  0
    2.0686    0.0330   -1.2308 H   0  0  0  0  0  0  0  0  0  0  0  0
    0.4945   -1.6354   -0.1146 H   0  0  0  0  0  0  0  0  0  0  0  0
   -0.8253   -0.7387   -2.0031 H   0  0  0  0  0  0  0  0  0  0  0  0
   -0.7354    0.9654   -1.2239 H   0  0  0  0  0  0  0  0  0  0  0  0
   -1.8749   -1.6128    0.0615 H   0  0  0  0  0  0  0  0  0  0  0  0
   -2.7273    1.3714    0.2963 H   0  0  0  0  0  0  0  0  0  0  0  0
   -3.5478    0.1575   -0.7990 H   0  0  0  0  0  0  0  0  0  0  0  0
   -3.7701   -1.1873    1.0694 H   0  0  0  0  0  0  0  0  0  0  0  0
   -0.5598    0.9813    1.1493 H   0  0  0  0  0  0  0  0  0  0  0  0
   -0.5340   -0.7151    1.8976 H   0  0  0  0  0  0  0  0  0  0  0  0
  1  2  1  0
  2  3  1  0
  3  4  1  0
  4  5  1  0
  5  6  1  0
  6  7  1  0
  7  8  1  0
  6  9  1  0
  9  4  1  0
  1 10  1  0
  1 11  1  0
  1 12  1  0
  3 13  1  0
  3 14  1  0
  4 15  1  0
  5 16  1  0
  5 17  1  0
  6 18  1  0
  7 19  1  0
  7 20  1  0
  8 21  1  0
  9 22  1  0
  9 23  1  0
M  END
