
     RDKit          3D

 19 20  0  0  0  0  0  0  0  0999 V2000
    2.9500    0.4073   -0.1707 C   0  0  0  0  0  0  0  0  0  0  0  0
    1.6272    0.6203    0.1758 O   0  0  0  0  0  0  0  0  0  0  0  0
    0.8065   -0.4535   -0.1590 C   0  0  0  0  0  0  0  0  0  0  0  0
   -0.6057   -0.1240    0.2575 C   0  0  0  0  0  0  0  0  0  0  0  0
   -0.6900    0.1031    1.6293 O   0  0  0  0  0  0  0  0  0  0  0  0
   -1.6450   -1.1374   -0.1513 C   0  0  0  0  0  0  0  0  0  0  0  0
   -2.4813   -0.0039   -0.6886 C   0  0  0  0  0  0  0  0  0  0  0  0
   -1.9060    0.6912   -1.7249 O   0  0  0  0  0  0  0  0  0  0  0  0
   -1.2856    0.9414   -0.5273 C   0  0  0  0  0  0  0  0  0  0  0  0
    3.0130    0.2529   -1.2586 H   0  0  0  0  0  0  0  0  0  0  0  0
    3.5041    1.3358    0.0936 H   0  0  0  0  0  0  0  0  0  0  0  0
    3.4245   -0.4075    0.4004 H   0  0  0  0  0  0  0  0  0  0  0  0
    0.8701   -0.5560   -1.2686 H   0  0  0  0  0  0  0  0  0  0  0  0
    1.1595   -1.4103    0.2681 H   0  0  0  0  0  0  0  0  0  0  0  0
   -0.3844    1.0244    1.8087 H   0  0  0  0  0  0  0  0  0  0  0  0
   -1.3298   -1.8036   -0.9825 H   0  0  0  0  0  0  0  0  0  0  0  0
   -2.0991   -1.7059    0.6893 H   0  0  0  0  0  0  0  0  0  0  0  0
   -3.4041    0.3014   -0.2067 H   0  0  0  0  0  0  0  0  0  0  0  0
   -1.5239    1.9242   -0.0390 H   0  0  0  0  0  0  0  0  0  0  0  0
  1  2  1  0
  2  3  1  0
  3  4  1  0
  4  5  1  0
  4  6  1  0
  6  7  1  0
  7  8  1  0
  8  9  1  0
  9  4  1  0
  9  7  1  0
  1 10  1  0
  1 11  1  0
  1 12  1  0
  3 13  1  0
  3 14  1  0
  5 15  1  0
  6 16  1  0
  6 17  1  0
  7 18  1  0
  9 19  1  0
M  END
