
     RDKit          3D

 19 19  0  0  0  0  0  0  0  0999 V2000
    2.8412    0.5277    0.3879 C   0  0  0  0  0  0  0  0  0  0  0  0
    2.3852    0.0265   -0.7919 O   0  0  0  0  0  0  0  0  0  0  0  0
    1.1217   -0.4786   -0.8326 C   0  0  0  0  0  0  0  0  0  0  0  0
    0.0201    0.4527   -0.5295 C   0  0  0  0  0  0  0  0  0  0  0  0
    0.2881    1.6053   -0.2723 O   0  0  0  0  0  0  0  0  0  0  0  0
   -1.3642   -0.0265   -0.5449 C   0  0  0  0  0  0  0  0  0  0  0  0
   -1.6429   -1.1136    0.4587 C   0  0  0  0  0  0  0  0  0  0  0  0
   -1.6651   -0.0858    1.4331 O   0  0  0  0  0  0  0  0  0  0  0  0
   -2.2993    0.6843    0.4284 C   0  0  0  0  0  0  0  0  0  0  0  0
    2.8508   -0.2032    1.2231 H   0  0  0  0  0  0  0  0  0  0  0  0
    2.3828    1.4986    0.6304 H   0  0  0  0  0  0  0  0  0  0  0  0
    3.9401    0.7734    0.2447 H   0  0  0  0  0  0  0  0  0  0  0  0
    0.9846   -1.3684   -0.1496 H   0  0  0  0  0  0  0  0  0  0  0  0
    0.9764   -0.8343   -1.9018 H   0  0  0  0  0  0  0  0  0  0  0  0
   -1.8264   -0.1724   -1.5409 H   0  0  0  0  0  0  0  0  0  0  0  0
   -2.6745   -1.5243    0.4146 H   0  0  0  0  0  0  0  0  0  0  0  0
   -0.8361   -1.8295    0.5405 H   0  0  0  0  0  0  0  0  0  0  0  0
   -3.3226    0.3077    0.2831 H   0  0  0  0  0  0  0  0  0  0  0  0
   -2.1599    1.7604    0.5190 H   0  0  0  0  0  0  0  0  0  0  0  0
  1  2  1  0
  2  3  1  0
  3  4  1  0
  4  5  2  0
  4  6  1  0
  6  7  1  0
  7  8  1  0
  8  9  1  0
  9  6  1  0
  1 10  1  0
  1 11  1  0
  1 12  1  0
  3 13  1  0
  3 14  1  0
  6 15  1  0
  7 16  1  0
  7 17  1  0
  9 18  1  0
  9 19  1  0
M  END
