
     RDKit          3D

 21 21  0  0  0  0  0  0  0  0999 V2000
   -3.5183    0.7051   -0.1789 C   0  0  0  0  0  0  0  0  0  0  0  0
   -2.2145    0.6189   -0.6825 O   0  0  0  0  0  0  0  0  0  0  0  0
   -1.5540   -0.3429    0.0669 C   0  0  0  0  0  0  0  0  0  0  0  0
   -0.1260   -0.5377   -0.3750 C   0  0  0  0  0  0  0  0  0  0  0  0
    0.6179   -1.5920    0.4375 C   0  0  0  0  0  0  0  0  0  0  0  0
    1.0129   -0.1369    0.4812 C   0  0  0  0  0  0  0  0  0  0  0  0
    2.2969    0.1514   -0.2169 C   0  0  0  0  0  0  0  0  0  0  0  0
    3.2823    1.1292    0.3166 C   0  0  0  0  0  0  0  0  0  0  0  0
    2.5749   -0.4197   -1.2633 O   0  0  0  0  0  0  0  0  0  0  0  0
   -4.0410   -0.2921   -0.2719 H   0  0  0  0  0  0  0  0  0  0  0  0
   -3.4581    0.9027    0.9038 H   0  0  0  0  0  0  0  0  0  0  0  0
   -4.1456    1.4174   -0.7332 H   0  0  0  0  0  0  0  0  0  0  0  0
   -2.1045   -1.2774   -0.0208 H   0  0  0  0  0  0  0  0  0  0  0  0
   -1.6072   -0.0165    1.1369 H   0  0  0  0  0  0  0  0  0  0  0  0
    0.0404   -0.5621   -1.4640 H   0  0  0  0  0  0  0  0  0  0  0  0
    0.1335   -1.9941    1.3531 H   0  0  0  0  0  0  0  0  0  0  0  0
    1.2397   -2.3219   -0.0883 H   0  0  0  0  0  0  0  0  0  0  0  0
    0.8748    0.4358    1.4095 H   0  0  0  0  0  0  0  0  0  0  0  0
    4.3248    0.8738    0.0133 H   0  0  0  0  0  0  0  0  0  0  0  0
    3.2733    1.0944    1.4321 H   0  0  0  0  0  0  0  0  0  0  0  0
    3.0978    2.1644   -0.0452 H   0  0  0  0  0  0  0  0  0  0  0  0
  1  2  1  0
  2  3  1  0
  3  4  1  0
  4  5  1  0
  5  6  1  0
  6  7  1  0
  7  8  1  0
  7  9  2  0
  6  4  1  0
  1 10  1  0
  1 11  1  0
  1 12  1  0
  3 13  1  0
  3 14  1  0
  4 15  1  0
  5 16  1  0
  5 17  1  0
  6 18  1  0
  8 19  1  0
  8 20  1  0
  8 21  1  0
M  END
