
     RDKit          3D

 16 16  0  0  0  0  0  0  0  0999 V2000
    2.7347   -0.1145   -0.3395 C   0  0  0  0  0  0  0  0  0  0  0  0
    1.5041    0.5370   -0.1864 O   0  0  0  0  0  0  0  0  0  0  0  0
    0.5170   -0.3645    0.2147 C   0  0  0  0  0  0  0  0  0  0  0  0
   -0.7578    0.4175    0.3524 C   0  0  0  0  0  0  0  0  0  0  0  0
   -2.0336   -0.3717    0.2178 C   0  0  0  0  0  0  0  0  0  0  0  0
   -2.4594    0.9064   -0.3717 C   0  0  0  0  0  0  0  0  0  0  0  0
   -3.4847    1.5839   -0.4371 O   0  0  0  0  0  0  0  0  0  0  0  0
   -1.1790    1.0469   -0.8469 O   0  0  0  0  0  0  0  0  0  0  0  0
    2.9891   -0.5498    0.6495 H   0  0  0  0  0  0  0  0  0  0  0  0
    3.5046    0.5812   -0.7249 H   0  0  0  0  0  0  0  0  0  0  0  0
    2.6542   -0.9258   -1.1220 H   0  0  0  0  0  0  0  0  0  0  0  0
    0.3949   -1.2045   -0.4906 H   0  0  0  0  0  0  0  0  0  0  0  0
    0.8098   -0.7296    1.2134 H   0  0  0  0  0  0  0  0  0  0  0  0
   -0.8010    1.0646    1.2389 H   0  0  0  0  0  0  0  0  0  0  0  0
   -2.5246   -0.6743    1.1496 H   0  0  0  0  0  0  0  0  0  0  0  0
   -1.8683   -1.2027   -0.5172 H   0  0  0  0  0  0  0  0  0  0  0  0
  1  2  1  0
  2  3  1  0
  3  4  1  0
  4  5  1  0
  5  6  1  0
  6  7  2  0
  6  8  1  0
  8  4  1  0
  1  9  1  0
  1 10  1  0
  1 11  1  0
  3 12  1  0
  3 13  1  0
  4 14  1  0
  5 15  1  0
  5 16  1  0
M  END
