
     RDKit          3D

 19 19  0  0  0  0  0  0  0  0999 V2000
    2.8795   -0.0316    0.1503 C   0  0  0  0  0  0  0  0  0  0  0  0
    1.6142   -0.2695    0.6840 O   0  0  0  0  0  0  0  0  0  0  0  0
    0.6845    0.0715   -0.2645 C   0  0  0  0  0  0  0  0  0  0  0  0
   -0.7391   -0.1366    0.1813 C   0  0  0  0  0  0  0  0  0  0  0  0
   -1.1140   -1.5935    0.1264 C   0  0  0  0  0  0  0  0  0  0  0  0
   -1.1385    0.5658    1.2840 O   0  0  0  0  0  0  0  0  0  0  0  0
   -1.9042    1.4905    0.5406 C   0  0  0  0  0  0  0  0  0  0  0  0
   -1.7228    0.6366   -0.6437 C   0  0  0  0  0  0  0  0  0  0  0  0
   -2.1042    0.4965   -1.7902 O   0  0  0  0  0  0  0  0  0  0  0  0
    3.6944   -0.2801    0.8506 H   0  0  0  0  0  0  0  0  0  0  0  0
    2.9287    1.0235   -0.1826 H   0  0  0  0  0  0  0  0  0  0  0  0
    3.0636   -0.6571   -0.7620 H   0  0  0  0  0  0  0  0  0  0  0  0
    0.9042   -0.5211   -1.1759 H   0  0  0  0  0  0  0  0  0  0  0  0
    0.8640    1.1530   -0.5255 H   0  0  0  0  0  0  0  0  0  0  0  0
   -0.7020   -1.9846   -0.8478 H   0  0  0  0  0  0  0  0  0  0  0  0
   -2.2229   -1.7476    0.0388 H   0  0  0  0  0  0  0  0  0  0  0  0
   -0.6592   -2.1953    0.9177 H   0  0  0  0  0  0  0  0  0  0  0  0
   -2.9232    1.5120    0.9763 H   0  0  0  0  0  0  0  0  0  0  0  0
   -1.4031    2.4677    0.4422 H   0  0  0  0  0  0  0  0  0  0  0  0
  1  2  1  0
  2  3  1  0
  3  4  1  0
  4  5  1  0
  4  6  1  0
  6  7  1  0
  7  8  1  0
  8  9  2  0
  8  4  1  0
  1 10  1  0
  1 11  1  0
  1 12  1  0
  3 13  1  0
  3 14  1  0
  5 15  1  0
  5 16  1  0
  5 17  1  0
  7 18  1  0
  7 19  1  0
M  END
