
     RDKit          3D

 21 20  0  0  0  0  0  0  0  0999 V2000
    3.3344    1.2423    0.1507 C   0  0  0  0  0  0  0  0  0  0  0  0
    2.0983    0.7834   -0.3065 O   0  0  0  0  0  0  0  0  0  0  0  0
    1.8164   -0.3934    0.3481 C   0  0  0  0  0  0  0  0  0  0  0  0
    0.5021   -1.0036   -0.0515 C   0  0  0  0  0  0  0  0  0  0  0  0
   -0.5814   -0.1977    0.1900 O   0  0  0  0  0  0  0  0  0  0  0  0
   -1.7242   -0.8738   -0.2211 C   0  0  0  0  0  0  0  0  0  0  0  0
   -2.9764   -0.0714    0.0015 C   0  0  0  0  0  0  0  0  0  0  0  0
   -2.8958    1.1966   -0.7634 C   0  0  0  0  0  0  0  0  0  0  0  0
   -1.9040    1.4200   -1.4283 O   0  0  0  0  0  0  0  0  0  0  0  0
    4.1458    0.4979   -0.0558 H   0  0  0  0  0  0  0  0  0  0  0  0
    3.5930    2.1629   -0.4390 H   0  0  0  0  0  0  0  0  0  0  0  0
    3.3417    1.5095    1.2068 H   0  0  0  0  0  0  0  0  0  0  0  0
    2.6107   -1.1257    0.0679 H   0  0  0  0  0  0  0  0  0  0  0  0
    1.8434   -0.3035    1.4512 H   0  0  0  0  0  0  0  0  0  0  0  0
    0.5117   -1.3501   -1.1050 H   0  0  0  0  0  0  0  0  0  0  0  0
    0.3767   -1.9260    0.5740 H   0  0  0  0  0  0  0  0  0  0  0  0
   -1.8283   -1.7974    0.4212 H   0  0  0  0  0  0  0  0  0  0  0  0
   -1.6650   -1.2385   -1.2522 H   0  0  0  0  0  0  0  0  0  0  0  0
   -3.0585    0.1712    1.1007 H   0  0  0  0  0  0  0  0  0  0  0  0
   -3.8688   -0.6472   -0.3067 H   0  0  0  0  0  0  0  0  0  0  0  0
   -3.6717    1.9446   -0.7681 H   0  0  0  0  0  0  0  0  0  0  0  0
  1  2  1  0
  2  3  1  0
  3  4  1  0
  4  5  1  0
  5  6  1  0
  6  7  1  0
  7  8  1  0
  8  9  2  0
  1 10  1  0
  1 11  1  0
  1 12  1  0
  3 13  1  0
  3 14  1  0
  4 15  1  0
  4 16  1  0
  6 17  1  0
  6 18  1  0
  7 19  1  0
  7 20  1  0
  8 21  1  0
M  END
