
     RDKit          3D

 21 22  0  0  0  0  0  0  0  0999 V2000
    3.1345    0.2568   -0.2289 C   0  0  0  0  0  0  0  0  0  0  0  0
    2.3984   -0.8803   -0.4841 O   0  0  0  0  0  0  0  0  0  0  0  0
    1.0262   -0.7107   -0.4562 C   0  0  0  0  0  0  0  0  0  0  0  0
    0.6095   -0.2376    0.8951 C   0  0  0  0  0  0  0  0  0  0  0  0
   -0.9180   -0.0478    0.9704 C   0  0  0  0  0  0  0  0  0  0  0  0
   -1.6283    0.8668    0.1146 C   0  0  0  0  0  0  0  0  0  0  0  0
   -2.8732    0.5145   -0.7184 C   0  0  0  0  0  0  0  0  0  0  0  0
   -1.9310   -0.3526   -1.3378 O   0  0  0  0  0  0  0  0  0  0  0  0
   -1.6974   -0.7089   -0.0112 C   0  0  0  0  0  0  0  0  0  0  0  0
    4.2173   -0.0717   -0.3078 H   0  0  0  0  0  0  0  0  0  0  0  0
    3.0099    1.0546   -0.9880 H   0  0  0  0  0  0  0  0  0  0  0  0
    3.0088    0.6739    0.7924 H   0  0  0  0  0  0  0  0  0  0  0  0
    0.7822    0.0162   -1.2676 H   0  0  0  0  0  0  0  0  0  0  0  0
    0.5822   -1.7097   -0.6901 H   0  0  0  0  0  0  0  0  0  0  0  0
    0.9456   -0.9663    1.6499 H   0  0  0  0  0  0  0  0  0  0  0  0
    1.0336    0.7642    1.1035 H   0  0  0  0  0  0  0  0  0  0  0  0
   -1.2334   -0.0436    2.0555 H   0  0  0  0  0  0  0  0  0  0  0  0
   -0.9148    1.3595   -0.6210 H   0  0  0  0  0  0  0  0  0  0  0  0
   -3.6821    0.0356   -0.1802 H   0  0  0  0  0  0  0  0  0  0  0  0
   -3.2058    1.3443   -1.3433 H   0  0  0  0  0  0  0  0  0  0  0  0
   -2.6643   -1.1572    0.3809 H   0  0  0  0  0  0  0  0  0  0  0  0
  1  2  1  0
  2  3  1  0
  3  4  1  0
  4  5  1  0
  5  6  1  0
  6  7  1  0
  7  8  1  0
  8  9  1  0
  9  5  1  0
  9  6  1  0
  1 10  1  0
  1 11  1  0
  1 12  1  0
  3 13  1  0
  3 14  1  0
  4 15  1  0
  4 16  1  0
  5 17  1  0
  6 18  1  0
  7 19  1  0
  7 20  1  0
  9 21  1  0
M  END
