
     RDKit          3D

 23 23  0  0  0  0  0  0  0  0999 V2000
    1.8448   -1.2824    1.0663 C   0  0  0  0  0  0  0  0  0  0  0  0
    1.1294   -0.3259    1.7867 O   0  0  0  0  0  0  0  0  0  0  0  0
    0.9432    0.8350    1.1163 C   0  0  0  0  0  0  0  0  0  0  0  0
   -0.0802    0.8764    0.0364 C   0  0  0  0  0  0  0  0  0  0  0  0
    0.1397    2.0609   -0.9117 C   0  0  0  0  0  0  0  0  0  0  0  0
   -1.4859    0.9011    0.4293 O   0  0  0  0  0  0  0  0  0  0  0  0
   -0.9575   -0.1915   -0.2732 C   0  0  0  0  0  0  0  0  0  0  0  0
   -1.4169   -0.3722   -1.7178 C   0  0  0  0  0  0  0  0  0  0  0  0
   -1.1581   -1.4316    0.5411 C   0  0  0  0  0  0  0  0  0  0  0  0
    2.8793   -0.8001    0.9276 H   0  0  0  0  0  0  0  0  0  0  0  0
    1.8951   -2.2093    1.6430 H   0  0  0  0  0  0  0  0  0  0  0  0
    1.5197   -1.4845    0.0547 H   0  0  0  0  0  0  0  0  0  0  0  0
    0.6456    1.6009    1.9157 H   0  0  0  0  0  0  0  0  0  0  0  0
    1.9419    1.2321    0.7428 H   0  0  0  0  0  0  0  0  0  0  0  0
   -0.6902    2.2021   -1.6033 H   0  0  0  0  0  0  0  0  0  0  0  0
    1.0697    1.9520   -1.4894 H   0  0  0  0  0  0  0  0  0  0  0  0
    0.2135    2.9929   -0.2947 H   0  0  0  0  0  0  0  0  0  0  0  0
   -0.9354    0.3413   -2.4025 H   0  0  0  0  0  0  0  0  0  0  0  0
   -2.5132   -0.2304   -1.8186 H   0  0  0  0  0  0  0  0  0  0  0  0
   -1.0802   -1.3842   -2.0247 H   0  0  0  0  0  0  0  0  0  0  0  0
   -0.6653   -2.3373    0.1698 H   0  0  0  0  0  0  0  0  0  0  0  0
   -0.9463   -1.3237    1.6221 H   0  0  0  0  0  0  0  0  0  0  0  0
   -2.2927   -1.6214    0.4842 H   0  0  0  0  0  0  0  0  0  0  0  0
  1  2  1  0
  2  3  1  0
  3  4  1  0
  4  5  1  0
  4  6  1  0
  6  7  1  0
  7  8  1  0
  7  9  1  0
  7  4  1  0
  1 10  1  0
  1 11  1  0
  1 12  1  0
  3 13  1  0
  3 14  1  0
  5 15  1  0
  5 16  1  0
  5 17  1  0
  8 18  1  0
  8 19  1  0
  8 20  1  0
  9 21  1  0
  9 22  1  0
  9 23  1  0
M  END
