
     RDKit          3D

 23 23  0  0  0  0  0  0  0  0999 V2000
    3.1247   -0.1843   -0.0406 C   0  0  0  0  0  0  0  0  0  0  0  0
    2.3457    0.4631    0.8615 O   0  0  0  0  0  0  0  0  0  0  0  0
    1.0421    0.6022    0.4565 C   0  0  0  0  0  0  0  0  0  0  0  0
    0.3977   -0.7017    0.2463 C   0  0  0  0  0  0  0  0  0  0  0  0
    0.4683   -1.4116    1.4667 O   0  0  0  0  0  0  0  0  0  0  0  0
   -1.0621   -0.6433   -0.1071 C   0  0  0  0  0  0  0  0  0  0  0  0
   -1.4433    0.0876   -1.3451 C   0  0  0  0  0  0  0  0  0  0  0  0
   -2.0232    1.1921   -0.4522 C   0  0  0  0  0  0  0  0  0  0  0  0
   -1.9283    0.2425    0.7333 C   0  0  0  0  0  0  0  0  0  0  0  0
    2.7885   -1.2122   -0.2273 H   0  0  0  0  0  0  0  0  0  0  0  0
    2.9970    0.3586   -1.0182 H   0  0  0  0  0  0  0  0  0  0  0  0
    4.2020   -0.2252    0.2408 H   0  0  0  0  0  0  0  0  0  0  0  0
    0.9598    1.3093   -0.3969 H   0  0  0  0  0  0  0  0  0  0  0  0
    0.5016    1.1438    1.2956 H   0  0  0  0  0  0  0  0  0  0  0  0
    0.8822   -1.2793   -0.5550 H   0  0  0  0  0  0  0  0  0  0  0  0
   -0.0786   -2.2295    1.4343 H   0  0  0  0  0  0  0  0  0  0  0  0
   -1.4688   -1.6764   -0.1262 H   0  0  0  0  0  0  0  0  0  0  0  0
   -2.2303   -0.3818   -1.9843 H   0  0  0  0  0  0  0  0  0  0  0  0
   -0.6521    0.4948   -1.9767 H   0  0  0  0  0  0  0  0  0  0  0  0
   -1.3911    2.0839   -0.3592 H   0  0  0  0  0  0  0  0  0  0  0  0
   -3.0494    1.4761   -0.7432 H   0  0  0  0  0  0  0  0  0  0  0  0
   -2.9380   -0.1658    0.9654 H   0  0  0  0  0  0  0  0  0  0  0  0
   -1.4442    0.6570    1.6316 H   0  0  0  0  0  0  0  0  0  0  0  0
  1  2  1  0
  2  3  1  0
  3  4  1  0
  4  5  1  0
  4  6  1  0
  6  7  1  0
  7  8  1  0
  8  9  1  0
  9  6  1  0
  1 10  1  0
  1 11  1  0
  1 12  1  0
  3 13  1  0
  3 14  1  0
  4 15  1  0
  5 16  1  0
  6 17  1  0
  7 18  1  0
  7 19  1  0
  8 20  1  0
  8 21  1  0
  9 22  1  0
  9 23  1  0
M  END
