
     RDKit          3D

 21 21  0  0  0  0  0  0  0  0999 V2000
    3.7204   -0.0744    0.1374 C   0  0  0  0  0  0  0  0  0  0  0  0
    2.5532   -0.2363    0.8803 O   0  0  0  0  0  0  0  0  0  0  0  0
    1.4430    0.2767    0.2587 C   0  0  0  0  0  0  0  0  0  0  0  0
    0.2522    0.0336    1.1717 C   0  0  0  0  0  0  0  0  0  0  0  0
   -1.0096    0.5821    0.5342 C   0  0  0  0  0  0  0  0  0  0  0  0
   -1.2927   -0.0018   -0.6780 O   0  0  0  0  0  0  0  0  0  0  0  0
   -2.6844   -0.2532   -0.6741 C   0  0  0  0  0  0  0  0  0  0  0  0
   -2.8934   -0.5862    0.7896 C   0  0  0  0  0  0  0  0  0  0  0  0
   -2.0580    0.3534    1.3936 O   0  0  0  0  0  0  0  0  0  0  0  0
    3.8435    1.0290   -0.0003 H   0  0  0  0  0  0  0  0  0  0  0  0
    3.6883   -0.5695   -0.8407 H   0  0  0  0  0  0  0  0  0  0  0  0
    4.5991   -0.4051    0.7128 H   0  0  0  0  0  0  0  0  0  0  0  0
    1.5017    1.3609    0.0460 H   0  0  0  0  0  0  0  0  0  0  0  0
    1.2785   -0.2595   -0.6978 H   0  0  0  0  0  0  0  0  0  0  0  0
    0.3731    0.4938    2.1506 H   0  0  0  0  0  0  0  0  0  0  0  0
    0.1141   -1.0632    1.3183 H   0  0  0  0  0  0  0  0  0  0  0  0
   -0.8522    1.6803    0.3323 H   0  0  0  0  0  0  0  0  0  0  0  0
   -2.9685   -1.0563   -1.3498 H   0  0  0  0  0  0  0  0  0  0  0  0
   -3.1541    0.7266   -0.9067 H   0  0  0  0  0  0  0  0  0  0  0  0
   -2.5082   -1.5906    1.0074 H   0  0  0  0  0  0  0  0  0  0  0  0
   -3.9459   -0.4404    1.1012 H   0  0  0  0  0  0  0  0  0  0  0  0
  1  2  1  0
  2  3  1  0
  3  4  1  0
  4  5  1  0
  5  6  1  0
  6  7  1  0
  7  8  1  0
  8  9  1  0
  9  5  1  0
  1 10  1  0
  1 11  1  0
  1 12  1  0
  3 13  1  0
  3 14  1  0
  4 15  1  0
  4 16  1  0
  5 17  1  0
  7 18  1  0
  7 19  1  0
  8 20  1  0
  8 21  1  0
M  END
