
     RDKit          3D

 25 24  0  0  0  0  0  0  0  0999 V2000
    3.1646    0.8811    0.8914 C   0  0  0  0  0  0  0  0  0  0  0  0
    2.1884   -0.0862    0.7011 O   0  0  0  0  0  0  0  0  0  0  0  0
    0.9621    0.4501    0.3348 C   0  0  0  0  0  0  0  0  0  0  0  0
    0.0044   -0.7021    0.1629 C   0  0  0  0  0  0  0  0  0  0  0  0
    0.4994   -1.6474   -0.9092 C   0  0  0  0  0  0  0  0  0  0  0  0
   -1.3811   -0.2622   -0.2110 C   0  0  0  0  0  0  0  0  0  0  0  0
   -1.4507    0.4968   -1.4907 C   0  0  0  0  0  0  0  0  0  0  0  0
   -1.9462    0.5358    0.9539 C   0  0  0  0  0  0  0  0  0  0  0  0
   -2.1904   -1.3906   -0.3436 O   0  0  0  0  0  0  0  0  0  0  0  0
    3.3623    1.4849   -0.0082 H   0  0  0  0  0  0  0  0  0  0  0  0
    4.1107    0.3288    1.1181 H   0  0  0  0  0  0  0  0  0  0  0  0
    2.9684    1.5582    1.7308 H   0  0  0  0  0  0  0  0  0  0  0  0
    0.6320    1.0945    1.1749 H   0  0  0  0  0  0  0  0  0  0  0  0
    1.0208    1.0954   -0.5582 H   0  0  0  0  0  0  0  0  0  0  0  0
   -0.0005   -1.2748    1.1120 H   0  0  0  0  0  0  0  0  0  0  0  0
    0.6911   -1.0494   -1.8260 H   0  0  0  0  0  0  0  0  0  0  0  0
   -0.2988   -2.4133   -1.0810 H   0  0  0  0  0  0  0  0  0  0  0  0
    1.4577   -2.1107   -0.6023 H   0  0  0  0  0  0  0  0  0  0  0  0
   -1.0768   -0.1473   -2.3033 H   0  0  0  0  0  0  0  0  0  0  0  0
   -2.5219    0.6909   -1.7103 H   0  0  0  0  0  0  0  0  0  0  0  0
   -0.9207    1.4812   -1.4524 H   0  0  0  0  0  0  0  0  0  0  0  0
   -3.0301    0.7256    0.8078 H   0  0  0  0  0  0  0  0  0  0  0  0
   -1.8050   -0.0831    1.8593 H   0  0  0  0  0  0  0  0  0  0  0  0
   -1.4170    1.4985    1.0851 H   0  0  0  0  0  0  0  0  0  0  0  0
   -3.0227   -1.1546   -0.8522 H   0  0  0  0  0  0  0  0  0  0  0  0
  1  2  1  0
  2  3  1  0
  3  4  1  0
  4  5  1  0
  4  6  1  0
  6  7  1  0
  6  8  1  0
  6  9  1  0
  1 10  1  0
  1 11  1  0
  1 12  1  0
  3 13  1  0
  3 14  1  0
  4 15  1  0
  5 16  1  0
  5 17  1  0
  5 18  1  0
  7 19  1  0
  7 20  1  0
  7 21  1  0
  8 22  1  0
  8 23  1  0
  8 24  1  0
  9 25  1  0
M  END
