
     RDKit          3D

 21 20  0  0  0  0  0  0  0  0999 V2000
   -3.3239    0.9951   -0.0417 C   0  0  0  0  0  0  0  0  0  0  0  0
   -2.4550   -0.0363    0.3174 O   0  0  0  0  0  0  0  0  0  0  0  0
   -1.1459    0.2449   -0.0784 C   0  0  0  0  0  0  0  0  0  0  0  0
   -0.2839   -0.9118    0.3459 C   0  0  0  0  0  0  0  0  0  0  0  0
   -0.8041   -2.0511   -0.3125 O   0  0  0  0  0  0  0  0  0  0  0  0
    1.1455   -0.8020   -0.0737 C   0  0  0  0  0  0  0  0  0  0  0  0
    1.8682    0.3655    0.4399 C   0  0  0  0  0  0  0  0  0  0  0  0
    3.2945    0.5308    0.0484 C   0  0  0  0  0  0  0  0  0  0  0  0
    1.3693    1.1988    1.1622 O   0  0  0  0  0  0  0  0  0  0  0  0
   -3.2878    1.0998   -1.1273 H   0  0  0  0  0  0  0  0  0  0  0  0
   -2.9334    1.9097    0.4909 H   0  0  0  0  0  0  0  0  0  0  0  0
   -4.3406    0.8382    0.3611 H   0  0  0  0  0  0  0  0  0  0  0  0
   -1.1424    0.2788   -1.1851 H   0  0  0  0  0  0  0  0  0  0  0  0
   -0.8254    1.1737    0.3872 H   0  0  0  0  0  0  0  0  0  0  0  0
   -0.3934   -1.1318    1.4433 H   0  0  0  0  0  0  0  0  0  0  0  0
   -0.5812   -2.8298    0.2238 H   0  0  0  0  0  0  0  0  0  0  0  0
    1.1660   -0.8058   -1.1878 H   0  0  0  0  0  0  0  0  0  0  0  0
    1.6635   -1.7134    0.3372 H   0  0  0  0  0  0  0  0  0  0  0  0
    3.5123    0.0073   -0.9193 H   0  0  0  0  0  0  0  0  0  0  0  0
    3.5563    1.5931   -0.1292 H   0  0  0  0  0  0  0  0  0  0  0  0
    3.9414    0.0463    0.8072 H   0  0  0  0  0  0  0  0  0  0  0  0
  1  2  1  0
  2  3  1  0
  3  4  1  0
  4  5  1  0
  4  6  1  0
  6  7  1  0
  7  8  1  0
  7  9  2  0
  1 10  1  0
  1 11  1  0
  1 12  1  0
  3 13  1  0
  3 14  1  0
  4 15  1  0
  5 16  1  0
  6 17  1  0
  6 18  1  0
  8 19  1  0
  8 20  1  0
  8 21  1  0
M  END
