
     RDKit          3D

 19 20  0  0  0  0  0  0  0  0999 V2000
    3.1715   -0.4408   -0.3767 C   0  0  0  0  0  0  0  0  0  0  0  0
    1.8004   -0.3689   -0.5781 O   0  0  0  0  0  0  0  0  0  0  0  0
    1.1196    0.0022    0.5781 C   0  0  0  0  0  0  0  0  0  0  0  0
   -0.3315    0.0553    0.2790 C   0  0  0  0  0  0  0  0  0  0  0  0
   -1.1033    1.1222    0.3918 C   0  0  0  0  0  0  0  0  0  0  0  0
   -2.4947    0.7903    0.0048 C   0  0  0  0  0  0  0  0  0  0  0  0
   -2.6357    0.4923   -1.3564 O   0  0  0  0  0  0  0  0  0  0  0  0
   -2.4965   -0.5510   -0.4388 C   0  0  0  0  0  0  0  0  0  0  0  0
   -1.1177   -1.1143   -0.1967 C   0  0  0  0  0  0  0  0  0  0  0  0
    3.4465   -1.1844    0.4068 H   0  0  0  0  0  0  0  0  0  0  0  0
    3.6395   -0.6817   -1.3533 H   0  0  0  0  0  0  0  0  0  0  0  0
    3.5280    0.5731   -0.0583 H   0  0  0  0  0  0  0  0  0  0  0  0
    1.5127    0.9274    1.0064 H   0  0  0  0  0  0  0  0  0  0  0  0
    1.2566   -0.8510    1.3015 H   0  0  0  0  0  0  0  0  0  0  0  0
   -0.7699    2.0881    0.7166 H   0  0  0  0  0  0  0  0  0  0  0  0
   -3.3437    1.2384    0.5503 H   0  0  0  0  0  0  0  0  0  0  0  0
   -3.2970   -1.2873   -0.4612 H   0  0  0  0  0  0  0  0  0  0  0  0
   -1.2042   -1.8108    0.6677 H   0  0  0  0  0  0  0  0  0  0  0  0
   -0.6806   -1.5888   -1.0835 H   0  0  0  0  0  0  0  0  0  0  0  0
  1  2  1  0
  2  3  1  0
  3  4  1  0
  4  5  2  0
  5  6  1  0
  6  7  1  0
  7  8  1  0
  8  9  1  0
  9  4  1  0
  8  6  1  0
  1 10  1  0
  1 11  1  0
  1 12  1  0
  3 13  1  0
  3 14  1  0
  5 15  1  0
  6 16  1  0
  8 17  1  0
  9 18  1  0
  9 19  1  0
M  END
