
     RDKit          3D

 19 18  0  0  0  0  0  0  0  0999 V2000
    2.3926   -0.6327   -0.0507 C   0  0  0  0  0  0  0  0  0  0  0  0
    1.5695   -0.1957    0.9708 O   0  0  0  0  0  0  0  0  0  0  0  0
    0.6604    0.7290    0.5685 C   0  0  0  0  0  0  0  0  0  0  0  0
   -0.3054    0.3118   -0.4953 C   0  0  0  0  0  0  0  0  0  0  0  0
   -1.1964    1.4704   -0.7701 C   0  0  0  0  0  0  0  0  0  0  0  0
   -0.7697    2.5859   -0.6211 O   0  0  0  0  0  0  0  0  0  0  0  0
   -1.1036   -0.8963   -0.1965 C   0  0  0  0  0  0  0  0  0  0  0  0
   -1.9536   -0.8412    0.9767 C   0  0  0  0  0  0  0  0  0  0  0  0
   -1.9938    0.1569    1.6586 O   0  0  0  0  0  0  0  0  0  0  0  0
    1.8569   -1.1047   -0.8766 H   0  0  0  0  0  0  0  0  0  0  0  0
    3.1321   -1.3749    0.3214 H   0  0  0  0  0  0  0  0  0  0  0  0
    2.9998    0.1922   -0.4918 H   0  0  0  0  0  0  0  0  0  0  0  0
    1.2290    1.6056    0.1278 H   0  0  0  0  0  0  0  0  0  0  0  0
    0.0915    1.1641    1.4211 H   0  0  0  0  0  0  0  0  0  0  0  0
    0.3177    0.1008   -1.4160 H   0  0  0  0  0  0  0  0  0  0  0  0
   -2.1925    1.2642   -1.0930 H   0  0  0  0  0  0  0  0  0  0  0  0
   -1.7664   -1.0782   -1.0939 H   0  0  0  0  0  0  0  0  0  0  0  0
   -0.4061   -1.7789   -0.2043 H   0  0  0  0  0  0  0  0  0  0  0  0
   -2.5619   -1.6785    1.2645 H   0  0  0  0  0  0  0  0  0  0  0  0
  1  2  1  0
  2  3  1  0
  3  4  1  0
  4  5  1  0
  5  6  2  0
  4  7  1  0
  7  8  1  0
  8  9  2  0
  1 10  1  0
  1 11  1  0
  1 12  1  0
  3 13  1  0
  3 14  1  0
  4 15  1  0
  5 16  1  0
  7 17  1  0
  7 18  1  0
  8 19  1  0
M  END
