
     RDKit          3D

 21 21  0  0  0  0  0  0  0  0999 V2000
    2.7796    1.3633   -0.5819 C   0  0  0  0  0  0  0  0  0  0  0  0
    2.7538    0.6300   -1.7673 O   0  0  0  0  0  0  0  0  0  0  0  0
    2.3543   -0.6688   -1.4744 C   0  0  0  0  0  0  0  0  0  0  0  0
    1.0174   -0.5854   -0.8770 C   0  0  0  0  0  0  0  0  0  0  0  0
   -0.0889   -0.5225   -0.3874 C   0  0  0  0  0  0  0  0  0  0  0  0
   -1.4302   -0.4229    0.2120 C   0  0  0  0  0  0  0  0  0  0  0  0
   -1.9825   -1.6591    0.8918 C   0  0  0  0  0  0  0  0  0  0  0  0
   -1.7310    0.9058    0.9596 C   0  0  0  0  0  0  0  0  0  0  0  0
   -2.3654    0.5685   -0.3428 C   0  0  0  0  0  0  0  0  0  0  0  0
    3.0938    2.4113   -0.7630 H   0  0  0  0  0  0  0  0  0  0  0  0
    1.7426    1.4423   -0.1499 H   0  0  0  0  0  0  0  0  0  0  0  0
    3.3865    0.8420    0.1724 H   0  0  0  0  0  0  0  0  0  0  0  0
    3.1092   -1.0688   -0.7519 H   0  0  0  0  0  0  0  0  0  0  0  0
    2.3549   -1.2986   -2.3919 H   0  0  0  0  0  0  0  0  0  0  0  0
   -1.0897   -2.2531    1.2045 H   0  0  0  0  0  0  0  0  0  0  0  0
   -2.4912   -1.3878    1.8575 H   0  0  0  0  0  0  0  0  0  0  0  0
   -2.6459   -2.2455    0.2379 H   0  0  0  0  0  0  0  0  0  0  0  0
   -0.8866    1.6193    0.9763 H   0  0  0  0  0  0  0  0  0  0  0  0
   -2.3062    0.8142    1.9039 H   0  0  0  0  0  0  0  0  0  0  0  0
   -2.1284    1.2158   -1.1987 H   0  0  0  0  0  0  0  0  0  0  0  0
   -3.4461    0.3001   -0.2865 H   0  0  0  0  0  0  0  0  0  0  0  0
  1  2  1  0
  2  3  1  0
  3  4  1  0
  4  5  3  0
  5  6  1  0
  6  7  1  0
  6  8  1  0
  8  9  1  0
  9  6  1  0
  1 10  1  0
  1 11  1  0
  1 12  1  0
  3 13  1  0
  3 14  1  0
  7 15  1  0
  7 16  1  0
  7 17  1  0
  8 18  1  0
  8 19  1  0
  9 20  1  0
  9 21  1  0
M  END
