
     RDKit          3D

 23 23  0  0  0  0  0  0  0  0999 V2000
    2.8377    0.9201   -0.6849 C   0  0  0  0  0  0  0  0  0  0  0  0
    2.6283    0.2245    0.4958 O   0  0  0  0  0  0  0  0  0  0  0  0
    1.9852   -0.9745    0.2846 C   0  0  0  0  0  0  0  0  0  0  0  0
    0.6263   -0.8023   -0.3541 C   0  0  0  0  0  0  0  0  0  0  0  0
   -0.2987    0.0333    0.4913 C   0  0  0  0  0  0  0  0  0  0  0  0
   -1.6236    0.2022   -0.1815 C   0  0  0  0  0  0  0  0  0  0  0  0
   -2.6105    1.0399    0.6215 C   0  0  0  0  0  0  0  0  0  0  0  0
   -2.1458   -0.8306   -1.0584 C   0  0  0  0  0  0  0  0  0  0  0  0
   -1.6144    0.4294   -1.5721 O   0  0  0  0  0  0  0  0  0  0  0  0
    3.3668    1.8822   -0.4315 H   0  0  0  0  0  0  0  0  0  0  0  0
    1.8760    1.2118   -1.1638 H   0  0  0  0  0  0  0  0  0  0  0  0
    3.4650    0.3712   -1.4063 H   0  0  0  0  0  0  0  0  0  0  0  0
    1.8385   -1.4967    1.2505 H   0  0  0  0  0  0  0  0  0  0  0  0
    2.5523   -1.6761   -0.3646 H   0  0  0  0  0  0  0  0  0  0  0  0
    0.6571   -0.4021   -1.3756 H   0  0  0  0  0  0  0  0  0  0  0  0
    0.1359   -1.8192   -0.4310 H   0  0  0  0  0  0  0  0  0  0  0  0
    0.1413    1.0372    0.7170 H   0  0  0  0  0  0  0  0  0  0  0  0
   -0.4796   -0.4689    1.4736 H   0  0  0  0  0  0  0  0  0  0  0  0
   -3.2975    1.5838   -0.0566 H   0  0  0  0  0  0  0  0  0  0  0  0
   -2.0638    1.7635    1.2418 H   0  0  0  0  0  0  0  0  0  0  0  0
   -3.1508    0.3570    1.3125 H   0  0  0  0  0  0  0  0  0  0  0  0
   -1.5939   -1.7176   -1.3727 H   0  0  0  0  0  0  0  0  0  0  0  0
   -3.2320   -0.8681   -1.3529 H   0  0  0  0  0  0  0  0  0  0  0  0
  1  2  1  0
  2  3  1  0
  3  4  1  0
  4  5  1  0
  5  6  1  0
  6  7  1  0
  6  8  1  0
  8  9  1  0
  9  6  1  0
  1 10  1  0
  1 11  1  0
  1 12  1  0
  3 13  1  0
  3 14  1  0
  4 15  1  0
  4 16  1  0
  5 17  1  0
  5 18  1  0
  7 19  1  0
  7 20  1  0
  7 21  1  0
  8 22  1  0
  8 23  1  0
M  END
