
     RDKit          3D

 21 21  0  0  0  0  0  0  0  0999 V2000
   -2.5422    0.8463    0.9509 C   0  0  0  0  0  0  0  0  0  0  0  0
   -1.3298    0.1832    0.6491 O   0  0  0  0  0  0  0  0  0  0  0  0
   -1.3769   -0.0799   -0.7187 C   0  0  0  0  0  0  0  0  0  0  0  0
   -0.1333   -0.7943   -1.1923 C   0  0  0  0  0  0  0  0  0  0  0  0
    0.0919   -2.0209   -0.5830 O   0  0  0  0  0  0  0  0  0  0  0  0
    1.4721   -1.7839   -0.7711 C   0  0  0  0  0  0  0  0  0  0  0  0
    1.1598   -0.3088   -0.5935 C   0  0  0  0  0  0  0  0  0  0  0  0
    1.1268    0.0100    0.7408 O   0  0  0  0  0  0  0  0  0  0  0  0
    1.9276    1.1551    0.9573 C   0  0  0  0  0  0  0  0  0  0  0  0
   -2.6139    1.1031    2.0076 H   0  0  0  0  0  0  0  0  0  0  0  0
   -2.5270    1.7759    0.3312 H   0  0  0  0  0  0  0  0  0  0  0  0
   -3.4155    0.2139    0.6848 H   0  0  0  0  0  0  0  0  0  0  0  0
   -1.5959    0.8170   -1.2942 H   0  0  0  0  0  0  0  0  0  0  0  0
   -2.2316   -0.7895   -0.8621 H   0  0  0  0  0  0  0  0  0  0  0  0
   -0.0488   -0.8690   -2.2849 H   0  0  0  0  0  0  0  0  0  0  0  0
    2.0992   -2.2289   -0.0037 H   0  0  0  0  0  0  0  0  0  0  0  0
    1.7338   -1.9774   -1.8299 H   0  0  0  0  0  0  0  0  0  0  0  0
    1.7757    0.3491   -1.2460 H   0  0  0  0  0  0  0  0  0  0  0  0
    2.9803    0.9495    0.6495 H   0  0  0  0  0  0  0  0  0  0  0  0
    1.9422    1.4047    2.0509 H   0  0  0  0  0  0  0  0  0  0  0  0
    1.5057    2.0449    0.4464 H   0  0  0  0  0  0  0  0  0  0  0  0
  1  2  1  0
  2  3  1  0
  3  4  1  0
  4  5  1  0
  5  6  1  0
  6  7  1  0
  7  8  1  0
  8  9  1  0
  7  4  1  0
  1 10  1  0
  1 11  1  0
  1 12  1  0
  3 13  1  0
  3 14  1  0
  4 15  1  0
  6 16  1  0
  6 17  1  0
  7 18  1  0
  9 19  1  0
  9 20  1  0
  9 21  1  0
M  END
