
     RDKit          3D

 23 23  0  0  0  0  0  0  0  0999 V2000
    3.3771    0.8148   -0.2105 C   0  0  0  0  0  0  0  0  0  0  0  0
    2.3157    0.4063    0.5771 O   0  0  0  0  0  0  0  0  0  0  0  0
    1.1075    0.5575   -0.1014 C   0  0  0  0  0  0  0  0  0  0  0  0
    0.0016    0.0952    0.8128 C   0  0  0  0  0  0  0  0  0  0  0  0
    0.1826   -1.2259    1.1547 O   0  0  0  0  0  0  0  0  0  0  0  0
   -0.5289   -1.5879    0.0121 C   0  0  0  0  0  0  0  0  0  0  0  0
   -1.2730   -0.2963    0.1008 C   0  0  0  0  0  0  0  0  0  0  0  0
   -2.4590   -0.4191    1.0010 C   0  0  0  0  0  0  0  0  0  0  0  0
   -1.5348    0.4208   -1.1838 C   0  0  0  0  0  0  0  0  0  0  0  0
    3.3300    1.8588   -0.5199 H   0  0  0  0  0  0  0  0  0  0  0  0
    3.5274    0.1231   -1.0903 H   0  0  0  0  0  0  0  0  0  0  0  0
    4.2997    0.6901    0.4136 H   0  0  0  0  0  0  0  0  0  0  0  0
    1.0227    1.6109   -0.3983 H   0  0  0  0  0  0  0  0  0  0  0  0
    1.1767   -0.0552   -1.0235 H   0  0  0  0  0  0  0  0  0  0  0  0
   -0.2181    0.8080    1.6095 H   0  0  0  0  0  0  0  0  0  0  0  0
    0.0569   -1.7554   -0.8941 H   0  0  0  0  0  0  0  0  0  0  0  0
   -1.2075   -2.4739    0.1654 H   0  0  0  0  0  0  0  0  0  0  0  0
   -3.1213    0.4851    0.9715 H   0  0  0  0  0  0  0  0  0  0  0  0
   -3.0170   -1.3367    0.6879 H   0  0  0  0  0  0  0  0  0  0  0  0
   -2.1759   -0.5928    2.0675 H   0  0  0  0  0  0  0  0  0  0  0  0
   -1.6517    1.5101   -0.9642 H   0  0  0  0  0  0  0  0  0  0  0  0
   -0.7099    0.2838   -1.8958 H   0  0  0  0  0  0  0  0  0  0  0  0
   -2.5007    0.0787   -1.5812 H   0  0  0  0  0  0  0  0  0  0  0  0
  1  2  1  0
  2  3  1  0
  3  4  1  0
  4  5  1  0
  5  6  1  0
  6  7  1  0
  7  8  1  0
  7  9  1  0
  7  4  1  0
  1 10  1  0
  1 11  1  0
  1 12  1  0
  3 13  1  0
  3 14  1  0
  4 15  1  0
  6 16  1  0
  6 17  1  0
  8 18  1  0
  8 19  1  0
  8 20  1  0
  9 21  1  0
  9 22  1  0
  9 23  1  0
M  END
