
     RDKit          3D

 21 21  0  0  0  0  0  0  0  0999 V2000
    3.3558    0.1381   -0.3617 C   0  0  0  0  0  0  0  0  0  0  0  0
    2.0758   -0.2594   -0.6598 O   0  0  0  0  0  0  0  0  0  0  0  0
    1.1111    0.3086    0.1495 C   0  0  0  0  0  0  0  0  0  0  0  0
   -0.2479   -0.2244   -0.2993 C   0  0  0  0  0  0  0  0  0  0  0  0
   -0.2229   -1.7071   -0.1485 C   0  0  0  0  0  0  0  0  0  0  0  0
   -0.1168   -2.3791   -1.1388 O   0  0  0  0  0  0  0  0  0  0  0  0
   -1.3377    0.2569    0.6580 C   0  0  0  0  0  0  0  0  0  0  0  0
   -2.7154   -0.2302    0.2804 C   0  0  0  0  0  0  0  0  0  0  0  0
   -2.3873    1.2030    0.1189 C   0  0  0  0  0  0  0  0  0  0  0  0
    4.0514   -0.3645   -1.0560 H   0  0  0  0  0  0  0  0  0  0  0  0
    3.4841    1.2319   -0.5316 H   0  0  0  0  0  0  0  0  0  0  0  0
    3.6785   -0.1315    0.6637 H   0  0  0  0  0  0  0  0  0  0  0  0
    1.0603    1.4189   -0.0414 H   0  0  0  0  0  0  0  0  0  0  0  0
    1.2683    0.1404    1.2290 H   0  0  0  0  0  0  0  0  0  0  0  0
   -0.5064    0.1122   -1.3075 H   0  0  0  0  0  0  0  0  0  0  0  0
   -0.3031   -2.1021    0.8610 H   0  0  0  0  0  0  0  0  0  0  0  0
   -1.0673    0.4186    1.7061 H   0  0  0  0  0  0  0  0  0  0  0  0
   -2.8508   -0.8815   -0.5922 H   0  0  0  0  0  0  0  0  0  0  0  0
   -3.3588   -0.5069    1.1379 H   0  0  0  0  0  0  0  0  0  0  0  0
   -2.1147    1.6466   -0.8529 H   0  0  0  0  0  0  0  0  0  0  0  0
   -2.8562    1.9115    0.8210 H   0  0  0  0  0  0  0  0  0  0  0  0
  1  2  1  0
  2  3  1  0
  3  4  1  0
  4  5  1  0
  5  6  2  0
  4  7  1  0
  7  8  1  0
  8  9  1  0
  9  7  1  0
  1 10  1  0
  1 11  1  0
  1 12  1  0
  3 13  1  0
  3 14  1  0
  4 15  1  0
  5 16  1  0
  7 17  1  0
  8 18  1  0
  8 19  1  0
  9 20  1  0
  9 21  1  0
M  END
