
     RDKit          3D

 21 22  0  0  0  0  0  0  0  0999 V2000
    3.1306    0.6290    0.1504 C   0  0  0  0  0  0  0  0  0  0  0  0
    1.8653    0.2887    0.6314 O   0  0  0  0  0  0  0  0  0  0  0  0
    1.1216   -0.3634   -0.3376 C   0  0  0  0  0  0  0  0  0  0  0  0
   -0.2145   -0.7068    0.2148 C   0  0  0  0  0  0  0  0  0  0  0  0
   -1.1586   -1.4236   -0.7080 C   0  0  0  0  0  0  0  0  0  0  0  0
   -2.2636   -0.9730    0.1865 C   0  0  0  0  0  0  0  0  0  0  0  0
   -1.3464    0.2171   -0.0764 C   0  0  0  0  0  0  0  0  0  0  0  0
   -1.5504    1.4922    0.3854 C   0  0  0  0  0  0  0  0  0  0  0  0
   -1.2897   -0.2246   -1.3852 O   0  0  0  0  0  0  0  0  0  0  0  0
    3.0682    1.2951   -0.7211 H   0  0  0  0  0  0  0  0  0  0  0  0
    3.6919   -0.2818   -0.1597 H   0  0  0  0  0  0  0  0  0  0  0  0
    3.6739    1.1734    0.9541 H   0  0  0  0  0  0  0  0  0  0  0  0
    1.0865    0.1636   -1.3048 H   0  0  0  0  0  0  0  0  0  0  0  0
    1.6584   -1.3333   -0.5443 H   0  0  0  0  0  0  0  0  0  0  0  0
   -0.1553   -1.1453    1.2070 H   0  0  0  0  0  0  0  0  0  0  0  0
   -1.0245   -2.3393   -1.1091 H   0  0  0  0  0  0  0  0  0  0  0  0
   -2.1591   -1.3938    1.1985 H   0  0  0  0  0  0  0  0  0  0  0  0
   -3.2660   -0.8931   -0.2328 H   0  0  0  0  0  0  0  0  0  0  0  0
   -0.8053    1.8463    1.1586 H   0  0  0  0  0  0  0  0  0  0  0  0
   -2.5474    1.6658    0.8901 H   0  0  0  0  0  0  0  0  0  0  0  0
   -1.5156    2.3070   -0.3979 H   0  0  0  0  0  0  0  0  0  0  0  0
  1  2  1  0
  2  3  1  0
  3  4  1  0
  4  5  1  0
  5  6  1  0
  6  7  1  0
  7  8  1  0
  7  9  1  0
  7  4  1  0
  9  5  1  0
  1 10  1  0
  1 11  1  0
  1 12  1  0
  3 13  1  0
  3 14  1  0
  4 15  1  0
  5 16  1  0
  6 17  1  0
  6 18  1  0
  8 19  1  0
  8 20  1  0
  8 21  1  0
M  END
