
     RDKit          3D

 19 18  0  0  0  0  0  0  0  0999 V2000
   -3.1127    0.4453    0.0640 C   0  0  0  0  0  0  0  0  0  0  0  0
   -2.0947   -0.2959   -0.5372 O   0  0  0  0  0  0  0  0  0  0  0  0
   -0.8936    0.2520   -0.1443 C   0  0  0  0  0  0  0  0  0  0  0  0
    0.3036   -0.4379   -0.7105 C   0  0  0  0  0  0  0  0  0  0  0  0
    0.3072   -1.8869   -0.2679 C   0  0  0  0  0  0  0  0  0  0  0  0
    1.5057    0.1929   -0.1630 C   0  0  0  0  0  0  0  0  0  0  0  0
    2.5057    0.7142    0.2705 C   0  0  0  0  0  0  0  0  0  0  0  0
    3.6823    1.3541    0.7947 C   0  0  0  0  0  0  0  0  0  0  0  0
    4.7259    1.3240    0.1051 O   0  0  0  0  0  0  0  0  0  0  0  0
   -3.0518    0.4257    1.1606 H   0  0  0  0  0  0  0  0  0  0  0  0
   -4.0883    0.0668   -0.3291 H   0  0  0  0  0  0  0  0  0  0  0  0
   -3.0789    1.5236   -0.2342 H   0  0  0  0  0  0  0  0  0  0  0  0
   -0.8387    0.1681    0.9649 H   0  0  0  0  0  0  0  0  0  0  0  0
   -0.8859    1.3117   -0.4883 H   0  0  0  0  0  0  0  0  0  0  0  0
    0.3489   -0.3674   -1.8211 H   0  0  0  0  0  0  0  0  0  0  0  0
    1.3554   -2.2057   -0.2050 H   0  0  0  0  0  0  0  0  0  0  0  0
   -0.2694   -2.5304   -0.9606 H   0  0  0  0  0  0  0  0  0  0  0  0
   -0.1250   -1.9122    0.7463 H   0  0  0  0  0  0  0  0  0  0  0  0
    3.7042    1.8580    1.7550 H   0  0  0  0  0  0  0  0  0  0  0  0
  1  2  1  0
  2  3  1  0
  3  4  1  0
  4  5  1  0
  4  6  1  0
  6  7  3  0
  7  8  1  0
  8  9  2  0
  1 10  1  0
  1 11  1  0
  1 12  1  0
  3 13  1  0
  3 14  1  0
  4 15  1  0
  5 16  1  0
  5 17  1  0
  5 18  1  0
  8 19  1  0
M  END
