
     RDKit          3D

 25 25  0  0  0  0  0  0  0  0999 V2000
    2.8324   -1.4733    0.2429 C   0  0  0  0  0  0  0  0  0  0  0  0
    1.5158   -1.0894    0.0759 O   0  0  0  0  0  0  0  0  0  0  0  0
    1.4499    0.2723   -0.0737 C   0  0  0  0  0  0  0  0  0  0  0  0
    0.0650    0.8047   -0.2629 C   0  0  0  0  0  0  0  0  0  0  0  0
    0.0943    2.3085   -0.4182 C   0  0  0  0  0  0  0  0  0  0  0  0
   -0.7798    0.0667   -1.2629 C   0  0  0  0  0  0  0  0  0  0  0  0
   -1.2810   -0.7972   -0.1017 C   0  0  0  0  0  0  0  0  0  0  0  0
   -2.7615   -1.0851   -0.2195 C   0  0  0  0  0  0  0  0  0  0  0  0
   -0.9229    0.3480    0.8088 C   0  0  0  0  0  0  0  0  0  0  0  0
    3.4152   -1.1715   -0.6431 H   0  0  0  0  0  0  0  0  0  0  0  0
    2.8473   -2.5966    0.2551 H   0  0  0  0  0  0  0  0  0  0  0  0
    3.2858   -1.1406    1.1842 H   0  0  0  0  0  0  0  0  0  0  0  0
    1.9036    0.8396    0.7829 H   0  0  0  0  0  0  0  0  0  0  0  0
    2.0438    0.5525   -0.9682 H   0  0  0  0  0  0  0  0  0  0  0  0
   -0.9140    2.7513   -0.5245 H   0  0  0  0  0  0  0  0  0  0  0  0
    0.5670    2.7093    0.5078 H   0  0  0  0  0  0  0  0  0  0  0  0
    0.7775    2.5551   -1.2527 H   0  0  0  0  0  0  0  0  0  0  0  0
   -0.2397   -0.4782   -2.0439 H   0  0  0  0  0  0  0  0  0  0  0  0
   -1.6331    0.6781   -1.6311 H   0  0  0  0  0  0  0  0  0  0  0  0
   -0.7337   -1.7344    0.0447 H   0  0  0  0  0  0  0  0  0  0  0  0
   -2.9967   -1.5421   -1.2004 H   0  0  0  0  0  0  0  0  0  0  0  0
   -3.0495   -1.7827    0.5914 H   0  0  0  0  0  0  0  0  0  0  0  0
   -3.3524   -0.1725   -0.1300 H   0  0  0  0  0  0  0  0  0  0  0  0
   -0.3971    0.0886    1.7342 H   0  0  0  0  0  0  0  0  0  0  0  0
   -1.7361    1.0890    0.8917 H   0  0  0  0  0  0  0  0  0  0  0  0
  1  2  1  0
  2  3  1  0
  3  4  1  0
  4  5  1  0
  4  6  1  0
  6  7  1  0
  7  8  1  0
  7  9  1  0
  9  4  1  0
  1 10  1  0
  1 11  1  0
  1 12  1  0
  3 13  1  0
  3 14  1  0
  5 15  1  0
  5 16  1  0
  5 17  1  0
  6 18  1  0
  6 19  1  0
  7 20  1  0
  8 21  1  0
  8 22  1  0
  8 23  1  0
  9 24  1  0
  9 25  1  0
M  END
