
     RDKit          3D

 21 22  0  0  0  0  0  0  0  0999 V2000
    3.2656    0.3962   -0.2368 C   0  0  0  0  0  0  0  0  0  0  0  0
    1.9791    0.0491   -0.7100 O   0  0  0  0  0  0  0  0  0  0  0  0
    1.0794    0.4333    0.2475 C   0  0  0  0  0  0  0  0  0  0  0  0
   -0.2944    0.1426   -0.0937 C   0  0  0  0  0  0  0  0  0  0  0  0
   -0.7628   -1.3127   -0.0238 C   0  0  0  0  0  0  0  0  0  0  0  0
   -2.1192   -0.6191    0.1706 C   0  0  0  0  0  0  0  0  0  0  0  0
   -2.2194    0.1268   -1.1329 C   0  0  0  0  0  0  0  0  0  0  0  0
   -0.9024    0.6562   -1.1965 O   0  0  0  0  0  0  0  0  0  0  0  0
   -1.3454    0.3792    1.0047 C   0  0  0  0  0  0  0  0  0  0  0  0
    4.0364    0.1052   -0.9789 H   0  0  0  0  0  0  0  0  0  0  0  0
    3.3459    1.4731   -0.0204 H   0  0  0  0  0  0  0  0  0  0  0  0
    3.4795   -0.2072    0.6907 H   0  0  0  0  0  0  0  0  0  0  0  0
    1.3653   -0.1161    1.1919 H   0  0  0  0  0  0  0  0  0  0  0  0
    1.2417    1.5026    0.4666 H   0  0  0  0  0  0  0  0  0  0  0  0
   -0.4001   -1.8538    0.8593 H   0  0  0  0  0  0  0  0  0  0  0  0
   -0.6669   -1.7827   -0.9987 H   0  0  0  0  0  0  0  0  0  0  0  0
   -2.9186   -1.1595    0.5714 H   0  0  0  0  0  0  0  0  0  0  0  0
   -2.3980   -0.5847   -1.9461 H   0  0  0  0  0  0  0  0  0  0  0  0
   -2.9660    0.9197   -1.0305 H   0  0  0  0  0  0  0  0  0  0  0  0
   -1.7508    1.3911    0.8752 H   0  0  0  0  0  0  0  0  0  0  0  0
   -1.0488    0.0608    1.9992 H   0  0  0  0  0  0  0  0  0  0  0  0
  1  2  1  0
  2  3  1  0
  3  4  1  0
  4  5  1  0
  5  6  1  0
  6  7  1  0
  7  8  1  0
  6  9  1  0
  8  4  1  0
  9  4  1  0
  1 10  1  0
  1 11  1  0
  1 12  1  0
  3 13  1  0
  3 14  1  0
  5 15  1  0
  5 16  1  0
  6 17  1  0
  7 18  1  0
  7 19  1  0
  9 20  1  0
  9 21  1  0
M  END
