
     RDKit          3D

 20 20  0  0  0  0  0  0  0  0999 V2000
    2.6910    0.6143    0.0010 C   0  0  0  0  0  0  0  0  0  0  0  0
    1.3883    0.6599   -0.5004 O   0  0  0  0  0  0  0  0  0  0  0  0
    0.7433   -0.4851   -0.0415 C   0  0  0  0  0  0  0  0  0  0  0  0
   -0.6877   -0.5806   -0.5040 C   0  0  0  0  0  0  0  0  0  0  0  0
   -1.2604   -1.8783    0.0726 C   0  0  0  0  0  0  0  0  0  0  0  0
   -1.5555    0.5322   -0.0320 C   0  0  0  0  0  0  0  0  0  0  0  0
   -1.2631    1.9646   -0.3848 C   0  0  0  0  0  0  0  0  0  0  0  0
   -2.2664    1.2009   -1.0170 O   0  0  0  0  0  0  0  0  0  0  0  0
    3.2772    1.5008   -0.3227 H   0  0  0  0  0  0  0  0  0  0  0  0
    3.1666   -0.3430   -0.3008 H   0  0  0  0  0  0  0  0  0  0  0  0
    2.5832    0.6221    1.1229 H   0  0  0  0  0  0  0  0  0  0  0  0
    1.3014   -1.3751   -0.3964 H   0  0  0  0  0  0  0  0  0  0  0  0
    0.8278   -0.4706    1.0650 H   0  0  0  0  0  0  0  0  0  0  0  0
   -0.6770   -0.7185   -1.6036 H   0  0  0  0  0  0  0  0  0  0  0  0
   -1.1041   -2.7244   -0.6183 H   0  0  0  0  0  0  0  0  0  0  0  0
   -0.7745   -2.0231    1.0624 H   0  0  0  0  0  0  0  0  0  0  0  0
   -2.3361   -1.7878    0.2450 H   0  0  0  0  0  0  0  0  0  0  0  0
   -2.0070    0.3793    0.9665 H   0  0  0  0  0  0  0  0  0  0  0  0
   -0.3376    2.1684   -0.9227 H   0  0  0  0  0  0  0  0  0  0  0  0
   -1.7093    2.7441    0.2740 H   0  0  0  0  0  0  0  0  0  0  0  0
  1  2  1  0
  2  3  1  0
  3  4  1  0
  4  5  1  0
  4  6  1  0
  6  7  1  0
  7  8  1  0
  8  6  1  0
  1  9  1  0
  1 10  1  0
  1 11  1  0
  3 12  1  0
  3 13  1  0
  4 14  1  0
  5 15  1  0
  5 16  1  0
  5 17  1  0
  6 18  1  0
  7 19  1  0
  7 20  1  0
M  END
