
     RDKit          3D

 23 22  0  0  0  0  0  0  0  0999 V2000
    2.8315    0.9593   -1.0719 C   0  0  0  0  0  0  0  0  0  0  0  0
    1.6070    0.2768   -1.1378 O   0  0  0  0  0  0  0  0  0  0  0  0
    1.3885   -0.3809    0.0707 C   0  0  0  0  0  0  0  0  0  0  0  0
    0.0925   -1.1241    0.0490 C   0  0  0  0  0  0  0  0  0  0  0  0
   -0.1490   -1.7895    1.2448 O   0  0  0  0  0  0  0  0  0  0  0  0
   -1.0974   -0.2647   -0.2695 C   0  0  0  0  0  0  0  0  0  0  0  0
   -2.3293   -1.1609   -0.4101 C   0  0  0  0  0  0  0  0  0  0  0  0
   -1.3815    0.6782    0.6713 O   0  0  0  0  0  0  0  0  0  0  0  0
   -1.4224    1.9322    0.0690 C   0  0  0  0  0  0  0  0  0  0  0  0
    2.7379    1.6784   -0.2319 H   0  0  0  0  0  0  0  0  0  0  0  0
    3.0521    1.4642   -2.0186 H   0  0  0  0  0  0  0  0  0  0  0  0
    3.6458    0.2481   -0.8325 H   0  0  0  0  0  0  0  0  0  0  0  0
    2.2032   -1.1292    0.1702 H   0  0  0  0  0  0  0  0  0  0  0  0
    1.4921    0.3100    0.9304 H   0  0  0  0  0  0  0  0  0  0  0  0
    0.1670   -1.9007   -0.7477 H   0  0  0  0  0  0  0  0  0  0  0  0
    0.2118   -2.7076    1.1890 H   0  0  0  0  0  0  0  0  0  0  0  0
   -0.9759    0.2208   -1.2576 H   0  0  0  0  0  0  0  0  0  0  0  0
   -3.2011   -0.5969   -0.7557 H   0  0  0  0  0  0  0  0  0  0  0  0
   -2.1258   -2.0126   -1.0798 H   0  0  0  0  0  0  0  0  0  0  0  0
   -2.5595   -1.5965    0.5879 H   0  0  0  0  0  0  0  0  0  0  0  0
   -0.4339    2.1836   -0.4088 H   0  0  0  0  0  0  0  0  0  0  0  0
   -2.1702    1.9836   -0.7230 H   0  0  0  0  0  0  0  0  0  0  0  0
   -1.5834    2.7284    0.8241 H   0  0  0  0  0  0  0  0  0  0  0  0
  1  2  1  0
  2  3  1  0
  3  4  1  0
  4  5  1  0
  4  6  1  0
  6  7  1  0
  6  8  1  0
  8  9  1  0
  1 10  1  0
  1 11  1  0
  1 12  1  0
  3 13  1  0
  3 14  1  0
  4 15  1  0
  5 16  1  0
  6 17  1  0
  7 18  1  0
  7 19  1  0
  7 20  1  0
  9 21  1  0
  9 22  1  0
  9 23  1  0
M  END
