
     RDKit          3D

 23 23  0  0  0  0  0  0  0  0999 V2000
    2.6315    0.8312    1.1464 C   0  0  0  0  0  0  0  0  0  0  0  0
    1.2822    0.4678    0.9789 O   0  0  0  0  0  0  0  0  0  0  0  0
    1.2146   -0.4861   -0.0391 C   0  0  0  0  0  0  0  0  0  0  0  0
   -0.2310   -0.8567   -0.1986 C   0  0  0  0  0  0  0  0  0  0  0  0
   -0.4718   -1.8856   -1.2685 C   0  0  0  0  0  0  0  0  0  0  0  0
   -1.0433    0.3956   -0.4094 C   0  0  0  0  0  0  0  0  0  0  0  0
   -0.7215    1.1687   -1.5221 O   0  0  0  0  0  0  0  0  0  0  0  0
   -2.4683    0.4488    0.0007 C   0  0  0  0  0  0  0  0  0  0  0  0
   -1.4661    1.1341    0.8719 C   0  0  0  0  0  0  0  0  0  0  0  0
    3.0344    1.2529    0.2190 H   0  0  0  0  0  0  0  0  0  0  0  0
    3.2266   -0.1017    1.3450 H   0  0  0  0  0  0  0  0  0  0  0  0
    2.7596    1.4627    2.0335 H   0  0  0  0  0  0  0  0  0  0  0  0
    1.6685   -0.0632   -0.9543 H   0  0  0  0  0  0  0  0  0  0  0  0
    1.7771   -1.3746    0.3082 H   0  0  0  0  0  0  0  0  0  0  0  0
   -0.5419   -1.3178    0.7735 H   0  0  0  0  0  0  0  0  0  0  0  0
    0.4924   -2.2713   -1.6754 H   0  0  0  0  0  0  0  0  0  0  0  0
   -1.1485   -1.5134   -2.0722 H   0  0  0  0  0  0  0  0  0  0  0  0
   -0.9938   -2.8009   -0.8647 H   0  0  0  0  0  0  0  0  0  0  0  0
   -0.3170    2.0009   -1.1831 H   0  0  0  0  0  0  0  0  0  0  0  0
   -3.1663    1.1036   -0.5606 H   0  0  0  0  0  0  0  0  0  0  0  0
   -2.9526   -0.4677    0.3758 H   0  0  0  0  0  0  0  0  0  0  0  0
   -1.3550    2.2339    0.8487 H   0  0  0  0  0  0  0  0  0  0  0  0
   -1.2098    0.6388    1.8462 H   0  0  0  0  0  0  0  0  0  0  0  0
  1  2  1  0
  2  3  1  0
  3  4  1  0
  4  5  1  0
  4  6  1  0
  6  7  1  0
  6  8  1  0
  8  9  1  0
  9  6  1  0
  1 10  1  0
  1 11  1  0
  1 12  1  0
  3 13  1  0
  3 14  1  0
  4 15  1  0
  5 16  1  0
  5 17  1  0
  5 18  1  0
  7 19  1  0
  8 20  1  0
  8 21  1  0
  9 22  1  0
  9 23  1  0
M  END
