
     RDKit          3D

 19 19  0  0  0  0  0  0  0  0999 V2000
    2.8318    0.0946    0.6699 C   0  0  0  0  0  0  0  0  0  0  0  0
    1.4240    0.0565    0.7275 O   0  0  0  0  0  0  0  0  0  0  0  0
    0.9845    0.2026   -0.5860 C   0  0  0  0  0  0  0  0  0  0  0  0
   -0.5129    0.1828   -0.7000 C   0  0  0  0  0  0  0  0  0  0  0  0
   -1.0908   -1.1129   -0.1911 C   0  0  0  0  0  0  0  0  0  0  0  0
   -2.4639   -0.7309    0.1838 C   0  0  0  0  0  0  0  0  0  0  0  0
   -2.5023    0.5724    0.4049 C   0  0  0  0  0  0  0  0  0  0  0  0
   -1.1800    1.1499    0.1964 C   0  0  0  0  0  0  0  0  0  0  0  0
   -0.7822    2.2174    0.6957 O   0  0  0  0  0  0  0  0  0  0  0  0
    3.2850   -0.0122    1.6547 H   0  0  0  0  0  0  0  0  0  0  0  0
    3.1122    1.0107    0.1431 H   0  0  0  0  0  0  0  0  0  0  0  0
    3.2020   -0.7735    0.0551 H   0  0  0  0  0  0  0  0  0  0  0  0
    1.3710   -0.6537   -1.1750 H   0  0  0  0  0  0  0  0  0  0  0  0
    1.3808    1.1177   -1.0359 H   0  0  0  0  0  0  0  0  0  0  0  0
   -0.7666    0.3329   -1.7654 H   0  0  0  0  0  0  0  0  0  0  0  0
   -0.5228   -1.3991    0.7341 H   0  0  0  0  0  0  0  0  0  0  0  0
   -1.0544   -1.9147   -0.9523 H   0  0  0  0  0  0  0  0  0  0  0  0
   -3.2963   -1.4400    0.2578 H   0  0  0  0  0  0  0  0  0  0  0  0
   -3.4188    1.0994    0.7009 H   0  0  0  0  0  0  0  0  0  0  0  0
  1  2  1  0
  2  3  1  0
  3  4  1  0
  4  5  1  0
  5  6  1  0
  6  7  2  0
  7  8  1  0
  8  9  2  0
  8  4  1  0
  1 10  1  0
  1 11  1  0
  1 12  1  0
  3 13  1  0
  3 14  1  0
  4 15  1  0
  5 16  1  0
  5 17  1  0
  6 18  1  0
  7 19  1  0
M  END
