
     RDKit          3D

 20 19  0  0  0  0  0  0  0  0999 V2000
   -3.5821   -0.0181   -0.6355 C   0  0  0  0  0  0  0  0  0  0  0  0
   -2.2202   -0.2443   -0.8188 O   0  0  0  0  0  0  0  0  0  0  0  0
   -1.5841    0.0030    0.3830 C   0  0  0  0  0  0  0  0  0  0  0  0
   -0.0829   -0.2200    0.2770 C   0  0  0  0  0  0  0  0  0  0  0  0
    0.4739    0.6204   -0.6764 O   0  0  0  0  0  0  0  0  0  0  0  0
    1.8161    0.3933   -0.7738 C   0  0  0  0  0  0  0  0  0  0  0  0
    2.6282    0.6096    0.4582 C   0  0  0  0  0  0  0  0  0  0  0  0
    3.9667    0.3132    0.0857 O   0  0  0  0  0  0  0  0  0  0  0  0
   -3.8049    1.0186   -0.3237 H   0  0  0  0  0  0  0  0  0  0  0  0
   -4.1842   -0.2313   -1.5264 H   0  0  0  0  0  0  0  0  0  0  0  0
   -3.9060   -0.7621    0.1480 H   0  0  0  0  0  0  0  0  0  0  0  0
   -1.7749    1.0458    0.7059 H   0  0  0  0  0  0  0  0  0  0  0  0
   -1.9378   -0.7123    1.1668 H   0  0  0  0  0  0  0  0  0  0  0  0
    0.3845    0.0536    1.2683 H   0  0  0  0  0  0  0  0  0  0  0  0
    0.1700   -1.2698    0.0877 H   0  0  0  0  0  0  0  0  0  0  0  0
    2.2202    1.0510   -1.5792 H   0  0  0  0  0  0  0  0  0  0  0  0
    2.0435   -0.6608   -1.1169 H   0  0  0  0  0  0  0  0  0  0  0  0
    2.3719   -0.1378    1.2570 H   0  0  0  0  0  0  0  0  0  0  0  0
    2.5962    1.6239    0.8578 H   0  0  0  0  0  0  0  0  0  0  0  0
    4.4059   -0.2445    0.7553 H   0  0  0  0  0  0  0  0  0  0  0  0
  1  2  1  0
  2  3  1  0
  3  4  1  0
  4  5  1  0
  5  6  1  0
  6  7  1  0
  7  8  1  0
  1  9  1  0
  1 10  1  0
  1 11  1  0
  3 12  1  0
  3 13  1  0
  4 14  1  0
  4 15  1  0
  6 16  1  0
  6 17  1  0
  7 18  1  0
  7 19  1  0
  8 20  1  0
M  END
