
     RDKit          3D

 17 16  0  0  0  0  0  0  0  0999 V2000
    2.6956   -0.7980    0.2536 C   0  0  0  0  0  0  0  0  0  0  0  0
    2.3812    0.5412    0.1796 O   0  0  0  0  0  0  0  0  0  0  0  0
    1.3234    0.8212   -0.6056 C   0  0  0  0  0  0  0  0  0  0  0  0
    0.0506    0.2717   -0.1078 C   0  0  0  0  0  0  0  0  0  0  0  0
   -0.0694   -0.3237    0.9805 O   0  0  0  0  0  0  0  0  0  0  0  0
   -1.1400    0.3853   -0.8441 O   0  0  0  0  0  0  0  0  0  0  0  0
   -2.3548   -0.1266   -0.3929 C   0  0  0  0  0  0  0  0  0  0  0  0
   -2.8174    0.4282    0.8784 C   0  0  0  0  0  0  0  0  0  0  0  0
   -2.1671    1.2643    1.4611 O   0  0  0  0  0  0  0  0  0  0  0  0
    3.5922   -0.9615    0.9250 H   0  0  0  0  0  0  0  0  0  0  0  0
    2.9831   -1.1984   -0.7498 H   0  0  0  0  0  0  0  0  0  0  0  0
    1.8332   -1.3664    0.6056 H   0  0  0  0  0  0  0  0  0  0  0  0
    1.5211    0.4610   -1.6691 H   0  0  0  0  0  0  0  0  0  0  0  0
    1.2515    1.9378   -0.7433 H   0  0  0  0  0  0  0  0  0  0  0  0
   -3.0934   -0.0134   -1.2204 H   0  0  0  0  0  0  0  0  0  0  0  0
   -2.2456   -1.2342   -0.2561 H   0  0  0  0  0  0  0  0  0  0  0  0
   -3.7443    0.0937    1.3052 H   0  0  0  0  0  0  0  0  0  0  0  0
  1  2  1  0
  2  3  1  0
  3  4  1  0
  4  5  2  0
  4  6  1  0
  6  7  1  0
  7  8  1  0
  8  9  2  0
  1 10  1  0
  1 11  1  0
  1 12  1  0
  3 13  1  0
  3 14  1  0
  7 15  1  0
  7 16  1  0
  8 17  1  0
M  END
