
     RDKit          3D

 23 22  0  0  0  0  0  0  0  0999 V2000
   -3.2462   -0.8310    0.1441 C   0  0  0  0  0  0  0  0  0  0  0  0
   -2.2830   -0.7819    1.1255 O   0  0  0  0  0  0  0  0  0  0  0  0
   -1.3148    0.1834    0.8904 C   0  0  0  0  0  0  0  0  0  0  0  0
   -0.6122   -0.0995   -0.4168 C   0  0  0  0  0  0  0  0  0  0  0  0
    0.4382    0.9322   -0.6882 C   0  0  0  0  0  0  0  0  0  0  0  0
    1.5074    1.0114    0.3517 C   0  0  0  0  0  0  0  0  0  0  0  0
    2.2777   -0.2564    0.5356 C   0  0  0  0  0  0  0  0  0  0  0  0
    2.9730   -0.7005   -0.6880 C   0  0  0  0  0  0  0  0  0  0  0  0
    2.3232   -1.2619   -1.5531 O   0  0  0  0  0  0  0  0  0  0  0  0
   -3.8095    0.1136    0.0096 H   0  0  0  0  0  0  0  0  0  0  0  0
   -4.0257   -1.5632    0.5126 H   0  0  0  0  0  0  0  0  0  0  0  0
   -2.8911   -1.2714   -0.8077 H   0  0  0  0  0  0  0  0  0  0  0  0
   -0.6293    0.3032    1.7479 H   0  0  0  0  0  0  0  0  0  0  0  0
   -1.8219    1.1805    0.7503 H   0  0  0  0  0  0  0  0  0  0  0  0
   -0.2716   -1.1333   -0.5114 H   0  0  0  0  0  0  0  0  0  0  0  0
   -1.3974    0.0497   -1.2156 H   0  0  0  0  0  0  0  0  0  0  0  0
   -0.0754    1.9243   -0.7107 H   0  0  0  0  0  0  0  0  0  0  0  0
    0.8935    0.7930   -1.6726 H   0  0  0  0  0  0  0  0  0  0  0  0
    1.1093    1.3074    1.3478 H   0  0  0  0  0  0  0  0  0  0  0  0
    2.2377    1.7909    0.0041 H   0  0  0  0  0  0  0  0  0  0  0  0
    3.0152   -0.0954    1.3451 H   0  0  0  0  0  0  0  0  0  0  0  0
    1.5713   -1.0346    0.9319 H   0  0  0  0  0  0  0  0  0  0  0  0
    4.0318   -0.5604   -0.8721 H   0  0  0  0  0  0  0  0  0  0  0  0
  1  2  1  0
  2  3  1  0
  3  4  1  0
  4  5  1  0
  5  6  1  0
  6  7  1  0
  7  8  1  0
  8  9  2  0
  1 10  1  0
  1 11  1  0
  1 12  1  0
  3 13  1  0
  3 14  1  0
  4 15  1  0
  4 16  1  0
  5 17  1  0
  5 18  1  0
  6 19  1  0
  6 20  1  0
  7 21  1  0
  7 22  1  0
  8 23  1  0
M  END
