
     RDKit          3D

 23 23  0  0  0  0  0  0  0  0999 V2000
   -2.7579   -1.1174   -0.7173 C   0  0  0  0  0  0  0  0  0  0  0  0
   -1.8670   -0.1341   -1.1057 O   0  0  0  0  0  0  0  0  0  0  0  0
   -1.8005    0.9355   -0.2592 C   0  0  0  0  0  0  0  0  0  0  0  0
   -1.3724    0.6117    1.1367 C   0  0  0  0  0  0  0  0  0  0  0  0
   -0.1100    0.0358    1.1770 O   0  0  0  0  0  0  0  0  0  0  0  0
    0.8802    0.8309    0.6605 C   0  0  0  0  0  0  0  0  0  0  0  0
    2.1915    0.0514    0.7827 C   0  0  0  0  0  0  0  0  0  0  0  0
    2.3168   -1.2511    0.0982 C   0  0  0  0  0  0  0  0  0  0  0  0
    3.1124   -0.0227   -0.3658 C   0  0  0  0  0  0  0  0  0  0  0  0
   -2.5051   -1.5547    0.2609 H   0  0  0  0  0  0  0  0  0  0  0  0
   -2.7009   -1.9144   -1.5034 H   0  0  0  0  0  0  0  0  0  0  0  0
   -3.8106   -0.7634   -0.7320 H   0  0  0  0  0  0  0  0  0  0  0  0
   -1.1292    1.7485   -0.6224 H   0  0  0  0  0  0  0  0  0  0  0  0
   -2.8287    1.3935   -0.1855 H   0  0  0  0  0  0  0  0  0  0  0  0
   -1.4080    1.5464    1.7494 H   0  0  0  0  0  0  0  0  0  0  0  0
   -2.0931   -0.1063    1.5688 H   0  0  0  0  0  0  0  0  0  0  0  0
    0.7582    0.9973   -0.4497 H   0  0  0  0  0  0  0  0  0  0  0  0
    1.0292    1.7852    1.1786 H   0  0  0  0  0  0  0  0  0  0  0  0
    2.6422    0.1525    1.7862 H   0  0  0  0  0  0  0  0  0  0  0  0
    2.8440   -2.0457    0.6284 H   0  0  0  0  0  0  0  0  0  0  0  0
    1.5982   -1.6048   -0.6586 H   0  0  0  0  0  0  0  0  0  0  0  0
    4.2198   -0.0638   -0.1615 H   0  0  0  0  0  0  0  0  0  0  0  0
    2.7910    0.4898   -1.2827 H   0  0  0  0  0  0  0  0  0  0  0  0
  1  2  1  0
  2  3  1  0
  3  4  1  0
  4  5  1  0
  5  6  1  0
  6  7  1  0
  7  8  1  0
  8  9  1  0
  9  7  1  0
  1 10  1  0
  1 11  1  0
  1 12  1  0
  3 13  1  0
  3 14  1  0
  4 15  1  0
  4 16  1  0
  6 17  1  0
  6 18  1  0
  7 19  1  0
  8 20  1  0
  8 21  1  0
  9 22  1  0
  9 23  1  0
M  END
