
     RDKit          3D

 21 21  0  0  0  0  0  0  0  0999 V2000
    3.1622    0.6787   -0.1709 C   0  0  0  0  0  0  0  0  0  0  0  0
    2.0294    0.2375   -0.8894 O   0  0  0  0  0  0  0  0  0  0  0  0
    1.0886   -0.1269    0.0617 C   0  0  0  0  0  0  0  0  0  0  0  0
   -0.1900   -0.6246   -0.5275 C   0  0  0  0  0  0  0  0  0  0  0  0
   -1.2171   -1.0224    0.5327 C   0  0  0  0  0  0  0  0  0  0  0  0
   -1.7728   -2.2827    0.3711 O   0  0  0  0  0  0  0  0  0  0  0  0
   -1.4666    0.0664   -0.4478 C   0  0  0  0  0  0  0  0  0  0  0  0
   -1.5905    1.4962   -0.0071 C   0  0  0  0  0  0  0  0  0  0  0  0
   -2.4230   -0.2811   -1.4332 O   0  0  0  0  0  0  0  0  0  0  0  0
    2.8488    1.5264    0.4424 H   0  0  0  0  0  0  0  0  0  0  0  0
    3.4122   -0.1670    0.5246 H   0  0  0  0  0  0  0  0  0  0  0  0
    4.0250    0.8425   -0.8062 H   0  0  0  0  0  0  0  0  0  0  0  0
    1.5003   -0.9749    0.6861 H   0  0  0  0  0  0  0  0  0  0  0  0
    0.9325    0.7271    0.7316 H   0  0  0  0  0  0  0  0  0  0  0  0
   -0.0327   -1.3605   -1.3662 H   0  0  0  0  0  0  0  0  0  0  0  0
   -1.0514   -0.7364    1.5750 H   0  0  0  0  0  0  0  0  0  0  0  0
   -1.1182   -2.9484    0.0233 H   0  0  0  0  0  0  0  0  0  0  0  0
   -0.6774    1.9334    0.3961 H   0  0  0  0  0  0  0  0  0  0  0  0
   -1.8438    2.1017   -0.9270 H   0  0  0  0  0  0  0  0  0  0  0  0
   -2.4545    1.6358    0.6719 H   0  0  0  0  0  0  0  0  0  0  0  0
   -3.1612   -0.7207   -0.9065 H   0  0  0  0  0  0  0  0  0  0  0  0
  1  2  1  0
  2  3  1  0
  3  4  1  0
  4  5  1  0
  5  6  1  0
  5  7  1  0
  7  8  1  0
  7  9  1  0
  7  4  1  0
  1 10  1  0
  1 11  1  0
  1 12  1  0
  3 13  1  0
  3 14  1  0
  4 15  1  0
  5 16  1  0
  6 17  1  0
  8 18  1  0
  8 19  1  0
  8 20  1  0
  9 21  1  0
M  END
