
     RDKit          3D

 21 21  0  0  0  0  0  0  0  0999 V2000
    2.5026   -1.3306   -0.4554 C   0  0  0  0  0  0  0  0  0  0  0  0
    1.1112   -1.0830   -0.5460 O   0  0  0  0  0  0  0  0  0  0  0  0
    0.9056    0.1108    0.1071 C   0  0  0  0  0  0  0  0  0  0  0  0
   -0.5128    0.5950    0.1423 C   0  0  0  0  0  0  0  0  0  0  0  0
   -1.5019   -0.2901    0.8253 C   0  0  0  0  0  0  0  0  0  0  0  0
   -1.5706   -1.6082    0.1570 C   0  0  0  0  0  0  0  0  0  0  0  0
   -0.8123   -2.5411    0.3433 O   0  0  0  0  0  0  0  0  0  0  0  0
   -1.0669    1.3677   -1.0064 C   0  0  0  0  0  0  0  0  0  0  0  0
   -0.6350    2.1031    0.2396 C   0  0  0  0  0  0  0  0  0  0  0  0
    2.8007   -2.2598   -0.9468 H   0  0  0  0  0  0  0  0  0  0  0  0
    2.7390   -1.3852    0.6359 H   0  0  0  0  0  0  0  0  0  0  0  0
    3.0537   -0.4494   -0.8456 H   0  0  0  0  0  0  0  0  0  0  0  0
    1.2245   -0.0874    1.1771 H   0  0  0  0  0  0  0  0  0  0  0  0
    1.6144    0.8801   -0.2741 H   0  0  0  0  0  0  0  0  0  0  0  0
   -1.2142   -0.4915    1.8945 H   0  0  0  0  0  0  0  0  0  0  0  0
   -2.5211    0.1790    0.8154 H   0  0  0  0  0  0  0  0  0  0  0  0
   -2.3786   -1.7825   -0.5861 H   0  0  0  0  0  0  0  0  0  0  0  0
   -2.1482    1.3467   -1.1829 H   0  0  0  0  0  0  0  0  0  0  0  0
   -0.4762    1.4723   -1.9408 H   0  0  0  0  0  0  0  0  0  0  0  0
   -1.3881    2.5378    0.9191 H   0  0  0  0  0  0  0  0  0  0  0  0
    0.2740    2.7160    0.1072 H   0  0  0  0  0  0  0  0  0  0  0  0
  1  2  1  0
  2  3  1  0
  3  4  1  0
  4  5  1  0
  5  6  1  0
  6  7  2  0
  4  8  1  0
  8  9  1  0
  9  4  1  0
  1 10  1  0
  1 11  1  0
  1 12  1  0
  3 13  1  0
  3 14  1  0
  5 15  1  0
  5 16  1  0
  6 17  1  0
  8 18  1  0
  8 19  1  0
  9 20  1  0
  9 21  1  0
M  END
