
     RDKit          3D

 23 23  0  0  0  0  0  0  0  0999 V2000
    2.1377    1.4389    0.6665 C   0  0  0  0  0  0  0  0  0  0  0  0
    1.6806    0.3658    1.3246 O   0  0  0  0  0  0  0  0  0  0  0  0
    1.2388   -0.7624    0.8288 C   0  0  0  0  0  0  0  0  0  0  0  0
    0.1006   -0.8578   -0.1018 C   0  0  0  0  0  0  0  0  0  0  0  0
   -0.1890   -2.3633   -0.4265 C   0  0  0  0  0  0  0  0  0  0  0  0
    0.1155    0.0110   -1.3243 C   0  0  0  0  0  0  0  0  0  0  0  0
   -0.9857    0.0776   -0.3064 C   0  0  0  0  0  0  0  0  0  0  0  0
   -1.1506    1.2335    0.4539 O   0  0  0  0  0  0  0  0  0  0  0  0
   -2.4829    1.5420    0.5874 C   0  0  0  0  0  0  0  0  0  0  0  0
    2.9823    1.2083   -0.0494 H   0  0  0  0  0  0  0  0  0  0  0  0
    1.4341    2.1038    0.1767 H   0  0  0  0  0  0  0  0  0  0  0  0
    2.7123    2.1254    1.4389 H   0  0  0  0  0  0  0  0  0  0  0  0
    2.1256   -1.2386    0.2475 H   0  0  0  0  0  0  0  0  0  0  0  0
    1.1392   -1.5175    1.6829 H   0  0  0  0  0  0  0  0  0  0  0  0
   -0.7795   -2.4134   -1.3561 H   0  0  0  0  0  0  0  0  0  0  0  0
    0.7443   -2.9267   -0.4594 H   0  0  0  0  0  0  0  0  0  0  0  0
   -0.8681   -2.6773    0.3948 H   0  0  0  0  0  0  0  0  0  0  0  0
   -0.1452   -0.4823   -2.3193 H   0  0  0  0  0  0  0  0  0  0  0  0
    0.8169    0.8059   -1.4663 H   0  0  0  0  0  0  0  0  0  0  0  0
   -1.9620   -0.3730   -0.6591 H   0  0  0  0  0  0  0  0  0  0  0  0
   -2.7009    2.4286    1.1656 H   0  0  0  0  0  0  0  0  0  0  0  0
   -2.9753    0.6540    1.0682 H   0  0  0  0  0  0  0  0  0  0  0  0
   -2.9887    1.6176   -0.4188 H   0  0  0  0  0  0  0  0  0  0  0  0
  1  2  1  0
  2  3  1  0
  3  4  1  0
  4  5  1  0
  4  6  1  0
  6  7  1  0
  7  8  1  0
  8  9  1  0
  7  4  1  0
  1 10  1  0
  1 11  1  0
  1 12  1  0
  3 13  1  0
  3 14  1  0
  5 15  1  0
  5 16  1  0
  5 17  1  0
  6 18  1  0
  6 19  1  0
  7 20  1  0
  9 21  1  0
  9 22  1  0
  9 23  1  0
M  END
