
     RDKit          3D

 23 22  0  0  0  0  0  0  0  0999 V2000
    3.3538   -0.3609   -0.5436 C   0  0  0  0  0  0  0  0  0  0  0  0
    2.0203   -0.7144   -0.8118 O   0  0  0  0  0  0  0  0  0  0  0  0
    1.2320    0.2205   -0.1449 C   0  0  0  0  0  0  0  0  0  0  0  0
   -0.2476   -0.0438   -0.3503 C   0  0  0  0  0  0  0  0  0  0  0  0
   -0.6418   -1.4082    0.1614 C   0  0  0  0  0  0  0  0  0  0  0  0
    0.1083   -2.3475   -0.5515 O   0  0  0  0  0  0  0  0  0  0  0  0
   -0.9857    1.0171    0.4370 C   0  0  0  0  0  0  0  0  0  0  0  0
   -2.4859    0.8511    0.3047 C   0  0  0  0  0  0  0  0  0  0  0  0
   -3.1632    1.8298    1.0294 O   0  0  0  0  0  0  0  0  0  0  0  0
    3.4654   -0.4142    0.5605 H   0  0  0  0  0  0  0  0  0  0  0  0
    3.4409    0.7260   -0.8178 H   0  0  0  0  0  0  0  0  0  0  0  0
    4.0775   -0.9613   -1.0927 H   0  0  0  0  0  0  0  0  0  0  0  0
    1.4516    1.2081   -0.5871 H   0  0  0  0  0  0  0  0  0  0  0  0
    1.4843    0.2252    0.9141 H   0  0  0  0  0  0  0  0  0  0  0  0
   -0.4776    0.0379   -1.4206 H   0  0  0  0  0  0  0  0  0  0  0  0
   -0.4973   -1.5103    1.2410 H   0  0  0  0  0  0  0  0  0  0  0  0
   -1.6992   -1.5934   -0.1204 H   0  0  0  0  0  0  0  0  0  0  0  0
   -0.3966   -3.1836   -0.7077 H   0  0  0  0  0  0  0  0  0  0  0  0
   -0.7459    2.0367    0.0853 H   0  0  0  0  0  0  0  0  0  0  0  0
   -0.7053    0.9613    1.5014 H   0  0  0  0  0  0  0  0  0  0  0  0
   -2.8107    0.8607   -0.7475 H   0  0  0  0  0  0  0  0  0  0  0  0
   -2.7747   -0.1246    0.7906 H   0  0  0  0  0  0  0  0  0  0  0  0
   -3.0030    2.6877    0.5801 H   0  0  0  0  0  0  0  0  0  0  0  0
  1  2  1  0
  2  3  1  0
  3  4  1  0
  4  5  1  0
  5  6  1  0
  4  7  1  0
  7  8  1  0
  8  9  1  0
  1 10  1  0
  1 11  1  0
  1 12  1  0
  3 13  1  0
  3 14  1  0
  4 15  1  0
  5 16  1  0
  5 17  1  0
  6 18  1  0
  7 19  1  0
  7 20  1  0
  8 21  1  0
  8 22  1  0
  9 23  1  0
M  END
