
     RDKit          3D

 21 20  0  0  0  0  0  0  0  0999 V2000
    2.4827   -0.0622    0.9128 C   0  0  0  0  0  0  0  0  0  0  0  0
    1.4943   -1.0080    1.0384 O   0  0  0  0  0  0  0  0  0  0  0  0
    0.8082   -1.1993   -0.1486 C   0  0  0  0  0  0  0  0  0  0  0  0
    0.1234    0.0315   -0.6740 C   0  0  0  0  0  0  0  0  0  0  0  0
   -0.5272   -0.3299   -1.8740 O   0  0  0  0  0  0  0  0  0  0  0  0
   -0.8884    0.5945    0.2661 C   0  0  0  0  0  0  0  0  0  0  0  0
   -1.9974   -0.3558    0.5984 C   0  0  0  0  0  0  0  0  0  0  0  0
   -1.5397    1.7603   -0.4417 C   0  0  0  0  0  0  0  0  0  0  0  0
   -1.7068    1.6609   -1.6395 O   0  0  0  0  0  0  0  0  0  0  0  0
    3.0140    0.0564    1.8955 H   0  0  0  0  0  0  0  0  0  0  0  0
    2.0831    0.9763    0.7251 H   0  0  0  0  0  0  0  0  0  0  0  0
    3.2544   -0.2847    0.1731 H   0  0  0  0  0  0  0  0  0  0  0  0
    0.0795   -2.0341    0.0471 H   0  0  0  0  0  0  0  0  0  0  0  0
    1.5334   -1.6061   -0.8789 H   0  0  0  0  0  0  0  0  0  0  0  0
    0.9150    0.7670   -0.9203 H   0  0  0  0  0  0  0  0  0  0  0  0
    0.0821   -0.9550   -2.3271 H   0  0  0  0  0  0  0  0  0  0  0  0
   -0.3882    1.0057    1.1786 H   0  0  0  0  0  0  0  0  0  0  0  0
   -2.8138   -0.3177   -0.1736 H   0  0  0  0  0  0  0  0  0  0  0  0
   -2.4910    0.0430    1.5307 H   0  0  0  0  0  0  0  0  0  0  0  0
   -1.6824   -1.3726    0.8328 H   0  0  0  0  0  0  0  0  0  0  0  0
   -1.8351    2.6299    0.1066 H   0  0  0  0  0  0  0  0  0  0  0  0
  1  2  1  0
  2  3  1  0
  3  4  1  0
  4  5  1  0
  4  6  1  0
  6  7  1  0
  6  8  1  0
  8  9  2  0
  1 10  1  0
  1 11  1  0
  1 12  1  0
  3 13  1  0
  3 14  1  0
  4 15  1  0
  5 16  1  0
  6 17  1  0
  7 18  1  0
  7 19  1  0
  7 20  1  0
  8 21  1  0
M  END
