
     RDKit          3D

 23 23  0  0  0  0  0  0  0  0999 V2000
    2.8857   -0.0692    1.2271 C   0  0  0  0  0  0  0  0  0  0  0  0
    1.7669   -0.5102    0.5237 O   0  0  0  0  0  0  0  0  0  0  0  0
    1.3776    0.4680   -0.3923 C   0  0  0  0  0  0  0  0  0  0  0  0
    0.1845    0.0759   -1.1888 C   0  0  0  0  0  0  0  0  0  0  0  0
   -1.0391   -0.1994   -0.3891 C   0  0  0  0  0  0  0  0  0  0  0  0
   -1.6181    0.9062    0.4792 C   0  0  0  0  0  0  0  0  0  0  0  0
   -0.7396    1.3524    1.4336 O   0  0  0  0  0  0  0  0  0  0  0  0
   -1.4077   -1.5814    0.0380 C   0  0  0  0  0  0  0  0  0  0  0  0
   -2.1123   -1.0136   -1.1464 C   0  0  0  0  0  0  0  0  0  0  0  0
    3.1789   -0.8679    1.9536 H   0  0  0  0  0  0  0  0  0  0  0  0
    2.7282    0.8898    1.7384 H   0  0  0  0  0  0  0  0  0  0  0  0
    3.7748    0.0281    0.5459 H   0  0  0  0  0  0  0  0  0  0  0  0
    1.2650    1.4201    0.1493 H   0  0  0  0  0  0  0  0  0  0  0  0
    2.2314    0.5985   -1.0895 H   0  0  0  0  0  0  0  0  0  0  0  0
   -0.0332    0.8999   -1.9026 H   0  0  0  0  0  0  0  0  0  0  0  0
    0.4282   -0.8085   -1.7975 H   0  0  0  0  0  0  0  0  0  0  0  0
   -1.8391    1.7642   -0.2035 H   0  0  0  0  0  0  0  0  0  0  0  0
   -2.5798    0.5738    0.9201 H   0  0  0  0  0  0  0  0  0  0  0  0
   -0.7400    2.3375    1.4922 H   0  0  0  0  0  0  0  0  0  0  0  0
   -2.0114   -1.7380    0.9366 H   0  0  0  0  0  0  0  0  0  0  0  0
   -0.6882   -2.4290   -0.1422 H   0  0  0  0  0  0  0  0  0  0  0  0
   -1.8526   -1.4247   -2.1238 H   0  0  0  0  0  0  0  0  0  0  0  0
   -3.1601   -0.6727   -1.0618 H   0  0  0  0  0  0  0  0  0  0  0  0
  1  2  1  0
  2  3  1  0
  3  4  1  0
  4  5  1  0
  5  6  1  0
  6  7  1  0
  5  8  1  0
  8  9  1  0
  9  5  1  0
  1 10  1  0
  1 11  1  0
  1 12  1  0
  3 13  1  0
  3 14  1  0
  4 15  1  0
  4 16  1  0
  6 17  1  0
  6 18  1  0
  7 19  1  0
  8 20  1  0
  8 21  1  0
  9 22  1  0
  9 23  1  0
M  END
