
     RDKit          3D

 19 20  0  0  0  0  0  0  0  0999 V2000
    2.9664    0.1963    0.0805 C   0  0  0  0  0  0  0  0  0  0  0  0
    1.6700    0.5048   -0.3071 O   0  0  0  0  0  0  0  0  0  0  0  0
    0.7507   -0.4352    0.2166 C   0  0  0  0  0  0  0  0  0  0  0  0
   -0.5331   -0.1589   -0.1473 C   0  0  0  0  0  0  0  0  0  0  0  0
   -1.7913   -0.8968    0.1908 C   0  0  0  0  0  0  0  0  0  0  0  0
   -2.2524    0.2565   -0.6679 C   0  0  0  0  0  0  0  0  0  0  0  0
   -1.3235    1.0915    0.1759 C   0  0  0  0  0  0  0  0  0  0  0  0
   -1.1022   -0.0144   -1.4987 C   0  0  0  0  0  0  0  0  0  0  0  0
   -0.6983   -0.1046   -2.6170 O   0  0  0  0  0  0  0  0  0  0  0  0
    3.6233    0.9692   -0.3634 H   0  0  0  0  0  0  0  0  0  0  0  0
    3.3117   -0.7742   -0.3216 H   0  0  0  0  0  0  0  0  0  0  0  0
    3.0361    0.2181    1.1839 H   0  0  0  0  0  0  0  0  0  0  0  0
    0.9375   -0.4066    1.3200 H   0  0  0  0  0  0  0  0  0  0  0  0
    1.1396   -1.4212   -0.1124 H   0  0  0  0  0  0  0  0  0  0  0  0
   -1.8475   -1.8556   -0.3220 H   0  0  0  0  0  0  0  0  0  0  0  0
   -2.1486   -0.8249    1.2173 H   0  0  0  0  0  0  0  0  0  0  0  0
   -3.1999    0.4744   -0.9059 H   0  0  0  0  0  0  0  0  0  0  0  0
   -1.5848    1.2213    1.2223 H   0  0  0  0  0  0  0  0  0  0  0  0
   -0.9537    1.9604   -0.3858 H   0  0  0  0  0  0  0  0  0  0  0  0
  1  2  1  0
  2  3  1  0
  3  4  1  0
  4  5  1  0
  5  6  1  0
  6  7  1  0
  6  8  1  0
  8  9  2  0
  7  4  1  0
  8  4  1  0
  1 10  1  0
  1 11  1  0
  1 12  1  0
  3 13  1  0
  3 14  1  0
  5 15  1  0
  5 16  1  0
  6 17  1  0
  7 18  1  0
  7 19  1  0
M  END
