
     RDKit          3D

 21 21  0  0  0  0  0  0  0  0999 V2000
    2.9646   -0.3233   -0.4193 C   0  0  0  0  0  0  0  0  0  0  0  0
    1.7403    0.2955   -0.4043 O   0  0  0  0  0  0  0  0  0  0  0  0
    1.0984    0.2940    0.8019 C   0  0  0  0  0  0  0  0  0  0  0  0
   -0.2363    1.0280    0.6001 C   0  0  0  0  0  0  0  0  0  0  0  0
    0.0850    2.3011    0.1826 O   0  0  0  0  0  0  0  0  0  0  0  0
   -0.9960    0.2398   -0.4227 C   0  0  0  0  0  0  0  0  0  0  0  0
   -1.2669   -1.2048    0.0183 C   0  0  0  0  0  0  0  0  0  0  0  0
   -2.3723   -0.2009   -0.2547 C   0  0  0  0  0  0  0  0  0  0  0  0
   -3.0718   -0.4968   -1.4422 O   0  0  0  0  0  0  0  0  0  0  0  0
    3.6683    0.1592    0.2892 H   0  0  0  0  0  0  0  0  0  0  0  0
    3.3430   -0.3164   -1.4640 H   0  0  0  0  0  0  0  0  0  0  0  0
    2.8659   -1.3806   -0.1088 H   0  0  0  0  0  0  0  0  0  0  0  0
    1.7087    0.7854    1.5696 H   0  0  0  0  0  0  0  0  0  0  0  0
    0.8451   -0.7447    1.0672 H   0  0  0  0  0  0  0  0  0  0  0  0
   -0.8371    1.0119    1.5442 H   0  0  0  0  0  0  0  0  0  0  0  0
   -0.5888    2.9803    0.3855 H   0  0  0  0  0  0  0  0  0  0  0  0
   -0.5707    0.3287   -1.4647 H   0  0  0  0  0  0  0  0  0  0  0  0
   -1.0603   -2.0062   -0.6910 H   0  0  0  0  0  0  0  0  0  0  0  0
   -1.1543   -1.4518    1.0884 H   0  0  0  0  0  0  0  0  0  0  0  0
   -2.9776    0.1835    0.5688 H   0  0  0  0  0  0  0  0  0  0  0  0
   -3.1872   -1.4820   -1.4441 H   0  0  0  0  0  0  0  0  0  0  0  0
  1  2  1  0
  2  3  1  0
  3  4  1  0
  4  5  1  0
  4  6  1  0
  6  7  1  0
  7  8  1  0
  8  9  1  0
  8  6  1  0
  1 10  1  0
  1 11  1  0
  1 12  1  0
  3 13  1  0
  3 14  1  0
  4 15  1  0
  5 16  1  0
  6 17  1  0
  7 18  1  0
  7 19  1  0
  8 20  1  0
  9 21  1  0
M  END
