
     RDKit          3D

 25 25  0  0  0  0  0  0  0  0999 V2000
    3.3432    0.7377    0.0181 C   0  0  0  0  0  0  0  0  0  0  0  0
    2.2268    0.1666   -0.6128 O   0  0  0  0  0  0  0  0  0  0  0  0
    1.1521    0.3710    0.2372 C   0  0  0  0  0  0  0  0  0  0  0  0
   -0.1403   -0.1792   -0.2785 C   0  0  0  0  0  0  0  0  0  0  0  0
   -0.6352    0.3561   -1.5726 C   0  0  0  0  0  0  0  0  0  0  0  0
   -0.2333   -1.7001   -0.2829 C   0  0  0  0  0  0  0  0  0  0  0  0
   -1.7040   -1.4572    0.1024 C   0  0  0  0  0  0  0  0  0  0  0  0
   -1.1689   -0.2533    0.8459 C   0  0  0  0  0  0  0  0  0  0  0  0
   -2.0640    0.9063    0.9971 C   0  0  0  0  0  0  0  0  0  0  0  0
    4.2525    0.6144   -0.6051 H   0  0  0  0  0  0  0  0  0  0  0  0
    3.4849    0.3354    1.0237 H   0  0  0  0  0  0  0  0  0  0  0  0
    3.0804    1.8300    0.1318 H   0  0  0  0  0  0  0  0  0  0  0  0
    1.3996   -0.0880    1.2130 H   0  0  0  0  0  0  0  0  0  0  0  0
    1.0351    1.4592    0.3684 H   0  0  0  0  0  0  0  0  0  0  0  0
   -1.5987    0.8824   -1.5236 H   0  0  0  0  0  0  0  0  0  0  0  0
   -0.7637   -0.4381   -2.3594 H   0  0  0  0  0  0  0  0  0  0  0  0
    0.1063    1.0698   -2.0157 H   0  0  0  0  0  0  0  0  0  0  0  0
   -0.1129   -2.1571   -1.2755 H   0  0  0  0  0  0  0  0  0  0  0  0
    0.2594   -2.1914    0.5661 H   0  0  0  0  0  0  0  0  0  0  0  0
   -2.0866   -2.2767    0.7008 H   0  0  0  0  0  0  0  0  0  0  0  0
   -2.2774   -1.1312   -0.7763 H   0  0  0  0  0  0  0  0  0  0  0  0
   -0.6411   -0.6032    1.7673 H   0  0  0  0  0  0  0  0  0  0  0  0
   -1.8602    1.7550    0.3017 H   0  0  0  0  0  0  0  0  0  0  0  0
   -3.1620    0.6444    1.0046 H   0  0  0  0  0  0  0  0  0  0  0  0
   -1.8920    1.3473    2.0242 H   0  0  0  0  0  0  0  0  0  0  0  0
  1  2  1  0
  2  3  1  0
  3  4  1  0
  4  5  1  0
  4  6  1  0
  6  7  1  0
  7  8  1  0
  8  9  1  0
  8  4  1  0
  1 10  1  0
  1 11  1  0
  1 12  1  0
  3 13  1  0
  3 14  1  0
  5 15  1  0
  5 16  1  0
  5 17  1  0
  6 18  1  0
  6 19  1  0
  7 20  1  0
  7 21  1  0
  8 22  1  0
  9 23  1  0
  9 24  1  0
  9 25  1  0
M  END
