
     RDKit          3D

 21 20  0  0  0  0  0  0  0  0999 V2000
    3.5750   -0.4228   -0.2891 C   0  0  0  0  0  0  0  0  0  0  0  0
    2.7002   -0.3202    0.8046 O   0  0  0  0  0  0  0  0  0  0  0  0
    1.4320   -0.0586    0.2687 C   0  0  0  0  0  0  0  0  0  0  0  0
    0.3896    0.0770    1.3210 C   0  0  0  0  0  0  0  0  0  0  0  0
   -0.8260    0.3349    0.7526 O   0  0  0  0  0  0  0  0  0  0  0  0
   -1.3030   -0.6071   -0.1060 C   0  0  0  0  0  0  0  0  0  0  0  0
   -2.6470   -0.1622   -0.6099 C   0  0  0  0  0  0  0  0  0  0  0  0
   -3.2119    1.1220   -0.1436 C   0  0  0  0  0  0  0  0  0  0  0  0
   -3.2032   -0.9049   -1.3912 O   0  0  0  0  0  0  0  0  0  0  0  0
    4.6158   -0.6329    0.0650 H   0  0  0  0  0  0  0  0  0  0  0  0
    3.6246    0.5295   -0.8658 H   0  0  0  0  0  0  0  0  0  0  0  0
    3.2337   -1.1965   -1.0114 H   0  0  0  0  0  0  0  0  0  0  0  0
    1.5010    0.8686   -0.3325 H   0  0  0  0  0  0  0  0  0  0  0  0
    1.2458   -0.9058   -0.4359 H   0  0  0  0  0  0  0  0  0  0  0  0
    0.3673   -0.7704    2.0393 H   0  0  0  0  0  0  0  0  0  0  0  0
    0.6483    0.9829    1.9457 H   0  0  0  0  0  0  0  0  0  0  0  0
   -1.3401   -1.6324    0.2870 H   0  0  0  0  0  0  0  0  0  0  0  0
   -0.6470   -0.6280   -1.0199 H   0  0  0  0  0  0  0  0  0  0  0  0
   -4.2909    1.1194   -0.4175 H   0  0  0  0  0  0  0  0  0  0  0  0
   -3.0912    1.2048    0.9589 H   0  0  0  0  0  0  0  0  0  0  0  0
   -2.7732    2.0027   -0.6604 H   0  0  0  0  0  0  0  0  0  0  0  0
  1  2  1  0
  2  3  1  0
  3  4  1  0
  4  5  1  0
  5  6  1  0
  6  7  1  0
  7  8  1  0
  7  9  2  0
  1 10  1  0
  1 11  1  0
  1 12  1  0
  3 13  1  0
  3 14  1  0
  4 15  1  0
  4 16  1  0
  6 17  1  0
  6 18  1  0
  8 19  1  0
  8 20  1  0
  8 21  1  0
M  END
