
     RDKit          3D

 18 17  0  0  0  0  0  0  0  0999 V2000
   -3.5766   -0.3007   -0.1999 C   0  0  0  0  0  0  0  0  0  0  0  0
   -2.3245   -0.4085   -0.7911 O   0  0  0  0  0  0  0  0  0  0  0  0
   -1.3220   -0.0320    0.0984 C   0  0  0  0  0  0  0  0  0  0  0  0
    0.0294   -0.1480   -0.5386 C   0  0  0  0  0  0  0  0  0  0  0  0
    0.0600   -0.5370   -1.6910 O   0  0  0  0  0  0  0  0  0  0  0  0
    1.2706    0.1860    0.1733 C   0  0  0  0  0  0  0  0  0  0  0  0
    2.3407   -0.0215   -0.6715 O   0  0  0  0  0  0  0  0  0  0  0  0
    3.5589    0.2639   -0.0974 C   0  0  0  0  0  0  0  0  0  0  0  0
   -4.3485   -0.6051   -0.9274 H   0  0  0  0  0  0  0  0  0  0  0  0
   -3.5725   -0.9824    0.6860 H   0  0  0  0  0  0  0  0  0  0  0  0
   -3.7447    0.7453    0.1346 H   0  0  0  0  0  0  0  0  0  0  0  0
   -1.4009   -0.7461    0.9693 H   0  0  0  0  0  0  0  0  0  0  0  0
   -1.4522    0.9878    0.4917 H   0  0  0  0  0  0  0  0  0  0  0  0
    1.2601    1.2260    0.5950 H   0  0  0  0  0  0  0  0  0  0  0  0
    1.3832   -0.5424    1.0277 H   0  0  0  0  0  0  0  0  0  0  0  0
    3.7566   -0.3578    0.7992 H   0  0  0  0  0  0  0  0  0  0  0  0
    4.3442   -0.0485   -0.8437 H   0  0  0  0  0  0  0  0  0  0  0  0
    3.7383    1.3209    0.1038 H   0  0  0  0  0  0  0  0  0  0  0  0
  1  2  1  0
  2  3  1  0
  3  4  1  0
  4  5  2  0
  4  6  1  0
  6  7  1  0
  7  8  1  0
  1  9  1  0
  1 10  1  0
  1 11  1  0
  3 12  1  0
  3 13  1  0
  6 14  1  0
  6 15  1  0
  8 16  1  0
  8 17  1  0
  8 18  1  0
M  END
