
     RDKit          3D

 21 21  0  0  0  0  0  0  0  0999 V2000
    3.4130   -0.0924    0.5324 C   0  0  0  0  0  0  0  0  0  0  0  0
    2.6840   -0.6243   -0.5128 O   0  0  0  0  0  0  0  0  0  0  0  0
    1.6569    0.1892   -0.9354 C   0  0  0  0  0  0  0  0  0  0  0  0
    0.6262    0.4975    0.1034 C   0  0  0  0  0  0  0  0  0  0  0  0
   -0.3988    1.3294   -0.3798 O   0  0  0  0  0  0  0  0  0  0  0  0
   -0.7291   -0.0448   -0.0620 C   0  0  0  0  0  0  0  0  0  0  0  0
   -1.6985   -0.1299    1.0637 C   0  0  0  0  0  0  0  0  0  0  0  0
   -2.9986   -0.7409    0.5266 C   0  0  0  0  0  0  0  0  0  0  0  0
   -3.5303    0.0492   -0.4883 O   0  0  0  0  0  0  0  0  0  0  0  0
    3.8453    0.8708    0.1959 H   0  0  0  0  0  0  0  0  0  0  0  0
    2.8657    0.0517    1.4706 H   0  0  0  0  0  0  0  0  0  0  0  0
    4.2834   -0.7576    0.8054 H   0  0  0  0  0  0  0  0  0  0  0  0
    2.1463    1.1639   -1.2356 H   0  0  0  0  0  0  0  0  0  0  0  0
    1.1950   -0.1704   -1.8864 H   0  0  0  0  0  0  0  0  0  0  0  0
    0.9599    0.6425    1.1501 H   0  0  0  0  0  0  0  0  0  0  0  0
   -0.9494   -0.6997   -0.9259 H   0  0  0  0  0  0  0  0  0  0  0  0
   -1.9967    0.8720    1.4338 H   0  0  0  0  0  0  0  0  0  0  0  0
   -1.3561   -0.7835    1.8933 H   0  0  0  0  0  0  0  0  0  0  0  0
   -2.7870   -1.7430    0.0686 H   0  0  0  0  0  0  0  0  0  0  0  0
   -3.7406   -0.8944    1.3098 H   0  0  0  0  0  0  0  0  0  0  0  0
   -3.4904    1.0147   -0.2803 H   0  0  0  0  0  0  0  0  0  0  0  0
  1  2  1  0
  2  3  1  0
  3  4  1  0
  4  5  1  0
  5  6  1  0
  6  7  1  0
  7  8  1  0
  8  9  1  0
  6  4  1  0
  1 10  1  0
  1 11  1  0
  1 12  1  0
  3 13  1  0
  3 14  1  0
  4 15  1  0
  6 16  1  0
  7 17  1  0
  7 18  1  0
  8 19  1  0
  8 20  1  0
  9 21  1  0
M  END
