
     RDKit          3D

 21 22  0  0  0  0  0  0  0  0999 V2000
    3.2178   -0.1436    0.4547 C   0  0  0  0  0  0  0  0  0  0  0  0
    1.8711   -0.3698    0.6806 O   0  0  0  0  0  0  0  0  0  0  0  0
    1.0765    0.3206   -0.2662 C   0  0  0  0  0  0  0  0  0  0  0  0
   -0.2576    0.1121   -0.0629 C   0  0  0  0  0  0  0  0  0  0  0  0
   -1.4339    0.6291   -0.8023 C   0  0  0  0  0  0  0  0  0  0  0  0
   -2.0527   -0.2444    0.2719 C   0  0  0  0  0  0  0  0  0  0  0  0
   -3.2686   -0.4499    0.4813 O   0  0  0  0  0  0  0  0  0  0  0  0
   -0.9671   -1.2273   -0.0550 C   0  0  0  0  0  0  0  0  0  0  0  0
   -1.0411    0.3881    1.2003 C   0  0  0  0  0  0  0  0  0  0  0  0
    3.5674   -0.4682   -0.5378 H   0  0  0  0  0  0  0  0  0  0  0  0
    3.3971    0.9411    0.6354 H   0  0  0  0  0  0  0  0  0  0  0  0
    3.7764   -0.7076    1.2207 H   0  0  0  0  0  0  0  0  0  0  0  0
    1.4357   -0.0130   -1.2686 H   0  0  0  0  0  0  0  0  0  0  0  0
    1.4026    1.3784   -0.1806 H   0  0  0  0  0  0  0  0  0  0  0  0
   -1.6377    1.7113   -0.6527 H   0  0  0  0  0  0  0  0  0  0  0  0
   -1.5475    0.2682   -1.8352 H   0  0  0  0  0  0  0  0  0  0  0  0
   -3.8963    0.2016    0.1158 H   0  0  0  0  0  0  0  0  0  0  0  0
   -1.0599   -1.7299   -1.0125 H   0  0  0  0  0  0  0  0  0  0  0  0
   -0.6628   -1.8086    0.8192 H   0  0  0  0  0  0  0  0  0  0  0  0
   -0.7217   -0.2488    2.0261 H   0  0  0  0  0  0  0  0  0  0  0  0
   -1.1977    1.4608    1.4113 H   0  0  0  0  0  0  0  0  0  0  0  0
  1  2  1  0
  2  3  1  0
  3  4  1  0
  4  5  1  0
  5  6  1  0
  6  7  1  0
  6  8  1  0
  6  9  1  0
  8  4  1  0
  9  4  1  0
  1 10  1  0
  1 11  1  0
  1 12  1  0
  3 13  1  0
  3 14  1  0
  5 15  1  0
  5 16  1  0
  7 17  1  0
  8 18  1  0
  8 19  1  0
  9 20  1  0
  9 21  1  0
M  END
