
     RDKit          3D

 21 21  0  0  0  0  0  0  0  0999 V2000
    3.2067    0.6670    0.2313 C   0  0  0  0  0  0  0  0  0  0  0  0
    1.8540    0.7639    0.5563 O   0  0  0  0  0  0  0  0  0  0  0  0
    1.2184   -0.3766    0.1310 C   0  0  0  0  0  0  0  0  0  0  0  0
   -0.2485   -0.4037    0.4191 C   0  0  0  0  0  0  0  0  0  0  0  0
   -0.7797   -1.5964   -0.0531 O   0  0  0  0  0  0  0  0  0  0  0  0
   -2.1622   -1.3973   -0.1484 C   0  0  0  0  0  0  0  0  0  0  0  0
   -2.3379    0.0389   -0.5681 C   0  0  0  0  0  0  0  0  0  0  0  0
   -1.0146    0.7012   -0.2478 C   0  0  0  0  0  0  0  0  0  0  0  0
   -0.3863    1.1982   -1.3767 O   0  0  0  0  0  0  0  0  0  0  0  0
    3.6699   -0.2299    0.7340 H   0  0  0  0  0  0  0  0  0  0  0  0
    3.3976    0.5895   -0.8408 H   0  0  0  0  0  0  0  0  0  0  0  0
    3.6992    1.5581    0.6653 H   0  0  0  0  0  0  0  0  0  0  0  0
    1.6685   -1.2952    0.5606 H   0  0  0  0  0  0  0  0  0  0  0  0
    1.3351   -0.4857   -0.9810 H   0  0  0  0  0  0  0  0  0  0  0  0
   -0.4069   -0.3558    1.5129 H   0  0  0  0  0  0  0  0  0  0  0  0
   -2.5415   -2.0762   -0.9342 H   0  0  0  0  0  0  0  0  0  0  0  0
   -2.6348   -1.5859    0.8475 H   0  0  0  0  0  0  0  0  0  0  0  0
   -3.1717    0.4951    0.0101 H   0  0  0  0  0  0  0  0  0  0  0  0
   -2.5487    0.0968   -1.6558 H   0  0  0  0  0  0  0  0  0  0  0  0
   -1.2067    1.5364    0.4567 H   0  0  0  0  0  0  0  0  0  0  0  0
   -0.6100    2.1573   -1.4561 H   0  0  0  0  0  0  0  0  0  0  0  0
  1  2  1  0
  2  3  1  0
  3  4  1  0
  4  5  1  0
  5  6  1  0
  6  7  1  0
  7  8  1  0
  8  9  1  0
  8  4  1  0
  1 10  1  0
  1 11  1  0
  1 12  1  0
  3 13  1  0
  3 14  1  0
  4 15  1  0
  6 16  1  0
  6 17  1  0
  7 18  1  0
  7 19  1  0
  8 20  1  0
  9 21  1  0
M  END
