
     RDKit          3D

 19 18  0  0  0  0  0  0  0  0999 V2000
    2.5899    0.1022    0.9672 C   0  0  0  0  0  0  0  0  0  0  0  0
    1.4744    0.7626    0.4072 O   0  0  0  0  0  0  0  0  0  0  0  0
    0.9831   -0.0864   -0.5764 C   0  0  0  0  0  0  0  0  0  0  0  0
   -0.2200    0.4762   -1.2770 C   0  0  0  0  0  0  0  0  0  0  0  0
   -1.3726    0.7407   -0.3465 C   0  0  0  0  0  0  0  0  0  0  0  0
   -1.8008   -0.5515    0.3264 C   0  0  0  0  0  0  0  0  0  0  0  0
   -2.8692   -0.3357    1.1957 O   0  0  0  0  0  0  0  0  0  0  0  0
    3.0630    0.6774    1.7576 H   0  0  0  0  0  0  0  0  0  0  0  0
    2.3063   -0.9091    1.3458 H   0  0  0  0  0  0  0  0  0  0  0  0
    3.3671   -0.0678    0.1747 H   0  0  0  0  0  0  0  0  0  0  0  0
    1.7869   -0.1878   -1.3411 H   0  0  0  0  0  0  0  0  0  0  0  0
    0.8337   -1.0675   -0.1349 H   0  0  0  0  0  0  0  0  0  0  0  0
   -0.5486   -0.2399   -2.0565 H   0  0  0  0  0  0  0  0  0  0  0  0
    0.0839    1.4244   -1.7649 H   0  0  0  0  0  0  0  0  0  0  0  0
   -1.0759    1.5003    0.3869 H   0  0  0  0  0  0  0  0  0  0  0  0
   -2.2270    1.1352   -0.9341 H   0  0  0  0  0  0  0  0  0  0  0  0
   -0.9444   -0.8902    0.9457 H   0  0  0  0  0  0  0  0  0  0  0  0
   -2.1310   -1.2696   -0.4244 H   0  0  0  0  0  0  0  0  0  0  0  0
   -3.2991   -1.2134    1.3486 H   0  0  0  0  0  0  0  0  0  0  0  0
  1  2  1  0
  2  3  1  0
  3  4  1  0
  4  5  1  0
  5  6  1  0
  6  7  1  0
  1  8  1  0
  1  9  1  0
  1 10  1  0
  3 11  1  0
  3 12  1  0
  4 13  1  0
  4 14  1  0
  5 15  1  0
  5 16  1  0
  6 17  1  0
  6 18  1  0
  7 19  1  0
M  END
