
     RDKit          3D

 25 25  0  0  0  0  0  0  0  0999 V2000
    3.6842   -0.4855   -0.4582 C   0  0  0  0  0  0  0  0  0  0  0  0
    2.9793   -0.7546    0.6847 O   0  0  0  0  0  0  0  0  0  0  0  0
    1.8049   -0.0597    0.8366 C   0  0  0  0  0  0  0  0  0  0  0  0
    0.7859   -0.2745   -0.2347 C   0  0  0  0  0  0  0  0  0  0  0  0
   -0.4278    0.5824    0.1304 C   0  0  0  0  0  0  0  0  0  0  0  0
   -1.6208    0.5784   -0.7587 C   0  0  0  0  0  0  0  0  0  0  0  0
   -2.4759    1.8423   -0.8324 C   0  0  0  0  0  0  0  0  0  0  0  0
   -1.6794   -0.1024    0.5861 C   0  0  0  0  0  0  0  0  0  0  0  0
   -1.8124   -1.5927    0.5222 C   0  0  0  0  0  0  0  0  0  0  0  0
    3.0533   -0.7354   -1.3350 H   0  0  0  0  0  0  0  0  0  0  0  0
    4.0624    0.5635   -0.5072 H   0  0  0  0  0  0  0  0  0  0  0  0
    4.5607   -1.1665   -0.5095 H   0  0  0  0  0  0  0  0  0  0  0  0
    1.3437   -0.4265    1.7987 H   0  0  0  0  0  0  0  0  0  0  0  0
    1.9564    1.0285    0.9955 H   0  0  0  0  0  0  0  0  0  0  0  0
    0.4431   -1.3245   -0.1903 H   0  0  0  0  0  0  0  0  0  0  0  0
    1.1663    0.0142   -1.2402 H   0  0  0  0  0  0  0  0  0  0  0  0
   -0.2313    1.5497    0.6408 H   0  0  0  0  0  0  0  0  0  0  0  0
   -1.6530   -0.0255   -1.6876 H   0  0  0  0  0  0  0  0  0  0  0  0
   -2.3180    2.3515    0.1605 H   0  0  0  0  0  0  0  0  0  0  0  0
   -2.1759    2.5062   -1.6487 H   0  0  0  0  0  0  0  0  0  0  0  0
   -3.5194    1.5054   -0.8697 H   0  0  0  0  0  0  0  0  0  0  0  0
   -2.2941    0.3593    1.4030 H   0  0  0  0  0  0  0  0  0  0  0  0
   -2.9131   -1.8208    0.6315 H   0  0  0  0  0  0  0  0  0  0  0  0
   -1.4579   -2.0261   -0.4341 H   0  0  0  0  0  0  0  0  0  0  0  0
   -1.2615   -2.0867    1.3483 H   0  0  0  0  0  0  0  0  0  0  0  0
  1  2  1  0
  2  3  1  0
  3  4  1  0
  4  5  1  0
  5  6  1  0
  6  7  1  0
  6  8  1  0
  8  9  1  0
  8  5  1  0
  1 10  1  0
  1 11  1  0
  1 12  1  0
  3 13  1  0
  3 14  1  0
  4 15  1  0
  4 16  1  0
  5 17  1  0
  6 18  1  0
  7 19  1  0
  7 20  1  0
  7 21  1  0
  8 22  1  0
  9 23  1  0
  9 24  1  0
  9 25  1  0
M  END
