
     RDKit          3D

 25 24  0  0  0  0  0  0  0  0999 V2000
    3.0712    1.2992   -0.3537 C   0  0  0  0  0  0  0  0  0  0  0  0
    1.7897    0.7719   -0.5050 O   0  0  0  0  0  0  0  0  0  0  0  0
    1.6880   -0.4180    0.2243 C   0  0  0  0  0  0  0  0  0  0  0  0
    0.3113   -1.0316    0.0923 C   0  0  0  0  0  0  0  0  0  0  0  0
    0.2839   -2.2406    1.0183 C   0  0  0  0  0  0  0  0  0  0  0  0
   -0.6024   -0.1254    0.5722 O   0  0  0  0  0  0  0  0  0  0  0  0
   -1.5648    0.2490   -0.3461 C   0  0  0  0  0  0  0  0  0  0  0  0
   -1.5261    1.7673   -0.4337 C   0  0  0  0  0  0  0  0  0  0  0  0
   -2.9699   -0.0724    0.1843 C   0  0  0  0  0  0  0  0  0  0  0  0
    3.8096    0.5484   -0.7378 H   0  0  0  0  0  0  0  0  0  0  0  0
    3.2929    1.5084    0.7207 H   0  0  0  0  0  0  0  0  0  0  0  0
    3.1109    2.2440   -0.9321 H   0  0  0  0  0  0  0  0  0  0  0  0
    2.4741   -1.0984   -0.1547 H   0  0  0  0  0  0  0  0  0  0  0  0
    1.9314   -0.2359    1.3027 H   0  0  0  0  0  0  0  0  0  0  0  0
    0.1483   -1.3301   -0.9515 H   0  0  0  0  0  0  0  0  0  0  0  0
    1.2592   -2.4404    1.4835 H   0  0  0  0  0  0  0  0  0  0  0  0
   -0.4873   -2.1338    1.8149 H   0  0  0  0  0  0  0  0  0  0  0  0
    0.0603   -3.1456    0.3820 H   0  0  0  0  0  0  0  0  0  0  0  0
   -1.4640   -0.2296   -1.3283 H   0  0  0  0  0  0  0  0  0  0  0  0
   -1.3326    2.1251    0.6078 H   0  0  0  0  0  0  0  0  0  0  0  0
   -0.7919    2.1340   -1.1550 H   0  0  0  0  0  0  0  0  0  0  0  0
   -2.5521    2.1579   -0.6886 H   0  0  0  0  0  0  0  0  0  0  0  0
   -3.1657   -1.1455    0.1783 H   0  0  0  0  0  0  0  0  0  0  0  0
   -3.6639    0.4460   -0.5097 H   0  0  0  0  0  0  0  0  0  0  0  0
   -3.1101    0.3961    1.1827 H   0  0  0  0  0  0  0  0  0  0  0  0
  1  2  1  0
  2  3  1  0
  3  4  1  0
  4  5  1  0
  4  6  1  0
  6  7  1  0
  7  8  1  0
  7  9  1  0
  1 10  1  0
  1 11  1  0
  1 12  1  0
  3 13  1  0
  3 14  1  0
  4 15  1  0
  5 16  1  0
  5 17  1  0
  5 18  1  0
  7 19  1  0
  8 20  1  0
  8 21  1  0
  8 22  1  0
  9 23  1  0
  9 24  1  0
  9 25  1  0
M  END
