
     RDKit          3D

 23 23  0  0  0  0  0  0  0  0999 V2000
    3.5233    0.5019   -0.5258 C   0  0  0  0  0  0  0  0  0  0  0  0
    2.4470    0.2834    0.3209 O   0  0  0  0  0  0  0  0  0  0  0  0
    1.5961   -0.7128   -0.1819 C   0  0  0  0  0  0  0  0  0  0  0  0
    0.4380   -0.9479    0.7295 C   0  0  0  0  0  0  0  0  0  0  0  0
   -0.3999    0.3160    0.9154 C   0  0  0  0  0  0  0  0  0  0  0  0
   -1.5241    0.0665    1.8069 O   0  0  0  0  0  0  0  0  0  0  0  0
   -1.8130    0.2552    0.4702 C   0  0  0  0  0  0  0  0  0  0  0  0
   -2.5574    1.5588    0.1942 C   0  0  0  0  0  0  0  0  0  0  0  0
   -2.2010   -0.9415   -0.3759 C   0  0  0  0  0  0  0  0  0  0  0  0
    4.1442    1.2917   -0.0693 H   0  0  0  0  0  0  0  0  0  0  0  0
    4.1608   -0.4220   -0.5487 H   0  0  0  0  0  0  0  0  0  0  0  0
    3.2305    0.6967   -1.5640 H   0  0  0  0  0  0  0  0  0  0  0  0
    2.1875   -1.6201   -0.2859 H   0  0  0  0  0  0  0  0  0  0  0  0
    1.1950   -0.3839   -1.1642 H   0  0  0  0  0  0  0  0  0  0  0  0
   -0.2003   -1.7591    0.3251 H   0  0  0  0  0  0  0  0  0  0  0  0
    0.8202   -1.3194    1.7122 H   0  0  0  0  0  0  0  0  0  0  0  0
    0.1059    1.2617    1.1024 H   0  0  0  0  0  0  0  0  0  0  0  0
   -3.2293    1.4046   -0.6728 H   0  0  0  0  0  0  0  0  0  0  0  0
   -3.2143    1.7730    1.0689 H   0  0  0  0  0  0  0  0  0  0  0  0
   -1.8770    2.3883   -0.0003 H   0  0  0  0  0  0  0  0  0  0  0  0
   -2.2383   -1.8137    0.3133 H   0  0  0  0  0  0  0  0  0  0  0  0
   -3.1595   -0.7787   -0.9028 H   0  0  0  0  0  0  0  0  0  0  0  0
   -1.4343   -1.0987   -1.1573 H   0  0  0  0  0  0  0  0  0  0  0  0
  1  2  1  0
  2  3  1  0
  3  4  1  0
  4  5  1  0
  5  6  1  0
  6  7  1  0
  7  8  1  0
  7  9  1  0
  7  5  1  0
  1 10  1  0
  1 11  1  0
  1 12  1  0
  3 13  1  0
  3 14  1  0
  4 15  1  0
  4 16  1  0
  5 17  1  0
  8 18  1  0
  8 19  1  0
  8 20  1  0
  9 21  1  0
  9 22  1  0
  9 23  1  0
M  END
