
     RDKit          3D

 21 22  0  0  0  0  0  0  0  0999 V2000
    3.0387   -0.7130   -0.2104 C   0  0  0  0  0  0  0  0  0  0  0  0
    1.7582   -0.4095   -0.6361 O   0  0  0  0  0  0  0  0  0  0  0  0
    1.0098    0.2428    0.3377 C   0  0  0  0  0  0  0  0  0  0  0  0
   -0.3357    0.5196   -0.2180 C   0  0  0  0  0  0  0  0  0  0  0  0
   -1.3858    1.2214    0.5996 C   0  0  0  0  0  0  0  0  0  0  0  0
   -2.4267    0.2706    0.0590 C   0  0  0  0  0  0  0  0  0  0  0  0
   -1.3063   -0.4878   -0.6174 C   0  0  0  0  0  0  0  0  0  0  0  0
   -1.1323   -1.8219   -0.3714 O   0  0  0  0  0  0  0  0  0  0  0  0
   -0.5537    0.2553   -1.6508 C   0  0  0  0  0  0  0  0  0  0  0  0
    3.5410    0.2388    0.0480 H   0  0  0  0  0  0  0  0  0  0  0  0
    3.5829   -1.1121   -1.1050 H   0  0  0  0  0  0  0  0  0  0  0  0
    3.0195   -1.4435    0.6169 H   0  0  0  0  0  0  0  0  0  0  0  0
    1.5305    1.1259    0.7437 H   0  0  0  0  0  0  0  0  0  0  0  0
    0.8892   -0.4928    1.1702 H   0  0  0  0  0  0  0  0  0  0  0  0
   -1.2643    1.0791    1.6873 H   0  0  0  0  0  0  0  0  0  0  0  0
   -1.5481    2.2791    0.3661 H   0  0  0  0  0  0  0  0  0  0  0  0
   -3.0042   -0.2804    0.8043 H   0  0  0  0  0  0  0  0  0  0  0  0
   -3.0344    0.7816   -0.7188 H   0  0  0  0  0  0  0  0  0  0  0  0
   -1.5423   -2.0148    0.5319 H   0  0  0  0  0  0  0  0  0  0  0  0
   -1.0453    1.0639   -2.2258 H   0  0  0  0  0  0  0  0  0  0  0  0
    0.2091   -0.3022   -2.1948 H   0  0  0  0  0  0  0  0  0  0  0  0
  1  2  1  0
  2  3  1  0
  3  4  1  0
  4  5  1  0
  5  6  1  0
  6  7  1  0
  7  8  1  0
  7  9  1  0
  7  4  1  0
  9  4  1  0
  1 10  1  0
  1 11  1  0
  1 12  1  0
  3 13  1  0
  3 14  1  0
  5 15  1  0
  5 16  1  0
  6 17  1  0
  6 18  1  0
  8 19  1  0
  9 20  1  0
  9 21  1  0
M  END
