
     RDKit          3D

 21 20  0  0  0  0  0  0  0  0999 V2000
    3.7860   -0.6422   -0.1732 C   0  0  0  0  0  0  0  0  0  0  0  0
    2.7190    0.1459   -0.6421 O   0  0  0  0  0  0  0  0  0  0  0  0
    1.5854   -0.2927    0.0359 C   0  0  0  0  0  0  0  0  0  0  0  0
    0.3482    0.4745   -0.3726 C   0  0  0  0  0  0  0  0  0  0  0  0
   -0.7163   -0.0426    0.3610 O   0  0  0  0  0  0  0  0  0  0  0  0
   -1.9132    0.5688    0.0863 C   0  0  0  0  0  0  0  0  0  0  0  0
   -2.8119   -0.4845   -0.5720 C   0  0  0  0  0  0  0  0  0  0  0  0
   -2.6089    1.0588    1.3074 C   0  0  0  0  0  0  0  0  0  0  0  0
   -2.0656    0.8739    2.3829 O   0  0  0  0  0  0  0  0  0  0  0  0
    3.8371   -0.4506    0.9290 H   0  0  0  0  0  0  0  0  0  0  0  0
    4.7225   -0.4445   -0.6945 H   0  0  0  0  0  0  0  0  0  0  0  0
    3.4457   -1.6933   -0.2767 H   0  0  0  0  0  0  0  0  0  0  0  0
    1.4786   -1.3781   -0.2007 H   0  0  0  0  0  0  0  0  0  0  0  0
    1.7157   -0.2111    1.1285 H   0  0  0  0  0  0  0  0  0  0  0  0
    0.5302    1.5443   -0.1692 H   0  0  0  0  0  0  0  0  0  0  0  0
    0.1685    0.3774   -1.4633 H   0  0  0  0  0  0  0  0  0  0  0  0
   -1.7571    1.3483   -0.6699 H   0  0  0  0  0  0  0  0  0  0  0  0
   -2.1174   -1.0556   -1.2535 H   0  0  0  0  0  0  0  0  0  0  0  0
   -3.6368   -0.0275   -1.1289 H   0  0  0  0  0  0  0  0  0  0  0  0
   -3.1447   -1.2275    0.1816 H   0  0  0  0  0  0  0  0  0  0  0  0
   -3.5649    1.5584    1.2039 H   0  0  0  0  0  0  0  0  0  0  0  0
  1  2  1  0
  2  3  1  0
  3  4  1  0
  4  5  1  0
  5  6  1  0
  6  7  1  0
  6  8  1  0
  8  9  2  0
  1 10  1  0
  1 11  1  0
  1 12  1  0
  3 13  1  0
  3 14  1  0
  4 15  1  0
  4 16  1  0
  6 17  1  0
  7 18  1  0
  7 19  1  0
  7 20  1  0
  8 21  1  0
M  END
