
     RDKit          3D

 22 21  0  0  0  0  0  0  0  0999 V2000
    2.4462    1.4873    0.3979 C   0  0  0  0  0  0  0  0  0  0  0  0
    1.1277    1.0780    0.2185 O   0  0  0  0  0  0  0  0  0  0  0  0
    1.0302   -0.1759   -0.3212 C   0  0  0  0  0  0  0  0  0  0  0  0
   -0.3841   -0.6655   -0.5354 C   0  0  0  0  0  0  0  0  0  0  0  0
   -0.2851   -2.0541   -1.1298 C   0  0  0  0  0  0  0  0  0  0  0  0
   -1.1806   -0.7044    0.7453 C   0  0  0  0  0  0  0  0  0  0  0  0
   -1.3122    0.5179    1.3481 O   0  0  0  0  0  0  0  0  0  0  0  0
   -1.9798    1.4669    0.5915 C   0  0  0  0  0  0  0  0  0  0  0  0
    2.9746    0.7763    1.0908 H   0  0  0  0  0  0  0  0  0  0  0  0
    2.5012    2.4724    0.9044 H   0  0  0  0  0  0  0  0  0  0  0  0
    2.9523    1.5183   -0.5961 H   0  0  0  0  0  0  0  0  0  0  0  0
    1.4732   -0.8854    0.4398 H   0  0  0  0  0  0  0  0  0  0  0  0
    1.6335   -0.3178   -1.2333 H   0  0  0  0  0  0  0  0  0  0  0  0
   -0.9319   -0.0136   -1.2705 H   0  0  0  0  0  0  0  0  0  0  0  0
   -0.0368   -1.9669   -2.2060 H   0  0  0  0  0  0  0  0  0  0  0  0
   -1.2644   -2.5995   -1.0507 H   0  0  0  0  0  0  0  0  0  0  0  0
    0.4435   -2.6687   -0.5723 H   0  0  0  0  0  0  0  0  0  0  0  0
   -0.6058   -1.3549    1.4506 H   0  0  0  0  0  0  0  0  0  0  0  0
   -2.1461   -1.2030    0.5274 H   0  0  0  0  0  0  0  0  0  0  0  0
   -3.0183    1.1580    0.3444 H   0  0  0  0  0  0  0  0  0  0  0  0
   -1.9906    2.4049    1.2008 H   0  0  0  0  0  0  0  0  0  0  0  0
   -1.4467    1.7295   -0.3444 H   0  0  0  0  0  0  0  0  0  0  0  0
  1  2  1  0
  2  3  1  0
  3  4  1  0
  4  5  1  0
  4  6  1  0
  6  7  1  0
  7  8  1  0
  1  9  1  0
  1 10  1  0
  1 11  1  0
  3 12  1  0
  3 13  1  0
  4 14  1  0
  5 15  1  0
  5 16  1  0
  5 17  1  0
  6 18  1  0
  6 19  1  0
  8 20  1  0
  8 21  1  0
  8 22  1  0
M  END
