
     RDKit          3D

 23 24  0  0  0  0  0  0  0  0999 V2000
    2.8017    0.2572    0.1817 C   0  0  0  0  0  0  0  0  0  0  0  0
    1.9516    0.5935   -0.7988 O   0  0  0  0  0  0  0  0  0  0  0  0
    0.8514   -0.0771   -1.1239 C   0  0  0  0  0  0  0  0  0  0  0  0
   -0.1893   -0.2270   -0.0758 C   0  0  0  0  0  0  0  0  0  0  0  0
    0.2983   -1.0190    1.1197 C   0  0  0  0  0  0  0  0  0  0  0  0
   -1.5930   -0.5289   -0.4961 C   0  0  0  0  0  0  0  0  0  0  0  0
   -1.7101    0.8617   -0.9838 C   0  0  0  0  0  0  0  0  0  0  0  0
   -0.9479    1.0191    0.2828 C   0  0  0  0  0  0  0  0  0  0  0  0
   -2.0142    0.0911    0.8241 C   0  0  0  0  0  0  0  0  0  0  0  0
    3.6677    1.0242    0.1214 H   0  0  0  0  0  0  0  0  0  0  0  0
    2.3456    0.4117    1.1943 H   0  0  0  0  0  0  0  0  0  0  0  0
    3.2687   -0.7251    0.0533 H   0  0  0  0  0  0  0  0  0  0  0  0
    1.1468   -1.1567   -1.4475 H   0  0  0  0  0  0  0  0  0  0  0  0
    0.4348    0.2876   -2.1070 H   0  0  0  0  0  0  0  0  0  0  0  0
   -0.4299   -1.8556    1.3561 H   0  0  0  0  0  0  0  0  0  0  0  0
    0.3662   -0.4034    2.0142 H   0  0  0  0  0  0  0  0  0  0  0  0
    1.2271   -1.5678    0.8951 H   0  0  0  0  0  0  0  0  0  0  0  0
   -1.9547   -1.3784   -0.8788 H   0  0  0  0  0  0  0  0  0  0  0  0
   -2.7914    1.1976   -0.8357 H   0  0  0  0  0  0  0  0  0  0  0  0
   -1.3006    1.1832   -1.9253 H   0  0  0  0  0  0  0  0  0  0  0  0
   -0.6024    1.8459    0.7221 H   0  0  0  0  0  0  0  0  0  0  0  0
   -3.0080    0.6118    0.7354 H   0  0  0  0  0  0  0  0  0  0  0  0
   -1.8185   -0.4459    1.7353 H   0  0  0  0  0  0  0  0  0  0  0  0
  1  2  1  0
  2  3  1  0
  3  4  1  0
  4  5  1  0
  4  6  1  0
  6  7  1  0
  7  8  1  0
  8  9  1  0
  8  4  1  0
  9  6  1  0
  1 10  1  0
  1 11  1  0
  1 12  1  0
  3 13  1  0
  3 14  1  0
  5 15  1  0
  5 16  1  0
  5 17  1  0
  6 18  1  0
  7 19  1  0
  7 20  1  0
  8 21  1  0
  9 22  1  0
  9 23  1  0
M  END
