
     RDKit          3D

 23 23  0  0  0  0  0  0  0  0999 V2000
   -3.0727    0.9657    0.1371 C   0  0  0  0  0  0  0  0  0  0  0  0
   -1.7124    0.6241    0.0742 O   0  0  0  0  0  0  0  0  0  0  0  0
   -1.6129   -0.5191   -0.6783 C   0  0  0  0  0  0  0  0  0  0  0  0
   -0.2259   -1.0378   -0.8565 C   0  0  0  0  0  0  0  0  0  0  0  0
    0.7306   -0.0755   -1.5421 C   0  0  0  0  0  0  0  0  0  0  0  0
    0.9393   -0.6004   -0.1147 C   0  0  0  0  0  0  0  0  0  0  0  0
    0.9434    0.4696    0.9289 C   0  0  0  0  0  0  0  0  0  0  0  0
    2.3327    0.6709    1.5013 C   0  0  0  0  0  0  0  0  0  0  0  0
    3.2317    1.0419    0.5095 O   0  0  0  0  0  0  0  0  0  0  0  0
   -3.6751    0.1457    0.6118 H   0  0  0  0  0  0  0  0  0  0  0  0
   -3.2463    1.9211    0.6539 H   0  0  0  0  0  0  0  0  0  0  0  0
   -3.4852    1.0446   -0.9033 H   0  0  0  0  0  0  0  0  0  0  0  0
   -2.0541   -0.3218   -1.6769 H   0  0  0  0  0  0  0  0  0  0  0  0
   -2.2358   -1.3080   -0.1820 H   0  0  0  0  0  0  0  0  0  0  0  0
   -0.1943   -2.0528   -1.3119 H   0  0  0  0  0  0  0  0  0  0  0  0
    0.4015    0.9696   -1.6573 H   0  0  0  0  0  0  0  0  0  0  0  0
    1.4013   -0.4404   -2.3303 H   0  0  0  0  0  0  0  0  0  0  0  0
    1.7889   -1.3253   -0.0046 H   0  0  0  0  0  0  0  0  0  0  0  0
    0.6268    1.4501    0.5173 H   0  0  0  0  0  0  0  0  0  0  0  0
    0.2837    0.2650    1.7887 H   0  0  0  0  0  0  0  0  0  0  0  0
    2.6440   -0.2888    1.9993 H   0  0  0  0  0  0  0  0  0  0  0  0
    2.2957    1.5148    2.2268 H   0  0  0  0  0  0  0  0  0  0  0  0
    3.8952    0.3470    0.3092 H   0  0  0  0  0  0  0  0  0  0  0  0
  1  2  1  0
  2  3  1  0
  3  4  1  0
  4  5  1  0
  5  6  1  0
  6  7  1  0
  7  8  1  0
  8  9  1  0
  6  4  1  0
  1 10  1  0
  1 11  1  0
  1 12  1  0
  3 13  1  0
  3 14  1  0
  4 15  1  0
  5 16  1  0
  5 17  1  0
  6 18  1  0
  7 19  1  0
  7 20  1  0
  8 21  1  0
  8 22  1  0
  9 23  1  0
M  END
