
     RDKit          3D

 17 17  0  0  0  0  0  0  0  0999 V2000
    2.6514    0.1111    0.2312 C   0  0  0  0  0  0  0  0  0  0  0  0
    1.3461   -0.1404    0.6160 O   0  0  0  0  0  0  0  0  0  0  0  0
    0.4068    0.4302   -0.2138 C   0  0  0  0  0  0  0  0  0  0  0  0
   -0.9645    0.0510    0.3599 C   0  0  0  0  0  0  0  0  0  0  0  0
   -1.2147    0.4861    1.6614 O   0  0  0  0  0  0  0  0  0  0  0  0
   -2.1280   -0.0118   -0.5599 C   0  0  0  0  0  0  0  0  0  0  0  0
   -1.4782   -1.2594   -0.0879 C   0  0  0  0  0  0  0  0  0  0  0  0
    2.8907    1.2008    0.2117 H   0  0  0  0  0  0  0  0  0  0  0  0
    2.8531   -0.3181   -0.7496 H   0  0  0  0  0  0  0  0  0  0  0  0
    3.3036   -0.3710    1.0126 H   0  0  0  0  0  0  0  0  0  0  0  0
    0.5171    1.5372   -0.1372 H   0  0  0  0  0  0  0  0  0  0  0  0
    0.4822    0.1518   -1.2611 H   0  0  0  0  0  0  0  0  0  0  0  0
   -0.6269    1.2706    1.8145 H   0  0  0  0  0  0  0  0  0  0  0  0
   -1.9751    0.3946   -1.5648 H   0  0  0  0  0  0  0  0  0  0  0  0
   -3.1246    0.2035   -0.1158 H   0  0  0  0  0  0  0  0  0  0  0  0
   -0.9474   -1.8687   -0.8417 H   0  0  0  0  0  0  0  0  0  0  0  0
   -1.9917   -1.8675    0.6775 H   0  0  0  0  0  0  0  0  0  0  0  0
  1  2  1  0
  2  3  1  0
  3  4  1  0
  4  5  1  0
  4  6  1  0
  6  7  1  0
  7  4  1  0
  1  8  1  0
  1  9  1  0
  1 10  1  0
  3 11  1  0
  3 12  1  0
  5 13  1  0
  6 14  1  0
  6 15  1  0
  7 16  1  0
  7 17  1  0
M  END
