
     RDKit          3D

 16 15  0  0  0  0  0  0  0  0999 V2000
    2.9448    0.1691   -0.0195 C   0  0  0  0  0  0  0  0  0  0  0  0
    1.7174    0.7498   -0.4285 O   0  0  0  0  0  0  0  0  0  0  0  0
    0.7389   -0.1155    0.0727 C   0  0  0  0  0  0  0  0  0  0  0  0
   -0.6278    0.3241   -0.2211 C   0  0  0  0  0  0  0  0  0  0  0  0
   -0.7983    1.3684   -0.8632 O   0  0  0  0  0  0  0  0  0  0  0  0
   -1.8006   -0.4415    0.2224 C   0  0  0  0  0  0  0  0  0  0  0  0
   -3.0431    0.2779   -0.1794 C   0  0  0  0  0  0  0  0  0  0  0  0
   -3.6726   -0.1007   -1.1442 O   0  0  0  0  0  0  0  0  0  0  0  0
    2.9016    0.1345    1.0912 H   0  0  0  0  0  0  0  0  0  0  0  0
    3.7916    0.7107   -0.4406 H   0  0  0  0  0  0  0  0  0  0  0  0
    2.9765   -0.8733   -0.4595 H   0  0  0  0  0  0  0  0  0  0  0  0
    0.9410   -1.1086   -0.3979 H   0  0  0  0  0  0  0  0  0  0  0  0
    0.8296   -0.2059    1.1815 H   0  0  0  0  0  0  0  0  0  0  0  0
   -1.8388   -1.4722   -0.2374 H   0  0  0  0  0  0  0  0  0  0  0  0
   -1.7330   -0.5600    1.3350 H   0  0  0  0  0  0  0  0  0  0  0  0
   -3.3273    1.1430    0.4487 H   0  0  0  0  0  0  0  0  0  0  0  0
  1  2  1  0
  2  3  1  0
  3  4  1  0
  4  5  2  0
  4  6  1  0
  6  7  1  0
  7  8  2  0
  1  9  1  0
  1 10  1  0
  1 11  1  0
  3 12  1  0
  3 13  1  0
  6 14  1  0
  6 15  1  0
  7 16  1  0
M  END
