
     RDKit          3D

 23 24  0  0  0  0  0  0  0  0999 V2000
    3.4236    0.0713   -0.2452 C   0  0  0  0  0  0  0  0  0  0  0  0
    2.1348    0.3041    0.2087 O   0  0  0  0  0  0  0  0  0  0  0  0
    1.2053   -0.5482   -0.3967 C   0  0  0  0  0  0  0  0  0  0  0  0
   -0.1339   -0.2083    0.1646 C   0  0  0  0  0  0  0  0  0  0  0  0
   -0.5745    1.2237   -0.0799 C   0  0  0  0  0  0  0  0  0  0  0  0
   -2.0640    1.2100   -0.0886 C   0  0  0  0  0  0  0  0  0  0  0  0
   -2.5379   -0.1948    0.0558 C   0  0  0  0  0  0  0  0  0  0  0  0
   -1.2908   -1.0780    0.1423 C   0  0  0  0  0  0  0  0  0  0  0  0
   -0.5105   -0.8659    1.4472 C   0  0  0  0  0  0  0  0  0  0  0  0
    3.4557    0.2385   -1.3458 H   0  0  0  0  0  0  0  0  0  0  0  0
    3.7959   -0.9320    0.0285 H   0  0  0  0  0  0  0  0  0  0  0  0
    4.0743    0.8347    0.2309 H   0  0  0  0  0  0  0  0  0  0  0  0
    1.4803   -1.5926   -0.0990 H   0  0  0  0  0  0  0  0  0  0  0  0
    1.2231   -0.4351   -1.5102 H   0  0  0  0  0  0  0  0  0  0  0  0
   -0.1401    1.8379    0.7328 H   0  0  0  0  0  0  0  0  0  0  0  0
   -0.1199    1.5776   -1.0207 H   0  0  0  0  0  0  0  0  0  0  0  0
   -2.4836    1.6264   -1.0251 H   0  0  0  0  0  0  0  0  0  0  0  0
   -2.4600    1.8787    0.7289 H   0  0  0  0  0  0  0  0  0  0  0  0
   -3.1885   -0.5292   -0.7815 H   0  0  0  0  0  0  0  0  0  0  0  0
   -3.0521   -0.3162    1.0335 H   0  0  0  0  0  0  0  0  0  0  0  0
   -1.3355   -2.0918   -0.2571 H   0  0  0  0  0  0  0  0  0  0  0  0
    0.0944   -1.7155    1.7954 H   0  0  0  0  0  0  0  0  0  0  0  0
   -0.9960   -0.2953    2.2576 H   0  0  0  0  0  0  0  0  0  0  0  0
  1  2  1  0
  2  3  1  0
  3  4  1  0
  4  5  1  0
  5  6  1  0
  6  7  1  0
  7  8  1  0
  8  9  1  0
  8  4  1  0
  9  4  1  0
  1 10  1  0
  1 11  1  0
  1 12  1  0
  3 13  1  0
  3 14  1  0
  5 15  1  0
  5 16  1  0
  6 17  1  0
  6 18  1  0
  7 19  1  0
  7 20  1  0
  8 21  1  0
  9 22  1  0
  9 23  1  0
M  END
