
     RDKit          3D

 17 18  0  0  0  0  0  0  0  0999 V2000
    2.1848    0.6200   -0.0156 C   0  0  0  0  0  0  0  0  0  0  0  0
    1.6138   -0.3493    0.7852 O   0  0  0  0  0  0  0  0  0  0  0  0
    0.6378   -1.0884    0.1024 C   0  0  0  0  0  0  0  0  0  0  0  0
   -0.4224   -0.1336   -0.3438 C   0  0  0  0  0  0  0  0  0  0  0  0
   -1.0560    0.5752    0.8450 C   0  0  0  0  0  0  0  0  0  0  0  0
   -0.7876    0.8246    1.9851 O   0  0  0  0  0  0  0  0  0  0  0  0
   -2.1266    0.7590   -0.1773 C   0  0  0  0  0  0  0  0  0  0  0  0
   -2.9516   -0.1517   -0.6580 O   0  0  0  0  0  0  0  0  0  0  0  0
   -1.8190   -0.7626   -0.3683 C   0  0  0  0  0  0  0  0  0  0  0  0
    2.9364    1.1519    0.5934 H   0  0  0  0  0  0  0  0  0  0  0  0
    1.4806    1.3562   -0.4132 H   0  0  0  0  0  0  0  0  0  0  0  0
    2.7635    0.0873   -0.8199 H   0  0  0  0  0  0  0  0  0  0  0  0
    1.1333   -1.6067   -0.7149 H   0  0  0  0  0  0  0  0  0  0  0  0
    0.2226   -1.8335    0.8058 H   0  0  0  0  0  0  0  0  0  0  0  0
   -0.2090    0.5159   -1.1881 H   0  0  0  0  0  0  0  0  0  0  0  0
   -1.6976    1.4180   -0.9987 H   0  0  0  0  0  0  0  0  0  0  0  0
   -1.9031   -1.3823    0.5809 H   0  0  0  0  0  0  0  0  0  0  0  0
  1  2  1  0
  2  3  1  0
  3  4  1  0
  4  5  1  0
  5  6  2  0
  5  7  1  0
  7  8  1  0
  8  9  1  0
  9  4  1  0
  9  7  1  0
  1 10  1  0
  1 11  1  0
  1 12  1  0
  3 13  1  0
  3 14  1  0
  4 15  1  0
  7 16  1  0
  9 17  1  0
M  END
