
     RDKit          3D

 21 21  0  0  0  0  0  0  0  0999 V2000
    3.2281   -0.0090    0.0105 C   0  0  0  0  0  0  0  0  0  0  0  0
    2.0549    0.7104    0.0196 O   0  0  0  0  0  0  0  0  0  0  0  0
    0.9433   -0.0827   -0.2048 C   0  0  0  0  0  0  0  0  0  0  0  0
   -0.3308    0.6953   -0.1954 C   0  0  0  0  0  0  0  0  0  0  0  0
   -0.5512    1.3350    1.0101 O   0  0  0  0  0  0  0  0  0  0  0  0
   -1.9308    1.5097    1.0436 C   0  0  0  0  0  0  0  0  0  0  0  0
   -2.5058    0.4697    0.3601 O   0  0  0  0  0  0  0  0  0  0  0  0
   -1.5269   -0.1719   -0.3752 C   0  0  0  0  0  0  0  0  0  0  0  0
   -1.3548   -1.5841    0.0761 C   0  0  0  0  0  0  0  0  0  0  0  0
    3.3018   -0.4833   -1.0116 H   0  0  0  0  0  0  0  0  0  0  0  0
    4.0938    0.6555    0.1861 H   0  0  0  0  0  0  0  0  0  0  0  0
    3.2116   -0.8660    0.7269 H   0  0  0  0  0  0  0  0  0  0  0  0
    0.9335   -0.9621    0.4656 H   0  0  0  0  0  0  0  0  0  0  0  0
    1.0645   -0.5107   -1.2426 H   0  0  0  0  0  0  0  0  0  0  0  0
   -0.2629    1.4575   -1.0082 H   0  0  0  0  0  0  0  0  0  0  0  0
   -2.2381    2.4755    0.5701 H   0  0  0  0  0  0  0  0  0  0  0  0
   -2.2416    1.5238    2.0960 H   0  0  0  0  0  0  0  0  0  0  0  0
   -1.7660   -0.2009   -1.4716 H   0  0  0  0  0  0  0  0  0  0  0  0
   -2.3906   -2.0192    0.1876 H   0  0  0  0  0  0  0  0  0  0  0  0
   -0.8726   -1.7101    1.0478 H   0  0  0  0  0  0  0  0  0  0  0  0
   -0.8595   -2.2325   -0.6785 H   0  0  0  0  0  0  0  0  0  0  0  0
  1  2  1  0
  2  3  1  0
  3  4  1  0
  4  5  1  0
  5  6  1  0
  6  7  1  0
  7  8  1  0
  8  9  1  0
  8  4  1  0
  1 10  1  0
  1 11  1  0
  1 12  1  0
  3 13  1  0
  3 14  1  0
  4 15  1  0
  6 16  1  0
  6 17  1  0
  8 18  1  0
  9 19  1  0
  9 20  1  0
  9 21  1  0
M  END
