
     RDKit          3D

 21 20  0  0  0  0  0  0  0  0999 V2000
    3.3923   -0.2748    0.6521 C   0  0  0  0  0  0  0  0  0  0  0  0
    3.0649   -1.4945    0.0617 O   0  0  0  0  0  0  0  0  0  0  0  0
    2.1188   -1.3394   -0.9441 C   0  0  0  0  0  0  0  0  0  0  0  0
    0.8805   -0.7682   -0.4709 C   0  0  0  0  0  0  0  0  0  0  0  0
   -0.1572   -0.3066   -0.0616 C   0  0  0  0  0  0  0  0  0  0  0  0
   -1.4116    0.2586    0.4600 C   0  0  0  0  0  0  0  0  0  0  0  0
   -2.5965   -0.6191    0.0488 C   0  0  0  0  0  0  0  0  0  0  0  0
   -1.6242    1.5945   -0.2070 C   0  0  0  0  0  0  0  0  0  0  0  0
   -2.7892    2.2118    0.2213 O   0  0  0  0  0  0  0  0  0  0  0  0
    3.8134    0.4507   -0.0675 H   0  0  0  0  0  0  0  0  0  0  0  0
    2.5456    0.1227    1.2199 H   0  0  0  0  0  0  0  0  0  0  0  0
    4.2129   -0.4862    1.3827 H   0  0  0  0  0  0  0  0  0  0  0  0
    2.0120   -2.2895   -1.4808 H   0  0  0  0  0  0  0  0  0  0  0  0
    2.5643   -0.5975   -1.6667 H   0  0  0  0  0  0  0  0  0  0  0  0
   -1.3822    0.2991    1.5481 H   0  0  0  0  0  0  0  0  0  0  0  0
   -3.4176   -0.3806    0.7453 H   0  0  0  0  0  0  0  0  0  0  0  0
   -2.8977   -0.3627   -0.9766 H   0  0  0  0  0  0  0  0  0  0  0  0
   -2.3137   -1.6723    0.1864 H   0  0  0  0  0  0  0  0  0  0  0  0
   -0.7678    2.2477   -0.0447 H   0  0  0  0  0  0  0  0  0  0  0  0
   -1.6848    1.3845   -1.3134 H   0  0  0  0  0  0  0  0  0  0  0  0
   -3.5620    2.0219   -0.3673 H   0  0  0  0  0  0  0  0  0  0  0  0
  1  2  1  0
  2  3  1  0
  3  4  1  0
  4  5  3  0
  5  6  1  0
  6  7  1  0
  6  8  1  0
  8  9  1  0
  1 10  1  0
  1 11  1  0
  1 12  1  0
  3 13  1  0
  3 14  1  0
  6 15  1  0
  7 16  1  0
  7 17  1  0
  7 18  1  0
  8 19  1  0
  8 20  1  0
  9 21  1  0
M  END
