
     RDKit          3D

 21 22  0  0  0  0  0  0  0  0999 V2000
    2.7615    0.6163    0.2383 C   0  0  0  0  0  0  0  0  0  0  0  0
    2.0694   -0.3535    0.9002 O   0  0  0  0  0  0  0  0  0  0  0  0
    1.0951   -0.9875    0.1646 C   0  0  0  0  0  0  0  0  0  0  0  0
    0.0598   -0.0252   -0.2794 C   0  0  0  0  0  0  0  0  0  0  0  0
   -1.0480   -0.7277   -1.1037 C   0  0  0  0  0  0  0  0  0  0  0  0
   -2.2024   -0.3675   -0.1951 C   0  0  0  0  0  0  0  0  0  0  0  0
   -1.9561    1.0387    0.2654 C   0  0  0  0  0  0  0  0  0  0  0  0
   -0.8103    0.3311    0.9059 C   0  0  0  0  0  0  0  0  0  0  0  0
   -1.6847   -0.7705    1.0570 O   0  0  0  0  0  0  0  0  0  0  0  0
    3.5503    1.0798    0.8968 H   0  0  0  0  0  0  0  0  0  0  0  0
    2.1986    1.4284   -0.2097 H   0  0  0  0  0  0  0  0  0  0  0  0
    3.3306    0.1203   -0.5924 H   0  0  0  0  0  0  0  0  0  0  0  0
    0.6204   -1.7688    0.7962 H   0  0  0  0  0  0  0  0  0  0  0  0
    1.5540   -1.5615   -0.6875 H   0  0  0  0  0  0  0  0  0  0  0  0
    0.4004    0.8708   -0.7866 H   0  0  0  0  0  0  0  0  0  0  0  0
   -0.9079   -1.8090   -1.1148 H   0  0  0  0  0  0  0  0  0  0  0  0
   -1.1323   -0.2586   -2.1013 H   0  0  0  0  0  0  0  0  0  0  0  0
   -3.1833   -0.6843   -0.4494 H   0  0  0  0  0  0  0  0  0  0  0  0
   -1.6292    1.7625   -0.4759 H   0  0  0  0  0  0  0  0  0  0  0  0
   -2.7326    1.3475    0.9864 H   0  0  0  0  0  0  0  0  0  0  0  0
   -0.3532    0.7188    1.7849 H   0  0  0  0  0  0  0  0  0  0  0  0
  1  2  1  0
  2  3  1  0
  3  4  1  0
  4  5  1  0
  5  6  1  0
  6  7  1  0
  7  8  1  0
  8  9  1  0
  8  4  1  0
  9  6  1  0
  1 10  1  0
  1 11  1  0
  1 12  1  0
  3 13  1  0
  3 14  1  0
  4 15  1  0
  5 16  1  0
  5 17  1  0
  6 18  1  0
  7 19  1  0
  7 20  1  0
  8 21  1  0
M  END
