
     RDKit          3D

 21 21  0  0  0  0  0  0  0  0999 V2000
   -3.0088   -0.3165    1.4050 C   0  0  0  0  0  0  0  0  0  0  0  0
   -1.7128   -0.6482    0.9762 O   0  0  0  0  0  0  0  0  0  0  0  0
   -1.3128    0.3757    0.1217 C   0  0  0  0  0  0  0  0  0  0  0  0
    0.0770    0.1514   -0.4225 C   0  0  0  0  0  0  0  0  0  0  0  0
    1.2485    0.7016    0.3314 C   0  0  0  0  0  0  0  0  0  0  0  0
    2.5502    0.3836   -0.3472 C   0  0  0  0  0  0  0  0  0  0  0  0
    3.6235    0.8945    0.3944 O   0  0  0  0  0  0  0  0  0  0  0  0
    0.1653    0.1919   -1.9265 C   0  0  0  0  0  0  0  0  0  0  0  0
    0.3011   -0.9994   -1.1682 O   0  0  0  0  0  0  0  0  0  0  0  0
   -3.7069   -0.2382    0.5291 H   0  0  0  0  0  0  0  0  0  0  0  0
   -3.0097    0.6147    2.0124 H   0  0  0  0  0  0  0  0  0  0  0  0
   -3.4405   -1.1122    2.0514 H   0  0  0  0  0  0  0  0  0  0  0  0
   -2.0267    0.3672   -0.7208 H   0  0  0  0  0  0  0  0  0  0  0  0
   -1.4069    1.3491    0.6344 H   0  0  0  0  0  0  0  0  0  0  0  0
    1.2308    0.3691    1.3910 H   0  0  0  0  0  0  0  0  0  0  0  0
    1.1919    1.8307    0.3625 H   0  0  0  0  0  0  0  0  0  0  0  0
    2.6499   -0.6690   -0.6026 H   0  0  0  0  0  0  0  0  0  0  0  0
    2.5901    0.9838   -1.3054 H   0  0  0  0  0  0  0  0  0  0  0  0
    3.7312    0.4237    1.2571 H   0  0  0  0  0  0  0  0  0  0  0  0
   -0.7851    0.1512   -2.5157 H   0  0  0  0  0  0  0  0  0  0  0  0
    1.0508    0.5329   -2.4577 H   0  0  0  0  0  0  0  0  0  0  0  0
  1  2  1  0
  2  3  1  0
  3  4  1  0
  4  5  1  0
  5  6  1  0
  6  7  1  0
  4  8  1  0
  8  9  1  0
  9  4  1  0
  1 10  1  0
  1 11  1  0
  1 12  1  0
  3 13  1  0
  3 14  1  0
  5 15  1  0
  5 16  1  0
  6 17  1  0
  6 18  1  0
  7 19  1  0
  8 20  1  0
  8 21  1  0
M  END
