
     RDKit          3D

 23 22  0  0  0  0  0  0  0  0999 V2000
    3.0402    0.2270    1.0651 C   0  0  0  0  0  0  0  0  0  0  0  0
    1.6438    0.2129    1.1138 O   0  0  0  0  0  0  0  0  0  0  0  0
    1.1889   -0.1710   -0.1503 C   0  0  0  0  0  0  0  0  0  0  0  0
   -0.3170   -0.2205   -0.2132 C   0  0  0  0  0  0  0  0  0  0  0  0
   -0.9049   -1.1929    0.7662 C   0  0  0  0  0  0  0  0  0  0  0  0
   -0.6855   -0.7101   -1.6083 C   0  0  0  0  0  0  0  0  0  0  0  0
   -0.9051    1.1249    0.0282 C   0  0  0  0  0  0  0  0  0  0  0  0
   -2.3758    1.2887    0.0083 C   0  0  0  0  0  0  0  0  0  0  0  0
   -0.2079    2.0923    0.2413 O   0  0  0  0  0  0  0  0  0  0  0  0
    3.3960   -0.7860    0.8091 H   0  0  0  0  0  0  0  0  0  0  0  0
    3.3101    0.8965    0.1989 H   0  0  0  0  0  0  0  0  0  0  0  0
    3.5044    0.5973    1.9856 H   0  0  0  0  0  0  0  0  0  0  0  0
    1.5830   -1.1431   -0.4665 H   0  0  0  0  0  0  0  0  0  0  0  0
    1.5205    0.5837   -0.8961 H   0  0  0  0  0  0  0  0  0  0  0  0
   -1.9927   -0.9902    0.8438 H   0  0  0  0  0  0  0  0  0  0  0  0
   -0.8277   -2.2354    0.3438 H   0  0  0  0  0  0  0  0  0  0  0  0
   -0.4865   -1.1273    1.7717 H   0  0  0  0  0  0  0  0  0  0  0  0
    0.0211   -1.5368   -1.8799 H   0  0  0  0  0  0  0  0  0  0  0  0
   -0.5024    0.1148   -2.3060 H   0  0  0  0  0  0  0  0  0  0  0  0
   -1.7177   -1.0785   -1.5791 H   0  0  0  0  0  0  0  0  0  0  0  0
   -2.7818    1.5706    1.0072 H   0  0  0  0  0  0  0  0  0  0  0  0
   -2.6036    2.0965   -0.7255 H   0  0  0  0  0  0  0  0  0  0  0  0
   -2.8990    0.3866   -0.3582 H   0  0  0  0  0  0  0  0  0  0  0  0
  1  2  1  0
  2  3  1  0
  3  4  1  0
  4  5  1  0
  4  6  1  0
  4  7  1  0
  7  8  1  0
  7  9  2  0
  1 10  1  0
  1 11  1  0
  1 12  1  0
  3 13  1  0
  3 14  1  0
  5 15  1  0
  5 16  1  0
  5 17  1  0
  6 18  1  0
  6 19  1  0
  6 20  1  0
  8 21  1  0
  8 22  1  0
  8 23  1  0
M  END
