
     RDKit          3D

 21 20  0  0  0  0  0  0  0  0999 V2000
    3.1010    0.4825   -0.1824 C   0  0  0  0  0  0  0  0  0  0  0  0
    2.0256   -0.2669   -0.6441 O   0  0  0  0  0  0  0  0  0  0  0  0
    0.8471    0.1323   -0.0265 C   0  0  0  0  0  0  0  0  0  0  0  0
   -0.3467   -0.6375   -0.4820 C   0  0  0  0  0  0  0  0  0  0  0  0
   -0.2525   -2.1105   -0.2264 C   0  0  0  0  0  0  0  0  0  0  0  0
   -1.5645   -0.0850    0.2617 C   0  0  0  0  0  0  0  0  0  0  0  0
   -1.6706    1.2648   -0.0690 O   0  0  0  0  0  0  0  0  0  0  0  0
   -2.6511    2.1168    0.4061 C   0  0  0  0  0  0  0  0  0  0  0  0
   -3.5121    1.6572    1.1904 O   0  0  0  0  0  0  0  0  0  0  0  0
    4.0398    0.1750   -0.6647 H   0  0  0  0  0  0  0  0  0  0  0  0
    2.9102    1.5519   -0.4290 H   0  0  0  0  0  0  0  0  0  0  0  0
    3.2546    0.3647    0.9134 H   0  0  0  0  0  0  0  0  0  0  0  0
    0.6794    1.2000   -0.2779 H   0  0  0  0  0  0  0  0  0  0  0  0
    0.9433    0.0487    1.0758 H   0  0  0  0  0  0  0  0  0  0  0  0
   -0.4751   -0.4904   -1.5735 H   0  0  0  0  0  0  0  0  0  0  0  0
   -1.1230   -2.5130    0.3519 H   0  0  0  0  0  0  0  0  0  0  0  0
    0.6662   -2.4030    0.3194 H   0  0  0  0  0  0  0  0  0  0  0  0
   -0.2405   -2.6988   -1.1850 H   0  0  0  0  0  0  0  0  0  0  0  0
   -1.5292   -0.3138    1.3251 H   0  0  0  0  0  0  0  0  0  0  0  0
   -2.4619   -0.6193   -0.1689 H   0  0  0  0  0  0  0  0  0  0  0  0
   -2.6398    3.1441    0.0856 H   0  0  0  0  0  0  0  0  0  0  0  0
  1  2  1  0
  2  3  1  0
  3  4  1  0
  4  5  1  0
  4  6  1  0
  6  7  1  0
  7  8  1  0
  8  9  2  0
  1 10  1  0
  1 11  1  0
  1 12  1  0
  3 13  1  0
  3 14  1  0
  4 15  1  0
  5 16  1  0
  5 17  1  0
  5 18  1  0
  6 19  1  0
  6 20  1  0
  8 21  1  0
M  END
