
     RDKit          3D

 23 24  0  0  0  0  0  0  0  0999 V2000
    3.5074   -0.0568   -0.0246 C   0  0  0  0  0  0  0  0  0  0  0  0
    2.6503   -0.9776    0.5182 O   0  0  0  0  0  0  0  0  0  0  0  0
    1.4760   -0.4342    0.9079 C   0  0  0  0  0  0  0  0  0  0  0  0
    0.6166    0.2004   -0.1599 C   0  0  0  0  0  0  0  0  0  0  0  0
   -0.6124    0.7556    0.2872 C   0  0  0  0  0  0  0  0  0  0  0  0
   -1.8105    0.2287    0.9714 C   0  0  0  0  0  0  0  0  0  0  0  0
   -2.7124    0.0748   -0.2768 C   0  0  0  0  0  0  0  0  0  0  0  0
   -1.7194   -0.1377   -1.4393 C   0  0  0  0  0  0  0  0  0  0  0  0
   -0.5068   -0.4956   -0.6820 C   0  0  0  0  0  0  0  0  0  0  0  0
    3.1151    0.4144   -0.9156 H   0  0  0  0  0  0  0  0  0  0  0  0
    3.8078    0.7057    0.7602 H   0  0  0  0  0  0  0  0  0  0  0  0
    4.4888   -0.5904   -0.2162 H   0  0  0  0  0  0  0  0  0  0  0  0
    0.7929   -1.1849    1.4198 H   0  0  0  0  0  0  0  0  0  0  0  0
    1.6105    0.3367    1.7345 H   0  0  0  0  0  0  0  0  0  0  0  0
    1.2164    0.7825   -0.8876 H   0  0  0  0  0  0  0  0  0  0  0  0
   -0.8988    1.7273   -0.2222 H   0  0  0  0  0  0  0  0  0  0  0  0
   -1.7097   -0.7995    1.3752 H   0  0  0  0  0  0  0  0  0  0  0  0
   -2.2680    0.9392    1.6830 H   0  0  0  0  0  0  0  0  0  0  0  0
   -3.2234    1.0283   -0.3951 H   0  0  0  0  0  0  0  0  0  0  0  0
   -3.3709   -0.8006   -0.1614 H   0  0  0  0  0  0  0  0  0  0  0  0
   -2.1104   -0.9728   -2.0229 H   0  0  0  0  0  0  0  0  0  0  0  0
   -1.6569    0.7577   -2.0684 H   0  0  0  0  0  0  0  0  0  0  0  0
   -0.6822   -1.5011   -0.1856 H   0  0  0  0  0  0  0  0  0  0  0  0
  1  2  1  0
  2  3  1  0
  3  4  1  0
  4  5  1  0
  5  6  1  0
  6  7  1  0
  7  8  1  0
  8  9  1  0
  9  4  1  0
  9  5  1  0
  1 10  1  0
  1 11  1  0
  1 12  1  0
  3 13  1  0
  3 14  1  0
  4 15  1  0
  5 16  1  0
  6 17  1  0
  6 18  1  0
  7 19  1  0
  7 20  1  0
  8 21  1  0
  8 22  1  0
  9 23  1  0
M  END
