
     RDKit          3D

 20 21  0  0  0  0  0  0  0  0999 V2000
    3.1746    0.5767    0.2556 C   0  0  0  0  0  0  0  0  0  0  0  0
    1.8907    0.2013    0.6628 O   0  0  0  0  0  0  0  0  0  0  0  0
    1.2771   -0.4671   -0.3758 C   0  0  0  0  0  0  0  0  0  0  0  0
   -0.1352   -0.8750    0.0848 C   0  0  0  0  0  0  0  0  0  0  0  0
   -1.0937    0.0911    0.4853 C   0  0  0  0  0  0  0  0  0  0  0  0
   -2.5931    0.1369    0.1611 C   0  0  0  0  0  0  0  0  0  0  0  0
   -1.9830    0.5114   -1.2099 C   0  0  0  0  0  0  0  0  0  0  0  0
   -1.1699   -0.7402   -0.8683 C   0  0  0  0  0  0  0  0  0  0  0  0
    3.7966   -0.3162   -0.0197 H   0  0  0  0  0  0  0  0  0  0  0  0
    3.6979    1.1514    1.0594 H   0  0  0  0  0  0  0  0  0  0  0  0
    3.0468    1.2431   -0.6266 H   0  0  0  0  0  0  0  0  0  0  0  0
    1.2267    0.1723   -1.2759 H   0  0  0  0  0  0  0  0  0  0  0  0
    1.8657   -1.3766   -0.6160 H   0  0  0  0  0  0  0  0  0  0  0  0
   -0.0444   -1.7954    0.7380 H   0  0  0  0  0  0  0  0  0  0  0  0
   -0.7237    1.1571    0.3391 H   0  0  0  0  0  0  0  0  0  0  0  0
   -3.0580   -0.8545    0.1707 H   0  0  0  0  0  0  0  0  0  0  0  0
   -3.1039    0.9476    0.6653 H   0  0  0  0  0  0  0  0  0  0  0  0
   -1.4623    1.4591   -1.1283 H   0  0  0  0  0  0  0  0  0  0  0  0
   -2.6770    0.3635   -2.0357 H   0  0  0  0  0  0  0  0  0  0  0  0
   -1.9321   -1.5864   -0.8342 H   0  0  0  0  0  0  0  0  0  0  0  0
  1  2  1  0
  2  3  1  0
  3  4  1  0
  4  5  1  0
  5  6  1  0
  6  7  1  0
  7  8  1  0
  8  4  1  0
  8  5  1  0
  1  9  1  0
  1 10  1  0
  1 11  1  0
  3 12  1  0
  3 13  1  0
  4 14  1  0
  5 15  1  0
  6 16  1  0
  6 17  1  0
  7 18  1  0
  7 19  1  0
  8 20  1  0
M  END
