
     RDKit          3D

 19 18  0  0  0  0  0  0  0  0999 V2000
    1.6505    1.5321   -1.5473 C   0  0  0  0  0  0  0  0  0  0  0  0
    1.8939    0.3048   -2.1584 O   0  0  0  0  0  0  0  0  0  0  0  0
    2.1883   -0.6704   -1.2163 C   0  0  0  0  0  0  0  0  0  0  0  0
    1.0078   -0.7619   -0.3324 C   0  0  0  0  0  0  0  0  0  0  0  0
    0.0304   -0.8477    0.3773 C   0  0  0  0  0  0  0  0  0  0  0  0
   -1.1419   -0.9348    1.2510 C   0  0  0  0  0  0  0  0  0  0  0  0
   -1.7971   -2.1229    0.9494 O   0  0  0  0  0  0  0  0  0  0  0  0
   -2.0541    0.2657    1.0747 C   0  0  0  0  0  0  0  0  0  0  0  0
   -2.5236    0.3870   -0.2124 O   0  0  0  0  0  0  0  0  0  0  0  0
    2.4984    1.9032   -0.9678 H   0  0  0  0  0  0  0  0  0  0  0  0
    1.4494    2.2560   -2.3681 H   0  0  0  0  0  0  0  0  0  0  0  0
    0.7805    1.4685   -0.8437 H   0  0  0  0  0  0  0  0  0  0  0  0
    3.0957   -0.4515   -0.6356 H   0  0  0  0  0  0  0  0  0  0  0  0
    2.3245   -1.6349   -1.7376 H   0  0  0  0  0  0  0  0  0  0  0  0
   -0.8034   -1.0114    2.3041 H   0  0  0  0  0  0  0  0  0  0  0  0
   -2.0801   -2.0911   -0.0148 H   0  0  0  0  0  0  0  0  0  0  0  0
   -2.9269    0.1100    1.7426 H   0  0  0  0  0  0  0  0  0  0  0  0
   -1.4890    1.1751    1.3251 H   0  0  0  0  0  0  0  0  0  0  0  0
   -2.1034    1.1243   -0.7229 H   0  0  0  0  0  0  0  0  0  0  0  0
  1  2  1  0
  2  3  1  0
  3  4  1  0
  4  5  3  0
  5  6  1  0
  6  7  1  0
  6  8  1  0
  8  9  1  0
  1 10  1  0
  1 11  1  0
  1 12  1  0
  3 13  1  0
  3 14  1  0
  6 15  1  0
  7 16  1  0
  8 17  1  0
  8 18  1  0
  9 19  1  0
M  END
