
     RDKit          3D

 22 21  0  0  0  0  0  0  0  0999 V2000
    3.5630    0.1552   -0.0150 C   0  0  0  0  0  0  0  0  0  0  0  0
    2.4354    0.8661    0.3997 O   0  0  0  0  0  0  0  0  0  0  0  0
    1.3285    0.1922   -0.1005 C   0  0  0  0  0  0  0  0  0  0  0  0
    0.0253    0.8654    0.2806 C   0  0  0  0  0  0  0  0  0  0  0  0
   -1.0700    0.0359   -0.3221 C   0  0  0  0  0  0  0  0  0  0  0  0
   -1.0848   -1.3787    0.1697 C   0  0  0  0  0  0  0  0  0  0  0  0
   -2.4396    0.6405   -0.1346 C   0  0  0  0  0  0  0  0  0  0  0  0
   -3.3519   -0.2299   -0.7394 O   0  0  0  0  0  0  0  0  0  0  0  0
    3.5608   -0.8952    0.3664 H   0  0  0  0  0  0  0  0  0  0  0  0
    3.5967    0.0624   -1.1267 H   0  0  0  0  0  0  0  0  0  0  0  0
    4.4753    0.6304    0.3876 H   0  0  0  0  0  0  0  0  0  0  0  0
    1.3380   -0.8247    0.2981 H   0  0  0  0  0  0  0  0  0  0  0  0
    1.4311    0.1799   -1.2051 H   0  0  0  0  0  0  0  0  0  0  0  0
   -0.0527    1.8820   -0.1494 H   0  0  0  0  0  0  0  0  0  0  0  0
   -0.0893    0.9062    1.3826 H   0  0  0  0  0  0  0  0  0  0  0  0
   -0.8927    0.0057   -1.4343 H   0  0  0  0  0  0  0  0  0  0  0  0
   -0.2581   -1.9707   -0.2502 H   0  0  0  0  0  0  0  0  0  0  0  0
   -1.1427   -1.4119    1.2771 H   0  0  0  0  0  0  0  0  0  0  0  0
   -2.0414   -1.8410   -0.1884 H   0  0  0  0  0  0  0  0  0  0  0  0
   -2.4970    1.6592   -0.5601 H   0  0  0  0  0  0  0  0  0  0  0  0
   -2.6212    0.6605    0.9749 H   0  0  0  0  0  0  0  0  0  0  0  0
   -4.2128   -0.1898   -0.2523 H   0  0  0  0  0  0  0  0  0  0  0  0
  1  2  1  0
  2  3  1  0
  3  4  1  0
  4  5  1  0
  5  6  1  0
  5  7  1  0
  7  8  1  0
  1  9  1  0
  1 10  1  0
  1 11  1  0
  3 12  1  0
  3 13  1  0
  4 14  1  0
  4 15  1  0
  5 16  1  0
  6 17  1  0
  6 18  1  0
  6 19  1  0
  7 20  1  0
  7 21  1  0
  8 22  1  0
M  END
