
     RDKit          3D

 18 18  0  0  0  0  0  0  0  0999 V2000
    2.4885    0.2567    0.3998 C   0  0  0  0  0  0  0  0  0  0  0  0
    1.6695   -0.7383    0.8965 O   0  0  0  0  0  0  0  0  0  0  0  0
    0.6588   -1.1294    0.0437 C   0  0  0  0  0  0  0  0  0  0  0  0
   -0.2146    0.0364   -0.2568 C   0  0  0  0  0  0  0  0  0  0  0  0
   -1.4630   -0.4546   -0.9754 C   0  0  0  0  0  0  0  0  0  0  0  0
   -2.3747    0.5411   -0.6464 O   0  0  0  0  0  0  0  0  0  0  0  0
   -2.0226    1.0340    0.5891 C   0  0  0  0  0  0  0  0  0  0  0  0
   -0.7767    0.5392    0.9190 O   0  0  0  0  0  0  0  0  0  0  0  0
    3.2515    0.4573    1.2022 H   0  0  0  0  0  0  0  0  0  0  0  0
    1.9739    1.2379    0.2736 H   0  0  0  0  0  0  0  0  0  0  0  0
    2.9415   -0.0442   -0.5508 H   0  0  0  0  0  0  0  0  0  0  0  0
    1.0706   -1.4973   -0.9393 H   0  0  0  0  0  0  0  0  0  0  0  0
    0.1185   -1.9655    0.5058 H   0  0  0  0  0  0  0  0  0  0  0  0
    0.3270    0.7888   -0.8298 H   0  0  0  0  0  0  0  0  0  0  0  0
   -1.2217   -0.4815   -2.0433 H   0  0  0  0  0  0  0  0  0  0  0  0
   -1.7254   -1.4385   -0.5399 H   0  0  0  0  0  0  0  0  0  0  0  0
   -1.9785    2.1499    0.5547 H   0  0  0  0  0  0  0  0  0  0  0  0
   -2.7226    0.7081    1.3972 H   0  0  0  0  0  0  0  0  0  0  0  0
  1  2  1  0
  2  3  1  0
  3  4  1  0
  4  5  1  0
  5  6  1  0
  6  7  1  0
  7  8  1  0
  8  4  1  0
  1  9  1  0
  1 10  1  0
  1 11  1  0
  3 12  1  0
  3 13  1  0
  4 14  1  0
  5 15  1  0
  5 16  1  0
  7 17  1  0
  7 18  1  0
M  END
