
     RDKit          3D

 23 23  0  0  0  0  0  0  0  0999 V2000
    3.2307    0.5338   -0.0803 C   0  0  0  0  0  0  0  0  0  0  0  0
    2.0976   -0.2094    0.2048 O   0  0  0  0  0  0  0  0  0  0  0  0
    0.9292    0.5495    0.1433 C   0  0  0  0  0  0  0  0  0  0  0  0
   -0.1916   -0.3663    0.4673 C   0  0  0  0  0  0  0  0  0  0  0  0
   -1.5749    0.1450    0.4848 C   0  0  0  0  0  0  0  0  0  0  0  0
   -1.8901    1.3563   -0.3505 C   0  0  0  0  0  0  0  0  0  0  0  0
   -2.0049   -1.1091   -0.2890 C   0  0  0  0  0  0  0  0  0  0  0  0
   -0.5573   -1.2205   -0.7446 C   0  0  0  0  0  0  0  0  0  0  0  0
   -0.0526   -2.5094   -0.6231 O   0  0  0  0  0  0  0  0  0  0  0  0
    4.1306   -0.0762   -0.0271 H   0  0  0  0  0  0  0  0  0  0  0  0
    3.2865    1.3610    0.6523 H   0  0  0  0  0  0  0  0  0  0  0  0
    3.1489    0.9574   -1.0859 H   0  0  0  0  0  0  0  0  0  0  0  0
    0.8735    0.9633   -0.8987 H   0  0  0  0  0  0  0  0  0  0  0  0
    1.0558    1.3828    0.8766 H   0  0  0  0  0  0  0  0  0  0  0  0
    0.0394   -0.9678    1.3746 H   0  0  0  0  0  0  0  0  0  0  0  0
   -2.0402    0.2291    1.4751 H   0  0  0  0  0  0  0  0  0  0  0  0
   -3.0178    1.4242   -0.3788 H   0  0  0  0  0  0  0  0  0  0  0  0
   -1.5771    1.2457   -1.4014 H   0  0  0  0  0  0  0  0  0  0  0  0
   -1.5490    2.2999    0.1147 H   0  0  0  0  0  0  0  0  0  0  0  0
   -2.6608   -0.9188   -1.1422 H   0  0  0  0  0  0  0  0  0  0  0  0
   -2.2842   -1.9098    0.4011 H   0  0  0  0  0  0  0  0  0  0  0  0
   -0.3221   -0.7376   -1.6985 H   0  0  0  0  0  0  0  0  0  0  0  0
    0.9305   -2.4233   -0.5376 H   0  0  0  0  0  0  0  0  0  0  0  0
  1  2  1  0
  2  3  1  0
  3  4  1  0
  4  5  1  0
  5  6  1  0
  5  7  1  0
  7  8  1  0
  8  9  1  0
  8  4  1  0
  1 10  1  0
  1 11  1  0
  1 12  1  0
  3 13  1  0
  3 14  1  0
  4 15  1  0
  5 16  1  0
  6 17  1  0
  6 18  1  0
  6 19  1  0
  7 20  1  0
  7 21  1  0
  8 22  1  0
  9 23  1  0
M  END
