
     RDKit          3D

 21 22  0  0  0  0  0  0  0  0999 V2000
    3.0543    0.6457    0.2188 C   0  0  0  0  0  0  0  0  0  0  0  0
    1.8366    0.3444   -0.3767 O   0  0  0  0  0  0  0  0  0  0  0  0
    0.8742   -0.0586    0.5157 C   0  0  0  0  0  0  0  0  0  0  0  0
   -0.3909   -0.3507   -0.2758 C   0  0  0  0  0  0  0  0  0  0  0  0
   -0.3442   -1.3882   -1.3159 C   0  0  0  0  0  0  0  0  0  0  0  0
   -1.1133   -1.6354   -0.0868 C   0  0  0  0  0  0  0  0  0  0  0  0
   -2.3706   -0.9951   -0.0515 O   0  0  0  0  0  0  0  0  0  0  0  0
   -1.6767    0.1662    0.2965 C   0  0  0  0  0  0  0  0  0  0  0  0
   -2.2027    1.4363   -0.3179 C   0  0  0  0  0  0  0  0  0  0  0  0
    3.7842    0.9628   -0.5531 H   0  0  0  0  0  0  0  0  0  0  0  0
    2.9206    1.4747    0.9334 H   0  0  0  0  0  0  0  0  0  0  0  0
    3.4323   -0.2696    0.7177 H   0  0  0  0  0  0  0  0  0  0  0  0
    0.6860    0.6646    1.3306 H   0  0  0  0  0  0  0  0  0  0  0  0
    1.2322   -0.9979    1.0304 H   0  0  0  0  0  0  0  0  0  0  0  0
    0.6096   -1.9604   -1.4086 H   0  0  0  0  0  0  0  0  0  0  0  0
   -0.8372   -1.2548   -2.3067 H   0  0  0  0  0  0  0  0  0  0  0  0
   -0.8554   -2.3643    0.6744 H   0  0  0  0  0  0  0  0  0  0  0  0
   -1.6516    0.2226    1.4124 H   0  0  0  0  0  0  0  0  0  0  0  0
   -1.9330    2.3046    0.3198 H   0  0  0  0  0  0  0  0  0  0  0  0
   -1.7453    1.6322   -1.3091 H   0  0  0  0  0  0  0  0  0  0  0  0
   -3.3090    1.4211   -0.4604 H   0  0  0  0  0  0  0  0  0  0  0  0
  1  2  1  0
  2  3  1  0
  3  4  1  0
  4  5  1  0
  5  6  1  0
  6  7  1  0
  7  8  1  0
  8  9  1  0
  6  4  1  0
  8  4  1  0
  1 10  1  0
  1 11  1  0
  1 12  1  0
  3 13  1  0
  3 14  1  0
  5 15  1  0
  5 16  1  0
  6 17  1  0
  8 18  1  0
  9 19  1  0
  9 20  1  0
  9 21  1  0
M  END
