
     RDKit          3D

 21 20  0  0  0  0  0  0  0  0999 V2000
    3.1992   -0.6236    0.9573 C   0  0  0  0  0  0  0  0  0  0  0  0
    1.9454   -0.7854    0.3714 O   0  0  0  0  0  0  0  0  0  0  0  0
    1.5122    0.4497   -0.0399 C   0  0  0  0  0  0  0  0  0  0  0  0
    0.1511    0.4203   -0.6998 C   0  0  0  0  0  0  0  0  0  0  0  0
    0.1106   -0.3768   -1.8260 O   0  0  0  0  0  0  0  0  0  0  0  0
   -0.9487    0.1074    0.2607 C   0  0  0  0  0  0  0  0  0  0  0  0
   -2.2602    0.0946   -0.4556 C   0  0  0  0  0  0  0  0  0  0  0  0
   -3.4026   -0.2125    0.4494 C   0  0  0  0  0  0  0  0  0  0  0  0
   -4.5128   -0.2417   -0.0623 O   0  0  0  0  0  0  0  0  0  0  0  0
    3.6089   -1.5993    1.3152 H   0  0  0  0  0  0  0  0  0  0  0  0
    3.9340   -0.2297    0.1984 H   0  0  0  0  0  0  0  0  0  0  0  0
    3.1869    0.1458    1.7668 H   0  0  0  0  0  0  0  0  0  0  0  0
    2.2752    0.9264   -0.6840 H   0  0  0  0  0  0  0  0  0  0  0  0
    1.4126    1.0909    0.8614 H   0  0  0  0  0  0  0  0  0  0  0  0
   -0.0280    1.4762   -1.0604 H   0  0  0  0  0  0  0  0  0  0  0  0
   -0.4443    0.0290   -2.5649 H   0  0  0  0  0  0  0  0  0  0  0  0
   -0.9888    0.9262    1.0314 H   0  0  0  0  0  0  0  0  0  0  0  0
   -0.7636   -0.8651    0.7796 H   0  0  0  0  0  0  0  0  0  0  0  0
   -2.4407    1.1426   -0.8267 H   0  0  0  0  0  0  0  0  0  0  0  0
   -2.2374   -0.6415   -1.2655 H   0  0  0  0  0  0  0  0  0  0  0  0
   -3.3089   -0.4039    1.4935 H   0  0  0  0  0  0  0  0  0  0  0  0
  1  2  1  0
  2  3  1  0
  3  4  1  0
  4  5  1  0
  4  6  1  0
  6  7  1  0
  7  8  1  0
  8  9  2  0
  1 10  1  0
  1 11  1  0
  1 12  1  0
  3 13  1  0
  3 14  1  0
  4 15  1  0
  5 16  1  0
  6 17  1  0
  6 18  1  0
  7 19  1  0
  7 20  1  0
  8 21  1  0
M  END
