
     RDKit          3D

 23 23  0  0  0  0  0  0  0  0999 V2000
    3.1375    0.6031   -0.4520 C   0  0  0  0  0  0  0  0  0  0  0  0
    2.4897   -0.5837   -0.6494 O   0  0  0  0  0  0  0  0  0  0  0  0
    1.1096   -0.5155   -0.5702 C   0  0  0  0  0  0  0  0  0  0  0  0
    0.6906   -0.0414    0.7781 C   0  0  0  0  0  0  0  0  0  0  0  0
   -0.8128    0.0433    0.9304 C   0  0  0  0  0  0  0  0  0  0  0  0
   -1.5660   -1.2303    0.7449 C   0  0  0  0  0  0  0  0  0  0  0  0
   -2.0675   -0.7243   -0.5854 C   0  0  0  0  0  0  0  0  0  0  0  0
   -1.5657    0.6577   -0.2125 C   0  0  0  0  0  0  0  0  0  0  0  0
   -2.6414    1.4790    0.1987 O   0  0  0  0  0  0  0  0  0  0  0  0
    2.7851    1.3343   -1.2305 H   0  0  0  0  0  0  0  0  0  0  0  0
    4.2437    0.5180   -0.5657 H   0  0  0  0  0  0  0  0  0  0  0  0
    2.9884    1.0823    0.5273 H   0  0  0  0  0  0  0  0  0  0  0  0
    0.8045    0.2332   -1.3572 H   0  0  0  0  0  0  0  0  0  0  0  0
    0.6868   -1.5154   -0.7902 H   0  0  0  0  0  0  0  0  0  0  0  0
    1.0956   -0.6831    1.5556 H   0  0  0  0  0  0  0  0  0  0  0  0
    1.0341    1.0178    0.9693 H   0  0  0  0  0  0  0  0  0  0  0  0
   -1.0450    0.5913    1.8788 H   0  0  0  0  0  0  0  0  0  0  0  0
   -2.3877   -1.3343    1.4583 H   0  0  0  0  0  0  0  0  0  0  0  0
   -0.9699   -2.1586    0.6804 H   0  0  0  0  0  0  0  0  0  0  0  0
   -1.5902   -1.1807   -1.4695 H   0  0  0  0  0  0  0  0  0  0  0  0
   -3.1757   -0.7752   -0.7203 H   0  0  0  0  0  0  0  0  0  0  0  0
   -0.9655    1.1709   -0.9878 H   0  0  0  0  0  0  0  0  0  0  0  0
   -2.2782    2.0117    0.9722 H   0  0  0  0  0  0  0  0  0  0  0  0
  1  2  1  0
  2  3  1  0
  3  4  1  0
  4  5  1  0
  5  6  1  0
  6  7  1  0
  7  8  1  0
  8  9  1  0
  8  5  1  0
  1 10  1  0
  1 11  1  0
  1 12  1  0
  3 13  1  0
  3 14  1  0
  4 15  1  0
  4 16  1  0
  5 17  1  0
  6 18  1  0
  6 19  1  0
  7 20  1  0
  7 21  1  0
  8 22  1  0
  9 23  1  0
M  END
