
     RDKit          3D

 21 21  0  0  0  0  0  0  0  0999 V2000
    3.4330    0.3888   -0.7407 C   0  0  0  0  0  0  0  0  0  0  0  0
    2.1072    0.0500   -1.0244 O   0  0  0  0  0  0  0  0  0  0  0  0
    1.3657    0.3510    0.1121 C   0  0  0  0  0  0  0  0  0  0  0  0
   -0.0652    0.0522   -0.0171 C   0  0  0  0  0  0  0  0  0  0  0  0
   -0.9652    1.0066    0.1092 C   0  0  0  0  0  0  0  0  0  0  0  0
   -2.3958    0.6547   -0.0298 C   0  0  0  0  0  0  0  0  0  0  0  0
   -2.6494   -0.8036    0.1286 C   0  0  0  0  0  0  0  0  0  0  0  0
   -1.5884   -1.5455    0.6177 O   0  0  0  0  0  0  0  0  0  0  0  0
   -0.5250   -1.3343   -0.2916 C   0  0  0  0  0  0  0  0  0  0  0  0
    3.8323   -0.1830    0.1309 H   0  0  0  0  0  0  0  0  0  0  0  0
    4.0682    0.1756   -1.6294 H   0  0  0  0  0  0  0  0  0  0  0  0
    3.5627    1.4541   -0.5026 H   0  0  0  0  0  0  0  0  0  0  0  0
    1.5415    1.4195    0.3490 H   0  0  0  0  0  0  0  0  0  0  0  0
    1.8326   -0.2209    0.9523 H   0  0  0  0  0  0  0  0  0  0  0  0
   -0.6980    2.0564    0.3141 H   0  0  0  0  0  0  0  0  0  0  0  0
   -2.6948    0.9854   -1.0676 H   0  0  0  0  0  0  0  0  0  0  0  0
   -3.0441    1.2736    0.6439 H   0  0  0  0  0  0  0  0  0  0  0  0
   -2.9017   -1.2505   -0.8746 H   0  0  0  0  0  0  0  0  0  0  0  0
   -3.5125   -0.9853    0.8267 H   0  0  0  0  0  0  0  0  0  0  0  0
   -0.9448   -1.4460   -1.3069 H   0  0  0  0  0  0  0  0  0  0  0  0
    0.2418   -2.0986   -0.0593 H   0  0  0  0  0  0  0  0  0  0  0  0
  1  2  1  0
  2  3  1  0
  3  4  1  0
  4  5  2  0
  5  6  1  0
  6  7  1  0
  7  8  1  0
  8  9  1  0
  9  4  1  0
  1 10  1  0
  1 11  1  0
  1 12  1  0
  3 13  1  0
  3 14  1  0
  5 15  1  0
  6 16  1  0
  6 17  1  0
  7 18  1  0
  7 19  1  0
  9 20  1  0
  9 21  1  0
M  END
