
     RDKit          3D

 19 19  0  0  0  0  0  0  0  0999 V2000
    3.1751    0.7118    0.0832 C   0  0  0  0  0  0  0  0  0  0  0  0
    1.7980    0.8587   -0.0592 O   0  0  0  0  0  0  0  0  0  0  0  0
    1.1835   -0.3632    0.1408 C   0  0  0  0  0  0  0  0  0  0  0  0
   -0.3181   -0.2088   -0.0132 C   0  0  0  0  0  0  0  0  0  0  0  0
   -0.9615    0.9106   -0.2948 C   0  0  0  0  0  0  0  0  0  0  0  0
   -2.4294    0.7186   -0.3745 C   0  0  0  0  0  0  0  0  0  0  0  0
   -2.5902   -0.6152    0.2638 C   0  0  0  0  0  0  0  0  0  0  0  0
   -3.5830   -1.0486    0.7922 O   0  0  0  0  0  0  0  0  0  0  0  0
   -1.2965   -1.3103    0.1262 C   0  0  0  0  0  0  0  0  0  0  0  0
    3.5379   -0.0222   -0.6719 H   0  0  0  0  0  0  0  0  0  0  0  0
    3.6549    1.7138   -0.0419 H   0  0  0  0  0  0  0  0  0  0  0  0
    3.4507    0.3328    1.0932 H   0  0  0  0  0  0  0  0  0  0  0  0
    1.4629   -1.1022   -0.6396 H   0  0  0  0  0  0  0  0  0  0  0  0
    1.4299   -0.8239    1.1185 H   0  0  0  0  0  0  0  0  0  0  0  0
   -0.3985    1.8559   -0.4430 H   0  0  0  0  0  0  0  0  0  0  0  0
   -2.8097    0.7351   -1.4126 H   0  0  0  0  0  0  0  0  0  0  0  0
   -2.9428    1.5074    0.2123 H   0  0  0  0  0  0  0  0  0  0  0  0
   -1.2944   -1.8642   -0.8497 H   0  0  0  0  0  0  0  0  0  0  0  0
   -1.0689   -1.9862    0.9702 H   0  0  0  0  0  0  0  0  0  0  0  0
  1  2  1  0
  2  3  1  0
  3  4  1  0
  4  5  2  0
  5  6  1  0
  6  7  1  0
  7  8  2  0
  7  9  1  0
  9  4  1  0
  1 10  1  0
  1 11  1  0
  1 12  1  0
  3 13  1  0
  3 14  1  0
  5 15  1  0
  6 16  1  0
  6 17  1  0
  9 18  1  0
  9 19  1  0
M  END
