
     RDKit          3D

 21 20  0  0  0  0  0  0  0  0999 V2000
    3.1186    0.3184   -0.0893 C   0  0  0  0  0  0  0  0  0  0  0  0
    1.9366   -0.3325   -0.4903 O   0  0  0  0  0  0  0  0  0  0  0  0
    0.9031    0.2892    0.1938 C   0  0  0  0  0  0  0  0  0  0  0  0
   -0.4476   -0.2718   -0.1056 C   0  0  0  0  0  0  0  0  0  0  0  0
   -0.5000   -1.7563    0.2663 C   0  0  0  0  0  0  0  0  0  0  0  0
   -0.7932   -0.1759   -1.4460 O   0  0  0  0  0  0  0  0  0  0  0  0
   -1.4174    0.4829    0.7645 C   0  0  0  0  0  0  0  0  0  0  0  0
   -2.5689    1.2110    0.2007 C   0  0  0  0  0  0  0  0  0  0  0  0
   -1.2043    0.4632    1.9636 O   0  0  0  0  0  0  0  0  0  0  0  0
    3.1986    0.1836    1.0126 H   0  0  0  0  0  0  0  0  0  0  0  0
    3.0581    1.4191   -0.2965 H   0  0  0  0  0  0  0  0  0  0  0  0
    3.9699   -0.1243   -0.6226 H   0  0  0  0  0  0  0  0  0  0  0  0
    0.8976    1.3559   -0.1115 H   0  0  0  0  0  0  0  0  0  0  0  0
    1.0720    0.1947    1.2884 H   0  0  0  0  0  0  0  0  0  0  0  0
    0.0801   -1.9426    1.1837 H   0  0  0  0  0  0  0  0  0  0  0  0
   -0.0697   -2.3205   -0.5751 H   0  0  0  0  0  0  0  0  0  0  0  0
   -1.5472   -2.0972    0.3929 H   0  0  0  0  0  0  0  0  0  0  0  0
   -1.1003   -1.0443   -1.8314 H   0  0  0  0  0  0  0  0  0  0  0  0
   -2.2896    1.7828   -0.6875 H   0  0  0  0  0  0  0  0  0  0  0  0
   -3.3280    0.4509   -0.0985 H   0  0  0  0  0  0  0  0  0  0  0  0
   -2.9684    1.9137    0.9454 H   0  0  0  0  0  0  0  0  0  0  0  0
  1  2  1  0
  2  3  1  0
  3  4  1  0
  4  5  1  0
  4  6  1  0
  4  7  1  0
  7  8  1  0
  7  9  2  0
  1 10  1  0
  1 11  1  0
  1 12  1  0
  3 13  1  0
  3 14  1  0
  5 15  1  0
  5 16  1  0
  5 17  1  0
  6 18  1  0
  8 19  1  0
  8 20  1  0
  8 21  1  0
M  END
