
     RDKit          3D

 23 23  0  0  0  0  0  0  0  0999 V2000
    3.4446    0.7529   -0.0562 C   0  0  0  0  0  0  0  0  0  0  0  0
    2.5880   -0.3161    0.2133 O   0  0  0  0  0  0  0  0  0  0  0  0
    1.2413    0.0878    0.0508 C   0  0  0  0  0  0  0  0  0  0  0  0
    0.4086   -1.1046    0.3560 C   0  0  0  0  0  0  0  0  0  0  0  0
   -1.0668   -0.8976    0.2442 C   0  0  0  0  0  0  0  0  0  0  0  0
   -1.5619   -0.4868   -1.0834 C   0  0  0  0  0  0  0  0  0  0  0  0
   -2.5651    0.6213   -0.7274 C   0  0  0  0  0  0  0  0  0  0  0  0
   -2.8232    0.4649    0.6326 O   0  0  0  0  0  0  0  0  0  0  0  0
   -1.5775    0.1561    1.1844 C   0  0  0  0  0  0  0  0  0  0  0  0
    3.3381    1.1405   -1.0843 H   0  0  0  0  0  0  0  0  0  0  0  0
    4.4765    0.3575    0.0583 H   0  0  0  0  0  0  0  0  0  0  0  0
    3.3340    1.5682    0.6878 H   0  0  0  0  0  0  0  0  0  0  0  0
    1.1635    0.4610   -0.9704 H   0  0  0  0  0  0  0  0  0  0  0  0
    1.0767    0.8895    0.8249 H   0  0  0  0  0  0  0  0  0  0  0  0
    0.7691   -1.9581   -0.2518 H   0  0  0  0  0  0  0  0  0  0  0  0
    0.6161   -1.3954    1.4209 H   0  0  0  0  0  0  0  0  0  0  0  0
   -1.5563   -1.8577    0.5394 H   0  0  0  0  0  0  0  0  0  0  0  0
   -0.8350   -0.0304   -1.7583 H   0  0  0  0  0  0  0  0  0  0  0  0
   -2.1654   -1.2992   -1.5727 H   0  0  0  0  0  0  0  0  0  0  0  0
   -2.1002    1.6199   -0.8516 H   0  0  0  0  0  0  0  0  0  0  0  0
   -3.5009    0.5005   -1.3122 H   0  0  0  0  0  0  0  0  0  0  0  0
   -1.7689   -0.3104    2.1882 H   0  0  0  0  0  0  0  0  0  0  0  0
   -0.9353    1.0362    1.2675 H   0  0  0  0  0  0  0  0  0  0  0  0
  1  2  1  0
  2  3  1  0
  3  4  1  0
  4  5  1  0
  5  6  1  0
  6  7  1  0
  7  8  1  0
  8  9  1  0
  9  5  1  0
  1 10  1  0
  1 11  1  0
  1 12  1  0
  3 13  1  0
  3 14  1  0
  4 15  1  0
  4 16  1  0
  5 17  1  0
  6 18  1  0
  6 19  1  0
  7 20  1  0
  7 21  1  0
  9 22  1  0
  9 23  1  0
M  END
