
     RDKit          3D

 20 20  0  0  0  0  0  0  0  0999 V2000
    2.7153    0.5662    0.1131 C   0  0  0  0  0  0  0  0  0  0  0  0
    2.1369   -0.6796    0.1315 O   0  0  0  0  0  0  0  0  0  0  0  0
    1.0587   -0.8128    0.9667 C   0  0  0  0  0  0  0  0  0  0  0  0
   -0.0765    0.1331    0.6095 C   0  0  0  0  0  0  0  0  0  0  0  0
   -1.2125   -0.0567    1.5455 C   0  0  0  0  0  0  0  0  0  0  0  0
   -2.3664   -0.0014    0.9347 C   0  0  0  0  0  0  0  0  0  0  0  0
   -2.1307    0.2360   -0.5048 C   0  0  0  0  0  0  0  0  0  0  0  0
   -0.7175   -0.2456   -0.7063 C   0  0  0  0  0  0  0  0  0  0  0  0
    3.0982    0.8961    1.0992 H   0  0  0  0  0  0  0  0  0  0  0  0
    2.1187    1.3611   -0.3342 H   0  0  0  0  0  0  0  0  0  0  0  0
    3.6371    0.4740   -0.5344 H   0  0  0  0  0  0  0  0  0  0  0  0
    0.6498   -1.8509    0.7914 H   0  0  0  0  0  0  0  0  0  0  0  0
    1.3014   -0.7778    2.0383 H   0  0  0  0  0  0  0  0  0  0  0  0
    0.3313    1.1553    0.6217 H   0  0  0  0  0  0  0  0  0  0  0  0
   -1.0752   -0.2200    2.6055 H   0  0  0  0  0  0  0  0  0  0  0  0
   -3.3368   -0.1185    1.4490 H   0  0  0  0  0  0  0  0  0  0  0  0
   -2.8675   -0.3727   -1.0716 H   0  0  0  0  0  0  0  0  0  0  0  0
   -2.2497    1.3242   -0.7040 H   0  0  0  0  0  0  0  0  0  0  0  0
   -0.2912    0.3135   -1.5591 H   0  0  0  0  0  0  0  0  0  0  0  0
   -0.7233   -1.3236   -0.8714 H   0  0  0  0  0  0  0  0  0  0  0  0
  1  2  1  0
  2  3  1  0
  3  4  1  0
  4  5  1  0
  5  6  2  0
  6  7  1  0
  7  8  1  0
  8  4  1  0
  1  9  1  0
  1 10  1  0
  1 11  1  0
  3 12  1  0
  3 13  1  0
  4 14  1  0
  5 15  1  0
  6 16  1  0
  7 17  1  0
  7 18  1  0
  8 19  1  0
  8 20  1  0
M  END
