
     RDKit          3D

 19 18  0  0  0  0  0  0  0  0999 V2000
    2.4008   -0.8498    0.6673 C   0  0  0  0  0  0  0  0  0  0  0  0
    1.1583   -0.2401    0.7068 O   0  0  0  0  0  0  0  0  0  0  0  0
    0.5298   -0.2278   -0.5298 C   0  0  0  0  0  0  0  0  0  0  0  0
   -0.8090    0.4536   -0.3834 C   0  0  0  0  0  0  0  0  0  0  0  0
   -1.4185    0.4530   -1.6358 O   0  0  0  0  0  0  0  0  0  0  0  0
   -0.6576    1.8624    0.0567 C   0  0  0  0  0  0  0  0  0  0  0  0
   -0.1459    2.1541    1.1351 O   0  0  0  0  0  0  0  0  0  0  0  0
   -1.6475   -0.2584    0.6526 C   0  0  0  0  0  0  0  0  0  0  0  0
   -1.8626   -1.5798    0.2995 O   0  0  0  0  0  0  0  0  0  0  0  0
    2.8118   -0.8044    1.7032 H   0  0  0  0  0  0  0  0  0  0  0  0
    2.3474   -1.9215    0.3962 H   0  0  0  0  0  0  0  0  0  0  0  0
    3.1246   -0.3615    0.0070 H   0  0  0  0  0  0  0  0  0  0  0  0
    0.3631   -1.2571   -0.8905 H   0  0  0  0  0  0  0  0  0  0  0  0
    1.1277    0.3082   -1.2979 H   0  0  0  0  0  0  0  0  0  0  0  0
   -1.0557    1.2390   -2.1262 H   0  0  0  0  0  0  0  0  0  0  0  0
   -0.9918    2.6933   -0.5537 H   0  0  0  0  0  0  0  0  0  0  0  0
   -1.0890   -0.2016    1.6125 H   0  0  0  0  0  0  0  0  0  0  0  0
   -2.5926    0.3072    0.8021 H   0  0  0  0  0  0  0  0  0  0  0  0
   -1.5934   -1.7688   -0.6218 H   0  0  0  0  0  0  0  0  0  0  0  0
  1  2  1  0
  2  3  1  0
  3  4  1  0
  4  5  1  0
  4  6  1  0
  6  7  2  0
  4  8  1  0
  8  9  1  0
  1 10  1  0
  1 11  1  0
  1 12  1  0
  3 13  1  0
  3 14  1  0
  5 15  1  0
  6 16  1  0
  8 17  1  0
  8 18  1  0
  9 19  1  0
M  END
