
     RDKit          3D

 19 19  0  0  0  0  0  0  0  0999 V2000
    2.8119    0.4789    0.4262 C   0  0  0  0  0  0  0  0  0  0  0  0
    2.1361   -0.5807    0.9662 O   0  0  0  0  0  0  0  0  0  0  0  0
    0.7586   -0.5248    0.8962 C   0  0  0  0  0  0  0  0  0  0  0  0
    0.3111   -0.4654   -0.5203 C   0  0  0  0  0  0  0  0  0  0  0  0
   -1.1881   -0.4155   -0.6738 C   0  0  0  0  0  0  0  0  0  0  0  0
   -1.8887    0.7302   -0.0483 C   0  0  0  0  0  0  0  0  0  0  0  0
   -2.9672   -0.3077    0.0978 C   0  0  0  0  0  0  0  0  0  0  0  0
   -4.2061   -0.2716    0.1296 O   0  0  0  0  0  0  0  0  0  0  0  0
   -1.9249   -1.2523    0.1723 O   0  0  0  0  0  0  0  0  0  0  0  0
    2.6599    0.6637   -0.6479 H   0  0  0  0  0  0  0  0  0  0  0  0
    2.5795    1.4456    0.9487 H   0  0  0  0  0  0  0  0  0  0  0  0
    3.8962    0.3070    0.6108 H   0  0  0  0  0  0  0  0  0  0  0  0
    0.4675    0.4266    1.4335 H   0  0  0  0  0  0  0  0  0  0  0  0
    0.3280   -1.4000    1.4304 H   0  0  0  0  0  0  0  0  0  0  0  0
    0.7194    0.4335   -1.0287 H   0  0  0  0  0  0  0  0  0  0  0  0
    0.6939   -1.3467   -1.0735 H   0  0  0  0  0  0  0  0  0  0  0  0
   -1.4641   -0.5535   -1.7238 H   0  0  0  0  0  0  0  0  0  0  0  0
   -1.5596    1.0486    0.9516 H   0  0  0  0  0  0  0  0  0  0  0  0
   -2.1637    1.5844   -0.6846 H   0  0  0  0  0  0  0  0  0  0  0  0
  1  2  1  0
  2  3  1  0
  3  4  1  0
  4  5  1  0
  5  6  1  0
  6  7  1  0
  7  8  2  0
  7  9  1  0
  9  5  1  0
  1 10  1  0
  1 11  1  0
  1 12  1  0
  3 13  1  0
  3 14  1  0
  4 15  1  0
  4 16  1  0
  5 17  1  0
  6 18  1  0
  6 19  1  0
M  END
