
     RDKit          3D

 17 17  0  0  0  0  0  0  0  0999 V2000
   -2.7038    0.2855   -0.0629 C   0  0  0  0  0  0  0  0  0  0  0  0
   -2.0389   -0.9151   -0.2619 O   0  0  0  0  0  0  0  0  0  0  0  0
   -0.8056   -0.7447   -0.8799 C   0  0  0  0  0  0  0  0  0  0  0  0
    0.1267    0.1189   -0.0895 C   0  0  0  0  0  0  0  0  0  0  0  0
    0.4875   -0.2778    1.1924 O   0  0  0  0  0  0  0  0  0  0  0  0
    1.4808   -0.4393    0.1991 C   0  0  0  0  0  0  0  0  0  0  0  0
    2.6765    0.4691    0.2374 C   0  0  0  0  0  0  0  0  0  0  0  0
   -3.6671    0.0396    0.4315 H   0  0  0  0  0  0  0  0  0  0  0  0
   -2.1695    0.9928    0.5702 H   0  0  0  0  0  0  0  0  0  0  0  0
   -2.9782    0.7841   -1.0366 H   0  0  0  0  0  0  0  0  0  0  0  0
   -0.8957   -0.3199   -1.8980 H   0  0  0  0  0  0  0  0  0  0  0  0
   -0.3654   -1.7557   -1.0050 H   0  0  0  0  0  0  0  0  0  0  0  0
    0.0969    1.2305   -0.2658 H   0  0  0  0  0  0  0  0  0  0  0  0
    1.6792   -1.5068   -0.0450 H   0  0  0  0  0  0  0  0  0  0  0  0
    3.5843   -0.1588    0.3762 H   0  0  0  0  0  0  0  0  0  0  0  0
    2.8331    1.0072   -0.7301 H   0  0  0  0  0  0  0  0  0  0  0  0
    2.6593    1.1904    1.0781 H   0  0  0  0  0  0  0  0  0  0  0  0
  1  2  1  0
  2  3  1  0
  3  4  1  0
  4  5  1  0
  5  6  1  0
  6  7  1  0
  6  4  1  0
  1  8  1  0
  1  9  1  0
  1 10  1  0
  3 11  1  0
  3 12  1  0
  4 13  1  0
  6 14  1  0
  7 15  1  0
  7 16  1  0
  7 17  1  0
M  END
