
     RDKit          3D

 23 23  0  0  0  0  0  0  0  0999 V2000
    3.8390    0.4129    0.6111 C   0  0  0  0  0  0  0  0  0  0  0  0
    2.9719   -0.5243    0.0358 O   0  0  0  0  0  0  0  0  0  0  0  0
    1.6909    0.0122    0.1334 C   0  0  0  0  0  0  0  0  0  0  0  0
    0.6565   -0.9328   -0.4674 C   0  0  0  0  0  0  0  0  0  0  0  0
   -0.7065   -0.3447   -0.3550 C   0  0  0  0  0  0  0  0  0  0  0  0
   -0.9807    0.8323    0.1897 C   0  0  0  0  0  0  0  0  0  0  0  0
   -2.4424    1.0560    0.1090 C   0  0  0  0  0  0  0  0  0  0  0  0
   -2.9696   -0.3619    0.1184 C   0  0  0  0  0  0  0  0  0  0  0  0
   -1.9529   -1.0055   -0.8383 C   0  0  0  0  0  0  0  0  0  0  0  0
    3.4952    0.5264    1.6758 H   0  0  0  0  0  0  0  0  0  0  0  0
    4.8921    0.1352    0.5253 H   0  0  0  0  0  0  0  0  0  0  0  0
    3.5988    1.3940    0.1343 H   0  0  0  0  0  0  0  0  0  0  0  0
    1.6286    0.9814   -0.3979 H   0  0  0  0  0  0  0  0  0  0  0  0
    1.4806    0.2115    1.2032 H   0  0  0  0  0  0  0  0  0  0  0  0
    0.8824   -1.0623   -1.5433 H   0  0  0  0  0  0  0  0  0  0  0  0
    0.7201   -1.9365   -0.0097 H   0  0  0  0  0  0  0  0  0  0  0  0
   -0.2386    1.5006    0.6163 H   0  0  0  0  0  0  0  0  0  0  0  0
   -2.7407    1.4840   -0.8902 H   0  0  0  0  0  0  0  0  0  0  0  0
   -2.8346    1.6591    0.9476 H   0  0  0  0  0  0  0  0  0  0  0  0
   -2.8424   -0.8696    1.0779 H   0  0  0  0  0  0  0  0  0  0  0  0
   -3.9940   -0.4216   -0.2892 H   0  0  0  0  0  0  0  0  0  0  0  0
   -1.9385   -2.0908   -0.7284 H   0  0  0  0  0  0  0  0  0  0  0  0
   -2.2152   -0.6559   -1.8581 H   0  0  0  0  0  0  0  0  0  0  0  0
  1  2  1  0
  2  3  1  0
  3  4  1  0
  4  5  1  0
  5  6  2  0
  6  7  1  0
  7  8  1  0
  8  9  1  0
  9  5  1  0
  1 10  1  0
  1 11  1  0
  1 12  1  0
  3 13  1  0
  3 14  1  0
  4 15  1  0
  4 16  1  0
  6 17  1  0
  7 18  1  0
  7 19  1  0
  8 20  1  0
  8 21  1  0
  9 22  1  0
  9 23  1  0
M  END
