
     RDKit          3D

 19 19  0  0  0  0  0  0  0  0999 V2000
    2.7124   -0.5315    0.3054 C   0  0  0  0  0  0  0  0  0  0  0  0
    2.0188   -0.6801   -0.8079 O   0  0  0  0  0  0  0  0  0  0  0  0
    0.8659   -0.1655   -1.1628 C   0  0  0  0  0  0  0  0  0  0  0  0
   -0.3277   -0.4233   -0.3492 C   0  0  0  0  0  0  0  0  0  0  0  0
   -0.3786    0.0522    1.0356 C   0  0  0  0  0  0  0  0  0  0  0  0
   -1.5950    0.5555    1.3548 C   0  0  0  0  0  0  0  0  0  0  0  0
   -2.4642    0.4463    0.1663 C   0  0  0  0  0  0  0  0  0  0  0  0
   -1.5393    0.2413   -0.9725 C   0  0  0  0  0  0  0  0  0  0  0  0
   -1.6203    0.4958   -2.1361 O   0  0  0  0  0  0  0  0  0  0  0  0
    2.2591   -0.9112    1.2346 H   0  0  0  0  0  0  0  0  0  0  0  0
    3.6935   -1.1084    0.1880 H   0  0  0  0  0  0  0  0  0  0  0  0
    3.0885    0.5207    0.4626 H   0  0  0  0  0  0  0  0  0  0  0  0
    0.9064    0.9826   -1.3162 H   0  0  0  0  0  0  0  0  0  0  0  0
    0.6289   -0.5509   -2.2300 H   0  0  0  0  0  0  0  0  0  0  0  0
   -0.5741   -1.5344   -0.2791 H   0  0  0  0  0  0  0  0  0  0  0  0
    0.3997    0.0645    1.8303 H   0  0  0  0  0  0  0  0  0  0  0  0
   -1.8622    0.9712    2.3467 H   0  0  0  0  0  0  0  0  0  0  0  0
   -3.0069    1.4228    0.0757 H   0  0  0  0  0  0  0  0  0  0  0  0
   -3.2048   -0.3884    0.2537 H   0  0  0  0  0  0  0  0  0  0  0  0
  1  2  1  0
  2  3  1  0
  3  4  1  0
  4  5  1  0
  5  6  2  0
  6  7  1  0
  7  8  1  0
  8  9  2  0
  8  4  1  0
  1 10  1  0
  1 11  1  0
  1 12  1  0
  3 13  1  0
  3 14  1  0
  4 15  1  0
  5 16  1  0
  6 17  1  0
  7 18  1  0
  7 19  1  0
M  END
