
     RDKit          3D

 21 20  0  0  0  0  0  0  0  0999 V2000
    2.9655   -0.4016    0.1137 C   0  0  0  0  0  0  0  0  0  0  0  0
    1.9205    0.2972   -0.4872 O   0  0  0  0  0  0  0  0  0  0  0  0
    0.7316   -0.2732   -0.0175 C   0  0  0  0  0  0  0  0  0  0  0  0
   -0.4778    0.4192   -0.6146 C   0  0  0  0  0  0  0  0  0  0  0  0
   -0.4034    1.8748   -0.2004 C   0  0  0  0  0  0  0  0  0  0  0  0
   -1.7153   -0.1792   -0.0033 C   0  0  0  0  0  0  0  0  0  0  0  0
   -1.6699    0.0205    1.3738 O   0  0  0  0  0  0  0  0  0  0  0  0
   -1.8821   -1.6064   -0.3353 C   0  0  0  0  0  0  0  0  0  0  0  0
   -1.9580   -2.4101    0.5678 O   0  0  0  0  0  0  0  0  0  0  0  0
    2.9364   -0.3359    1.2222 H   0  0  0  0  0  0  0  0  0  0  0  0
    2.8414   -1.4886   -0.1474 H   0  0  0  0  0  0  0  0  0  0  0  0
    3.9525   -0.0303   -0.2003 H   0  0  0  0  0  0  0  0  0  0  0  0
    0.7730   -1.3495   -0.2793 H   0  0  0  0  0  0  0  0  0  0  0  0
    0.7170   -0.1010    1.0876 H   0  0  0  0  0  0  0  0  0  0  0  0
   -0.4766    0.3085   -1.7164 H   0  0  0  0  0  0  0  0  0  0  0  0
   -1.2143    2.1442    0.5078 H   0  0  0  0  0  0  0  0  0  0  0  0
    0.5563    2.1221    0.2992 H   0  0  0  0  0  0  0  0  0  0  0  0
   -0.4831    2.5060   -1.1133 H   0  0  0  0  0  0  0  0  0  0  0  0
   -2.5922    0.3587   -0.4575 H   0  0  0  0  0  0  0  0  0  0  0  0
   -2.5878    0.0361    1.7665 H   0  0  0  0  0  0  0  0  0  0  0  0
   -1.9336   -1.9115   -1.3662 H   0  0  0  0  0  0  0  0  0  0  0  0
  1  2  1  0
  2  3  1  0
  3  4  1  0
  4  5  1  0
  4  6  1  0
  6  7  1  0
  6  8  1  0
  8  9  2  0
  1 10  1  0
  1 11  1  0
  1 12  1  0
  3 13  1  0
  3 14  1  0
  4 15  1  0
  5 16  1  0
  5 17  1  0
  5 18  1  0
  6 19  1  0
  7 20  1  0
  8 21  1  0
M  END
