
     RDKit          3D

 22 22  0  0  0  0  0  0  0  0999 V2000
    3.5592   -0.0611   -0.2581 C   0  0  0  0  0  0  0  0  0  0  0  0
    2.3285   -0.4829   -0.7373 O   0  0  0  0  0  0  0  0  0  0  0  0
    1.2624    0.0754   -0.0307 C   0  0  0  0  0  0  0  0  0  0  0  0
   -0.0019   -0.4769   -0.6672 C   0  0  0  0  0  0  0  0  0  0  0  0
   -1.2512    0.0251   -0.0250 C   0  0  0  0  0  0  0  0  0  0  0  0
   -1.4777    1.5347   -0.0416 C   0  0  0  0  0  0  0  0  0  0  0  0
   -1.8923   -0.8096    1.0140 C   0  0  0  0  0  0  0  0  0  0  0  0
   -2.5024   -0.7606   -0.3496 C   0  0  0  0  0  0  0  0  0  0  0  0
    3.7404   -0.3141    0.7908 H   0  0  0  0  0  0  0  0  0  0  0  0
    4.3320   -0.5511   -0.8856 H   0  0  0  0  0  0  0  0  0  0  0  0
    3.6178    1.0393   -0.3917 H   0  0  0  0  0  0  0  0  0  0  0  0
    1.2876    1.1825   -0.0326 H   0  0  0  0  0  0  0  0  0  0  0  0
    1.3695   -0.2789    1.0155 H   0  0  0  0  0  0  0  0  0  0  0  0
   -0.0454   -0.2804   -1.7457 H   0  0  0  0  0  0  0  0  0  0  0  0
    0.0323   -1.5816   -0.5233 H   0  0  0  0  0  0  0  0  0  0  0  0
   -1.1311    1.9020   -1.0110 H   0  0  0  0  0  0  0  0  0  0  0  0
   -2.5486    1.7745    0.0745 H   0  0  0  0  0  0  0  0  0  0  0  0
   -0.9368    2.0212    0.8196 H   0  0  0  0  0  0  0  0  0  0  0  0
   -2.4708   -0.3246    1.8312 H   0  0  0  0  0  0  0  0  0  0  0  0
   -1.3897   -1.7693    1.2713 H   0  0  0  0  0  0  0  0  0  0  0  0
   -3.4643   -0.2250   -0.4868 H   0  0  0  0  0  0  0  0  0  0  0  0
   -2.4175   -1.6385   -1.0329 H   0  0  0  0  0  0  0  0  0  0  0  0
  1  2  1  0
  2  3  1  0
  3  4  1  0
  4  5  1  0
  5  6  1  0
  5  7  1  0
  7  8  1  0
  8  5  1  0
  1  9  1  0
  1 10  1  0
  1 11  1  0
  3 12  1  0
  3 13  1  0
  4 14  1  0
  4 15  1  0
  6 16  1  0
  6 17  1  0
  6 18  1  0
  7 19  1  0
  7 20  1  0
  8 21  1  0
  8 22  1  0
M  END
