
     RDKit          3D

 23 24  0  0  0  0  0  0  0  0999 V2000
    2.3109    0.2666    1.9241 C   0  0  0  0  0  0  0  0  0  0  0  0
    1.2129    0.3290    1.0753 O   0  0  0  0  0  0  0  0  0  0  0  0
    1.4065   -0.4785   -0.0593 C   0  0  0  0  0  0  0  0  0  0  0  0
    0.2210   -0.4161   -0.9841 C   0  0  0  0  0  0  0  0  0  0  0  0
   -0.1096    0.9387   -1.5181 C   0  0  0  0  0  0  0  0  0  0  0  0
   -1.5297    0.8540   -1.0437 C   0  0  0  0  0  0  0  0  0  0  0  0
   -2.3233   -0.3857   -1.1747 C   0  0  0  0  0  0  0  0  0  0  0  0
   -1.1246   -0.4505   -0.3097 C   0  0  0  0  0  0  0  0  0  0  0  0
   -1.2301   -0.4161    1.1834 C   0  0  0  0  0  0  0  0  0  0  0  0
    2.4938   -0.7841    2.2786 H   0  0  0  0  0  0  0  0  0  0  0  0
    2.0870    0.8461    2.8391 H   0  0  0  0  0  0  0  0  0  0  0  0
    3.2527    0.5835    1.4324 H   0  0  0  0  0  0  0  0  0  0  0  0
    1.6825   -1.5164    0.2067 H   0  0  0  0  0  0  0  0  0  0  0  0
    2.2763   -0.0362   -0.6024 H   0  0  0  0  0  0  0  0  0  0  0  0
    0.2789   -1.2338   -1.7338 H   0  0  0  0  0  0  0  0  0  0  0  0
   -0.0011    1.0713   -2.6148 H   0  0  0  0  0  0  0  0  0  0  0  0
    0.4714    1.7254   -0.9928 H   0  0  0  0  0  0  0  0  0  0  0  0
   -1.9143    1.6700   -0.4205 H   0  0  0  0  0  0  0  0  0  0  0  0
   -2.2881   -1.0111   -2.0953 H   0  0  0  0  0  0  0  0  0  0  0  0
   -3.2940   -0.4035   -0.6773 H   0  0  0  0  0  0  0  0  0  0  0  0
   -0.5266   -1.1281    1.6596 H   0  0  0  0  0  0  0  0  0  0  0  0
   -1.0594    0.6308    1.5324 H   0  0  0  0  0  0  0  0  0  0  0  0
   -2.2930   -0.6555    1.4445 H   0  0  0  0  0  0  0  0  0  0  0  0
  1  2  1  0
  2  3  1  0
  3  4  1  0
  4  5  1  0
  5  6  1  0
  6  7  1  0
  7  8  1  0
  8  9  1  0
  8  4  1  0
  8  6  1  0
  1 10  1  0
  1 11  1  0
  1 12  1  0
  3 13  1  0
  3 14  1  0
  4 15  1  0
  5 16  1  0
  5 17  1  0
  6 18  1  0
  7 19  1  0
  7 20  1  0
  9 21  1  0
  9 22  1  0
  9 23  1  0
M  END
