
     RDKit          3D

 25 24  0  0  0  0  0  0  0  0999 V2000
    4.1605   -0.0959   -0.1045 C   0  0  0  0  0  0  0  0  0  0  0  0
    3.3311    0.6853    0.6521 O   0  0  0  0  0  0  0  0  0  0  0  0
    2.0631    0.2104    0.8215 C   0  0  0  0  0  0  0  0  0  0  0  0
    1.3002    0.0257   -0.4623 C   0  0  0  0  0  0  0  0  0  0  0  0
    0.0318   -0.4496   -0.2893 O   0  0  0  0  0  0  0  0  0  0  0  0
   -0.7962    0.3319    0.4685 C   0  0  0  0  0  0  0  0  0  0  0  0
   -2.1549   -0.3796    0.5343 C   0  0  0  0  0  0  0  0  0  0  0  0
   -2.7305   -0.5540   -0.8542 C   0  0  0  0  0  0  0  0  0  0  0  0
   -3.0931    0.4271    1.4105 C   0  0  0  0  0  0  0  0  0  0  0  0
    4.3133   -1.1209    0.3103 H   0  0  0  0  0  0  0  0  0  0  0  0
    5.1755    0.3802   -0.0876 H   0  0  0  0  0  0  0  0  0  0  0  0
    3.8778   -0.1282   -1.1834 H   0  0  0  0  0  0  0  0  0  0  0  0
    2.0130   -0.7639    1.3657 H   0  0  0  0  0  0  0  0  0  0  0  0
    1.5072    0.9334    1.4594 H   0  0  0  0  0  0  0  0  0  0  0  0
    1.8651   -0.7201   -1.0672 H   0  0  0  0  0  0  0  0  0  0  0  0
    1.2300    0.9782   -1.0451 H   0  0  0  0  0  0  0  0  0  0  0  0
   -0.4732    0.4465    1.5170 H   0  0  0  0  0  0  0  0  0  0  0  0
   -1.0443    1.3202   -0.0082 H   0  0  0  0  0  0  0  0  0  0  0  0
   -1.9669   -1.3872    0.9497 H   0  0  0  0  0  0  0  0  0  0  0  0
   -3.4404   -1.4255   -0.8533 H   0  0  0  0  0  0  0  0  0  0  0  0
   -1.9396   -0.8171   -1.5770 H   0  0  0  0  0  0  0  0  0  0  0  0
   -3.3105    0.3436   -1.1397 H   0  0  0  0  0  0  0  0  0  0  0  0
   -4.1323    0.1858    1.1169 H   0  0  0  0  0  0  0  0  0  0  0  0
   -2.8927    0.0770    2.4635 H   0  0  0  0  0  0  0  0  0  0  0  0
   -2.8940    1.4967    1.2890 H   0  0  0  0  0  0  0  0  0  0  0  0
  1  2  1  0
  2  3  1  0
  3  4  1  0
  4  5  1  0
  5  6  1  0
  6  7  1  0
  7  8  1  0
  7  9  1  0
  1 10  1  0
  1 11  1  0
  1 12  1  0
  3 13  1  0
  3 14  1  0
  4 15  1  0
  4 16  1  0
  6 17  1  0
  6 18  1  0
  7 19  1  0
  8 20  1  0
  8 21  1  0
  8 22  1  0
  9 23  1  0
  9 24  1  0
  9 25  1  0
M  END
