
     RDKit          3D

 18 17  0  0  0  0  0  0  0  0999 V2000
    2.0827    1.0146   -1.4956 C   0  0  0  0  0  0  0  0  0  0  0  0
    2.5887    0.8592   -0.2100 O   0  0  0  0  0  0  0  0  0  0  0  0
    2.3520   -0.4387    0.2756 C   0  0  0  0  0  0  0  0  0  0  0  0
    0.9056   -0.6956    0.3077 C   0  0  0  0  0  0  0  0  0  0  0  0
   -0.2947   -0.9106    0.3139 C   0  0  0  0  0  0  0  0  0  0  0  0
   -1.7397   -1.1459    0.3105 C   0  0  0  0  0  0  0  0  0  0  0  0
   -2.4615    0.1655    0.5814 C   0  0  0  0  0  0  0  0  0  0  0  0
   -2.1722    1.1257   -0.3811 O   0  0  0  0  0  0  0  0  0  0  0  0
    0.9773    0.8397   -1.5269 H   0  0  0  0  0  0  0  0  0  0  0  0
    2.5162    0.2348   -2.1817 H   0  0  0  0  0  0  0  0  0  0  0  0
    2.3637    2.0255   -1.8460 H   0  0  0  0  0  0  0  0  0  0  0  0
    2.8049   -0.5133    1.2836 H   0  0  0  0  0  0  0  0  0  0  0  0
    2.8012   -1.2057   -0.3528 H   0  0  0  0  0  0  0  0  0  0  0  0
   -2.0540   -1.5987   -0.6386 H   0  0  0  0  0  0  0  0  0  0  0  0
   -2.0498   -1.8394    1.1255 H   0  0  0  0  0  0  0  0  0  0  0  0
   -2.0306    0.5660    1.5447 H   0  0  0  0  0  0  0  0  0  0  0  0
   -3.5285    0.0205    0.7475 H   0  0  0  0  0  0  0  0  0  0  0  0
   -3.0614    1.4964   -0.6722 H   0  0  0  0  0  0  0  0  0  0  0  0
  1  2  1  0
  2  3  1  0
  3  4  1  0
  4  5  3  0
  5  6  1  0
  6  7  1  0
  7  8  1  0
  1  9  1  0
  1 10  1  0
  1 11  1  0
  3 12  1  0
  3 13  1  0
  6 14  1  0
  6 15  1  0
  7 16  1  0
  7 17  1  0
  8 18  1  0
M  END
