
     RDKit          3D

 23 23  0  0  0  0  0  0  0  0999 V2000
    3.4738   -0.4797   -0.7210 C   0  0  0  0  0  0  0  0  0  0  0  0
    2.8889    0.6603   -0.2419 O   0  0  0  0  0  0  0  0  0  0  0  0
    1.7932    0.4697    0.5503 C   0  0  0  0  0  0  0  0  0  0  0  0
    0.6574   -0.2586   -0.1429 C   0  0  0  0  0  0  0  0  0  0  0  0
   -0.4626   -0.3764    0.8865 C   0  0  0  0  0  0  0  0  0  0  0  0
   -0.9545    0.9496    1.3838 C   0  0  0  0  0  0  0  0  0  0  0  0
   -1.8383    0.0379    0.5541 C   0  0  0  0  0  0  0  0  0  0  0  0
   -2.0866    0.3683   -0.7567 O   0  0  0  0  0  0  0  0  0  0  0  0
   -3.3406   -0.0716   -1.1107 C   0  0  0  0  0  0  0  0  0  0  0  0
    3.8355   -1.1641    0.0900 H   0  0  0  0  0  0  0  0  0  0  0  0
    4.3855   -0.1720   -1.2958 H   0  0  0  0  0  0  0  0  0  0  0  0
    2.8573   -1.0788   -1.3953 H   0  0  0  0  0  0  0  0  0  0  0  0
    1.3937    1.4680    0.8341 H   0  0  0  0  0  0  0  0  0  0  0  0
    1.9914   -0.0699    1.4905 H   0  0  0  0  0  0  0  0  0  0  0  0
    0.3202    0.2668   -1.0430 H   0  0  0  0  0  0  0  0  0  0  0  0
    0.9245   -1.2852   -0.4261 H   0  0  0  0  0  0  0  0  0  0  0  0
   -0.2735   -1.1906    1.6292 H   0  0  0  0  0  0  0  0  0  0  0  0
   -0.6018    1.8921    0.9004 H   0  0  0  0  0  0  0  0  0  0  0  0
   -1.1885    1.0903    2.4551 H   0  0  0  0  0  0  0  0  0  0  0  0
   -2.6425   -0.5068    1.1072 H   0  0  0  0  0  0  0  0  0  0  0  0
   -3.4763   -1.1706   -1.0179 H   0  0  0  0  0  0  0  0  0  0  0  0
   -3.4965    0.1791   -2.1872 H   0  0  0  0  0  0  0  0  0  0  0  0
   -4.1598    0.4422   -0.5497 H   0  0  0  0  0  0  0  0  0  0  0  0
  1  2  1  0
  2  3  1  0
  3  4  1  0
  4  5  1  0
  5  6  1  0
  6  7  1  0
  7  8  1  0
  8  9  1  0
  7  5  1  0
  1 10  1  0
  1 11  1  0
  1 12  1  0
  3 13  1  0
  3 14  1  0
  4 15  1  0
  4 16  1  0
  5 17  1  0
  6 18  1  0
  6 19  1  0
  7 20  1  0
  9 21  1  0
  9 22  1  0
  9 23  1  0
M  END
