
     RDKit          3D

 21 21  0  0  0  0  0  0  0  0999 V2000
    2.5781   -0.3222   -0.0675 C   0  0  0  0  0  0  0  0  0  0  0  0
    1.6228   -0.5100   -0.9367 O   0  0  0  0  0  0  0  0  0  0  0  0
    0.4363   -0.0168   -1.1124 C   0  0  0  0  0  0  0  0  0  0  0  0
   -0.5784   -0.1673   -0.0461 C   0  0  0  0  0  0  0  0  0  0  0  0
   -0.2928    0.4667    1.2599 C   0  0  0  0  0  0  0  0  0  0  0  0
   -0.1306    1.8514    1.0108 O   0  0  0  0  0  0  0  0  0  0  0  0
   -2.0259   -0.0030   -0.5105 C   0  0  0  0  0  0  0  0  0  0  0  0
   -2.2872   -1.2539    0.0470 O   0  0  0  0  0  0  0  0  0  0  0  0
   -0.9536   -1.6663    0.0645 C   0  0  0  0  0  0  0  0  0  0  0  0
    3.4907   -0.9588   -0.4189 H   0  0  0  0  0  0  0  0  0  0  0  0
    2.9869    0.6861    0.0260 H   0  0  0  0  0  0  0  0  0  0  0  0
    2.3879   -0.7475    0.9752 H   0  0  0  0  0  0  0  0  0  0  0  0
   -0.0066   -0.5308   -2.0596 H   0  0  0  0  0  0  0  0  0  0  0  0
    0.4171    1.0746   -1.4741 H   0  0  0  0  0  0  0  0  0  0  0  0
   -1.1794    0.3871    1.9622 H   0  0  0  0  0  0  0  0  0  0  0  0
    0.5562    0.0802    1.7767 H   0  0  0  0  0  0  0  0  0  0  0  0
   -1.0259    2.2384    0.9705 H   0  0  0  0  0  0  0  0  0  0  0  0
   -2.0561    0.0453   -1.6149 H   0  0  0  0  0  0  0  0  0  0  0  0
   -2.5865    0.7838    0.0074 H   0  0  0  0  0  0  0  0  0  0  0  0
   -0.6076   -2.1059    1.0041 H   0  0  0  0  0  0  0  0  0  0  0  0
   -0.7452   -2.2330   -0.8636 H   0  0  0  0  0  0  0  0  0  0  0  0
  1  2  1  0
  2  3  1  0
  3  4  1  0
  4  5  1  0
  5  6  1  0
  4  7  1  0
  7  8  1  0
  8  9  1  0
  9  4  1  0
  1 10  1  0
  1 11  1  0
  1 12  1  0
  3 13  1  0
  3 14  1  0
  5 15  1  0
  5 16  1  0
  6 17  1  0
  7 18  1  0
  7 19  1  0
  9 20  1  0
  9 21  1  0
M  END
