
     RDKit          3D

 21 21  0  0  0  0  0  0  0  0999 V2000
    2.3568   -0.2342    1.1488 C   0  0  0  0  0  0  0  0  0  0  0  0
    1.2378    0.0681    0.3768 O   0  0  0  0  0  0  0  0  0  0  0  0
    0.9875   -0.8606   -0.5997 C   0  0  0  0  0  0  0  0  0  0  0  0
   -0.2119   -0.4850   -1.3854 C   0  0  0  0  0  0  0  0  0  0  0  0
   -1.5656   -0.3096   -0.8663 C   0  0  0  0  0  0  0  0  0  0  0  0
   -1.8841   -0.4192    0.6069 C   0  0  0  0  0  0  0  0  0  0  0  0
   -0.7655    0.8604   -1.3602 C   0  0  0  0  0  0  0  0  0  0  0  0
   -0.5281    1.8863   -0.3277 C   0  0  0  0  0  0  0  0  0  0  0  0
   -0.4887    3.0868   -0.5413 O   0  0  0  0  0  0  0  0  0  0  0  0
    2.1708   -1.2119    1.6279 H   0  0  0  0  0  0  0  0  0  0  0  0
    3.2978   -0.2112    0.5532 H   0  0  0  0  0  0  0  0  0  0  0  0
    2.4173    0.5497    1.9329 H   0  0  0  0  0  0  0  0  0  0  0  0
    1.9182   -0.9235   -1.2401 H   0  0  0  0  0  0  0  0  0  0  0  0
    0.9002   -1.8455   -0.0876 H   0  0  0  0  0  0  0  0  0  0  0  0
   -0.1815   -0.9717   -2.4242 H   0  0  0  0  0  0  0  0  0  0  0  0
   -2.4416   -0.5459   -1.5066 H   0  0  0  0  0  0  0  0  0  0  0  0
   -2.5331    0.4144    0.9607 H   0  0  0  0  0  0  0  0  0  0  0  0
   -0.9608   -0.3632    1.2212 H   0  0  0  0  0  0  0  0  0  0  0  0
   -2.3768   -1.3875    0.7845 H   0  0  0  0  0  0  0  0  0  0  0  0
   -0.9705    1.3238   -2.3592 H   0  0  0  0  0  0  0  0  0  0  0  0
   -0.3784    1.5795    0.6919 H   0  0  0  0  0  0  0  0  0  0  0  0
  1  2  1  0
  2  3  1  0
  3  4  1  0
  4  5  1  0
  5  6  1  0
  5  7  1  0
  7  8  1  0
  8  9  2  0
  7  4  1  0
  1 10  1  0
  1 11  1  0
  1 12  1  0
  3 13  1  0
  3 14  1  0
  4 15  1  0
  5 16  1  0
  6 17  1  0
  6 18  1  0
  6 19  1  0
  7 20  1  0
  8 21  1  0
M  END
