
     RDKit          3D

 18 19  0  0  0  0  0  0  0  0999 V2000
   -2.6276    0.6394    0.5760 C   0  0  0  0  0  0  0  0  0  0  0  0
   -1.3164    0.9129    0.2246 O   0  0  0  0  0  0  0  0  0  0  0  0
   -0.6720   -0.3022   -0.0469 C   0  0  0  0  0  0  0  0  0  0  0  0
    0.7630   -0.0768   -0.4371 C   0  0  0  0  0  0  0  0  0  0  0  0
    1.5582   -1.2969   -0.7517 C   0  0  0  0  0  0  0  0  0  0  0  0
    2.6874   -0.8086   -0.0959 O   0  0  0  0  0  0  0  0  0  0  0  0
    1.8294    0.0680    0.5860 C   0  0  0  0  0  0  0  0  0  0  0  0
    1.3830    1.2354   -0.1986 C   0  0  0  0  0  0  0  0  0  0  0  0
   -3.1577    0.1105   -0.2637 H   0  0  0  0  0  0  0  0  0  0  0  0
   -3.1566    1.5699    0.8391 H   0  0  0  0  0  0  0  0  0  0  0  0
   -2.7090   -0.0348    1.4523 H   0  0  0  0  0  0  0  0  0  0  0  0
   -1.1916   -0.7448   -0.9257 H   0  0  0  0  0  0  0  0  0  0  0  0
   -0.7593   -1.0084    0.8037 H   0  0  0  0  0  0  0  0  0  0  0  0
    1.2000   -2.2067   -0.1879 H   0  0  0  0  0  0  0  0  0  0  0  0
    1.6904   -1.5715   -1.7994 H   0  0  0  0  0  0  0  0  0  0  0  0
    1.6003   -0.0887    1.6346 H   0  0  0  0  0  0  0  0  0  0  0  0
    0.8198    1.9997    0.3655 H   0  0  0  0  0  0  0  0  0  0  0  0
    2.0588    1.6037   -1.0196 H   0  0  0  0  0  0  0  0  0  0  0  0
  1  2  1  0
  2  3  1  0
  3  4  1  0
  4  5  1  0
  5  6  1  0
  6  7  1  0
  7  8  1  0
  7  4  1  0
  8  4  1  0
  1  9  1  0
  1 10  1  0
  1 11  1  0
  3 12  1  0
  3 13  1  0
  5 14  1  0
  5 15  1  0
  7 16  1  0
  8 17  1  0
  8 18  1  0
M  END
