
     RDKit          3D

 19 18  0  0  0  0  0  0  0  0999 V2000
    2.2913    1.0554   -1.0193 C   0  0  0  0  0  0  0  0  0  0  0  0
    1.9776   -0.2722   -1.2598 O   0  0  0  0  0  0  0  0  0  0  0  0
    1.6077   -0.9593   -0.1238 C   0  0  0  0  0  0  0  0  0  0  0  0
    0.4067   -0.4120    0.5625 C   0  0  0  0  0  0  0  0  0  0  0  0
   -0.8074   -0.3961   -0.2862 C   0  0  0  0  0  0  0  0  0  0  0  0
   -0.8031   -0.7968   -1.4331 O   0  0  0  0  0  0  0  0  0  0  0  0
   -2.0535    0.1385    0.3303 C   0  0  0  0  0  0  0  0  0  0  0  0
   -3.1817    0.0935   -0.6294 C   0  0  0  0  0  0  0  0  0  0  0  0
   -2.9753   -0.3468   -1.7407 O   0  0  0  0  0  0  0  0  0  0  0  0
    1.4063    1.5535   -0.6099 H   0  0  0  0  0  0  0  0  0  0  0  0
    2.6330    1.5793   -1.9426 H   0  0  0  0  0  0  0  0  0  0  0  0
    3.1722    1.1263   -0.3132 H   0  0  0  0  0  0  0  0  0  0  0  0
    1.5081   -2.0636   -0.3156 H   0  0  0  0  0  0  0  0  0  0  0  0
    2.4605   -0.9141    0.6188 H   0  0  0  0  0  0  0  0  0  0  0  0
    0.6090    0.5825    0.9405 H   0  0  0  0  0  0  0  0  0  0  0  0
    0.1604   -1.1427    1.3943 H   0  0  0  0  0  0  0  0  0  0  0  0
   -2.3519   -0.4379    1.2405 H   0  0  0  0  0  0  0  0  0  0  0  0
   -1.8963    1.1793    0.6785 H   0  0  0  0  0  0  0  0  0  0  0  0
   -4.1637    0.4331   -0.3782 H   0  0  0  0  0  0  0  0  0  0  0  0
  1  2  1  0
  2  3  1  0
  3  4  1  0
  4  5  1  0
  5  6  2  0
  5  7  1  0
  7  8  1  0
  8  9  2  0
  1 10  1  0
  1 11  1  0
  1 12  1  0
  3 13  1  0
  3 14  1  0
  4 15  1  0
  4 16  1  0
  7 17  1  0
  7 18  1  0
  8 19  1  0
M  END
