
     RDKit          3D

 19 19  0  0  0  0  0  0  0  0999 V2000
    3.0826    0.3236    0.1176 C   0  0  0  0  0  0  0  0  0  0  0  0
    1.7546    0.7060    0.3734 O   0  0  0  0  0  0  0  0  0  0  0  0
    0.9205   -0.3912    0.4820 C   0  0  0  0  0  0  0  0  0  0  0  0
   -0.4764    0.1316    0.7558 C   0  0  0  0  0  0  0  0  0  0  0  0
   -0.9127    1.0001   -0.3518 C   0  0  0  0  0  0  0  0  0  0  0  0
   -2.1743    0.7620   -0.6280 C   0  0  0  0  0  0  0  0  0  0  0  0
   -2.7176   -0.2682    0.2402 C   0  0  0  0  0  0  0  0  0  0  0  0
   -3.9271   -0.5552    0.4791 O   0  0  0  0  0  0  0  0  0  0  0  0
   -1.5000   -0.9454    0.8150 C   0  0  0  0  0  0  0  0  0  0  0  0
    3.7457    1.1999    0.0314 H   0  0  0  0  0  0  0  0  0  0  0  0
    3.4675   -0.2933    0.9661 H   0  0  0  0  0  0  0  0  0  0  0  0
    3.1216   -0.3165   -0.7918 H   0  0  0  0  0  0  0  0  0  0  0  0
    0.8981   -0.9083   -0.4936 H   0  0  0  0  0  0  0  0  0  0  0  0
    1.1875   -1.0631    1.3198 H   0  0  0  0  0  0  0  0  0  0  0  0
   -0.5029    0.7489    1.6820 H   0  0  0  0  0  0  0  0  0  0  0  0
   -0.2764    1.7460   -0.8787 H   0  0  0  0  0  0  0  0  0  0  0  0
   -2.7670    1.2717   -1.4189 H   0  0  0  0  0  0  0  0  0  0  0  0
   -1.2308   -1.8334    0.1993 H   0  0  0  0  0  0  0  0  0  0  0  0
   -1.6929   -1.3154    1.8424 H   0  0  0  0  0  0  0  0  0  0  0  0
  1  2  1  0
  2  3  1  0
  3  4  1  0
  4  5  1  0
  5  6  2  0
  6  7  1  0
  7  8  2  0
  7  9  1  0
  9  4  1  0
  1 10  1  0
  1 11  1  0
  1 12  1  0
  3 13  1  0
  3 14  1  0
  4 15  1  0
  5 16  1  0
  6 17  1  0
  9 18  1  0
  9 19  1  0
M  END
