
     RDKit          3D

 21 21  0  0  0  0  0  0  0  0999 V2000
    2.8856   -0.5877    0.5149 C   0  0  0  0  0  0  0  0  0  0  0  0
    1.4800   -0.5066    0.5771 O   0  0  0  0  0  0  0  0  0  0  0  0
    1.0905    0.4087   -0.3719 C   0  0  0  0  0  0  0  0  0  0  0  0
   -0.3914    0.6172   -0.4394 C   0  0  0  0  0  0  0  0  0  0  0  0
   -0.9783    1.1171    0.8558 C   0  0  0  0  0  0  0  0  0  0  0  0
   -2.4112    0.7431    0.6876 C   0  0  0  0  0  0  0  0  0  0  0  0
   -2.5047   -0.2863   -0.1436 C   0  0  0  0  0  0  0  0  0  0  0  0
   -1.1491   -0.6906   -0.6032 C   0  0  0  0  0  0  0  0  0  0  0  0
   -0.6528   -1.6039    0.3211 O   0  0  0  0  0  0  0  0  0  0  0  0
    3.1721   -0.9228   -0.5177 H   0  0  0  0  0  0  0  0  0  0  0  0
    3.2602   -1.2788    1.2856 H   0  0  0  0  0  0  0  0  0  0  0  0
    3.2827    0.4430    0.6271 H   0  0  0  0  0  0  0  0  0  0  0  0
    1.5612    1.3749   -0.1411 H   0  0  0  0  0  0  0  0  0  0  0  0
    1.4499    0.0713   -1.3542 H   0  0  0  0  0  0  0  0  0  0  0  0
   -0.6214    1.3463   -1.2230 H   0  0  0  0  0  0  0  0  0  0  0  0
   -0.8296    2.2032    0.9559 H   0  0  0  0  0  0  0  0  0  0  0  0
   -0.5873    0.5490    1.7405 H   0  0  0  0  0  0  0  0  0  0  0  0
   -3.2266    1.2549    1.1834 H   0  0  0  0  0  0  0  0  0  0  0  0
   -3.4168   -0.7747   -0.4550 H   0  0  0  0  0  0  0  0  0  0  0  0
   -1.1298   -1.0629   -1.6343 H   0  0  0  0  0  0  0  0  0  0  0  0
   -0.2831   -2.4143   -0.0720 H   0  0  0  0  0  0  0  0  0  0  0  0
  1  2  1  0
  2  3  1  0
  3  4  1  0
  4  5  1  0
  5  6  1  0
  6  7  2  0
  7  8  1  0
  8  9  1  0
  8  4  1  0
  1 10  1  0
  1 11  1  0
  1 12  1  0
  3 13  1  0
  3 14  1  0
  4 15  1  0
  5 16  1  0
  5 17  1  0
  6 18  1  0
  7 19  1  0
  8 20  1  0
  9 21  1  0
M  END
