
     RDKit          3D

 19 18  0  0  0  0  0  0  0  0999 V2000
   -3.8452    0.1254    0.0891 C   0  0  0  0  0  0  0  0  0  0  0  0
   -2.7566    0.9262   -0.2665 O   0  0  0  0  0  0  0  0  0  0  0  0
   -1.6063    0.2095    0.0655 C   0  0  0  0  0  0  0  0  0  0  0  0
   -0.4252    1.0603   -0.3122 C   0  0  0  0  0  0  0  0  0  0  0  0
    0.7911    0.3206    0.0307 C   0  0  0  0  0  0  0  0  0  0  0  0
    1.7954   -0.3150    0.3155 C   0  0  0  0  0  0  0  0  0  0  0  0
    2.9837   -1.0934    0.6679 C   0  0  0  0  0  0  0  0  0  0  0  0
    4.2069   -0.3006    0.3871 C   0  0  0  0  0  0  0  0  0  0  0  0
    4.1416    0.8247   -0.0692 O   0  0  0  0  0  0  0  0  0  0  0  0
   -3.7543   -0.0476    1.1872 H   0  0  0  0  0  0  0  0  0  0  0  0
   -3.8098   -0.8584   -0.4355 H   0  0  0  0  0  0  0  0  0  0  0  0
   -4.7576    0.6996   -0.1673 H   0  0  0  0  0  0  0  0  0  0  0  0
   -1.6235   -0.7187   -0.5396 H   0  0  0  0  0  0  0  0  0  0  0  0
   -1.6267    0.0212    1.1406 H   0  0  0  0  0  0  0  0  0  0  0  0
   -0.4656    1.3436   -1.3725 H   0  0  0  0  0  0  0  0  0  0  0  0
   -0.4184    1.9802    0.3038 H   0  0  0  0  0  0  0  0  0  0  0  0
    2.9267   -1.4243    1.7210 H   0  0  0  0  0  0  0  0  0  0  0  0
    3.0577   -2.0330    0.0584 H   0  0  0  0  0  0  0  0  0  0  0  0
    5.1861   -0.7204    0.5880 H   0  0  0  0  0  0  0  0  0  0  0  0
  1  2  1  0
  2  3  1  0
  3  4  1  0
  4  5  1  0
  5  6  3  0
  6  7  1  0
  7  8  1  0
  8  9  2  0
  1 10  1  0
  1 11  1  0
  1 12  1  0
  3 13  1  0
  3 14  1  0
  4 15  1  0
  4 16  1  0
  7 17  1  0
  7 18  1  0
  8 19  1  0
M  END
