
     RDKit          3D

 19 19  0  0  0  0  0  0  0  0999 V2000
    2.7667    0.3762   -0.8763 C   0  0  0  0  0  0  0  0  0  0  0  0
    2.8897   -0.6284    0.0683 O   0  0  0  0  0  0  0  0  0  0  0  0
    1.9746   -1.6642   -0.1794 C   0  0  0  0  0  0  0  0  0  0  0  0
    0.6247   -1.1057   -0.1209 C   0  0  0  0  0  0  0  0  0  0  0  0
   -0.4973   -0.6389   -0.0510 C   0  0  0  0  0  0  0  0  0  0  0  0
   -1.8466   -0.0701    0.0576 C   0  0  0  0  0  0  0  0  0  0  0  0
   -2.7607   -0.9800    0.6175 O   0  0  0  0  0  0  0  0  0  0  0  0
   -2.2697    1.0280   -0.8006 C   0  0  0  0  0  0  0  0  0  0  0  0
   -1.9861    1.3365    0.6267 C   0  0  0  0  0  0  0  0  0  0  0  0
    1.7711    0.8420   -0.9047 H   0  0  0  0  0  0  0  0  0  0  0  0
    3.5026    1.1583   -0.6402 H   0  0  0  0  0  0  0  0  0  0  0  0
    2.9601   -0.0528   -1.8810 H   0  0  0  0  0  0  0  0  0  0  0  0
    2.1348   -2.4567    0.5788 H   0  0  0  0  0  0  0  0  0  0  0  0
    2.1811   -2.1424   -1.1675 H   0  0  0  0  0  0  0  0  0  0  0  0
   -2.6626   -0.8467    1.6150 H   0  0  0  0  0  0  0  0  0  0  0  0
   -1.5870    1.4034   -1.5776 H   0  0  0  0  0  0  0  0  0  0  0  0
   -3.3494    1.1200   -1.0830 H   0  0  0  0  0  0  0  0  0  0  0  0
   -1.0200    1.7728    0.9476 H   0  0  0  0  0  0  0  0  0  0  0  0
   -2.8260    1.5486    1.3197 H   0  0  0  0  0  0  0  0  0  0  0  0
  1  2  1  0
  2  3  1  0
  3  4  1  0
  4  5  3  0
  5  6  1  0
  6  7  1  0
  6  8  1  0
  8  9  1  0
  9  6  1  0
  1 10  1  0
  1 11  1  0
  1 12  1  0
  3 13  1  0
  3 14  1  0
  7 15  1  0
  8 16  1  0
  8 17  1  0
  9 18  1  0
  9 19  1  0
M  END
