
     RDKit          3D

 21 20  0  0  0  0  0  0  0  0999 V2000
    3.0270   -0.4492    1.0044 C   0  0  0  0  0  0  0  0  0  0  0  0
    1.9146   -0.4495    0.1996 O   0  0  0  0  0  0  0  0  0  0  0  0
    1.2174    0.7520    0.2605 C   0  0  0  0  0  0  0  0  0  0  0  0
    0.0019    0.7678   -0.6112 C   0  0  0  0  0  0  0  0  0  0  0  0
   -1.0027   -0.2848   -0.2708 C   0  0  0  0  0  0  0  0  0  0  0  0
   -1.5312   -0.1955    1.0972 C   0  0  0  0  0  0  0  0  0  0  0  0
   -2.5929   -0.7616    1.3149 O   0  0  0  0  0  0  0  0  0  0  0  0
   -2.1162   -0.2301   -1.3092 C   0  0  0  0  0  0  0  0  0  0  0  0
   -3.0915   -1.1848   -1.0565 O   0  0  0  0  0  0  0  0  0  0  0  0
    3.5411   -1.4239    0.9177 H   0  0  0  0  0  0  0  0  0  0  0  0
    3.6862    0.3942    0.6599 H   0  0  0  0  0  0  0  0  0  0  0  0
    2.8062   -0.2787    2.0748 H   0  0  0  0  0  0  0  0  0  0  0  0
    0.8749    0.8637    1.3129 H   0  0  0  0  0  0  0  0  0  0  0  0
    1.8847    1.5753    0.0003 H   0  0  0  0  0  0  0  0  0  0  0  0
   -0.4923    1.7509   -0.5387 H   0  0  0  0  0  0  0  0  0  0  0  0
    0.2719    0.6332   -1.6852 H   0  0  0  0  0  0  0  0  0  0  0  0
   -0.5178   -1.2844   -0.3748 H   0  0  0  0  0  0  0  0  0  0  0  0
   -1.0574    0.3279    1.9190 H   0  0  0  0  0  0  0  0  0  0  0  0
   -1.6284   -0.5335   -2.2790 H   0  0  0  0  0  0  0  0  0  0  0  0
   -2.5177    0.7881   -1.4265 H   0  0  0  0  0  0  0  0  0  0  0  0
   -2.6780   -2.0651   -1.2096 H   0  0  0  0  0  0  0  0  0  0  0  0
  1  2  1  0
  2  3  1  0
  3  4  1  0
  4  5  1  0
  5  6  1  0
  6  7  2  0
  5  8  1  0
  8  9  1  0
  1 10  1  0
  1 11  1  0
  1 12  1  0
  3 13  1  0
  3 14  1  0
  4 15  1  0
  4 16  1  0
  5 17  1  0
  6 18  1  0
  8 19  1  0
  8 20  1  0
  9 21  1  0
M  END
