
     RDKit          3D

 23 22  0  0  0  0  0  0  0  0999 V2000
    3.2969   -0.1443   -0.1430 C   0  0  0  0  0  0  0  0  0  0  0  0
    2.5970   -0.2703    1.0353 O   0  0  0  0  0  0  0  0  0  0  0  0
    1.2819    0.1713    0.9831 C   0  0  0  0  0  0  0  0  0  0  0  0
    0.4434   -0.5455   -0.0069 C   0  0  0  0  0  0  0  0  0  0  0  0
   -0.9775   -0.0992   -0.0800 C   0  0  0  0  0  0  0  0  0  0  0  0
   -1.1547    1.3543   -0.4492 C   0  0  0  0  0  0  0  0  0  0  0  0
   -0.7391    2.2336    0.5332 O   0  0  0  0  0  0  0  0  0  0  0  0
   -1.6850   -0.4275    1.0517 O   0  0  0  0  0  0  0  0  0  0  0  0
   -2.7086   -1.3335    0.7785 C   0  0  0  0  0  0  0  0  0  0  0  0
    2.9121   -0.6795   -1.0035 H   0  0  0  0  0  0  0  0  0  0  0  0
    4.3328   -0.5375    0.0391 H   0  0  0  0  0  0  0  0  0  0  0  0
    3.4157    0.9448   -0.4011 H   0  0  0  0  0  0  0  0  0  0  0  0
    1.3691    1.2684    0.7254 H   0  0  0  0  0  0  0  0  0  0  0  0
    0.8711    0.1545    2.0060 H   0  0  0  0  0  0  0  0  0  0  0  0
    0.9078   -0.4491   -1.0201 H   0  0  0  0  0  0  0  0  0  0  0  0
    0.4294   -1.6253    0.2704 H   0  0  0  0  0  0  0  0  0  0  0  0
   -1.4353   -0.6716   -0.9436 H   0  0  0  0  0  0  0  0  0  0  0  0
   -0.7078    1.6131   -1.4123 H   0  0  0  0  0  0  0  0  0  0  0  0
   -2.2616    1.5274   -0.5715 H   0  0  0  0  0  0  0  0  0  0  0  0
   -1.3667    2.2308    1.2996 H   0  0  0  0  0  0  0  0  0  0  0  0
   -2.2067   -2.2441    0.3579 H   0  0  0  0  0  0  0  0  0  0  0  0
   -3.3171   -0.8927   -0.0460 H   0  0  0  0  0  0  0  0  0  0  0  0
   -3.2970   -1.5783    1.6595 H   0  0  0  0  0  0  0  0  0  0  0  0
  1  2  1  0
  2  3  1  0
  3  4  1  0
  4  5  1  0
  5  6  1  0
  6  7  1  0
  5  8  1  0
  8  9  1  0
  1 10  1  0
  1 11  1  0
  1 12  1  0
  3 13  1  0
  3 14  1  0
  4 15  1  0
  4 16  1  0
  5 17  1  0
  6 18  1  0
  6 19  1  0
  7 20  1  0
  9 21  1  0
  9 22  1  0
  9 23  1  0
M  END
