
     RDKit          3D

 20 20  0  0  0  0  0  0  0  0999 V2000
    2.4308    1.4474    0.0727 C   0  0  0  0  0  0  0  0  0  0  0  0
    1.3645    0.8488   -0.5970 O   0  0  0  0  0  0  0  0  0  0  0  0
    0.9021   -0.2777    0.1234 C   0  0  0  0  0  0  0  0  0  0  0  0
   -0.2436   -0.8617   -0.6651 C   0  0  0  0  0  0  0  0  0  0  0  0
   -0.7956   -2.0790    0.0460 C   0  0  0  0  0  0  0  0  0  0  0  0
   -1.5844   -1.1880    0.8099 O   0  0  0  0  0  0  0  0  0  0  0  0
   -1.6130   -0.3657   -0.2912 C   0  0  0  0  0  0  0  0  0  0  0  0
   -1.7213    1.1096   -0.0254 C   0  0  0  0  0  0  0  0  0  0  0  0
    3.2753    0.7085    0.1782 H   0  0  0  0  0  0  0  0  0  0  0  0
    2.8241    2.2357   -0.6034 H   0  0  0  0  0  0  0  0  0  0  0  0
    2.1483    1.8873    1.0359 H   0  0  0  0  0  0  0  0  0  0  0  0
    1.7431   -0.9724    0.2582 H   0  0  0  0  0  0  0  0  0  0  0  0
    0.5917    0.0958    1.0979 H   0  0  0  0  0  0  0  0  0  0  0  0
   -0.0838   -1.0042   -1.7288 H   0  0  0  0  0  0  0  0  0  0  0  0
   -0.0552   -2.5785    0.7151 H   0  0  0  0  0  0  0  0  0  0  0  0
   -1.3930   -2.7236   -0.5928 H   0  0  0  0  0  0  0  0  0  0  0  0
   -2.3624   -0.6755   -1.0303 H   0  0  0  0  0  0  0  0  0  0  0  0
   -1.0396    1.4610    0.7582 H   0  0  0  0  0  0  0  0  0  0  0  0
   -2.7748    1.2926    0.3179 H   0  0  0  0  0  0  0  0  0  0  0  0
   -1.6131    1.6397   -0.9912 H   0  0  0  0  0  0  0  0  0  0  0  0
  1  2  1  0
  2  3  1  0
  3  4  1  0
  4  5  1  0
  5  6  1  0
  6  7  1  0
  7  8  1  0
  7  4  1  0
  1  9  1  0
  1 10  1  0
  1 11  1  0
  3 12  1  0
  3 13  1  0
  4 14  1  0
  5 15  1  0
  5 16  1  0
  7 17  1  0
  8 18  1  0
  8 19  1  0
  8 20  1  0
M  END
