
     RDKit          3D

 21 21  0  0  0  0  0  0  0  0999 V2000
    2.9253    0.1545    0.7805 C   0  0  0  0  0  0  0  0  0  0  0  0
    1.9882   -0.8447    0.8861 O   0  0  0  0  0  0  0  0  0  0  0  0
    1.0655   -0.9239   -0.1186 C   0  0  0  0  0  0  0  0  0  0  0  0
    0.1991    0.2705   -0.3209 C   0  0  0  0  0  0  0  0  0  0  0  0
   -0.8029    0.0935   -1.4628 C   0  0  0  0  0  0  0  0  0  0  0  0
   -1.2435    0.2782   -0.0297 C   0  0  0  0  0  0  0  0  0  0  0  0
   -1.9548   -0.9120    0.5479 C   0  0  0  0  0  0  0  0  0  0  0  0
   -1.9026    1.5862    0.2210 C   0  0  0  0  0  0  0  0  0  0  0  0
   -1.3987    2.5996   -0.2083 O   0  0  0  0  0  0  0  0  0  0  0  0
    3.5873    0.0463    1.6925 H   0  0  0  0  0  0  0  0  0  0  0  0
    3.5834    0.0363   -0.1177 H   0  0  0  0  0  0  0  0  0  0  0  0
    2.4445    1.1301    0.7472 H   0  0  0  0  0  0  0  0  0  0  0  0
    1.6093   -1.0930   -1.0975 H   0  0  0  0  0  0  0  0  0  0  0  0
    0.4306   -1.8199   -0.0008 H   0  0  0  0  0  0  0  0  0  0  0  0
    0.7036    1.2602   -0.2668 H   0  0  0  0  0  0  0  0  0  0  0  0
   -0.8630    0.9274   -2.1625 H   0  0  0  0  0  0  0  0  0  0  0  0
   -0.9069   -0.8979   -1.9388 H   0  0  0  0  0  0  0  0  0  0  0  0
   -3.0315   -0.8326    0.2125 H   0  0  0  0  0  0  0  0  0  0  0  0
   -1.5996   -1.8766    0.1905 H   0  0  0  0  0  0  0  0  0  0  0  0
   -2.0058   -0.8315    1.6645 H   0  0  0  0  0  0  0  0  0  0  0  0
   -2.8273    1.6491    0.7818 H   0  0  0  0  0  0  0  0  0  0  0  0
  1  2  1  0
  2  3  1  0
  3  4  1  0
  4  5  1  0
  5  6  1  0
  6  7  1  0
  6  8  1  0
  8  9  2  0
  6  4  1  0
  1 10  1  0
  1 11  1  0
  1 12  1  0
  3 13  1  0
  3 14  1  0
  4 15  1  0
  5 16  1  0
  5 17  1  0
  7 18  1  0
  7 19  1  0
  7 20  1  0
  8 21  1  0
M  END
