
     RDKit          3D

 21 20  0  0  0  0  0  0  0  0999 V2000
    3.4202    0.1056   -0.0473 C   0  0  0  0  0  0  0  0  0  0  0  0
    2.2210    0.2904   -0.6924 O   0  0  0  0  0  0  0  0  0  0  0  0
    1.1661   -0.1757    0.1245 C   0  0  0  0  0  0  0  0  0  0  0  0
   -0.0849    0.0626   -0.6488 C   0  0  0  0  0  0  0  0  0  0  0  0
   -1.3447   -0.3565    0.0239 C   0  0  0  0  0  0  0  0  0  0  0  0
   -2.4899   -0.0232   -0.9375 C   0  0  0  0  0  0  0  0  0  0  0  0
   -1.6433    0.2513    1.3264 C   0  0  0  0  0  0  0  0  0  0  0  0
    3.5415   -0.9889    0.1509 H   0  0  0  0  0  0  0  0  0  0  0  0
    3.4269    0.6642    0.9042 H   0  0  0  0  0  0  0  0  0  0  0  0
    4.2348    0.4594   -0.7152 H   0  0  0  0  0  0  0  0  0  0  0  0
    1.2420    0.3933    1.0604 H   0  0  0  0  0  0  0  0  0  0  0  0
    1.3591   -1.2338    0.3630 H   0  0  0  0  0  0  0  0  0  0  0  0
   -0.0064   -0.4944   -1.6065 H   0  0  0  0  0  0  0  0  0  0  0  0
   -0.1240    1.1362   -0.9183 H   0  0  0  0  0  0  0  0  0  0  0  0
   -1.3399   -1.4795    0.0781 H   0  0  0  0  0  0  0  0  0  0  0  0
   -2.1436   -0.2361   -1.9877 H   0  0  0  0  0  0  0  0  0  0  0  0
   -2.7097    1.0730   -0.8984 H   0  0  0  0  0  0  0  0  0  0  0  0
   -3.3819   -0.6273   -0.7433 H   0  0  0  0  0  0  0  0  0  0  0  0
   -1.8563   -0.5668    2.0752 H   0  0  0  0  0  0  0  0  0  0  0  0
   -2.6000    0.8540    1.3190 H   0  0  0  0  0  0  0  0  0  0  0  0
   -0.8868    0.8919    1.7698 H   0  0  0  0  0  0  0  0  0  0  0  0
  1  2  1  0
  2  3  1  0
  3  4  1  0
  4  5  1  0
  5  6  1  0
  5  7  1  0
  1  8  1  0
  1  9  1  0
  1 10  1  0
  3 11  1  0
  3 12  1  0
  4 13  1  0
  4 14  1  0
  5 15  1  0
  6 16  1  0
  6 17  1  0
  6 18  1  0
  7 19  1  0
  7 20  1  0
  7 21  1  0
M  END
