
     RDKit          3D

 21 20  0  0  0  0  0  0  0  0999 V2000
   -2.9534   -0.6722   -0.6793 C   0  0  0  0  0  0  0  0  0  0  0  0
   -2.4696    0.2863    0.2006 O   0  0  0  0  0  0  0  0  0  0  0  0
   -1.1943    0.7235   -0.0564 C   0  0  0  0  0  0  0  0  0  0  0  0
   -0.1506   -0.3727   -0.0111 C   0  0  0  0  0  0  0  0  0  0  0  0
   -0.1776   -0.9269    1.2660 O   0  0  0  0  0  0  0  0  0  0  0  0
    1.1921    0.3189   -0.2119 C   0  0  0  0  0  0  0  0  0  0  0  0
    1.2943    1.3069    0.7645 O   0  0  0  0  0  0  0  0  0  0  0  0
    2.3295   -0.6709   -0.1004 C   0  0  0  0  0  0  0  0  0  0  0  0
    3.5129    0.0744   -0.2743 O   0  0  0  0  0  0  0  0  0  0  0  0
   -2.2766   -1.5479   -0.6126 H   0  0  0  0  0  0  0  0  0  0  0  0
   -2.9959   -0.2810   -1.7139 H   0  0  0  0  0  0  0  0  0  0  0  0
   -3.9698   -0.9497   -0.3082 H   0  0  0  0  0  0  0  0  0  0  0  0
   -1.0906    1.2082   -1.0538 H   0  0  0  0  0  0  0  0  0  0  0  0
   -0.9714    1.5227    0.6810 H   0  0  0  0  0  0  0  0  0  0  0  0
   -0.2968   -1.1405   -0.7645 H   0  0  0  0  0  0  0  0  0  0  0  0
   -0.6284   -0.3197    1.9099 H   0  0  0  0  0  0  0  0  0  0  0  0
    1.2160    0.7463   -1.2303 H   0  0  0  0  0  0  0  0  0  0  0  0
    1.1736    0.8618    1.6355 H   0  0  0  0  0  0  0  0  0  0  0  0
    2.3192   -1.4068   -0.9210 H   0  0  0  0  0  0  0  0  0  0  0  0
    2.3192   -1.2087    0.8635 H   0  0  0  0  0  0  0  0  0  0  0  0
    3.8182    0.3820    0.6167 H   0  0  0  0  0  0  0  0  0  0  0  0
  1  2  1  0
  2  3  1  0
  3  4  1  0
  4  5  1  0
  4  6  1  0
  6  7  1  0
  6  8  1  0
  8  9  1  0
  1 10  1  0
  1 11  1  0
  1 12  1  0
  3 13  1  0
  3 14  1  0
  4 15  1  0
  5 16  1  0
  6 17  1  0
  7 18  1  0
  8 19  1  0
  8 20  1  0
  9 21  1  0
M  END
