
     RDKit          3D

 25 25  0  0  0  0  0  0  0  0999 V2000
    2.7649    0.1450   -1.0783 C   0  0  0  0  0  0  0  0  0  0  0  0
    1.3980    0.2685   -0.8287 O   0  0  0  0  0  0  0  0  0  0  0  0
    1.1309   -0.2125    0.3976 C   0  0  0  0  0  0  0  0  0  0  0  0
   -0.2646   -0.1881    0.8893 C   0  0  0  0  0  0  0  0  0  0  0  0
   -0.3723   -0.7791    2.3092 C   0  0  0  0  0  0  0  0  0  0  0  0
   -1.2787    0.7883    0.5408 C   0  0  0  0  0  0  0  0  0  0  0  0
   -1.1975    1.8029   -0.5444 C   0  0  0  0  0  0  0  0  0  0  0  0
   -1.3822   -0.6485    0.0026 C   0  0  0  0  0  0  0  0  0  0  0  0
   -1.1446   -0.8826   -1.4623 C   0  0  0  0  0  0  0  0  0  0  0  0
    3.0943   -0.9248   -1.0323 H   0  0  0  0  0  0  0  0  0  0  0  0
    3.0317    0.4953   -2.0967 H   0  0  0  0  0  0  0  0  0  0  0  0
    3.3784    0.6643   -0.3017 H   0  0  0  0  0  0  0  0  0  0  0  0
    1.4907   -1.2825    0.4355 H   0  0  0  0  0  0  0  0  0  0  0  0
    1.7657    0.3504    1.1442 H   0  0  0  0  0  0  0  0  0  0  0  0
    0.5180   -0.5464    2.9085 H   0  0  0  0  0  0  0  0  0  0  0  0
   -1.2551   -0.3650    2.8375 H   0  0  0  0  0  0  0  0  0  0  0  0
   -0.4485   -1.8855    2.2655 H   0  0  0  0  0  0  0  0  0  0  0  0
   -2.0536    1.0629    1.3184 H   0  0  0  0  0  0  0  0  0  0  0  0
   -0.2255    1.9398   -1.0041 H   0  0  0  0  0  0  0  0  0  0  0  0
   -1.6197    2.8020   -0.2332 H   0  0  0  0  0  0  0  0  0  0  0  0
   -1.8888    1.4647   -1.3636 H   0  0  0  0  0  0  0  0  0  0  0  0
   -2.2208   -1.2496    0.4150 H   0  0  0  0  0  0  0  0  0  0  0  0
   -2.1117   -0.9958   -1.9920 H   0  0  0  0  0  0  0  0  0  0  0  0
   -0.4897   -1.7794   -1.5620 H   0  0  0  0  0  0  0  0  0  0  0  0
   -0.6193   -0.0444   -1.9651 H   0  0  0  0  0  0  0  0  0  0  0  0
  1  2  1  0
  2  3  1  0
  3  4  1  0
  4  5  1  0
  4  6  1  0
  6  7  1  0
  6  8  1  0
  8  9  1  0
  8  4  1  0
  1 10  1  0
  1 11  1  0
  1 12  1  0
  3 13  1  0
  3 14  1  0
  5 15  1  0
  5 16  1  0
  5 17  1  0
  6 18  1  0
  7 19  1  0
  7 20  1  0
  7 21  1  0
  8 22  1  0
  9 23  1  0
  9 24  1  0
  9 25  1  0
M  END
