
     RDKit          3D

 23 23  0  0  0  0  0  0  0  0999 V2000
    3.3760    0.0772    0.4706 C   0  0  0  0  0  0  0  0  0  0  0  0
    2.1349    0.3437   -0.0882 O   0  0  0  0  0  0  0  0  0  0  0  0
    1.3852   -0.7895   -0.3194 C   0  0  0  0  0  0  0  0  0  0  0  0
    0.0671   -0.2997   -0.9300 C   0  0  0  0  0  0  0  0  0  0  0  0
    0.4209    0.3716   -2.1099 O   0  0  0  0  0  0  0  0  0  0  0  0
   -0.5606    0.6511    0.0601 C   0  0  0  0  0  0  0  0  0  0  0  0
   -1.8536    1.3056   -0.2286 C   0  0  0  0  0  0  0  0  0  0  0  0
   -1.6863    0.2915    0.9071 C   0  0  0  0  0  0  0  0  0  0  0  0
   -2.5168   -0.9393    0.7278 C   0  0  0  0  0  0  0  0  0  0  0  0
    3.9114    1.0252    0.6243 H   0  0  0  0  0  0  0  0  0  0  0  0
    3.9807   -0.5437   -0.1982 H   0  0  0  0  0  0  0  0  0  0  0  0
    3.1973   -0.3800    1.4652 H   0  0  0  0  0  0  0  0  0  0  0  0
    1.8973   -1.4321   -1.0686 H   0  0  0  0  0  0  0  0  0  0  0  0
    1.2097   -1.4092    0.5738 H   0  0  0  0  0  0  0  0  0  0  0  0
   -0.5599   -1.1452   -1.2007 H   0  0  0  0  0  0  0  0  0  0  0  0
   -0.0096    1.2416   -2.2035 H   0  0  0  0  0  0  0  0  0  0  0  0
    0.2069    1.3368    0.5284 H   0  0  0  0  0  0  0  0  0  0  0  0
   -2.4180    1.0087   -1.1242 H   0  0  0  0  0  0  0  0  0  0  0  0
   -2.0835    2.3317    0.1193 H   0  0  0  0  0  0  0  0  0  0  0  0
   -1.7241    0.6959    1.9591 H   0  0  0  0  0  0  0  0  0  0  0  0
   -2.4392   -1.3433   -0.3037 H   0  0  0  0  0  0  0  0  0  0  0  0
   -3.5952   -0.6192    0.8288 H   0  0  0  0  0  0  0  0  0  0  0  0
   -2.3409   -1.6977    1.5106 H   0  0  0  0  0  0  0  0  0  0  0  0
  1  2  1  0
  2  3  1  0
  3  4  1  0
  4  5  1  0
  4  6  1  0
  6  7  1  0
  7  8  1  0
  8  9  1  0
  8  6  1  0
  1 10  1  0
  1 11  1  0
  1 12  1  0
  3 13  1  0
  3 14  1  0
  4 15  1  0
  5 16  1  0
  6 17  1  0
  7 18  1  0
  7 19  1  0
  8 20  1  0
  9 21  1  0
  9 22  1  0
  9 23  1  0
M  END
