
     RDKit          3D

 21 22  0  0  0  0  0  0  0  0999 V2000
    3.1429   -0.1801    0.0267 C   0  0  0  0  0  0  0  0  0  0  0  0
    1.7747   -0.5254    0.0681 O   0  0  0  0  0  0  0  0  0  0  0  0
    1.0188    0.6022   -0.2470 C   0  0  0  0  0  0  0  0  0  0  0  0
   -0.3783    0.2911   -0.2155 C   0  0  0  0  0  0  0  0  0  0  0  0
   -1.4287    1.2699   -0.5023 C   0  0  0  0  0  0  0  0  0  0  0  0
   -2.5507    0.5572   -0.3627 C   0  0  0  0  0  0  0  0  0  0  0  0
   -2.0566   -0.7800   -0.0050 C   0  0  0  0  0  0  0  0  0  0  0  0
   -0.9572   -0.4225    1.0089 C   0  0  0  0  0  0  0  0  0  0  0  0
   -0.8847   -0.9302   -0.9891 C   0  0  0  0  0  0  0  0  0  0  0  0
    3.7728   -1.0374    0.2682 H   0  0  0  0  0  0  0  0  0  0  0  0
    3.3663    0.6596    0.6949 H   0  0  0  0  0  0  0  0  0  0  0  0
    3.3312    0.1621   -1.0274 H   0  0  0  0  0  0  0  0  0  0  0  0
    1.3154    0.9141   -1.2776 H   0  0  0  0  0  0  0  0  0  0  0  0
    1.2652    1.4305    0.4144 H   0  0  0  0  0  0  0  0  0  0  0  0
   -1.2607    2.3065   -0.7591 H   0  0  0  0  0  0  0  0  0  0  0  0
   -3.5910    0.8315   -0.4706 H   0  0  0  0  0  0  0  0  0  0  0  0
   -2.6763   -1.5956    0.1797 H   0  0  0  0  0  0  0  0  0  0  0  0
   -0.3900   -1.2925    1.3493 H   0  0  0  0  0  0  0  0  0  0  0  0
   -1.3567    0.2540    1.7840 H   0  0  0  0  0  0  0  0  0  0  0  0
   -0.2522   -1.7975   -0.8133 H   0  0  0  0  0  0  0  0  0  0  0  0
   -1.2039   -0.7177   -2.0129 H   0  0  0  0  0  0  0  0  0  0  0  0
  1  2  1  0
  2  3  1  0
  3  4  1  0
  4  5  1  0
  5  6  2  0
  6  7  1  0
  7  8  1  0
  7  9  1  0
  8  4  1  0
  9  4  1  0
  1 10  1  0
  1 11  1  0
  1 12  1  0
  3 13  1  0
  3 14  1  0
  5 15  1  0
  6 16  1  0
  7 17  1  0
  8 18  1  0
  8 19  1  0
  9 20  1  0
  9 21  1  0
M  END
