
     RDKit          3D

 25 24  0  0  0  0  0  0  0  0999 V2000
   -3.6765    0.6085    0.0957 C   0  0  0  0  0  0  0  0  0  0  0  0
   -2.2806    0.6847    0.0034 O   0  0  0  0  0  0  0  0  0  0  0  0
   -1.7680   -0.2225    0.9143 C   0  0  0  0  0  0  0  0  0  0  0  0
   -0.2731   -0.2499    0.9255 C   0  0  0  0  0  0  0  0  0  0  0  0
    0.3303   -0.6224   -0.3914 C   0  0  0  0  0  0  0  0  0  0  0  0
   -0.0276    0.3077   -1.5057 C   0  0  0  0  0  0  0  0  0  0  0  0
    1.8373   -0.6315   -0.2518 C   0  0  0  0  0  0  0  0  0  0  0  0
    2.2653    0.6571    0.1323 O   0  0  0  0  0  0  0  0  0  0  0  0
    3.6599    0.6422    0.2596 C   0  0  0  0  0  0  0  0  0  0  0  0
   -4.1107    1.3280   -0.6263 H   0  0  0  0  0  0  0  0  0  0  0  0
   -4.0366    0.9120    1.1141 H   0  0  0  0  0  0  0  0  0  0  0  0
   -4.0613   -0.3942   -0.1559 H   0  0  0  0  0  0  0  0  0  0  0  0
   -2.1005    0.1202    1.9250 H   0  0  0  0  0  0  0  0  0  0  0  0
   -2.2207   -1.2362    0.7876 H   0  0  0  0  0  0  0  0  0  0  0  0
    0.0832    0.7459    1.2504 H   0  0  0  0  0  0  0  0  0  0  0  0
    0.0631   -0.9888    1.6754 H   0  0  0  0  0  0  0  0  0  0  0  0
    0.0099   -1.6420   -0.6864 H   0  0  0  0  0  0  0  0  0  0  0  0
   -0.9836    0.0719   -1.9979 H   0  0  0  0  0  0  0  0  0  0  0  0
    0.0071    1.3805   -1.2185 H   0  0  0  0  0  0  0  0  0  0  0  0
    0.7626    0.1980   -2.3005 H   0  0  0  0  0  0  0  0  0  0  0  0
    2.3528   -0.8365   -1.2139 H   0  0  0  0  0  0  0  0  0  0  0  0
    2.1755   -1.3850    0.4980 H   0  0  0  0  0  0  0  0  0  0  0  0
    3.9395   -0.0983    1.0282 H   0  0  0  0  0  0  0  0  0  0  0  0
    4.0507    0.3700   -0.7532 H   0  0  0  0  0  0  0  0  0  0  0  0
    4.0022    1.6712    0.4918 H   0  0  0  0  0  0  0  0  0  0  0  0
  1  2  1  0
  2  3  1  0
  3  4  1  0
  4  5  1  0
  5  6  1  0
  5  7  1  0
  7  8  1  0
  8  9  1  0
  1 10  1  0
  1 11  1  0
  1 12  1  0
  3 13  1  0
  3 14  1  0
  4 15  1  0
  4 16  1  0
  5 17  1  0
  6 18  1  0
  6 19  1  0
  6 20  1  0
  7 21  1  0
  7 22  1  0
  9 23  1  0
  9 24  1  0
  9 25  1  0
M  END
