
     RDKit          3D

 27 26  0  0  0  0  0  0  0  0999 V2000
    3.7556    0.4583   -0.6578 C   0  0  0  0  0  0  0  0  0  0  0  0
    2.6150    0.8169   -1.3173 O   0  0  0  0  0  0  0  0  0  0  0  0
    1.4748    0.1187   -0.9684 C   0  0  0  0  0  0  0  0  0  0  0  0
    1.1105    0.2638    0.4771 C   0  0  0  0  0  0  0  0  0  0  0  0
   -0.0934   -0.4574    0.9183 C   0  0  0  0  0  0  0  0  0  0  0  0
   -1.3955   -0.1516    0.3002 C   0  0  0  0  0  0  0  0  0  0  0  0
   -1.8410    1.2796    0.4467 C   0  0  0  0  0  0  0  0  0  0  0  0
   -2.4302   -0.9300    1.1554 C   0  0  0  0  0  0  0  0  0  0  0  0
   -1.5917   -0.6038   -1.1142 C   0  0  0  0  0  0  0  0  0  0  0  0
    3.6890    0.6050    0.4330 H   0  0  0  0  0  0  0  0  0  0  0  0
    4.0411   -0.5924   -0.8652 H   0  0  0  0  0  0  0  0  0  0  0  0
    4.6072    1.0846   -1.0117 H   0  0  0  0  0  0  0  0  0  0  0  0
    1.5273   -0.9573   -1.2632 H   0  0  0  0  0  0  0  0  0  0  0  0
    0.6338    0.5391   -1.5992 H   0  0  0  0  0  0  0  0  0  0  0  0
    1.1454    1.3388    0.7169 H   0  0  0  0  0  0  0  0  0  0  0  0
    1.9717   -0.1797    1.0660 H   0  0  0  0  0  0  0  0  0  0  0  0
   -0.2231   -0.4228    2.0324 H   0  0  0  0  0  0  0  0  0  0  0  0
    0.1000   -1.5571    0.7286 H   0  0  0  0  0  0  0  0  0  0  0  0
   -1.1175    2.0166    0.1246 H   0  0  0  0  0  0  0  0  0  0  0  0
   -2.1719    1.4801    1.4783 H   0  0  0  0  0  0  0  0  0  0  0  0
   -2.7587    1.3978   -0.1997 H   0  0  0  0  0  0  0  0  0  0  0  0
   -3.3921   -0.9963    0.6404 H   0  0  0  0  0  0  0  0  0  0  0  0
   -2.0540   -1.9758    1.3119 H   0  0  0  0  0  0  0  0  0  0  0  0
   -2.4520   -0.4331    2.1332 H   0  0  0  0  0  0  0  0  0  0  0  0
   -2.6083   -1.0967   -1.1799 H   0  0  0  0  0  0  0  0  0  0  0  0
   -1.7040    0.2765   -1.8150 H   0  0  0  0  0  0  0  0  0  0  0  0
   -0.8381   -1.3218   -1.4821 H   0  0  0  0  0  0  0  0  0  0  0  0
  1  2  1  0
  2  3  1  0
  3  4  1  0
  4  5  1  0
  5  6  1  0
  6  7  1  0
  6  8  1  0
  6  9  1  0
  1 10  1  0
  1 11  1  0
  1 12  1  0
  3 13  1  0
  3 14  1  0
  4 15  1  0
  4 16  1  0
  5 17  1  0
  5 18  1  0
  7 19  1  0
  7 20  1  0
  7 21  1  0
  8 22  1  0
  8 23  1  0
  8 24  1  0
  9 25  1  0
  9 26  1  0
  9 27  1  0
M  END
