
     RDKit          3D

 21 21  0  0  0  0  0  0  0  0999 V2000
    2.8870   -0.5634    0.4460 C   0  0  0  0  0  0  0  0  0  0  0  0
    2.4868    0.4959   -0.3996 O   0  0  0  0  0  0  0  0  0  0  0  0
    1.1135    0.4557   -0.6200 C   0  0  0  0  0  0  0  0  0  0  0  0
    0.2989    0.5747    0.6333 C   0  0  0  0  0  0  0  0  0  0  0  0
    0.5350    1.7798    1.3262 O   0  0  0  0  0  0  0  0  0  0  0  0
   -0.0985   -0.6198    1.3855 C   0  0  0  0  0  0  0  0  0  0  0  0
   -1.1336    0.1814    0.6045 C   0  0  0  0  0  0  0  0  0  0  0  0
   -1.6445   -0.5246   -0.4796 O   0  0  0  0  0  0  0  0  0  0  0  0
   -3.0191   -0.3201   -0.5069 C   0  0  0  0  0  0  0  0  0  0  0  0
    2.6506   -1.5450    0.0239 H   0  0  0  0  0  0  0  0  0  0  0  0
    3.9970   -0.5316    0.5608 H   0  0  0  0  0  0  0  0  0  0  0  0
    2.3542   -0.4340    1.3873 H   0  0  0  0  0  0  0  0  0  0  0  0
    0.9144   -0.4937   -1.1678 H   0  0  0  0  0  0  0  0  0  0  0  0
    0.8920    1.2732   -1.3424 H   0  0  0  0  0  0  0  0  0  0  0  0
   -0.1460    2.4392    1.0037 H   0  0  0  0  0  0  0  0  0  0  0  0
    0.2210   -1.6144    0.9979 H   0  0  0  0  0  0  0  0  0  0  0  0
   -0.2471   -0.6197    2.4741 H   0  0  0  0  0  0  0  0  0  0  0  0
   -1.8848    0.7378    1.2004 H   0  0  0  0  0  0  0  0  0  0  0  0
   -3.5070   -0.8523   -1.3472 H   0  0  0  0  0  0  0  0  0  0  0  0
   -3.5051   -0.6124    0.4575 H   0  0  0  0  0  0  0  0  0  0  0  0
   -3.1646    0.7930   -0.5738 H   0  0  0  0  0  0  0  0  0  0  0  0
  1  2  1  0
  2  3  1  0
  3  4  1  0
  4  5  1  0
  4  6  1  0
  6  7  1  0
  7  8  1  0
  8  9  1  0
  7  4  1  0
  1 10  1  0
  1 11  1  0
  1 12  1  0
  3 13  1  0
  3 14  1  0
  5 15  1  0
  6 16  1  0
  6 17  1  0
  7 18  1  0
  9 19  1  0
  9 20  1  0
  9 21  1  0
M  END
