
     RDKit          3D

 19 19  0  0  0  0  0  0  0  0999 V2000
   -2.8003    0.3959   -1.2067 C   0  0  0  0  0  0  0  0  0  0  0  0
   -1.6296   -0.2852   -0.9303 O   0  0  0  0  0  0  0  0  0  0  0  0
   -0.9324    0.4076    0.0639 C   0  0  0  0  0  0  0  0  0  0  0  0
    0.3674   -0.3016    0.4063 C   0  0  0  0  0  0  0  0  0  0  0  0
    0.1872   -1.6033    0.8790 O   0  0  0  0  0  0  0  0  0  0  0  0
    1.4550    0.4748    1.0886 C   0  0  0  0  0  0  0  0  0  0  0  0
    1.5963    0.0644   -0.3367 C   0  0  0  0  0  0  0  0  0  0  0  0
    2.6003   -0.9542   -0.7043 C   0  0  0  0  0  0  0  0  0  0  0  0
    3.2150   -0.8378   -1.7405 O   0  0  0  0  0  0  0  0  0  0  0  0
   -2.6281    1.4338   -1.5671 H   0  0  0  0  0  0  0  0  0  0  0  0
   -3.3356   -0.1625   -2.0003 H   0  0  0  0  0  0  0  0  0  0  0  0
   -3.4364    0.3501   -0.3015 H   0  0  0  0  0  0  0  0  0  0  0  0
   -0.6248    1.3801   -0.4215 H   0  0  0  0  0  0  0  0  0  0  0  0
   -1.5569    0.5972    0.9448 H   0  0  0  0  0  0  0  0  0  0  0  0
   -0.0702   -1.5050    1.8485 H   0  0  0  0  0  0  0  0  0  0  0  0
    2.1426   -0.0625    1.7863 H   0  0  0  0  0  0  0  0  0  0  0  0
    1.1932    1.4993    1.3807 H   0  0  0  0  0  0  0  0  0  0  0  0
    1.4580    0.9095   -1.0584 H   0  0  0  0  0  0  0  0  0  0  0  0
    2.7992   -1.8005   -0.0707 H   0  0  0  0  0  0  0  0  0  0  0  0
  1  2  1  0
  2  3  1  0
  3  4  1  0
  4  5  1  0
  4  6  1  0
  6  7  1  0
  7  8  1  0
  8  9  2  0
  7  4  1  0
  1 10  1  0
  1 11  1  0
  1 12  1  0
  3 13  1  0
  3 14  1  0
  5 15  1  0
  6 16  1  0
  6 17  1  0
  7 18  1  0
  8 19  1  0
M  END
