
     RDKit          3D

 21 21  0  0  0  0  0  0  0  0999 V2000
    2.9603    0.6718   -0.3709 C   0  0  0  0  0  0  0  0  0  0  0  0
    1.6185    0.3717   -0.5498 O   0  0  0  0  0  0  0  0  0  0  0  0
    1.1161   -0.1103    0.6411 C   0  0  0  0  0  0  0  0  0  0  0  0
   -0.3306   -0.4770    0.5949 C   0  0  0  0  0  0  0  0  0  0  0  0
   -0.5413   -1.5716   -0.4606 C   0  0  0  0  0  0  0  0  0  0  0  0
   -1.7648   -0.8711   -0.9040 C   0  0  0  0  0  0  0  0  0  0  0  0
   -2.7418   -1.2405   -1.5208 O   0  0  0  0  0  0  0  0  0  0  0  0
   -1.2208    0.3694   -0.2680 C   0  0  0  0  0  0  0  0  0  0  0  0
   -2.3388    1.0880    0.4553 C   0  0  0  0  0  0  0  0  0  0  0  0
    3.4155    1.0634   -1.2965 H   0  0  0  0  0  0  0  0  0  0  0  0
    3.5584   -0.2327   -0.0957 H   0  0  0  0  0  0  0  0  0  0  0  0
    3.0948    1.4525    0.4044 H   0  0  0  0  0  0  0  0  0  0  0  0
    1.3747    0.5683    1.4793 H   0  0  0  0  0  0  0  0  0  0  0  0
    1.6833   -1.0628    0.8578 H   0  0  0  0  0  0  0  0  0  0  0  0
   -0.7232   -0.7202    1.5828 H   0  0  0  0  0  0  0  0  0  0  0  0
    0.2272   -1.5206   -1.2565 H   0  0  0  0  0  0  0  0  0  0  0  0
   -0.6861   -2.5750   -0.0265 H   0  0  0  0  0  0  0  0  0  0  0  0
   -0.7261    1.0446   -0.9777 H   0  0  0  0  0  0  0  0  0  0  0  0
   -2.9141    1.6347   -0.3409 H   0  0  0  0  0  0  0  0  0  0  0  0
   -1.9876    1.7824    1.2227 H   0  0  0  0  0  0  0  0  0  0  0  0
   -3.0737    0.3350    0.8527 H   0  0  0  0  0  0  0  0  0  0  0  0
  1  2  1  0
  2  3  1  0
  3  4  1  0
  4  5  1  0
  5  6  1  0
  6  7  2  0
  6  8  1  0
  8  9  1  0
  8  4  1  0
  1 10  1  0
  1 11  1  0
  1 12  1  0
  3 13  1  0
  3 14  1  0
  4 15  1  0
  5 16  1  0
  5 17  1  0
  8 18  1  0
  9 19  1  0
  9 20  1  0
  9 21  1  0
M  END
