
     RDKit          3D

 20 19  0  0  0  0  0  0  0  0999 V2000
    2.8610   -0.5547    0.0817 C   0  0  0  0  0  0  0  0  0  0  0  0
    1.7299    0.1146    0.5514 O   0  0  0  0  0  0  0  0  0  0  0  0
    0.5744   -0.3496   -0.0973 C   0  0  0  0  0  0  0  0  0  0  0  0
   -0.5838    0.4039    0.4604 C   0  0  0  0  0  0  0  0  0  0  0  0
   -0.3957    1.8815    0.2014 C   0  0  0  0  0  0  0  0  0  0  0  0
   -1.9247   -0.0616   -0.0488 C   0  0  0  0  0  0  0  0  0  0  0  0
   -2.1818   -1.4676    0.2714 C   0  0  0  0  0  0  0  0  0  0  0  0
   -1.5851   -2.3836   -0.2718 O   0  0  0  0  0  0  0  0  0  0  0  0
    2.7132   -1.6396    0.2927 H   0  0  0  0  0  0  0  0  0  0  0  0
    3.7159   -0.1743    0.7068 H   0  0  0  0  0  0  0  0  0  0  0  0
    3.0826   -0.3702   -0.9679 H   0  0  0  0  0  0  0  0  0  0  0  0
    0.5237   -1.4346   -0.0382 H   0  0  0  0  0  0  0  0  0  0  0  0
    0.6717   -0.0317   -1.1747 H   0  0  0  0  0  0  0  0  0  0  0  0
   -0.6303    0.2983    1.5819 H   0  0  0  0  0  0  0  0  0  0  0  0
   -1.3791    2.3652   -0.0063 H   0  0  0  0  0  0  0  0  0  0  0  0
    0.0381    2.4082    1.0909 H   0  0  0  0  0  0  0  0  0  0  0  0
    0.3232    2.0734   -0.6246 H   0  0  0  0  0  0  0  0  0  0  0  0
   -1.9128    0.0910   -1.1558 H   0  0  0  0  0  0  0  0  0  0  0  0
   -2.7128    0.5757    0.3729 H   0  0  0  0  0  0  0  0  0  0  0  0
   -2.9275   -1.7442    1.0190 H   0  0  0  0  0  0  0  0  0  0  0  0
  1  2  1  0
  2  3  1  0
  3  4  1  0
  4  5  1  0
  4  6  1  0
  6  7  1  0
  7  8  2  0
  1  9  1  0
  1 10  1  0
  1 11  1  0
  3 12  1  0
  3 13  1  0
  4 14  1  0
  5 15  1  0
  5 16  1  0
  5 17  1  0
  6 18  1  0
  6 19  1  0
  7 20  1  0
M  END
