
     RDKit          3D

 13 12  0  0  0  0  0  0  0  0999 V2000
   -1.9097    0.3186    0.6480 C   0  0  0  0  0  0  0  0  0  0  0  0
   -0.5189    0.1715    0.6615 O   0  0  0  0  0  0  0  0  0  0  0  0
   -0.0999   -0.1166   -0.6251 C   0  0  0  0  0  0  0  0  0  0  0  0
    1.3458   -0.2947   -0.7446 C   0  0  0  0  0  0  0  0  0  0  0  0
    1.8376   -0.5599   -1.8690 O   0  0  0  0  0  0  0  0  0  0  0  0
    2.2237   -0.1749    0.3897 C   0  0  0  0  0  0  0  0  0  0  0  0
    1.7816    0.0926    1.5540 O   0  0  0  0  0  0  0  0  0  0  0  0
   -2.2476    1.1292   -0.0174 H   0  0  0  0  0  0  0  0  0  0  0  0
   -2.2434    0.4070    1.6851 H   0  0  0  0  0  0  0  0  0  0  0  0
   -2.3137   -0.6509    0.2364 H   0  0  0  0  0  0  0  0  0  0  0  0
   -0.6619   -1.0298   -0.9740 H   0  0  0  0  0  0  0  0  0  0  0  0
   -0.4900    0.7175   -1.2741 H   0  0  0  0  0  0  0  0  0  0  0  0
    3.2964   -0.3017    0.3297 H   0  0  0  0  0  0  0  0  0  0  0  0
  1  2  1  0
  2  3  1  0
  3  4  1  0
  4  5  2  0
  4  6  1  0
  6  7  2  0
  1  8  1  0
  1  9  1  0
  1 10  1  0
  3 11  1  0
  3 12  1  0
  6 13  1  0
M  END
