
     RDKit          3D

 19 20  0  0  0  0  0  0  0  0999 V2000
    2.7098   -0.2865   -0.6529 C   0  0  0  0  0  0  0  0  0  0  0  0
    1.3483   -0.5638   -0.8330 O   0  0  0  0  0  0  0  0  0  0  0  0
    0.6116    0.5954   -0.5399 C   0  0  0  0  0  0  0  0  0  0  0  0
   -0.8586    0.3063   -0.7313 C   0  0  0  0  0  0  0  0  0  0  0  0
   -1.7501    1.4639   -0.4498 C   0  0  0  0  0  0  0  0  0  0  0  0
   -2.7544    0.6457    0.0531 O   0  0  0  0  0  0  0  0  0  0  0  0
   -1.6917   -0.2261    0.3889 C   0  0  0  0  0  0  0  0  0  0  0  0
   -1.2494   -1.1009   -0.7032 C   0  0  0  0  0  0  0  0  0  0  0  0
   -0.3034   -2.0564   -0.2689 O   0  0  0  0  0  0  0  0  0  0  0  0
    2.9965    0.5298   -1.3334 H   0  0  0  0  0  0  0  0  0  0  0  0
    2.9014    0.0402    0.3928 H   0  0  0  0  0  0  0  0  0  0  0  0
    3.2604   -1.2251   -0.8592 H   0  0  0  0  0  0  0  0  0  0  0  0
    0.8467    0.9754    0.4558 H   0  0  0  0  0  0  0  0  0  0  0  0
    0.8777    1.3726   -1.3046 H   0  0  0  0  0  0  0  0  0  0  0  0
   -2.0205    2.1216   -1.2729 H   0  0  0  0  0  0  0  0  0  0  0  0
   -1.3359    2.0537    0.4221 H   0  0  0  0  0  0  0  0  0  0  0  0
   -1.3352   -0.2681    1.4124 H   0  0  0  0  0  0  0  0  0  0  0  0
   -1.9417   -1.5120   -1.4582 H   0  0  0  0  0  0  0  0  0  0  0  0
   -0.3117   -2.8658   -0.7974 H   0  0  0  0  0  0  0  0  0  0  0  0
  1  2  1  0
  2  3  1  0
  3  4  1  0
  4  5  1  0
  5  6  1  0
  6  7  1  0
  7  8  1  0
  8  9  1  0
  7  4  1  0
  8  4  1  0
  1 10  1  0
  1 11  1  0
  1 12  1  0
  3 13  1  0
  3 14  1  0
  5 15  1  0
  5 16  1  0
  7 17  1  0
  8 18  1  0
  9 19  1  0
M  END
