
     RDKit          3D

 25 24  0  0  0  0  0  0  0  0999 V2000
    3.2955    0.2785    0.3689 C   0  0  0  0  0  0  0  0  0  0  0  0
    2.0292    0.4942   -0.2150 O   0  0  0  0  0  0  0  0  0  0  0  0
    1.1747   -0.4170    0.3657 C   0  0  0  0  0  0  0  0  0  0  0  0
   -0.2360   -0.3185   -0.1541 C   0  0  0  0  0  0  0  0  0  0  0  0
   -0.1791   -0.5779   -1.6457 C   0  0  0  0  0  0  0  0  0  0  0  0
   -1.1028   -1.4110    0.4397 C   0  0  0  0  0  0  0  0  0  0  0  0
   -0.8810    0.9996    0.1538 C   0  0  0  0  0  0  0  0  0  0  0  0
   -2.2933    1.0565   -0.3845 C   0  0  0  0  0  0  0  0  0  0  0  0
   -0.9563    1.1632    1.5356 O   0  0  0  0  0  0  0  0  0  0  0  0
    3.5573   -0.7834    0.1221 H   0  0  0  0  0  0  0  0  0  0  0  0
    4.0508    0.9695    0.0015 H   0  0  0  0  0  0  0  0  0  0  0  0
    3.1228    0.3221    1.4648 H   0  0  0  0  0  0  0  0  0  0  0  0
    1.1549   -0.2454    1.4818 H   0  0  0  0  0  0  0  0  0  0  0  0
    1.5997   -1.4320    0.2369 H   0  0  0  0  0  0  0  0  0  0  0  0
   -1.1692   -0.7164   -2.0930 H   0  0  0  0  0  0  0  0  0  0  0  0
    0.4436    0.1709   -2.1531 H   0  0  0  0  0  0  0  0  0  0  0  0
    0.3471   -1.5710   -1.7592 H   0  0  0  0  0  0  0  0  0  0  0  0
   -1.9323   -1.5741   -0.2898 H   0  0  0  0  0  0  0  0  0  0  0  0
   -0.5119   -2.3621    0.5646 H   0  0  0  0  0  0  0  0  0  0  0  0
   -1.5310   -1.1067    1.4227 H   0  0  0  0  0  0  0  0  0  0  0  0
   -0.3455    1.8701   -0.2519 H   0  0  0  0  0  0  0  0  0  0  0  0
   -2.7902    1.9790    0.0025 H   0  0  0  0  0  0  0  0  0  0  0  0
   -2.9172    0.2090    0.0227 H   0  0  0  0  0  0  0  0  0  0  0  0
   -2.3293    1.1056   -1.4780 H   0  0  0  0  0  0  0  0  0  0  0  0
   -1.6007    1.8972    1.7579 H   0  0  0  0  0  0  0  0  0  0  0  0
  1  2  1  0
  2  3  1  0
  3  4  1  0
  4  5  1  0
  4  6  1  0
  4  7  1  0
  7  8  1  0
  7  9  1  0
  1 10  1  0
  1 11  1  0
  1 12  1  0
  3 13  1  0
  3 14  1  0
  5 15  1  0
  5 16  1  0
  5 17  1  0
  6 18  1  0
  6 19  1  0
  6 20  1  0
  7 21  1  0
  8 22  1  0
  8 23  1  0
  8 24  1  0
  9 25  1  0
M  END
