
     RDKit          3D

 19 18  0  0  0  0  0  0  0  0999 V2000
    2.3020    0.2364   -0.8490 C   0  0  0  0  0  0  0  0  0  0  0  0
    1.9093    0.0031    0.4664 O   0  0  0  0  0  0  0  0  0  0  0  0
    0.6045    0.4016    0.6982 C   0  0  0  0  0  0  0  0  0  0  0  0
   -0.4114   -0.2905   -0.1452 C   0  0  0  0  0  0  0  0  0  0  0  0
   -0.4231   -1.7868    0.0472 C   0  0  0  0  0  0  0  0  0  0  0  0
   -1.7650    0.2239    0.1476 C   0  0  0  0  0  0  0  0  0  0  0  0
   -2.6530   -0.5435    0.6500 O   0  0  0  0  0  0  0  0  0  0  0  0
   -2.0498    1.6124   -0.1490 C   0  0  0  0  0  0  0  0  0  0  0  0
   -1.2030    2.3713   -0.6603 O   0  0  0  0  0  0  0  0  0  0  0  0
    3.3736   -0.1265   -0.8927 H   0  0  0  0  0  0  0  0  0  0  0  0
    1.7286   -0.3580   -1.5908 H   0  0  0  0  0  0  0  0  0  0  0  0
    2.2743    1.2936   -1.1374 H   0  0  0  0  0  0  0  0  0  0  0  0
    0.4185    0.1493    1.7865 H   0  0  0  0  0  0  0  0  0  0  0  0
    0.4785    1.4949    0.5963 H   0  0  0  0  0  0  0  0  0  0  0  0
   -0.2487   -0.0886   -1.2448 H   0  0  0  0  0  0  0  0  0  0  0  0
   -1.1342   -2.1094    0.8366 H   0  0  0  0  0  0  0  0  0  0  0  0
    0.5915   -2.1813    0.2729 H   0  0  0  0  0  0  0  0  0  0  0  0
   -0.7269   -2.2665   -0.9082 H   0  0  0  0  0  0  0  0  0  0  0  0
   -3.0657    1.9647    0.1045 H   0  0  0  0  0  0  0  0  0  0  0  0
  1  2  1  0
  2  3  1  0
  3  4  1  0
  4  5  1  0
  4  6  1  0
  6  7  2  0
  6  8  1  0
  8  9  2  0
  1 10  1  0
  1 11  1  0
  1 12  1  0
  3 13  1  0
  3 14  1  0
  4 15  1  0
  5 16  1  0
  5 17  1  0
  5 18  1  0
  8 19  1  0
M  END
