
     RDKit          3D

 23 24  0  0  0  0  0  0  0  0999 V2000
    2.4980   -1.2792    0.3775 C   0  0  0  0  0  0  0  0  0  0  0  0
    1.2997   -0.5983    0.4348 O   0  0  0  0  0  0  0  0  0  0  0  0
    0.9671    0.0326   -0.7510 C   0  0  0  0  0  0  0  0  0  0  0  0
   -0.3613    0.7180   -0.4986 C   0  0  0  0  0  0  0  0  0  0  0  0
   -1.5719   -0.0778   -0.1082 C   0  0  0  0  0  0  0  0  0  0  0  0
   -1.4637   -0.8329    1.2049 C   0  0  0  0  0  0  0  0  0  0  0  0
   -1.5447   -1.5599   -0.0869 C   0  0  0  0  0  0  0  0  0  0  0  0
   -0.5996    2.0904   -1.0137 C   0  0  0  0  0  0  0  0  0  0  0  0
   -0.1857    1.9821    0.3903 C   0  0  0  0  0  0  0  0  0  0  0  0
    3.3529   -0.6333    0.1437 H   0  0  0  0  0  0  0  0  0  0  0  0
    2.6410   -1.7573    1.3776 H   0  0  0  0  0  0  0  0  0  0  0  0
    2.4617   -2.1114   -0.3608 H   0  0  0  0  0  0  0  0  0  0  0  0
    1.7086    0.8530   -0.9229 H   0  0  0  0  0  0  0  0  0  0  0  0
    0.9220   -0.6629   -1.6101 H   0  0  0  0  0  0  0  0  0  0  0  0
   -2.5533    0.4214   -0.2823 H   0  0  0  0  0  0  0  0  0  0  0  0
   -0.5311   -0.8807    1.7659 H   0  0  0  0  0  0  0  0  0  0  0  0
   -2.3664   -0.8278    1.8753 H   0  0  0  0  0  0  0  0  0  0  0  0
   -0.6246   -2.1090   -0.4263 H   0  0  0  0  0  0  0  0  0  0  0  0
   -2.5139   -2.0557   -0.2986 H   0  0  0  0  0  0  0  0  0  0  0  0
    0.1360    2.5100   -1.7603 H   0  0  0  0  0  0  0  0  0  0  0  0
   -1.6383    2.3294   -1.3025 H   0  0  0  0  0  0  0  0  0  0  0  0
    0.8407    2.3248    0.6168 H   0  0  0  0  0  0  0  0  0  0  0  0
   -0.8732    2.1243    1.2356 H   0  0  0  0  0  0  0  0  0  0  0  0
  1  2  1  0
  2  3  1  0
  3  4  1  0
  4  5  1  0
  5  6  1  0
  6  7  1  0
  4  8  1  0
  8  9  1  0
  9  4  1  0
  7  5  1  0
  1 10  1  0
  1 11  1  0
  1 12  1  0
  3 13  1  0
  3 14  1  0
  5 15  1  0
  6 16  1  0
  6 17  1  0
  7 18  1  0
  7 19  1  0
  8 20  1  0
  8 21  1  0
  9 22  1  0
  9 23  1  0
M  END
