
     RDKit          3D

 19 19  0  0  0  0  0  0  0  0999 V2000
    2.2151   -0.9126    1.0650 C   0  0  0  0  0  0  0  0  0  0  0  0
    1.8877    0.4095    1.1836 O   0  0  0  0  0  0  0  0  0  0  0  0
    1.6923    1.0807    0.0076 C   0  0  0  0  0  0  0  0  0  0  0  0
    0.5849    0.5212   -0.8483 C   0  0  0  0  0  0  0  0  0  0  0  0
   -0.7189    0.5559   -0.1378 C   0  0  0  0  0  0  0  0  0  0  0  0
   -0.7705    1.0056    1.0010 O   0  0  0  0  0  0  0  0  0  0  0  0
   -1.9698    0.0703   -0.7420 C   0  0  0  0  0  0  0  0  0  0  0  0
   -3.0938   -0.3082    0.0607 C   0  0  0  0  0  0  0  0  0  0  0  0
   -3.0941    1.0055   -0.6432 O   0  0  0  0  0  0  0  0  0  0  0  0
    1.4267   -1.5138    0.5310 H   0  0  0  0  0  0  0  0  0  0  0  0
    3.1834   -1.1152    0.5878 H   0  0  0  0  0  0  0  0  0  0  0  0
    2.2476   -1.3469    2.0919 H   0  0  0  0  0  0  0  0  0  0  0  0
    1.3640    2.1262    0.2860 H   0  0  0  0  0  0  0  0  0  0  0  0
    2.6309    1.2114   -0.5476 H   0  0  0  0  0  0  0  0  0  0  0  0
    0.7887   -0.4809   -1.2301 H   0  0  0  0  0  0  0  0  0  0  0  0
    0.4856    1.1975   -1.7256 H   0  0  0  0  0  0  0  0  0  0  0  0
   -1.9032   -0.3402   -1.7909 H   0  0  0  0  0  0  0  0  0  0  0  0
   -3.0586   -0.1675    1.1749 H   0  0  0  0  0  0  0  0  0  0  0  0
   -3.8982   -0.9413   -0.3239 H   0  0  0  0  0  0  0  0  0  0  0  0
  1  2  1  0
  2  3  1  0
  3  4  1  0
  4  5  1  0
  5  6  2  0
  5  7  1  0
  7  8  1  0
  8  9  1  0
  9  7  1  0
  1 10  1  0
  1 11  1  0
  1 12  1  0
  3 13  1  0
  3 14  1  0
  4 15  1  0
  4 16  1  0
  7 17  1  0
  8 18  1  0
  8 19  1  0
M  END
