
     RDKit          3D

 23 22  0  0  0  0  0  0  0  0999 V2000
    3.0544   -0.6779    0.1321 C   0  0  0  0  0  0  0  0  0  0  0  0
    1.8125   -0.3180   -0.3573 O   0  0  0  0  0  0  0  0  0  0  0  0
    0.8384   -0.2830    0.6060 C   0  0  0  0  0  0  0  0  0  0  0  0
   -0.4355    0.1186   -0.1065 C   0  0  0  0  0  0  0  0  0  0  0  0
   -0.6850   -0.9598   -1.1685 C   0  0  0  0  0  0  0  0  0  0  0  0
   -0.1413    1.4191   -0.8236 C   0  0  0  0  0  0  0  0  0  0  0  0
   -1.6027    0.2362    0.8417 C   0  0  0  0  0  0  0  0  0  0  0  0
   -2.8185    0.6287    0.1195 C   0  0  0  0  0  0  0  0  0  0  0  0
   -3.7270   -0.1191   -0.1800 O   0  0  0  0  0  0  0  0  0  0  0  0
    2.9812   -1.6731    0.5729 H   0  0  0  0  0  0  0  0  0  0  0  0
    3.7352   -0.7723   -0.7719 H   0  0  0  0  0  0  0  0  0  0  0  0
    3.5351    0.0767    0.7866 H   0  0  0  0  0  0  0  0  0  0  0  0
    1.0197    0.4324    1.4326 H   0  0  0  0  0  0  0  0  0  0  0  0
    0.7195   -1.2985    1.0341 H   0  0  0  0  0  0  0  0  0  0  0  0
   -0.1831   -0.6425   -2.1320 H   0  0  0  0  0  0  0  0  0  0  0  0
   -0.1778   -1.9050   -0.8863 H   0  0  0  0  0  0  0  0  0  0  0  0
   -1.7446   -1.1646   -1.3183 H   0  0  0  0  0  0  0  0  0  0  0  0
   -0.9995    1.7618   -1.4351 H   0  0  0  0  0  0  0  0  0  0  0  0
    0.1217    2.1614   -0.0281 H   0  0  0  0  0  0  0  0  0  0  0  0
    0.7748    1.2750   -1.4311 H   0  0  0  0  0  0  0  0  0  0  0  0
   -1.3344    0.8520    1.7100 H   0  0  0  0  0  0  0  0  0  0  0  0
   -1.7862   -0.8272    1.2105 H   0  0  0  0  0  0  0  0  0  0  0  0
   -2.9565    1.6792   -0.1935 H   0  0  0  0  0  0  0  0  0  0  0  0
  1  2  1  0
  2  3  1  0
  3  4  1  0
  4  5  1  0
  4  6  1  0
  4  7  1  0
  7  8  1  0
  8  9  2  0
  1 10  1  0
  1 11  1  0
  1 12  1  0
  3 13  1  0
  3 14  1  0
  5 15  1  0
  5 16  1  0
  5 17  1  0
  6 18  1  0
  6 19  1  0
  6 20  1  0
  7 21  1  0
  7 22  1  0
  8 23  1  0
M  END
