
     RDKit          3D

 20 20  0  0  0  0  0  0  0  0999 V2000
    3.3319   -0.1794    0.2062 C   0  0  0  0  0  0  0  0  0  0  0  0
    2.0381   -0.4061    0.6541 O   0  0  0  0  0  0  0  0  0  0  0  0
    1.1048    0.3800   -0.0193 C   0  0  0  0  0  0  0  0  0  0  0  0
   -0.2637    0.0392    0.5605 C   0  0  0  0  0  0  0  0  0  0  0  0
   -0.6000   -1.3162    0.3999 O   0  0  0  0  0  0  0  0  0  0  0  0
   -1.2993   -1.0892   -0.7958 C   0  0  0  0  0  0  0  0  0  0  0  0
   -1.4175    0.3672   -0.3545 C   0  0  0  0  0  0  0  0  0  0  0  0
   -2.7024    0.5460    0.4116 C   0  0  0  0  0  0  0  0  0  0  0  0
    3.6746    0.8473    0.3271 H   0  0  0  0  0  0  0  0  0  0  0  0
    3.9870   -0.9445    0.6712 H   0  0  0  0  0  0  0  0  0  0  0  0
    3.3330   -0.3910   -0.8971 H   0  0  0  0  0  0  0  0  0  0  0  0
    1.0768    0.1833   -1.1047 H   0  0  0  0  0  0  0  0  0  0  0  0
    1.2628    1.4667    0.2047 H   0  0  0  0  0  0  0  0  0  0  0  0
   -0.4375    0.4247    1.5863 H   0  0  0  0  0  0  0  0  0  0  0  0
   -2.2279   -1.6576   -0.8017 H   0  0  0  0  0  0  0  0  0  0  0  0
   -0.6743   -1.1287   -1.7029 H   0  0  0  0  0  0  0  0  0  0  0  0
   -1.2007    1.1105   -1.1244 H   0  0  0  0  0  0  0  0  0  0  0  0
   -2.5951    0.1259    1.4391 H   0  0  0  0  0  0  0  0  0  0  0  0
   -3.4883   -0.0109   -0.1288 H   0  0  0  0  0  0  0  0  0  0  0  0
   -2.9020    1.6326    0.4687 H   0  0  0  0  0  0  0  0  0  0  0  0
  1  2  1  0
  2  3  1  0
  3  4  1  0
  4  5  1  0
  5  6  1  0
  6  7  1  0
  7  8  1  0
  7  4  1  0
  1  9  1  0
  1 10  1  0
  1 11  1  0
  3 12  1  0
  3 13  1  0
  4 14  1  0
  6 15  1  0
  6 16  1  0
  7 17  1  0
  8 18  1  0
  8 19  1  0
  8 20  1  0
M  END
