
     RDKit          3D

 21 20  0  0  0  0  0  0  0  0999 V2000
    4.3358   -1.0010   -0.4506 C   0  0  0  0  0  0  0  0  0  0  0  0
    2.9420   -1.1487   -0.4638 O   0  0  0  0  0  0  0  0  0  0  0  0
    2.4237   -0.0991    0.2853 C   0  0  0  0  0  0  0  0  0  0  0  0
    0.9659   -0.2452    0.2773 C   0  0  0  0  0  0  0  0  0  0  0  0
   -0.2453   -0.3455    0.2672 C   0  0  0  0  0  0  0  0  0  0  0  0
   -1.7057   -0.4631    0.2743 C   0  0  0  0  0  0  0  0  0  0  0  0
   -2.3839    0.8171   -0.1498 C   0  0  0  0  0  0  0  0  0  0  0  0
   -3.8848    0.5493   -0.0955 C   0  0  0  0  0  0  0  0  0  0  0  0
   -2.0690    1.2137   -1.4200 O   0  0  0  0  0  0  0  0  0  0  0  0
    4.6244   -0.0284   -0.8953 H   0  0  0  0  0  0  0  0  0  0  0  0
    4.6542   -0.9696    0.6128 H   0  0  0  0  0  0  0  0  0  0  0  0
    4.8306   -1.7941   -1.0121 H   0  0  0  0  0  0  0  0  0  0  0  0
    2.7546    0.8594   -0.1233 H   0  0  0  0  0  0  0  0  0  0  0  0
    2.8390   -0.1826    1.3106 H   0  0  0  0  0  0  0  0  0  0  0  0
   -2.0087   -0.6913    1.3149 H   0  0  0  0  0  0  0  0  0  0  0  0
   -1.9607   -1.3013   -0.4044 H   0  0  0  0  0  0  0  0  0  0  0  0
   -2.1841    1.6301    0.5452 H   0  0  0  0  0  0  0  0  0  0  0  0
   -4.4450    1.4133   -0.4558 H   0  0  0  0  0  0  0  0  0  0  0  0
   -4.1298    0.2862    0.9683 H   0  0  0  0  0  0  0  0  0  0  0  0
   -4.0528   -0.3636   -0.6973 H   0  0  0  0  0  0  0  0  0  0  0  0
   -1.3004    1.8645   -1.4440 H   0  0  0  0  0  0  0  0  0  0  0  0
  1  2  1  0
  2  3  1  0
  3  4  1  0
  4  5  3  0
  5  6  1  0
  6  7  1  0
  7  8  1  0
  7  9  1  0
  1 10  1  0
  1 11  1  0
  1 12  1  0
  3 13  1  0
  3 14  1  0
  6 15  1  0
  6 16  1  0
  7 17  1  0
  8 18  1  0
  8 19  1  0
  8 20  1  0
  9 21  1  0
M  END
