
     RDKit          3D

 19 18  0  0  0  0  0  0  0  0999 V2000
    4.1145    0.2177   -0.2321 C   0  0  0  0  0  0  0  0  0  0  0  0
    2.7347    0.3605   -0.3161 O   0  0  0  0  0  0  0  0  0  0  0  0
    2.1513   -0.8703   -0.1192 C   0  0  0  0  0  0  0  0  0  0  0  0
    0.6738   -0.7661   -0.2001 C   0  0  0  0  0  0  0  0  0  0  0  0
   -0.5275   -0.6835   -0.2450 C   0  0  0  0  0  0  0  0  0  0  0  0
   -1.9826   -0.5631   -0.3147 C   0  0  0  0  0  0  0  0  0  0  0  0
   -2.4514    0.7545    0.1930 C   0  0  0  0  0  0  0  0  0  0  0  0
   -3.9176    1.0110    0.1826 C   0  0  0  0  0  0  0  0  0  0  0  0
   -1.6557    1.6054    0.6084 O   0  0  0  0  0  0  0  0  0  0  0  0
    4.4015   -0.1757    0.7785 H   0  0  0  0  0  0  0  0  0  0  0  0
    4.5011   -0.3982   -1.0546 H   0  0  0  0  0  0  0  0  0  0  0  0
    4.5401    1.2536   -0.3435 H   0  0  0  0  0  0  0  0  0  0  0  0
    2.3967   -1.2285    0.9047 H   0  0  0  0  0  0  0  0  0  0  0  0
    2.4576   -1.6445   -0.8265 H   0  0  0  0  0  0  0  0  0  0  0  0
   -2.3947   -1.3862    0.3178 H   0  0  0  0  0  0  0  0  0  0  0  0
   -2.3079   -0.6633   -1.3797 H   0  0  0  0  0  0  0  0  0  0  0  0
   -4.3739    0.2557    0.8465 H   0  0  0  0  0  0  0  0  0  0  0  0
   -4.1015    2.0318    0.5780 H   0  0  0  0  0  0  0  0  0  0  0  0
   -4.2585    0.8892   -0.8729 H   0  0  0  0  0  0  0  0  0  0  0  0
  1  2  1  0
  2  3  1  0
  3  4  1  0
  4  5  3  0
  5  6  1  0
  6  7  1  0
  7  8  1  0
  7  9  2  0
  1 10  1  0
  1 11  1  0
  1 12  1  0
  3 13  1  0
  3 14  1  0
  6 15  1  0
  6 16  1  0
  8 17  1  0
  8 18  1  0
  8 19  1  0
M  END
