
     RDKit          3D

 23 24  0  0  0  0  0  0  0  0999 V2000
   -3.6915    0.2715   -0.3303 C   0  0  0  0  0  0  0  0  0  0  0  0
   -2.4685    0.3279    0.3319 O   0  0  0  0  0  0  0  0  0  0  0  0
   -1.6682   -0.7053   -0.1485 C   0  0  0  0  0  0  0  0  0  0  0  0
   -0.3091   -0.7085    0.5312 C   0  0  0  0  0  0  0  0  0  0  0  0
    0.3713    0.6034    0.2586 C   0  0  0  0  0  0  0  0  0  0  0  0
    1.7092    0.8884    0.7932 C   0  0  0  0  0  0  0  0  0  0  0  0
    2.8579   -0.0497    0.6566 C   0  0  0  0  0  0  0  0  0  0  0  0
    2.4628   -0.4558   -0.7413 C   0  0  0  0  0  0  0  0  0  0  0  0
    1.4669    0.6859   -0.7329 C   0  0  0  0  0  0  0  0  0  0  0  0
   -4.2159   -0.6898   -0.1665 H   0  0  0  0  0  0  0  0  0  0  0  0
   -3.4726    0.4280   -1.4269 H   0  0  0  0  0  0  0  0  0  0  0  0
   -4.3603    1.1064   -0.0506 H   0  0  0  0  0  0  0  0  0  0  0  0
   -2.2130   -1.6534    0.0350 H   0  0  0  0  0  0  0  0  0  0  0  0
   -1.5707   -0.5991   -1.2482 H   0  0  0  0  0  0  0  0  0  0  0  0
   -0.5047   -0.7511    1.6324 H   0  0  0  0  0  0  0  0  0  0  0  0
    0.2709   -1.5698    0.2040 H   0  0  0  0  0  0  0  0  0  0  0  0
   -0.3353    1.4676    0.2462 H   0  0  0  0  0  0  0  0  0  0  0  0
    1.9548    1.9198    1.1151 H   0  0  0  0  0  0  0  0  0  0  0  0
    2.9512   -0.8504    1.3902 H   0  0  0  0  0  0  0  0  0  0  0  0
    3.8430    0.4996    0.6023 H   0  0  0  0  0  0  0  0  0  0  0  0
    3.2277   -0.2872   -1.5263 H   0  0  0  0  0  0  0  0  0  0  0  0
    2.0173   -1.4492   -0.8465 H   0  0  0  0  0  0  0  0  0  0  0  0
    1.6768    1.5707   -1.3313 H   0  0  0  0  0  0  0  0  0  0  0  0
  1  2  1  0
  2  3  1  0
  3  4  1  0
  4  5  1  0
  5  6  1  0
  6  7  1  0
  7  8  1  0
  8  9  1  0
  9  5  1  0
  9  6  1  0
  1 10  1  0
  1 11  1  0
  1 12  1  0
  3 13  1  0
  3 14  1  0
  4 15  1  0
  4 16  1  0
  5 17  1  0
  6 18  1  0
  7 19  1  0
  7 20  1  0
  8 21  1  0
  8 22  1  0
  9 23  1  0
M  END
