
     RDKit          3D

 25 24  0  0  0  0  0  0  0  0999 V2000
    2.4437    0.3588   -0.9462 C   0  0  0  0  0  0  0  0  0  0  0  0
    1.7602    1.1757   -0.0938 O   0  0  0  0  0  0  0  0  0  0  0  0
    1.2433    0.6697    1.0379 C   0  0  0  0  0  0  0  0  0  0  0  0
    0.2350   -0.4086    0.9861 C   0  0  0  0  0  0  0  0  0  0  0  0
    0.7126   -1.6706    0.3340 C   0  0  0  0  0  0  0  0  0  0  0  0
   -1.0637   -0.0234    0.3317 C   0  0  0  0  0  0  0  0  0  0  0  0
   -1.9604   -1.2489    0.3757 C   0  0  0  0  0  0  0  0  0  0  0  0
   -1.6997    1.0324    0.9210 O   0  0  0  0  0  0  0  0  0  0  0  0
   -1.8822    2.0381   -0.0223 C   0  0  0  0  0  0  0  0  0  0  0  0
    3.3213   -0.1380   -0.4622 H   0  0  0  0  0  0  0  0  0  0  0  0
    2.9209    1.0080   -1.7433 H   0  0  0  0  0  0  0  0  0  0  0  0
    1.8349   -0.3506   -1.5209 H   0  0  0  0  0  0  0  0  0  0  0  0
    2.1218    0.2414    1.6270 H   0  0  0  0  0  0  0  0  0  0  0  0
    0.8831    1.4983    1.7002 H   0  0  0  0  0  0  0  0  0  0  0  0
   -0.0138   -0.6612    2.0607 H   0  0  0  0  0  0  0  0  0  0  0  0
    0.3140   -2.5314    0.9523 H   0  0  0  0  0  0  0  0  0  0  0  0
    1.8070   -1.8126    0.3322 H   0  0  0  0  0  0  0  0  0  0  0  0
    0.2240   -1.8106   -0.6527 H   0  0  0  0  0  0  0  0  0  0  0  0
   -0.8730    0.2169   -0.7275 H   0  0  0  0  0  0  0  0  0  0  0  0
   -3.0370   -0.9547    0.4073 H   0  0  0  0  0  0  0  0  0  0  0  0
   -1.8079   -1.8027   -0.5666 H   0  0  0  0  0  0  0  0  0  0  0  0
   -1.6930   -1.8602    1.2792 H   0  0  0  0  0  0  0  0  0  0  0  0
   -2.3970    2.9277    0.3993 H   0  0  0  0  0  0  0  0  0  0  0  0
   -0.9016    2.4001   -0.4150 H   0  0  0  0  0  0  0  0  0  0  0  0
   -2.4927    1.7066   -0.8827 H   0  0  0  0  0  0  0  0  0  0  0  0
  1  2  1  0
  2  3  1  0
  3  4  1  0
  4  5  1  0
  4  6  1  0
  6  7  1  0
  6  8  1  0
  8  9  1  0
  1 10  1  0
  1 11  1  0
  1 12  1  0
  3 13  1  0
  3 14  1  0
  4 15  1  0
  5 16  1  0
  5 17  1  0
  5 18  1  0
  6 19  1  0
  7 20  1  0
  7 21  1  0
  7 22  1  0
  9 23  1  0
  9 24  1  0
  9 25  1  0
M  END
