
     RDKit          3D

 18 19  0  0  0  0  0  0  0  0999 V2000
    3.0013    0.2206   -0.2366 C   0  0  0  0  0  0  0  0  0  0  0  0
    1.7441    0.6361    0.1859 O   0  0  0  0  0  0  0  0  0  0  0  0
    0.8091   -0.3888    0.0706 C   0  0  0  0  0  0  0  0  0  0  0  0
   -0.5280    0.1205    0.5416 C   0  0  0  0  0  0  0  0  0  0  0  0
   -1.6644   -0.8346    0.4950 C   0  0  0  0  0  0  0  0  0  0  0  0
   -2.5837    0.3499    0.4270 C   0  0  0  0  0  0  0  0  0  0  0  0
   -1.4676    0.5782   -0.5335 C   0  0  0  0  0  0  0  0  0  0  0  0
   -1.5830   -0.7555   -0.8874 O   0  0  0  0  0  0  0  0  0  0  0  0
    3.6885    1.0922   -0.1137 H   0  0  0  0  0  0  0  0  0  0  0  0
    3.3840   -0.6352    0.3501 H   0  0  0  0  0  0  0  0  0  0  0  0
    3.0050    0.0028   -1.3359 H   0  0  0  0  0  0  0  0  0  0  0  0
    1.1138   -1.1934    0.7940 H   0  0  0  0  0  0  0  0  0  0  0  0
    0.7796   -0.8295   -0.9378 H   0  0  0  0  0  0  0  0  0  0  0  0
   -0.4535    0.8097    1.3833 H   0  0  0  0  0  0  0  0  0  0  0  0
   -1.8009   -1.6687    1.0426 H   0  0  0  0  0  0  0  0  0  0  0  0
   -2.5361    1.0284    1.2796 H   0  0  0  0  0  0  0  0  0  0  0  0
   -3.5708    0.1056    0.0114 H   0  0  0  0  0  0  0  0  0  0  0  0
   -1.3374    1.3616   -1.1551 H   0  0  0  0  0  0  0  0  0  0  0  0
  1  2  1  0
  2  3  1  0
  3  4  1  0
  4  5  1  0
  5  6  1  0
  6  7  1  0
  7  8  1  0
  7  4  1  0
  8  5  1  0
  1  9  1  0
  1 10  1  0
  1 11  1  0
  3 12  1  0
  3 13  1  0
  4 14  1  0
  5 15  1  0
  6 16  1  0
  6 17  1  0
  7 18  1  0
M  END
