
     RDKit          3D

 23 24  0  0  0  0  0  0  0  0999 V2000
    3.3458   -0.2150   -0.3214 C   0  0  0  0  0  0  0  0  0  0  0  0
    1.9801   -0.1718   -0.4734 O   0  0  0  0  0  0  0  0  0  0  0  0
    1.3050    0.0077    0.7148 C   0  0  0  0  0  0  0  0  0  0  0  0
   -0.1619    0.0591    0.5918 C   0  0  0  0  0  0  0  0  0  0  0  0
   -0.9870   -1.0220    0.0772 C   0  0  0  0  0  0  0  0  0  0  0  0
   -0.4737   -0.7430   -1.2945 C   0  0  0  0  0  0  0  0  0  0  0  0
   -0.6303    0.6094   -0.7197 C   0  0  0  0  0  0  0  0  0  0  0  0
   -1.9879    0.0709   -0.2916 C   0  0  0  0  0  0  0  0  0  0  0  0
   -2.6105    0.8482    0.7886 C   0  0  0  0  0  0  0  0  0  0  0  0
    3.7925    0.6890    0.1139 H   0  0  0  0  0  0  0  0  0  0  0  0
    3.7908   -0.3552   -1.3277 H   0  0  0  0  0  0  0  0  0  0  0  0
    3.6222   -1.0806    0.3340 H   0  0  0  0  0  0  0  0  0  0  0  0
    1.6169   -0.7457    1.4784 H   0  0  0  0  0  0  0  0  0  0  0  0
    1.7177    0.9754    1.1410 H   0  0  0  0  0  0  0  0  0  0  0  0
   -0.6849    0.5321    1.4833 H   0  0  0  0  0  0  0  0  0  0  0  0
   -1.2463   -1.9104    0.4692 H   0  0  0  0  0  0  0  0  0  0  0  0
   -1.3100   -0.8671   -2.0697 H   0  0  0  0  0  0  0  0  0  0  0  0
    0.4529   -1.1449   -1.6384 H   0  0  0  0  0  0  0  0  0  0  0  0
   -0.4551    1.5074   -1.1133 H   0  0  0  0  0  0  0  0  0  0  0  0
   -2.6246   -0.2909   -1.1025 H   0  0  0  0  0  0  0  0  0  0  0  0
   -2.6669    0.2874    1.7495 H   0  0  0  0  0  0  0  0  0  0  0  0
   -2.1321    1.8352    0.9686 H   0  0  0  0  0  0  0  0  0  0  0  0
   -3.6527    1.1246    0.4420 H   0  0  0  0  0  0  0  0  0  0  0  0
  1  2  1  0
  2  3  1  0
  3  4  1  0
  4  5  1  0
  5  6  1  0
  6  7  1  0
  7  8  1  0
  8  9  1  0
  7  4  1  0
  8  5  1  0
  1 10  1  0
  1 11  1  0
  1 12  1  0
  3 13  1  0
  3 14  1  0
  4 15  1  0
  5 16  1  0
  6 17  1  0
  6 18  1  0
  7 19  1  0
  8 20  1  0
  9 21  1  0
  9 22  1  0
  9 23  1  0
M  END
