
     RDKit          3D

 17 18  0  0  0  0  0  0  0  0999 V2000
    2.5141    0.3014   -0.2098 C   0  0  0  0  0  0  0  0  0  0  0  0
    1.5353    0.0991   -1.1610 O   0  0  0  0  0  0  0  0  0  0  0  0
    0.4087   -0.5447   -0.7334 C   0  0  0  0  0  0  0  0  0  0  0  0
   -0.3477    0.1322    0.3578 C   0  0  0  0  0  0  0  0  0  0  0  0
   -1.5875   -0.5603    0.8389 C   0  0  0  0  0  0  0  0  0  0  0  0
   -1.9887    0.6972    1.2681 O   0  0  0  0  0  0  0  0  0  0  0  0
   -1.5148    0.9700   -0.0185 C   0  0  0  0  0  0  0  0  0  0  0  0
   -2.2054   -0.2347   -0.4164 C   0  0  0  0  0  0  0  0  0  0  0  0
   -2.8807   -0.6547   -1.2914 O   0  0  0  0  0  0  0  0  0  0  0  0
    3.3510    0.8340   -0.7428 H   0  0  0  0  0  0  0  0  0  0  0  0
    2.2237    0.8968    0.6557 H   0  0  0  0  0  0  0  0  0  0  0  0
    2.9318   -0.6900    0.1368 H   0  0  0  0  0  0  0  0  0  0  0  0
   -0.2662   -0.7541   -1.5814 H   0  0  0  0  0  0  0  0  0  0  0  0
    0.6917   -1.5667   -0.3393 H   0  0  0  0  0  0  0  0  0  0  0  0
    0.2768    0.6013    1.1319 H   0  0  0  0  0  0  0  0  0  0  0  0
   -1.6238   -1.4093    1.3840 H   0  0  0  0  0  0  0  0  0  0  0  0
   -1.5183    1.8823   -0.4492 H   0  0  0  0  0  0  0  0  0  0  0  0
  1  2  1  0
  2  3  1  0
  3  4  1  0
  4  5  1  0
  5  6  1  0
  6  7  1  0
  7  8  1  0
  8  9  2  0
  7  4  1  0
  8  5  1  0
  1 10  1  0
  1 11  1  0
  1 12  1  0
  3 13  1  0
  3 14  1  0
  4 15  1  0
  5 16  1  0
  7 17  1  0
M  END
