
     RDKit          3D

 23 22  0  0  0  0  0  0  0  0999 V2000
    3.3114    0.5581    0.1431 C   0  0  0  0  0  0  0  0  0  0  0  0
    1.9773    0.9488   -0.0100 O   0  0  0  0  0  0  0  0  0  0  0  0
    1.2127   -0.2025    0.0137 C   0  0  0  0  0  0  0  0  0  0  0  0
   -0.2669    0.0868   -0.1445 C   0  0  0  0  0  0  0  0  0  0  0  0
   -0.6321    0.9034    0.9111 O   0  0  0  0  0  0  0  0  0  0  0  0
   -1.1069    2.1376    0.5002 C   0  0  0  0  0  0  0  0  0  0  0  0
   -0.9840   -1.2395   -0.1014 C   0  0  0  0  0  0  0  0  0  0  0  0
   -2.4725   -1.1061   -0.1325 C   0  0  0  0  0  0  0  0  0  0  0  0
   -0.5862   -2.0146   -1.1720 O   0  0  0  0  0  0  0  0  0  0  0  0
    3.6267   -0.1310   -0.6904 H   0  0  0  0  0  0  0  0  0  0  0  0
    4.0052    1.4185    0.1824 H   0  0  0  0  0  0  0  0  0  0  0  0
    3.4334    0.0075    1.0983 H   0  0  0  0  0  0  0  0  0  0  0  0
    1.3272   -0.6450    1.0413 H   0  0  0  0  0  0  0  0  0  0  0  0
    1.6025   -0.8824   -0.7657 H   0  0  0  0  0  0  0  0  0  0  0  0
   -0.4189    0.5655   -1.1372 H   0  0  0  0  0  0  0  0  0  0  0  0
   -2.0044    2.0698   -0.1473 H   0  0  0  0  0  0  0  0  0  0  0  0
   -0.3290    2.6883   -0.0864 H   0  0  0  0  0  0  0  0  0  0  0  0
   -1.2763    2.7500    1.4097 H   0  0  0  0  0  0  0  0  0  0  0  0
   -0.6652   -1.7368    0.8534 H   0  0  0  0  0  0  0  0  0  0  0  0
   -2.8816   -0.4381    0.6499 H   0  0  0  0  0  0  0  0  0  0  0  0
   -2.8012   -0.8308   -1.1523 H   0  0  0  0  0  0  0  0  0  0  0  0
   -2.9009   -2.1129    0.0701 H   0  0  0  0  0  0  0  0  0  0  0  0
   -1.1705   -2.7949   -1.3334 H   0  0  0  0  0  0  0  0  0  0  0  0
  1  2  1  0
  2  3  1  0
  3  4  1  0
  4  5  1  0
  5  6  1  0
  4  7  1  0
  7  8  1  0
  7  9  1  0
  1 10  1  0
  1 11  1  0
  1 12  1  0
  3 13  1  0
  3 14  1  0
  4 15  1  0
  6 16  1  0
  6 17  1  0
  6 18  1  0
  7 19  1  0
  8 20  1  0
  8 21  1  0
  8 22  1  0
  9 23  1  0
M  END
