
     RDKit          3D

 21 21  0  0  0  0  0  0  0  0999 V2000
    3.0140    0.6941    0.3615 C   0  0  0  0  0  0  0  0  0  0  0  0
    1.6662    0.4789    0.7002 O   0  0  0  0  0  0  0  0  0  0  0  0
    0.9669    0.1718   -0.4610 C   0  0  0  0  0  0  0  0  0  0  0  0
   -0.4666   -0.0560   -0.0944 C   0  0  0  0  0  0  0  0  0  0  0  0
   -0.5303   -1.2700    0.8027 C   0  0  0  0  0  0  0  0  0  0  0  0
   -1.3561   -0.2704   -1.2976 C   0  0  0  0  0  0  0  0  0  0  0  0
   -2.5921    0.1138   -0.8254 O   0  0  0  0  0  0  0  0  0  0  0  0
   -2.4219    0.6969    0.4146 C   0  0  0  0  0  0  0  0  0  0  0  0
   -1.0623    1.0584    0.4973 O   0  0  0  0  0  0  0  0  0  0  0  0
    3.5323    0.9331    1.3018 H   0  0  0  0  0  0  0  0  0  0  0  0
    3.1072    1.5764   -0.3046 H   0  0  0  0  0  0  0  0  0  0  0  0
    3.4472   -0.2129   -0.1080 H   0  0  0  0  0  0  0  0  0  0  0  0
    1.0192    1.0142   -1.1829 H   0  0  0  0  0  0  0  0  0  0  0  0
    1.3679   -0.7471   -0.8875 H   0  0  0  0  0  0  0  0  0  0  0  0
   -1.1364   -2.0784    0.3207 H   0  0  0  0  0  0  0  0  0  0  0  0
    0.4680   -1.7176    0.9804 H   0  0  0  0  0  0  0  0  0  0  0  0
   -0.9731   -1.0684    1.7811 H   0  0  0  0  0  0  0  0  0  0  0  0
   -0.9862    0.3724   -2.1146 H   0  0  0  0  0  0  0  0  0  0  0  0
   -1.4115   -1.3340   -1.6063 H   0  0  0  0  0  0  0  0  0  0  0  0
   -3.0352    1.6134    0.4653 H   0  0  0  0  0  0  0  0  0  0  0  0
   -2.6170    0.0313    1.2568 H   0  0  0  0  0  0  0  0  0  0  0  0
  1  2  1  0
  2  3  1  0
  3  4  1  0
  4  5  1  0
  4  6  1  0
  6  7  1  0
  7  8  1  0
  8  9  1  0
  9  4  1  0
  1 10  1  0
  1 11  1  0
  1 12  1  0
  3 13  1  0
  3 14  1  0
  5 15  1  0
  5 16  1  0
  5 17  1  0
  6 18  1  0
  6 19  1  0
  8 20  1  0
  8 21  1  0
M  END
