
     RDKit          3D

 23 23  0  0  0  0  0  0  0  0999 V2000
    3.3538    0.1289   -0.4307 C   0  0  0  0  0  0  0  0  0  0  0  0
    2.0846   -0.3207   -0.1259 O   0  0  0  0  0  0  0  0  0  0  0  0
    1.0852    0.5651   -0.4740 C   0  0  0  0  0  0  0  0  0  0  0  0
   -0.2365   -0.0929   -0.0665 C   0  0  0  0  0  0  0  0  0  0  0  0
   -0.5649   -1.4047   -0.6960 C   0  0  0  0  0  0  0  0  0  0  0  0
   -1.3251    0.8752    0.3155 C   0  0  0  0  0  0  0  0  0  0  0  0
   -2.6787    0.5238   -0.2484 C   0  0  0  0  0  0  0  0  0  0  0  0
   -0.6856    0.0467    1.3600 C   0  0  0  0  0  0  0  0  0  0  0  0
   -1.3381   -1.0032    1.9550 O   0  0  0  0  0  0  0  0  0  0  0  0
    3.5666    1.0724    0.0982 H   0  0  0  0  0  0  0  0  0  0  0  0
    3.5192    0.3007   -1.5065 H   0  0  0  0  0  0  0  0  0  0  0  0
    4.0635   -0.6790   -0.1245 H   0  0  0  0  0  0  0  0  0  0  0  0
    1.0773    0.7666   -1.5640 H   0  0  0  0  0  0  0  0  0  0  0  0
    1.1723    1.5515    0.0294 H   0  0  0  0  0  0  0  0  0  0  0  0
   -0.1922   -1.4119   -1.7492 H   0  0  0  0  0  0  0  0  0  0  0  0
    0.0141   -2.1926   -0.1306 H   0  0  0  0  0  0  0  0  0  0  0  0
   -1.6338   -1.6258   -0.6487 H   0  0  0  0  0  0  0  0  0  0  0  0
   -1.1017    1.9543    0.2892 H   0  0  0  0  0  0  0  0  0  0  0  0
   -3.0767   -0.4205    0.1433 H   0  0  0  0  0  0  0  0  0  0  0  0
   -3.3835    1.3327   -0.0113 H   0  0  0  0  0  0  0  0  0  0  0  0
   -2.5540    0.4162   -1.3509 H   0  0  0  0  0  0  0  0  0  0  0  0
    0.0578    0.5845    2.0104 H   0  0  0  0  0  0  0  0  0  0  0  0
   -1.2236   -0.9670    2.9264 H   0  0  0  0  0  0  0  0  0  0  0  0
  1  2  1  0
  2  3  1  0
  3  4  1  0
  4  5  1  0
  4  6  1  0
  6  7  1  0
  6  8  1  0
  8  9  1  0
  8  4  1  0
  1 10  1  0
  1 11  1  0
  1 12  1  0
  3 13  1  0
  3 14  1  0
  5 15  1  0
  5 16  1  0
  5 17  1  0
  6 18  1  0
  7 19  1  0
  7 20  1  0
  7 21  1  0
  8 22  1  0
  9 23  1  0
M  END
