
     RDKit          3D

 23 23  0  0  0  0  0  0  0  0999 V2000
    2.7508   -0.2605    0.2989 C   0  0  0  0  0  0  0  0  0  0  0  0
    2.1406   -0.7422   -0.8485 O   0  0  0  0  0  0  0  0  0  0  0  0
    0.8541   -1.1462   -0.5957 C   0  0  0  0  0  0  0  0  0  0  0  0
    0.0260   -0.0281   -0.0922 C   0  0  0  0  0  0  0  0  0  0  0  0
   -0.0531    1.1351   -1.0882 C   0  0  0  0  0  0  0  0  0  0  0  0
   -1.3070    1.8142   -0.5181 C   0  0  0  0  0  0  0  0  0  0  0  0
   -2.1613    0.7521   -0.3621 O   0  0  0  0  0  0  0  0  0  0  0  0
   -1.4542   -0.3652   -0.0129 C   0  0  0  0  0  0  0  0  0  0  0  0
   -1.8510   -0.8557    1.3507 C   0  0  0  0  0  0  0  0  0  0  0  0
    2.7850   -1.0353    1.1072 H   0  0  0  0  0  0  0  0  0  0  0  0
    2.3112    0.6839    0.6677 H   0  0  0  0  0  0  0  0  0  0  0  0
    3.8463   -0.0447    0.1106 H   0  0  0  0  0  0  0  0  0  0  0  0
    0.4415   -1.6203   -1.5085 H   0  0  0  0  0  0  0  0  0  0  0  0
    0.9067   -1.9124    0.2164 H   0  0  0  0  0  0  0  0  0  0  0  0
    0.3495    0.3264    0.8784 H   0  0  0  0  0  0  0  0  0  0  0  0
   -0.3248    0.7667   -2.0735 H   0  0  0  0  0  0  0  0  0  0  0  0
    0.8207    1.7828   -1.0345 H   0  0  0  0  0  0  0  0  0  0  0  0
   -0.9690    2.2579    0.4534 H   0  0  0  0  0  0  0  0  0  0  0  0
   -1.6984    2.5698   -1.2151 H   0  0  0  0  0  0  0  0  0  0  0  0
   -1.6494   -1.1397   -0.8106 H   0  0  0  0  0  0  0  0  0  0  0  0
   -2.3984   -0.0990    1.9450 H   0  0  0  0  0  0  0  0  0  0  0  0
   -0.8998   -1.0750    1.9036 H   0  0  0  0  0  0  0  0  0  0  0  0
   -2.4662   -1.7647    1.2281 H   0  0  0  0  0  0  0  0  0  0  0  0
  1  2  1  0
  2  3  1  0
  3  4  1  0
  4  5  1  0
  5  6  1  0
  6  7  1  0
  7  8  1  0
  8  9  1  0
  8  4  1  0
  1 10  1  0
  1 11  1  0
  1 12  1  0
  3 13  1  0
  3 14  1  0
  4 15  1  0
  5 16  1  0
  5 17  1  0
  6 18  1  0
  6 19  1  0
  8 20  1  0
  9 21  1  0
  9 22  1  0
  9 23  1  0
M  END
