
     RDKit          3D

 20 20  0  0  0  0  0  0  0  0999 V2000
    3.3623   -0.2564   -0.3325 C   0  0  0  0  0  0  0  0  0  0  0  0
    2.0474   -0.4314    0.1024 O   0  0  0  0  0  0  0  0  0  0  0  0
    1.1726    0.3935   -0.6141 C   0  0  0  0  0  0  0  0  0  0  0  0
   -0.2147    0.1774   -0.1217 C   0  0  0  0  0  0  0  0  0  0  0  0
   -0.5966   -0.6555    0.8404 C   0  0  0  0  0  0  0  0  0  0  0  0
   -2.0676   -0.5777    1.0346 C   0  0  0  0  0  0  0  0  0  0  0  0
   -2.5119   -0.1253   -0.3639 C   0  0  0  0  0  0  0  0  0  0  0  0
   -1.4248    0.8897   -0.6545 C   0  0  0  0  0  0  0  0  0  0  0  0
    3.4101   -0.5190   -1.4227 H   0  0  0  0  0  0  0  0  0  0  0  0
    3.7417    0.7593   -0.1326 H   0  0  0  0  0  0  0  0  0  0  0  0
    4.0146   -0.9914    0.1736 H   0  0  0  0  0  0  0  0  0  0  0  0
    1.4536    1.4367   -0.4224 H   0  0  0  0  0  0  0  0  0  0  0  0
    1.2711    0.1639   -1.7048 H   0  0  0  0  0  0  0  0  0  0  0  0
    0.0655   -1.2986    1.4028 H   0  0  0  0  0  0  0  0  0  0  0  0
   -2.5305   -1.5155    1.3329 H   0  0  0  0  0  0  0  0  0  0  0  0
   -2.2776    0.2755    1.7062 H   0  0  0  0  0  0  0  0  0  0  0  0
   -3.5029    0.3269   -0.3401 H   0  0  0  0  0  0  0  0  0  0  0  0
   -2.4172   -0.9857   -1.0540 H   0  0  0  0  0  0  0  0  0  0  0  0
   -1.6572    1.7835   -0.0043 H   0  0  0  0  0  0  0  0  0  0  0  0
   -1.3380    1.1501   -1.7049 H   0  0  0  0  0  0  0  0  0  0  0  0
  1  2  1  0
  2  3  1  0
  3  4  1  0
  4  5  2  0
  5  6  1  0
  6  7  1  0
  7  8  1  0
  8  4  1  0
  1  9  1  0
  1 10  1  0
  1 11  1  0
  3 12  1  0
  3 13  1  0
  5 14  1  0
  6 15  1  0
  6 16  1  0
  7 17  1  0
  7 18  1  0
  8 19  1  0
  8 20  1  0
M  END
