
     RDKit          3D

 21 21  0  0  0  0  0  0  0  0999 V2000
    2.0641   -1.0084    0.7073 C   0  0  0  0  0  0  0  0  0  0  0  0
    1.5269   -1.3938   -0.4998 O   0  0  0  0  0  0  0  0  0  0  0  0
    1.0622   -0.3323   -1.2550 C   0  0  0  0  0  0  0  0  0  0  0  0
   -0.0092    0.4433   -0.5686 C   0  0  0  0  0  0  0  0  0  0  0  0
    0.0722    1.7315   -0.2652 C   0  0  0  0  0  0  0  0  0  0  0  0
   -1.2265    2.0622    0.4065 C   0  0  0  0  0  0  0  0  0  0  0  0
   -1.6279    0.8211    0.9448 O   0  0  0  0  0  0  0  0  0  0  0  0
   -1.3373   -0.0225   -0.0983 C   0  0  0  0  0  0  0  0  0  0  0  0
   -1.3210   -1.4521    0.3612 C   0  0  0  0  0  0  0  0  0  0  0  0
    2.9254   -0.3213    0.5754 H   0  0  0  0  0  0  0  0  0  0  0  0
    2.4481   -1.9013    1.2262 H   0  0  0  0  0  0  0  0  0  0  0  0
    1.2827   -0.5132    1.2954 H   0  0  0  0  0  0  0  0  0  0  0  0
    1.8504    0.3172   -1.6597 H   0  0  0  0  0  0  0  0  0  0  0  0
    0.5659   -0.7938   -2.1593 H   0  0  0  0  0  0  0  0  0  0  0  0
    0.8497    2.4627   -0.4221 H   0  0  0  0  0  0  0  0  0  0  0  0
   -1.9832    2.4216   -0.3257 H   0  0  0  0  0  0  0  0  0  0  0  0
   -1.0502    2.8127    1.1887 H   0  0  0  0  0  0  0  0  0  0  0  0
   -2.0447    0.1187   -0.9393 H   0  0  0  0  0  0  0  0  0  0  0  0
   -2.3559   -1.8886    0.2955 H   0  0  0  0  0  0  0  0  0  0  0  0
   -0.9847   -1.5052    1.4127 H   0  0  0  0  0  0  0  0  0  0  0  0
   -0.7069   -2.0584   -0.3278 H   0  0  0  0  0  0  0  0  0  0  0  0
  1  2  1  0
  2  3  1  0
  3  4  1  0
  4  5  2  0
  5  6  1  0
  6  7  1  0
  7  8  1  0
  8  9  1  0
  8  4  1  0
  1 10  1  0
  1 11  1  0
  1 12  1  0
  3 13  1  0
  3 14  1  0
  5 15  1  0
  6 16  1  0
  6 17  1  0
  8 18  1  0
  9 19  1  0
  9 20  1  0
  9 21  1  0
M  END
