
     RDKit          3D

 21 22  0  0  0  0  0  0  0  0999 V2000
    3.0615   -0.1575   -0.8455 C   0  0  0  0  0  0  0  0  0  0  0  0
    2.0719    0.5679   -0.1918 O   0  0  0  0  0  0  0  0  0  0  0  0
    0.9768   -0.2562   -0.0310 C   0  0  0  0  0  0  0  0  0  0  0  0
   -0.1698    0.4357    0.6750 C   0  0  0  0  0  0  0  0  0  0  0  0
   -1.3817   -0.4632    0.8577 C   0  0  0  0  0  0  0  0  0  0  0  0
   -1.4616   -1.1005   -0.4800 C   0  0  0  0  0  0  0  0  0  0  0  0
   -1.2473   -0.0501   -1.3135 C   0  0  0  0  0  0  0  0  0  0  0  0
   -1.0900    1.0774   -0.3760 C   0  0  0  0  0  0  0  0  0  0  0  0
   -2.2036    0.7984    0.6139 C   0  0  0  0  0  0  0  0  0  0  0  0
    3.3259   -1.0281   -0.2410 H   0  0  0  0  0  0  0  0  0  0  0  0
    2.7255   -0.4719   -1.8654 H   0  0  0  0  0  0  0  0  0  0  0  0
    3.9594    0.4947   -1.0313 H   0  0  0  0  0  0  0  0  0  0  0  0
    0.6834   -0.6202   -1.0253 H   0  0  0  0  0  0  0  0  0  0  0  0
    1.3179   -1.1333    0.5845 H   0  0  0  0  0  0  0  0  0  0  0  0
    0.0879    1.0908    1.4993 H   0  0  0  0  0  0  0  0  0  0  0  0
   -1.5100   -1.0092    1.7381 H   0  0  0  0  0  0  0  0  0  0  0  0
   -1.6425   -2.1323   -0.7475 H   0  0  0  0  0  0  0  0  0  0  0  0
   -1.2075   -0.0680   -2.3955 H   0  0  0  0  0  0  0  0  0  0  0  0
   -0.8892    2.0523   -0.6953 H   0  0  0  0  0  0  0  0  0  0  0  0
   -3.1757    0.5458    0.1426 H   0  0  0  0  0  0  0  0  0  0  0  0
   -2.2312    1.4275    1.5035 H   0  0  0  0  0  0  0  0  0  0  0  0
  1  2  1  0
  2  3  1  0
  3  4  1  0
  4  5  1  0
  5  6  1  0
  6  7  2  0
  7  8  1  0
  8  9  1  0
  8  4  1  0
  9  5  1  0
  1 10  1  0
  1 11  1  0
  1 12  1  0
  3 13  1  0
  3 14  1  0
  4 15  1  0
  5 16  1  0
  6 17  1  0
  7 18  1  0
  8 19  1  0
  9 20  1  0
  9 21  1  0
M  END
