
     RDKit          3D

 23 23  0  0  0  0  0  0  0  0999 V2000
    3.3207   -0.8871    0.4233 C   0  0  0  0  0  0  0  0  0  0  0  0
    2.1891   -0.1378    0.7189 O   0  0  0  0  0  0  0  0  0  0  0  0
    1.3332   -0.0004   -0.3440 C   0  0  0  0  0  0  0  0  0  0  0  0
    0.1508    0.8385    0.1325 C   0  0  0  0  0  0  0  0  0  0  0  0
   -0.6959    0.3794    1.2483 C   0  0  0  0  0  0  0  0  0  0  0  0
   -1.2221    0.4504   -0.1945 C   0  0  0  0  0  0  0  0  0  0  0  0
   -2.1684    1.6106   -0.5174 C   0  0  0  0  0  0  0  0  0  0  0  0
   -1.5566   -0.8800   -0.7803 C   0  0  0  0  0  0  0  0  0  0  0  0
   -1.1784   -1.9497    0.0471 O   0  0  0  0  0  0  0  0  0  0  0  0
    3.8939   -0.3951   -0.4057 H   0  0  0  0  0  0  0  0  0  0  0  0
    3.9878   -0.8778    1.3081 H   0  0  0  0  0  0  0  0  0  0  0  0
    3.0952   -1.9235    0.1193 H   0  0  0  0  0  0  0  0  0  0  0  0
    1.8417    0.5643   -1.1583 H   0  0  0  0  0  0  0  0  0  0  0  0
    1.0080   -0.9595   -0.7892 H   0  0  0  0  0  0  0  0  0  0  0  0
    0.4147    1.9291    0.1565 H   0  0  0  0  0  0  0  0  0  0  0  0
   -0.5319   -0.6161    1.6917 H   0  0  0  0  0  0  0  0  0  0  0  0
   -1.1737    1.1002    1.9278 H   0  0  0  0  0  0  0  0  0  0  0  0
   -1.9703    1.9682   -1.5300 H   0  0  0  0  0  0  0  0  0  0  0  0
   -1.8641    2.4303    0.1956 H   0  0  0  0  0  0  0  0  0  0  0  0
   -3.2124    1.3497   -0.3221 H   0  0  0  0  0  0  0  0  0  0  0  0
   -1.0847   -1.0676   -1.7669 H   0  0  0  0  0  0  0  0  0  0  0  0
   -2.6570   -0.9015   -0.9645 H   0  0  0  0  0  0  0  0  0  0  0  0
   -1.9197   -2.0247    0.7278 H   0  0  0  0  0  0  0  0  0  0  0  0
  1  2  1  0
  2  3  1  0
  3  4  1  0
  4  5  1  0
  5  6  1  0
  6  7  1  0
  6  8  1  0
  8  9  1  0
  6  4  1  0
  1 10  1  0
  1 11  1  0
  1 12  1  0
  3 13  1  0
  3 14  1  0
  4 15  1  0
  5 16  1  0
  5 17  1  0
  7 18  1  0
  7 19  1  0
  7 20  1  0
  8 21  1  0
  8 22  1  0
  9 23  1  0
M  END
