
     RDKit          3D

 21 21  0  0  0  0  0  0  0  0999 V2000
    3.1392    1.1436   -0.4893 C   0  0  0  0  0  0  0  0  0  0  0  0
    1.8412    0.8086   -0.8455 O   0  0  0  0  0  0  0  0  0  0  0  0
    1.4591   -0.3151   -0.0750 C   0  0  0  0  0  0  0  0  0  0  0  0
    0.0617   -0.6402   -0.4890 C   0  0  0  0  0  0  0  0  0  0  0  0
   -0.5953   -1.6985    0.3530 C   0  0  0  0  0  0  0  0  0  0  0  0
   -1.9478   -1.3099    0.2546 O   0  0  0  0  0  0  0  0  0  0  0  0
   -1.8301    0.0608    0.4767 C   0  0  0  0  0  0  0  0  0  0  0  0
   -3.0250    0.8268   -0.0421 C   0  0  0  0  0  0  0  0  0  0  0  0
   -0.7216    0.4848   -0.2102 O   0  0  0  0  0  0  0  0  0  0  0  0
    3.4273    2.0266   -1.1007 H   0  0  0  0  0  0  0  0  0  0  0  0
    3.7940    0.2720   -0.7095 H   0  0  0  0  0  0  0  0  0  0  0  0
    3.1954    1.3266    0.5985 H   0  0  0  0  0  0  0  0  0  0  0  0
    2.1682   -1.1534   -0.2312 H   0  0  0  0  0  0  0  0  0  0  0  0
    1.4691   -0.0342    0.9932 H   0  0  0  0  0  0  0  0  0  0  0  0
   -0.0385   -0.8402   -1.5602 H   0  0  0  0  0  0  0  0  0  0  0  0
   -0.4286   -2.7149    0.0034 H   0  0  0  0  0  0  0  0  0  0  0  0
   -0.3229   -1.5440    1.4169 H   0  0  0  0  0  0  0  0  0  0  0  0
   -1.7478    0.2010    1.5827 H   0  0  0  0  0  0  0  0  0  0  0  0
   -2.9189    0.9728   -1.1418 H   0  0  0  0  0  0  0  0  0  0  0  0
   -3.0101    1.8345    0.4269 H   0  0  0  0  0  0  0  0  0  0  0  0
   -3.9688    0.2924    0.1544 H   0  0  0  0  0  0  0  0  0  0  0  0
  1  2  1  0
  2  3  1  0
  3  4  1  0
  4  5  1  0
  5  6  1  0
  6  7  1  0
  7  8  1  0
  7  9  1  0
  9  4  1  0
  1 10  1  0
  1 11  1  0
  1 12  1  0
  3 13  1  0
  3 14  1  0
  4 15  1  0
  5 16  1  0
  5 17  1  0
  7 18  1  0
  8 19  1  0
  8 20  1  0
  8 21  1  0
M  END
