
     RDKit          3D

 17 17  0  0  0  0  0  0  0  0999 V2000
   -2.9831    0.0921    0.0485 C   0  0  0  0  0  0  0  0  0  0  0  0
   -1.6485    0.2876    0.3737 O   0  0  0  0  0  0  0  0  0  0  0  0
   -0.7789   -0.2269   -0.5700 C   0  0  0  0  0  0  0  0  0  0  0  0
    0.6057    0.0294   -0.1363 C   0  0  0  0  0  0  0  0  0  0  0  0
    1.5330   -0.8673    0.1044 C   0  0  0  0  0  0  0  0  0  0  0  0
    2.8109   -0.2136    0.5241 C   0  0  0  0  0  0  0  0  0  0  0  0
    2.5064    1.1517    0.4946 O   0  0  0  0  0  0  0  0  0  0  0  0
    1.1828    1.3325    0.1000 C   0  0  0  0  0  0  0  0  0  0  0  0
    0.6561    2.4665   -0.0078 O   0  0  0  0  0  0  0  0  0  0  0  0
   -3.5901    0.5374    0.8623 H   0  0  0  0  0  0  0  0  0  0  0  0
   -3.1700   -1.0180    0.1086 H   0  0  0  0  0  0  0  0  0  0  0  0
   -3.2697    0.4870   -0.9291 H   0  0  0  0  0  0  0  0  0  0  0  0
   -1.0105    0.3098   -1.5310 H   0  0  0  0  0  0  0  0  0  0  0  0
   -0.9232   -1.3213   -0.7326 H   0  0  0  0  0  0  0  0  0  0  0  0
    1.4360   -1.9391    0.0250 H   0  0  0  0  0  0  0  0  0  0  0  0
    3.0755   -0.6029    1.5127 H   0  0  0  0  0  0  0  0  0  0  0  0
    3.5676   -0.5048   -0.2472 H   0  0  0  0  0  0  0  0  0  0  0  0
  1  2  1  0
  2  3  1  0
  3  4  1  0
  4  5  2  0
  5  6  1  0
  6  7  1  0
  7  8  1  0
  8  9  2  0
  8  4  1  0
  1 10  1  0
  1 11  1  0
  1 12  1  0
  3 13  1  0
  3 14  1  0
  5 15  1  0
  6 16  1  0
  6 17  1  0
M  END
