
     RDKit          3D

 23 23  0  0  0  0  0  0  0  0999 V2000
    2.9367   -0.9745    1.2748 C   0  0  0  0  0  0  0  0  0  0  0  0
    1.6383   -1.0510    0.7489 O   0  0  0  0  0  0  0  0  0  0  0  0
    1.5942   -0.2440   -0.3564 C   0  0  0  0  0  0  0  0  0  0  0  0
    0.2786   -0.1969   -1.0568 C   0  0  0  0  0  0  0  0  0  0  0  0
   -0.8511    0.2950   -0.2219 C   0  0  0  0  0  0  0  0  0  0  0  0
   -1.0920   -0.5573    0.9980 C   0  0  0  0  0  0  0  0  0  0  0  0
   -2.1207    0.4302   -1.0318 C   0  0  0  0  0  0  0  0  0  0  0  0
   -2.2579    1.7864   -0.3755 C   0  0  0  0  0  0  0  0  0  0  0  0
   -0.9002    1.6623   -0.0013 O   0  0  0  0  0  0  0  0  0  0  0  0
    3.6593   -1.3256    0.4968 H   0  0  0  0  0  0  0  0  0  0  0  0
    3.1461    0.1171    1.3877 H   0  0  0  0  0  0  0  0  0  0  0  0
    3.0483   -1.5399    2.2039 H   0  0  0  0  0  0  0  0  0  0  0  0
    2.3657   -0.5934   -1.0706 H   0  0  0  0  0  0  0  0  0  0  0  0
    1.8942    0.8100   -0.0951 H   0  0  0  0  0  0  0  0  0  0  0  0
    0.4023    0.4084   -1.9776 H   0  0  0  0  0  0  0  0  0  0  0  0
    0.0291   -1.2355   -1.4067 H   0  0  0  0  0  0  0  0  0  0  0  0
   -2.1706   -0.7178    1.2001 H   0  0  0  0  0  0  0  0  0  0  0  0
   -0.6645   -0.0910    1.9216 H   0  0  0  0  0  0  0  0  0  0  0  0
   -0.6371   -1.5640    0.8932 H   0  0  0  0  0  0  0  0  0  0  0  0
   -1.9719    0.4736   -2.1303 H   0  0  0  0  0  0  0  0  0  0  0  0
   -2.9405   -0.2500   -0.7383 H   0  0  0  0  0  0  0  0  0  0  0  0
   -2.9474    1.7971    0.4866 H   0  0  0  0  0  0  0  0  0  0  0  0
   -2.4389    2.5608   -1.1494 H   0  0  0  0  0  0  0  0  0  0  0  0
  1  2  1  0
  2  3  1  0
  3  4  1  0
  4  5  1  0
  5  6  1  0
  5  7  1  0
  7  8  1  0
  8  9  1  0
  9  5  1  0
  1 10  1  0
  1 11  1  0
  1 12  1  0
  3 13  1  0
  3 14  1  0
  4 15  1  0
  4 16  1  0
  6 17  1  0
  6 18  1  0
  6 19  1  0
  7 20  1  0
  7 21  1  0
  8 22  1  0
  8 23  1  0
M  END
