
     RDKit          3D

 19 18  0  0  0  0  0  0  0  0999 V2000
    3.6508   -0.4119    0.3271 C   0  0  0  0  0  0  0  0  0  0  0  0
    2.3160   -0.1363    0.2166 O   0  0  0  0  0  0  0  0  0  0  0  0
    1.7463   -0.5760   -0.9684 C   0  0  0  0  0  0  0  0  0  0  0  0
    0.3243   -0.2274   -0.9742 C   0  0  0  0  0  0  0  0  0  0  0  0
   -0.8521    0.0500   -0.9707 C   0  0  0  0  0  0  0  0  0  0  0  0
   -2.2804    0.4059   -0.9839 C   0  0  0  0  0  0  0  0  0  0  0  0
   -2.9128    0.0977    0.3650 C   0  0  0  0  0  0  0  0  0  0  0  0
   -2.2518    0.8653    1.4507 C   0  0  0  0  0  0  0  0  0  0  0  0
   -1.3337    1.6286    1.2644 O   0  0  0  0  0  0  0  0  0  0  0  0
    4.1964    0.0851   -0.5105 H   0  0  0  0  0  0  0  0  0  0  0  0
    4.0238    0.0520    1.2605 H   0  0  0  0  0  0  0  0  0  0  0  0
    3.8724   -1.5013    0.3697 H   0  0  0  0  0  0  0  0  0  0  0  0
    1.8419   -1.6724   -1.1214 H   0  0  0  0  0  0  0  0  0  0  0  0
    2.1910   -0.1010   -1.8703 H   0  0  0  0  0  0  0  0  0  0  0  0
   -2.4222    1.5111   -1.1332 H   0  0  0  0  0  0  0  0  0  0  0  0
   -2.7818   -0.0959   -1.8049 H   0  0  0  0  0  0  0  0  0  0  0  0
   -2.7029   -0.9866    0.5860 H   0  0  0  0  0  0  0  0  0  0  0  0
   -3.9872    0.3034    0.2723 H   0  0  0  0  0  0  0  0  0  0  0  0
   -2.6380    0.7098    2.4562 H   0  0  0  0  0  0  0  0  0  0  0  0
  1  2  1  0
  2  3  1  0
  3  4  1  0
  4  5  3  0
  5  6  1  0
  6  7  1  0
  7  8  1  0
  8  9  2  0
  1 10  1  0
  1 11  1  0
  1 12  1  0
  3 13  1  0
  3 14  1  0
  6 15  1  0
  6 16  1  0
  7 17  1  0
  7 18  1  0
  8 19  1  0
M  END
