
     RDKit          3D

 19 18  0  0  0  0  0  0  0  0999 V2000
    2.7222    0.0543    0.2560 C   0  0  0  0  0  0  0  0  0  0  0  0
    1.3879    0.0521    0.6397 O   0  0  0  0  0  0  0  0  0  0  0  0
    0.6221    0.0676   -0.5244 C   0  0  0  0  0  0  0  0  0  0  0  0
   -0.8568    0.0669   -0.2409 C   0  0  0  0  0  0  0  0  0  0  0  0
   -1.2883   -1.1540    0.5393 C   0  0  0  0  0  0  0  0  0  0  0  0
   -1.3133    1.2494    0.4796 C   0  0  0  0  0  0  0  0  0  0  0  0
   -0.7127    2.2975    0.3992 O   0  0  0  0  0  0  0  0  0  0  0  0
   -1.5540    0.0146   -1.5451 C   0  0  0  0  0  0  0  0  0  0  0  0
   -1.8992    1.0399   -2.0792 O   0  0  0  0  0  0  0  0  0  0  0  0
    3.4119    0.0425    1.1327 H   0  0  0  0  0  0  0  0  0  0  0  0
    2.9893   -0.8443   -0.3499 H   0  0  0  0  0  0  0  0  0  0  0  0
    2.9928    0.9480   -0.3355 H   0  0  0  0  0  0  0  0  0  0  0  0
    0.8466    1.0173   -1.0586 H   0  0  0  0  0  0  0  0  0  0  0  0
    0.8834   -0.7606   -1.1765 H   0  0  0  0  0  0  0  0  0  0  0  0
   -0.8616   -1.1953    1.5460 H   0  0  0  0  0  0  0  0  0  0  0  0
   -2.3907   -1.0923    0.6530 H   0  0  0  0  0  0  0  0  0  0  0  0
   -1.0429   -2.0642   -0.0743 H   0  0  0  0  0  0  0  0  0  0  0  0
   -2.1952    1.2000    1.0939 H   0  0  0  0  0  0  0  0  0  0  0  0
   -1.7414   -0.9393   -1.9956 H   0  0  0  0  0  0  0  0  0  0  0  0
  1  2  1  0
  2  3  1  0
  3  4  1  0
  4  5  1  0
  4  6  1  0
  6  7  2  0
  4  8  1  0
  8  9  2  0
  1 10  1  0
  1 11  1  0
  1 12  1  0
  3 13  1  0
  3 14  1  0
  5 15  1  0
  5 16  1  0
  5 17  1  0
  6 18  1  0
  8 19  1  0
M  END
