
     RDKit          3D

 21 20  0  0  0  0  0  0  0  0999 V2000
    3.9319    0.0512   -0.1972 C   0  0  0  0  0  0  0  0  0  0  0  0
    2.7803   -0.3396    0.4438 O   0  0  0  0  0  0  0  0  0  0  0  0
    1.6187   -0.0007   -0.1948 C   0  0  0  0  0  0  0  0  0  0  0  0
    0.4620   -0.5056    0.6461 C   0  0  0  0  0  0  0  0  0  0  0  0
   -0.8791   -0.1626   -0.0056 C   0  0  0  0  0  0  0  0  0  0  0  0
   -1.8570   -0.6695    0.8457 O   0  0  0  0  0  0  0  0  0  0  0  0
   -3.1344   -0.4438    0.4019 C   0  0  0  0  0  0  0  0  0  0  0  0
   -3.4375    1.0086    0.2534 C   0  0  0  0  0  0  0  0  0  0  0  0
   -4.5226    1.3993   -0.1296 O   0  0  0  0  0  0  0  0  0  0  0  0
    4.0555   -0.3699   -1.2062 H   0  0  0  0  0  0  0  0  0  0  0  0
    3.9058    1.1588   -0.3080 H   0  0  0  0  0  0  0  0  0  0  0  0
    4.7926   -0.1714    0.4653 H   0  0  0  0  0  0  0  0  0  0  0  0
    1.5768   -0.6019   -1.1485 H   0  0  0  0  0  0  0  0  0  0  0  0
    1.5089    1.0400   -0.4861 H   0  0  0  0  0  0  0  0  0  0  0  0
    0.4718   -1.6091    0.7336 H   0  0  0  0  0  0  0  0  0  0  0  0
    0.4504   -0.0564    1.6500 H   0  0  0  0  0  0  0  0  0  0  0  0
   -0.9098   -0.6212   -1.0020 H   0  0  0  0  0  0  0  0  0  0  0  0
   -0.8996    0.9468   -0.0697 H   0  0  0  0  0  0  0  0  0  0  0  0
   -3.8323   -0.8290    1.1739 H   0  0  0  0  0  0  0  0  0  0  0  0
   -3.3856   -0.9787   -0.5352 H   0  0  0  0  0  0  0  0  0  0  0  0
   -2.6968    1.7546    0.4834 H   0  0  0  0  0  0  0  0  0  0  0  0
  1  2  1  0
  2  3  1  0
  3  4  1  0
  4  5  1  0
  5  6  1  0
  6  7  1  0
  7  8  1  0
  8  9  2  0
  1 10  1  0
  1 11  1  0
  1 12  1  0
  3 13  1  0
  3 14  1  0
  4 15  1  0
  4 16  1  0
  5 17  1  0
  5 18  1  0
  7 19  1  0
  7 20  1  0
  8 21  1  0
M  END
