
     RDKit          3D

 19 18  0  0  0  0  0  0  0  0999 V2000
   -3.1183    0.3652    0.2987 C   0  0  0  0  0  0  0  0  0  0  0  0
   -2.1256   -0.6047    0.2469 O   0  0  0  0  0  0  0  0  0  0  0  0
   -0.8634   -0.0415    0.3414 C   0  0  0  0  0  0  0  0  0  0  0  0
    0.2062   -1.1070    0.2838 C   0  0  0  0  0  0  0  0  0  0  0  0
    0.0822   -1.7768   -0.9384 O   0  0  0  0  0  0  0  0  0  0  0  0
    1.5646   -0.4113    0.3679 C   0  0  0  0  0  0  0  0  0  0  0  0
    1.6750    0.5082   -0.6725 O   0  0  0  0  0  0  0  0  0  0  0  0
    2.7834    1.2961   -0.8714 C   0  0  0  0  0  0  0  0  0  0  0  0
    3.7366    1.1753   -0.0735 O   0  0  0  0  0  0  0  0  0  0  0  0
   -3.1101    0.9529    1.2302 H   0  0  0  0  0  0  0  0  0  0  0  0
   -4.1018   -0.1506    0.1554 H   0  0  0  0  0  0  0  0  0  0  0  0
   -3.0390    1.0719   -0.5682 H   0  0  0  0  0  0  0  0  0  0  0  0
   -0.6512    0.6731   -0.5033 H   0  0  0  0  0  0  0  0  0  0  0  0
   -0.7114    0.5419    1.2735 H   0  0  0  0  0  0  0  0  0  0  0  0
    0.0752   -1.8249    1.1174 H   0  0  0  0  0  0  0  0  0  0  0  0
    0.7849   -1.4287   -1.5396 H   0  0  0  0  0  0  0  0  0  0  0  0
    2.3384   -1.2078    0.1871 H   0  0  0  0  0  0  0  0  0  0  0  0
    1.7064   -0.0086    1.3732 H   0  0  0  0  0  0  0  0  0  0  0  0
    2.7680    1.9775   -1.7087 H   0  0  0  0  0  0  0  0  0  0  0  0
  1  2  1  0
  2  3  1  0
  3  4  1  0
  4  5  1  0
  4  6  1  0
  6  7  1  0
  7  8  1  0
  8  9  2  0
  1 10  1  0
  1 11  1  0
  1 12  1  0
  3 13  1  0
  3 14  1  0
  4 15  1  0
  5 16  1  0
  6 17  1  0
  6 18  1  0
  8 19  1  0
M  END
