
     RDKit          3D

 22 22  0  0  0  0  0  0  0  0999 V2000
    2.7916   -1.0497   -0.1177 C   0  0  0  0  0  0  0  0  0  0  0  0
    1.6288   -0.7019    0.5643 O   0  0  0  0  0  0  0  0  0  0  0  0
    1.0068    0.4040   -0.0471 C   0  0  0  0  0  0  0  0  0  0  0  0
   -0.2293    0.6845    0.7729 C   0  0  0  0  0  0  0  0  0  0  0  0
   -0.9753    1.8652    0.1978 C   0  0  0  0  0  0  0  0  0  0  0  0
   -1.6939    0.8654   -0.6753 C   0  0  0  0  0  0  0  0  0  0  0  0
   -1.4538   -0.1240    0.4381 C   0  0  0  0  0  0  0  0  0  0  0  0
   -1.2193   -1.5385    0.0113 C   0  0  0  0  0  0  0  0  0  0  0  0
    3.5188   -0.2150   -0.1298 H   0  0  0  0  0  0  0  0  0  0  0  0
    2.5502   -1.2689   -1.1749 H   0  0  0  0  0  0  0  0  0  0  0  0
    3.1956   -1.9675    0.3367 H   0  0  0  0  0  0  0  0  0  0  0  0
    0.8258    0.2106   -1.1008 H   0  0  0  0  0  0  0  0  0  0  0  0
    1.7365    1.2348    0.0108 H   0  0  0  0  0  0  0  0  0  0  0  0
   -0.0204    0.7539    1.8621 H   0  0  0  0  0  0  0  0  0  0  0  0
   -1.6603    2.3075    0.9391 H   0  0  0  0  0  0  0  0  0  0  0  0
   -0.3392    2.5798   -0.3572 H   0  0  0  0  0  0  0  0  0  0  0  0
   -1.0892    0.6136   -1.5576 H   0  0  0  0  0  0  0  0  0  0  0  0
   -2.7598    1.0957   -0.8726 H   0  0  0  0  0  0  0  0  0  0  0  0
   -2.2175    0.0234    1.2284 H   0  0  0  0  0  0  0  0  0  0  0  0
   -0.3132   -1.9980    0.4303 H   0  0  0  0  0  0  0  0  0  0  0  0
   -2.1271   -2.1252    0.3396 H   0  0  0  0  0  0  0  0  0  0  0  0
   -1.1558   -1.6497   -1.0983 H   0  0  0  0  0  0  0  0  0  0  0  0
  1  2  1  0
  2  3  1  0
  3  4  1  0
  4  5  1  0
  5  6  1  0
  6  7  1  0
  7  8  1  0
  7  4  1  0
  1  9  1  0
  1 10  1  0
  1 11  1  0
  3 12  1  0
  3 13  1  0
  4 14  1  0
  5 15  1  0
  5 16  1  0
  6 17  1  0
  6 18  1  0
  7 19  1  0
  8 20  1  0
  8 21  1  0
  8 22  1  0
M  END
