
     RDKit          3D

 27 26  0  0  0  0  0  0  0  0999 V2000
    1.8376    1.5820   -0.8489 C   0  0  0  0  0  0  0  0  0  0  0  0
    1.9763    0.9909    0.3795 O   0  0  0  0  0  0  0  0  0  0  0  0
    2.0343   -0.3543    0.3914 C   0  0  0  0  0  0  0  0  0  0  0  0
    0.8700   -1.1374   -0.0992 C   0  0  0  0  0  0  0  0  0  0  0  0
   -0.4140   -1.0515    0.5809 C   0  0  0  0  0  0  0  0  0  0  0  0
   -1.3739   -1.9980   -0.1945 C   0  0  0  0  0  0  0  0  0  0  0  0
   -1.1559    0.1782    0.8182 C   0  0  0  0  0  0  0  0  0  0  0  0
   -0.6056    1.2818    1.6174 C   0  0  0  0  0  0  0  0  0  0  0  0
   -1.7387    0.7581   -0.4801 C   0  0  0  0  0  0  0  0  0  0  0  0
    0.9377    1.2658   -1.3612 H   0  0  0  0  0  0  0  0  0  0  0  0
    2.7280    1.2616   -1.4629 H   0  0  0  0  0  0  0  0  0  0  0  0
    1.8287    2.6974   -0.7527 H   0  0  0  0  0  0  0  0  0  0  0  0
    2.9460   -0.6502   -0.2176 H   0  0  0  0  0  0  0  0  0  0  0  0
    2.2889   -0.6958    1.4229 H   0  0  0  0  0  0  0  0  0  0  0  0
    1.2135   -2.2236    0.0201 H   0  0  0  0  0  0  0  0  0  0  0  0
    0.7949   -1.0920   -1.2310 H   0  0  0  0  0  0  0  0  0  0  0  0
   -0.2945   -1.6370    1.5598 H   0  0  0  0  0  0  0  0  0  0  0  0
   -2.4056   -1.8652    0.1315 H   0  0  0  0  0  0  0  0  0  0  0  0
   -1.2094   -1.8414   -1.2861 H   0  0  0  0  0  0  0  0  0  0  0  0
   -1.0403   -3.0381   -0.0064 H   0  0  0  0  0  0  0  0  0  0  0  0
   -2.1165   -0.1425    1.3646 H   0  0  0  0  0  0  0  0  0  0  0  0
    0.1525    0.9449    2.3570 H   0  0  0  0  0  0  0  0  0  0  0  0
   -0.3141    2.1974    1.0624 H   0  0  0  0  0  0  0  0  0  0  0  0
   -1.4148    1.7021    2.3116 H   0  0  0  0  0  0  0  0  0  0  0  0
   -1.4240    0.1753   -1.3666 H   0  0  0  0  0  0  0  0  0  0  0  0
   -2.8174    0.9237   -0.4285 H   0  0  0  0  0  0  0  0  0  0  0  0
   -1.2838    1.7675   -0.6255 H   0  0  0  0  0  0  0  0  0  0  0  0
  1  2  1  0
  2  3  1  0
  3  4  1  0
  4  5  1  0
  5  6  1  0
  5  7  1  0
  7  8  1  0
  7  9  1  0
  1 10  1  0
  1 11  1  0
  1 12  1  0
  3 13  1  0
  3 14  1  0
  4 15  1  0
  4 16  1  0
  5 17  1  0
  6 18  1  0
  6 19  1  0
  6 20  1  0
  7 21  1  0
  8 22  1  0
  8 23  1  0
  8 24  1  0
  9 25  1  0
  9 26  1  0
  9 27  1  0
M  END
