
     RDKit          3D

 23 24  0  0  0  0  0  0  0  0999 V2000
    3.5233    0.7873   -0.0983 C   0  0  0  0  0  0  0  0  0  0  0  0
    2.4517    0.2145    0.6248 O   0  0  0  0  0  0  0  0  0  0  0  0
    1.5405   -0.2311   -0.3142 C   0  0  0  0  0  0  0  0  0  0  0  0
    0.3325   -0.8717    0.3051 C   0  0  0  0  0  0  0  0  0  0  0  0
   -0.6781   -1.3659   -0.7358 C   0  0  0  0  0  0  0  0  0  0  0  0
   -0.9621   -0.3075    0.2608 C   0  0  0  0  0  0  0  0  0  0  0  0
   -1.3841    1.0588   -0.1048 C   0  0  0  0  0  0  0  0  0  0  0  0
   -2.7825    0.6606    0.3775 C   0  0  0  0  0  0  0  0  0  0  0  0
   -2.0755   -0.4111    1.2249 C   0  0  0  0  0  0  0  0  0  0  0  0
    3.0970    1.6203   -0.6975 H   0  0  0  0  0  0  0  0  0  0  0  0
    3.8990   -0.0259   -0.7665 H   0  0  0  0  0  0  0  0  0  0  0  0
    4.2968    1.1555    0.5947 H   0  0  0  0  0  0  0  0  0  0  0  0
    1.2697    0.5517   -1.0526 H   0  0  0  0  0  0  0  0  0  0  0  0
    2.0661   -1.0438   -0.8958 H   0  0  0  0  0  0  0  0  0  0  0  0
    0.5873   -1.6374    1.0763 H   0  0  0  0  0  0  0  0  0  0  0  0
   -1.1771   -2.3299   -0.5694 H   0  0  0  0  0  0  0  0  0  0  0  0
   -0.5792   -1.0091   -1.7743 H   0  0  0  0  0  0  0  0  0  0  0  0
   -0.9670    1.9102    0.4548 H   0  0  0  0  0  0  0  0  0  0  0  0
   -1.3117    1.2307   -1.1941 H   0  0  0  0  0  0  0  0  0  0  0  0
   -3.2842    1.4053    0.9927 H   0  0  0  0  0  0  0  0  0  0  0  0
   -3.3786    0.1599   -0.3984 H   0  0  0  0  0  0  0  0  0  0  0  0
   -2.5747   -1.4011    1.1749 H   0  0  0  0  0  0  0  0  0  0  0  0
   -1.9093   -0.1202    2.2612 H   0  0  0  0  0  0  0  0  0  0  0  0
  1  2  1  0
  2  3  1  0
  3  4  1  0
  4  5  1  0
  5  6  1  0
  6  7  1  0
  7  8  1  0
  8  9  1  0
  6  4  1  0
  9  6  1  0
  1 10  1  0
  1 11  1  0
  1 12  1  0
  3 13  1  0
  3 14  1  0
  4 15  1  0
  5 16  1  0
  5 17  1  0
  7 18  1  0
  7 19  1  0
  8 20  1  0
  8 21  1  0
  9 22  1  0
  9 23  1  0
M  END
