
     RDKit          3D

 20 20  0  0  0  0  0  0  0  0999 V2000
    2.7636    0.3995    0.3398 C   0  0  0  0  0  0  0  0  0  0  0  0
    1.5167    0.3088   -0.2367 O   0  0  0  0  0  0  0  0  0  0  0  0
    0.6143   -0.4320    0.4935 C   0  0  0  0  0  0  0  0  0  0  0  0
   -0.6983   -0.4289   -0.2809 C   0  0  0  0  0  0  0  0  0  0  0  0
   -0.5751   -1.0304   -1.6620 C   0  0  0  0  0  0  0  0  0  0  0  0
   -1.9910   -0.3631    0.4136 C   0  0  0  0  0  0  0  0  0  0  0  0
   -1.4579    0.8974   -0.1497 C   0  0  0  0  0  0  0  0  0  0  0  0
   -0.9700    1.8546    0.7173 O   0  0  0  0  0  0  0  0  0  0  0  0
    3.2658   -0.5616    0.4934 H   0  0  0  0  0  0  0  0  0  0  0  0
    2.7550    0.9321    1.3145 H   0  0  0  0  0  0  0  0  0  0  0  0
    3.4048    1.0032   -0.3354 H   0  0  0  0  0  0  0  0  0  0  0  0
    0.9519   -1.4702    0.6938 H   0  0  0  0  0  0  0  0  0  0  0  0
    0.4410    0.0275    1.5076 H   0  0  0  0  0  0  0  0  0  0  0  0
    0.3444   -0.6422   -2.1125 H   0  0  0  0  0  0  0  0  0  0  0  0
   -0.5069   -2.1254   -1.6417 H   0  0  0  0  0  0  0  0  0  0  0  0
   -1.4271   -0.6478   -2.2551 H   0  0  0  0  0  0  0  0  0  0  0  0
   -2.8697   -0.7907   -0.1292 H   0  0  0  0  0  0  0  0  0  0  0  0
   -2.0830   -0.4481    1.5056 H   0  0  0  0  0  0  0  0  0  0  0  0
   -1.7968    1.3029   -1.1189 H   0  0  0  0  0  0  0  0  0  0  0  0
   -1.6818    2.2142    1.2894 H   0  0  0  0  0  0  0  0  0  0  0  0
  1  2  1  0
  2  3  1  0
  3  4  1  0
  4  5  1  0
  4  6  1  0
  6  7  1  0
  7  8  1  0
  7  4  1  0
  1  9  1  0
  1 10  1  0
  1 11  1  0
  3 12  1  0
  3 13  1  0
  5 14  1  0
  5 15  1  0
  5 16  1  0
  6 17  1  0
  6 18  1  0
  7 19  1  0
  8 20  1  0
M  END
