
     RDKit          3D

 21 21  0  0  0  0  0  0  0  0999 V2000
    2.4886    1.5208   -0.6218 C   0  0  0  0  0  0  0  0  0  0  0  0
    1.1917    1.1163   -0.4396 O   0  0  0  0  0  0  0  0  0  0  0  0
    1.1117   -0.2220   -0.0541 C   0  0  0  0  0  0  0  0  0  0  0  0
   -0.3153   -0.6409    0.1389 C   0  0  0  0  0  0  0  0  0  0  0  0
   -0.4687   -2.0421    0.5461 C   0  0  0  0  0  0  0  0  0  0  0  0
   -1.4169   -2.3609    1.2657 O   0  0  0  0  0  0  0  0  0  0  0  0
   -1.2508   -0.2285   -0.9985 C   0  0  0  0  0  0  0  0  0  0  0  0
   -2.2716    0.1121    0.0964 C   0  0  0  0  0  0  0  0  0  0  0  0
   -1.0730    0.3510    1.0106 C   0  0  0  0  0  0  0  0  0  0  0  0
    2.4980    2.5817   -0.9246 H   0  0  0  0  0  0  0  0  0  0  0  0
    3.0182    0.9535   -1.4228 H   0  0  0  0  0  0  0  0  0  0  0  0
    3.1158    1.4418    0.3030 H   0  0  0  0  0  0  0  0  0  0  0  0
    1.6154   -0.8931   -0.7821 H   0  0  0  0  0  0  0  0  0  0  0  0
    1.6338   -0.3037    0.9200 H   0  0  0  0  0  0  0  0  0  0  0  0
    0.2659   -2.7705    0.1986 H   0  0  0  0  0  0  0  0  0  0  0  0
   -1.5499   -1.0361   -1.6671 H   0  0  0  0  0  0  0  0  0  0  0  0
   -0.9339    0.7101   -1.4725 H   0  0  0  0  0  0  0  0  0  0  0  0
   -2.8666    1.0112   -0.1258 H   0  0  0  0  0  0  0  0  0  0  0  0
   -2.9099   -0.7270    0.3886 H   0  0  0  0  0  0  0  0  0  0  0  0
   -0.6717    1.3773    0.8360 H   0  0  0  0  0  0  0  0  0  0  0  0
   -1.2108    0.0489    2.0512 H   0  0  0  0  0  0  0  0  0  0  0  0
  1  2  1  0
  2  3  1  0
  3  4  1  0
  4  5  1  0
  5  6  2  0
  4  7  1  0
  7  8  1  0
  8  9  1  0
  9  4  1  0
  1 10  1  0
  1 11  1  0
  1 12  1  0
  3 13  1  0
  3 14  1  0
  5 15  1  0
  7 16  1  0
  7 17  1  0
  8 18  1  0
  8 19  1  0
  9 20  1  0
  9 21  1  0
M  END
