
     RDKit          3D

 16 15  0  0  0  0  0  0  0  0999 V2000
    2.4174   -0.3218    0.5861 C   0  0  0  0  0  0  0  0  0  0  0  0
    1.0469   -0.2427    0.9142 O   0  0  0  0  0  0  0  0  0  0  0  0
    0.4202    0.3580   -0.1781 C   0  0  0  0  0  0  0  0  0  0  0  0
   -1.0669    0.5018    0.0502 C   0  0  0  0  0  0  0  0  0  0  0  0
   -1.7316   -0.8590    0.0851 C   0  0  0  0  0  0  0  0  0  0  0  0
   -1.3557    1.2740    1.1541 O   0  0  0  0  0  0  0  0  0  0  0  0
    2.7720    0.7355    0.4168 H   0  0  0  0  0  0  0  0  0  0  0  0
    2.4513   -0.8417   -0.3954 H   0  0  0  0  0  0  0  0  0  0  0  0
    3.0095   -0.8070    1.3627 H   0  0  0  0  0  0  0  0  0  0  0  0
    0.8834    1.3391   -0.3261 H   0  0  0  0  0  0  0  0  0  0  0  0
    0.5667   -0.3384   -1.0375 H   0  0  0  0  0  0  0  0  0  0  0  0
   -1.4774    1.0268   -0.8389 H   0  0  0  0  0  0  0  0  0  0  0  0
   -1.2327   -1.4787   -0.6950 H   0  0  0  0  0  0  0  0  0  0  0  0
   -2.7967   -0.7578   -0.2201 H   0  0  0  0  0  0  0  0  0  0  0  0
   -1.6820   -1.3259    1.0897 H   0  0  0  0  0  0  0  0  0  0  0  0
   -2.2245    1.7376    1.0995 H   0  0  0  0  0  0  0  0  0  0  0  0
  1  2  1  0
  2  3  1  0
  3  4  1  0
  4  5  1  0
  4  6  1  0
  1  7  1  0
  1  8  1  0
  1  9  1  0
  3 10  1  0
  3 11  1  0
  4 12  1  0
  5 13  1  0
  5 14  1  0
  5 15  1  0
  6 16  1  0
M  END
