
     RDKit          3D

 21 20  0  0  0  0  0  0  0  0999 V2000
    2.5316   -0.4958   -0.8247 C   0  0  0  0  0  0  0  0  0  0  0  0
    2.2300    0.2031    0.3362 O   0  0  0  0  0  0  0  0  0  0  0  0
    0.9301    0.0612    0.7388 C   0  0  0  0  0  0  0  0  0  0  0  0
   -0.1046    0.5320   -0.2429 C   0  0  0  0  0  0  0  0  0  0  0  0
    0.0328    1.9711   -0.5721 C   0  0  0  0  0  0  0  0  0  0  0  0
    0.5521    2.7979    0.1417 O   0  0  0  0  0  0  0  0  0  0  0  0
   -1.4522    0.3767    0.4353 C   0  0  0  0  0  0  0  0  0  0  0  0
   -1.7619   -1.0322    0.8282 C   0  0  0  0  0  0  0  0  0  0  0  0
   -1.7704   -1.8659   -0.3153 O   0  0  0  0  0  0  0  0  0  0  0  0
    2.3431   -1.5922   -0.6712 H   0  0  0  0  0  0  0  0  0  0  0  0
    1.9323   -0.0933   -1.6406 H   0  0  0  0  0  0  0  0  0  0  0  0
    3.6130   -0.3696   -1.0777 H   0  0  0  0  0  0  0  0  0  0  0  0
    0.7438   -1.0477    0.8629 H   0  0  0  0  0  0  0  0  0  0  0  0
    0.7068    0.4971    1.7148 H   0  0  0  0  0  0  0  0  0  0  0  0
   -0.0232   -0.0569   -1.1571 H   0  0  0  0  0  0  0  0  0  0  0  0
   -0.3615    2.2974   -1.5190 H   0  0  0  0  0  0  0  0  0  0  0  0
   -2.2755    0.7222   -0.2367 H   0  0  0  0  0  0  0  0  0  0  0  0
   -1.5142    1.0119    1.3410 H   0  0  0  0  0  0  0  0  0  0  0  0
   -1.1009   -1.4263    1.6221 H   0  0  0  0  0  0  0  0  0  0  0  0
   -2.8377   -1.0582    1.1744 H   0  0  0  0  0  0  0  0  0  0  0  0
   -2.4136   -1.4325   -0.9380 H   0  0  0  0  0  0  0  0  0  0  0  0
  1  2  1  0
  2  3  1  0
  3  4  1  0
  4  5  1  0
  5  6  2  0
  4  7  1  0
  7  8  1  0
  8  9  1  0
  1 10  1  0
  1 11  1  0
  1 12  1  0
  3 13  1  0
  3 14  1  0
  4 15  1  0
  5 16  1  0
  7 17  1  0
  7 18  1  0
  8 19  1  0
  8 20  1  0
  9 21  1  0
M  END
