
     RDKit          3D

 23 23  0  0  0  0  0  0  0  0999 V2000
    3.4128   -0.0762   -0.2528 C   0  0  0  0  0  0  0  0  0  0  0  0
    2.2159    0.6177   -0.1194 O   0  0  0  0  0  0  0  0  0  0  0  0
    1.1152   -0.2068   -0.3869 C   0  0  0  0  0  0  0  0  0  0  0  0
   -0.1428    0.6148   -0.2220 C   0  0  0  0  0  0  0  0  0  0  0  0
   -0.2079    1.7129   -1.0774 O   0  0  0  0  0  0  0  0  0  0  0  0
   -0.7066    0.7878    1.1693 C   0  0  0  0  0  0  0  0  0  0  0  0
   -1.4145   -0.0553    0.2033 C   0  0  0  0  0  0  0  0  0  0  0  0
   -2.6369    0.4166   -0.5379 C   0  0  0  0  0  0  0  0  0  0  0  0
   -1.4140   -1.5483    0.4724 C   0  0  0  0  0  0  0  0  0  0  0  0
    4.2309    0.6323   -0.0284 H   0  0  0  0  0  0  0  0  0  0  0  0
    3.4316   -0.8970    0.5193 H   0  0  0  0  0  0  0  0  0  0  0  0
    3.5225   -0.5744   -1.2274 H   0  0  0  0  0  0  0  0  0  0  0  0
    1.1238   -1.1023    0.2687 H   0  0  0  0  0  0  0  0  0  0  0  0
    1.2123   -0.5877   -1.4245 H   0  0  0  0  0  0  0  0  0  0  0  0
    0.5444    2.3553   -0.9297 H   0  0  0  0  0  0  0  0  0  0  0  0
   -1.0468    1.8030    1.4548 H   0  0  0  0  0  0  0  0  0  0  0  0
   -0.1302    0.2762    1.9738 H   0  0  0  0  0  0  0  0  0  0  0  0
   -2.7782    1.5099   -0.5095 H   0  0  0  0  0  0  0  0  0  0  0  0
   -2.5025    0.1089   -1.6029 H   0  0  0  0  0  0  0  0  0  0  0  0
   -3.5624   -0.1153   -0.1871 H   0  0  0  0  0  0  0  0  0  0  0  0
   -0.5841   -1.7952    1.1428 H   0  0  0  0  0  0  0  0  0  0  0  0
   -2.4004   -1.8316    0.8766 H   0  0  0  0  0  0  0  0  0  0  0  0
   -1.2821   -2.0452   -0.5162 H   0  0  0  0  0  0  0  0  0  0  0  0
  1  2  1  0
  2  3  1  0
  3  4  1  0
  4  5  1  0
  4  6  1  0
  6  7  1  0
  7  8  1  0
  7  9  1  0
  7  4  1  0
  1 10  1  0
  1 11  1  0
  1 12  1  0
  3 13  1  0
  3 14  1  0
  5 15  1  0
  6 16  1  0
  6 17  1  0
  8 18  1  0
  8 19  1  0
  8 20  1  0
  9 21  1  0
  9 22  1  0
  9 23  1  0
M  END
