
     RDKit          3D

 19 19  0  0  0  0  0  0  0  0999 V2000
   -2.5160    3.0954   -0.2147 C   0  0  0  0  0  0  0  0  0  0  0  0
   -1.7933    1.9917   -0.6386 O   0  0  0  0  0  0  0  0  0  0  0  0
   -1.5480    1.1400    0.4431 C   0  0  0  0  0  0  0  0  0  0  0  0
   -0.7809   -0.0316   -0.0136 C   0  0  0  0  0  0  0  0  0  0  0  0
   -0.1431   -1.0027   -0.3974 C   0  0  0  0  0  0  0  0  0  0  0  0
    0.6002   -2.1679   -0.8711 C   0  0  0  0  0  0  0  0  0  0  0  0
    1.6636   -1.7247   -1.8146 O   0  0  0  0  0  0  0  0  0  0  0  0
    1.9383   -2.3657   -0.5020 C   0  0  0  0  0  0  0  0  0  0  0  0
    2.7639   -1.4823    0.3458 C   0  0  0  0  0  0  0  0  0  0  0  0
   -1.9293    3.6370    0.5540 H   0  0  0  0  0  0  0  0  0  0  0  0
   -2.7127    3.8051   -1.0422 H   0  0  0  0  0  0  0  0  0  0  0  0
   -3.5244    2.8092    0.1846 H   0  0  0  0  0  0  0  0  0  0  0  0
   -2.5132    0.7530    0.8417 H   0  0  0  0  0  0  0  0  0  0  0  0
   -0.9883    1.6251    1.2448 H   0  0  0  0  0  0  0  0  0  0  0  0
    0.0451   -2.9831   -1.3834 H   0  0  0  0  0  0  0  0  0  0  0  0
    2.4106   -3.3701   -0.7228 H   0  0  0  0  0  0  0  0  0  0  0  0
    2.4241   -1.4102    1.4003 H   0  0  0  0  0  0  0  0  0  0  0  0
    2.7791   -0.4501   -0.0456 H   0  0  0  0  0  0  0  0  0  0  0  0
    3.8242   -1.8680    0.3708 H   0  0  0  0  0  0  0  0  0  0  0  0
  1  2  1  0
  2  3  1  0
  3  4  1  0
  4  5  3  0
  5  6  1  0
  6  7  1  0
  7  8  1  0
  8  9  1  0
  8  6  1  0
  1 10  1  0
  1 11  1  0
  1 12  1  0
  3 13  1  0
  3 14  1  0
  6 15  1  0
  8 16  1  0
  9 17  1  0
  9 18  1  0
  9 19  1  0
M  END
