
     RDKit          3D

 16 16  0  0  0  0  0  0  0  0999 V2000
   -2.1952    0.0562    0.5266 C   0  0  0  0  0  0  0  0  0  0  0  0
   -1.5142   -1.0471    0.0341 O   0  0  0  0  0  0  0  0  0  0  0  0
   -0.5922   -0.7778   -0.9563 C   0  0  0  0  0  0  0  0  0  0  0  0
    0.4563    0.1371   -0.4654 C   0  0  0  0  0  0  0  0  0  0  0  0
    1.4598    0.4639   -1.4177 O   0  0  0  0  0  0  0  0  0  0  0  0
    2.2544    0.7181   -0.2780 C   0  0  0  0  0  0  0  0  0  0  0  0
    1.5606   -0.4761    0.3269 C   0  0  0  0  0  0  0  0  0  0  0  0
    1.8031   -1.3988    1.0510 O   0  0  0  0  0  0  0  0  0  0  0  0
   -2.9043   -0.3649    1.3058 H   0  0  0  0  0  0  0  0  0  0  0  0
   -2.8091    0.5697   -0.2217 H   0  0  0  0  0  0  0  0  0  0  0  0
   -1.5286    0.7712    1.0867 H   0  0  0  0  0  0  0  0  0  0  0  0
   -0.2248   -1.7510   -1.3239 H   0  0  0  0  0  0  0  0  0  0  0  0
   -1.1185   -0.2624   -1.8112 H   0  0  0  0  0  0  0  0  0  0  0  0
    0.1263    1.0761    0.0123 H   0  0  0  0  0  0  0  0  0  0  0  0
    1.9057    1.6679    0.1785 H   0  0  0  0  0  0  0  0  0  0  0  0
    3.3208    0.6180   -0.4140 H   0  0  0  0  0  0  0  0  0  0  0  0
  1  2  1  0
  2  3  1  0
  3  4  1  0
  4  5  1  0
  5  6  1  0
  6  7  1  0
  7  8  2  0
  7  4  1  0
  1  9  1  0
  1 10  1  0
  1 11  1  0
  3 12  1  0
  3 13  1  0
  4 14  1  0
  6 15  1  0
  6 16  1  0
M  END
