
     RDKit          3D

 25 24  0  0  0  0  0  0  0  0999 V2000
    2.8707    0.5586    0.3649 C   0  0  0  0  0  0  0  0  0  0  0  0
    1.9492    1.2950   -0.3424 O   0  0  0  0  0  0  0  0  0  0  0  0
    1.3554    0.6322   -1.3975 C   0  0  0  0  0  0  0  0  0  0  0  0
    0.5485   -0.5531   -1.0256 C   0  0  0  0  0  0  0  0  0  0  0  0
   -0.6299   -0.3000   -0.1387 C   0  0  0  0  0  0  0  0  0  0  0  0
   -1.2784   -1.6744    0.0849 C   0  0  0  0  0  0  0  0  0  0  0  0
   -0.3455    0.2573    1.2028 C   0  0  0  0  0  0  0  0  0  0  0  0
   -1.5010    0.5038   -0.8693 O   0  0  0  0  0  0  0  0  0  0  0  0
   -2.6508    0.8434   -0.2112 C   0  0  0  0  0  0  0  0  0  0  0  0
    3.7259    0.2195   -0.2646 H   0  0  0  0  0  0  0  0  0  0  0  0
    2.4310   -0.3512    0.8125 H   0  0  0  0  0  0  0  0  0  0  0  0
    3.2704    1.1869    1.1908 H   0  0  0  0  0  0  0  0  0  0  0  0
    0.8183    1.3590   -2.0471 H   0  0  0  0  0  0  0  0  0  0  0  0
    2.2130    0.2650   -2.0365 H   0  0  0  0  0  0  0  0  0  0  0  0
    1.2135   -1.2858   -0.5141 H   0  0  0  0  0  0  0  0  0  0  0  0
    0.1449   -1.0311   -1.9492 H   0  0  0  0  0  0  0  0  0  0  0  0
   -0.5302   -2.3066    0.6040 H   0  0  0  0  0  0  0  0  0  0  0  0
   -1.5035   -2.0671   -0.9229 H   0  0  0  0  0  0  0  0  0  0  0  0
   -2.1728   -1.6153    0.6991 H   0  0  0  0  0  0  0  0  0  0  0  0
   -1.2831    0.3534    1.8264 H   0  0  0  0  0  0  0  0  0  0  0  0
    0.2654   -0.4764    1.7845 H   0  0  0  0  0  0  0  0  0  0  0  0
    0.1581    1.2409    1.1358 H   0  0  0  0  0  0  0  0  0  0  0  0
   -3.2803   -0.0082    0.1034 H   0  0  0  0  0  0  0  0  0  0  0  0
   -2.4938    1.4953    0.6684 H   0  0  0  0  0  0  0  0  0  0  0  0
   -3.2951    1.4586   -0.9078 H   0  0  0  0  0  0  0  0  0  0  0  0
  1  2  1  0
  2  3  1  0
  3  4  1  0
  4  5  1  0
  5  6  1  0
  5  7  1  0
  5  8  1  0
  8  9  1  0
  1 10  1  0
  1 11  1  0
  1 12  1  0
  3 13  1  0
  3 14  1  0
  4 15  1  0
  4 16  1  0
  6 17  1  0
  6 18  1  0
  6 19  1  0
  7 20  1  0
  7 21  1  0
  7 22  1  0
  9 23  1  0
  9 24  1  0
  9 25  1  0
M  END
