
     RDKit          3D

 16 16  0  0  0  0  0  0  0  0999 V2000
    2.9948   -0.2210    0.2580 C   0  0  0  0  0  0  0  0  0  0  0  0
    1.8236    0.5015    0.5390 O   0  0  0  0  0  0  0  0  0  0  0  0
    0.7670   -0.2447    0.0625 C   0  0  0  0  0  0  0  0  0  0  0  0
   -0.5466    0.4062    0.2943 C   0  0  0  0  0  0  0  0  0  0  0  0
   -0.5488    1.4832    0.8564 O   0  0  0  0  0  0  0  0  0  0  0  0
   -1.7892   -0.2310   -0.1405 C   0  0  0  0  0  0  0  0  0  0  0  0
   -3.0221    0.6247   -0.3773 C   0  0  0  0  0  0  0  0  0  0  0  0
   -2.8566   -0.0551    0.8559 O   0  0  0  0  0  0  0  0  0  0  0  0
    3.8697    0.3304    0.6179 H   0  0  0  0  0  0  0  0  0  0  0  0
    2.9722   -1.2033    0.7714 H   0  0  0  0  0  0  0  0  0  0  0  0
    3.0327   -0.3861   -0.8449 H   0  0  0  0  0  0  0  0  0  0  0  0
    0.9262   -0.4754   -1.0165 H   0  0  0  0  0  0  0  0  0  0  0  0
    0.8052   -1.2496    0.5760 H   0  0  0  0  0  0  0  0  0  0  0  0
   -1.8038   -1.1968   -0.6458 H   0  0  0  0  0  0  0  0  0  0  0  0
   -2.7930    1.7090   -0.3968 H   0  0  0  0  0  0  0  0  0  0  0  0
   -3.8311    0.2079   -0.9773 H   0  0  0  0  0  0  0  0  0  0  0  0
  1  2  1  0
  2  3  1  0
  3  4  1  0
  4  5  2  0
  4  6  1  0
  6  7  1  0
  7  8  1  0
  8  6  1  0
  1  9  1  0
  1 10  1  0
  1 11  1  0
  3 12  1  0
  3 13  1  0
  6 14  1  0
  7 15  1  0
  7 16  1  0
M  END
