
     RDKit          3D

 17 16  0  0  0  0  0  0  0  0999 V2000
   -3.4804    0.7223   -0.1510 C   0  0  0  0  0  0  0  0  0  0  0  0
   -2.1307    0.7419    0.0672 O   0  0  0  0  0  0  0  0  0  0  0  0
   -1.4997   -0.4657   -0.0962 C   0  0  0  0  0  0  0  0  0  0  0  0
   -0.0632   -0.2625    0.1755 C   0  0  0  0  0  0  0  0  0  0  0  0
    1.1164   -0.0990    0.3773 C   0  0  0  0  0  0  0  0  0  0  0  0
    2.5416    0.1232    0.6295 C   0  0  0  0  0  0  0  0  0  0  0  0
    3.3251   -0.6771   -0.2398 O   0  0  0  0  0  0  0  0  0  0  0  0
    3.2518   -0.5641   -1.6205 C   0  0  0  0  0  0  0  0  0  0  0  0
    2.4277    0.3126   -2.0474 O   0  0  0  0  0  0  0  0  0  0  0  0
   -4.0427    0.0400    0.5140 H   0  0  0  0  0  0  0  0  0  0  0  0
   -3.8576    1.7644   -0.0520 H   0  0  0  0  0  0  0  0  0  0  0  0
   -3.6385    0.4686   -1.2403 H   0  0  0  0  0  0  0  0  0  0  0  0
   -1.9027   -1.2857    0.5234 H   0  0  0  0  0  0  0  0  0  0  0  0
   -1.5425   -0.8163   -1.1679 H   0  0  0  0  0  0  0  0  0  0  0  0
    2.8202   -0.0309    1.6900 H   0  0  0  0  0  0  0  0  0  0  0  0
    2.8363    1.1918    0.4094 H   0  0  0  0  0  0  0  0  0  0  0  0
    3.8390   -1.1632   -2.3006 H   0  0  0  0  0  0  0  0  0  0  0  0
  1  2  1  0
  2  3  1  0
  3  4  1  0
  4  5  3  0
  5  6  1  0
  6  7  1  0
  7  8  1  0
  8  9  2  0
  1 10  1  0
  1 11  1  0
  1 12  1  0
  3 13  1  0
  3 14  1  0
  6 15  1  0
  6 16  1  0
  8 17  1  0
M  END
