
     RDKit          3D

 21 20  0  0  0  0  0  0  0  0999 V2000
   -4.3349   -0.6750   -0.6537 C   0  0  0  0  0  0  0  0  0  0  0  0
   -2.9642   -0.6975   -0.3315 O   0  0  0  0  0  0  0  0  0  0  0  0
   -2.5669    0.6020   -0.1359 C   0  0  0  0  0  0  0  0  0  0  0  0
   -1.1413    0.5886    0.2001 C   0  0  0  0  0  0  0  0  0  0  0  0
    0.0235    0.5603    0.4860 C   0  0  0  0  0  0  0  0  0  0  0  0
    1.4695    0.5443    0.8228 C   0  0  0  0  0  0  0  0  0  0  0  0
    2.0085   -0.7456    0.2485 C   0  0  0  0  0  0  0  0  0  0  0  0
    3.3462   -0.9480    0.4599 O   0  0  0  0  0  0  0  0  0  0  0  0
    4.1814    0.0066   -0.0688 C   0  0  0  0  0  0  0  0  0  0  0  0
   -4.7039   -1.6906   -0.8204 H   0  0  0  0  0  0  0  0  0  0  0  0
   -4.8892   -0.1706    0.1698 H   0  0  0  0  0  0  0  0  0  0  0  0
   -4.5303   -0.0861   -1.5676 H   0  0  0  0  0  0  0  0  0  0  0  0
   -3.1867    1.0092    0.7138 H   0  0  0  0  0  0  0  0  0  0  0  0
   -2.7710    1.1694   -1.0605 H   0  0  0  0  0  0  0  0  0  0  0  0
    1.9696    1.4460    0.3809 H   0  0  0  0  0  0  0  0  0  0  0  0
    1.5686    0.6191    1.9090 H   0  0  0  0  0  0  0  0  0  0  0  0
    1.7309   -0.7395   -0.8355 H   0  0  0  0  0  0  0  0  0  0  0  0
    1.4597   -1.5646    0.7843 H   0  0  0  0  0  0  0  0  0  0  0  0
    3.9500    0.9884    0.3689 H   0  0  0  0  0  0  0  0  0  0  0  0
    5.2163   -0.2440    0.2400 H   0  0  0  0  0  0  0  0  0  0  0  0
    4.1641    0.0277   -1.1819 H   0  0  0  0  0  0  0  0  0  0  0  0
  1  2  1  0
  2  3  1  0
  3  4  1  0
  4  5  3  0
  5  6  1  0
  6  7  1  0
  7  8  1  0
  8  9  1  0
  1 10  1  0
  1 11  1  0
  1 12  1  0
  3 13  1  0
  3 14  1  0
  6 15  1  0
  6 16  1  0
  7 17  1  0
  7 18  1  0
  9 19  1  0
  9 20  1  0
  9 21  1  0
M  END
