
     RDKit          3D

 19 20  0  0  0  0  0  0  0  0999 V2000
    3.0955    0.5246   -0.5064 C   0  0  0  0  0  0  0  0  0  0  0  0
    2.1894   -0.3176   -1.1149 O   0  0  0  0  0  0  0  0  0  0  0  0
    1.1901   -0.7639   -0.2845 C   0  0  0  0  0  0  0  0  0  0  0  0
    0.4195    0.4328    0.2378 C   0  0  0  0  0  0  0  0  0  0  0  0
   -0.2132    1.2688   -0.6713 O   0  0  0  0  0  0  0  0  0  0  0  0
   -1.0202    0.4281    0.2787 C   0  0  0  0  0  0  0  0  0  0  0  0
   -1.8982   -0.4698   -0.5132 C   0  0  0  0  0  0  0  0  0  0  0  0
   -3.3832   -0.3946   -0.2230 C   0  0  0  0  0  0  0  0  0  0  0  0
   -2.8452    0.1256   -1.3955 O   0  0  0  0  0  0  0  0  0  0  0  0
    3.8460    0.8088   -1.2888 H   0  0  0  0  0  0  0  0  0  0  0  0
    3.6753    0.0349    0.3035 H   0  0  0  0  0  0  0  0  0  0  0  0
    2.5667    1.4420   -0.1303 H   0  0  0  0  0  0  0  0  0  0  0  0
    0.5606   -1.4747   -0.8389 H   0  0  0  0  0  0  0  0  0  0  0  0
    1.6551   -1.2571    0.5914 H   0  0  0  0  0  0  0  0  0  0  0  0
    0.9564    0.9775    1.0400 H   0  0  0  0  0  0  0  0  0  0  0  0
   -1.5257    1.0834    1.0293 H   0  0  0  0  0  0  0  0  0  0  0  0
   -1.5418   -1.4961   -0.7999 H   0  0  0  0  0  0  0  0  0  0  0  0
   -3.9850   -1.3210   -0.2983 H   0  0  0  0  0  0  0  0  0  0  0  0
   -3.7422    0.3685    0.5229 H   0  0  0  0  0  0  0  0  0  0  0  0
  1  2  1  0
  2  3  1  0
  3  4  1  0
  4  5  1  0
  5  6  1  0
  6  7  1  0
  7  8  1  0
  8  9  1  0
  6  4  1  0
  9  7  1  0
  1 10  1  0
  1 11  1  0
  1 12  1  0
  3 13  1  0
  3 14  1  0
  4 15  1  0
  6 16  1  0
  7 17  1  0
  8 18  1  0
  8 19  1  0
M  END
