
     RDKit          3D

 20 20  0  0  0  0  0  0  0  0999 V2000
   -2.7792   -0.2976    0.4363 C   0  0  0  0  0  0  0  0  0  0  0  0
   -2.3270    0.4121   -0.6560 O   0  0  0  0  0  0  0  0  0  0  0  0
   -1.1661    1.1436   -0.3715 C   0  0  0  0  0  0  0  0  0  0  0  0
   -0.0980    0.1581    0.0547 C   0  0  0  0  0  0  0  0  0  0  0  0
    0.2269   -0.8701   -1.0126 C   0  0  0  0  0  0  0  0  0  0  0  0
    1.2262    0.1890   -0.5988 C   0  0  0  0  0  0  0  0  0  0  0  0
    2.4405   -0.3186    0.1109 C   0  0  0  0  0  0  0  0  0  0  0  0
    3.5958   -0.2093   -0.6624 O   0  0  0  0  0  0  0  0  0  0  0  0
   -3.0072    0.4241    1.2615 H   0  0  0  0  0  0  0  0  0  0  0  0
   -3.7449   -0.7546    0.1633 H   0  0  0  0  0  0  0  0  0  0  0  0
   -2.1091   -1.1067    0.7598 H   0  0  0  0  0  0  0  0  0  0  0  0
   -1.4262    1.8624    0.4195 H   0  0  0  0  0  0  0  0  0  0  0  0
   -0.8630    1.6765   -1.2851 H   0  0  0  0  0  0  0  0  0  0  0  0
   -0.2180   -0.1784    1.1066 H   0  0  0  0  0  0  0  0  0  0  0  0
   -0.2274   -0.7782   -2.0065 H   0  0  0  0  0  0  0  0  0  0  0  0
    0.3767   -1.9119   -0.6712 H   0  0  0  0  0  0  0  0  0  0  0  0
    1.4193    1.0112   -1.3506 H   0  0  0  0  0  0  0  0  0  0  0  0
    2.2891   -1.3879    0.3561 H   0  0  0  0  0  0  0  0  0  0  0  0
    2.6473    0.2209    1.0628 H   0  0  0  0  0  0  0  0  0  0  0  0
    3.7443    0.7154   -0.9688 H   0  0  0  0  0  0  0  0  0  0  0  0
  1  2  1  0
  2  3  1  0
  3  4  1  0
  4  5  1  0
  5  6  1  0
  6  7  1  0
  7  8  1  0
  6  4  1  0
  1  9  1  0
  1 10  1  0
  1 11  1  0
  3 12  1  0
  3 13  1  0
  4 14  1  0
  5 15  1  0
  5 16  1  0
  6 17  1  0
  7 18  1  0
  7 19  1  0
  8 20  1  0
M  END
