
     RDKit          3D

 25 25  0  0  0  0  0  0  0  0999 V2000
    2.9875    1.2353   -0.5150 C   0  0  0  0  0  0  0  0  0  0  0  0
    1.7920    0.5345   -0.6594 O   0  0  0  0  0  0  0  0  0  0  0  0
    1.2410    0.2394    0.5855 C   0  0  0  0  0  0  0  0  0  0  0  0
   -0.0537   -0.5219    0.3198 C   0  0  0  0  0  0  0  0  0  0  0  0
   -1.0450    0.2682   -0.4848 C   0  0  0  0  0  0  0  0  0  0  0  0
   -1.4315    1.5431    0.2187 C   0  0  0  0  0  0  0  0  0  0  0  0
   -2.2916   -0.4822   -0.8186 C   0  0  0  0  0  0  0  0  0  0  0  0
    0.1824   -1.9468   -0.1105 C   0  0  0  0  0  0  0  0  0  0  0  0
   -0.4307   -1.6373    1.1836 C   0  0  0  0  0  0  0  0  0  0  0  0
    2.7259    2.1832    0.0396 H   0  0  0  0  0  0  0  0  0  0  0  0
    3.3806    1.4771   -1.5225 H   0  0  0  0  0  0  0  0  0  0  0  0
    3.7162    0.6571    0.0918 H   0  0  0  0  0  0  0  0  0  0  0  0
    1.0004    1.1655    1.1697 H   0  0  0  0  0  0  0  0  0  0  0  0
    1.9261   -0.4062    1.1882 H   0  0  0  0  0  0  0  0  0  0  0  0
   -0.5293    0.5629   -1.4316 H   0  0  0  0  0  0  0  0  0  0  0  0
   -1.5756    1.3208    1.2844 H   0  0  0  0  0  0  0  0  0  0  0  0
   -2.4267    1.8611   -0.1860 H   0  0  0  0  0  0  0  0  0  0  0  0
   -0.7211    2.3693    0.0237 H   0  0  0  0  0  0  0  0  0  0  0  0
   -2.2421   -1.5515   -0.6210 H   0  0  0  0  0  0  0  0  0  0  0  0
   -2.5579   -0.3293   -1.8938 H   0  0  0  0  0  0  0  0  0  0  0  0
   -3.1724   -0.0741   -0.2416 H   0  0  0  0  0  0  0  0  0  0  0  0
   -0.4030   -2.3609   -0.9728 H   0  0  0  0  0  0  0  0  0  0  0  0
    1.2192   -2.3601   -0.1012 H   0  0  0  0  0  0  0  0  0  0  0  0
   -1.4851   -1.9147    1.3506 H   0  0  0  0  0  0  0  0  0  0  0  0
    0.1945   -1.8327    2.1030 H   0  0  0  0  0  0  0  0  0  0  0  0
  1  2  1  0
  2  3  1  0
  3  4  1  0
  4  5  1  0
  5  6  1  0
  5  7  1  0
  4  8  1  0
  8  9  1  0
  9  4  1  0
  1 10  1  0
  1 11  1  0
  1 12  1  0
  3 13  1  0
  3 14  1  0
  5 15  1  0
  6 16  1  0
  6 17  1  0
  6 18  1  0
  7 19  1  0
  7 20  1  0
  7 21  1  0
  8 22  1  0
  8 23  1  0
  9 24  1  0
  9 25  1  0
M  END
