
     RDKit          3D

 19 19  0  0  0  0  0  0  0  0999 V2000
    2.9595   -0.0603   -0.1008 C   0  0  0  0  0  0  0  0  0  0  0  0
    1.7622   -0.4615    0.4852 O   0  0  0  0  0  0  0  0  0  0  0  0
    0.6621    0.1372   -0.0966 C   0  0  0  0  0  0  0  0  0  0  0  0
   -0.5830   -0.3622    0.6078 C   0  0  0  0  0  0  0  0  0  0  0  0
   -0.5917   -1.8531    0.4134 C   0  0  0  0  0  0  0  0  0  0  0  0
   -0.5037   -2.6152    1.3406 O   0  0  0  0  0  0  0  0  0  0  0  0
   -1.8141    0.1851   -0.0091 C   0  0  0  0  0  0  0  0  0  0  0  0
   -2.1434    1.5697   -0.1140 C   0  0  0  0  0  0  0  0  0  0  0  0
   -2.6931    0.7647    1.0369 O   0  0  0  0  0  0  0  0  0  0  0  0
    3.0119   -0.3042   -1.1805 H   0  0  0  0  0  0  0  0  0  0  0  0
    3.8070   -0.4998    0.4611 H   0  0  0  0  0  0  0  0  0  0  0  0
    2.9647    1.0626   -0.0462 H   0  0  0  0  0  0  0  0  0  0  0  0
    0.6712    1.2348    0.0101 H   0  0  0  0  0  0  0  0  0  0  0  0
    0.6370   -0.1486   -1.1655 H   0  0  0  0  0  0  0  0  0  0  0  0
   -0.5138   -0.1363    1.6928 H   0  0  0  0  0  0  0  0  0  0  0  0
   -0.6802   -2.2407   -0.5958 H   0  0  0  0  0  0  0  0  0  0  0  0
   -2.4088   -0.5284   -0.6399 H   0  0  0  0  0  0  0  0  0  0  0  0
   -3.0301    1.8643   -0.7051 H   0  0  0  0  0  0  0  0  0  0  0  0
   -1.5137    2.3918    0.2492 H   0  0  0  0  0  0  0  0  0  0  0  0
  1  2  1  0
  2  3  1  0
  3  4  1  0
  4  5  1  0
  5  6  2  0
  4  7  1  0
  7  8  1  0
  8  9  1  0
  9  7  1  0
  1 10  1  0
  1 11  1  0
  1 12  1  0
  3 13  1  0
  3 14  1  0
  4 15  1  0
  5 16  1  0
  7 17  1  0
  8 18  1  0
  8 19  1  0
M  END
