
     RDKit          3D

 21 22  0  0  0  0  0  0  0  0999 V2000
    3.1129    0.7836    0.1272 C   0  0  0  0  0  0  0  0  0  0  0  0
    1.7363    0.8544   -0.0454 O   0  0  0  0  0  0  0  0  0  0  0  0
    1.2355   -0.4185   -0.1677 C   0  0  0  0  0  0  0  0  0  0  0  0
   -0.2152   -0.5167   -0.3572 C   0  0  0  0  0  0  0  0  0  0  0  0
   -1.0086   -1.7407   -0.0657 C   0  0  0  0  0  0  0  0  0  0  0  0
   -2.2574   -0.8461   -0.1039 C   0  0  0  0  0  0  0  0  0  0  0  0
   -1.2731    0.2999   -0.3826 C   0  0  0  0  0  0  0  0  0  0  0  0
   -1.6409    1.5892    0.2352 C   0  0  0  0  0  0  0  0  0  0  0  0
   -0.6414    0.1900   -1.5882 O   0  0  0  0  0  0  0  0  0  0  0  0
    3.3998    0.2124    1.0300 H   0  0  0  0  0  0  0  0  0  0  0  0
    3.5588    1.8086    0.2593 H   0  0  0  0  0  0  0  0  0  0  0  0
    3.5667    0.3647   -0.8045 H   0  0  0  0  0  0  0  0  0  0  0  0
    1.5496   -0.9953    0.7266 H   0  0  0  0  0  0  0  0  0  0  0  0
    1.7746   -0.8960   -1.0380 H   0  0  0  0  0  0  0  0  0  0  0  0
   -1.0497   -2.5187   -0.8486 H   0  0  0  0  0  0  0  0  0  0  0  0
   -0.7798   -2.1390    0.9187 H   0  0  0  0  0  0  0  0  0  0  0  0
   -2.8907   -1.0314   -0.9979 H   0  0  0  0  0  0  0  0  0  0  0  0
   -2.7728   -0.7452    0.8545 H   0  0  0  0  0  0  0  0  0  0  0  0
   -2.0344    1.3808    1.2678 H   0  0  0  0  0  0  0  0  0  0  0  0
   -0.8592    2.3503    0.2348 H   0  0  0  0  0  0  0  0  0  0  0  0
   -2.5111    2.0137   -0.3177 H   0  0  0  0  0  0  0  0  0  0  0  0
  1  2  1  0
  2  3  1  0
  3  4  1  0
  4  5  1  0
  5  6  1  0
  6  7  1  0
  7  8  1  0
  7  9  1  0
  7  4  1  0
  9  4  1  0
  1 10  1  0
  1 11  1  0
  1 12  1  0
  3 13  1  0
  3 14  1  0
  5 15  1  0
  5 16  1  0
  6 17  1  0
  6 18  1  0
  8 19  1  0
  8 20  1  0
  8 21  1  0
M  END
