
     RDKit          3D

 23 23  0  0  0  0  0  0  0  0999 V2000
    2.9009    0.9908    0.7658 C   0  0  0  0  0  0  0  0  0  0  0  0
    1.7632    1.0903   -0.0324 O   0  0  0  0  0  0  0  0  0  0  0  0
    1.1951   -0.1558   -0.1157 C   0  0  0  0  0  0  0  0  0  0  0  0
   -0.0548   -0.1936   -0.9567 C   0  0  0  0  0  0  0  0  0  0  0  0
   -0.5659   -1.6261   -0.9558 C   0  0  0  0  0  0  0  0  0  0  0  0
   -1.8843   -1.4334   -1.3883 O   0  0  0  0  0  0  0  0  0  0  0  0
   -2.3792   -0.3744   -0.6475 C   0  0  0  0  0  0  0  0  0  0  0  0
   -1.2096    0.5335   -0.3449 C   0  0  0  0  0  0  0  0  0  0  0  0
   -1.1049    0.7019    1.1331 C   0  0  0  0  0  0  0  0  0  0  0  0
    3.5790    0.2689    0.2709 H   0  0  0  0  0  0  0  0  0  0  0  0
    3.3794    1.9755    0.9179 H   0  0  0  0  0  0  0  0  0  0  0  0
    2.6682    0.5787    1.7779 H   0  0  0  0  0  0  0  0  0  0  0  0
    0.9936   -0.6382    0.8577 H   0  0  0  0  0  0  0  0  0  0  0  0
    1.9382   -0.8218   -0.6295 H   0  0  0  0  0  0  0  0  0  0  0  0
    0.1160    0.1828   -1.9749 H   0  0  0  0  0  0  0  0  0  0  0  0
   -0.0136   -2.2461   -1.6645 H   0  0  0  0  0  0  0  0  0  0  0  0
   -0.5286   -1.9804    0.0876 H   0  0  0  0  0  0  0  0  0  0  0  0
   -2.8326   -0.7986    0.2747 H   0  0  0  0  0  0  0  0  0  0  0  0
   -3.1929    0.1579   -1.1788 H   0  0  0  0  0  0  0  0  0  0  0  0
   -1.4000    1.5162   -0.8550 H   0  0  0  0  0  0  0  0  0  0  0  0
   -1.8015    1.5252    1.4572 H   0  0  0  0  0  0  0  0  0  0  0  0
   -0.1099    0.9495    1.5082 H   0  0  0  0  0  0  0  0  0  0  0  0
   -1.4556   -0.2028    1.6930 H   0  0  0  0  0  0  0  0  0  0  0  0
  1  2  1  0
  2  3  1  0
  3  4  1  0
  4  5  1  0
  5  6  1  0
  6  7  1  0
  7  8  1  0
  8  9  1  0
  8  4  1  0
  1 10  1  0
  1 11  1  0
  1 12  1  0
  3 13  1  0
  3 14  1  0
  4 15  1  0
  5 16  1  0
  5 17  1  0
  7 18  1  0
  7 19  1  0
  8 20  1  0
  9 21  1  0
  9 22  1  0
  9 23  1  0
M  END
