
     RDKit          3D

 20 20  0  0  0  0  0  0  0  0999 V2000
    2.2213   -1.6365   -0.2854 C   0  0  0  0  0  0  0  0  0  0  0  0
    2.0210   -0.4787   -1.0302 O   0  0  0  0  0  0  0  0  0  0  0  0
    1.3194    0.4774   -0.3266 C   0  0  0  0  0  0  0  0  0  0  0  0
   -0.0565    0.0178    0.1057 C   0  0  0  0  0  0  0  0  0  0  0  0
   -0.9686   -0.3693   -1.0381 C   0  0  0  0  0  0  0  0  0  0  0  0
   -2.1067    0.2723   -0.2301 C   0  0  0  0  0  0  0  0  0  0  0  0
   -1.0221    1.1898    0.3477 C   0  0  0  0  0  0  0  0  0  0  0  0
   -1.1877    1.5169    1.6707 O   0  0  0  0  0  0  0  0  0  0  0  0
    2.7757   -2.4055   -0.8215 H   0  0  0  0  0  0  0  0  0  0  0  0
    2.7184   -1.3782    0.6712 H   0  0  0  0  0  0  0  0  0  0  0  0
    1.1910   -2.0040   -0.0082 H   0  0  0  0  0  0  0  0  0  0  0  0
    1.9136    0.7395    0.5642 H   0  0  0  0  0  0  0  0  0  0  0  0
    1.1553    1.3588   -0.9894 H   0  0  0  0  0  0  0  0  0  0  0  0
   -0.0177   -0.6799    0.9544 H   0  0  0  0  0  0  0  0  0  0  0  0
   -1.0855   -1.4314   -1.2333 H   0  0  0  0  0  0  0  0  0  0  0  0
   -0.7552    0.2774   -1.9109 H   0  0  0  0  0  0  0  0  0  0  0  0
   -2.8642    0.7695   -0.8298 H   0  0  0  0  0  0  0  0  0  0  0  0
   -2.4712   -0.3766    0.6043 H   0  0  0  0  0  0  0  0  0  0  0  0
   -0.8481    2.0085   -0.3650 H   0  0  0  0  0  0  0  0  0  0  0  0
   -1.9321    2.1322    1.7541 H   0  0  0  0  0  0  0  0  0  0  0  0
  1  2  1  0
  2  3  1  0
  3  4  1  0
  4  5  1  0
  5  6  1  0
  6  7  1  0
  7  8  1  0
  7  4  1  0
  1  9  1  0
  1 10  1  0
  1 11  1  0
  3 12  1  0
  3 13  1  0
  4 14  1  0
  5 15  1  0
  5 16  1  0
  6 17  1  0
  6 18  1  0
  7 19  1  0
  8 20  1  0
M  END
