
     RDKit          3D

 22 22  0  0  0  0  0  0  0  0999 V2000
    3.3579   -0.6789   -0.3233 C   0  0  0  0  0  0  0  0  0  0  0  0
    2.2638   -0.0315    0.1854 O   0  0  0  0  0  0  0  0  0  0  0  0
    1.0547   -0.6271   -0.1670 C   0  0  0  0  0  0  0  0  0  0  0  0
   -0.0930    0.1467    0.4328 C   0  0  0  0  0  0  0  0  0  0  0  0
   -1.4898   -0.2686    0.2159 C   0  0  0  0  0  0  0  0  0  0  0  0
   -1.8487   -1.3211   -0.8046 C   0  0  0  0  0  0  0  0  0  0  0  0
   -0.9567    1.0096   -0.3895 C   0  0  0  0  0  0  0  0  0  0  0  0
   -1.5683    2.2679    0.2316 C   0  0  0  0  0  0  0  0  0  0  0  0
    3.3486   -0.7149   -1.4524 H   0  0  0  0  0  0  0  0  0  0  0  0
    3.5192   -1.6988    0.0879 H   0  0  0  0  0  0  0  0  0  0  0  0
    4.2605   -0.0858   -0.0699 H   0  0  0  0  0  0  0  0  0  0  0  0
    1.0258   -1.7046    0.1237 H   0  0  0  0  0  0  0  0  0  0  0  0
    0.9856   -0.6130   -1.2749 H   0  0  0  0  0  0  0  0  0  0  0  0
    0.1342    0.5359    1.4573 H   0  0  0  0  0  0  0  0  0  0  0  0
   -2.2138   -0.2096    1.0540 H   0  0  0  0  0  0  0  0  0  0  0  0
   -1.5288   -2.3375   -0.4485 H   0  0  0  0  0  0  0  0  0  0  0  0
   -2.9536   -1.3583   -0.8988 H   0  0  0  0  0  0  0  0  0  0  0  0
   -1.3673   -1.1535   -1.7809 H   0  0  0  0  0  0  0  0  0  0  0  0
   -0.7942    1.0856   -1.4685 H   0  0  0  0  0  0  0  0  0  0  0  0
   -2.4261    2.6032   -0.3564 H   0  0  0  0  0  0  0  0  0  0  0  0
   -0.8029    3.0789    0.3011 H   0  0  0  0  0  0  0  0  0  0  0  0
   -1.9072    2.0753    1.2705 H   0  0  0  0  0  0  0  0  0  0  0  0
  1  2  1  0
  2  3  1  0
  3  4  1  0
  4  5  1  0
  5  6  1  0
  5  7  1  0
  7  8  1  0
  7  4  1  0
  1  9  1  0
  1 10  1  0
  1 11  1  0
  3 12  1  0
  3 13  1  0
  4 14  1  0
  5 15  1  0
  6 16  1  0
  6 17  1  0
  6 18  1  0
  7 19  1  0
  8 20  1  0
  8 21  1  0
  8 22  1  0
M  END
