
     RDKit          3D

 17 16  0  0  0  0  0  0  0  0999 V2000
   -3.6194    0.5049   -0.4991 C   0  0  0  0  0  0  0  0  0  0  0  0
   -2.5527    0.8771    0.3173 O   0  0  0  0  0  0  0  0  0  0  0  0
   -1.3804    0.2848   -0.1417 C   0  0  0  0  0  0  0  0  0  0  0  0
   -0.2384    0.6670    0.7102 C   0  0  0  0  0  0  0  0  0  0  0  0
   -0.4323    1.4239    1.6784 O   0  0  0  0  0  0  0  0  0  0  0  0
    1.0641    0.1344    0.3705 C   0  0  0  0  0  0  0  0  0  0  0  0
    2.1586   -0.2933    0.0765 C   0  0  0  0  0  0  0  0  0  0  0  0
    3.4779   -0.8117   -0.3044 C   0  0  0  0  0  0  0  0  0  0  0  0
    4.0849   -1.4913    0.7596 O   0  0  0  0  0  0  0  0  0  0  0  0
   -3.7017   -0.6164   -0.4519 H   0  0  0  0  0  0  0  0  0  0  0  0
   -4.5770    0.8976   -0.1671 H   0  0  0  0  0  0  0  0  0  0  0  0
   -3.3567    0.8196   -1.5325 H   0  0  0  0  0  0  0  0  0  0  0  0
   -1.5122   -0.8166   -0.1868 H   0  0  0  0  0  0  0  0  0  0  0  0
   -1.1544    0.6887   -1.1696 H   0  0  0  0  0  0  0  0  0  0  0  0
    3.4154   -1.5293   -1.1368 H   0  0  0  0  0  0  0  0  0  0  0  0
    4.1060    0.0482   -0.6139 H   0  0  0  0  0  0  0  0  0  0  0  0
    4.2184   -0.7875    1.4683 H   0  0  0  0  0  0  0  0  0  0  0  0
  1  2  1  0
  2  3  1  0
  3  4  1  0
  4  5  2  0
  4  6  1  0
  6  7  3  0
  7  8  1  0
  8  9  1  0
  1 10  1  0
  1 11  1  0
  1 12  1  0
  3 13  1  0
  3 14  1  0
  8 15  1  0
  8 16  1  0
  9 17  1  0
M  END
