
     RDKit          3D

 23 23  0  0  0  0  0  0  0  0999 V2000
    3.3994    0.2056    0.7496 C   0  0  0  0  0  0  0  0  0  0  0  0
    2.2109   -0.4380    0.4065 O   0  0  0  0  0  0  0  0  0  0  0  0
    1.5598    0.2369   -0.6396 C   0  0  0  0  0  0  0  0  0  0  0  0
    0.2858   -0.4567   -1.0043 C   0  0  0  0  0  0  0  0  0  0  0  0
   -0.6870   -0.5331    0.1549 C   0  0  0  0  0  0  0  0  0  0  0  0
   -1.0665    0.8465    0.6528 C   0  0  0  0  0  0  0  0  0  0  0  0
   -2.5343    0.7565    0.8844 C   0  0  0  0  0  0  0  0  0  0  0  0
   -3.0670   -0.3088    0.3038 C   0  0  0  0  0  0  0  0  0  0  0  0
   -1.9936   -1.0615   -0.3928 C   0  0  0  0  0  0  0  0  0  0  0  0
    4.1062    0.2545   -0.1085 H   0  0  0  0  0  0  0  0  0  0  0  0
    3.8668   -0.3104    1.5979 H   0  0  0  0  0  0  0  0  0  0  0  0
    3.2225    1.2604    1.0579 H   0  0  0  0  0  0  0  0  0  0  0  0
    2.2419    0.1617   -1.5117 H   0  0  0  0  0  0  0  0  0  0  0  0
    1.4085    1.3033   -0.4211 H   0  0  0  0  0  0  0  0  0  0  0  0
    0.4660   -1.4669   -1.3754 H   0  0  0  0  0  0  0  0  0  0  0  0
   -0.2260    0.1604   -1.7883 H   0  0  0  0  0  0  0  0  0  0  0  0
   -0.3368   -1.1898    0.9622 H   0  0  0  0  0  0  0  0  0  0  0  0
   -0.8081    1.6388   -0.0582 H   0  0  0  0  0  0  0  0  0  0  0  0
   -0.5953    1.0096    1.6568 H   0  0  0  0  0  0  0  0  0  0  0  0
   -3.1438    1.4751    1.4675 H   0  0  0  0  0  0  0  0  0  0  0  0
   -4.1405   -0.5797    0.3422 H   0  0  0  0  0  0  0  0  0  0  0  0
   -2.0917   -2.1539   -0.2747 H   0  0  0  0  0  0  0  0  0  0  0  0
   -2.0773   -0.8106   -1.4745 H   0  0  0  0  0  0  0  0  0  0  0  0
  1  2  1  0
  2  3  1  0
  3  4  1  0
  4  5  1  0
  5  6  1  0
  6  7  1  0
  7  8  2  0
  8  9  1  0
  9  5  1  0
  1 10  1  0
  1 11  1  0
  1 12  1  0
  3 13  1  0
  3 14  1  0
  4 15  1  0
  4 16  1  0
  5 17  1  0
  6 18  1  0
  6 19  1  0
  7 20  1  0
  8 21  1  0
  9 22  1  0
  9 23  1  0
M  END
