
     RDKit          3D

 23 24  0  0  0  0  0  0  0  0999 V2000
    3.1873   -0.7239    0.7964 C   0  0  0  0  0  0  0  0  0  0  0  0
    1.7919   -0.5883    0.8319 O   0  0  0  0  0  0  0  0  0  0  0  0
    1.4090    0.0594   -0.3245 C   0  0  0  0  0  0  0  0  0  0  0  0
   -0.0701    0.2759   -0.4256 C   0  0  0  0  0  0  0  0  0  0  0  0
   -0.4984    0.9894   -1.6982 C   0  0  0  0  0  0  0  0  0  0  0  0
   -0.7897    0.4979    0.8426 C   0  0  0  0  0  0  0  0  0  0  0  0
   -2.2920    0.5484    0.9032 C   0  0  0  0  0  0  0  0  0  0  0  0
   -2.4390   -0.6728    0.0479 C   0  0  0  0  0  0  0  0  0  0  0  0
   -0.9404   -0.8112    0.0347 C   0  0  0  0  0  0  0  0  0  0  0  0
    3.4524   -1.2558    1.7564 H   0  0  0  0  0  0  0  0  0  0  0  0
    3.5291   -1.2927   -0.0935 H   0  0  0  0  0  0  0  0  0  0  0  0
    3.6133    0.2986    0.7915 H   0  0  0  0  0  0  0  0  0  0  0  0
    1.7773   -0.4487   -1.2446 H   0  0  0  0  0  0  0  0  0  0  0  0
    1.9052    1.0690   -0.3235 H   0  0  0  0  0  0  0  0  0  0  0  0
   -0.1821    0.3106   -2.5424 H   0  0  0  0  0  0  0  0  0  0  0  0
   -1.5835    1.0855   -1.7837 H   0  0  0  0  0  0  0  0  0  0  0  0
    0.0549    1.9481   -1.7885 H   0  0  0  0  0  0  0  0  0  0  0  0
   -0.2190    0.4500    1.7809 H   0  0  0  0  0  0  0  0  0  0  0  0
   -2.7474    1.4717    0.4672 H   0  0  0  0  0  0  0  0  0  0  0  0
   -2.6490    0.4563    1.9509 H   0  0  0  0  0  0  0  0  0  0  0  0
   -2.9207   -1.5428    0.4943 H   0  0  0  0  0  0  0  0  0  0  0  0
   -2.8804   -0.3942   -0.9512 H   0  0  0  0  0  0  0  0  0  0  0  0
   -0.5088   -1.7302    0.4777 H   0  0  0  0  0  0  0  0  0  0  0  0
  1  2  1  0
  2  3  1  0
  3  4  1  0
  4  5  1  0
  4  6  1  0
  6  7  1  0
  7  8  1  0
  8  9  1  0
  9  4  1  0
  9  6  1  0
  1 10  1  0
  1 11  1  0
  1 12  1  0
  3 13  1  0
  3 14  1  0
  5 15  1  0
  5 16  1  0
  5 17  1  0
  6 18  1  0
  7 19  1  0
  7 20  1  0
  8 21  1  0
  8 22  1  0
  9 23  1  0
M  END
