
     RDKit          3D

 21 20  0  0  0  0  0  0  0  0999 V2000
    2.8316    0.1515   -0.3626 C   0  0  0  0  0  0  0  0  0  0  0  0
    1.5511    0.1762    0.1603 O   0  0  0  0  0  0  0  0  0  0  0  0
    0.5609   -0.1008   -0.7470 C   0  0  0  0  0  0  0  0  0  0  0  0
   -0.7625   -0.0231    0.0258 C   0  0  0  0  0  0  0  0  0  0  0  0
   -0.9031    1.3684    0.5919 C   0  0  0  0  0  0  0  0  0  0  0  0
   -0.6555   -1.0566    1.1273 C   0  0  0  0  0  0  0  0  0  0  0  0
   -1.9155   -0.3796   -0.8888 C   0  0  0  0  0  0  0  0  0  0  0  0
    3.0049   -0.8771   -0.7648 H   0  0  0  0  0  0  0  0  0  0  0  0
    3.5263    0.3201    0.4902 H   0  0  0  0  0  0  0  0  0  0  0  0
    2.9986    0.9212   -1.1466 H   0  0  0  0  0  0  0  0  0  0  0  0
    0.6589   -1.0920   -1.2332 H   0  0  0  0  0  0  0  0  0  0  0  0
    0.4642    0.6438   -1.5633 H   0  0  0  0  0  0  0  0  0  0  0  0
   -1.9005    1.7595    0.2972 H   0  0  0  0  0  0  0  0  0  0  0  0
   -0.8634    1.3176    1.7135 H   0  0  0  0  0  0  0  0  0  0  0  0
   -0.1090    2.0650    0.1968 H   0  0  0  0  0  0  0  0  0  0  0  0
   -1.3289   -0.7803    1.9631 H   0  0  0  0  0  0  0  0  0  0  0  0
    0.3690   -1.0807    1.5446 H   0  0  0  0  0  0  0  0  0  0  0  0
   -0.9232   -2.0522    0.7042 H   0  0  0  0  0  0  0  0  0  0  0  0
   -2.7113    0.3962   -0.7045 H   0  0  0  0  0  0  0  0  0  0  0  0
   -1.6036   -0.2851   -1.9370 H   0  0  0  0  0  0  0  0  0  0  0  0
   -2.2890   -1.3918   -0.6520 H   0  0  0  0  0  0  0  0  0  0  0  0
  1  2  1  0
  2  3  1  0
  3  4  1  0
  4  5  1  0
  4  6  1  0
  4  7  1  0
  1  8  1  0
  1  9  1  0
  1 10  1  0
  3 11  1  0
  3 12  1  0
  5 13  1  0
  5 14  1  0
  5 15  1  0
  6 16  1  0
  6 17  1  0
  6 18  1  0
  7 19  1  0
  7 20  1  0
  7 21  1  0
M  END
