
     RDKit          3D

 21 21  0  0  0  0  0  0  0  0999 V2000
   -2.5980   -0.4735    0.2684 C   0  0  0  0  0  0  0  0  0  0  0  0
   -1.6753    0.2627    0.9560 O   0  0  0  0  0  0  0  0  0  0  0  0
   -0.9038    1.1398    0.2719 C   0  0  0  0  0  0  0  0  0  0  0  0
   -0.0315    0.5845   -0.7934 C   0  0  0  0  0  0  0  0  0  0  0  0
   -0.7160   -0.0452   -1.8163 O   0  0  0  0  0  0  0  0  0  0  0  0
    0.9766   -0.4133   -0.2648 C   0  0  0  0  0  0  0  0  0  0  0  0
    0.4520   -1.6155    0.2515 O   0  0  0  0  0  0  0  0  0  0  0  0
    2.2365   -0.5250   -1.0965 C   0  0  0  0  0  0  0  0  0  0  0  0
    2.2562    0.0129    0.3233 C   0  0  0  0  0  0  0  0  0  0  0  0
   -2.2068   -1.1490   -0.5137 H   0  0  0  0  0  0  0  0  0  0  0  0
   -3.3871    0.1664   -0.2039 H   0  0  0  0  0  0  0  0  0  0  0  0
   -3.1937   -1.1488    0.9508 H   0  0  0  0  0  0  0  0  0  0  0  0
   -1.5729    1.8958   -0.2093 H   0  0  0  0  0  0  0  0  0  0  0  0
   -0.2646    1.6856    1.0048 H   0  0  0  0  0  0  0  0  0  0  0  0
    0.5797    1.4265   -1.2197 H   0  0  0  0  0  0  0  0  0  0  0  0
   -0.8086    0.5170   -2.6249 H   0  0  0  0  0  0  0  0  0  0  0  0
    0.6076   -1.5665    1.2313 H   0  0  0  0  0  0  0  0  0  0  0  0
    2.6585   -1.5162   -1.3080 H   0  0  0  0  0  0  0  0  0  0  0  0
    2.4385    0.2471   -1.8620 H   0  0  0  0  0  0  0  0  0  0  0  0
    2.3939    1.1078    0.4706 H   0  0  0  0  0  0  0  0  0  0  0  0
    2.7590   -0.5929    1.0743 H   0  0  0  0  0  0  0  0  0  0  0  0
  1  2  1  0
  2  3  1  0
  3  4  1  0
  4  5  1  0
  4  6  1  0
  6  7  1  0
  6  8  1  0
  8  9  1  0
  9  6  1  0
  1 10  1  0
  1 11  1  0
  1 12  1  0
  3 13  1  0
  3 14  1  0
  4 15  1  0
  5 16  1  0
  7 17  1  0
  8 18  1  0
  8 19  1  0
  9 20  1  0
  9 21  1  0
M  END
