
     RDKit          3D

 21 22  0  0  0  0  0  0  0  0999 V2000
   -3.1509    0.5155    0.5620 C   0  0  0  0  0  0  0  0  0  0  0  0
   -1.9501    0.4848   -0.1353 O   0  0  0  0  0  0  0  0  0  0  0  0
   -1.3404   -0.7306    0.0848 C   0  0  0  0  0  0  0  0  0  0  0  0
   -0.0233   -0.7819   -0.6714 C   0  0  0  0  0  0  0  0  0  0  0  0
    0.8325    0.3451   -0.1472 C   0  0  0  0  0  0  0  0  0  0  0  0
    2.2017    0.4383   -0.8050 C   0  0  0  0  0  0  0  0  0  0  0  0
    2.7887    0.2747    0.5969 C   0  0  0  0  0  0  0  0  0  0  0  0
    2.5176   -0.9514    1.1684 O   0  0  0  0  0  0  0  0  0  0  0  0
    1.5455    0.0453    1.1522 C   0  0  0  0  0  0  0  0  0  0  0  0
   -3.8230   -0.3015    0.2164 H   0  0  0  0  0  0  0  0  0  0  0  0
   -2.9829    0.3816    1.6559 H   0  0  0  0  0  0  0  0  0  0  0  0
   -3.6762    1.4797    0.4081 H   0  0  0  0  0  0  0  0  0  0  0  0
   -1.1449   -0.8534    1.1777 H   0  0  0  0  0  0  0  0  0  0  0  0
   -1.9785   -1.5347   -0.3159 H   0  0  0  0  0  0  0  0  0  0  0  0
    0.5180   -1.7189   -0.5030 H   0  0  0  0  0  0  0  0  0  0  0  0
   -0.2177   -0.5729   -1.7419 H   0  0  0  0  0  0  0  0  0  0  0  0
    0.3668    1.3364   -0.1247 H   0  0  0  0  0  0  0  0  0  0  0  0
    2.4201    1.4249   -1.2679 H   0  0  0  0  0  0  0  0  0  0  0  0
    2.3540   -0.4443   -1.4526 H   0  0  0  0  0  0  0  0  0  0  0  0
    3.6508    0.8679    0.8953 H   0  0  0  0  0  0  0  0  0  0  0  0
    1.0922    0.2952    2.1121 H   0  0  0  0  0  0  0  0  0  0  0  0
  1  2  1  0
  2  3  1  0
  3  4  1  0
  4  5  1  0
  5  6  1  0
  6  7  1  0
  7  8  1  0
  8  9  1  0
  9  5  1  0
  9  7  1  0
  1 10  1  0
  1 11  1  0
  1 12  1  0
  3 13  1  0
  3 14  1  0
  4 15  1  0
  4 16  1  0
  5 17  1  0
  6 18  1  0
  6 19  1  0
  7 20  1  0
  9 21  1  0
M  END
