
     RDKit          3D

 19 18  0  0  0  0  0  0  0  0999 V2000
   -2.6184    0.8966    0.7961 C   0  0  0  0  0  0  0  0  0  0  0  0
   -1.3501    0.7091    0.2551 O   0  0  0  0  0  0  0  0  0  0  0  0
   -1.2125   -0.5734   -0.2697 C   0  0  0  0  0  0  0  0  0  0  0  0
    0.1690   -0.7769   -0.8588 C   0  0  0  0  0  0  0  0  0  0  0  0
    0.4159    0.1297   -1.8851 O   0  0  0  0  0  0  0  0  0  0  0  0
    1.2341   -0.6553    0.1478 C   0  0  0  0  0  0  0  0  0  0  0  0
    1.1968   -1.3686    1.1293 O   0  0  0  0  0  0  0  0  0  0  0  0
    2.3449    0.3134   -0.0100 C   0  0  0  0  0  0  0  0  0  0  0  0
    3.2182    0.2284    1.0797 O   0  0  0  0  0  0  0  0  0  0  0  0
   -3.3473    0.7480   -0.0124 H   0  0  0  0  0  0  0  0  0  0  0  0
   -2.7939    0.1706    1.6416 H   0  0  0  0  0  0  0  0  0  0  0  0
   -2.7439    1.8989    1.2334 H   0  0  0  0  0  0  0  0  0  0  0  0
   -1.4836   -1.3696    0.4392 H   0  0  0  0  0  0  0  0  0  0  0  0
   -1.9438   -0.6538   -1.1143 H   0  0  0  0  0  0  0  0  0  0  0  0
    0.2540   -1.7859   -1.3104 H   0  0  0  0  0  0  0  0  0  0  0  0
   -0.1800    0.9006   -1.7860 H   0  0  0  0  0  0  0  0  0  0  0  0
    2.9212    0.1687   -0.9397 H   0  0  0  0  0  0  0  0  0  0  0  0
    1.9400    1.3606    0.0175 H   0  0  0  0  0  0  0  0  0  0  0  0
    3.9795   -0.3411    0.8642 H   0  0  0  0  0  0  0  0  0  0  0  0
  1  2  1  0
  2  3  1  0
  3  4  1  0
  4  5  1  0
  4  6  1  0
  6  7  2  0
  6  8  1  0
  8  9  1  0
  1 10  1  0
  1 11  1  0
  1 12  1  0
  3 13  1  0
  3 14  1  0
  4 15  1  0
  5 16  1  0
  8 17  1  0
  8 18  1  0
  9 19  1  0
M  END
