
     RDKit          3D

 17 16  0  0  0  0  0  0  0  0999 V2000
    2.4399   -0.7848    0.4399 C   0  0  0  0  0  0  0  0  0  0  0  0
    1.2954   -0.5288   -0.3102 O   0  0  0  0  0  0  0  0  0  0  0  0
    0.5633    0.4750    0.3120 C   0  0  0  0  0  0  0  0  0  0  0  0
   -0.6930    0.8267   -0.4185 C   0  0  0  0  0  0  0  0  0  0  0  0
   -1.3289    1.8421    0.3102 O   0  0  0  0  0  0  0  0  0  0  0  0
   -1.6372   -0.3294   -0.5925 C   0  0  0  0  0  0  0  0  0  0  0  0
   -1.9835   -0.7864    0.6732 O   0  0  0  0  0  0  0  0  0  0  0  0
    3.0479    0.1648    0.4967 H   0  0  0  0  0  0  0  0  0  0  0  0
    2.2007   -1.0579    1.4882 H   0  0  0  0  0  0  0  0  0  0  0  0
    3.0998   -1.5186   -0.0534 H   0  0  0  0  0  0  0  0  0  0  0  0
    0.3820    0.2511    1.3879 H   0  0  0  0  0  0  0  0  0  0  0  0
    1.2078    1.3834    0.3054 H   0  0  0  0  0  0  0  0  0  0  0  0
   -0.4380    1.2669   -1.3977 H   0  0  0  0  0  0  0  0  0  0  0  0
   -1.8318    1.3846    1.0402 H   0  0  0  0  0  0  0  0  0  0  0  0
   -1.1997   -1.1021   -1.2342 H   0  0  0  0  0  0  0  0  0  0  0  0
   -2.5324    0.0676   -1.1177 H   0  0  0  0  0  0  0  0  0  0  0  0
   -2.5923   -1.5541    0.5806 H   0  0  0  0  0  0  0  0  0  0  0  0
  1  2  1  0
  2  3  1  0
  3  4  1  0
  4  5  1  0
  4  6  1  0
  6  7  1  0
  1  8  1  0
  1  9  1  0
  1 10  1  0
  3 11  1  0
  3 12  1  0
  4 13  1  0
  5 14  1  0
  6 15  1  0
  6 16  1  0
  7 17  1  0
M  END
