
     RDKit          3D

 19 18  0  0  0  0  0  0  0  0999 V2000
    3.0509    0.1256    0.4588 C   0  0  0  0  0  0  0  0  0  0  0  0
    2.2318    0.8756   -0.3399 O   0  0  0  0  0  0  0  0  0  0  0  0
    1.0701    0.3013   -0.7610 C   0  0  0  0  0  0  0  0  0  0  0  0
    0.1781   -0.0629    0.3590 C   0  0  0  0  0  0  0  0  0  0  0  0
    0.4499    0.1503    1.5218 O   0  0  0  0  0  0  0  0  0  0  0  0
   -1.1271   -0.7262    0.0818 C   0  0  0  0  0  0  0  0  0  0  0  0
   -1.2800   -0.8936   -1.2714 O   0  0  0  0  0  0  0  0  0  0  0  0
   -2.1960    0.2080    0.6545 C   0  0  0  0  0  0  0  0  0  0  0  0
   -3.4362   -0.3372    0.4109 O   0  0  0  0  0  0  0  0  0  0  0  0
    3.3836   -0.8298   -0.0470 H   0  0  0  0  0  0  0  0  0  0  0  0
    4.0273    0.7015    0.5369 H   0  0  0  0  0  0  0  0  0  0  0  0
    2.7355   -0.0082    1.4891 H   0  0  0  0  0  0  0  0  0  0  0  0
    1.2189   -0.6202   -1.3711 H   0  0  0  0  0  0  0  0  0  0  0  0
    0.5705    1.0614   -1.4349 H   0  0  0  0  0  0  0  0  0  0  0  0
   -1.1813   -1.7235    0.6012 H   0  0  0  0  0  0  0  0  0  0  0  0
   -1.6868   -0.0888   -1.6885 H   0  0  0  0  0  0  0  0  0  0  0  0
   -2.0417    1.1878    0.1458 H   0  0  0  0  0  0  0  0  0  0  0  0
   -1.9487    0.3435    1.7118 H   0  0  0  0  0  0  0  0  0  0  0  0
   -4.0188    0.3353   -0.0205 H   0  0  0  0  0  0  0  0  0  0  0  0
  1  2  1  0
  2  3  1  0
  3  4  1  0
  4  5  2  0
  4  6  1  0
  6  7  1  0
  6  8  1  0
  8  9  1  0
  1 10  1  0
  1 11  1  0
  1 12  1  0
  3 13  1  0
  3 14  1  0
  6 15  1  0
  7 16  1  0
  8 17  1  0
  8 18  1  0
  9 19  1  0
M  END
