
     RDKit          3D

 21 22  0  0  0  0  0  0  0  0999 V2000
    3.4410   -0.0878    0.3311 C   0  0  0  0  0  0  0  0  0  0  0  0
    2.4077   -0.9825    0.3658 O   0  0  0  0  0  0  0  0  0  0  0  0
    1.4113   -0.7033   -0.5446 C   0  0  0  0  0  0  0  0  0  0  0  0
    0.7341    0.6101   -0.3679 C   0  0  0  0  0  0  0  0  0  0  0  0
   -0.2971    0.9776   -1.2311 O   0  0  0  0  0  0  0  0  0  0  0  0
   -0.5450    0.7264    0.2236 C   0  0  0  0  0  0  0  0  0  0  0  0
   -1.6078   -0.3213    0.3310 C   0  0  0  0  0  0  0  0  0  0  0  0
   -2.9103   -0.0314    0.9847 C   0  0  0  0  0  0  0  0  0  0  0  0
   -2.8824   -0.0678   -0.5013 C   0  0  0  0  0  0  0  0  0  0  0  0
    3.8622   -0.1145   -0.7066 H   0  0  0  0  0  0  0  0  0  0  0  0
    3.1908    0.9633    0.5519 H   0  0  0  0  0  0  0  0  0  0  0  0
    4.2312   -0.3551    1.0752 H   0  0  0  0  0  0  0  0  0  0  0  0
    0.6218   -1.4997   -0.3942 H   0  0  0  0  0  0  0  0  0  0  0  0
    1.7535   -0.8826   -1.5964 H   0  0  0  0  0  0  0  0  0  0  0  0
    1.4466    1.4713   -0.2242 H   0  0  0  0  0  0  0  0  0  0  0  0
   -0.8168    1.6718    0.7487 H   0  0  0  0  0  0  0  0  0  0  0  0
   -1.2363   -1.3614    0.3806 H   0  0  0  0  0  0  0  0  0  0  0  0
   -3.1071    0.9284    1.4884 H   0  0  0  0  0  0  0  0  0  0  0  0
   -3.4387   -0.8997    1.4529 H   0  0  0  0  0  0  0  0  0  0  0  0
   -2.9435    0.9044   -1.0262 H   0  0  0  0  0  0  0  0  0  0  0  0
   -3.3151   -0.9461   -1.0304 H   0  0  0  0  0  0  0  0  0  0  0  0
  1  2  1  0
  2  3  1  0
  3  4  1  0
  4  5  1  0
  5  6  1  0
  6  7  1  0
  7  8  1  0
  8  9  1  0
  6  4  1  0
  9  7  1  0
  1 10  1  0
  1 11  1  0
  1 12  1  0
  3 13  1  0
  3 14  1  0
  4 15  1  0
  6 16  1  0
  7 17  1  0
  8 18  1  0
  8 19  1  0
  9 20  1  0
  9 21  1  0
M  END
