
     RDKit          3D

 21 22  0  0  0  0  0  0  0  0999 V2000
    2.6555   -1.4012   -0.3837 C   0  0  0  0  0  0  0  0  0  0  0  0
    1.2992   -1.1795   -0.1050 O   0  0  0  0  0  0  0  0  0  0  0  0
    1.1632    0.2243   -0.0141 C   0  0  0  0  0  0  0  0  0  0  0  0
   -0.1413    0.5895    0.2609 C   0  0  0  0  0  0  0  0  0  0  0  0
   -0.6571    1.9688    0.4745 C   0  0  0  0  0  0  0  0  0  0  0  0
   -1.7884    1.0147    0.7023 C   0  0  0  0  0  0  0  0  0  0  0  0
   -0.8716    0.2194    1.3829 O   0  0  0  0  0  0  0  0  0  0  0  0
   -1.3582    0.3010   -0.5378 C   0  0  0  0  0  0  0  0  0  0  0  0
   -1.7942   -1.1522   -0.5564 C   0  0  0  0  0  0  0  0  0  0  0  0
    2.8447   -0.8691   -1.3579 H   0  0  0  0  0  0  0  0  0  0  0  0
    2.8816   -2.4798   -0.5084 H   0  0  0  0  0  0  0  0  0  0  0  0
    3.3157   -1.0157    0.4058 H   0  0  0  0  0  0  0  0  0  0  0  0
    1.5582    0.6249   -0.9466 H   0  0  0  0  0  0  0  0  0  0  0  0
    1.8695    0.5182    0.8005 H   0  0  0  0  0  0  0  0  0  0  0  0
   -0.7386    2.6223   -0.4072 H   0  0  0  0  0  0  0  0  0  0  0  0
   -0.2649    2.4453    1.3915 H   0  0  0  0  0  0  0  0  0  0  0  0
   -2.7273    1.2357    0.9943 H   0  0  0  0  0  0  0  0  0  0  0  0
   -1.4494    0.8261   -1.4855 H   0  0  0  0  0  0  0  0  0  0  0  0
   -0.9673   -1.8288   -0.8857 H   0  0  0  0  0  0  0  0  0  0  0  0
   -2.1390   -1.4280    0.4736 H   0  0  0  0  0  0  0  0  0  0  0  0
   -2.6903   -1.2360   -1.2064 H   0  0  0  0  0  0  0  0  0  0  0  0
  1  2  1  0
  2  3  1  0
  3  4  1  0
  4  5  1  0
  5  6  1  0
  6  7  1  0
  6  8  1  0
  8  9  1  0
  7  4  1  0
  8  4  1  0
  1 10  1  0
  1 11  1  0
  1 12  1  0
  3 13  1  0
  3 14  1  0
  5 15  1  0
  5 16  1  0
  6 17  1  0
  8 18  1  0
  9 19  1  0
  9 20  1  0
  9 21  1  0
M  END
