
     RDKit          3D

 21 22  0  0  0  0  0  0  0  0999 V2000
    3.3942    0.5374    0.0912 C   0  0  0  0  0  0  0  0  0  0  0  0
    2.0225    0.6197    0.2308 O   0  0  0  0  0  0  0  0  0  0  0  0
    1.3957   -0.6122    0.2620 C   0  0  0  0  0  0  0  0  0  0  0  0
   -0.0889   -0.3465    0.4175 C   0  0  0  0  0  0  0  0  0  0  0  0
   -0.5528    1.0719    0.6180 C   0  0  0  0  0  0  0  0  0  0  0  0
   -0.8705    0.3240   -0.6219 C   0  0  0  0  0  0  0  0  0  0  0  0
   -1.8574   -0.8094   -0.4539 C   0  0  0  0  0  0  0  0  0  0  0  0
   -3.1312   -0.2928    0.1686 C   0  0  0  0  0  0  0  0  0  0  0  0
   -0.9737   -1.3948    0.4792 O   0  0  0  0  0  0  0  0  0  0  0  0
    3.7813    1.5822    0.0793 H   0  0  0  0  0  0  0  0  0  0  0  0
    3.7331   -0.0451   -0.7683 H   0  0  0  0  0  0  0  0  0  0  0  0
    3.8280    0.0829    1.0291 H   0  0  0  0  0  0  0  0  0  0  0  0
    1.7622   -1.2848    1.0377 H   0  0  0  0  0  0  0  0  0  0  0  0
    1.5021   -1.1555   -0.7216 H   0  0  0  0  0  0  0  0  0  0  0  0
    0.2743    1.8175    0.5254 H   0  0  0  0  0  0  0  0  0  0  0  0
   -1.3112    1.1958    1.4009 H   0  0  0  0  0  0  0  0  0  0  0  0
   -0.4280    0.5459   -1.5919 H   0  0  0  0  0  0  0  0  0  0  0  0
   -2.0274   -1.4203   -1.3403 H   0  0  0  0  0  0  0  0  0  0  0  0
   -3.2434    0.8117    0.0647 H   0  0  0  0  0  0  0  0  0  0  0  0
   -3.1683   -0.4803    1.2749 H   0  0  0  0  0  0  0  0  0  0  0  0
   -4.0407   -0.7474   -0.2793 H   0  0  0  0  0  0  0  0  0  0  0  0
  1  2  1  0
  2  3  1  0
  3  4  1  0
  4  5  1  0
  5  6  1  0
  6  7  1  0
  7  8  1  0
  7  9  1  0
  6  4  1  0
  9  4  1  0
  1 10  1  0
  1 11  1  0
  1 12  1  0
  3 13  1  0
  3 14  1  0
  5 15  1  0
  5 16  1  0
  6 17  1  0
  7 18  1  0
  8 19  1  0
  8 20  1  0
  8 21  1  0
M  END
