
     RDKit          3D

 23 22  0  0  0  0  0  0  0  0999 V2000
    3.7026   -0.2360    1.0624 C   0  0  0  0  0  0  0  0  0  0  0  0
    2.3415   -0.4310    1.2985 O   0  0  0  0  0  0  0  0  0  0  0  0
    1.5934    0.0133    0.2062 C   0  0  0  0  0  0  0  0  0  0  0  0
    0.1136   -0.1798    0.4204 C   0  0  0  0  0  0  0  0  0  0  0  0
   -0.6315    0.3155   -0.7841 C   0  0  0  0  0  0  0  0  0  0  0  0
   -0.1727   -0.4510   -1.8811 O   0  0  0  0  0  0  0  0  0  0  0  0
   -2.1109    0.1006   -0.7115 C   0  0  0  0  0  0  0  0  0  0  0  0
   -2.8041    1.0193    0.2639 C   0  0  0  0  0  0  0  0  0  0  0  0
   -2.4369   -1.2309   -0.5213 O   0  0  0  0  0  0  0  0  0  0  0  0
    3.9142    0.8595    0.8987 H   0  0  0  0  0  0  0  0  0  0  0  0
    4.0609   -0.7850    0.1645 H   0  0  0  0  0  0  0  0  0  0  0  0
    4.3140   -0.5160    1.9406 H   0  0  0  0  0  0  0  0  0  0  0  0
    1.8236    1.0950    0.0959 H   0  0  0  0  0  0  0  0  0  0  0  0
    1.9337   -0.5725   -0.6713 H   0  0  0  0  0  0  0  0  0  0  0  0
   -0.2299    0.2326    1.3674 H   0  0  0  0  0  0  0  0  0  0  0  0
   -0.0585   -1.2907    0.4774 H   0  0  0  0  0  0  0  0  0  0  0  0
   -0.4047    1.3695   -0.9409 H   0  0  0  0  0  0  0  0  0  0  0  0
   -0.7551   -0.1759   -2.6491 H   0  0  0  0  0  0  0  0  0  0  0  0
   -2.5147    0.3745   -1.7293 H   0  0  0  0  0  0  0  0  0  0  0  0
   -3.9005    0.9578    0.0383 H   0  0  0  0  0  0  0  0  0  0  0  0
   -2.5135    2.0626   -0.0331 H   0  0  0  0  0  0  0  0  0  0  0  0
   -2.5574    0.8375    1.3064 H   0  0  0  0  0  0  0  0  0  0  0  0
   -2.7070   -1.4596    0.3812 H   0  0  0  0  0  0  0  0  0  0  0  0
  1  2  1  0
  2  3  1  0
  3  4  1  0
  4  5  1  0
  5  6  1  0
  5  7  1  0
  7  8  1  0
  7  9  1  0
  1 10  1  0
  1 11  1  0
  1 12  1  0
  3 13  1  0
  3 14  1  0
  4 15  1  0
  4 16  1  0
  5 17  1  0
  6 18  1  0
  7 19  1  0
  8 20  1  0
  8 21  1  0
  8 22  1  0
  9 23  1  0
M  END
