
     RDKit          3D

 18 17  0  0  0  0  0  0  0  0999 V2000
    2.1882    0.9027   -0.4013 C   0  0  0  0  0  0  0  0  0  0  0  0
    2.3936    0.0921    0.7320 O   0  0  0  0  0  0  0  0  0  0  0  0
    1.9634   -1.1885    0.4060 C   0  0  0  0  0  0  0  0  0  0  0  0
    0.5358   -1.0978    0.0581 C   0  0  0  0  0  0  0  0  0  0  0  0
   -0.6332   -1.0176   -0.2443 C   0  0  0  0  0  0  0  0  0  0  0  0
   -2.0517   -0.9110   -0.6000 C   0  0  0  0  0  0  0  0  0  0  0  0
   -2.3090    0.4041   -0.8931 O   0  0  0  0  0  0  0  0  0  0  0  0
   -2.0531    1.2588    0.1693 C   0  0  0  0  0  0  0  0  0  0  0  0
    1.1150    0.8706   -0.6100 H   0  0  0  0  0  0  0  0  0  0  0  0
    2.8189    0.5082   -1.2381 H   0  0  0  0  0  0  0  0  0  0  0  0
    2.4896    1.9598   -0.1781 H   0  0  0  0  0  0  0  0  0  0  0  0
    2.0984   -1.8248    1.3296 H   0  0  0  0  0  0  0  0  0  0  0  0
    2.5646   -1.5907   -0.4447 H   0  0  0  0  0  0  0  0  0  0  0  0
   -2.6834   -1.2670    0.2660 H   0  0  0  0  0  0  0  0  0  0  0  0
   -2.2965   -1.5095   -1.5102 H   0  0  0  0  0  0  0  0  0  0  0  0
   -1.0033    1.2005    0.4715 H   0  0  0  0  0  0  0  0  0  0  0  0
   -2.7489    0.9448    0.9985 H   0  0  0  0  0  0  0  0  0  0  0  0
   -2.3886    2.2654   -0.1347 H   0  0  0  0  0  0  0  0  0  0  0  0
  1  2  1  0
  2  3  1  0
  3  4  1  0
  4  5  3  0
  5  6  1  0
  6  7  1  0
  7  8  1  0
  1  9  1  0
  1 10  1  0
  1 11  1  0
  3 12  1  0
  3 13  1  0
  6 14  1  0
  6 15  1  0
  8 16  1  0
  8 17  1  0
  8 18  1  0
M  END
