
     RDKit          3D

 16 15  0  0  0  0  0  0  0  0999 V2000
   -2.5060   -0.9520   -1.0476 C   0  0  0  0  0  0  0  0  0  0  0  0
   -2.3054   -0.1346    0.0188 O   0  0  0  0  0  0  0  0  0  0  0  0
   -1.0479    0.4288    0.1127 C   0  0  0  0  0  0  0  0  0  0  0  0
   -0.0109   -0.6344    0.2305 C   0  0  0  0  0  0  0  0  0  0  0  0
    1.3164    0.0351    0.3430 C   0  0  0  0  0  0  0  0  0  0  0  0
    2.3749    0.5847    0.4390 C   0  0  0  0  0  0  0  0  0  0  0  0
    3.6454    1.2490    0.5341 C   0  0  0  0  0  0  0  0  0  0  0  0
    4.0487    2.0757   -0.3248 O   0  0  0  0  0  0  0  0  0  0  0  0
   -1.8730   -1.8448   -1.1303 H   0  0  0  0  0  0  0  0  0  0  0  0
   -3.5999   -1.2100   -1.0601 H   0  0  0  0  0  0  0  0  0  0  0  0
   -2.2722   -0.3462   -1.9740 H   0  0  0  0  0  0  0  0  0  0  0  0
   -0.9893    1.1728    0.9350 H   0  0  0  0  0  0  0  0  0  0  0  0
   -0.8847    1.0196   -0.8305 H   0  0  0  0  0  0  0  0  0  0  0  0
   -0.0243   -1.2623   -0.6882 H   0  0  0  0  0  0  0  0  0  0  0  0
   -0.1964   -1.2431    1.1266 H   0  0  0  0  0  0  0  0  0  0  0  0
    4.3245    1.0617    1.3677 H   0  0  0  0  0  0  0  0  0  0  0  0
  1  2  1  0
  2  3  1  0
  3  4  1  0
  4  5  1  0
  5  6  3  0
  6  7  1  0
  7  8  2  0
  1  9  1  0
  1 10  1  0
  1 11  1  0
  3 12  1  0
  3 13  1  0
  4 14  1  0
  4 15  1  0
  7 16  1  0
M  END
