
     RDKit          3D

 17 17  0  0  0  0  0  0  0  0999 V2000
    2.7892    0.5980    0.1578 C   0  0  0  0  0  0  0  0  0  0  0  0
    1.8755   -0.4465    0.1910 O   0  0  0  0  0  0  0  0  0  0  0  0
    0.6006    0.1239    0.0449 C   0  0  0  0  0  0  0  0  0  0  0  0
   -0.4156   -1.0083    0.0790 C   0  0  0  0  0  0  0  0  0  0  0  0
   -1.8147   -0.5070   -0.0692 C   0  0  0  0  0  0  0  0  0  0  0  0
   -2.4539    0.4181    0.8273 C   0  0  0  0  0  0  0  0  0  0  0  0
   -2.7129   -1.0353    0.8811 O   0  0  0  0  0  0  0  0  0  0  0  0
    3.8017    0.1250    0.2758 H   0  0  0  0  0  0  0  0  0  0  0  0
    2.7390    1.1153   -0.8156 H   0  0  0  0  0  0  0  0  0  0  0  0
    2.6535    1.3103    0.9986 H   0  0  0  0  0  0  0  0  0  0  0  0
    0.3866    0.8303    0.8678 H   0  0  0  0  0  0  0  0  0  0  0  0
    0.6117    0.6363   -0.9353 H   0  0  0  0  0  0  0  0  0  0  0  0
   -0.1678   -1.7134   -0.7612 H   0  0  0  0  0  0  0  0  0  0  0  0
   -0.2622   -1.6028    1.0037 H   0  0  0  0  0  0  0  0  0  0  0  0
   -2.2216   -0.5841   -1.1066 H   0  0  0  0  0  0  0  0  0  0  0  0
   -2.0765    0.7493    1.7891 H   0  0  0  0  0  0  0  0  0  0  0  0
   -3.3326    0.9909    0.4640 H   0  0  0  0  0  0  0  0  0  0  0  0
  1  2  1  0
  2  3  1  0
  3  4  1  0
  4  5  1  0
  5  6  1  0
  6  7  1  0
  7  5  1  0
  1  8  1  0
  1  9  1  0
  1 10  1  0
  3 11  1  0
  3 12  1  0
  4 13  1  0
  4 14  1  0
  5 15  1  0
  6 16  1  0
  6 17  1  0
M  END
