
     RDKit          3D

 23 22  0  0  0  0  0  0  0  0999 V2000
    2.0938   -2.2714    0.1893 C   0  0  0  0  0  0  0  0  0  0  0  0
    1.1709   -1.2850    0.4453 O   0  0  0  0  0  0  0  0  0  0  0  0
    1.2161   -0.2254   -0.4260 C   0  0  0  0  0  0  0  0  0  0  0  0
    0.1696    0.7906   -0.0564 C   0  0  0  0  0  0  0  0  0  0  0  0
   -1.2317    0.2480   -0.1369 C   0  0  0  0  0  0  0  0  0  0  0  0
   -1.4327   -0.8306    0.7109 O   0  0  0  0  0  0  0  0  0  0  0  0
   -2.7043   -1.3380    0.6506 C   0  0  0  0  0  0  0  0  0  0  0  0
    0.2310    1.8695   -0.9602 O   0  0  0  0  0  0  0  0  0  0  0  0
    0.5526    3.0623   -0.3052 C   0  0  0  0  0  0  0  0  0  0  0  0
    3.1124   -1.7946    0.2625 H   0  0  0  0  0  0  0  0  0  0  0  0
    2.0341   -3.0350    0.9916 H   0  0  0  0  0  0  0  0  0  0  0  0
    1.9512   -2.7775   -0.7855 H   0  0  0  0  0  0  0  0  0  0  0  0
    2.2002    0.2849   -0.4785 H   0  0  0  0  0  0  0  0  0  0  0  0
    1.0105   -0.5671   -1.4772 H   0  0  0  0  0  0  0  0  0  0  0  0
    0.3992    1.2035    0.9421 H   0  0  0  0  0  0  0  0  0  0  0  0
   -1.9051    1.0648    0.2346 H   0  0  0  0  0  0  0  0  0  0  0  0
   -1.5524    0.0604   -1.1811 H   0  0  0  0  0  0  0  0  0  0  0  0
   -2.8072   -2.1920    1.3440 H   0  0  0  0  0  0  0  0  0  0  0  0
   -3.4945   -0.5911    0.8956 H   0  0  0  0  0  0  0  0  0  0  0  0
   -2.9819   -1.7322   -0.3593 H   0  0  0  0  0  0  0  0  0  0  0  0
    1.5572    2.8833    0.1671 H   0  0  0  0  0  0  0  0  0  0  0  0
   -0.2164    3.3388    0.4313 H   0  0  0  0  0  0  0  0  0  0  0  0
    0.6275    3.8339   -1.0988 H   0  0  0  0  0  0  0  0  0  0  0  0
  1  2  1  0
  2  3  1  0
  3  4  1  0
  4  5  1  0
  5  6  1  0
  6  7  1  0
  4  8  1  0
  8  9  1  0
  1 10  1  0
  1 11  1  0
  1 12  1  0
  3 13  1  0
  3 14  1  0
  4 15  1  0
  5 16  1  0
  5 17  1  0
  7 18  1  0
  7 19  1  0
  7 20  1  0
  9 21  1  0
  9 22  1  0
  9 23  1  0
M  END
