
     RDKit          3D

 23 24  0  0  0  0  0  0  0  0999 V2000
    2.9905    0.6490    0.5485 C   0  0  0  0  0  0  0  0  0  0  0  0
    1.6286    0.8019    0.3101 O   0  0  0  0  0  0  0  0  0  0  0  0
    1.0776   -0.4126   -0.0364 C   0  0  0  0  0  0  0  0  0  0  0  0
   -0.3749   -0.3793   -0.3161 C   0  0  0  0  0  0  0  0  0  0  0  0
   -0.9951   -1.6970   -0.6965 C   0  0  0  0  0  0  0  0  0  0  0  0
   -2.0374   -1.5444    0.3965 C   0  0  0  0  0  0  0  0  0  0  0  0
   -1.3558   -0.2842    0.8162 C   0  0  0  0  0  0  0  0  0  0  0  0
   -1.2316    0.7915   -0.2192 C   0  0  0  0  0  0  0  0  0  0  0  0
   -0.8028    2.1223    0.2685 C   0  0  0  0  0  0  0  0  0  0  0  0
    3.1854   -0.0815    1.3887 H   0  0  0  0  0  0  0  0  0  0  0  0
    3.4678    1.6106    0.8194 H   0  0  0  0  0  0  0  0  0  0  0  0
    3.5130    0.2001   -0.3317 H   0  0  0  0  0  0  0  0  0  0  0  0
    1.6346   -0.8145   -0.9058 H   0  0  0  0  0  0  0  0  0  0  0  0
    1.2642   -1.1248    0.8054 H   0  0  0  0  0  0  0  0  0  0  0  0
   -1.4074   -1.7604   -1.7226 H   0  0  0  0  0  0  0  0  0  0  0  0
   -0.3415   -2.5658   -0.4703 H   0  0  0  0  0  0  0  0  0  0  0  0
   -2.0422   -2.3450    1.1536 H   0  0  0  0  0  0  0  0  0  0  0  0
   -3.0316   -1.3373   -0.0605 H   0  0  0  0  0  0  0  0  0  0  0  0
   -0.8930   -0.1766    1.8066 H   0  0  0  0  0  0  0  0  0  0  0  0
   -2.1146    0.8158   -0.9250 H   0  0  0  0  0  0  0  0  0  0  0  0
   -1.5830    2.8982    0.0748 H   0  0  0  0  0  0  0  0  0  0  0  0
    0.1211    2.5111   -0.2064 H   0  0  0  0  0  0  0  0  0  0  0  0
   -0.6719    2.1231    1.3812 H   0  0  0  0  0  0  0  0  0  0  0  0
  1  2  1  0
  2  3  1  0
  3  4  1  0
  4  5  1  0
  5  6  1  0
  6  7  1  0
  7  8  1  0
  8  9  1  0
  7  4  1  0
  8  4  1  0
  1 10  1  0
  1 11  1  0
  1 12  1  0
  3 13  1  0
  3 14  1  0
  5 15  1  0
  5 16  1  0
  6 17  1  0
  6 18  1  0
  7 19  1  0
  8 20  1  0
  9 21  1  0
  9 22  1  0
  9 23  1  0
M  END
