
     RDKit          3D

 20 20  0  0  0  0  0  0  0  0999 V2000
    3.4288   -0.6650   -0.6580 C   0  0  0  0  0  0  0  0  0  0  0  0
    2.3907   -0.9879    0.2106 O   0  0  0  0  0  0  0  0  0  0  0  0
    1.2610   -0.2889   -0.1535 C   0  0  0  0  0  0  0  0  0  0  0  0
    0.1102   -0.6236    0.7803 C   0  0  0  0  0  0  0  0  0  0  0  0
   -1.1273    0.1402    0.3839 C   0  0  0  0  0  0  0  0  0  0  0  0
   -2.3910    0.0171    1.1046 C   0  0  0  0  0  0  0  0  0  0  0  0
   -2.2758   -0.6447   -0.2222 C   0  0  0  0  0  0  0  0  0  0  0  0
   -2.8353   -0.0789   -1.3504 O   0  0  0  0  0  0  0  0  0  0  0  0
    3.1687   -0.9276   -1.7186 H   0  0  0  0  0  0  0  0  0  0  0  0
    3.7184    0.4009   -0.6055 H   0  0  0  0  0  0  0  0  0  0  0  0
    4.2756   -1.3514   -0.3964 H   0  0  0  0  0  0  0  0  0  0  0  0
    1.4015    0.8186   -0.0798 H   0  0  0  0  0  0  0  0  0  0  0  0
    0.9079   -0.5104   -1.1817 H   0  0  0  0  0  0  0  0  0  0  0  0
   -0.1051   -1.7042    0.6428 H   0  0  0  0  0  0  0  0  0  0  0  0
    0.4199   -0.4128    1.8277 H   0  0  0  0  0  0  0  0  0  0  0  0
   -0.8850    1.1371   -0.0815 H   0  0  0  0  0  0  0  0  0  0  0  0
   -3.0198    0.9439    1.1937 H   0  0  0  0  0  0  0  0  0  0  0  0
   -2.5163   -0.6314    2.0040 H   0  0  0  0  0  0  0  0  0  0  0  0
   -2.1649   -1.7680   -0.1850 H   0  0  0  0  0  0  0  0  0  0  0  0
   -3.7623   -0.3533   -1.5151 H   0  0  0  0  0  0  0  0  0  0  0  0
  1  2  1  0
  2  3  1  0
  3  4  1  0
  4  5  1  0
  5  6  1  0
  6  7  1  0
  7  8  1  0
  7  5  1  0
  1  9  1  0
  1 10  1  0
  1 11  1  0
  3 12  1  0
  3 13  1  0
  4 14  1  0
  4 15  1  0
  5 16  1  0
  6 17  1  0
  6 18  1  0
  7 19  1  0
  8 20  1  0
M  END
