
     RDKit          3D

 19 19  0  0  0  0  0  0  0  0999 V2000
    2.7750    0.0691    0.2403 C   0  0  0  0  0  0  0  0  0  0  0  0
    1.8453    1.0051    0.6485 O   0  0  0  0  0  0  0  0  0  0  0  0
    0.7141    1.0400   -0.1230 C   0  0  0  0  0  0  0  0  0  0  0  0
   -0.0046   -0.2614   -0.1259 C   0  0  0  0  0  0  0  0  0  0  0  0
   -0.4465   -0.7347    1.0923 O   0  0  0  0  0  0  0  0  0  0  0  0
   -1.4687   -1.3925    0.4084 C   0  0  0  0  0  0  0  0  0  0  0  0
   -1.4297   -0.2672   -0.6045 C   0  0  0  0  0  0  0  0  0  0  0  0
   -2.2898    0.8469   -0.1867 C   0  0  0  0  0  0  0  0  0  0  0  0
   -2.1430    1.9834   -0.6034 O   0  0  0  0  0  0  0  0  0  0  0  0
    3.6804    0.0549    0.8696 H   0  0  0  0  0  0  0  0  0  0  0  0
    3.1243    0.3066   -0.7960 H   0  0  0  0  0  0  0  0  0  0  0  0
    2.3438   -0.9573    0.3103 H   0  0  0  0  0  0  0  0  0  0  0  0
    0.0303    1.8352    0.2257 H   0  0  0  0  0  0  0  0  0  0  0  0
    0.9340    1.3011   -1.1983 H   0  0  0  0  0  0  0  0  0  0  0  0
    0.5611   -1.0517   -0.6626 H   0  0  0  0  0  0  0  0  0  0  0  0
   -1.1385   -2.3499   -0.0862 H   0  0  0  0  0  0  0  0  0  0  0  0
   -2.4213   -1.4891    0.9692 H   0  0  0  0  0  0  0  0  0  0  0  0
   -1.5796   -0.5900   -1.6533 H   0  0  0  0  0  0  0  0  0  0  0  0
   -3.0867    0.6514    0.5198 H   0  0  0  0  0  0  0  0  0  0  0  0
  1  2  1  0
  2  3  1  0
  3  4  1  0
  4  5  1  0
  5  6  1  0
  6  7  1  0
  7  8  1  0
  8  9  2  0
  7  4  1  0
  1 10  1  0
  1 11  1  0
  1 12  1  0
  3 13  1  0
  3 14  1  0
  4 15  1  0
  6 16  1  0
  6 17  1  0
  7 18  1  0
  8 19  1  0
M  END
