
     RDKit          3D

 20 19  0  0  0  0  0  0  0  0999 V2000
    3.4287   -0.3441   -0.5118 C   0  0  0  0  0  0  0  0  0  0  0  0
    2.4440    0.4668    0.0458 O   0  0  0  0  0  0  0  0  0  0  0  0
    1.2055   -0.1584   -0.0974 C   0  0  0  0  0  0  0  0  0  0  0  0
    0.0936    0.6996    0.5026 C   0  0  0  0  0  0  0  0  0  0  0  0
    0.0381    1.9359   -0.1364 O   0  0  0  0  0  0  0  0  0  0  0  0
   -1.2039   -0.0705    0.2277 C   0  0  0  0  0  0  0  0  0  0  0  0
   -2.3031    0.6395    0.7052 O   0  0  0  0  0  0  0  0  0  0  0  0
   -3.4314   -0.1219    0.4184 C   0  0  0  0  0  0  0  0  0  0  0  0
    3.2586   -0.5341   -1.5922 H   0  0  0  0  0  0  0  0  0  0  0  0
    4.4456    0.0401   -0.2979 H   0  0  0  0  0  0  0  0  0  0  0  0
    3.3828   -1.3444    0.0062 H   0  0  0  0  0  0  0  0  0  0  0  0
    1.2488   -1.1210    0.4513 H   0  0  0  0  0  0  0  0  0  0  0  0
    1.0210   -0.3751   -1.1495 H   0  0  0  0  0  0  0  0  0  0  0  0
    0.2461    0.8060    1.5905 H   0  0  0  0  0  0  0  0  0  0  0  0
   -0.2375    1.8081   -1.0683 H   0  0  0  0  0  0  0  0  0  0  0  0
   -1.1043   -1.0620    0.6988 H   0  0  0  0  0  0  0  0  0  0  0  0
   -1.2918   -0.1253   -0.8773 H   0  0  0  0  0  0  0  0  0  0  0  0
   -3.5583   -0.3051   -0.6681 H   0  0  0  0  0  0  0  0  0  0  0  0
   -4.3577    0.3030    0.8543 H   0  0  0  0  0  0  0  0  0  0  0  0
   -3.3248   -1.1371    0.8982 H   0  0  0  0  0  0  0  0  0  0  0  0
  1  2  1  0
  2  3  1  0
  3  4  1  0
  4  5  1  0
  4  6  1  0
  6  7  1  0
  7  8  1  0
  1  9  1  0
  1 10  1  0
  1 11  1  0
  3 12  1  0
  3 13  1  0
  4 14  1  0
  5 15  1  0
  6 16  1  0
  6 17  1  0
  8 18  1  0
  8 19  1  0
  8 20  1  0
M  END
