
     RDKit          3D

 21 21  0  0  0  0  0  0  0  0999 V2000
    3.1220    0.7966    0.4163 C   0  0  0  0  0  0  0  0  0  0  0  0
    1.9143    0.4382    1.0344 O   0  0  0  0  0  0  0  0  0  0  0  0
    1.1915   -0.3028    0.0970 C   0  0  0  0  0  0  0  0  0  0  0  0
   -0.1280   -0.7639    0.5996 C   0  0  0  0  0  0  0  0  0  0  0  0
   -0.9044   -1.5753   -0.4512 C   0  0  0  0  0  0  0  0  0  0  0  0
   -1.4364   -0.3098    0.0588 C   0  0  0  0  0  0  0  0  0  0  0  0
   -2.4914   -0.4019    0.9976 O   0  0  0  0  0  0  0  0  0  0  0  0
   -1.4220    0.9734   -0.7041 C   0  0  0  0  0  0  0  0  0  0  0  0
   -2.5964    1.1806   -1.4317 O   0  0  0  0  0  0  0  0  0  0  0  0
    3.7685    1.3854    1.0710 H   0  0  0  0  0  0  0  0  0  0  0  0
    3.6975   -0.1009    0.1034 H   0  0  0  0  0  0  0  0  0  0  0  0
    2.8852    1.4377   -0.4791 H   0  0  0  0  0  0  0  0  0  0  0  0
    1.8141   -1.2381   -0.0501 H   0  0  0  0  0  0  0  0  0  0  0  0
    1.1855    0.2577   -0.8481 H   0  0  0  0  0  0  0  0  0  0  0  0
   -0.0898   -1.2003    1.6229 H   0  0  0  0  0  0  0  0  0  0  0  0
   -1.3500   -2.5272   -0.0792 H   0  0  0  0  0  0  0  0  0  0  0  0
   -0.5373   -1.6228   -1.4754 H   0  0  0  0  0  0  0  0  0  0  0  0
   -3.3414   -0.6403    0.5724 H   0  0  0  0  0  0  0  0  0  0  0  0
   -1.3661    1.8237    0.0369 H   0  0  0  0  0  0  0  0  0  0  0  0
   -0.5772    1.0468   -1.4084 H   0  0  0  0  0  0  0  0  0  0  0  0
   -3.3382    1.3432   -0.7967 H   0  0  0  0  0  0  0  0  0  0  0  0
  1  2  1  0
  2  3  1  0
  3  4  1  0
  4  5  1  0
  5  6  1  0
  6  7  1  0
  6  8  1  0
  8  9  1  0
  6  4  1  0
  1 10  1  0
  1 11  1  0
  1 12  1  0
  3 13  1  0
  3 14  1  0
  4 15  1  0
  5 16  1  0
  5 17  1  0
  7 18  1  0
  8 19  1  0
  8 20  1  0
  9 21  1  0
M  END
