
     RDKit          3D

 18 18  0  0  0  0  0  0  0  0999 V2000
    2.4029   -0.0171    0.4025 C   0  0  0  0  0  0  0  0  0  0  0  0
    1.6868    0.9672   -0.2728 O   0  0  0  0  0  0  0  0  0  0  0  0
    0.6490    0.4065   -1.0158 C   0  0  0  0  0  0  0  0  0  0  0  0
   -0.2950   -0.3288   -0.1103 C   0  0  0  0  0  0  0  0  0  0  0  0
   -0.9538    0.5123    0.9612 C   0  0  0  0  0  0  0  0  0  0  0  0
   -2.1978   -0.2607    0.6991 C   0  0  0  0  0  0  0  0  0  0  0  0
   -3.1910   -0.6176    1.3000 O   0  0  0  0  0  0  0  0  0  0  0  0
   -1.7067   -0.4365   -0.6945 C   0  0  0  0  0  0  0  0  0  0  0  0
    2.8534   -0.7579   -0.3216 H   0  0  0  0  0  0  0  0  0  0  0  0
    3.2204    0.4967    0.9752 H   0  0  0  0  0  0  0  0  0  0  0  0
    1.7775   -0.5678    1.1189 H   0  0  0  0  0  0  0  0  0  0  0  0
    1.0985   -0.3423   -1.6998 H   0  0  0  0  0  0  0  0  0  0  0  0
    0.0828    1.1821   -1.5589 H   0  0  0  0  0  0  0  0  0  0  0  0
    0.0764   -1.2897    0.2574 H   0  0  0  0  0  0  0  0  0  0  0  0
   -0.5261    0.3864    1.9763 H   0  0  0  0  0  0  0  0  0  0  0  0
   -1.0833    1.5719    0.6580 H   0  0  0  0  0  0  0  0  0  0  0  0
   -1.9371   -1.3906   -1.1733 H   0  0  0  0  0  0  0  0  0  0  0  0
   -1.9570    0.4859   -1.2755 H   0  0  0  0  0  0  0  0  0  0  0  0
  1  2  1  0
  2  3  1  0
  3  4  1  0
  4  5  1  0
  5  6  1  0
  6  7  2  0
  6  8  1  0
  8  4  1  0
  1  9  1  0
  1 10  1  0
  1 11  1  0
  3 12  1  0
  3 13  1  0
  4 14  1  0
  5 15  1  0
  5 16  1  0
  8 17  1  0
  8 18  1  0
M  END
