
     RDKit          3D

 23 23  0  0  0  0  0  0  0  0999 V2000
   -3.6989   -0.0474   -0.0797 C   0  0  0  0  0  0  0  0  0  0  0  0
   -2.4284   -0.3111   -0.5459 O   0  0  0  0  0  0  0  0  0  0  0  0
   -1.4731    0.5054    0.0289 C   0  0  0  0  0  0  0  0  0  0  0  0
   -0.1208    0.1425   -0.5423 C   0  0  0  0  0  0  0  0  0  0  0  0
    0.1974   -1.2985   -0.2398 C   0  0  0  0  0  0  0  0  0  0  0  0
    1.5884   -1.3183   -0.4080 O   0  0  0  0  0  0  0  0  0  0  0  0
    1.9659   -0.2797    0.4431 C   0  0  0  0  0  0  0  0  0  0  0  0
    3.4025    0.1277    0.2259 C   0  0  0  0  0  0  0  0  0  0  0  0
    1.0040    0.8656    0.1687 C   0  0  0  0  0  0  0  0  0  0  0  0
   -3.8038   -0.1857    1.0131 H   0  0  0  0  0  0  0  0  0  0  0  0
   -3.9463    1.0225   -0.3354 H   0  0  0  0  0  0  0  0  0  0  0  0
   -4.4212   -0.7144   -0.5686 H   0  0  0  0  0  0  0  0  0  0  0  0
   -1.4381    0.2267    1.1227 H   0  0  0  0  0  0  0  0  0  0  0  0
   -1.7175    1.5637   -0.1175 H   0  0  0  0  0  0  0  0  0  0  0  0
   -0.0981    0.2909   -1.6406 H   0  0  0  0  0  0  0  0  0  0  0  0
    0.0308   -1.5014    0.8521 H   0  0  0  0  0  0  0  0  0  0  0  0
   -0.3263   -2.0161   -0.8730 H   0  0  0  0  0  0  0  0  0  0  0  0
    1.8383   -0.6264    1.4679 H   0  0  0  0  0  0  0  0  0  0  0  0
    3.5095    1.0049   -0.4075 H   0  0  0  0  0  0  0  0  0  0  0  0
    3.9149    0.3028    1.1917 H   0  0  0  0  0  0  0  0  0  0  0  0
    3.9464   -0.7125   -0.2649 H   0  0  0  0  0  0  0  0  0  0  0  0
    1.4165    1.6052   -0.5363 H   0  0  0  0  0  0  0  0  0  0  0  0
    0.6579    1.3537    1.1034 H   0  0  0  0  0  0  0  0  0  0  0  0
  1  2  1  0
  2  3  1  0
  3  4  1  0
  4  5  1  0
  5  6  1  0
  6  7  1  0
  7  8  1  0
  7  9  1  0
  9  4  1  0
  1 10  1  0
  1 11  1  0
  1 12  1  0
  3 13  1  0
  3 14  1  0
  4 15  1  0
  5 16  1  0
  5 17  1  0
  7 18  1  0
  8 19  1  0
  8 20  1  0
  8 21  1  0
  9 22  1  0
  9 23  1  0
M  END
