
     RDKit          3D

 21 22  0  0  0  0  0  0  0  0999 V2000
    3.2149   -0.4727    0.0081 C   0  0  0  0  0  0  0  0  0  0  0  0
    1.9604   -0.2899    0.5763 O   0  0  0  0  0  0  0  0  0  0  0  0
    1.0915    0.3751   -0.3181 C   0  0  0  0  0  0  0  0  0  0  0  0
   -0.2083    0.5165    0.3856 C   0  0  0  0  0  0  0  0  0  0  0  0
   -1.3505    1.1790   -0.2703 C   0  0  0  0  0  0  0  0  0  0  0  0
   -2.1933    0.4611    0.7744 C   0  0  0  0  0  0  0  0  0  0  0  0
   -1.2071   -0.5961    0.2697 C   0  0  0  0  0  0  0  0  0  0  0  0
   -1.1236   -1.7739    0.6667 O   0  0  0  0  0  0  0  0  0  0  0  0
   -1.5514   -0.0599   -1.0777 C   0  0  0  0  0  0  0  0  0  0  0  0
    3.6085    0.5473   -0.2273 H   0  0  0  0  0  0  0  0  0  0  0  0
    3.1173   -1.1217   -0.8619 H   0  0  0  0  0  0  0  0  0  0  0  0
    3.8670   -0.8891    0.7956 H   0  0  0  0  0  0  0  0  0  0  0  0
    0.9625   -0.2839   -1.1994 H   0  0  0  0  0  0  0  0  0  0  0  0
    1.5509    1.3521   -0.6031 H   0  0  0  0  0  0  0  0  0  0  0  0
   -0.1256    0.8436    1.4672 H   0  0  0  0  0  0  0  0  0  0  0  0
   -1.4746    2.1308   -0.5496 H   0  0  0  0  0  0  0  0  0  0  0  0
   -1.9814    0.7244    1.8158 H   0  0  0  0  0  0  0  0  0  0  0  0
   -3.2296    0.3046    0.4750 H   0  0  0  0  0  0  0  0  0  0  0  0
   -1.3789   -2.5136    0.0623 H   0  0  0  0  0  0  0  0  0  0  0  0
   -0.8942   -0.2586   -1.9227 H   0  0  0  0  0  0  0  0  0  0  0  0
   -2.6546   -0.1752   -1.3078 H   0  0  0  0  0  0  0  0  0  0  0  0
  1  2  1  0
  2  3  1  0
  3  4  1  0
  4  5  1  0
  5  6  1  0
  6  7  1  0
  7  8  1  0
  7  9  1  0
  7  4  1  0
  9  5  1  0
  1 10  1  0
  1 11  1  0
  1 12  1  0
  3 13  1  0
  3 14  1  0
  4 15  1  0
  5 16  1  0
  6 17  1  0
  6 18  1  0
  8 19  1  0
  9 20  1  0
  9 21  1  0
M  END
