
     RDKit          3D

 23 23  0  0  0  0  0  0  0  0999 V2000
    2.8758    0.3654   -0.9919 C   0  0  0  0  0  0  0  0  0  0  0  0
    2.1289    1.1426   -0.1401 O   0  0  0  0  0  0  0  0  0  0  0  0
    1.7731    0.5478    1.0414 C   0  0  0  0  0  0  0  0  0  0  0  0
    0.9367   -0.7048    0.8200 C   0  0  0  0  0  0  0  0  0  0  0  0
   -0.3230   -0.3229    0.0725 C   0  0  0  0  0  0  0  0  0  0  0  0
   -1.3301   -1.3486   -0.2820 C   0  0  0  0  0  0  0  0  0  0  0  0
   -1.6039   -0.3435    0.7824 C   0  0  0  0  0  0  0  0  0  0  0  0
   -2.5782    0.7957    0.4785 C   0  0  0  0  0  0  0  0  0  0  0  0
   -2.9160    0.8078   -0.8736 O   0  0  0  0  0  0  0  0  0  0  0  0
    3.8540    0.0331   -0.5357 H   0  0  0  0  0  0  0  0  0  0  0  0
    3.2067    1.0263   -1.8457 H   0  0  0  0  0  0  0  0  0  0  0  0
    2.3423   -0.5122   -1.4048 H   0  0  0  0  0  0  0  0  0  0  0  0
    1.1264    1.2523    1.5975 H   0  0  0  0  0  0  0  0  0  0  0  0
    2.6345    0.2997    1.6943 H   0  0  0  0  0  0  0  0  0  0  0  0
    1.5637   -1.4140    0.2449 H   0  0  0  0  0  0  0  0  0  0  0  0
    0.7095   -1.2007    1.7849 H   0  0  0  0  0  0  0  0  0  0  0  0
   -0.1572    0.4940   -0.6668 H   0  0  0  0  0  0  0  0  0  0  0  0
   -1.1790   -2.4257   -0.0044 H   0  0  0  0  0  0  0  0  0  0  0  0
   -1.9414   -1.2383   -1.1970 H   0  0  0  0  0  0  0  0  0  0  0  0
   -1.7241   -0.7552    1.8005 H   0  0  0  0  0  0  0  0  0  0  0  0
   -3.4857    0.6783    1.0658 H   0  0  0  0  0  0  0  0  0  0  0  0
   -2.0515    1.7365    0.7385 H   0  0  0  0  0  0  0  0  0  0  0  0
   -3.8616    1.0864   -0.9580 H   0  0  0  0  0  0  0  0  0  0  0  0
  1  2  1  0
  2  3  1  0
  3  4  1  0
  4  5  1  0
  5  6  1  0
  6  7  1  0
  7  8  1  0
  8  9  1  0
  7  5  1  0
  1 10  1  0
  1 11  1  0
  1 12  1  0
  3 13  1  0
  3 14  1  0
  4 15  1  0
  4 16  1  0
  5 17  1  0
  6 18  1  0
  6 19  1  0
  7 20  1  0
  8 21  1  0
  8 22  1  0
  9 23  1  0
M  END
