
     RDKit          3D

 23 23  0  0  0  0  0  0  0  0999 V2000
    2.7398    0.8954   -0.3585 C   0  0  0  0  0  0  0  0  0  0  0  0
    1.5333    0.2438   -0.5062 O   0  0  0  0  0  0  0  0  0  0  0  0
    1.1215   -0.2766    0.7191 C   0  0  0  0  0  0  0  0  0  0  0  0
   -0.1936   -0.9974    0.6031 C   0  0  0  0  0  0  0  0  0  0  0  0
   -0.0316   -2.1362   -0.3839 C   0  0  0  0  0  0  0  0  0  0  0  0
   -1.3158   -0.1405    0.1356 C   0  0  0  0  0  0  0  0  0  0  0  0
   -1.6567    1.0533    0.9924 C   0  0  0  0  0  0  0  0  0  0  0  0
   -2.1734    1.4683   -0.3921 C   0  0  0  0  0  0  0  0  0  0  0  0
   -1.0632    0.7454   -0.8905 O   0  0  0  0  0  0  0  0  0  0  0  0
    2.5976    1.7297    0.3850 H   0  0  0  0  0  0  0  0  0  0  0  0
    3.4687    0.1869    0.1212 H   0  0  0  0  0  0  0  0  0  0  0  0
    3.1128    1.2983   -1.3043 H   0  0  0  0  0  0  0  0  0  0  0  0
    1.1314    0.4689    1.5320 H   0  0  0  0  0  0  0  0  0  0  0  0
    1.8854   -1.0594    0.9892 H   0  0  0  0  0  0  0  0  0  0  0  0
   -0.4467   -1.4234    1.5950 H   0  0  0  0  0  0  0  0  0  0  0  0
    0.3170   -3.0558    0.1595 H   0  0  0  0  0  0  0  0  0  0  0  0
    0.6587   -1.8777   -1.2078 H   0  0  0  0  0  0  0  0  0  0  0  0
   -1.0103   -2.4119   -0.8458 H   0  0  0  0  0  0  0  0  0  0  0  0
   -2.2122   -0.7380   -0.0870 H   0  0  0  0  0  0  0  0  0  0  0  0
   -2.4470    0.9275    1.7280 H   0  0  0  0  0  0  0  0  0  0  0  0
   -0.7795    1.6627    1.2882 H   0  0  0  0  0  0  0  0  0  0  0  0
   -2.1548    2.5322   -0.5919 H   0  0  0  0  0  0  0  0  0  0  0  0
   -3.0814    0.9047   -0.6095 H   0  0  0  0  0  0  0  0  0  0  0  0
  1  2  1  0
  2  3  1  0
  3  4  1  0
  4  5  1  0
  4  6  1  0
  6  7  1  0
  7  8  1  0
  8  9  1  0
  9  6  1  0
  1 10  1  0
  1 11  1  0
  1 12  1  0
  3 13  1  0
  3 14  1  0
  4 15  1  0
  5 16  1  0
  5 17  1  0
  5 18  1  0
  6 19  1  0
  7 20  1  0
  7 21  1  0
  8 22  1  0
  8 23  1  0
M  END
