
     RDKit          3D

 21 21  0  0  0  0  0  0  0  0999 V2000
    1.3668   -0.0903    2.7757 C   0  0  0  0  0  0  0  0  0  0  0  0
    2.6169   -0.1152    2.1129 O   0  0  0  0  0  0  0  0  0  0  0  0
    2.7209    0.9302    1.2463 C   0  0  0  0  0  0  0  0  0  0  0  0
    1.5130    0.7379    0.2732 C   0  0  0  0  0  0  0  0  0  0  0  0
    0.6116    0.5921   -0.4592 C   0  0  0  0  0  0  0  0  0  0  0  0
   -0.5200    0.3906   -1.3579 C   0  0  0  0  0  0  0  0  0  0  0  0
   -0.5865   -1.0682   -1.9399 C   0  0  0  0  0  0  0  0  0  0  0  0
   -1.6052   -0.5222   -1.0267 C   0  0  0  0  0  0  0  0  0  0  0  0
   -2.9310   -0.1640   -1.7432 C   0  0  0  0  0  0  0  0  0  0  0  0
    1.2196    0.8297    3.3520 H   0  0  0  0  0  0  0  0  0  0  0  0
    0.5532   -0.2578    2.0239 H   0  0  0  0  0  0  0  0  0  0  0  0
    1.4047   -1.0023    3.4491 H   0  0  0  0  0  0  0  0  0  0  0  0
    3.6112    0.8630    0.5940 H   0  0  0  0  0  0  0  0  0  0  0  0
    2.6645    1.9279    1.6819 H   0  0  0  0  0  0  0  0  0  0  0  0
   -0.6804    1.1997   -2.1306 H   0  0  0  0  0  0  0  0  0  0  0  0
    0.1703   -1.7742   -1.4744 H   0  0  0  0  0  0  0  0  0  0  0  0
   -0.6427   -1.1224   -3.0115 H   0  0  0  0  0  0  0  0  0  0  0  0
   -1.7262   -0.9297   -0.0226 H   0  0  0  0  0  0  0  0  0  0  0  0
   -3.5702    0.4504   -1.0889 H   0  0  0  0  0  0  0  0  0  0  0  0
   -2.7302    0.2720   -2.7276 H   0  0  0  0  0  0  0  0  0  0  0  0
   -3.4602   -1.1473   -1.8763 H   0  0  0  0  0  0  0  0  0  0  0  0
  1  2  1  0
  2  3  1  0
  3  4  1  0
  4  5  3  0
  5  6  1  0
  6  7  1  0
  7  8  1  0
  8  9  1  0
  8  6  1  0
  1 10  1  0
  1 11  1  0
  1 12  1  0
  3 13  1  0
  3 14  1  0
  6 15  1  0
  7 16  1  0
  7 17  1  0
  8 18  1  0
  9 19  1  0
  9 20  1  0
  9 21  1  0
M  END
