
     RDKit          3D

 21 21  0  0  0  0  0  0  0  0999 V2000
    2.7277    0.6694   -0.8221 C   0  0  0  0  0  0  0  0  0  0  0  0
    1.9727    0.6880    0.3257 O   0  0  0  0  0  0  0  0  0  0  0  0
    1.0774   -0.3429    0.4214 C   0  0  0  0  0  0  0  0  0  0  0  0
    0.0528   -0.4269   -0.6605 C   0  0  0  0  0  0  0  0  0  0  0  0
   -0.8644   -1.6101   -0.4219 C   0  0  0  0  0  0  0  0  0  0  0  0
   -1.9198   -0.8421   -0.9089 O   0  0  0  0  0  0  0  0  0  0  0  0
   -1.2215    0.2937   -0.5015 C   0  0  0  0  0  0  0  0  0  0  0  0
   -1.6063    0.7339    0.8818 C   0  0  0  0  0  0  0  0  0  0  0  0
   -2.9875    1.0301    0.8971 O   0  0  0  0  0  0  0  0  0  0  0  0
    3.4374    1.5227   -0.8483 H   0  0  0  0  0  0  0  0  0  0  0  0
    3.2296   -0.3119   -0.8967 H   0  0  0  0  0  0  0  0  0  0  0  0
    2.0299    0.8251   -1.6779 H   0  0  0  0  0  0  0  0  0  0  0  0
    0.6217   -0.3697    1.4302 H   0  0  0  0  0  0  0  0  0  0  0  0
    1.6817   -1.2974    0.3620 H   0  0  0  0  0  0  0  0  0  0  0  0
    0.4399   -0.4404   -1.6956 H   0  0  0  0  0  0  0  0  0  0  0  0
   -0.6151   -2.4938   -1.0580 H   0  0  0  0  0  0  0  0  0  0  0  0
   -0.9787   -1.8589    0.6520 H   0  0  0  0  0  0  0  0  0  0  0  0
   -1.2976    1.1583   -1.2052 H   0  0  0  0  0  0  0  0  0  0  0  0
   -1.1032    1.6346    1.2206 H   0  0  0  0  0  0  0  0  0  0  0  0
   -1.4748   -0.0849    1.6238 H   0  0  0  0  0  0  0  0  0  0  0  0
   -3.2018    1.5231    0.0539 H   0  0  0  0  0  0  0  0  0  0  0  0
  1  2  1  0
  2  3  1  0
  3  4  1  0
  4  5  1  0
  5  6  1  0
  6  7  1  0
  7  8  1  0
  8  9  1  0
  7  4  1  0
  1 10  1  0
  1 11  1  0
  1 12  1  0
  3 13  1  0
  3 14  1  0
  4 15  1  0
  5 16  1  0
  5 17  1  0
  7 18  1  0
  8 19  1  0
  8 20  1  0
  9 21  1  0
M  END
