
     RDKit          3D

 21 21  0  0  0  0  0  0  0  0999 V2000
    3.1277    0.5515   -0.5003 C   0  0  0  0  0  0  0  0  0  0  0  0
    2.7668    0.6202   -1.8342 O   0  0  0  0  0  0  0  0  0  0  0  0
    1.5751    1.2989   -2.0349 C   0  0  0  0  0  0  0  0  0  0  0  0
    0.4611    0.4157   -1.4767 C   0  0  0  0  0  0  0  0  0  0  0  0
   -0.3915   -0.2589   -1.0297 C   0  0  0  0  0  0  0  0  0  0  0  0
   -1.4461   -1.0897   -0.4541 C   0  0  0  0  0  0  0  0  0  0  0  0
   -1.3390   -1.1052    1.0285 C   0  0  0  0  0  0  0  0  0  0  0  0
   -1.3005   -0.0830    2.0392 C   0  0  0  0  0  0  0  0  0  0  0  0
   -2.6342   -0.3436    1.5505 C   0  0  0  0  0  0  0  0  0  0  0  0
    3.4474    1.5806   -0.1311 H   0  0  0  0  0  0  0  0  0  0  0  0
    3.8667   -0.1956   -0.2975 H   0  0  0  0  0  0  0  0  0  0  0  0
    2.2568    0.3125    0.1650 H   0  0  0  0  0  0  0  0  0  0  0  0
    1.5903    2.1824   -1.3717 H   0  0  0  0  0  0  0  0  0  0  0  0
    1.4188    1.4655   -3.0727 H   0  0  0  0  0  0  0  0  0  0  0  0
   -2.4366   -0.7620   -0.7888 H   0  0  0  0  0  0  0  0  0  0  0  0
   -1.3106   -2.1799   -0.7834 H   0  0  0  0  0  0  0  0  0  0  0  0
   -1.3378   -2.2145    1.4049 H   0  0  0  0  0  0  0  0  0  0  0  0
   -1.1436   -0.5184    3.1224 H   0  0  0  0  0  0  0  0  0  0  0  0
   -0.7580    0.8904    1.9705 H   0  0  0  0  0  0  0  0  0  0  0  0
   -3.3917   -1.0146    1.9167 H   0  0  0  0  0  0  0  0  0  0  0  0
   -3.0213    0.4478    0.8610 H   0  0  0  0  0  0  0  0  0  0  0  0
  1  2  1  0
  2  3  1  0
  3  4  1  0
  4  5  3  0
  5  6  1  0
  6  7  1  0
  7  8  1  0
  8  9  1  0
  9  7  1  0
  1 10  1  0
  1 11  1  0
  1 12  1  0
  3 13  1  0
  3 14  1  0
  6 15  1  0
  6 16  1  0
  7 17  1  0
  8 18  1  0
  8 19  1  0
  9 20  1  0
  9 21  1  0
M  END
