
     RDKit          3D

 19 19  0  0  0  0  0  0  0  0999 V2000
    2.7615   -0.5822    0.2562 C   0  0  0  0  0  0  0  0  0  0  0  0
    2.2154    0.0451   -0.8306 O   0  0  0  0  0  0  0  0  0  0  0  0
    1.1981    0.9077   -0.6313 C   0  0  0  0  0  0  0  0  0  0  0  0
   -0.1214    0.3508   -0.2225 C   0  0  0  0  0  0  0  0  0  0  0  0
   -0.4646   -0.8976   -0.0350 C   0  0  0  0  0  0  0  0  0  0  0  0
   -1.8934   -0.9771    0.3758 C   0  0  0  0  0  0  0  0  0  0  0  0
   -2.4603    0.3037   -0.1475 C   0  0  0  0  0  0  0  0  0  0  0  0
   -1.3103    1.2224    0.0391 C   0  0  0  0  0  0  0  0  0  0  0  0
   -1.2870    2.4311    0.3398 O   0  0  0  0  0  0  0  0  0  0  0  0
    2.0432   -1.1580    0.8143 H   0  0  0  0  0  0  0  0  0  0  0  0
    3.2042    0.1506    0.9915 H   0  0  0  0  0  0  0  0  0  0  0  0
    3.6405   -1.2144   -0.0373 H   0  0  0  0  0  0  0  0  0  0  0  0
    1.0771    1.6047   -1.5254 H   0  0  0  0  0  0  0  0  0  0  0  0
    1.5578    1.6434    0.1635 H   0  0  0  0  0  0  0  0  0  0  0  0
    0.1929   -1.7785   -0.1828 H   0  0  0  0  0  0  0  0  0  0  0  0
   -1.8955   -0.9596    1.5001 H   0  0  0  0  0  0  0  0  0  0  0  0
   -2.3956   -1.8839   -0.0079 H   0  0  0  0  0  0  0  0  0  0  0  0
   -2.6929    0.1623   -1.2407 H   0  0  0  0  0  0  0  0  0  0  0  0
   -3.3697    0.6293    0.3809 H   0  0  0  0  0  0  0  0  0  0  0  0
  1  2  1  0
  2  3  1  0
  3  4  1  0
  4  5  2  0
  5  6  1  0
  6  7  1  0
  7  8  1  0
  8  9  2  0
  8  4  1  0
  1 10  1  0
  1 11  1  0
  1 12  1  0
  3 13  1  0
  3 14  1  0
  5 15  1  0
  6 16  1  0
  6 17  1  0
  7 18  1  0
  7 19  1  0
M  END
