
     RDKit          3D

 25 25  0  0  0  0  0  0  0  0999 V2000
    3.5128    0.1092   -0.7986 C   0  0  0  0  0  0  0  0  0  0  0  0
    2.2121   -0.3278   -0.5881 O   0  0  0  0  0  0  0  0  0  0  0  0
    1.8386   -0.1476    0.7626 C   0  0  0  0  0  0  0  0  0  0  0  0
    0.4415   -0.6173    0.9876 C   0  0  0  0  0  0  0  0  0  0  0  0
   -0.6164    0.0509    0.2030 C   0  0  0  0  0  0  0  0  0  0  0  0
   -0.9221    1.4969    0.2520 C   0  0  0  0  0  0  0  0  0  0  0  0
   -0.8952   -0.6175   -1.1699 C   0  0  0  0  0  0  0  0  0  0  0  0
   -1.8639   -0.8245   -0.0425 C   0  0  0  0  0  0  0  0  0  0  0  0
   -3.1856   -0.1561   -0.2061 C   0  0  0  0  0  0  0  0  0  0  0  0
    3.7830   -0.0373   -1.8436 H   0  0  0  0  0  0  0  0  0  0  0  0
    4.1776   -0.4570   -0.1004 H   0  0  0  0  0  0  0  0  0  0  0  0
    3.5588    1.1836   -0.5322 H   0  0  0  0  0  0  0  0  0  0  0  0
    2.0377    0.8904    0.9969 H   0  0  0  0  0  0  0  0  0  0  0  0
    2.5490   -0.7714    1.3433 H   0  0  0  0  0  0  0  0  0  0  0  0
    0.2122   -0.5038    2.0690 H   0  0  0  0  0  0  0  0  0  0  0  0
    0.4165   -1.7101    0.7888 H   0  0  0  0  0  0  0  0  0  0  0  0
   -1.7604    1.6710    0.9901 H   0  0  0  0  0  0  0  0  0  0  0  0
   -0.1225    2.1661    0.5325 H   0  0  0  0  0  0  0  0  0  0  0  0
   -1.3414    1.8701   -0.7198 H   0  0  0  0  0  0  0  0  0  0  0  0
   -1.1789    0.0546   -2.0022 H   0  0  0  0  0  0  0  0  0  0  0  0
   -0.3018   -1.4894   -1.4436 H   0  0  0  0  0  0  0  0  0  0  0  0
   -1.8997   -1.8151    0.4334 H   0  0  0  0  0  0  0  0  0  0  0  0
   -3.6572    0.1452    0.7421 H   0  0  0  0  0  0  0  0  0  0  0  0
   -3.1200    0.7132   -0.9244 H   0  0  0  0  0  0  0  0  0  0  0  0
   -3.8745   -0.8762   -0.6964 H   0  0  0  0  0  0  0  0  0  0  0  0
  1  2  1  0
  2  3  1  0
  3  4  1  0
  4  5  1  0
  5  6  1  0
  5  7  1  0
  7  8  1  0
  8  9  1  0
  8  5  1  0
  1 10  1  0
  1 11  1  0
  1 12  1  0
  3 13  1  0
  3 14  1  0
  4 15  1  0
  4 16  1  0
  6 17  1  0
  6 18  1  0
  6 19  1  0
  7 20  1  0
  7 21  1  0
  8 22  1  0
  9 23  1  0
  9 24  1  0
  9 25  1  0
M  END
