
     RDKit          3D

 20 21  0  0  0  0  0  0  0  0999 V2000
    3.0753   -0.0665    0.4526 C   0  0  0  0  0  0  0  0  0  0  0  0
    1.8062   -0.6093    0.1801 O   0  0  0  0  0  0  0  0  0  0  0  0
    0.9355    0.4477    0.0441 C   0  0  0  0  0  0  0  0  0  0  0  0
   -0.4747   -0.0012   -0.2531 C   0  0  0  0  0  0  0  0  0  0  0  0
   -1.5562    1.0120   -0.4326 C   0  0  0  0  0  0  0  0  0  0  0  0
   -2.4697    0.1753    0.4385 C   0  0  0  0  0  0  0  0  0  0  0  0
   -1.2915   -0.7360    0.7024 C   0  0  0  0  0  0  0  0  0  0  0  0
   -0.7516   -1.4265   -0.4995 C   0  0  0  0  0  0  0  0  0  0  0  0
    3.8462   -0.8271    0.5792 H   0  0  0  0  0  0  0  0  0  0  0  0
    3.3409    0.5327   -0.4641 H   0  0  0  0  0  0  0  0  0  0  0  0
    3.0309    0.6784    1.2751 H   0  0  0  0  0  0  0  0  0  0  0  0
    0.9629    1.0738    0.9640 H   0  0  0  0  0  0  0  0  0  0  0  0
    1.2471    1.1101   -0.7950 H   0  0  0  0  0  0  0  0  0  0  0  0
   -1.3418    1.9937    0.0444 H   0  0  0  0  0  0  0  0  0  0  0  0
   -1.8888    1.1067   -1.4892 H   0  0  0  0  0  0  0  0  0  0  0  0
   -2.8598    0.6847    1.3323 H   0  0  0  0  0  0  0  0  0  0  0  0
   -3.2517   -0.3925   -0.1293 H   0  0  0  0  0  0  0  0  0  0  0  0
   -1.0108   -0.9973    1.7184 H   0  0  0  0  0  0  0  0  0  0  0  0
    0.0815   -2.1324   -0.3721 H   0  0  0  0  0  0  0  0  0  0  0  0
   -1.4299   -1.6261   -1.3777 H   0  0  0  0  0  0  0  0  0  0  0  0
  1  2  1  0
  2  3  1  0
  3  4  1  0
  4  5  1  0
  5  6  1  0
  6  7  1  0
  7  8  1  0
  7  4  1  0
  8  4  1  0
  1  9  1  0
  1 10  1  0
  1 11  1  0
  3 12  1  0
  3 13  1  0
  5 14  1  0
  5 15  1  0
  6 16  1  0
  6 17  1  0
  7 18  1  0
  8 19  1  0
  8 20  1  0
M  END
