
     RDKit          3D

 23 24  0  0  0  0  0  0  0  0999 V2000
    3.3525    0.2772   -0.3982 C   0  0  0  0  0  0  0  0  0  0  0  0
    2.0200    0.7018   -0.3253 O   0  0  0  0  0  0  0  0  0  0  0  0
    1.2260   -0.4322   -0.3729 C   0  0  0  0  0  0  0  0  0  0  0  0
   -0.1891   -0.1562   -0.3070 C   0  0  0  0  0  0  0  0  0  0  0  0
   -0.8761    0.6847   -1.3259 C   0  0  0  0  0  0  0  0  0  0  0  0
   -2.2894    0.7348   -0.7019 C   0  0  0  0  0  0  0  0  0  0  0  0
   -2.0654   -0.1994    0.4403 C   0  0  0  0  0  0  0  0  0  0  0  0
   -1.1625   -1.3038   -0.1305 C   0  0  0  0  0  0  0  0  0  0  0  0
   -0.7582    0.3548    1.0257 C   0  0  0  0  0  0  0  0  0  0  0  0
    4.0660    1.1235   -0.3668 H   0  0  0  0  0  0  0  0  0  0  0  0
    3.5542   -0.2813   -1.3449 H   0  0  0  0  0  0  0  0  0  0  0  0
    3.5067   -0.4041    0.4684 H   0  0  0  0  0  0  0  0  0  0  0  0
    1.4871   -0.9940   -1.2639 H   0  0  0  0  0  0  0  0  0  0  0  0
    1.5213   -1.0504    0.5243 H   0  0  0  0  0  0  0  0  0  0  0  0
   -0.9919    0.1120   -2.2722 H   0  0  0  0  0  0  0  0  0  0  0  0
   -0.4637    1.6860   -1.4634 H   0  0  0  0  0  0  0  0  0  0  0  0
   -3.0541    0.4261   -1.4169 H   0  0  0  0  0  0  0  0  0  0  0  0
   -2.4707    1.7572   -0.2806 H   0  0  0  0  0  0  0  0  0  0  0  0
   -2.8349   -0.4753    1.1064 H   0  0  0  0  0  0  0  0  0  0  0  0
   -1.5253   -1.7307   -1.0794 H   0  0  0  0  0  0  0  0  0  0  0  0
   -0.8947   -2.0249    0.6613 H   0  0  0  0  0  0  0  0  0  0  0  0
   -0.7227    1.4413    1.1092 H   0  0  0  0  0  0  0  0  0  0  0  0
   -0.4350   -0.2469    1.8746 H   0  0  0  0  0  0  0  0  0  0  0  0
  1  2  1  0
  2  3  1  0
  3  4  1  0
  4  5  1  0
  5  6  1  0
  6  7  1  0
  7  8  1  0
  7  9  1  0
  8  4  1  0
  9  4  1  0
  1 10  1  0
  1 11  1  0
  1 12  1  0
  3 13  1  0
  3 14  1  0
  5 15  1  0
  5 16  1  0
  6 17  1  0
  6 18  1  0
  7 19  1  0
  8 20  1  0
  8 21  1  0
  9 22  1  0
  9 23  1  0
M  END
