
     RDKit          3D

 23 23  0  0  0  0  0  0  0  0999 V2000
    3.1861    0.2309   -0.2636 C   0  0  0  0  0  0  0  0  0  0  0  0
    1.9074    0.2198    0.2287 O   0  0  0  0  0  0  0  0  0  0  0  0
    0.9177    0.1569   -0.7112 C   0  0  0  0  0  0  0  0  0  0  0  0
   -0.4207    0.1546    0.0342 C   0  0  0  0  0  0  0  0  0  0  0  0
   -0.5582    1.4082    0.8506 C   0  0  0  0  0  0  0  0  0  0  0  0
   -0.5693   -1.1330    0.8003 C   0  0  0  0  0  0  0  0  0  0  0  0
   -1.7954   -1.4401   -0.0152 C   0  0  0  0  0  0  0  0  0  0  0  0
   -1.6104   -0.1527   -0.8140 C   0  0  0  0  0  0  0  0  0  0  0  0
   -2.6981    0.6996   -0.5487 O   0  0  0  0  0  0  0  0  0  0  0  0
    3.3099    1.1152   -0.9177 H   0  0  0  0  0  0  0  0  0  0  0  0
    3.8721    0.3961    0.6146 H   0  0  0  0  0  0  0  0  0  0  0  0
    3.5158   -0.7111   -0.7226 H   0  0  0  0  0  0  0  0  0  0  0  0
    0.9775    1.0972   -1.3289 H   0  0  0  0  0  0  0  0  0  0  0  0
    0.9720   -0.6978   -1.3959 H   0  0  0  0  0  0  0  0  0  0  0  0
   -1.3377    2.0598    0.4180 H   0  0  0  0  0  0  0  0  0  0  0  0
   -0.7733    1.1195    1.9002 H   0  0  0  0  0  0  0  0  0  0  0  0
    0.3844    1.9835    0.8760 H   0  0  0  0  0  0  0  0  0  0  0  0
    0.2168   -1.8938    0.6018 H   0  0  0  0  0  0  0  0  0  0  0  0
   -0.7184   -1.0119    1.8840 H   0  0  0  0  0  0  0  0  0  0  0  0
   -1.7139   -2.3560   -0.6465 H   0  0  0  0  0  0  0  0  0  0  0  0
   -2.6833   -1.4688    0.6256 H   0  0  0  0  0  0  0  0  0  0  0  0
   -1.4350   -0.3320   -1.8833 H   0  0  0  0  0  0  0  0  0  0  0  0
   -2.9458    0.5558    0.4135 H   0  0  0  0  0  0  0  0  0  0  0  0
  1  2  1  0
  2  3  1  0
  3  4  1  0
  4  5  1  0
  4  6  1  0
  6  7  1  0
  7  8  1  0
  8  9  1  0
  8  4  1  0
  1 10  1  0
  1 11  1  0
  1 12  1  0
  3 13  1  0
  3 14  1  0
  5 15  1  0
  5 16  1  0
  5 17  1  0
  6 18  1  0
  6 19  1  0
  7 20  1  0
  7 21  1  0
  8 22  1  0
  9 23  1  0
M  END
