
     RDKit          3D

 19 19  0  0  0  0  0  0  0  0999 V2000
    2.7900    0.0949   -0.8746 C   0  0  0  0  0  0  0  0  0  0  0  0
    2.0391   -1.0359   -0.7047 O   0  0  0  0  0  0  0  0  0  0  0  0
    1.1067   -1.0139    0.3073 C   0  0  0  0  0  0  0  0  0  0  0  0
    0.1012    0.0457    0.0880 C   0  0  0  0  0  0  0  0  0  0  0  0
   -1.0491   -0.3223   -0.8492 C   0  0  0  0  0  0  0  0  0  0  0  0
   -1.6848    0.7048    0.0829 C   0  0  0  0  0  0  0  0  0  0  0  0
   -3.1311    0.5856    0.2555 C   0  0  0  0  0  0  0  0  0  0  0  0
   -3.6716    0.0314    1.1952 O   0  0  0  0  0  0  0  0  0  0  0  0
   -0.9058    0.1292    1.0894 O   0  0  0  0  0  0  0  0  0  0  0  0
    3.5245   -0.0358   -1.7136 H   0  0  0  0  0  0  0  0  0  0  0  0
    3.4012    0.2425    0.0599 H   0  0  0  0  0  0  0  0  0  0  0  0
    2.2111    1.0049   -1.0398 H   0  0  0  0  0  0  0  0  0  0  0  0
    0.6556   -2.0412    0.3547 H   0  0  0  0  0  0  0  0  0  0  0  0
    1.6861   -0.8830    1.2652 H   0  0  0  0  0  0  0  0  0  0  0  0
    0.4479    1.0651   -0.1467 H   0  0  0  0  0  0  0  0  0  0  0  0
   -1.5013   -1.3084   -0.6438 H   0  0  0  0  0  0  0  0  0  0  0  0
   -0.9258   -0.0172   -1.8820 H   0  0  0  0  0  0  0  0  0  0  0  0
   -1.3146    1.7383   -0.0917 H   0  0  0  0  0  0  0  0  0  0  0  0
   -3.7793    1.0151   -0.4966 H   0  0  0  0  0  0  0  0  0  0  0  0
  1  2  1  0
  2  3  1  0
  3  4  1  0
  4  5  1  0
  5  6  1  0
  6  7  1  0
  7  8  2  0
  6  9  1  0
  9  4  1  0
  1 10  1  0
  1 11  1  0
  1 12  1  0
  3 13  1  0
  3 14  1  0
  4 15  1  0
  5 16  1  0
  5 17  1  0
  6 18  1  0
  7 19  1  0
M  END
