
     RDKit          3D

 21 23  0  0  0  0  0  0  0  0999 V2000
    3.3072    0.3329   -0.1560 C   0  0  0  0  0  0  0  0  0  0  0  0
    1.9972    0.5241    0.2601 O   0  0  0  0  0  0  0  0  0  0  0  0
    1.1074   -0.3097   -0.4174 C   0  0  0  0  0  0  0  0  0  0  0  0
   -0.2652   -0.0330    0.0947 C   0  0  0  0  0  0  0  0  0  0  0  0
   -0.5438   -0.2409    1.5321 C   0  0  0  0  0  0  0  0  0  0  0  0
   -1.2010   -1.0758    0.5192 C   0  0  0  0  0  0  0  0  0  0  0  0
   -2.3716   -0.4373   -0.2028 C   0  0  0  0  0  0  0  0  0  0  0  0
   -2.5386    1.0285   -0.1474 C   0  0  0  0  0  0  0  0  0  0  0  0
   -1.3165    0.5302   -0.8196 C   0  0  0  0  0  0  0  0  0  0  0  0
    3.3925    0.5461   -1.2273 H   0  0  0  0  0  0  0  0  0  0  0  0
    3.7268   -0.6393    0.1296 H   0  0  0  0  0  0  0  0  0  0  0  0
    3.9154    1.1167    0.3699 H   0  0  0  0  0  0  0  0  0  0  0  0
    1.4102   -1.3763   -0.3606 H   0  0  0  0  0  0  0  0  0  0  0  0
    1.1611   -0.0481   -1.5138 H   0  0  0  0  0  0  0  0  0  0  0  0
   -1.1206    0.4893    2.1366 H   0  0  0  0  0  0  0  0  0  0  0  0
    0.2710   -0.7168    2.1099 H   0  0  0  0  0  0  0  0  0  0  0  0
   -1.0091   -2.1396    0.3685 H   0  0  0  0  0  0  0  0  0  0  0  0
   -2.9815   -1.0190   -0.8912 H   0  0  0  0  0  0  0  0  0  0  0  0
   -2.3373    1.5884    0.8127 H   0  0  0  0  0  0  0  0  0  0  0  0
   -3.3797    1.4556   -0.7004 H   0  0  0  0  0  0  0  0  0  0  0  0
   -1.2239    0.4240   -1.8968 H   0  0  0  0  0  0  0  0  0  0  0  0
  1  2  1  0
  2  3  1  0
  3  4  1  0
  4  5  1  0
  5  6  1  0
  6  7  1  0
  7  8  1  0
  8  9  1  0
  6  4  1  0
  9  7  1  0
  9  4  1  0
  1 10  1  0
  1 11  1  0
  1 12  1  0
  3 13  1  0
  3 14  1  0
  5 15  1  0
  5 16  1  0
  6 17  1  0
  7 18  1  0
  8 19  1  0
  8 20  1  0
  9 21  1  0
M  END
