
     RDKit          3D

 17 21  0  0  0  0  0  0  0  0999 V2000
    1.9304    1.5567    0.1781 O   0  0  0  0  0  0  0  0  0  0  0  0
    1.5748    0.3773   -0.2588 C   0  0  0  0  0  0  0  0  0  0  0  0
    0.6543    1.4192    0.4400 C   0  0  0  0  0  0  0  0  0  0  0  0
   -0.5760    1.2121   -0.3155 C   0  0  0  0  0  0  0  0  0  0  0  0
   -0.8479   -0.0457   -0.9781 C   0  0  0  0  0  0  0  0  0  0  0  0
   -0.1168   -1.2637   -0.5330 C   0  0  0  0  0  0  0  0  0  0  0  0
    1.0242   -0.8565    0.3186 C   0  0  0  0  0  0  0  0  0  0  0  0
   -0.2968   -0.8661    0.9047 C   0  0  0  0  0  0  0  0  0  0  0  0
   -1.3228    0.0831    0.3844 C   0  0  0  0  0  0  0  0  0  0  0  0
    1.5527    0.3878   -1.3932 H   0  0  0  0  0  0  0  0  0  0  0  0
    0.5253    1.2882    1.5606 H   0  0  0  0  0  0  0  0  0  0  0  0
   -1.1574    2.0851   -0.6592 H   0  0  0  0  0  0  0  0  0  0  0  0
   -1.4709   -0.0977   -1.8729 H   0  0  0  0  0  0  0  0  0  0  0  0
   -0.3618   -2.2476   -0.8555 H   0  0  0  0  0  0  0  0  0  0  0  0
    1.7314   -1.6196    0.6389 H   0  0  0  0  0  0  0  0  0  0  0  0
   -0.5413   -1.5957    1.6768 H   0  0  0  0  0  0  0  0  0  0  0  0
   -2.3013    0.1829    0.7641 H   0  0  0  0  0  0  0  0  0  0  0  0
  1  2  1  0
  2  3  1  0
  3  4  1  0
  4  5  1  0
  5  6  1  0
  6  7  1  0
  7  8  1  0
  8  9  1  0
  3  1  1  0
  9  4  1  0
  7  2  1  0
  9  5  1  0
  8  6  1  0
  2 10  1  0
  3 11  1  0
  4 12  1  0
  5 13  1  0
  6 14  1  0
  7 15  1  0
  8 16  1  0
  9 17  1  0
M  END
