
     RDKit          3D

 13 16  0  0  0  0  0  0  0  0999 V2000
    0.8443    1.3804   -0.3126 O   0  0  0  0  0  0  0  0  0  0  0  0
   -0.5140    1.1440   -0.5486 C   0  0  0  0  0  0  0  0  0  0  0  0
   -0.6137   -0.2632   -0.9199 C   0  0  0  0  0  0  0  0  0  0  0  0
   -0.9871    0.2620    0.5018 C   0  0  0  0  0  0  0  0  0  0  0  0
    0.2302   -0.4155    1.0221 C   0  0  0  0  0  0  0  0  0  0  0  0
    1.3317    0.2080    0.2719 C   0  0  0  0  0  0  0  0  0  0  0  0
    0.5584   -0.9182   -0.2961 C   0  0  0  0  0  0  0  0  0  0  0  0
   -1.0828    1.8809   -1.0953 H   0  0  0  0  0  0  0  0  0  0  0  0
   -1.4204   -0.7596   -1.4166 H   0  0  0  0  0  0  0  0  0  0  0  0
   -1.9828    0.1083    0.8554 H   0  0  0  0  0  0  0  0  0  0  0  0
    0.3030   -0.9150    1.9667 H   0  0  0  0  0  0  0  0  0  0  0  0
    2.3771    0.1635    0.5380 H   0  0  0  0  0  0  0  0  0  0  0  0
    0.9560   -1.8757   -0.5668 H   0  0  0  0  0  0  0  0  0  0  0  0
  1  2  1  0
  2  3  1  0
  3  4  1  0
  4  5  1  0
  5  6  1  0
  6  7  1  0
  6  1  1  0
  4  2  1  0
  7  5  1  0
  7  3  1  0
  2  8  1  0
  3  9  1  0
  4 10  1  0
  5 11  1  0
  6 12  1  0
  7 13  1  0
M  END
