
     RDKit          3D

 14 17  0  0  0  0  0  0  0  0999 V2000
    0.2351   -0.9300   -1.3565 O   0  0  0  0  0  0  0  0  0  0  0  0
   -0.9731   -0.4691   -0.8854 C   0  0  0  0  0  0  0  0  0  0  0  0
   -1.0646    0.8811   -0.2211 C   0  0  0  0  0  0  0  0  0  0  0  0
    0.1023    1.6148   -0.1992 O   0  0  0  0  0  0  0  0  0  0  0  0
    1.1449    0.7816    0.1107 C   0  0  0  0  0  0  0  0  0  0  0  0
    1.2050   -0.5878   -0.4420 C   0  0  0  0  0  0  0  0  0  0  0  0
    0.5695   -0.3571    0.8748 C   0  0  0  0  0  0  0  0  0  0  0  0
   -0.8866   -0.3445    0.5829 C   0  0  0  0  0  0  0  0  0  0  0  0
   -1.8693   -0.7666   -1.4209 H   0  0  0  0  0  0  0  0  0  0  0  0
   -2.0077    1.4176   -0.1981 H   0  0  0  0  0  0  0  0  0  0  0  0
    2.0337    1.2922    0.5288 H   0  0  0  0  0  0  0  0  0  0  0  0
    2.1420   -1.1533   -0.4204 H   0  0  0  0  0  0  0  0  0  0  0  0
    1.0075   -0.5966    1.8249 H   0  0  0  0  0  0  0  0  0  0  0  0
   -1.6387   -0.7822    1.2215 H   0  0  0  0  0  0  0  0  0  0  0  0
  1  2  1  0
  2  3  1  0
  3  4  1  0
  4  5  1  0
  5  6  1  0
  6  7  1  0
  7  8  1  0
  6  1  1  0
  8  2  1  0
  8  3  1  0
  7  5  1  0
  2  9  1  0
  3 10  1  0
  5 11  1  0
  6 12  1  0
  7 13  1  0
  8 14  1  0
M  END
