
     RDKit          3D

 14 17  0  0  0  0  0  0  0  0999 V2000
    1.5661   -0.9678    0.8183 O   0  0  0  0  0  0  0  0  0  0  0  0
    1.3187   -0.2935   -0.3684 C   0  0  0  0  0  0  0  0  0  0  0  0
    0.9417    0.2358    1.0283 C   0  0  0  0  0  0  0  0  0  0  0  0
   -0.5481    0.2927    0.8768 C   0  0  0  0  0  0  0  0  0  0  0  0
   -0.9585   -0.8697    0.0209 C   0  0  0  0  0  0  0  0  0  0  0  0
   -1.9374   -0.0277   -0.4982 O   0  0  0  0  0  0  0  0  0  0  0  0
   -0.8384    0.8116   -0.4828 C   0  0  0  0  0  0  0  0  0  0  0  0
   -0.0344   -0.3463   -1.0050 C   0  0  0  0  0  0  0  0  0  0  0  0
    2.1631    0.1488   -0.8901 H   0  0  0  0  0  0  0  0  0  0  0  0
    1.5031    1.1262    1.3056 H   0  0  0  0  0  0  0  0  0  0  0  0
   -1.1568    0.5711    1.7121 H   0  0  0  0  0  0  0  0  0  0  0  0
   -1.0957   -1.8210    0.3290 H   0  0  0  0  0  0  0  0  0  0  0  0
   -0.7948    1.7638   -0.8114 H   0  0  0  0  0  0  0  0  0  0  0  0
   -0.1287   -0.6241   -2.0351 H   0  0  0  0  0  0  0  0  0  0  0  0
  1  2  1  0
  2  3  1  0
  3  4  1  0
  4  5  1  0
  5  6  1  0
  6  7  1  0
  7  8  1  0
  3  1  1  0
  7  4  1  0
  8  2  1  0
  8  5  1  0
  2  9  1  0
  3 10  1  0
  4 11  1  0
  5 12  1  0
  7 13  1  0
  8 14  1  0
M  END
