
     RDKit          3D

 17 21  0  0  0  0  0  0  0  0999 V2000
    1.3661   -0.1520    1.2099 O   0  0  0  0  0  0  0  0  0  0  0  0
    0.5621   -1.2337    0.9186 C   0  0  0  0  0  0  0  0  0  0  0  0
    0.3309   -1.2180   -0.5366 C   0  0  0  0  0  0  0  0  0  0  0  0
   -0.8073   -1.0925    0.3862 C   0  0  0  0  0  0  0  0  0  0  0  0
   -1.3427    0.3302    0.2894 C   0  0  0  0  0  0  0  0  0  0  0  0
   -0.2777    1.3778    0.4486 C   0  0  0  0  0  0  0  0  0  0  0  0
    1.1183    0.8386    0.2876 C   0  0  0  0  0  0  0  0  0  0  0  0
    0.6466    0.1618   -0.9807 C   0  0  0  0  0  0  0  0  0  0  0  0
   -0.6595    0.8821   -0.8733 C   0  0  0  0  0  0  0  0  0  0  0  0
    0.8547   -2.1604    1.4611 H   0  0  0  0  0  0  0  0  0  0  0  0
    0.5250   -2.0962   -1.1608 H   0  0  0  0  0  0  0  0  0  0  0  0
   -1.5464   -1.8721    0.5694 H   0  0  0  0  0  0  0  0  0  0  0  0
   -2.3564    0.5590    0.6029 H   0  0  0  0  0  0  0  0  0  0  0  0
   -0.4788    2.3608    0.8464 H   0  0  0  0  0  0  0  0  0  0  0  0
    1.9103    1.5443    0.0706 H   0  0  0  0  0  0  0  0  0  0  0  0
    1.2454    0.3107   -1.8696 H   0  0  0  0  0  0  0  0  0  0  0  0
   -1.0904    1.4596   -1.6699 H   0  0  0  0  0  0  0  0  0  0  0  0
  1  2  1  0
  2  3  1  0
  3  4  1  0
  4  5  1  0
  5  6  1  0
  6  7  1  0
  7  8  1  0
  8  9  1  0
  7  1  1  0
  4  2  1  0
  9  5  1  0
  8  3  1  0
  9  6  1  0
  2 10  1  0
  3 11  1  0
  4 12  1  0
  5 13  1  0
  6 14  1  0
  7 15  1  0
  8 16  1  0
  9 17  1  0
M  END
