
     RDKit          3D

 17 21  0  0  0  0  0  0  0  0999 V2000
   -1.5804    0.6925    1.2291 O   0  0  0  0  0  0  0  0  0  0  0  0
   -0.1774    0.8567    1.1653 C   0  0  0  0  0  0  0  0  0  0  0  0
   -0.3862    1.1801   -0.2961 C   0  0  0  0  0  0  0  0  0  0  0  0
   -1.4544    0.1104   -0.0373 C   0  0  0  0  0  0  0  0  0  0  0  0
   -0.5628   -1.1033    0.0626 C   0  0  0  0  0  0  0  0  0  0  0  0
    0.4653   -0.5056    1.0377 C   0  0  0  0  0  0  0  0  0  0  0  0
    1.3929   -0.3562   -0.0850 C   0  0  0  0  0  0  0  0  0  0  0  0
    0.7047    0.5222   -1.0544 C   0  0  0  0  0  0  0  0  0  0  0  0
    0.4054   -0.9264   -1.0173 C   0  0  0  0  0  0  0  0  0  0  0  0
    0.2655    1.5863    1.8011 H   0  0  0  0  0  0  0  0  0  0  0  0
   -0.7342    2.1537   -0.5608 H   0  0  0  0  0  0  0  0  0  0  0  0
   -2.2972    0.0933   -0.6843 H   0  0  0  0  0  0  0  0  0  0  0  0
   -0.9860   -2.0412    0.3244 H   0  0  0  0  0  0  0  0  0  0  0  0
    0.6855   -1.0632    1.9116 H   0  0  0  0  0  0  0  0  0  0  0  0
    2.4440   -0.5756   -0.0816 H   0  0  0  0  0  0  0  0  0  0  0  0
    1.1966    0.9955   -1.9028 H   0  0  0  0  0  0  0  0  0  0  0  0
    0.6185   -1.6191   -1.8121 H   0  0  0  0  0  0  0  0  0  0  0  0
  1  2  1  0
  2  3  1  0
  3  4  1  0
  4  5  1  0
  5  6  1  0
  6  7  1  0
  7  8  1  0
  8  9  1  0
  4  1  1  0
  9  5  1  0
  6  2  1  0
  9  7  1  0
  8  3  1  0
  2 10  1  0
  3 11  1  0
  4 12  1  0
  5 13  1  0
  6 14  1  0
  7 15  1  0
  8 16  1  0
  9 17  1  0
M  END
