
     RDKit          3D

 17 21  0  0  0  0  0  0  0  0999 V2000
   -0.9462    1.1392    0.9739 O   0  0  0  0  0  0  0  0  0  0  0  0
   -0.3058    1.3161   -0.2757 C   0  0  0  0  0  0  0  0  0  0  0  0
   -0.8991    0.2178   -1.0810 C   0  0  0  0  0  0  0  0  0  0  0  0
   -1.1033   -0.8759   -0.0255 C   0  0  0  0  0  0  0  0  0  0  0  0
   -0.6028   -0.2088    1.2120 C   0  0  0  0  0  0  0  0  0  0  0  0
    0.8890   -0.1723    1.0666 C   0  0  0  0  0  0  0  0  0  0  0  0
    1.1035    0.9109    0.0705 C   0  0  0  0  0  0  0  0  0  0  0  0
    1.2479   -0.4945   -0.3263 C   0  0  0  0  0  0  0  0  0  0  0  0
   -0.0073   -0.9445   -1.0057 C   0  0  0  0  0  0  0  0  0  0  0  0
   -0.4110    2.3178   -0.6681 H   0  0  0  0  0  0  0  0  0  0  0  0
   -1.6543    0.3726   -1.8452 H   0  0  0  0  0  0  0  0  0  0  0  0
   -1.9999   -1.4852   -0.0502 H   0  0  0  0  0  0  0  0  0  0  0  0
   -0.9752   -0.5908    2.1473 H   0  0  0  0  0  0  0  0  0  0  0  0
    1.5628   -0.3778    1.8884 H   0  0  0  0  0  0  0  0  0  0  0  0
    1.9101    1.6329    0.1313 H   0  0  0  0  0  0  0  0  0  0  0  0
    2.2094   -0.9858   -0.5018 H   0  0  0  0  0  0  0  0  0  0  0  0
   -0.0177   -1.7717   -1.7105 H   0  0  0  0  0  0  0  0  0  0  0  0
  1  2  1  0
  2  3  1  0
  3  4  1  0
  4  5  1  0
  5  6  1  0
  6  7  1  0
  7  8  1  0
  8  9  1  0
  5  1  1  0
  8  6  1  0
  7  2  1  0
  9  3  1  0
  9  4  1  0
  2 10  1  0
  3 11  1  0
  4 12  1  0
  5 13  1  0
  6 14  1  0
  7 15  1  0
  8 16  1  0
  9 17  1  0
M  END
