
     RDKit          3D

 15 18  0  0  0  0  0  0  0  0999 V2000
    2.2968    0.0016    0.0733 O   0  0  0  0  0  0  0  0  0  0  0  0
    1.2409    0.5245   -0.6426 C   0  0  0  0  0  0  0  0  0  0  0  0
    1.2175   -0.8531    0.0102 C   0  0  0  0  0  0  0  0  0  0  0  0
    0.0688   -0.7186    0.9678 C   0  0  0  0  0  0  0  0  0  0  0  0
    0.1799    0.6401    1.3401 O   0  0  0  0  0  0  0  0  0  0  0  0
    0.1080    1.2221    0.0527 C   0  0  0  0  0  0  0  0  0  0  0  0
   -1.2055    0.6675   -0.4357 C   0  0  0  0  0  0  0  0  0  0  0  0
   -1.1840   -0.5095   -1.1936 O   0  0  0  0  0  0  0  0  0  0  0  0
   -1.2060   -0.7169    0.1848 C   0  0  0  0  0  0  0  0  0  0  0  0
    1.2240    0.4686   -1.7479 H   0  0  0  0  0  0  0  0  0  0  0  0
    1.2311   -1.7497   -0.6238 H   0  0  0  0  0  0  0  0  0  0  0  0
    0.0971   -1.3935    1.8153 H   0  0  0  0  0  0  0  0  0  0  0  0
    0.1695    2.3019    0.0712 H   0  0  0  0  0  0  0  0  0  0  0  0
   -2.1118    1.2719   -0.4356 H   0  0  0  0  0  0  0  0  0  0  0  0
   -2.1263   -1.1570    0.5639 H   0  0  0  0  0  0  0  0  0  0  0  0
  1  2  1  0
  2  3  1  0
  3  4  1  0
  4  5  1  0
  5  6  1  0
  6  7  1  0
  7  8  1  0
  8  9  1  0
  3  1  1  0
  9  4  1  0
  6  2  1  0
  9  7  1  0
  2 10  1  0
  3 11  1  0
  4 12  1  0
  6 13  1  0
  7 14  1  0
  9 15  1  0
M  END
