
     RDKit          3D

 17 18  0  0  0  0  0  0  0  0999 V2000
    1.7883    0.4645   -1.4521 O   0  0  0  0  0  0  0  0  0  0  0  0
    1.1257    0.0528   -0.5011 C   0  0  0  0  0  0  0  0  0  0  0  0
    1.8877   -0.5568    0.6211 C   0  0  0  0  0  0  0  0  0  0  0  0
    3.2512   -0.5346    0.3515 O   0  0  0  0  0  0  0  0  0  0  0  0
   -0.3132    0.1953   -0.5563 C   0  0  0  0  0  0  0  0  0  0  0  0
   -1.2364   -0.7973    0.1161 C   0  0  0  0  0  0  0  0  0  0  0  0
   -2.2742    0.3266    0.1490 C   0  0  0  0  0  0  0  0  0  0  0  0
   -1.1839    1.2234   -0.4354 C   0  0  0  0  0  0  0  0  0  0  0  0
   -0.8099    0.8092   -1.7302 O   0  0  0  0  0  0  0  0  0  0  0  0
    1.5887   -1.6149    0.7320 H   0  0  0  0  0  0  0  0  0  0  0  0
    1.7226   -0.0231    1.5811 H   0  0  0  0  0  0  0  0  0  0  0  0
    3.7339    0.1497    0.8652 H   0  0  0  0  0  0  0  0  0  0  0  0
   -0.9035   -1.0184    1.1340 H   0  0  0  0  0  0  0  0  0  0  0  0
   -1.5237   -1.6630   -0.5086 H   0  0  0  0  0  0  0  0  0  0  0  0
   -3.1018    0.1066   -0.5763 H   0  0  0  0  0  0  0  0  0  0  0  0
   -2.5998    0.6054    1.1651 H   0  0  0  0  0  0  0  0  0  0  0  0
   -1.1515    2.2748   -0.1757 H   0  0  0  0  0  0  0  0  0  0  0  0
  1  2  2  0
  2  3  1  0
  3  4  1  0
  2  5  1  0
  5  6  1  0
  6  7  1  0
  7  8  1  0
  8  9  1  0
  8  5  1  0
  9  5  1  0
  3 10  1  0
  3 11  1  0
  4 12  1  0
  6 13  1  0
  6 14  1  0
  7 15  1  0
  7 16  1  0
  8 17  1  0
M  END
