
     RDKit          3D

 17 18  0  0  0  0  0  0  0  0999 V2000
   -0.8745   -1.9376   -1.5110 O   0  0  0  0  0  0  0  0  0  0  0  0
   -0.9123   -1.0862   -0.6281 C   0  0  0  0  0  0  0  0  0  0  0  0
   -1.6791   -1.2969    0.6313 C   0  0  0  0  0  0  0  0  0  0  0  0
   -1.5710   -0.1957    1.4740 O   0  0  0  0  0  0  0  0  0  0  0  0
   -0.1865    0.1829   -0.8014 C   0  0  0  0  0  0  0  0  0  0  0  0
   -0.3027    1.0694    0.2635 O   0  0  0  0  0  0  0  0  0  0  0  0
    1.0402    0.9772    0.5875 C   0  0  0  0  0  0  0  0  0  0  0  0
    2.0264    1.3839   -0.4245 C   0  0  0  0  0  0  0  0  0  0  0  0
    1.3080    0.1041   -0.5818 C   0  0  0  0  0  0  0  0  0  0  0  0
   -2.7563   -1.5115    0.4044 H   0  0  0  0  0  0  0  0  0  0  0  0
   -1.2332   -2.1603    1.2068 H   0  0  0  0  0  0  0  0  0  0  0  0
   -2.3406    0.4171    1.3168 H   0  0  0  0  0  0  0  0  0  0  0  0
   -0.3945    0.7147   -1.7506 H   0  0  0  0  0  0  0  0  0  0  0  0
    1.2769    0.6493    1.5947 H   0  0  0  0  0  0  0  0  0  0  0  0
    1.6994    2.2030   -1.1099 H   0  0  0  0  0  0  0  0  0  0  0  0
    3.1033    1.3569   -0.1679 H   0  0  0  0  0  0  0  0  0  0  0  0
    1.7964   -0.8704   -0.5039 H   0  0  0  0  0  0  0  0  0  0  0  0
  1  2  2  0
  2  3  1  0
  3  4  1  0
  2  5  1  0
  5  6  1  0
  6  7  1  0
  7  8  1  0
  8  9  1  0
  9  5  1  0
  9  7  1  0
  3 10  1  0
  3 11  1  0
  4 12  1  0
  5 13  1  0
  7 14  1  0
  8 15  1  0
  8 16  1  0
  9 17  1  0
M  END
