
     RDKit          3D

 16 16  0  0  0  0  0  0  0  0999 V2000
    1.3139    0.6529   -1.4312 O   0  0  0  0  0  0  0  0  0  0  0  0
    1.2520    0.0730   -0.3370 C   0  0  0  0  0  0  0  0  0  0  0  0
    2.4631   -0.2809    0.4412 C   0  0  0  0  0  0  0  0  0  0  0  0
    3.6007    0.1430   -0.2617 O   0  0  0  0  0  0  0  0  0  0  0  0
    0.0018   -0.2668    0.1967 O   0  0  0  0  0  0  0  0  0  0  0  0
   -1.2046    0.0349   -0.4822 C   0  0  0  0  0  0  0  0  0  0  0  0
   -2.2835    0.5823    0.4349 C   0  0  0  0  0  0  0  0  0  0  0  0
   -2.3795   -0.7964   -0.1914 C   0  0  0  0  0  0  0  0  0  0  0  0
    2.5440   -1.3735    0.6211 H   0  0  0  0  0  0  0  0  0  0  0  0
    2.4675    0.2007    1.4508 H   0  0  0  0  0  0  0  0  0  0  0  0
    3.7771    1.1162   -0.1231 H   0  0  0  0  0  0  0  0  0  0  0  0
   -1.0544    0.5512   -1.4480 H   0  0  0  0  0  0  0  0  0  0  0  0
   -2.1148    0.5504    1.5380 H   0  0  0  0  0  0  0  0  0  0  0  0
   -2.8894    1.4039    0.0224 H   0  0  0  0  0  0  0  0  0  0  0  0
   -2.2667   -1.6904    0.4645 H   0  0  0  0  0  0  0  0  0  0  0  0
   -3.2271   -0.9004   -0.8951 H   0  0  0  0  0  0  0  0  0  0  0  0
  1  2  2  0
  2  3  1  0
  3  4  1  0
  2  5  1  0
  5  6  1  0
  6  7  1  0
  7  8  1  0
  8  6  1  0
  3  9  1  0
  3 10  1  0
  4 11  1  0
  6 12  1  0
  7 13  1  0
  7 14  1  0
  8 15  1  0
  8 16  1  0
M  END
