
     RDKit          3D

 19 20  0  0  0  0  0  0  0  0999 V2000
    0.0217    1.3979   -1.7194 O   0  0  0  0  0  0  0  0  0  0  0  0
   -0.3660    0.6184   -0.8847 C   0  0  0  0  0  0  0  0  0  0  0  0
    0.6335   -0.1073   -0.0749 C   0  0  0  0  0  0  0  0  0  0  0  0
    2.0280    0.2723   -0.4539 C   0  0  0  0  0  0  0  0  0  0  0  0
    3.1768   -0.3097    0.2037 C   0  0  0  0  0  0  0  0  0  0  0  0
    2.8232   -0.7575   -1.1082 O   0  0  0  0  0  0  0  0  0  0  0  0
   -1.8234    0.4436   -0.7304 C   0  0  0  0  0  0  0  0  0  0  0  0
   -2.3850   -0.8028   -0.1637 C   0  0  0  0  0  0  0  0  0  0  0  0
   -2.2740    0.3402    0.7485 C   0  0  0  0  0  0  0  0  0  0  0  0
    0.5473   -1.2074   -0.1651 H   0  0  0  0  0  0  0  0  0  0  0  0
    0.4614    0.2064    0.9920 H   0  0  0  0  0  0  0  0  0  0  0  0
    2.1644    1.2217   -1.0131 H   0  0  0  0  0  0  0  0  0  0  0  0
    3.0750   -1.1201    0.9423 H   0  0  0  0  0  0  0  0  0  0  0  0
    4.1680    0.2258    0.1522 H   0  0  0  0  0  0  0  0  0  0  0  0
   -2.4887    1.0390   -1.3914 H   0  0  0  0  0  0  0  0  0  0  0  0
   -1.6771   -1.6604   -0.1231 H   0  0  0  0  0  0  0  0  0  0  0  0
   -3.3834   -1.1049   -0.5337 H   0  0  0  0  0  0  0  0  0  0  0  0
   -3.2067    0.8892    0.9869 H   0  0  0  0  0  0  0  0  0  0  0  0
   -1.4949    0.4156    1.5278 H   0  0  0  0  0  0  0  0  0  0  0  0
  1  2  2  0
  2  3  1  0
  3  4  1  0
  4  5  1  0
  5  6  1  0
  2  7  1  0
  7  8  1  0
  8  9  1  0
  6  4  1  0
  9  7  1  0
  3 10  1  0
  3 11  1  0
  4 12  1  0
  5 13  1  0
  5 14  1  0
  7 15  1  0
  8 16  1  0
  8 17  1  0
  9 18  1  0
  9 19  1  0
M  END
