
     RDKit          3D

 17 17  0  0  0  0  0  0  0  0999 V2000
    0.2258    1.4676   -1.4236 O   0  0  0  0  0  0  0  0  0  0  0  0
    0.5813    0.5301   -0.7167 C   0  0  0  0  0  0  0  0  0  0  0  0
    2.0271    0.2067   -0.7015 C   0  0  0  0  0  0  0  0  0  0  0  0
    2.2838   -0.8766    0.1419 O   0  0  0  0  0  0  0  0  0  0  0  0
   -0.4472   -0.1963    0.0563 C   0  0  0  0  0  0  0  0  0  0  0  0
   -0.0064   -1.2250    0.8228 O   0  0  0  0  0  0  0  0  0  0  0  0
   -1.7146   -0.4182   -0.7384 C   0  0  0  0  0  0  0  0  0  0  0  0
   -1.9627    0.9637   -0.5593 O   0  0  0  0  0  0  0  0  0  0  0  0
   -1.3851    0.7925    0.7187 C   0  0  0  0  0  0  0  0  0  0  0  0
    2.5990    1.0981   -0.3580 H   0  0  0  0  0  0  0  0  0  0  0  0
    2.3174   -0.0618   -1.7565 H   0  0  0  0  0  0  0  0  0  0  0  0
    3.2143   -0.7190    0.4919 H   0  0  0  0  0  0  0  0  0  0  0  0
   -0.7501   -1.8189    1.0819 H   0  0  0  0  0  0  0  0  0  0  0  0
   -2.4692   -1.0433   -0.2589 H   0  0  0  0  0  0  0  0  0  0  0  0
   -1.5166   -0.7069   -1.7745 H   0  0  0  0  0  0  0  0  0  0  0  0
   -0.8637    1.6686    1.1082 H   0  0  0  0  0  0  0  0  0  0  0  0
   -2.1330    0.3386    1.3776 H   0  0  0  0  0  0  0  0  0  0  0  0
  1  2  2  0
  2  3  1  0
  3  4  1  0
  2  5  1  0
  5  6  1  0
  5  7  1  0
  7  8  1  0
  8  9  1  0
  9  5  1  0
  3 10  1  0
  3 11  1  0
  4 12  1  0
  6 13  1  0
  7 14  1  0
  7 15  1  0
  9 16  1  0
  9 17  1  0
M  END
