
     RDKit          3D

 16 16  0  0  0  0  0  0  0  0999 V2000
    1.2737   -1.5980    0.7871 O   0  0  0  0  0  0  0  0  0  0  0  0
    0.7700   -0.6217    0.2908 C   0  0  0  0  0  0  0  0  0  0  0  0
    1.5822    0.2679   -0.5593 C   0  0  0  0  0  0  0  0  0  0  0  0
    2.9016   -0.2101   -0.6561 O   0  0  0  0  0  0  0  0  0  0  0  0
   -0.6524   -0.3239    0.5363 C   0  0  0  0  0  0  0  0  0  0  0  0
   -1.2013   -0.9845    1.6539 O   0  0  0  0  0  0  0  0  0  0  0  0
   -1.2888    0.9109    0.0382 C   0  0  0  0  0  0  0  0  0  0  0  0
   -1.4876   -0.3201   -0.7372 C   0  0  0  0  0  0  0  0  0  0  0  0
    1.5915    1.2725   -0.0525 H   0  0  0  0  0  0  0  0  0  0  0  0
    1.1666    0.3863   -1.5934 H   0  0  0  0  0  0  0  0  0  0  0  0
    3.2566   -0.3064    0.2669 H   0  0  0  0  0  0  0  0  0  0  0  0
   -1.6839   -0.2566    2.1540 H   0  0  0  0  0  0  0  0  0  0  0  0
   -0.6162    1.7212   -0.2936 H   0  0  0  0  0  0  0  0  0  0  0  0
   -2.1583    1.2804    0.6079 H   0  0  0  0  0  0  0  0  0  0  0  0
   -0.9836   -0.3801   -1.7133 H   0  0  0  0  0  0  0  0  0  0  0  0
   -2.4701   -0.8377   -0.7299 H   0  0  0  0  0  0  0  0  0  0  0  0
  1  2  2  0
  2  3  1  0
  3  4  1  0
  2  5  1  0
  5  6  1  0
  5  7  1  0
  7  8  1  0
  8  5  1  0
  3  9  1  0
  3 10  1  0
  4 11  1  0
  6 12  1  0
  7 13  1  0
  7 14  1  0
  8 15  1  0
  8 16  1  0
M  END
