
     RDKit          3D

 19 19  0  0  0  0  0  0  0  0999 V2000
    0.4409    1.4851    0.7857 O   0  0  0  0  0  0  0  0  0  0  0  0
    0.9899    0.6417    0.1063 C   0  0  0  0  0  0  0  0  0  0  0  0
    2.4583    0.8451   -0.0968 C   0  0  0  0  0  0  0  0  0  0  0  0
    3.0236   -0.1482   -0.8779 O   0  0  0  0  0  0  0  0  0  0  0  0
    0.2501   -0.4832   -0.4625 C   0  0  0  0  0  0  0  0  0  0  0  0
   -1.2086   -0.5443   -0.1419 C   0  0  0  0  0  0  0  0  0  0  0  0
   -1.8593   -1.6612   -0.7363 O   0  0  0  0  0  0  0  0  0  0  0  0
   -1.7769   -0.1230    1.1418 C   0  0  0  0  0  0  0  0  0  0  0  0
   -2.0611    0.6840   -0.1035 C   0  0  0  0  0  0  0  0  0  0  0  0
    2.5934    1.8135   -0.6259 H   0  0  0  0  0  0  0  0  0  0  0  0
    2.9293    0.9457    0.8992 H   0  0  0  0  0  0  0  0  0  0  0  0
    3.0489   -1.0265   -0.4398 H   0  0  0  0  0  0  0  0  0  0  0  0
    0.3871   -0.4141   -1.5841 H   0  0  0  0  0  0  0  0  0  0  0  0
    0.7325   -1.4772   -0.2240 H   0  0  0  0  0  0  0  0  0  0  0  0
   -1.3723   -2.4963   -0.4705 H   0  0  0  0  0  0  0  0  0  0  0  0
   -2.6203   -0.7498    1.5614 H   0  0  0  0  0  0  0  0  0  0  0  0
   -1.2043    0.3841    1.9362 H   0  0  0  0  0  0  0  0  0  0  0  0
   -3.1223    0.6394   -0.4244 H   0  0  0  0  0  0  0  0  0  0  0  0
   -1.6287    1.6852   -0.2430 H   0  0  0  0  0  0  0  0  0  0  0  0
  1  2  2  0
  2  3  1  0
  3  4  1  0
  2  5  1  0
  5  6  1  0
  6  7  1  0
  6  8  1  0
  8  9  1  0
  9  6  1  0
  3 10  1  0
  3 11  1  0
  4 12  1  0
  5 13  1  0
  5 14  1  0
  7 15  1  0
  8 16  1  0
  8 17  1  0
  9 18  1  0
  9 19  1  0
M  END
