
     RDKit          3D

 17 17  0  0  0  0  0  0  0  0999 V2000
    1.5412    1.9173   -0.4540 O   0  0  0  0  0  0  0  0  0  0  0  0
    1.1494    0.8305   -0.0691 C   0  0  0  0  0  0  0  0  0  0  0  0
    2.1148   -0.2883    0.0767 C   0  0  0  0  0  0  0  0  0  0  0  0
    3.3968    0.1183   -0.2751 O   0  0  0  0  0  0  0  0  0  0  0  0
   -0.2821    0.6577    0.2426 C   0  0  0  0  0  0  0  0  0  0  0  0
   -0.4922   -0.6349    0.6536 O   0  0  0  0  0  0  0  0  0  0  0  0
   -1.5925   -1.1278   -0.0003 C   0  0  0  0  0  0  0  0  0  0  0  0
   -2.2091    0.1320   -0.5742 C   0  0  0  0  0  0  0  0  0  0  0  0
   -1.0543    0.8669   -0.8983 O   0  0  0  0  0  0  0  0  0  0  0  0
    1.7742   -1.1424   -0.5454 H   0  0  0  0  0  0  0  0  0  0  0  0
    2.1667   -0.6129    1.1412 H   0  0  0  0  0  0  0  0  0  0  0  0
    3.3633    0.8350   -0.9697 H   0  0  0  0  0  0  0  0  0  0  0  0
   -0.6312    1.4121    0.9929 H   0  0  0  0  0  0  0  0  0  0  0  0
   -2.2837   -1.6367    0.7025 H   0  0  0  0  0  0  0  0  0  0  0  0
   -1.3776   -1.7962   -0.8428 H   0  0  0  0  0  0  0  0  0  0  0  0
   -2.7915    0.6105    0.2232 H   0  0  0  0  0  0  0  0  0  0  0  0
   -2.7922   -0.1410   -1.4695 H   0  0  0  0  0  0  0  0  0  0  0  0
  1  2  2  0
  2  3  1  0
  3  4  1  0
  2  5  1  0
  5  6  1  0
  6  7  1  0
  7  8  1  0
  8  9  1  0
  9  5  1  0
  3 10  1  0
  3 11  1  0
  4 12  1  0
  5 13  1  0
  7 14  1  0
  7 15  1  0
  8 16  1  0
  8 17  1  0
M  END
