
     RDKit          3D

 19 19  0  0  0  0  0  0  0  0999 V2000
    0.1073    1.3865   -0.0685 O   0  0  0  0  0  0  0  0  0  0  0  0
   -0.0870    0.1891   -0.1102 C   0  0  0  0  0  0  0  0  0  0  0  0
   -1.4917   -0.2943   -0.1525 C   0  0  0  0  0  0  0  0  0  0  0  0
   -2.4703    0.8644   -0.1347 C   0  0  0  0  0  0  0  0  0  0  0  0
   -3.7846    0.4095   -0.1742 O   0  0  0  0  0  0  0  0  0  0  0  0
    1.0334   -0.7922   -0.1197 C   0  0  0  0  0  0  0  0  0  0  0  0
    2.3280   -0.4477   -0.7488 C   0  0  0  0  0  0  0  0  0  0  0  0
    2.1809   -0.4388    0.7515 C   0  0  0  0  0  0  0  0  0  0  0  0
    2.2584    0.8369    1.3289 O   0  0  0  0  0  0  0  0  0  0  0  0
   -1.6621   -0.9368    0.7460 H   0  0  0  0  0  0  0  0  0  0  0  0
   -1.6478   -0.9527   -1.0261 H   0  0  0  0  0  0  0  0  0  0  0  0
   -2.2627    1.4569   -1.0589 H   0  0  0  0  0  0  0  0  0  0  0  0
   -2.2723    1.5527    0.7106 H   0  0  0  0  0  0  0  0  0  0  0  0
   -3.9530   -0.3327    0.4382 H   0  0  0  0  0  0  0  0  0  0  0  0
    0.7468   -1.8638   -0.1592 H   0  0  0  0  0  0  0  0  0  0  0  0
    2.4820    0.5197   -1.2661 H   0  0  0  0  0  0  0  0  0  0  0  0
    2.9438   -1.2713   -1.1607 H   0  0  0  0  0  0  0  0  0  0  0  0
    2.6033   -1.2300    1.3681 H   0  0  0  0  0  0  0  0  0  0  0  0
    2.9478    1.3447    0.8362 H   0  0  0  0  0  0  0  0  0  0  0  0
  1  2  2  0
  2  3  1  0
  3  4  1  0
  4  5  1  0
  2  6  1  0
  6  7  1  0
  7  8  1  0
  8  9  1  0
  8  6  1  0
  3 10  1  0
  3 11  1  0
  4 12  1  0
  4 13  1  0
  5 14  1  0
  6 15  1  0
  7 16  1  0
  7 17  1  0
  8 18  1  0
  9 19  1  0
M  END
