
     RDKit          3D

 19 19  0  0  0  0  0  0  0  0999 V2000
   -0.4797   -0.5161   -1.7372 O   0  0  0  0  0  0  0  0  0  0  0  0
   -0.2713   -0.0322   -0.6536 C   0  0  0  0  0  0  0  0  0  0  0  0
   -1.3047   -0.0449    0.4074 C   0  0  0  0  0  0  0  0  0  0  0  0
   -2.5804   -0.7174   -0.0546 C   0  0  0  0  0  0  0  0  0  0  0  0
   -3.0399    0.0129   -1.1542 O   0  0  0  0  0  0  0  0  0  0  0  0
    1.0342    0.6005   -0.3317 C   0  0  0  0  0  0  0  0  0  0  0  0
    1.9895   -0.2769    0.4539 C   0  0  0  0  0  0  0  0  0  0  0  0
    2.9612    0.5760   -0.3717 C   0  0  0  0  0  0  0  0  0  0  0  0
    1.9621    0.5796   -1.3724 O   0  0  0  0  0  0  0  0  0  0  0  0
   -1.5274    1.0294    0.6521 H   0  0  0  0  0  0  0  0  0  0  0  0
   -0.9224   -0.6101    1.2575 H   0  0  0  0  0  0  0  0  0  0  0  0
   -3.3729   -0.6532    0.7117 H   0  0  0  0  0  0  0  0  0  0  0  0
   -2.3494   -1.7635   -0.3284 H   0  0  0  0  0  0  0  0  0  0  0  0
   -4.0254   -0.0829   -1.2642 H   0  0  0  0  0  0  0  0  0  0  0  0
    0.9370    1.6239    0.0527 H   0  0  0  0  0  0  0  0  0  0  0  0
    2.0079   -1.3059    0.0830 H   0  0  0  0  0  0  0  0  0  0  0  0
    2.0334   -0.1069    1.5263 H   0  0  0  0  0  0  0  0  0  0  0  0
    3.8841    0.0650   -0.6377 H   0  0  0  0  0  0  0  0  0  0  0  0
    3.0641    1.6225    0.0170 H   0  0  0  0  0  0  0  0  0  0  0  0
  1  2  2  0
  2  3  1  0
  3  4  1  0
  4  5  1  0
  2  6  1  0
  6  7  1  0
  7  8  1  0
  8  9  1  0
  9  6  1  0
  3 10  1  0
  3 11  1  0
  4 12  1  0
  4 13  1  0
  5 14  1  0
  6 15  1  0
  7 16  1  0
  7 17  1  0
  8 18  1  0
  8 19  1  0
M  END
