
     RDKit          3D

 19 20  0  0  0  0  0  0  0  0999 V2000
   -0.1679   -1.0594    1.9162 O   0  0  0  0  0  0  0  0  0  0  0  0
    0.0695   -0.3838    0.8986 C   0  0  0  0  0  0  0  0  0  0  0  0
    1.3304    0.2955    0.7735 C   0  0  0  0  0  0  0  0  0  0  0  0
    2.4599   -0.4168   -0.0394 C   0  0  0  0  0  0  0  0  0  0  0  0
    1.9145    0.9678   -0.3681 C   0  0  0  0  0  0  0  0  0  0  0  0
   -1.0955   -0.4040   -0.0528 C   0  0  0  0  0  0  0  0  0  0  0  0
   -0.8327   -0.9336   -1.2906 O   0  0  0  0  0  0  0  0  0  0  0  0
   -2.4480   -0.3762    0.6066 C   0  0  0  0  0  0  0  0  0  0  0  0
   -1.9105    0.8739   -0.0615 C   0  0  0  0  0  0  0  0  0  0  0  0
    1.7849    0.4906    1.8321 H   0  0  0  0  0  0  0  0  0  0  0  0
    2.2095   -1.1963   -0.7334 H   0  0  0  0  0  0  0  0  0  0  0  0
    3.4829   -0.4392    0.4495 H   0  0  0  0  0  0  0  0  0  0  0  0
    2.6276    1.8008   -0.1094 H   0  0  0  0  0  0  0  0  0  0  0  0
    1.3915    1.1337   -1.3339 H   0  0  0  0  0  0  0  0  0  0  0  0
   -1.1067   -1.9341   -1.1579 H   0  0  0  0  0  0  0  0  0  0  0  0
   -2.4645   -0.3277    1.7347 H   0  0  0  0  0  0  0  0  0  0  0  0
   -3.3002   -0.8978    0.1396 H   0  0  0  0  0  0  0  0  0  0  0  0
   -1.5515    1.6871    0.5613 H   0  0  0  0  0  0  0  0  0  0  0  0
   -2.3931    1.1194   -1.0013 H   0  0  0  0  0  0  0  0  0  0  0  0
  1  2  2  0
  2  3  1  0
  3  4  1  0
  4  5  1  0
  2  6  1  0
  6  7  1  0
  6  8  1  0
  8  9  1  0
  5  3  1  0
  9  6  1  0
  3 10  1  0
  4 11  1  0
  4 12  1  0
  5 13  1  0
  5 14  1  0
  7 15  1  0
  8 16  1  0
  8 17  1  0
  9 18  1  0
  9 19  1  0
M  END
