
     RDKit          3D

 19 19  0  0  0  0  0  0  0  0999 V2000
    1.1092    1.3543   -0.7090 O   0  0  0  0  0  0  0  0  0  0  0  0
    1.0744    0.2406   -0.1976 C   0  0  0  0  0  0  0  0  0  0  0  0
    2.3420   -0.4640    0.0837 C   0  0  0  0  0  0  0  0  0  0  0  0
    3.4262    0.3140   -0.3083 O   0  0  0  0  0  0  0  0  0  0  0  0
   -0.2596   -0.3149    0.1006 C   0  0  0  0  0  0  0  0  0  0  0  0
   -0.2842   -1.5669    0.6751 O   0  0  0  0  0  0  0  0  0  0  0  0
   -1.1989    0.6727    0.7733 C   0  0  0  0  0  0  0  0  0  0  0  0
   -2.2848    0.2846   -0.1901 C   0  0  0  0  0  0  0  0  0  0  0  0
   -1.1988   -0.2614   -1.1097 C   0  0  0  0  0  0  0  0  0  0  0  0
    2.4117   -1.4107   -0.5187 H   0  0  0  0  0  0  0  0  0  0  0  0
    2.4831   -0.6764    1.1794 H   0  0  0  0  0  0  0  0  0  0  0  0
    3.2998    1.2687   -0.0773 H   0  0  0  0  0  0  0  0  0  0  0  0
   -0.5295   -1.5365    1.6545 H   0  0  0  0  0  0  0  0  0  0  0  0
   -0.8684    1.7082    0.5696 H   0  0  0  0  0  0  0  0  0  0  0  0
   -1.3903    0.5091    1.8324 H   0  0  0  0  0  0  0  0  0  0  0  0
   -2.8161    1.1138   -0.6881 H   0  0  0  0  0  0  0  0  0  0  0  0
   -2.9337   -0.4851    0.2666 H   0  0  0  0  0  0  0  0  0  0  0  0
   -1.5119   -1.2399   -1.4913 H   0  0  0  0  0  0  0  0  0  0  0  0
   -0.8703    0.4898   -1.8454 H   0  0  0  0  0  0  0  0  0  0  0  0
  1  2  2  0
  2  3  1  0
  3  4  1  0
  2  5  1  0
  5  6  1  0
  5  7  1  0
  7  8  1  0
  8  9  1  0
  9  5  1  0
  3 10  1  0
  3 11  1  0
  4 12  1  0
  6 13  1  0
  7 14  1  0
  7 15  1  0
  8 16  1  0
  8 17  1  0
  9 18  1  0
  9 19  1  0
M  END
