
     RDKit          3D

 19 20  0  0  0  0  0  0  0  0999 V2000
   -0.7934    0.9931   -0.6055 O   0  0  0  0  0  0  0  0  0  0  0  0
   -0.8211   -0.0881   -0.0359 C   0  0  0  0  0  0  0  0  0  0  0  0
    0.3896   -0.9730    0.0345 C   0  0  0  0  0  0  0  0  0  0  0  0
    1.5090   -0.2763   -0.6861 C   0  0  0  0  0  0  0  0  0  0  0  0
    1.8605    1.0793   -0.0762 C   0  0  0  0  0  0  0  0  0  0  0  0
    2.8287   -0.0594   -0.1000 C   0  0  0  0  0  0  0  0  0  0  0  0
   -2.0874   -0.5076    0.5882 C   0  0  0  0  0  0  0  0  0  0  0  0
   -3.1406    0.4844    0.7925 C   0  0  0  0  0  0  0  0  0  0  0  0
   -3.1811   -0.3820   -0.4058 O   0  0  0  0  0  0  0  0  0  0  0  0
    0.1710   -1.9751   -0.3919 H   0  0  0  0  0  0  0  0  0  0  0  0
    0.6495   -1.1495    1.1145 H   0  0  0  0  0  0  0  0  0  0  0  0
    1.4193   -0.3306   -1.8001 H   0  0  0  0  0  0  0  0  0  0  0  0
    1.4571    1.3388    0.9108 H   0  0  0  0  0  0  0  0  0  0  0  0
    1.9740    1.8949   -0.8346 H   0  0  0  0  0  0  0  0  0  0  0  0
    3.6715    0.0747   -0.8203 H   0  0  0  0  0  0  0  0  0  0  0  0
    3.1705   -0.5211    0.8487 H   0  0  0  0  0  0  0  0  0  0  0  0
   -2.1512   -1.4783    1.1122 H   0  0  0  0  0  0  0  0  0  0  0  0
   -4.0105    0.3440    1.4253 H   0  0  0  0  0  0  0  0  0  0  0  0
   -2.9153    1.5317    0.4432 H   0  0  0  0  0  0  0  0  0  0  0  0
  1  2  2  0
  2  3  1  0
  3  4  1  0
  4  5  1  0
  5  6  1  0
  2  7  1  0
  7  8  1  0
  8  9  1  0
  6  4  1  0
  9  7  1  0
  3 10  1  0
  3 11  1  0
  4 12  1  0
  5 13  1  0
  5 14  1  0
  6 15  1  0
  6 16  1  0
  7 17  1  0
  8 18  1  0
  8 19  1  0
M  END
