
     RDKit          3D

 15 15  0  0  0  0  0  0  0  0999 V2000
    0.0926   -0.2431    1.9462 O   0  0  0  0  0  0  0  0  0  0  0  0
    0.4752   -0.0623    0.8021 C   0  0  0  0  0  0  0  0  0  0  0  0
    1.9434    0.0225    0.5899 C   0  0  0  0  0  0  0  0  0  0  0  0
    2.2786    0.2282   -0.7357 O   0  0  0  0  0  0  0  0  0  0  0  0
   -0.5260    0.0566   -0.2660 C   0  0  0  0  0  0  0  0  0  0  0  0
   -1.8357    0.7088    0.1048 C   0  0  0  0  0  0  0  0  0  0  0  0
   -1.7965   -0.7714   -0.1386 C   0  0  0  0  0  0  0  0  0  0  0  0
    2.3531    0.8917    1.1613 H   0  0  0  0  0  0  0  0  0  0  0  0
    2.4544   -0.8931    0.9735 H   0  0  0  0  0  0  0  0  0  0  0  0
    3.2448    0.1275   -0.8267 H   0  0  0  0  0  0  0  0  0  0  0  0
   -0.2230    0.2194   -1.3078 H   0  0  0  0  0  0  0  0  0  0  0  0
   -2.3954    1.2824   -0.6784 H   0  0  0  0  0  0  0  0  0  0  0  0
   -1.9781    1.0444    1.1645 H   0  0  0  0  0  0  0  0  0  0  0  0
   -2.2473   -1.2044   -1.0526 H   0  0  0  0  0  0  0  0  0  0  0  0
   -1.8401   -1.4072    0.7631 H   0  0  0  0  0  0  0  0  0  0  0  0
  1  2  2  0
  2  3  1  0
  3  4  1  0
  2  5  1  0
  5  6  1  0
  6  7  1  0
  7  5  1  0
  3  8  1  0
  3  9  1  0
  4 10  1  0
  5 11  1  0
  6 12  1  0
  6 13  1  0
  7 14  1  0
  7 15  1  0
M  END
