
     RDKit          3D

 17 18  0  0  0  0  0  0  0  0999 V2000
    1.9672    1.0634    0.4497 O   0  0  0  0  0  0  0  0  0  0  0  0
    1.1071    0.2829    0.0083 C   0  0  0  0  0  0  0  0  0  0  0  0
    1.6224   -0.8457   -0.8093 C   0  0  0  0  0  0  0  0  0  0  0  0
    2.9937   -0.7646   -0.8942 O   0  0  0  0  0  0  0  0  0  0  0  0
   -0.2219    0.4595    0.2636 C   0  0  0  0  0  0  0  0  0  0  0  0
   -1.1427   -0.5071    0.9592 C   0  0  0  0  0  0  0  0  0  0  0  0
   -1.9331    0.7190    0.6080 C   0  0  0  0  0  0  0  0  0  0  0  0
   -1.3172    0.6514   -0.7507 C   0  0  0  0  0  0  0  0  0  0  0  0
   -0.8160    1.4496    0.9952 O   0  0  0  0  0  0  0  0  0  0  0  0
    1.3652   -1.8253   -0.3249 H   0  0  0  0  0  0  0  0  0  0  0  0
    1.2064   -0.8255   -1.8395 H   0  0  0  0  0  0  0  0  0  0  0  0
    3.3376   -0.0917   -0.2543 H   0  0  0  0  0  0  0  0  0  0  0  0
   -0.9808   -0.6318    2.0381 H   0  0  0  0  0  0  0  0  0  0  0  0
   -1.3965   -1.4060    0.3837 H   0  0  0  0  0  0  0  0  0  0  0  0
   -2.8935    0.9119    0.8442 H   0  0  0  0  0  0  0  0  0  0  0  0
   -1.6427   -0.2307   -1.3004 H   0  0  0  0  0  0  0  0  0  0  0  0
   -1.2553    1.5907   -1.3255 H   0  0  0  0  0  0  0  0  0  0  0  0
  1  2  2  0
  2  3  1  0
  3  4  1  0
  2  5  1  0
  5  6  1  0
  6  7  1  0
  7  8  1  0
  7  9  1  0
  8  5  1  0
  9  5  1  0
  3 10  1  0
  3 11  1  0
  4 12  1  0
  6 13  1  0
  6 14  1  0
  7 15  1  0
  8 16  1  0
  8 17  1  0
M  END
