
     RDKit          3D

 17 17  0  0  0  0  0  0  0  0999 V2000
    1.0139    1.5820    1.1253 O   0  0  0  0  0  0  0  0  0  0  0  0
    0.8539    0.4882    0.6340 C   0  0  0  0  0  0  0  0  0  0  0  0
    1.9893   -0.1579   -0.0716 C   0  0  0  0  0  0  0  0  0  0  0  0
    3.1288    0.6458   -0.0558 O   0  0  0  0  0  0  0  0  0  0  0  0
   -0.4252   -0.2269    0.7094 C   0  0  0  0  0  0  0  0  0  0  0  0
   -1.4547    0.4057    1.3726 O   0  0  0  0  0  0  0  0  0  0  0  0
   -2.1900    0.5142    0.1944 C   0  0  0  0  0  0  0  0  0  0  0  0
   -1.1431   -0.2056   -0.6044 C   0  0  0  0  0  0  0  0  0  0  0  0
   -1.4836   -1.4783   -1.0398 O   0  0  0  0  0  0  0  0  0  0  0  0
    2.1689   -1.1362    0.4203 H   0  0  0  0  0  0  0  0  0  0  0  0
    1.7547   -0.3318   -1.1578 H   0  0  0  0  0  0  0  0  0  0  0  0
    3.0813    1.3377   -0.7431 H   0  0  0  0  0  0  0  0  0  0  0  0
   -0.2682   -1.2550    1.1090 H   0  0  0  0  0  0  0  0  0  0  0  0
   -2.3561    1.5621   -0.0696 H   0  0  0  0  0  0  0  0  0  0  0  0
   -3.1458   -0.0331    0.1989 H   0  0  0  0  0  0  0  0  0  0  0  0
   -0.6702    0.4360   -1.3893 H   0  0  0  0  0  0  0  0  0  0  0  0
   -0.8536   -2.1470   -0.6325 H   0  0  0  0  0  0  0  0  0  0  0  0
  1  2  2  0
  2  3  1  0
  3  4  1  0
  2  5  1  0
  5  6  1  0
  6  7  1  0
  7  8  1  0
  8  9  1  0
  8  5  1  0
  3 10  1  0
  3 11  1  0
  4 12  1  0
  5 13  1  0
  7 14  1  0
  7 15  1  0
  8 16  1  0
  9 17  1  0
M  END
