
     RDKit          3D

 19 20  0  0  0  0  0  0  0  0999 V2000
   -0.7385   -0.0761    2.0470 O   0  0  0  0  0  0  0  0  0  0  0  0
   -0.2845   -0.1622    0.9300 C   0  0  0  0  0  0  0  0  0  0  0  0
   -1.1221    0.1300   -0.2329 C   0  0  0  0  0  0  0  0  0  0  0  0
   -2.0292    1.3975   -0.1037 C   0  0  0  0  0  0  0  0  0  0  0  0
   -2.5909    0.0311   -0.2146 C   0  0  0  0  0  0  0  0  0  0  0  0
    1.1276   -0.5668    0.7675 C   0  0  0  0  0  0  0  0  0  0  0  0
    1.5141   -1.2540   -0.4819 C   0  0  0  0  0  0  0  0  0  0  0  0
    1.9208    0.1698   -0.3536 C   0  0  0  0  0  0  0  0  0  0  0  0
    3.2379    0.4694   -0.0940 O   0  0  0  0  0  0  0  0  0  0  0  0
   -0.6319    0.0289   -1.2408 H   0  0  0  0  0  0  0  0  0  0  0  0
   -1.9929    1.8961    0.8799 H   0  0  0  0  0  0  0  0  0  0  0  0
   -1.9949    2.0915   -0.9637 H   0  0  0  0  0  0  0  0  0  0  0  0
   -3.1518   -0.3216    0.6760 H   0  0  0  0  0  0  0  0  0  0  0  0
   -3.1115   -0.2381   -1.1656 H   0  0  0  0  0  0  0  0  0  0  0  0
    1.7441   -0.7834    1.6630 H   0  0  0  0  0  0  0  0  0  0  0  0
    0.7790   -1.4660   -1.2912 H   0  0  0  0  0  0  0  0  0  0  0  0
    2.3194   -2.0103   -0.4276 H   0  0  0  0  0  0  0  0  0  0  0  0
    1.3427    0.9801   -0.8593 H   0  0  0  0  0  0  0  0  0  0  0  0
    3.6627   -0.3158    0.3585 H   0  0  0  0  0  0  0  0  0  0  0  0
  1  2  2  0
  2  3  1  0
  3  4  1  0
  4  5  1  0
  2  6  1  0
  6  7  1  0
  7  8  1  0
  8  9  1  0
  5  3  1  0
  8  6  1  0
  3 10  1  0
  4 11  1  0
  4 12  1  0
  5 13  1  0
  5 14  1  0
  6 15  1  0
  7 16  1  0
  7 17  1  0
  8 18  1  0
  9 19  1  0
M  END
