
     RDKit          3D

 19 19  0  0  0  0  0  0  0  0999 V2000
    2.2204   -1.7343    0.0007 O   0  0  0  0  0  0  0  0  0  0  0  0
    1.4831   -0.7721    0.1031 C   0  0  0  0  0  0  0  0  0  0  0  0
    2.0266    0.4723    0.6810 C   0  0  0  0  0  0  0  0  0  0  0  0
    3.3639    0.3165    1.0265 O   0  0  0  0  0  0  0  0  0  0  0  0
    0.0843   -0.9381   -0.3685 C   0  0  0  0  0  0  0  0  0  0  0  0
   -0.6637    0.3486   -0.1611 C   0  0  0  0  0  0  0  0  0  0  0  0
   -2.0934    0.4202   -0.5626 C   0  0  0  0  0  0  0  0  0  0  0  0
   -1.6556    0.4192    0.9091 C   0  0  0  0  0  0  0  0  0  0  0  0
   -1.9597   -0.7662    1.5776 O   0  0  0  0  0  0  0  0  0  0  0  0
    1.4966    0.7421    1.6392 H   0  0  0  0  0  0  0  0  0  0  0  0
    1.9214    1.3541    0.0247 H   0  0  0  0  0  0  0  0  0  0  0  0
    3.9289    0.4366    0.2040 H   0  0  0  0  0  0  0  0  0  0  0  0
   -0.3782   -1.7873    0.1799 H   0  0  0  0  0  0  0  0  0  0  0  0
    0.0584   -1.1413   -1.4781 H   0  0  0  0  0  0  0  0  0  0  0  0
   -0.0636    1.2511   -0.4723 H   0  0  0  0  0  0  0  0  0  0  0  0
   -2.5158    1.3917   -0.9192 H   0  0  0  0  0  0  0  0  0  0  0  0
   -2.5980   -0.4786   -0.9529 H   0  0  0  0  0  0  0  0  0  0  0  0
   -1.7221    1.3693    1.4702 H   0  0  0  0  0  0  0  0  0  0  0  0
   -2.9337   -0.9038    1.4627 H   0  0  0  0  0  0  0  0  0  0  0  0
  1  2  2  0
  2  3  1  0
  3  4  1  0
  2  5  1  0
  5  6  1  0
  6  7  1  0
  7  8  1  0
  8  9  1  0
  8  6  1  0
  3 10  1  0
  3 11  1  0
  4 12  1  0
  5 13  1  0
  5 14  1  0
  6 15  1  0
  7 16  1  0
  7 17  1  0
  8 18  1  0
  9 19  1  0
M  END
