
     RDKit          3D

 15 15  0  0  0  0  0  0  0  0999 V2000
    1.6722    1.3659    1.0644 O   0  0  0  0  0  0  0  0  0  0  0  0
    1.0881    0.5012    0.3604 C   0  0  0  0  0  0  0  0  0  0  0  0
   -0.3444    0.3906    0.3231 C   0  0  0  0  0  0  0  0  0  0  0  0
   -1.5604    0.3002    0.2704 C   0  0  0  0  0  0  0  0  0  0  0  0
   -3.0238    0.1972    0.2147 C   0  0  0  0  0  0  0  0  0  0  0  0
   -3.4815    1.1351   -0.6945 O   0  0  0  0  0  0  0  0  0  0  0  0
    1.9497   -0.4102   -0.4390 C   0  0  0  0  0  0  0  0  0  0  0  0
    3.2657   -0.7639    0.2167 C   0  0  0  0  0  0  0  0  0  0  0  0
    3.1671    0.0188   -0.9090 O   0  0  0  0  0  0  0  0  0  0  0  0
   -3.4568    0.3230    1.2283 H   0  0  0  0  0  0  0  0  0  0  0  0
   -3.3343   -0.8176   -0.1724 H   0  0  0  0  0  0  0  0  0  0  0  0
   -4.4636    0.9812   -0.8163 H   0  0  0  0  0  0  0  0  0  0  0  0
    1.4579   -1.1815   -1.0683 H   0  0  0  0  0  0  0  0  0  0  0  0
    3.5160   -1.8318    0.1662 H   0  0  0  0  0  0  0  0  0  0  0  0
    3.5480   -0.2080    1.1317 H   0  0  0  0  0  0  0  0  0  0  0  0
  1  2  2  0
  2  3  1  0
  3  4  3  0
  4  5  1  0
  5  6  1  0
  2  7  1  0
  7  8  1  0
  8  9  1  0
  9  7  1  0
  5 10  1  0
  5 11  1  0
  6 12  1  0
  7 13  1  0
  8 14  1  0
  8 15  1  0
M  END
