
     RDKit          3D

 17 16  0  0  0  0  0  0  0  0999 V2000
   -0.8645    0.2850    1.3546 O   0  0  0  0  0  0  0  0  0  0  0  0
   -0.4677    0.1059    0.1818 C   0  0  0  0  0  0  0  0  0  0  0  0
    0.9002   -0.2224   -0.0601 C   0  0  0  0  0  0  0  0  0  0  0  0
    2.0589   -0.5218   -0.2614 C   0  0  0  0  0  0  0  0  0  0  0  0
    3.4644   -0.8986   -0.4854 C   0  0  0  0  0  0  0  0  0  0  0  0
    3.8639   -1.6082    0.6465 O   0  0  0  0  0  0  0  0  0  0  0  0
   -1.4128    0.2348   -0.9378 C   0  0  0  0  0  0  0  0  0  0  0  0
   -2.8051    0.5838   -0.4985 C   0  0  0  0  0  0  0  0  0  0  0  0
   -2.8427    1.7933    0.1848 O   0  0  0  0  0  0  0  0  0  0  0  0
    4.0987    0.0042   -0.5631 H   0  0  0  0  0  0  0  0  0  0  0  0
    3.5730   -1.4943   -1.4129 H   0  0  0  0  0  0  0  0  0  0  0  0
    3.3662   -1.3354    1.4554 H   0  0  0  0  0  0  0  0  0  0  0  0
   -1.0531    1.0689   -1.5786 H   0  0  0  0  0  0  0  0  0  0  0  0
   -1.4095   -0.6870   -1.5179 H   0  0  0  0  0  0  0  0  0  0  0  0
   -3.4353    0.7073   -1.4001 H   0  0  0  0  0  0  0  0  0  0  0  0
   -3.2758   -0.1924    0.1220 H   0  0  0  0  0  0  0  0  0  0  0  0
   -3.7590    2.1771    0.1258 H   0  0  0  0  0  0  0  0  0  0  0  0
  1  2  2  0
  2  3  1  0
  3  4  3  0
  4  5  1  0
  5  6  1  0
  2  7  1  0
  7  8  1  0
  8  9  1  0
  5 10  1  0
  5 11  1  0
  6 12  1  0
  7 13  1  0
  7 14  1  0
  8 15  1  0
  8 16  1  0
  9 17  1  0
M  END
