
     RDKit          3D

 21 20  0  0  0  0  0  0  0  0999 V2000
   -1.4921   -0.9447    0.8433 O   0  0  0  0  0  0  0  0  0  0  0  0
   -1.4881   -0.0266    0.0771 C   0  0  0  0  0  0  0  0  0  0  0  0
   -2.4858    1.0990    0.1358 C   0  0  0  0  0  0  0  0  0  0  0  0
   -3.3784    0.9309    1.1612 O   0  0  0  0  0  0  0  0  0  0  0  0
   -0.4804    0.0607   -0.9981 C   0  0  0  0  0  0  0  0  0  0  0  0
    0.5201   -1.0411   -1.0282 C   0  0  0  0  0  0  0  0  0  0  0  0
    1.3061   -1.0752    0.2330 C   0  0  0  0  0  0  0  0  0  0  0  0
    2.0627    0.2041    0.4972 C   0  0  0  0  0  0  0  0  0  0  0  0
    2.9399    0.4288   -0.5410 O   0  0  0  0  0  0  0  0  0  0  0  0
   -1.8613    2.0165    0.3288 H   0  0  0  0  0  0  0  0  0  0  0  0
   -2.9159    1.1905   -0.8611 H   0  0  0  0  0  0  0  0  0  0  0  0
   -3.3152    0.0118    1.5405 H   0  0  0  0  0  0  0  0  0  0  0  0
   -1.0442    0.0500   -1.9665 H   0  0  0  0  0  0  0  0  0  0  0  0
    0.0083    1.0704   -0.8766 H   0  0  0  0  0  0  0  0  0  0  0  0
    0.0114   -2.0351   -1.1210 H   0  0  0  0  0  0  0  0  0  0  0  0
    1.2268   -0.9756   -1.8701 H   0  0  0  0  0  0  0  0  0  0  0  0
    2.1183   -1.8521    0.0712 H   0  0  0  0  0  0  0  0  0  0  0  0
    0.7335   -1.4593    1.0766 H   0  0  0  0  0  0  0  0  0  0  0  0
    2.5809    0.0690    1.4751 H   0  0  0  0  0  0  0  0  0  0  0  0
    1.4157    1.0799    0.6023 H   0  0  0  0  0  0  0  0  0  0  0  0
    3.5376    1.1982   -0.2816 H   0  0  0  0  0  0  0  0  0  0  0  0
  1  2  2  0
  2  3  1  0
  3  4  1  0
  2  5  1  0
  5  6  1  0
  6  7  1  0
  7  8  1  0
  8  9  1  0
  3 10  1  0
  3 11  1  0
  4 12  1  0
  5 13  1  0
  5 14  1  0
  6 15  1  0
  6 16  1  0
  7 17  1  0
  7 18  1  0
  8 19  1  0
  8 20  1  0
  9 21  1  0
M  END
