
     RDKit          3D

 13 13  0  0  0  0  0  0  0  0999 V2000
    1.2621    1.3233    0.8033 O   0  0  0  0  0  0  0  0  0  0  0  0
    0.5465    0.5454    0.1971 C   0  0  0  0  0  0  0  0  0  0  0  0
    1.0768   -0.7842   -0.1918 C   0  0  0  0  0  0  0  0  0  0  0  0
    2.3836   -0.9149    0.2330 O   0  0  0  0  0  0  0  0  0  0  0  0
   -0.8321    0.9945   -0.1142 C   0  0  0  0  0  0  0  0  0  0  0  0
   -1.8593   -0.0924    0.0133 C   0  0  0  0  0  0  0  0  0  0  0  0
   -1.4490    0.5379   -1.2715 O   0  0  0  0  0  0  0  0  0  0  0  0
    0.9885   -0.8993   -1.2912 H   0  0  0  0  0  0  0  0  0  0  0  0
    0.4763   -1.5469    0.3629 H   0  0  0  0  0  0  0  0  0  0  0  0
    2.9789   -0.1864   -0.0342 H   0  0  0  0  0  0  0  0  0  0  0  0
   -1.1416    1.9896    0.2091 H   0  0  0  0  0  0  0  0  0  0  0  0
   -2.8692    0.1887    0.3109 H   0  0  0  0  0  0  0  0  0  0  0  0
   -1.5614   -1.1553   -0.0544 H   0  0  0  0  0  0  0  0  0  0  0  0
  1  2  2  0
  2  3  1  0
  3  4  1  0
  2  5  1  0
  5  6  1  0
  6  7  1  0
  7  5  1  0
  3  8  1  0
  3  9  1  0
  4 10  1  0
  5 11  1  0
  6 12  1  0
  6 13  1  0
M  END
