
     RDKit          3D

 19 19  0  0  0  0  0  0  0  0999 V2000
    0.9933    1.1196    1.1048 O   0  0  0  0  0  0  0  0  0  0  0  0
    1.1235    0.3299    0.1895 C   0  0  0  0  0  0  0  0  0  0  0  0
    2.3555   -0.4562    0.0930 C   0  0  0  0  0  0  0  0  0  0  0  0
    3.2708   -0.2154    1.0785 O   0  0  0  0  0  0  0  0  0  0  0  0
    0.0345    0.1873   -0.7984 C   0  0  0  0  0  0  0  0  0  0  0  0
    0.4233   -0.7824   -1.7529 O   0  0  0  0  0  0  0  0  0  0  0  0
   -1.2394   -0.3413   -0.1871 C   0  0  0  0  0  0  0  0  0  0  0  0
   -1.9129    0.4151    0.9050 C   0  0  0  0  0  0  0  0  0  0  0  0
   -2.4807    0.4447   -0.4836 C   0  0  0  0  0  0  0  0  0  0  0  0
    2.8423   -0.2140   -0.8948 H   0  0  0  0  0  0  0  0  0  0  0  0
    2.1468   -1.5622    0.0723 H   0  0  0  0  0  0  0  0  0  0  0  0
    4.1198    0.1855    0.7609 H   0  0  0  0  0  0  0  0  0  0  0  0
   -0.1908    1.1396   -1.2925 H   0  0  0  0  0  0  0  0  0  0  0  0
   -0.3537   -1.2994   -2.0729 H   0  0  0  0  0  0  0  0  0  0  0  0
   -1.4073   -1.4442   -0.1785 H   0  0  0  0  0  0  0  0  0  0  0  0
   -2.4330   -0.1658    1.6902 H   0  0  0  0  0  0  0  0  0  0  0  0
   -1.4384    1.3371    1.3053 H   0  0  0  0  0  0  0  0  0  0  0  0
   -3.4490   -0.0990   -0.6574 H   0  0  0  0  0  0  0  0  0  0  0  0
   -2.4045    1.4210   -1.0310 H   0  0  0  0  0  0  0  0  0  0  0  0
  1  2  2  0
  2  3  1  0
  3  4  1  0
  2  5  1  0
  5  6  1  0
  5  7  1  0
  7  8  1  0
  8  9  1  0
  9  7  1  0
  3 10  1  0
  3 11  1  0
  4 12  1  0
  5 13  1  0
  6 14  1  0
  7 15  1  0
  8 16  1  0
  8 17  1  0
  9 18  1  0
  9 19  1  0
M  END
