
     RDKit          3D

 17 18  0  0  0  0  0  0  0  0999 V2000
    0.1351    1.0673    0.9171 O   0  0  0  0  0  0  0  0  0  0  0  0
    0.4573   -0.0036    0.4356 C   0  0  0  0  0  0  0  0  0  0  0  0
   -0.5197   -1.0702    0.0980 C   0  0  0  0  0  0  0  0  0  0  0  0
   -1.9015   -0.6136    0.4399 C   0  0  0  0  0  0  0  0  0  0  0  0
   -2.3847    0.6185   -0.2583 C   0  0  0  0  0  0  0  0  0  0  0  0
   -2.8125   -0.6781   -0.6199 O   0  0  0  0  0  0  0  0  0  0  0  0
    1.8896   -0.2814    0.1632 C   0  0  0  0  0  0  0  0  0  0  0  0
    2.6060    0.9270   -0.4518 C   0  0  0  0  0  0  0  0  0  0  0  0
    2.8569    0.4320    0.8583 O   0  0  0  0  0  0  0  0  0  0  0  0
   -0.4234   -1.3355   -0.9810 H   0  0  0  0  0  0  0  0  0  0  0  0
   -0.2124   -1.9730    0.6668 H   0  0  0  0  0  0  0  0  0  0  0  0
   -2.2790   -0.7574    1.4712 H   0  0  0  0  0  0  0  0  0  0  0  0
   -1.7599    1.1116   -1.0308 H   0  0  0  0  0  0  0  0  0  0  0  0
   -3.2229    1.2051    0.2007 H   0  0  0  0  0  0  0  0  0  0  0  0
    2.1371   -1.2598   -0.2716 H   0  0  0  0  0  0  0  0  0  0  0  0
    2.1119    1.9177   -0.4023 H   0  0  0  0  0  0  0  0  0  0  0  0
    3.3221    0.6933   -1.2352 H   0  0  0  0  0  0  0  0  0  0  0  0
  1  2  2  0
  2  3  1  0
  3  4  1  0
  4  5  1  0
  5  6  1  0
  2  7  1  0
  7  8  1  0
  8  9  1  0
  6  4  1  0
  9  7  1  0
  3 10  1  0
  3 11  1  0
  4 12  1  0
  5 13  1  0
  5 14  1  0
  7 15  1  0
  8 16  1  0
  8 17  1  0
M  END
