
     RDKit          3D

 17 17  0  0  0  0  0  0  0  0999 V2000
   -0.7767    0.4441    1.4945 O   0  0  0  0  0  0  0  0  0  0  0  0
   -0.7110   -0.2232    0.4491 C   0  0  0  0  0  0  0  0  0  0  0  0
   -1.8504   -1.0773    0.0243 C   0  0  0  0  0  0  0  0  0  0  0  0
   -2.8999   -0.9934    0.9326 O   0  0  0  0  0  0  0  0  0  0  0  0
    0.4998   -0.1840   -0.3960 C   0  0  0  0  0  0  0  0  0  0  0  0
    1.8250    0.1373    0.1985 C   0  0  0  0  0  0  0  0  0  0  0  0
    2.9216   -0.4027   -0.4414 O   0  0  0  0  0  0  0  0  0  0  0  0
    1.0804    1.2226   -0.5480 C   0  0  0  0  0  0  0  0  0  0  0  0
    0.5838    2.2294    0.2705 O   0  0  0  0  0  0  0  0  0  0  0  0
   -2.1798   -0.7262   -0.9876 H   0  0  0  0  0  0  0  0  0  0  0  0
   -1.4908   -2.1039   -0.1095 H   0  0  0  0  0  0  0  0  0  0  0  0
   -3.4925   -0.2192    0.7543 H   0  0  0  0  0  0  0  0  0  0  0  0
    0.4777   -0.7979   -1.2958 H   0  0  0  0  0  0  0  0  0  0  0  0
    1.9496    0.2345    1.2956 H   0  0  0  0  0  0  0  0  0  0  0  0
    3.0196   -1.3734   -0.2638 H   0  0  0  0  0  0  0  0  0  0  0  0
    1.4327    1.4757   -1.5672 H   0  0  0  0  0  0  0  0  0  0  0  0
   -0.3890    2.3575    0.1899 H   0  0  0  0  0  0  0  0  0  0  0  0
  1  2  2  0
  2  3  1  0
  3  4  1  0
  2  5  1  0
  5  6  1  0
  6  7  1  0
  6  8  1  0
  8  9  1  0
  8  5  1  0
  3 10  1  0
  3 11  1  0
  4 12  1  0
  5 13  1  0
  6 14  1  0
  7 15  1  0
  8 16  1  0
  9 17  1  0
M  END
