
     RDKit          3D

 18 18  0  0  0  0  0  0  0  0999 V2000
    0.6183   -1.1762    1.4216 O   0  0  0  0  0  0  0  0  0  0  0  0
    0.2305   -0.6716    0.3780 C   0  0  0  0  0  0  0  0  0  0  0  0
   -1.1011   -1.0616   -0.1996 C   0  0  0  0  0  0  0  0  0  0  0  0
   -2.1394   -0.2769    0.5746 C   0  0  0  0  0  0  0  0  0  0  0  0
   -3.4333   -0.5404    0.1455 O   0  0  0  0  0  0  0  0  0  0  0  0
    1.1118    0.3204   -0.2781 C   0  0  0  0  0  0  0  0  0  0  0  0
    1.8067    1.2814    0.6051 C   0  0  0  0  0  0  0  0  0  0  0  0
    2.5641    0.2097   -0.2075 C   0  0  0  0  0  0  0  0  0  0  0  0
   -1.1525   -0.8845   -1.2753 H   0  0  0  0  0  0  0  0  0  0  0  0
   -1.2491   -2.1472   -0.0024 H   0  0  0  0  0  0  0  0  0  0  0  0
   -2.0101   -0.3926    1.6661 H   0  0  0  0  0  0  0  0  0  0  0  0
   -1.9480    0.8142    0.3669 H   0  0  0  0  0  0  0  0  0  0  0  0
   -3.9800    0.2556    0.4070 H   0  0  0  0  0  0  0  0  0  0  0  0
    0.6973    0.7466   -1.2323 H   0  0  0  0  0  0  0  0  0  0  0  0
    1.9250    2.3235    0.3128 H   0  0  0  0  0  0  0  0  0  0  0  0
    1.7459    1.1199    1.7031 H   0  0  0  0  0  0  0  0  0  0  0  0
    3.1020   -0.5193    0.4186 H   0  0  0  0  0  0  0  0  0  0  0  0
    3.2118    0.5992   -1.0382 H   0  0  0  0  0  0  0  0  0  0  0  0
  1  2  2  0
  2  3  1  0
  3  4  1  0
  4  5  1  0
  2  6  1  0
  6  7  1  0
  7  8  1  0
  8  6  1  0
  3  9  1  0
  3 10  1  0
  4 11  1  0
  4 12  1  0
  5 13  1  0
  6 14  1  0
  7 15  1  0
  7 16  1  0
  8 17  1  0
  8 18  1  0
M  END
