
     RDKit          3D

 14 15  0  0  0  0  0  0  0  0999 V2000
   -0.8114    1.0995   -1.3174 O   0  0  0  0  0  0  0  0  0  0  0  0
   -0.1716    0.3968   -0.5580 C   0  0  0  0  0  0  0  0  0  0  0  0
   -0.9185   -0.5208    0.3365 C   0  0  0  0  0  0  0  0  0  0  0  0
   -2.2809   -0.1297    0.7589 C   0  0  0  0  0  0  0  0  0  0  0  0
   -2.0878   -1.1063   -0.2187 O   0  0  0  0  0  0  0  0  0  0  0  0
    1.2963    0.5077   -0.5815 C   0  0  0  0  0  0  0  0  0  0  0  0
    2.1790   -0.2371    0.2205 C   0  0  0  0  0  0  0  0  0  0  0  0
    1.7379    0.9847    0.7801 O   0  0  0  0  0  0  0  0  0  0  0  0
   -0.3377   -1.1586    1.0257 H   0  0  0  0  0  0  0  0  0  0  0  0
   -2.6867   -0.5046    1.7329 H   0  0  0  0  0  0  0  0  0  0  0  0
   -2.7514    0.8196    0.4502 H   0  0  0  0  0  0  0  0  0  0  0  0
    1.7181    1.2398   -1.3059 H   0  0  0  0  0  0  0  0  0  0  0  0
    3.2637   -0.2327   -0.0099 H   0  0  0  0  0  0  0  0  0  0  0  0
    1.8509   -1.1585    0.7676 H   0  0  0  0  0  0  0  0  0  0  0  0
  1  2  2  0
  2  3  1  0
  3  4  1  0
  4  5  1  0
  2  6  1  0
  6  7  1  0
  7  8  1  0
  5  3  1  0
  8  6  1  0
  3  9  1  0
  4 10  1  0
  4 11  1  0
  6 12  1  0
  7 13  1  0
  7 14  1  0
M  END
