
     RDKit          3D

 17 17  0  0  0  0  0  0  0  0999 V2000
   -1.4130    0.1601    1.3925 O   0  0  0  0  0  0  0  0  0  0  0  0
   -0.6836    0.0369    0.3743 C   0  0  0  0  0  0  0  0  0  0  0  0
    0.6932   -0.3293    0.5531 C   0  0  0  0  0  0  0  0  0  0  0  0
    1.8685   -0.6224    0.6952 C   0  0  0  0  0  0  0  0  0  0  0  0
    3.2829   -0.9722    0.8407 C   0  0  0  0  0  0  0  0  0  0  0  0
    3.9911   -0.1445   -0.0233 O   0  0  0  0  0  0  0  0  0  0  0  0
   -1.2942    0.2789   -0.9561 C   0  0  0  0  0  0  0  0  0  0  0  0
   -2.7181   -0.2124   -1.1809 C   0  0  0  0  0  0  0  0  0  0  0  0
   -2.4365    1.2553   -1.0804 C   0  0  0  0  0  0  0  0  0  0  0  0
    3.6464   -0.7107    1.8760 H   0  0  0  0  0  0  0  0  0  0  0  0
    3.4808   -2.0256    0.5824 H   0  0  0  0  0  0  0  0  0  0  0  0
    3.5970    0.7597   -0.0528 H   0  0  0  0  0  0  0  0  0  0  0  0
   -0.6292    0.1643   -1.8487 H   0  0  0  0  0  0  0  0  0  0  0  0
   -3.1813   -0.6553   -0.2799 H   0  0  0  0  0  0  0  0  0  0  0  0
   -2.9769   -0.6431   -2.1792 H   0  0  0  0  0  0  0  0  0  0  0  0
   -2.7169    1.8229   -0.1777 H   0  0  0  0  0  0  0  0  0  0  0  0
   -2.5102    1.8373   -2.0390 H   0  0  0  0  0  0  0  0  0  0  0  0
  1  2  2  0
  2  3  1  0
  3  4  3  0
  4  5  1  0
  5  6  1  0
  2  7  1  0
  7  8  1  0
  8  9  1  0
  9  7  1  0
  5 10  1  0
  5 11  1  0
  6 12  1  0
  7 13  1  0
  8 14  1  0
  8 15  1  0
  9 16  1  0
  9 17  1  0
M  END
