
     RDKit          3D

 17 17  0  0  0  0  0  0  0  0999 V2000
    1.2388    0.6071    1.4794 O   0  0  0  0  0  0  0  0  0  0  0  0
    1.0740    0.2192    0.3423 C   0  0  0  0  0  0  0  0  0  0  0  0
    2.2180   -0.4130   -0.3545 C   0  0  0  0  0  0  0  0  0  0  0  0
    3.3538   -0.4688    0.4313 O   0  0  0  0  0  0  0  0  0  0  0  0
   -0.2314    0.3834   -0.3025 C   0  0  0  0  0  0  0  0  0  0  0  0
   -0.9130   -0.9111   -0.5814 C   0  0  0  0  0  0  0  0  0  0  0  0
   -2.2148   -0.6412   -0.5559 C   0  0  0  0  0  0  0  0  0  0  0  0
   -2.3379    0.8320   -0.2588 C   0  0  0  0  0  0  0  0  0  0  0  0
   -1.1728    1.0015    0.5233 O   0  0  0  0  0  0  0  0  0  0  0  0
    2.4708    0.1158   -1.2939 H   0  0  0  0  0  0  0  0  0  0  0  0
    1.9291   -1.4616   -0.5838 H   0  0  0  0  0  0  0  0  0  0  0  0
    3.7538    0.4267    0.5649 H   0  0  0  0  0  0  0  0  0  0  0  0
   -0.1753    1.0190   -1.2192 H   0  0  0  0  0  0  0  0  0  0  0  0
   -0.5057   -1.8912   -0.7717 H   0  0  0  0  0  0  0  0  0  0  0  0
   -3.0705   -1.2905   -0.7075 H   0  0  0  0  0  0  0  0  0  0  0  0
   -3.2462    1.0692    0.2869 H   0  0  0  0  0  0  0  0  0  0  0  0
   -2.1708    1.4035   -1.1821 H   0  0  0  0  0  0  0  0  0  0  0  0
  1  2  2  0
  2  3  1  0
  3  4  1  0
  2  5  1  0
  5  6  1  0
  6  7  2  0
  7  8  1  0
  8  9  1  0
  9  5  1  0
  3 10  1  0
  3 11  1  0
  4 12  1  0
  5 13  1  0
  6 14  1  0
  7 15  1  0
  8 16  1  0
  8 17  1  0
M  END
