
     RDKit          3D

 19 19  0  0  0  0  0  0  0  0999 V2000
   -1.2710   -1.4028   -0.9408 O   0  0  0  0  0  0  0  0  0  0  0  0
   -1.1117   -0.6303   -0.0149 C   0  0  0  0  0  0  0  0  0  0  0  0
   -2.2929   -0.0343    0.6369 C   0  0  0  0  0  0  0  0  0  0  0  0
   -3.4763   -0.4761    0.0552 O   0  0  0  0  0  0  0  0  0  0  0  0
    0.2504   -0.3138    0.4265 C   0  0  0  0  0  0  0  0  0  0  0  0
    1.3086   -1.0300   -0.3741 C   0  0  0  0  0  0  0  0  0  0  0  0
    2.4869   -0.1387   -0.2977 C   0  0  0  0  0  0  0  0  0  0  0  0
    2.0833    1.0785    0.0235 C   0  0  0  0  0  0  0  0  0  0  0  0
    0.6006    1.1415    0.1985 C   0  0  0  0  0  0  0  0  0  0  0  0
   -2.3498   -0.2726    1.7261 H   0  0  0  0  0  0  0  0  0  0  0  0
   -2.2383    1.0849    0.5190 H   0  0  0  0  0  0  0  0  0  0  0  0
   -3.7072   -0.0301   -0.7781 H   0  0  0  0  0  0  0  0  0  0  0  0
    0.3845   -0.6083    1.4869 H   0  0  0  0  0  0  0  0  0  0  0  0
    1.0268   -1.1253   -1.4419 H   0  0  0  0  0  0  0  0  0  0  0  0
    1.5066   -2.0392    0.0419 H   0  0  0  0  0  0  0  0  0  0  0  0
    3.5497   -0.4190   -0.4762 H   0  0  0  0  0  0  0  0  0  0  0  0
    2.7838    1.9258    0.1407 H   0  0  0  0  0  0  0  0  0  0  0  0
    0.3831    1.7258    1.1168 H   0  0  0  0  0  0  0  0  0  0  0  0
    0.0829    1.5641   -0.6776 H   0  0  0  0  0  0  0  0  0  0  0  0
  1  2  2  0
  2  3  1  0
  3  4  1  0
  2  5  1  0
  5  6  1  0
  6  7  1  0
  7  8  2  0
  8  9  1  0
  9  5  1  0
  3 10  1  0
  3 11  1  0
  4 12  1  0
  5 13  1  0
  6 14  1  0
  6 15  1  0
  7 16  1  0
  8 17  1  0
  9 18  1  0
  9 19  1  0
M  END
