
     RDKit          3D

 19 20  0  0  0  0  0  0  0  0999 V2000
    0.4544   -2.0555    0.8821 O   0  0  0  0  0  0  0  0  0  0  0  0
    0.6749   -0.9873    0.3484 C   0  0  0  0  0  0  0  0  0  0  0  0
   -0.3109    0.0797    0.4782 C   0  0  0  0  0  0  0  0  0  0  0  0
   -0.9045    0.5971   -0.8299 C   0  0  0  0  0  0  0  0  0  0  0  0
   -2.2349    0.6663   -0.0763 C   0  0  0  0  0  0  0  0  0  0  0  0
   -1.7057   -0.4583    0.7831 C   0  0  0  0  0  0  0  0  0  0  0  0
    1.9437   -0.8378   -0.4066 C   0  0  0  0  0  0  0  0  0  0  0  0
    2.5885    0.4705   -0.4867 C   0  0  0  0  0  0  0  0  0  0  0  0
    1.8403   -0.0444   -1.5559 O   0  0  0  0  0  0  0  0  0  0  0  0
   -0.0350    0.9469    1.1110 H   0  0  0  0  0  0  0  0  0  0  0  0
   -0.5505    1.5753   -1.1465 H   0  0  0  0  0  0  0  0  0  0  0  0
   -0.9781   -0.1906   -1.6220 H   0  0  0  0  0  0  0  0  0  0  0  0
   -3.0827    0.4143   -0.7316 H   0  0  0  0  0  0  0  0  0  0  0  0
   -2.3573    1.5784    0.5375 H   0  0  0  0  0  0  0  0  0  0  0  0
   -1.9458   -0.3843    1.8634 H   0  0  0  0  0  0  0  0  0  0  0  0
   -1.8440   -1.4629    0.3275 H   0  0  0  0  0  0  0  0  0  0  0  0
    2.6206   -1.7178   -0.4389 H   0  0  0  0  0  0  0  0  0  0  0  0
    2.1575    1.2929    0.1207 H   0  0  0  0  0  0  0  0  0  0  0  0
    3.6694    0.5175   -0.7182 H   0  0  0  0  0  0  0  0  0  0  0  0
  1  2  2  0
  2  3  1  0
  3  4  1  0
  4  5  1  0
  5  6  1  0
  2  7  1  0
  7  8  1  0
  8  9  1  0
  6  3  1  0
  9  7  1  0
  3 10  1  0
  4 11  1  0
  4 12  1  0
  5 13  1  0
  5 14  1  0
  6 15  1  0
  6 16  1  0
  7 17  1  0
  8 18  1  0
  8 19  1  0
M  END
