
     RDKit          3D

 16 17  0  0  0  0  0  0  0  0999 V2000
    0.1068   -1.0744   -2.1697 O   0  0  0  0  0  0  0  0  0  0  0  0
    0.0888   -0.6553   -0.9920 C   0  0  0  0  0  0  0  0  0  0  0  0
   -1.1571   -0.0674   -0.5180 C   0  0  0  0  0  0  0  0  0  0  0  0
   -1.7409   -0.4402    0.8020 C   0  0  0  0  0  0  0  0  0  0  0  0
   -1.0908    0.9189    0.6180 C   0  0  0  0  0  0  0  0  0  0  0  0
    1.3605   -0.8328   -0.2612 C   0  0  0  0  0  0  0  0  0  0  0  0
    2.0596    0.5195   -0.0148 C   0  0  0  0  0  0  0  0  0  0  0  0
    1.5924   -0.3281    0.9791 O   0  0  0  0  0  0  0  0  0  0  0  0
   -1.9359    0.0595   -1.3354 H   0  0  0  0  0  0  0  0  0  0  0  0
   -2.8420   -0.3840    0.8771 H   0  0  0  0  0  0  0  0  0  0  0  0
   -1.2579   -1.1452    1.4747 H   0  0  0  0  0  0  0  0  0  0  0  0
   -0.2178    1.0967    1.2291 H   0  0  0  0  0  0  0  0  0  0  0  0
   -1.7515    1.8059    0.4789 H   0  0  0  0  0  0  0  0  0  0  0  0
    2.1158   -1.5046   -0.7584 H   0  0  0  0  0  0  0  0  0  0  0  0
    1.5107    1.4460   -0.2243 H   0  0  0  0  0  0  0  0  0  0  0  0
    3.1593    0.5854   -0.1850 H   0  0  0  0  0  0  0  0  0  0  0  0
  1  2  2  0
  2  3  1  0
  3  4  1  0
  4  5  1  0
  2  6  1  0
  6  7  1  0
  7  8  1  0
  5  3  1  0
  8  6  1  0
  3  9  1  0
  4 10  1  0
  4 11  1  0
  5 12  1  0
  5 13  1  0
  6 14  1  0
  7 15  1  0
  7 16  1  0
M  END
