
     RDKit          3D

 19 19  0  0  0  0  0  0  0  0999 V2000
    1.0060    0.7765    1.1759 O   0  0  0  0  0  0  0  0  0  0  0  0
    1.3446    0.1113    0.1758 C   0  0  0  0  0  0  0  0  0  0  0  0
    2.6319   -0.6967    0.2753 C   0  0  0  0  0  0  0  0  0  0  0  0
    3.1901   -0.5117    1.5316 O   0  0  0  0  0  0  0  0  0  0  0  0
    0.5848    0.1319   -0.9172 O   0  0  0  0  0  0  0  0  0  0  0  0
   -0.5872    0.7392   -1.2651 C   0  0  0  0  0  0  0  0  0  0  0  0
   -1.8579    0.3853   -0.6068 C   0  0  0  0  0  0  0  0  0  0  0  0
   -2.1368    0.5583    0.8242 C   0  0  0  0  0  0  0  0  0  0  0  0
   -1.8601   -0.8023    0.3527 C   0  0  0  0  0  0  0  0  0  0  0  0
    2.3542   -1.7434    0.0734 H   0  0  0  0  0  0  0  0  0  0  0  0
    3.3580   -0.3405   -0.4892 H   0  0  0  0  0  0  0  0  0  0  0  0
    4.1739   -0.4308    1.4414 H   0  0  0  0  0  0  0  0  0  0  0  0
   -0.6992    0.5696   -2.3931 H   0  0  0  0  0  0  0  0  0  0  0  0
   -0.4951    1.8927   -1.1954 H   0  0  0  0  0  0  0  0  0  0  0  0
   -2.7372    0.3084   -1.3224 H   0  0  0  0  0  0  0  0  0  0  0  0
   -1.4703    1.0728    1.5138 H   0  0  0  0  0  0  0  0  0  0  0  0
   -3.2349    0.7830    1.0484 H   0  0  0  0  0  0  0  0  0  0  0  0
   -2.6948   -1.5239    0.3044 H   0  0  0  0  0  0  0  0  0  0  0  0
   -0.8703   -1.2796    0.4767 H   0  0  0  0  0  0  0  0  0  0  0  0
  1  2  2  0
  2  3  1  0
  3  4  1  0
  2  5  1  0
  5  6  1  0
  6  7  1  0
  7  8  1  0
  8  9  1  0
  9  7  1  0
  3 10  1  0
  3 11  1  0
  4 12  1  0
  6 13  1  0
  6 14  1  0
  7 15  1  0
  8 16  1  0
  8 17  1  0
  9 18  1  0
  9 19  1  0
M  END
