
     RDKit          3D

 19 19  0  0  0  0  0  0  0  0999 V2000
    1.4619   -1.3027   -0.9535 O   0  0  0  0  0  0  0  0  0  0  0  0
    0.8936   -0.3266   -0.4779 C   0  0  0  0  0  0  0  0  0  0  0  0
    1.6421    0.9544   -0.5091 C   0  0  0  0  0  0  0  0  0  0  0  0
    2.9121    0.7830   -1.0684 O   0  0  0  0  0  0  0  0  0  0  0  0
   -0.4556   -0.3785    0.1026 C   0  0  0  0  0  0  0  0  0  0  0  0
   -0.9851    0.9251    0.6350 C   0  0  0  0  0  0  0  0  0  0  0  0
   -1.0337    1.8281   -0.3964 O   0  0  0  0  0  0  0  0  0  0  0  0
   -1.4025   -1.4691   -0.1893 C   0  0  0  0  0  0  0  0  0  0  0  0
   -0.6526   -1.5752    1.0799 C   0  0  0  0  0  0  0  0  0  0  0  0
    1.7794    1.4137    0.4738 H   0  0  0  0  0  0  0  0  0  0  0  0
    1.1416    1.6925   -1.1694 H   0  0  0  0  0  0  0  0  0  0  0  0
    3.5300    0.4168   -0.4022 H   0  0  0  0  0  0  0  0  0  0  0  0
   -0.2744    1.2310    1.4539 H   0  0  0  0  0  0  0  0  0  0  0  0
   -1.9841    0.7660    1.0898 H   0  0  0  0  0  0  0  0  0  0  0  0
   -1.9791    2.0618   -0.6194 H   0  0  0  0  0  0  0  0  0  0  0  0
   -1.1201   -2.1562   -1.0203 H   0  0  0  0  0  0  0  0  0  0  0  0
   -2.4931   -1.2279   -0.1209 H   0  0  0  0  0  0  0  0  0  0  0  0
    0.1797   -2.2828    1.1912 H   0  0  0  0  0  0  0  0  0  0  0  0
   -1.1601   -1.3534    2.0405 H   0  0  0  0  0  0  0  0  0  0  0  0
  1  2  2  0
  2  3  1  0
  3  4  1  0
  2  5  1  0
  5  6  1  0
  6  7  1  0
  5  8  1  0
  8  9  1  0
  9  5  1  0
  3 10  1  0
  3 11  1  0
  4 12  1  0
  6 13  1  0
  6 14  1  0
  7 15  1  0
  8 16  1  0
  8 17  1  0
  9 18  1  0
  9 19  1  0
M  END
