
     RDKit          3D

 21 20  0  0  0  0  0  0  0  0999 V2000
    0.5003   -0.9426    1.6378 O   0  0  0  0  0  0  0  0  0  0  0  0
    0.5596   -0.1655    0.7096 C   0  0  0  0  0  0  0  0  0  0  0  0
    1.8832    0.3334    0.2506 C   0  0  0  0  0  0  0  0  0  0  0  0
    2.7976   -0.8623   -0.0816 C   0  0  0  0  0  0  0  0  0  0  0  0
    4.0081   -0.3477   -0.4824 O   0  0  0  0  0  0  0  0  0  0  0  0
   -0.6557    0.2914    0.0268 C   0  0  0  0  0  0  0  0  0  0  0  0
   -1.9249   -0.2600    0.6154 C   0  0  0  0  0  0  0  0  0  0  0  0
   -3.0627    0.3127   -0.2437 C   0  0  0  0  0  0  0  0  0  0  0  0
   -2.9400   -0.0734   -1.5591 O   0  0  0  0  0  0  0  0  0  0  0  0
    2.3834    0.9515    1.0353 H   0  0  0  0  0  0  0  0  0  0  0  0
    1.8425    0.9490   -0.6611 H   0  0  0  0  0  0  0  0  0  0  0  0
    2.9204   -1.5229    0.7747 H   0  0  0  0  0  0  0  0  0  0  0  0
    2.3465   -1.4042   -0.9471 H   0  0  0  0  0  0  0  0  0  0  0  0
    4.0964    0.5919   -0.2889 H   0  0  0  0  0  0  0  0  0  0  0  0
   -0.6120   -0.0328   -1.0394 H   0  0  0  0  0  0  0  0  0  0  0  0
   -0.7153    1.3869    0.0923 H   0  0  0  0  0  0  0  0  0  0  0  0
   -1.9592   -1.3668    0.6509 H   0  0  0  0  0  0  0  0  0  0  0  0
   -2.0543    0.0760    1.6645 H   0  0  0  0  0  0  0  0  0  0  0  0
   -3.0213    1.4194   -0.2006 H   0  0  0  0  0  0  0  0  0  0  0  0
   -4.0179   -0.1094    0.1378 H   0  0  0  0  0  0  0  0  0  0  0  0
   -2.3746    0.5350   -2.0917 H   0  0  0  0  0  0  0  0  0  0  0  0
  1  2  2  0
  2  3  1  0
  3  4  1  0
  4  5  1  0
  2  6  1  0
  6  7  1  0
  7  8  1  0
  8  9  1  0
  3 10  1  0
  3 11  1  0
  4 12  1  0
  4 13  1  0
  5 14  1  0
  6 15  1  0
  6 16  1  0
  7 17  1  0
  7 18  1  0
  8 19  1  0
  8 20  1  0
  9 21  1  0
M  END
