
     RDKit          3D

 18 19  0  0  0  0  0  0  0  0999 V2000
    0.7026   -1.8146    0.5619 O   0  0  0  0  0  0  0  0  0  0  0  0
    0.0912   -0.8335    0.1729 C   0  0  0  0  0  0  0  0  0  0  0  0
    0.9016    0.3874   -0.0734 C   0  0  0  0  0  0  0  0  0  0  0  0
    2.1498    0.5379    0.7797 C   0  0  0  0  0  0  0  0  0  0  0  0
    2.2792    0.1594   -0.6711 C   0  0  0  0  0  0  0  0  0  0  0  0
   -1.3535   -0.9340   -0.0155 C   0  0  0  0  0  0  0  0  0  0  0  0
   -2.1157    0.2830    0.5860 C   0  0  0  0  0  0  0  0  0  0  0  0
   -2.1268   -0.0196   -0.8748 C   0  0  0  0  0  0  0  0  0  0  0  0
    0.3957    1.2949   -0.4261 H   0  0  0  0  0  0  0  0  0  0  0  0
    2.3495   -0.2485    1.5571 H   0  0  0  0  0  0  0  0  0  0  0  0
    2.4634    1.5347    1.1103 H   0  0  0  0  0  0  0  0  0  0  0  0
    2.7343    0.9361   -1.2983 H   0  0  0  0  0  0  0  0  0  0  0  0
    2.6030   -0.8688   -0.9099 H   0  0  0  0  0  0  0  0  0  0  0  0
   -1.8082   -1.9115    0.2111 H   0  0  0  0  0  0  0  0  0  0  0  0
   -2.9794    0.0320    1.2237 H   0  0  0  0  0  0  0  0  0  0  0  0
   -1.5419    1.1561    0.8824 H   0  0  0  0  0  0  0  0  0  0  0  0
   -1.6384    0.6900   -1.5683 H   0  0  0  0  0  0  0  0  0  0  0  0
   -3.1063   -0.3810   -1.2477 H   0  0  0  0  0  0  0  0  0  0  0  0
  1  2  2  0
  2  3  1  0
  3  4  1  0
  4  5  1  0
  2  6  1  0
  6  7  1  0
  7  8  1  0
  5  3  1  0
  8  6  1  0
  3  9  1  0
  4 10  1  0
  4 11  1  0
  5 12  1  0
  5 13  1  0
  6 14  1  0
  7 15  1  0
  7 16  1  0
  8 17  1  0
  8 18  1  0
M  END
