
     RDKit          3D

 19 19  0  0  0  0  0  0  0  0999 V2000
    1.4001   -2.0597    0.4048 O   0  0  0  0  0  0  0  0  0  0  0  0
    1.4228   -0.8888    0.0588 C   0  0  0  0  0  0  0  0  0  0  0  0
    2.7369   -0.2563   -0.2105 C   0  0  0  0  0  0  0  0  0  0  0  0
    2.5886    1.0686   -0.5910 O   0  0  0  0  0  0  0  0  0  0  0  0
    0.1970   -0.0789   -0.1021 C   0  0  0  0  0  0  0  0  0  0  0  0
   -1.0542   -0.8656    0.2082 C   0  0  0  0  0  0  0  0  0  0  0  0
   -2.2707   -0.0283    0.0387 C   0  0  0  0  0  0  0  0  0  0  0  0
   -2.4450    1.1782    0.8319 C   0  0  0  0  0  0  0  0  0  0  0  0
   -3.0913   -0.0057    1.2698 O   0  0  0  0  0  0  0  0  0  0  0  0
    3.3040   -0.7841   -1.0051 H   0  0  0  0  0  0  0  0  0  0  0  0
    3.3670   -0.3402    0.7184 H   0  0  0  0  0  0  0  0  0  0  0  0
    3.2127    1.6756   -0.1469 H   0  0  0  0  0  0  0  0  0  0  0  0
    0.1959    0.3138   -1.1469 H   0  0  0  0  0  0  0  0  0  0  0  0
    0.2953    0.7993    0.5667 H   0  0  0  0  0  0  0  0  0  0  0  0
   -1.1512   -1.7539   -0.4402 H   0  0  0  0  0  0  0  0  0  0  0  0
   -0.9546   -1.2040    1.2565 H   0  0  0  0  0  0  0  0  0  0  0  0
   -2.9718   -0.2784   -0.7967 H   0  0  0  0  0  0  0  0  0  0  0  0
   -1.6068    1.5495    1.4243 H   0  0  0  0  0  0  0  0  0  0  0  0
   -3.1749    1.9588    0.5370 H   0  0  0  0  0  0  0  0  0  0  0  0
  1  2  2  0
  2  3  1  0
  3  4  1  0
  2  5  1  0
  5  6  1  0
  6  7  1  0
  7  8  1  0
  8  9  1  0
  9  7  1  0
  3 10  1  0
  3 11  1  0
  4 12  1  0
  5 13  1  0
  5 14  1  0
  6 15  1  0
  6 16  1  0
  7 17  1  0
  8 18  1  0
  8 19  1  0
M  END
