
     RDKit          3D

 17 18  0  0  0  0  0  0  0  0999 V2000
    0.9561   -0.4764    1.4858 O   0  0  0  0  0  0  0  0  0  0  0  0
    0.9182   -0.2837    0.2522 C   0  0  0  0  0  0  0  0  0  0  0  0
   -0.3058   -0.1012   -0.3379 O   0  0  0  0  0  0  0  0  0  0  0  0
   -1.5404   -0.1083    0.3099 C   0  0  0  0  0  0  0  0  0  0  0  0
   -2.8026   -0.4326   -0.3796 C   0  0  0  0  0  0  0  0  0  0  0  0
   -2.4793    1.0115   -0.1644 C   0  0  0  0  0  0  0  0  0  0  0  0
    2.1419   -0.2459   -0.5900 C   0  0  0  0  0  0  0  0  0  0  0  0
    3.3938    0.1153    0.0411 C   0  0  0  0  0  0  0  0  0  0  0  0
    3.0986   -1.2867   -0.3471 O   0  0  0  0  0  0  0  0  0  0  0  0
   -1.4713   -0.2829    1.4109 H   0  0  0  0  0  0  0  0  0  0  0  0
   -3.6356   -0.8090    0.2432 H   0  0  0  0  0  0  0  0  0  0  0  0
   -2.7317   -0.8977   -1.3614 H   0  0  0  0  0  0  0  0  0  0  0  0
   -3.0152    1.6022    0.5859 H   0  0  0  0  0  0  0  0  0  0  0  0
   -2.2091    1.5680   -1.0703 H   0  0  0  0  0  0  0  0  0  0  0  0
    2.0163   -0.0722   -1.6576 H   0  0  0  0  0  0  0  0  0  0  0  0
    3.4384    0.1794    1.1412 H   0  0  0  0  0  0  0  0  0  0  0  0
    4.2276    0.5203   -0.5556 H   0  0  0  0  0  0  0  0  0  0  0  0
  1  2  2  0
  2  3  1  0
  3  4  1  0
  4  5  1  0
  5  6  1  0
  2  7  1  0
  7  8  1  0
  8  9  1  0
  6  4  1  0
  9  7  1  0
  4 10  1  0
  5 11  1  0
  5 12  1  0
  6 13  1  0
  6 14  1  0
  7 15  1  0
  8 16  1  0
  8 17  1  0
M  END
