
     RDKit          3D

 19 18  0  0  0  0  0  0  0  0999 V2000
    1.2995    1.1458    0.0638 O   0  0  0  0  0  0  0  0  0  0  0  0
    1.6552    0.0006   -0.2565 C   0  0  0  0  0  0  0  0  0  0  0  0
    3.0344   -0.5003   -0.0265 C   0  0  0  0  0  0  0  0  0  0  0  0
    3.8253    0.4852    0.5812 O   0  0  0  0  0  0  0  0  0  0  0  0
    0.7449   -0.8298   -0.8423 O   0  0  0  0  0  0  0  0  0  0  0  0
   -0.5813   -0.5486   -1.1377 C   0  0  0  0  0  0  0  0  0  0  0  0
   -1.4001   -0.1990    0.1003 C   0  0  0  0  0  0  0  0  0  0  0  0
   -2.8498    0.0967   -0.3110 C   0  0  0  0  0  0  0  0  0  0  0  0
   -2.7805    1.1826   -1.2004 O   0  0  0  0  0  0  0  0  0  0  0  0
    3.5099   -0.7465   -0.9882 H   0  0  0  0  0  0  0  0  0  0  0  0
    3.0180   -1.3539    0.6908 H   0  0  0  0  0  0  0  0  0  0  0  0
    3.8143    1.3118    0.0162 H   0  0  0  0  0  0  0  0  0  0  0  0
   -0.7354    0.2042   -1.9343 H   0  0  0  0  0  0  0  0  0  0  0  0
   -1.0292   -1.4993   -1.5528 H   0  0  0  0  0  0  0  0  0  0  0  0
   -1.4387   -1.0617    0.7965 H   0  0  0  0  0  0  0  0  0  0  0  0
   -0.9337    0.6942    0.5462 H   0  0  0  0  0  0  0  0  0  0  0  0
   -3.4097    0.4638    0.5681 H   0  0  0  0  0  0  0  0  0  0  0  0
   -3.2803   -0.8015   -0.7789 H   0  0  0  0  0  0  0  0  0  0  0  0
   -2.4628    1.9560   -0.6695 H   0  0  0  0  0  0  0  0  0  0  0  0
  1  2  2  0
  2  3  1  0
  3  4  1  0
  2  5  1  0
  5  6  1  0
  6  7  1  0
  7  8  1  0
  8  9  1  0
  3 10  1  0
  3 11  1  0
  4 12  1  0
  6 13  1  0
  6 14  1  0
  7 15  1  0
  7 16  1  0
  8 17  1  0
  8 18  1  0
  9 19  1  0
M  END
