
     RDKit          3D

 19 19  0  0  0  0  0  0  0  0999 V2000
    0.8793    1.1200   -0.3832 O   0  0  0  0  0  0  0  0  0  0  0  0
    1.1294   -0.0315   -0.0764 C   0  0  0  0  0  0  0  0  0  0  0  0
    2.5205   -0.5194   -0.2895 C   0  0  0  0  0  0  0  0  0  0  0  0
    3.3300    0.4787   -0.8291 O   0  0  0  0  0  0  0  0  0  0  0  0
    0.1577   -0.9885    0.4935 C   0  0  0  0  0  0  0  0  0  0  0  0
   -1.2184   -0.3819    0.6561 C   0  0  0  0  0  0  0  0  0  0  0  0
   -1.7931    0.0803   -0.6647 C   0  0  0  0  0  0  0  0  0  0  0  0
   -2.2228    1.2464    0.1915 C   0  0  0  0  0  0  0  0  0  0  0  0
   -1.2058    0.9518    1.0721 O   0  0  0  0  0  0  0  0  0  0  0  0
    3.0073   -0.8183    0.6776 H   0  0  0  0  0  0  0  0  0  0  0  0
    2.5530   -1.3798   -0.9816 H   0  0  0  0  0  0  0  0  0  0  0  0
    3.2713    1.2935   -0.2500 H   0  0  0  0  0  0  0  0  0  0  0  0
    0.0909   -1.9223   -0.1012 H   0  0  0  0  0  0  0  0  0  0  0  0
    0.5358   -1.2704    1.5088 H   0  0  0  0  0  0  0  0  0  0  0  0
   -1.9305   -0.9928    1.2313 H   0  0  0  0  0  0  0  0  0  0  0  0
   -2.6315   -0.5467   -1.0417 H   0  0  0  0  0  0  0  0  0  0  0  0
   -1.0746    0.4002   -1.4280 H   0  0  0  0  0  0  0  0  0  0  0  0
   -2.1463    2.2054   -0.3577 H   0  0  0  0  0  0  0  0  0  0  0  0
   -3.2524    1.0753    0.5721 H   0  0  0  0  0  0  0  0  0  0  0  0
  1  2  2  0
  2  3  1  0
  3  4  1  0
  2  5  1  0
  5  6  1  0
  6  7  1  0
  7  8  1  0
  8  9  1  0
  9  6  1  0
  3 10  1  0
  3 11  1  0
  4 12  1  0
  5 13  1  0
  5 14  1  0
  6 15  1  0
  7 16  1  0
  7 17  1  0
  8 18  1  0
  8 19  1  0
M  END
