
     RDKit          3D

 19 19  0  0  0  0  0  0  0  0999 V2000
   -0.3864    0.2460    1.2696 O   0  0  0  0  0  0  0  0  0  0  0  0
   -0.4291   -0.1355    0.0792 C   0  0  0  0  0  0  0  0  0  0  0  0
    0.7178   -0.6692   -0.4704 O   0  0  0  0  0  0  0  0  0  0  0  0
    1.9431   -0.8280    0.1828 C   0  0  0  0  0  0  0  0  0  0  0  0
    2.4901    0.5227    0.6545 C   0  0  0  0  0  0  0  0  0  0  0  0
    3.7061    0.2477    1.2876 O   0  0  0  0  0  0  0  0  0  0  0  0
   -1.6630   -0.0188   -0.7099 C   0  0  0  0  0  0  0  0  0  0  0  0
   -2.9465   -0.3635    0.0696 C   0  0  0  0  0  0  0  0  0  0  0  0
   -2.6928    0.9897   -0.4326 C   0  0  0  0  0  0  0  0  0  0  0  0
    1.8851   -1.5332    1.0309 H   0  0  0  0  0  0  0  0  0  0  0  0
    2.7071   -1.2076   -0.5361 H   0  0  0  0  0  0  0  0  0  0  0  0
    1.8289    0.9556    1.4264 H   0  0  0  0  0  0  0  0  0  0  0  0
    2.6576    1.2065   -0.1747 H   0  0  0  0  0  0  0  0  0  0  0  0
    4.1026   -0.5392    0.8683 H   0  0  0  0  0  0  0  0  0  0  0  0
   -1.6051   -0.3872   -1.7675 H   0  0  0  0  0  0  0  0  0  0  0  0
   -2.8458   -0.5129    1.1625 H   0  0  0  0  0  0  0  0  0  0  0  0
   -3.5790   -1.1017   -0.4313 H   0  0  0  0  0  0  0  0  0  0  0  0
   -2.5466    1.8044    0.3122 H   0  0  0  0  0  0  0  0  0  0  0  0
   -3.3441    1.3243   -1.2768 H   0  0  0  0  0  0  0  0  0  0  0  0
  1  2  2  0
  2  3  1  0
  3  4  1  0
  4  5  1  0
  5  6  1  0
  2  7  1  0
  7  8  1  0
  8  9  1  0
  9  7  1  0
  4 10  1  0
  4 11  1  0
  5 12  1  0
  5 13  1  0
  6 14  1  0
  7 15  1  0
  8 16  1  0
  8 17  1  0
  9 18  1  0
  9 19  1  0
M  END
