
     RDKit          3D

 19 20  0  0  0  0  0  0  0  0999 V2000
   -0.2273   -1.4240    0.6884 O   0  0  0  0  0  0  0  0  0  0  0  0
   -0.2002   -0.4374   -0.0152 C   0  0  0  0  0  0  0  0  0  0  0  0
   -1.3934    0.4177   -0.1176 C   0  0  0  0  0  0  0  0  0  0  0  0
   -2.7049   -0.3674   -0.1727 C   0  0  0  0  0  0  0  0  0  0  0  0
   -2.3538    0.4558    1.0265 C   0  0  0  0  0  0  0  0  0  0  0  0
    1.0433   -0.1096   -0.7639 C   0  0  0  0  0  0  0  0  0  0  0  0
    1.8318    0.9412   -0.0482 C   0  0  0  0  0  0  0  0  0  0  0  0
    2.9637   -0.0595   -0.0928 C   0  0  0  0  0  0  0  0  0  0  0  0
    2.0683   -1.0299   -0.5457 O   0  0  0  0  0  0  0  0  0  0  0  0
   -1.3071    1.3197   -0.7865 H   0  0  0  0  0  0  0  0  0  0  0  0
   -2.6737   -1.4561   -0.0213 H   0  0  0  0  0  0  0  0  0  0  0  0
   -3.4221    0.0174   -0.8991 H   0  0  0  0  0  0  0  0  0  0  0  0
   -2.0621   -0.0780    1.9709 H   0  0  0  0  0  0  0  0  0  0  0  0
   -2.9978    1.3256    1.2120 H   0  0  0  0  0  0  0  0  0  0  0  0
    0.8678    0.0867   -1.8533 H   0  0  0  0  0  0  0  0  0  0  0  0
    2.0004    1.8591   -0.6411 H   0  0  0  0  0  0  0  0  0  0  0  0
    1.4970    1.2143    0.9654 H   0  0  0  0  0  0  0  0  0  0  0  0
    3.7598    0.1763   -0.8288 H   0  0  0  0  0  0  0  0  0  0  0  0
    3.3105   -0.2872    0.9229 H   0  0  0  0  0  0  0  0  0  0  0  0
  1  2  2  0
  2  3  1  0
  3  4  1  0
  4  5  1  0
  2  6  1  0
  6  7  1  0
  7  8  1  0
  8  9  1  0
  5  3  1  0
  9  6  1  0
  3 10  1  0
  4 11  1  0
  4 12  1  0
  5 13  1  0
  5 14  1  0
  6 15  1  0
  7 16  1  0
  7 17  1  0
  8 18  1  0
  8 19  1  0
M  END
