
     RDKit          3D

 19 18  0  0  0  0  0  0  0  0999 V2000
    2.2046    0.6897    1.3482 O   0  0  0  0  0  0  0  0  0  0  0  0
    1.4239    0.3254    0.4315 C   0  0  0  0  0  0  0  0  0  0  0  0
    1.9487   -0.7164   -0.4342 C   0  0  0  0  0  0  0  0  0  0  0  0
    3.2351   -1.1119   -0.0670 O   0  0  0  0  0  0  0  0  0  0  0  0
    0.1608    1.0344    0.4384 C   0  0  0  0  0  0  0  0  0  0  0  0
   -0.9861    0.4983   -0.3166 C   0  0  0  0  0  0  0  0  0  0  0  0
   -2.1183    1.3618   -0.2036 O   0  0  0  0  0  0  0  0  0  0  0  0
   -1.5067   -0.8185    0.2892 C   0  0  0  0  0  0  0  0  0  0  0  0
   -2.6007   -1.2849   -0.4397 O   0  0  0  0  0  0  0  0  0  0  0  0
    1.3901   -1.6188   -0.6085 H   0  0  0  0  0  0  0  0  0  0  0  0
    2.0684   -0.2331   -1.4584 H   0  0  0  0  0  0  0  0  0  0  0  0
    3.2724   -1.0909    0.9215 H   0  0  0  0  0  0  0  0  0  0  0  0
   -0.1534    1.2592    1.4973 H   0  0  0  0  0  0  0  0  0  0  0  0
    0.3695    2.0620    0.0033 H   0  0  0  0  0  0  0  0  0  0  0  0
   -0.8739    0.3255   -1.3837 H   0  0  0  0  0  0  0  0  0  0  0  0
   -1.8524    2.3059   -0.3383 H   0  0  0  0  0  0  0  0  0  0  0  0
   -1.8133   -0.5619    1.3412 H   0  0  0  0  0  0  0  0  0  0  0  0
   -0.7272   -1.5883    0.3278 H   0  0  0  0  0  0  0  0  0  0  0  0
   -3.4417   -0.8376   -0.2127 H   0  0  0  0  0  0  0  0  0  0  0  0
  1  2  2  0
  2  3  1  0
  3  4  1  0
  2  5  1  0
  5  6  1  0
  6  7  1  0
  6  8  1  0
  8  9  1  0
  3 10  1  0
  3 11  1  0
  4 12  1  0
  5 13  1  0
  5 14  1  0
  6 15  1  0
  7 16  1  0
  8 17  1  0
  8 18  1  0
  9 19  1  0
M  END
