
     RDKit          3D

 21 22  0  0  0  0  0  0  0  0999 V2000
   -0.3833    2.2201   -0.0639 O   0  0  0  0  0  0  0  0  0  0  0  0
   -0.6756    1.0456   -0.1366 C   0  0  0  0  0  0  0  0  0  0  0  0
    0.2817    0.0038    0.2233 C   0  0  0  0  0  0  0  0  0  0  0  0
    1.6134    0.5044    0.6755 C   0  0  0  0  0  0  0  0  0  0  0  0
    2.5888   -0.6168    1.0438 C   0  0  0  0  0  0  0  0  0  0  0  0
    2.8469    0.3155   -0.0923 C   0  0  0  0  0  0  0  0  0  0  0  0
   -2.0369    0.6778   -0.6024 C   0  0  0  0  0  0  0  0  0  0  0  0
   -2.6830   -0.5086    0.0822 C   0  0  0  0  0  0  0  0  0  0  0  0
   -2.2286   -0.6477   -1.3238 C   0  0  0  0  0  0  0  0  0  0  0  0
   -0.1502   -0.5723    1.0946 H   0  0  0  0  0  0  0  0  0  0  0  0
    0.3715   -0.7241   -0.6323 H   0  0  0  0  0  0  0  0  0  0  0  0
    1.5631    1.3497    1.3888 H   0  0  0  0  0  0  0  0  0  0  0  0
    3.1491   -0.4940    2.0064 H   0  0  0  0  0  0  0  0  0  0  0  0
    2.3231   -1.6489    0.7977 H   0  0  0  0  0  0  0  0  0  0  0  0
    3.6384    1.0970    0.0420 H   0  0  0  0  0  0  0  0  0  0  0  0
    2.8497   -0.1323   -1.1086 H   0  0  0  0  0  0  0  0  0  0  0  0
   -2.7490    1.4857   -0.8710 H   0  0  0  0  0  0  0  0  0  0  0  0
   -2.1452   -0.9632    0.9278 H   0  0  0  0  0  0  0  0  0  0  0  0
   -3.7906   -0.4671    0.2628 H   0  0  0  0  0  0  0  0  0  0  0  0
   -3.0376   -0.6946   -2.1035 H   0  0  0  0  0  0  0  0  0  0  0  0
   -1.3456   -1.2297   -1.6107 H   0  0  0  0  0  0  0  0  0  0  0  0
  1  2  2  0
  2  3  1  0
  3  4  1  0
  4  5  1  0
  5  6  1  0
  2  7  1  0
  7  8  1  0
  8  9  1  0
  6  4  1  0
  9  7  1  0
  3 10  1  0
  3 11  1  0
  4 12  1  0
  5 13  1  0
  5 14  1  0
  6 15  1  0
  6 16  1  0
  7 17  1  0
  8 18  1  0
  8 19  1  0
  9 20  1  0
  9 21  1  0
M  END
