
     RDKit          3D

 19 19  0  0  0  0  0  0  0  0999 V2000
    1.5040   -1.7895   -0.3924 O   0  0  0  0  0  0  0  0  0  0  0  0
    1.5148   -0.5652   -0.1117 C   0  0  0  0  0  0  0  0  0  0  0  0
    2.8337    0.1264   -0.0919 C   0  0  0  0  0  0  0  0  0  0  0  0
    3.8734   -0.7241   -0.3976 O   0  0  0  0  0  0  0  0  0  0  0  0
    0.3328    0.0663    0.1585 O   0  0  0  0  0  0  0  0  0  0  0  0
   -0.9328   -0.5740    0.1448 C   0  0  0  0  0  0  0  0  0  0  0  0
   -1.9718    0.2240   -0.6547 C   0  0  0  0  0  0  0  0  0  0  0  0
   -2.2220    1.0255    0.6090 C   0  0  0  0  0  0  0  0  0  0  0  0
   -1.7069   -0.1888    1.3897 C   0  0  0  0  0  0  0  0  0  0  0  0
    2.8668    1.0039   -0.7622 H   0  0  0  0  0  0  0  0  0  0  0  0
    2.9834    0.5226    0.9443 H   0  0  0  0  0  0  0  0  0  0  0  0
    4.5923   -0.1916   -0.8209 H   0  0  0  0  0  0  0  0  0  0  0  0
   -0.9239   -1.6405   -0.1015 H   0  0  0  0  0  0  0  0  0  0  0  0
   -2.8251   -0.4179   -0.9431 H   0  0  0  0  0  0  0  0  0  0  0  0
   -1.4936    0.7861   -1.4820 H   0  0  0  0  0  0  0  0  0  0  0  0
   -1.4983    1.8582    0.7222 H   0  0  0  0  0  0  0  0  0  0  0  0
   -3.2788    1.2727    0.8041 H   0  0  0  0  0  0  0  0  0  0  0  0
   -1.0882    0.0755    2.2660 H   0  0  0  0  0  0  0  0  0  0  0  0
   -2.5599   -0.8694    1.5993 H   0  0  0  0  0  0  0  0  0  0  0  0
  1  2  2  0
  2  3  1  0
  3  4  1  0
  2  5  1  0
  5  6  1  0
  6  7  1  0
  7  8  1  0
  8  9  1  0
  9  6  1  0
  3 10  1  0
  3 11  1  0
  4 12  1  0
  6 13  1  0
  7 14  1  0
  7 15  1  0
  8 16  1  0
  8 17  1  0
  9 18  1  0
  9 19  1  0
M  END
