
     RDKit          3D

 14 13  0  0  0  0  0  0  0  0999 V2000
    0.1436   -0.2992   -1.0675 O   0  0  0  0  0  0  0  0  0  0  0  0
    0.4446   -0.1408    0.1450 C   0  0  0  0  0  0  0  0  0  0  0  0
    1.8315   -0.4171    0.5387 C   0  0  0  0  0  0  0  0  0  0  0  0
    2.5468   -0.8161   -0.5829 O   0  0  0  0  0  0  0  0  0  0  0  0
   -0.5863    0.3010    1.0725 C   0  0  0  0  0  0  0  0  0  0  0  0
   -0.2959    0.4609    2.2786 O   0  0  0  0  0  0  0  0  0  0  0  0
   -1.9671    0.5634    0.6153 C   0  0  0  0  0  0  0  0  0  0  0  0
   -2.0782    0.3256   -0.7574 O   0  0  0  0  0  0  0  0  0  0  0  0
    1.8342   -1.2530    1.2991 H   0  0  0  0  0  0  0  0  0  0  0  0
    2.2835    0.4836    1.0053 H   0  0  0  0  0  0  0  0  0  0  0  0
    2.9745   -0.0297   -0.9722 H   0  0  0  0  0  0  0  0  0  0  0  0
   -2.2672    1.6192    0.8463 H   0  0  0  0  0  0  0  0  0  0  0  0
   -2.7099   -0.1309    1.1044 H   0  0  0  0  0  0  0  0  0  0  0  0
   -2.1541   -0.6670   -0.8459 H   0  0  0  0  0  0  0  0  0  0  0  0
  1  2  2  0
  2  3  1  0
  3  4  1  0
  2  5  1  0
  5  6  2  0
  5  7  1  0
  7  8  1  0
  3  9  1  0
  3 10  1  0
  4 11  1  0
  7 12  1  0
  7 13  1  0
  8 14  1  0
M  END
