
     RDKit          3D

 17 16  0  0  0  0  0  0  0  0999 V2000
   -0.9670   -0.3147    1.1460 O   0  0  0  0  0  0  0  0  0  0  0  0
   -1.4117   -0.1346    0.0123 C   0  0  0  0  0  0  0  0  0  0  0  0
   -2.8644   -0.2610   -0.2981 C   0  0  0  0  0  0  0  0  0  0  0  0
   -3.5151   -0.5963    0.8860 O   0  0  0  0  0  0  0  0  0  0  0  0
   -0.5182    0.2256   -1.1376 C   0  0  0  0  0  0  0  0  0  0  0  0
    0.8471    0.2976   -0.6236 C   0  0  0  0  0  0  0  0  0  0  0  0
    1.9649    0.3697   -0.1884 C   0  0  0  0  0  0  0  0  0  0  0  0
    3.3368    0.4769    0.3395 C   0  0  0  0  0  0  0  0  0  0  0  0
    3.5189   -0.4528    1.3832 O   0  0  0  0  0  0  0  0  0  0  0  0
   -3.2714    0.6617   -0.7603 H   0  0  0  0  0  0  0  0  0  0  0  0
   -3.0565   -1.0838   -1.0286 H   0  0  0  0  0  0  0  0  0  0  0  0
   -2.9541   -1.3276    1.2986 H   0  0  0  0  0  0  0  0  0  0  0  0
   -0.6449   -0.5696   -1.8933 H   0  0  0  0  0  0  0  0  0  0  0  0
   -0.8772    1.2169   -1.5035 H   0  0  0  0  0  0  0  0  0  0  0  0
    3.4615    1.5065    0.7084 H   0  0  0  0  0  0  0  0  0  0  0  0
    4.0977    0.2393   -0.4219 H   0  0  0  0  0  0  0  0  0  0  0  0
    2.8536   -0.2537    2.0814 H   0  0  0  0  0  0  0  0  0  0  0  0
  1  2  2  0
  2  3  1  0
  3  4  1  0
  2  5  1  0
  5  6  1  0
  6  7  3  0
  7  8  1  0
  8  9  1  0
  3 10  1  0
  3 11  1  0
  4 12  1  0
  5 13  1  0
  5 14  1  0
  8 15  1  0
  8 16  1  0
  9 17  1  0
M  END
