
     RDKit          3D

 19 19  0  0  0  0  0  0  0  0999 V2000
   -0.2292    1.1644   -1.2941 O   0  0  0  0  0  0  0  0  0  0  0  0
   -0.1304    0.6496   -0.1927 C   0  0  0  0  0  0  0  0  0  0  0  0
    1.1250    0.9218    0.5562 C   0  0  0  0  0  0  0  0  0  0  0  0
    1.0240    0.2457    1.7675 O   0  0  0  0  0  0  0  0  0  0  0  0
    2.3092    0.3532   -0.2031 C   0  0  0  0  0  0  0  0  0  0  0  0
    2.1766   -0.9872   -0.4595 O   0  0  0  0  0  0  0  0  0  0  0  0
   -1.2007   -0.1996    0.3686 C   0  0  0  0  0  0  0  0  0  0  0  0
   -1.8980   -1.1048   -0.6881 C   0  0  0  0  0  0  0  0  0  0  0  0
   -2.6153    0.0210   -0.0513 C   0  0  0  0  0  0  0  0  0  0  0  0
    1.2589    2.0153    0.7281 H   0  0  0  0  0  0  0  0  0  0  0  0
    1.9156   -0.0870    2.0297 H   0  0  0  0  0  0  0  0  0  0  0  0
    2.4822    0.9071   -1.1412 H   0  0  0  0  0  0  0  0  0  0  0  0
    3.1911    0.4773    0.4729 H   0  0  0  0  0  0  0  0  0  0  0  0
    1.4586   -1.2078   -1.0972 H   0  0  0  0  0  0  0  0  0  0  0  0
   -1.0677   -0.6421    1.3642 H   0  0  0  0  0  0  0  0  0  0  0  0
   -2.0314   -2.1567   -0.3564 H   0  0  0  0  0  0  0  0  0  0  0  0
   -1.5504   -1.0213   -1.7243 H   0  0  0  0  0  0  0  0  0  0  0  0
   -3.4171   -0.2450    0.6508 H   0  0  0  0  0  0  0  0  0  0  0  0
   -2.8010    0.8958   -0.7301 H   0  0  0  0  0  0  0  0  0  0  0  0
  1  2  2  0
  2  3  1  0
  3  4  1  0
  3  5  1  0
  5  6  1  0
  2  7  1  0
  7  8  1  0
  8  9  1  0
  9  7  1  0
  3 10  1  0
  4 11  1  0
  5 12  1  0
  5 13  1  0
  6 14  1  0
  7 15  1  0
  8 16  1  0
  8 17  1  0
  9 18  1  0
  9 19  1  0
M  END
