
     RDKit          3D

 18 17  0  0  0  0  0  0  0  0999 V2000
    1.3077   -0.3705   -1.4980 O   0  0  0  0  0  0  0  0  0  0  0  0
    1.2468    0.0113   -0.3521 C   0  0  0  0  0  0  0  0  0  0  0  0
    2.4892    0.5038    0.3124 C   0  0  0  0  0  0  0  0  0  0  0  0
    3.5622    0.4358   -0.5454 O   0  0  0  0  0  0  0  0  0  0  0  0
   -0.0258    0.0109    0.4308 C   0  0  0  0  0  0  0  0  0  0  0  0
   -1.1051   -0.5252   -0.4616 C   0  0  0  0  0  0  0  0  0  0  0  0
   -2.4393   -0.5537    0.2779 C   0  0  0  0  0  0  0  0  0  0  0  0
   -2.7682    0.7365    0.6692 O   0  0  0  0  0  0  0  0  0  0  0  0
    2.7247   -0.0854    1.2356 H   0  0  0  0  0  0  0  0  0  0  0  0
    2.3759    1.5755    0.6408 H   0  0  0  0  0  0  0  0  0  0  0  0
    3.2607    0.0879   -1.4126 H   0  0  0  0  0  0  0  0  0  0  0  0
    0.1352   -0.5867    1.3419 H   0  0  0  0  0  0  0  0  0  0  0  0
   -0.3218    1.0396    0.7311 H   0  0  0  0  0  0  0  0  0  0  0  0
   -0.8456   -1.5584   -0.7718 H   0  0  0  0  0  0  0  0  0  0  0  0
   -1.1722    0.1427   -1.3438 H   0  0  0  0  0  0  0  0  0  0  0  0
   -3.2044   -1.0365   -0.3482 H   0  0  0  0  0  0  0  0  0  0  0  0
   -2.3261   -1.1696    1.1938 H   0  0  0  0  0  0  0  0  0  0  0  0
   -2.8940    1.3419   -0.1000 H   0  0  0  0  0  0  0  0  0  0  0  0
  1  2  2  0
  2  3  1  0
  3  4  1  0
  2  5  1  0
  5  6  1  0
  6  7  1  0
  7  8  1  0
  3  9  1  0
  3 10  1  0
  4 11  1  0
  5 12  1  0
  5 13  1  0
  6 14  1  0
  6 15  1  0
  7 16  1  0
  7 17  1  0
  8 18  1  0
M  END
