
     RDKit          3D

 17 18  0  0  0  0  0  0  0  0999 V2000
   -1.1894    0.8881   -1.1948 O   0  0  0  0  0  0  0  0  0  0  0  0
   -1.0310    0.0416   -0.3345 C   0  0  0  0  0  0  0  0  0  0  0  0
   -2.2068   -0.4672    0.3834 C   0  0  0  0  0  0  0  0  0  0  0  0
   -3.3572    0.1568   -0.0873 O   0  0  0  0  0  0  0  0  0  0  0  0
    0.3586   -0.4244   -0.0665 C   0  0  0  0  0  0  0  0  0  0  0  0
    1.3800    0.2269   -0.9083 C   0  0  0  0  0  0  0  0  0  0  0  0
    2.3969   -0.0864    0.1403 C   0  0  0  0  0  0  0  0  0  0  0  0
    1.1785    0.4593    0.8232 C   0  0  0  0  0  0  0  0  0  0  0  0
    1.1334    1.4011   -0.1917 O   0  0  0  0  0  0  0  0  0  0  0  0
   -2.1204   -0.1646    1.4669 H   0  0  0  0  0  0  0  0  0  0  0  0
   -2.3365   -1.5660    0.3094 H   0  0  0  0  0  0  0  0  0  0  0  0
   -3.1143    0.8415   -0.7724 H   0  0  0  0  0  0  0  0  0  0  0  0
    0.4618   -1.5122    0.1310 H   0  0  0  0  0  0  0  0  0  0  0  0
    1.5019    0.1767   -1.9091 H   0  0  0  0  0  0  0  0  0  0  0  0
    3.2895    0.5750    0.1257 H   0  0  0  0  0  0  0  0  0  0  0  0
    2.6015   -1.1634    0.2754 H   0  0  0  0  0  0  0  0  0  0  0  0
    1.0535    0.6171    1.8091 H   0  0  0  0  0  0  0  0  0  0  0  0
  1  2  2  0
  2  3  1  0
  3  4  1  0
  2  5  1  0
  5  6  1  0
  6  7  1  0
  7  8  1  0
  8  9  1  0
  8  5  1  0
  9  6  1  0
  3 10  1  0
  3 11  1  0
  4 12  1  0
  5 13  1  0
  6 14  1  0
  7 15  1  0
  7 16  1  0
  8 17  1  0
M  END
