
     RDKit          3D

 16 16  0  0  0  0  0  0  0  0999 V2000
   -1.0644   -1.6610    0.5932 O   0  0  0  0  0  0  0  0  0  0  0  0
   -0.8320   -0.6452   -0.0213 C   0  0  0  0  0  0  0  0  0  0  0  0
   -1.9151    0.3094   -0.2776 C   0  0  0  0  0  0  0  0  0  0  0  0
   -3.1290   -0.1309    0.2635 O   0  0  0  0  0  0  0  0  0  0  0  0
    0.5344   -0.3790   -0.5044 C   0  0  0  0  0  0  0  0  0  0  0  0
    1.2557    0.5496    0.4559 C   0  0  0  0  0  0  0  0  0  0  0  0
    2.4105   -0.3015   -0.0258 C   0  0  0  0  0  0  0  0  0  0  0  0
    1.4810   -1.3421   -0.2097 O   0  0  0  0  0  0  0  0  0  0  0  0
   -2.0877    0.5265   -1.3443 H   0  0  0  0  0  0  0  0  0  0  0  0
   -1.6347    1.2878    0.1980 H   0  0  0  0  0  0  0  0  0  0  0  0
   -3.8770    0.4176   -0.0427 H   0  0  0  0  0  0  0  0  0  0  0  0
    0.5975    0.0001   -1.5531 H   0  0  0  0  0  0  0  0  0  0  0  0
    1.2700    1.6013    0.1662 H   0  0  0  0  0  0  0  0  0  0  0  0
    1.0144    0.3023    1.4979 H   0  0  0  0  0  0  0  0  0  0  0  0
    2.8061   -0.0107   -1.0231 H   0  0  0  0  0  0  0  0  0  0  0  0
    3.1703   -0.5242    0.7458 H   0  0  0  0  0  0  0  0  0  0  0  0
  1  2  2  0
  2  3  1  0
  3  4  1  0
  2  5  1  0
  5  6  1  0
  6  7  1  0
  7  8  1  0
  8  5  1  0
  3  9  1  0
  3 10  1  0
  4 11  1  0
  5 12  1  0
  6 13  1  0
  6 14  1  0
  7 15  1  0
  7 16  1  0
M  END
