
     RDKit          3D

 16 17  0  0  0  0  0  0  0  0999 V2000
   -0.6863    1.7974    1.5421 O   0  0  0  0  0  0  0  0  0  0  0  0
   -0.5826    0.9811    0.6562 C   0  0  0  0  0  0  0  0  0  0  0  0
   -1.6124   -0.0257    0.2882 C   0  0  0  0  0  0  0  0  0  0  0  0
   -0.8292   -1.1456   -0.3606 C   0  0  0  0  0  0  0  0  0  0  0  0
    0.4714   -0.5768   -0.8104 C   0  0  0  0  0  0  0  0  0  0  0  0
    1.5942   -0.9234   -0.0707 O   0  0  0  0  0  0  0  0  0  0  0  0
    1.8273    0.3600    0.4593 C   0  0  0  0  0  0  0  0  0  0  0  0
    0.5673    0.8190   -0.2266 C   0  0  0  0  0  0  0  0  0  0  0  0
   -2.2955    0.4676   -0.4545 H   0  0  0  0  0  0  0  0  0  0  0  0
   -2.1677   -0.3845    1.1795 H   0  0  0  0  0  0  0  0  0  0  0  0
   -0.7497   -1.9996    0.3252 H   0  0  0  0  0  0  0  0  0  0  0  0
   -1.4001   -1.4614   -1.2598 H   0  0  0  0  0  0  0  0  0  0  0  0
    0.6811   -0.6325   -1.8826 H   0  0  0  0  0  0  0  0  0  0  0  0
    1.7629    0.2952    1.5639 H   0  0  0  0  0  0  0  0  0  0  0  0
    2.7176    0.8690    0.0883 H   0  0  0  0  0  0  0  0  0  0  0  0
    0.7017    1.5601   -1.0375 H   0  0  0  0  0  0  0  0  0  0  0  0
  1  2  2  0
  2  3  1  0
  3  4  1  0
  4  5  1  0
  5  6  1  0
  6  7  1  0
  7  8  1  0
  8  2  1  0
  8  5  1  0
  3  9  1  0
  3 10  1  0
  4 11  1  0
  4 12  1  0
  5 13  1  0
  7 14  1  0
  7 15  1  0
  8 16  1  0
M  END
