
     RDKit          3D

 17 18  0  0  0  0  0  0  0  0999 V2000
   -1.4194   -0.2118   -2.2161 O   0  0  0  0  0  0  0  0  0  0  0  0
   -1.0998   -0.0972   -1.0565 C   0  0  0  0  0  0  0  0  0  0  0  0
   -1.1779    1.0001   -0.0619 C   0  0  0  0  0  0  0  0  0  0  0  0
   -1.2783   -0.0902    1.0121 C   0  0  0  0  0  0  0  0  0  0  0  0
   -0.4771   -0.9278    0.0062 C   0  0  0  0  0  0  0  0  0  0  0  0
    0.9674   -0.5418    0.2009 C   0  0  0  0  0  0  0  0  0  0  0  0
    1.8396   -1.4369   -0.3480 O   0  0  0  0  0  0  0  0  0  0  0  0
    1.1163    0.8678   -0.3662 C   0  0  0  0  0  0  0  0  0  0  0  0
    0.0517    1.6427    0.0034 O   0  0  0  0  0  0  0  0  0  0  0  0
   -2.0427    1.6524   -0.1024 H   0  0  0  0  0  0  0  0  0  0  0  0
   -2.3076   -0.4277    1.1573 H   0  0  0  0  0  0  0  0  0  0  0  0
   -0.7028    0.1829    1.9219 H   0  0  0  0  0  0  0  0  0  0  0  0
   -0.7088   -1.9880    0.0061 H   0  0  0  0  0  0  0  0  0  0  0  0
    1.1509   -0.4464    1.2989 H   0  0  0  0  0  0  0  0  0  0  0  0
    2.7555   -1.2078   -0.0895 H   0  0  0  0  0  0  0  0  0  0  0  0
    1.2773    0.7625   -1.4391 H   0  0  0  0  0  0  0  0  0  0  0  0
    2.0557    1.2673    0.0729 H   0  0  0  0  0  0  0  0  0  0  0  0
  1  2  2  0
  2  3  1  0
  3  4  1  0
  4  5  1  0
  5  6  1  0
  6  7  1  0
  6  8  1  0
  8  9  1  0
  5  2  1  0
  9  3  1  0
  3 10  1  0
  4 11  1  0
  4 12  1  0
  5 13  1  0
  6 14  1  0
  7 15  1  0
  8 16  1  0
  8 17  1  0
M  END
