
     RDKit          3D

 17 17  0  0  0  0  0  0  0  0999 V2000
    2.6022   -1.4736   -1.0821 O   0  0  0  0  0  0  0  0  0  0  0  0
    1.7392   -0.7023   -0.5900 C   0  0  0  0  0  0  0  0  0  0  0  0
    0.3168   -0.4992   -1.0441 C   0  0  0  0  0  0  0  0  0  0  0  0
   -0.3562   -0.1504    0.2460 C   0  0  0  0  0  0  0  0  0  0  0  0
   -1.7258    0.4515    0.0530 C   0  0  0  0  0  0  0  0  0  0  0  0
   -2.5262   -0.4624   -0.6150 O   0  0  0  0  0  0  0  0  0  0  0  0
    0.6146    0.8254    0.8655 C   0  0  0  0  0  0  0  0  0  0  0  0
    1.9258    0.1852    0.5522 C   0  0  0  0  0  0  0  0  0  0  0  0
    2.9981    0.3884    1.1773 O   0  0  0  0  0  0  0  0  0  0  0  0
   -0.0733   -1.4078   -1.5271 H   0  0  0  0  0  0  0  0  0  0  0  0
    0.3516    0.3716   -1.7498 H   0  0  0  0  0  0  0  0  0  0  0  0
   -0.3864   -1.0494    0.8759 H   0  0  0  0  0  0  0  0  0  0  0  0
   -2.1784    0.6091    1.0600 H   0  0  0  0  0  0  0  0  0  0  0  0
   -1.7134    1.4177   -0.4452 H   0  0  0  0  0  0  0  0  0  0  0  0
   -2.6514   -1.2698   -0.0248 H   0  0  0  0  0  0  0  0  0  0  0  0
    0.4647    0.9680    1.9474 H   0  0  0  0  0  0  0  0  0  0  0  0
    0.5981    1.7977    0.3007 H   0  0  0  0  0  0  0  0  0  0  0  0
  1  2  2  0
  2  3  1  0
  3  4  1  0
  4  5  1  0
  5  6  1  0
  4  7  1  0
  7  8  1  0
  8  9  2  0
  8  2  1  0
  3 10  1  0
  3 11  1  0
  4 12  1  0
  5 13  1  0
  5 14  1  0
  6 15  1  0
  7 16  1  0
  7 17  1  0
M  END
