
     RDKit          3D

 17 18  0  0  0  0  0  0  0  0999 V2000
   -2.8131   -0.3533    0.9608 O   0  0  0  0  0  0  0  0  0  0  0  0
   -1.7864   -0.0811    0.2955 C   0  0  0  0  0  0  0  0  0  0  0  0
   -1.2245    1.2766    0.2339 C   0  0  0  0  0  0  0  0  0  0  0  0
    0.0241    1.4519   -0.1475 C   0  0  0  0  0  0  0  0  0  0  0  0
    0.9154    0.3555   -0.5250 C   0  0  0  0  0  0  0  0  0  0  0  0
    1.8229   -0.0217    0.6490 C   0  0  0  0  0  0  0  0  0  0  0  0
    0.6947   -0.6987    1.1740 O   0  0  0  0  0  0  0  0  0  0  0  0
    0.3845   -1.0072   -0.1547 C   0  0  0  0  0  0  0  0  0  0  0  0
   -1.0642   -1.1231   -0.4815 C   0  0  0  0  0  0  0  0  0  0  0  0
   -1.8878    2.0968    0.5153 H   0  0  0  0  0  0  0  0  0  0  0  0
    0.3911    2.4650   -0.1767 H   0  0  0  0  0  0  0  0  0  0  0  0
    1.4169    0.4069   -1.4886 H   0  0  0  0  0  0  0  0  0  0  0  0
    2.5484   -0.7697    0.3151 H   0  0  0  0  0  0  0  0  0  0  0  0
    2.1736    0.8164    1.2505 H   0  0  0  0  0  0  0  0  0  0  0  0
    1.0502   -1.7860   -0.5776 H   0  0  0  0  0  0  0  0  0  0  0  0
   -1.1791   -0.9131   -1.5755 H   0  0  0  0  0  0  0  0  0  0  0  0
   -1.4668   -2.1153   -0.2669 H   0  0  0  0  0  0  0  0  0  0  0  0
  1  2  2  0
  2  3  1  0
  3  4  2  0
  4  5  1  0
  5  6  1  0
  6  7  1  0
  7  8  1  0
  8  9  1  0
  9  2  1  0
  8  5  1  0
  3 10  1  0
  4 11  1  0
  5 12  1  0
  6 13  1  0
  6 14  1  0
  8 15  1  0
  9 16  1  0
  9 17  1  0
M  END
