
     RDKit          3D

 16 16  0  0  0  0  0  0  0  0999 V2000
   -2.5533   -0.9976    1.2274 O   0  0  0  0  0  0  0  0  0  0  0  0
   -1.4599   -0.6656    0.7026 C   0  0  0  0  0  0  0  0  0  0  0  0
   -1.3483    0.6331   -0.0059 C   0  0  0  0  0  0  0  0  0  0  0  0
   -0.2549    0.4496   -1.0549 C   0  0  0  0  0  0  0  0  0  0  0  0
    1.0407    0.1441   -0.3060 C   0  0  0  0  0  0  0  0  0  0  0  0
    1.1725    1.1698    0.6447 O   0  0  0  0  0  0  0  0  0  0  0  0
    0.9352   -1.1593    0.4098 C   0  0  0  0  0  0  0  0  0  0  0  0
   -0.3851   -1.4914    0.7833 O   0  0  0  0  0  0  0  0  0  0  0  0
   -2.2746    0.8712   -0.5386 H   0  0  0  0  0  0  0  0  0  0  0  0
   -1.0488    1.3846    0.7400 H   0  0  0  0  0  0  0  0  0  0  0  0
   -0.1194    1.3777   -1.6252 H   0  0  0  0  0  0  0  0  0  0  0  0
   -0.5184   -0.4026   -1.6926 H   0  0  0  0  0  0  0  0  0  0  0  0
    1.8720    0.1286   -1.0204 H   0  0  0  0  0  0  0  0  0  0  0  0
    2.0303    1.6351    0.5832 H   0  0  0  0  0  0  0  0  0  0  0  0
    1.5436   -1.0955    1.3487 H   0  0  0  0  0  0  0  0  0  0  0  0
    1.3684   -1.9816   -0.1961 H   0  0  0  0  0  0  0  0  0  0  0  0
  1  2  2  0
  2  3  1  0
  3  4  1  0
  4  5  1  0
  5  6  1  0
  5  7  1  0
  7  8  1  0
  8  2  1  0
  3  9  1  0
  3 10  1  0
  4 11  1  0
  4 12  1  0
  5 13  1  0
  6 14  1  0
  7 15  1  0
  7 16  1  0
M  END
