
     RDKit          3D

 13 15  0  0  0  0  0  0  0  0999 V2000
    2.7227   -0.3322   -0.8673 O   0  0  0  0  0  0  0  0  0  0  0  0
    1.5105   -0.2685   -0.5912 C   0  0  0  0  0  0  0  0  0  0  0  0
    0.5006   -1.0512   -1.1294 O   0  0  0  0  0  0  0  0  0  0  0  0
   -0.8114   -0.7997   -0.5902 C   0  0  0  0  0  0  0  0  0  0  0  0
   -0.7995   -0.4355    0.8260 C   0  0  0  0  0  0  0  0  0  0  0  0
    0.3758   -0.0243    1.3850 O   0  0  0  0  0  0  0  0  0  0  0  0
    1.0526    0.7284    0.4073 C   0  0  0  0  0  0  0  0  0  0  0  0
    0.0083    1.4479   -0.2116 O   0  0  0  0  0  0  0  0  0  0  0  0
   -1.0624    0.5945   -0.2361 C   0  0  0  0  0  0  0  0  0  0  0  0
   -1.6413   -1.4147   -0.9476 H   0  0  0  0  0  0  0  0  0  0  0  0
   -1.6028   -0.7993    1.4622 H   0  0  0  0  0  0  0  0  0  0  0  0
    1.8343    1.3624    0.8086 H   0  0  0  0  0  0  0  0  0  0  0  0
   -2.0875    0.9922   -0.3158 H   0  0  0  0  0  0  0  0  0  0  0  0
  1  2  2  0
  2  3  1  0
  3  4  1  0
  4  5  1  0
  5  6  1  0
  6  7  1  0
  7  8  1  0
  8  9  1  0
  7  2  1  0
  9  4  1  0
  9  5  1  0
  4 10  1  0
  5 11  1  0
  7 12  1  0
  9 13  1  0
M  END
