
     RDKit          3D

 19 20  0  0  0  0  0  0  0  0999 V2000
   -1.5019   -2.0987   -1.2658 O   0  0  0  0  0  0  0  0  0  0  0  0
   -0.8231   -1.3187   -0.6434 C   0  0  0  0  0  0  0  0  0  0  0  0
    0.6646   -1.2633   -0.6507 C   0  0  0  0  0  0  0  0  0  0  0  0
    0.9434   -0.0542    0.2498 C   0  0  0  0  0  0  0  0  0  0  0  0
    2.1865   -0.0058    0.7498 O   0  0  0  0  0  0  0  0  0  0  0  0
    0.4502    1.1460   -0.4833 C   0  0  0  0  0  0  0  0  0  0  0  0
   -1.0786    1.1172   -0.3523 C   0  0  0  0  0  0  0  0  0  0  0  0
   -1.3083   -0.2521    0.2580 C   0  0  0  0  0  0  0  0  0  0  0  0
   -0.1607   -0.2530    1.2894 C   0  0  0  0  0  0  0  0  0  0  0  0
    1.0473   -0.9930   -1.6624 H   0  0  0  0  0  0  0  0  0  0  0  0
    1.1366   -2.1680   -0.2515 H   0  0  0  0  0  0  0  0  0  0  0  0
    2.4450    0.9170    0.9690 H   0  0  0  0  0  0  0  0  0  0  0  0
    0.8601    2.1011   -0.1038 H   0  0  0  0  0  0  0  0  0  0  0  0
    0.7543    1.0746   -1.5464 H   0  0  0  0  0  0  0  0  0  0  0  0
   -1.3728    1.8816    0.3764 H   0  0  0  0  0  0  0  0  0  0  0  0
   -1.5640    1.2307   -1.3381 H   0  0  0  0  0  0  0  0  0  0  0  0
   -2.2735   -0.4019    0.6985 H   0  0  0  0  0  0  0  0  0  0  0  0
   -0.2669    0.5874    1.9648 H   0  0  0  0  0  0  0  0  0  0  0  0
   -0.1381   -1.2467    1.7422 H   0  0  0  0  0  0  0  0  0  0  0  0
  1  2  2  0
  2  3  1  0
  3  4  1  0
  4  5  1  0
  4  6  1  0
  6  7  1  0
  7  8  1  0
  8  9  1  0
  8  2  1  0
  9  4  1  0
  3 10  1  0
  3 11  1  0
  5 12  1  0
  6 13  1  0
  6 14  1  0
  7 15  1  0
  7 16  1  0
  8 17  1  0
  9 18  1  0
  9 19  1  0
M  END
