
     RDKit          3D

 19 20  0  0  0  0  0  0  0  0999 V2000
   -0.9214   -2.1005    1.1647 O   0  0  0  0  0  0  0  0  0  0  0  0
   -0.8449   -1.1402    0.4478 C   0  0  0  0  0  0  0  0  0  0  0  0
   -1.7322    0.0426    0.5146 C   0  0  0  0  0  0  0  0  0  0  0  0
   -1.2476    0.9903   -0.5645 C   0  0  0  0  0  0  0  0  0  0  0  0
    0.1782    0.5780   -0.7418 C   0  0  0  0  0  0  0  0  0  0  0  0
    1.0288    0.9081    0.4616 C   0  0  0  0  0  0  0  0  0  0  0  0
    2.0409   -0.1683    0.4299 C   0  0  0  0  0  0  0  0  0  0  0  0
    1.5362   -1.2216   -0.1969 C   0  0  0  0  0  0  0  0  0  0  0  0
    0.1503   -0.9526   -0.6412 C   0  0  0  0  0  0  0  0  0  0  0  0
   -2.7961   -0.1902    0.3332 H   0  0  0  0  0  0  0  0  0  0  0  0
   -1.6919    0.5426    1.5217 H   0  0  0  0  0  0  0  0  0  0  0  0
   -1.7950    0.7259   -1.4891 H   0  0  0  0  0  0  0  0  0  0  0  0
   -1.3510    2.0438   -0.2698 H   0  0  0  0  0  0  0  0  0  0  0  0
    0.6355    0.9148   -1.6865 H   0  0  0  0  0  0  0  0  0  0  0  0
    1.4560    1.9219    0.4325 H   0  0  0  0  0  0  0  0  0  0  0  0
    0.3728    0.7524    1.3589 H   0  0  0  0  0  0  0  0  0  0  0  0
    3.0376   -0.0781    0.8636 H   0  0  0  0  0  0  0  0  0  0  0  0
    2.0684   -2.1432   -0.3568 H   0  0  0  0  0  0  0  0  0  0  0  0
   -0.1247   -1.4256   -1.5821 H   0  0  0  0  0  0  0  0  0  0  0  0
  1  2  2  0
  2  3  1  0
  3  4  1  0
  4  5  1  0
  5  6  1  0
  6  7  1  0
  7  8  2  0
  8  9  1  0
  9  2  1  0
  9  5  1  0
  3 10  1  0
  3 11  1  0
  4 12  1  0
  4 13  1  0
  5 14  1  0
  6 15  1  0
  6 16  1  0
  7 17  1  0
  8 18  1  0
  9 19  1  0
M  END
