
     RDKit          3D

 17 18  0  0  0  0  0  0  0  0999 V2000
   -2.9431    0.1927    0.8643 O   0  0  0  0  0  0  0  0  0  0  0  0
   -1.8434    0.1095    0.2172 C   0  0  0  0  0  0  0  0  0  0  0  0
   -1.2607    1.2987   -0.3505 C   0  0  0  0  0  0  0  0  0  0  0  0
    0.0609    1.3866   -0.4312 C   0  0  0  0  0  0  0  0  0  0  0  0
    0.8421    0.2515    0.0702 C   0  0  0  0  0  0  0  0  0  0  0  0
    0.2613   -1.0890   -0.2585 C   0  0  0  0  0  0  0  0  0  0  0  0
   -1.1902   -1.2155    0.0655 C   0  0  0  0  0  0  0  0  0  0  0  0
    2.2641    0.3325    0.3384 C   0  0  0  0  0  0  0  0  0  0  0  0
    1.3303    0.4422    1.3831 O   0  0  0  0  0  0  0  0  0  0  0  0
   -1.9140    2.0908   -0.6970 H   0  0  0  0  0  0  0  0  0  0  0  0
    0.5010    2.2783   -0.8569 H   0  0  0  0  0  0  0  0  0  0  0  0
    0.8527   -1.8435    0.3362 H   0  0  0  0  0  0  0  0  0  0  0  0
    0.4329   -1.2636   -1.3576 H   0  0  0  0  0  0  0  0  0  0  0  0
   -1.7144   -1.7852   -0.7520 H   0  0  0  0  0  0  0  0  0  0  0  0
   -1.3142   -1.8016    1.0191 H   0  0  0  0  0  0  0  0  0  0  0  0
    2.8354   -0.6285    0.3965 H   0  0  0  0  0  0  0  0  0  0  0  0
    2.7992    1.2442    0.0131 H   0  0  0  0  0  0  0  0  0  0  0  0
  1  2  2  0
  2  3  1  0
  3  4  2  0
  4  5  1  0
  5  6  1  0
  6  7  1  0
  5  8  1  0
  8  9  1  0
  7  2  1  0
  9  5  1  0
  3 10  1  0
  4 11  1  0
  6 12  1  0
  6 13  1  0
  7 14  1  0
  7 15  1  0
  8 16  1  0
  8 17  1  0
M  END
