
     RDKit          3D

 16 17  0  0  0  0  0  0  0  0999 V2000
    1.8885   -1.3244    1.4704 O   0  0  0  0  0  0  0  0  0  0  0  0
    1.2260   -0.7898    0.5793 C   0  0  0  0  0  0  0  0  0  0  0  0
    1.5088    0.4168   -0.2457 C   0  0  0  0  0  0  0  0  0  0  0  0
    0.1553    0.2981   -0.8832 C   0  0  0  0  0  0  0  0  0  0  0  0
   -0.8182    1.2479   -0.2714 C   0  0  0  0  0  0  0  0  0  0  0  0
   -1.7699    0.5190    0.4157 O   0  0  0  0  0  0  0  0  0  0  0  0
   -1.2959   -0.7293    0.6596 C   0  0  0  0  0  0  0  0  0  0  0  0
   -0.0607   -0.9744   -0.1238 C   0  0  0  0  0  0  0  0  0  0  0  0
    2.3746    0.3136   -0.9216 H   0  0  0  0  0  0  0  0  0  0  0  0
    1.6204    1.2957    0.4527 H   0  0  0  0  0  0  0  0  0  0  0  0
    0.1259    0.1971   -1.9696 H   0  0  0  0  0  0  0  0  0  0  0  0
   -0.3316    2.0024    0.3921 H   0  0  0  0  0  0  0  0  0  0  0  0
   -1.3459    1.8360   -1.0690 H   0  0  0  0  0  0  0  0  0  0  0  0
   -2.0749   -1.4654    0.3044 H   0  0  0  0  0  0  0  0  0  0  0  0
   -1.1562   -0.9557    1.7443 H   0  0  0  0  0  0  0  0  0  0  0  0
   -0.0463   -1.8875   -0.7607 H   0  0  0  0  0  0  0  0  0  0  0  0
  1  2  2  0
  2  3  1  0
  3  4  1  0
  4  5  1  0
  5  6  1  0
  6  7  1  0
  7  8  1  0
  8  2  1  0
  8  4  1  0
  3  9  1  0
  3 10  1  0
  4 11  1  0
  5 12  1  0
  5 13  1  0
  7 14  1  0
  7 15  1  0
  8 16  1  0
M  END
