
     RDKit          3D

 19 21  0  0  0  0  0  0  0  0999 V2000
    0.7871    0.5604    2.5249 O   0  0  0  0  0  0  0  0  0  0  0  0
    0.4401    0.2080    1.4220 C   0  0  0  0  0  0  0  0  0  0  0  0
   -0.9754    0.3251    1.0420 C   0  0  0  0  0  0  0  0  0  0  0  0
   -0.9882    1.0839   -0.2950 C   0  0  0  0  0  0  0  0  0  0  0  0
   -0.6668   -0.2273   -0.9447 C   0  0  0  0  0  0  0  0  0  0  0  0
   -1.4386   -0.8788    0.2132 C   0  0  0  0  0  0  0  0  0  0  0  0
    0.7569   -0.6503   -0.8210 C   0  0  0  0  0  0  0  0  0  0  0  0
    1.8468    0.3540   -0.7428 C   0  0  0  0  0  0  0  0  0  0  0  0
    1.4086   -0.3286    0.4727 C   0  0  0  0  0  0  0  0  0  0  0  0
   -1.6827    0.6818    1.7821 H   0  0  0  0  0  0  0  0  0  0  0  0
   -0.2683    1.8884   -0.3716 H   0  0  0  0  0  0  0  0  0  0  0  0
   -2.0441    1.3575   -0.5069 H   0  0  0  0  0  0  0  0  0  0  0  0
   -1.1009   -0.3893   -1.9247 H   0  0  0  0  0  0  0  0  0  0  0  0
   -1.0449   -1.8384    0.5437 H   0  0  0  0  0  0  0  0  0  0  0  0
   -2.5256   -0.7998    0.0600 H   0  0  0  0  0  0  0  0  0  0  0  0
    0.9547   -1.6773   -1.1918 H   0  0  0  0  0  0  0  0  0  0  0  0
    1.6039    1.3858   -1.0036 H   0  0  0  0  0  0  0  0  0  0  0  0
    2.8147    0.0170   -1.1914 H   0  0  0  0  0  0  0  0  0  0  0  0
    2.1228   -1.0720    0.9326 H   0  0  0  0  0  0  0  0  0  0  0  0
  1  2  2  0
  2  3  1  0
  3  4  1  0
  4  5  1  0
  5  6  1  0
  5  7  1  0
  7  8  1  0
  8  9  1  0
  9  2  1  0
  6  3  1  0
  9  7  1  0
  3 10  1  0
  4 11  1  0
  4 12  1  0
  5 13  1  0
  6 14  1  0
  6 15  1  0
  7 16  1  0
  8 17  1  0
  8 18  1  0
  9 19  1  0
M  END
