
     RDKit          3D

 17 17  0  0  0  0  0  0  0  0999 V2000
    3.2648    0.4152   -0.0928 O   0  0  0  0  0  0  0  0  0  0  0  0
    2.0211    0.3084   -0.1214 C   0  0  0  0  0  0  0  0  0  0  0  0
    1.4533   -1.0424    0.0029 C   0  0  0  0  0  0  0  0  0  0  0  0
    0.2080   -1.4396   -0.1127 C   0  0  0  0  0  0  0  0  0  0  0  0
   -0.9528   -0.5804   -0.4064 C   0  0  0  0  0  0  0  0  0  0  0  0
   -2.0999   -1.3159   -0.0945 O   0  0  0  0  0  0  0  0  0  0  0  0
   -0.9884    0.6856    0.3619 C   0  0  0  0  0  0  0  0  0  0  0  0
   -0.0797    1.7707   -0.0713 C   0  0  0  0  0  0  0  0  0  0  0  0
    1.2504    1.4575   -0.2672 O   0  0  0  0  0  0  0  0  0  0  0  0
    2.2113   -1.7917    0.2232 H   0  0  0  0  0  0  0  0  0  0  0  0
    0.0574   -2.4873    0.0246 H   0  0  0  0  0  0  0  0  0  0  0  0
   -0.9929   -0.3344   -1.5007 H   0  0  0  0  0  0  0  0  0  0  0  0
   -1.9183   -1.9757    0.6209 H   0  0  0  0  0  0  0  0  0  0  0  0
   -0.8041    0.4307    1.4442 H   0  0  0  0  0  0  0  0  0  0  0  0
   -2.0285    1.0769    0.3396 H   0  0  0  0  0  0  0  0  0  0  0  0
   -0.4608    2.2329   -1.0277 H   0  0  0  0  0  0  0  0  0  0  0  0
   -0.1408    2.5895    0.6773 H   0  0  0  0  0  0  0  0  0  0  0  0
  1  2  2  0
  2  3  1  0
  3  4  2  0
  4  5  1  0
  5  6  1  0
  5  7  1  0
  7  8  1  0
  8  9  1  0
  9  2  1  0
  3 10  1  0
  4 11  1  0
  5 12  1  0
  6 13  1  0
  7 14  1  0
  7 15  1  0
  8 16  1  0
  8 17  1  0
M  END
