
     RDKit          3D

 17 18  0  0  0  0  0  0  0  0999 V2000
    2.7084    0.2271    1.5739 O   0  0  0  0  0  0  0  0  0  0  0  0
    1.9154    0.1712    0.6073 C   0  0  0  0  0  0  0  0  0  0  0  0
    1.9008   -0.6289   -0.6041 C   0  0  0  0  0  0  0  0  0  0  0  0
    0.6919   -0.6597   -1.1280 C   0  0  0  0  0  0  0  0  0  0  0  0
   -0.2000    0.1234   -0.2991 C   0  0  0  0  0  0  0  0  0  0  0  0
    0.6824    1.0198    0.5019 C   0  0  0  0  0  0  0  0  0  0  0  0
   -1.5191    0.6118   -0.7108 C   0  0  0  0  0  0  0  0  0  0  0  0
   -1.3684   -0.5667    0.2658 C   0  0  0  0  0  0  0  0  0  0  0  0
   -1.7839   -0.3825    1.5708 O   0  0  0  0  0  0  0  0  0  0  0  0
    2.8127   -1.1192   -0.9822 H   0  0  0  0  0  0  0  0  0  0  0  0
    0.4477   -1.1938   -2.0303 H   0  0  0  0  0  0  0  0  0  0  0  0
    0.2936    1.3289    1.4672 H   0  0  0  0  0  0  0  0  0  0  0  0
    0.9868    1.8884   -0.1508 H   0  0  0  0  0  0  0  0  0  0  0  0
   -1.8592    1.5596   -0.2267 H   0  0  0  0  0  0  0  0  0  0  0  0
   -1.9955    0.4086   -1.6651 H   0  0  0  0  0  0  0  0  0  0  0  0
   -1.6441   -1.5505   -0.1705 H   0  0  0  0  0  0  0  0  0  0  0  0
   -2.0695   -1.2376    1.9807 H   0  0  0  0  0  0  0  0  0  0  0  0
  1  2  2  0
  2  3  1  0
  3  4  2  0
  4  5  1  0
  5  6  1  0
  5  7  1  0
  7  8  1  0
  8  9  1  0
  6  2  1  0
  8  5  1  0
  3 10  1  0
  4 11  1  0
  6 12  1  0
  6 13  1  0
  7 14  1  0
  7 15  1  0
  8 16  1  0
  9 17  1  0
M  END
