
     RDKit          3D

 15 16  0  0  0  0  0  0  0  0999 V2000
   -2.3607    1.7942    0.2808 O   0  0  0  0  0  0  0  0  0  0  0  0
   -1.4552    0.9654   -0.0051 C   0  0  0  0  0  0  0  0  0  0  0  0
   -1.5777   -0.5182    0.0097 C   0  0  0  0  0  0  0  0  0  0  0  0
   -0.2281   -0.9218    0.5673 C   0  0  0  0  0  0  0  0  0  0  0  0
    0.7097   -0.0394   -0.2123 C   0  0  0  0  0  0  0  0  0  0  0  0
    2.1349   -0.0052   -0.0424 C   0  0  0  0  0  0  0  0  0  0  0  0
    1.4997   -0.5373   -1.2083 O   0  0  0  0  0  0  0  0  0  0  0  0
   -0.0780    1.2047   -0.4173 C   0  0  0  0  0  0  0  0  0  0  0  0
    0.3444    2.2979   -0.8693 O   0  0  0  0  0  0  0  0  0  0  0  0
   -1.6142   -0.8815   -1.0490 H   0  0  0  0  0  0  0  0  0  0  0  0
   -2.4152   -0.8717    0.6109 H   0  0  0  0  0  0  0  0  0  0  0  0
   -0.2074   -0.7367    1.6492 H   0  0  0  0  0  0  0  0  0  0  0  0
   -0.0401   -1.9764    0.3484 H   0  0  0  0  0  0  0  0  0  0  0  0
    2.6707    0.9441   -0.2996 H   0  0  0  0  0  0  0  0  0  0  0  0
    2.6172   -0.7180    0.6370 H   0  0  0  0  0  0  0  0  0  0  0  0
  1  2  2  0
  2  3  1  0
  3  4  1  0
  4  5  1  0
  5  6  1  0
  6  7  1  0
  5  8  1  0
  8  9  2  0
  8  2  1  0
  7  5  1  0
  3 10  1  0
  3 11  1  0
  4 12  1  0
  4 13  1  0
  6 14  1  0
  6 15  1  0
M  END
