
     RDKit          3D

 15 16  0  0  0  0  0  0  0  0999 V2000
    1.1018    2.2772   -0.4243 O   0  0  0  0  0  0  0  0  0  0  0  0
    0.8322    1.1602   -0.0647 C   0  0  0  0  0  0  0  0  0  0  0  0
    1.7366   -0.0082    0.0271 C   0  0  0  0  0  0  0  0  0  0  0  0
    1.1149   -0.9367    0.8151 O   0  0  0  0  0  0  0  0  0  0  0  0
   -0.2215   -0.6944    0.8633 C   0  0  0  0  0  0  0  0  0  0  0  0
   -0.9177   -1.2533   -0.3231 C   0  0  0  0  0  0  0  0  0  0  0  0
   -1.0654   -2.3522   -0.8256 O   0  0  0  0  0  0  0  0  0  0  0  0
   -1.3857    0.1094   -0.6758 C   0  0  0  0  0  0  0  0  0  0  0  0
   -0.4866    0.6987    0.3734 C   0  0  0  0  0  0  0  0  0  0  0  0
    2.7196    0.2374    0.4797 H   0  0  0  0  0  0  0  0  0  0  0  0
    1.9003   -0.3631   -1.0299 H   0  0  0  0  0  0  0  0  0  0  0  0
   -0.7007   -0.9300    1.8420 H   0  0  0  0  0  0  0  0  0  0  0  0
   -1.2053    0.4149   -1.7149 H   0  0  0  0  0  0  0  0  0  0  0  0
   -2.4608    0.2494   -0.4330 H   0  0  0  0  0  0  0  0  0  0  0  0
   -0.9616    1.3907    1.0907 H   0  0  0  0  0  0  0  0  0  0  0  0
  1  2  2  0
  2  3  1  0
  3  4  1  0
  4  5  1  0
  5  6  1  0
  6  7  2  0
  6  8  1  0
  8  9  1  0
  9  2  1  0
  9  5  1  0
  3 10  1  0
  3 11  1  0
  5 12  1  0
  8 13  1  0
  8 14  1  0
  9 15  1  0
M  END
