
     RDKit          3D

 17 18  0  0  0  0  0  0  0  0999 V2000
    3.7643    0.5557   -0.9431 O   0  0  0  0  0  0  0  0  0  0  0  0
    2.6278    0.2396   -0.5327 C   0  0  0  0  0  0  0  0  0  0  0  0
    1.2695    0.1088   -1.1045 C   0  0  0  0  0  0  0  0  0  0  0  0
    0.8029    0.2484    0.3039 C   0  0  0  0  0  0  0  0  0  0  0  0
   -0.2684   -0.7349    0.7303 C   0  0  0  0  0  0  0  0  0  0  0  0
   -1.5001   -0.5928   -0.1200 C   0  0  0  0  0  0  0  0  0  0  0  0
   -2.2682    0.6275   -0.2153 C   0  0  0  0  0  0  0  0  0  0  0  0
   -1.4642    0.1590   -1.2800 O   0  0  0  0  0  0  0  0  0  0  0  0
    2.1234   -0.1434    0.6942 O   0  0  0  0  0  0  0  0  0  0  0  0
    0.9653    0.9221   -1.7890 H   0  0  0  0  0  0  0  0  0  0  0  0
    1.0539   -0.8959   -1.5236 H   0  0  0  0  0  0  0  0  0  0  0  0
    0.6100    1.2600    0.6643 H   0  0  0  0  0  0  0  0  0  0  0  0
   -0.5147   -0.6072    1.8044 H   0  0  0  0  0  0  0  0  0  0  0  0
    0.1582   -1.7565    0.6232 H   0  0  0  0  0  0  0  0  0  0  0  0
   -2.0566   -1.5547   -0.2429 H   0  0  0  0  0  0  0  0  0  0  0  0
   -3.3735    0.5583   -0.3541 H   0  0  0  0  0  0  0  0  0  0  0  0
   -1.9295    1.6060    0.1512 H   0  0  0  0  0  0  0  0  0  0  0  0
  1  2  2  0
  2  3  1  0
  3  4  1  0
  4  5  1  0
  5  6  1  0
  6  7  1  0
  7  8  1  0
  4  9  1  0
  9  2  1  0
  8  6  1  0
  3 10  1  0
  3 11  1  0
  4 12  1  0
  5 13  1  0
  5 14  1  0
  6 15  1  0
  7 16  1  0
  7 17  1  0
M  END
