
     RDKit          3D

 17 18  0  0  0  0  0  0  0  0999 V2000
    1.4991   -2.7156    0.3740 O   0  0  0  0  0  0  0  0  0  0  0  0
    1.1613   -1.5166    0.3643 C   0  0  0  0  0  0  0  0  0  0  0  0
    1.9056   -0.5260   -0.3922 C   0  0  0  0  0  0  0  0  0  0  0  0
    1.5510    0.7394   -0.4010 C   0  0  0  0  0  0  0  0  0  0  0  0
    0.3740    1.1708    0.3730 C   0  0  0  0  0  0  0  0  0  0  0  0
   -0.5929    0.0551    0.4754 C   0  0  0  0  0  0  0  0  0  0  0  0
   -2.0504    0.2235    0.5055 C   0  0  0  0  0  0  0  0  0  0  0  0
   -1.4129   -0.3023   -0.7627 C   0  0  0  0  0  0  0  0  0  0  0  0
    0.0435   -1.0591    1.0842 O   0  0  0  0  0  0  0  0  0  0  0  0
    2.7874   -0.8267   -0.9750 H   0  0  0  0  0  0  0  0  0  0  0  0
    2.0976    1.5008   -0.9656 H   0  0  0  0  0  0  0  0  0  0  0  0
   -0.1269    2.0583   -0.0713 H   0  0  0  0  0  0  0  0  0  0  0  0
    0.7368    1.4088    1.4166 H   0  0  0  0  0  0  0  0  0  0  0  0
   -2.4180    1.2791    0.5055 H   0  0  0  0  0  0  0  0  0  0  0  0
   -2.6679   -0.4758    1.1176 H   0  0  0  0  0  0  0  0  0  0  0  0
   -1.3384    0.3697   -1.6427 H   0  0  0  0  0  0  0  0  0  0  0  0
   -1.5489   -1.3834   -1.0057 H   0  0  0  0  0  0  0  0  0  0  0  0
  1  2  2  0
  2  3  1  0
  3  4  2  0
  4  5  1  0
  5  6  1  0
  6  7  1  0
  7  8  1  0
  6  9  1  0
  9  2  1  0
  8  6  1  0
  3 10  1  0
  4 11  1  0
  5 12  1  0
  5 13  1  0
  7 14  1  0
  7 15  1  0
  8 16  1  0
  8 17  1  0
M  END
