
     RDKit          3D

 19 20  0  0  0  0  0  0  0  0999 V2000
    3.1161    1.3134   -0.3835 O   0  0  0  0  0  0  0  0  0  0  0  0
    2.1488    0.5214   -0.2228 C   0  0  0  0  0  0  0  0  0  0  0  0
    2.1157   -0.7097    0.5328 C   0  0  0  0  0  0  0  0  0  0  0  0
    0.8836   -1.1593    0.6924 C   0  0  0  0  0  0  0  0  0  0  0  0
   -0.0306   -0.2378    0.0372 C   0  0  0  0  0  0  0  0  0  0  0  0
   -0.9360    0.5726    0.9596 C   0  0  0  0  0  0  0  0  0  0  0  0
   -2.0198    0.4268   -0.1126 C   0  0  0  0  0  0  0  0  0  0  0  0
   -1.2542   -0.7993   -0.5972 C   0  0  0  0  0  0  0  0  0  0  0  0
    0.7926    0.7076   -0.8055 C   0  0  0  0  0  0  0  0  0  0  0  0
    3.0441   -1.1731    0.9070 H   0  0  0  0  0  0  0  0  0  0  0  0
    0.6136   -2.0573    1.2199 H   0  0  0  0  0  0  0  0  0  0  0  0
   -0.6543    1.6276    1.0499 H   0  0  0  0  0  0  0  0  0  0  0  0
   -1.1559    0.0307    1.8836 H   0  0  0  0  0  0  0  0  0  0  0  0
   -2.0559    1.2651   -0.8226 H   0  0  0  0  0  0  0  0  0  0  0  0
   -3.0099    0.1770    0.2860 H   0  0  0  0  0  0  0  0  0  0  0  0
   -1.2543   -0.9480   -1.6808 H   0  0  0  0  0  0  0  0  0  0  0  0
   -1.6030   -1.7010   -0.0238 H   0  0  0  0  0  0  0  0  0  0  0  0
    0.8168    0.3979   -1.8722 H   0  0  0  0  0  0  0  0  0  0  0  0
    0.4426    1.7454   -0.7733 H   0  0  0  0  0  0  0  0  0  0  0  0
  1  2  2  0
  2  3  1  0
  3  4  2  0
  4  5  1  0
  5  6  1  0
  6  7  1  0
  7  8  1  0
  5  9  1  0
  9  2  1  0
  8  5  1  0
  3 10  1  0
  4 11  1  0
  6 12  1  0
  6 13  1  0
  7 14  1  0
  7 15  1  0
  8 16  1  0
  8 17  1  0
  9 18  1  0
  9 19  1  0
M  END
