
     RDKit          3D

 16 17  0  0  0  0  0  0  0  0999 V2000
    1.6444   -1.1585   -1.8649 O   0  0  0  0  0  0  0  0  0  0  0  0
    1.0132   -0.5721   -0.9931 C   0  0  0  0  0  0  0  0  0  0  0  0
    1.7014    0.1569    0.0661 C   0  0  0  0  0  0  0  0  0  0  0  0
    0.9263    0.7269    1.0119 C   0  0  0  0  0  0  0  0  0  0  0  0
   -0.5138    0.4520    0.9054 C   0  0  0  0  0  0  0  0  0  0  0  0
   -0.8218   -0.9759    0.4884 C   0  0  0  0  0  0  0  0  0  0  0  0
   -0.4599   -0.5440   -0.9271 C   0  0  0  0  0  0  0  0  0  0  0  0
   -0.9475    0.8383   -0.5150 C   0  0  0  0  0  0  0  0  0  0  0  0
    2.7676    0.2621    0.1326 H   0  0  0  0  0  0  0  0  0  0  0  0
    1.3016    1.3377    1.7929 H   0  0  0  0  0  0  0  0  0  0  0  0
   -1.1382    0.8535    1.7031 H   0  0  0  0  0  0  0  0  0  0  0  0
   -0.1376   -1.7226    0.9283 H   0  0  0  0  0  0  0  0  0  0  0  0
   -1.8998   -1.1730    0.5741 H   0  0  0  0  0  0  0  0  0  0  0  0
   -1.0060   -1.0269   -1.7296 H   0  0  0  0  0  0  0  0  0  0  0  0
   -0.3898    1.6679   -0.9527 H   0  0  0  0  0  0  0  0  0  0  0  0
   -2.0403    0.8776   -0.6204 H   0  0  0  0  0  0  0  0  0  0  0  0
  1  2  2  0
  2  3  1  0
  3  4  2  0
  4  5  1  0
  5  6  1  0
  6  7  1  0
  7  8  1  0
  7  2  1  0
  8  5  1  0
  3  9  1  0
  4 10  1  0
  5 11  1  0
  6 12  1  0
  6 13  1  0
  7 14  1  0
  8 15  1  0
  8 16  1  0
M  END
