
     RDKit          3D

 13 13  0  0  0  0  0  0  0  0999 V2000
   -1.4958   -2.0107    0.6784 O   0  0  0  0  0  0  0  0  0  0  0  0
   -0.7108   -1.0636    0.3938 C   0  0  0  0  0  0  0  0  0  0  0  0
    0.5966   -1.1846    0.4886 O   0  0  0  0  0  0  0  0  0  0  0  0
    1.4423   -0.2269    0.2030 C   0  0  0  0  0  0  0  0  0  0  0  0
    2.8319   -0.4266    0.3276 O   0  0  0  0  0  0  0  0  0  0  0  0
    0.9263    0.9786   -0.2221 C   0  0  0  0  0  0  0  0  0  0  0  0
   -0.4378    1.1505   -0.3363 C   0  0  0  0  0  0  0  0  0  0  0  0
   -1.2918    0.1144   -0.0248 C   0  0  0  0  0  0  0  0  0  0  0  0
   -2.6663    0.2310   -0.1209 O   0  0  0  0  0  0  0  0  0  0  0  0
    3.3717   -0.8857   -0.3694 H   0  0  0  0  0  0  0  0  0  0  0  0
    1.5759    1.8018   -0.4708 H   0  0  0  0  0  0  0  0  0  0  0  0
   -0.8903    2.0807   -0.6666 H   0  0  0  0  0  0  0  0  0  0  0  0
   -3.2520   -0.5587    0.1192 H   0  0  0  0  0  0  0  0  0  0  0  0
  1  2  2  0
  2  3  1  0
  3  4  1  0
  4  5  1  0
  4  6  2  0
  6  7  1  0
  7  8  2  0
  8  9  1  0
  8  2  1  0
  5 10  1  0
  6 11  1  0
  7 12  1  0
  9 13  1  0
M  END
