
     RDKit          3D

 17 19  0  0  0  0  0  0  0  0999 V2000
    2.3222    1.0700    0.9530 O   0  0  0  0  0  0  0  0  0  0  0  0
    1.2881    0.7101    0.4728 C   0  0  0  0  0  0  0  0  0  0  0  0
    0.0353    1.4857    0.3273 C   0  0  0  0  0  0  0  0  0  0  0  0
   -0.9056    0.5367   -0.3883 C   0  0  0  0  0  0  0  0  0  0  0  0
    0.1074   -0.2152   -1.2735 C   0  0  0  0  0  0  0  0  0  0  0  0
    1.0191   -0.6257   -0.0994 C   0  0  0  0  0  0  0  0  0  0  0  0
    0.0000   -1.3786    0.7318 C   0  0  0  0  0  0  0  0  0  0  0  0
   -0.6399   -0.7218    1.7648 O   0  0  0  0  0  0  0  0  0  0  0  0
   -1.2844   -0.5516    0.5636 C   0  0  0  0  0  0  0  0  0  0  0  0
    0.1451    2.4036   -0.2604 H   0  0  0  0  0  0  0  0  0  0  0  0
   -0.3189    1.7420    1.3388 H   0  0  0  0  0  0  0  0  0  0  0  0
   -1.6960    1.0004   -0.9422 H   0  0  0  0  0  0  0  0  0  0  0  0
    0.6051    0.4785   -1.9460 H   0  0  0  0  0  0  0  0  0  0  0  0
   -0.3505   -1.0943   -1.7486 H   0  0  0  0  0  0  0  0  0  0  0  0
    1.8737   -1.1947   -0.4053 H   0  0  0  0  0  0  0  0  0  0  0  0
   -0.0448   -2.4601    0.6116 H   0  0  0  0  0  0  0  0  0  0  0  0
   -2.1559   -1.1850    0.3000 H   0  0  0  0  0  0  0  0  0  0  0  0
  1  2  2  0
  2  3  1  0
  3  4  1  0
  4  5  1  0
  5  6  1  0
  6  7  1  0
  7  8  1  0
  8  9  1  0
  6  2  1  0
  9  7  1  0
  9  4  1  0
  3 10  1  0
  3 11  1  0
  4 12  1  0
  5 13  1  0
  5 14  1  0
  6 15  1  0
  7 16  1  0
  9 17  1  0
M  END
