
     RDKit          3D

 19 20  0  0  0  0  0  0  0  0999 V2000
   -2.5671    1.9111    1.0229 O   0  0  0  0  0  0  0  0  0  0  0  0
   -1.7977    1.1566    0.3891 C   0  0  0  0  0  0  0  0  0  0  0  0
   -2.1755   -0.1706   -0.2009 C   0  0  0  0  0  0  0  0  0  0  0  0
   -0.9215   -0.9929    0.0853 C   0  0  0  0  0  0  0  0  0  0  0  0
    0.1467    0.0345   -0.0075 C   0  0  0  0  0  0  0  0  0  0  0  0
    1.1552   -0.1223   -1.1119 C   0  0  0  0  0  0  0  0  0  0  0  0
    2.1691    0.4892   -0.1308 C   0  0  0  0  0  0  0  0  0  0  0  0
    1.2991   -0.1177    0.9742 C   0  0  0  0  0  0  0  0  0  0  0  0
   -0.4534    1.3092    0.0624 O   0  0  0  0  0  0  0  0  0  0  0  0
   -2.2293   -0.0572   -1.2935 H   0  0  0  0  0  0  0  0  0  0  0  0
   -3.0687   -0.5810    0.2710 H   0  0  0  0  0  0  0  0  0  0  0  0
   -1.0142   -1.3720    1.1457 H   0  0  0  0  0  0  0  0  0  0  0  0
   -0.8115   -1.8312   -0.6202 H   0  0  0  0  0  0  0  0  0  0  0  0
    1.0300    0.5148   -1.9930 H   0  0  0  0  0  0  0  0  0  0  0  0
    1.3800   -1.1933   -1.3086 H   0  0  0  0  0  0  0  0  0  0  0  0
    2.0566    1.5946   -0.0924 H   0  0  0  0  0  0  0  0  0  0  0  0
    3.1767    0.0899   -0.2031 H   0  0  0  0  0  0  0  0  0  0  0  0
    1.1319    0.5219    1.8374 H   0  0  0  0  0  0  0  0  0  0  0  0
    1.4935   -1.1836    1.1741 H   0  0  0  0  0  0  0  0  0  0  0  0
  1  2  2  0
  2  3  1  0
  3  4  1  0
  4  5  1  0
  5  6  1  0
  6  7  1  0
  7  8  1  0
  5  9  1  0
  9  2  1  0
  8  5  1  0
  3 10  1  0
  3 11  1  0
  4 12  1  0
  4 13  1  0
  6 14  1  0
  6 15  1  0
  7 16  1  0
  7 17  1  0
  8 18  1  0
  8 19  1  0
M  END
