
     RDKit          3D

 14 15  0  0  0  0  0  0  0  0999 V2000
    3.3053    0.2778    0.4046 O   0  0  0  0  0  0  0  0  0  0  0  0
    2.0703    0.1371    0.2088 C   0  0  0  0  0  0  0  0  0  0  0  0
    1.3245   -0.9529   -0.4194 C   0  0  0  0  0  0  0  0  0  0  0  0
    0.0564   -0.6355   -0.3941 C   0  0  0  0  0  0  0  0  0  0  0  0
   -1.4175   -0.4945   -0.4768 C   0  0  0  0  0  0  0  0  0  0  0  0
   -1.2343    0.3998    0.7892 C   0  0  0  0  0  0  0  0  0  0  0  0
   -0.0229    0.8374    0.0176 C   0  0  0  0  0  0  0  0  0  0  0  0
    1.1613    1.1329    0.6224 O   0  0  0  0  0  0  0  0  0  0  0  0
    1.7866   -1.8433   -0.8187 H   0  0  0  0  0  0  0  0  0  0  0  0
   -1.6941    0.1749   -1.3026 H   0  0  0  0  0  0  0  0  0  0  0  0
   -2.0137   -1.3795   -0.2977 H   0  0  0  0  0  0  0  0  0  0  0  0
   -0.9542   -0.1982    1.6672 H   0  0  0  0  0  0  0  0  0  0  0  0
   -2.0582    1.0998    0.8777 H   0  0  0  0  0  0  0  0  0  0  0  0
   -0.3095    1.4443   -0.8780 H   0  0  0  0  0  0  0  0  0  0  0  0
  1  2  2  0
  2  3  1  0
  3  4  2  0
  4  5  1  0
  5  6  1  0
  6  7  1  0
  7  8  1  0
  8  2  1  0
  7  4  1  0
  3  9  1  0
  5 10  1  0
  5 11  1  0
  6 12  1  0
  6 13  1  0
  7 14  1  0
M  END
