
     RDKit          3D

 17 18  0  0  0  0  0  0  0  0999 V2000
   -2.4969    0.1638   -1.5396 O   0  0  0  0  0  0  0  0  0  0  0  0
   -1.5846    0.3417   -0.7660 C   0  0  0  0  0  0  0  0  0  0  0  0
   -1.0414    1.6362   -0.2250 C   0  0  0  0  0  0  0  0  0  0  0  0
    0.3138    1.4171   -0.2213 O   0  0  0  0  0  0  0  0  0  0  0  0
    0.5701    0.1064    0.0512 C   0  0  0  0  0  0  0  0  0  0  0  0
    1.6485   -0.2859    0.9454 C   0  0  0  0  0  0  0  0  0  0  0  0
    1.7840   -0.5760   -0.5466 C   0  0  0  0  0  0  0  0  0  0  0  0
   -0.7008   -0.6815   -0.0972 C   0  0  0  0  0  0  0  0  0  0  0  0
   -1.2393   -1.0236    1.1575 O   0  0  0  0  0  0  0  0  0  0  0  0
   -1.3346    2.4915   -0.8510 H   0  0  0  0  0  0  0  0  0  0  0  0
   -1.4573    1.8296    0.8015 H   0  0  0  0  0  0  0  0  0  0  0  0
    2.3335    0.5432    1.2873 H   0  0  0  0  0  0  0  0  0  0  0  0
    1.6217   -1.1194    1.6536 H   0  0  0  0  0  0  0  0  0  0  0  0
    1.7075   -1.6725   -0.7719 H   0  0  0  0  0  0  0  0  0  0  0  0
    2.4982    0.0020   -1.1428 H   0  0  0  0  0  0  0  0  0  0  0  0
   -0.5953   -1.5810   -0.7069 H   0  0  0  0  0  0  0  0  0  0  0  0
   -2.0269   -1.5916    0.9720 H   0  0  0  0  0  0  0  0  0  0  0  0
  1  2  2  0
  2  3  1  0
  3  4  1  0
  4  5  1  0
  5  6  1  0
  6  7  1  0
  5  8  1  0
  8  9  1  0
  8  2  1  0
  7  5  1  0
  3 10  1  0
  3 11  1  0
  6 12  1  0
  6 13  1  0
  7 14  1  0
  7 15  1  0
  8 16  1  0
  9 17  1  0
M  END
