
     RDKit          3D

 13 14  0  0  0  0  0  0  0  0999 V2000
   -0.9338    2.6654    0.4844 O   0  0  0  0  0  0  0  0  0  0  0  0
   -0.9461    1.4140    0.2702 C   0  0  0  0  0  0  0  0  0  0  0  0
   -2.0738    0.6338    0.1620 O   0  0  0  0  0  0  0  0  0  0  0  0
   -1.6699   -0.6859   -0.0735 C   0  0  0  0  0  0  0  0  0  0  0  0
   -0.1926   -0.6936   -0.1082 C   0  0  0  0  0  0  0  0  0  0  0  0
    0.8573   -1.4927   -0.2690 O   0  0  0  0  0  0  0  0  0  0  0  0
    1.9555   -0.7704   -0.1700 C   0  0  0  0  0  0  0  0  0  0  0  0
    1.6118    0.5485    0.0639 C   0  0  0  0  0  0  0  0  0  0  0  0
    0.2363    0.5857    0.1014 C   0  0  0  0  0  0  0  0  0  0  0  0
   -2.0612   -1.3762    0.7093 H   0  0  0  0  0  0  0  0  0  0  0  0
   -2.0215   -1.0102   -1.0959 H   0  0  0  0  0  0  0  0  0  0  0  0
    2.9355   -1.1967   -0.2653 H   0  0  0  0  0  0  0  0  0  0  0  0
    2.3025    1.3785    0.1906 H   0  0  0  0  0  0  0  0  0  0  0  0
  1  2  2  0
  2  3  1  0
  3  4  1  0
  4  5  1  0
  5  6  1  0
  6  7  1  0
  7  8  2  0
  8  9  1  0
  9  2  1  0
  9  5  2  0
  4 10  1  0
  4 11  1  0
  7 12  1  0
  8 13  1  0
M  END
