
     RDKit          3D

 16 17  0  0  0  0  0  0  0  0999 V2000
   -2.2158    1.2846    1.5743 O   0  0  0  0  0  0  0  0  0  0  0  0
   -1.3076    0.6404    1.0358 C   0  0  0  0  0  0  0  0  0  0  0  0
   -1.6140   -0.1946   -0.1383 C   0  0  0  0  0  0  0  0  0  0  0  0
   -0.4480   -0.0377   -1.0946 C   0  0  0  0  0  0  0  0  0  0  0  0
    0.7626   -0.5921   -0.4147 C   0  0  0  0  0  0  0  0  0  0  0  0
    1.9042    0.3442   -0.0609 C   0  0  0  0  0  0  0  0  0  0  0  0
    0.9994   -0.1958    0.9644 C   0  0  0  0  0  0  0  0  0  0  0  0
   -0.0129    0.6770    1.4983 O   0  0  0  0  0  0  0  0  0  0  0  0
   -2.5785    0.0601   -0.6141 H   0  0  0  0  0  0  0  0  0  0  0  0
   -1.7025   -1.2835    0.1470 H   0  0  0  0  0  0  0  0  0  0  0  0
   -0.2908    1.0607   -1.2229 H   0  0  0  0  0  0  0  0  0  0  0  0
   -0.6455   -0.5060   -2.0561 H   0  0  0  0  0  0  0  0  0  0  0  0
    1.0389   -1.6259   -0.7585 H   0  0  0  0  0  0  0  0  0  0  0  0
    1.7770    1.3520   -0.4928 H   0  0  0  0  0  0  0  0  0  0  0  0
    2.9346   -0.0865   -0.0854 H   0  0  0  0  0  0  0  0  0  0  0  0
    1.3989   -0.8966    1.7186 H   0  0  0  0  0  0  0  0  0  0  0  0
  1  2  2  0
  2  3  1  0
  3  4  1  0
  4  5  1  0
  5  6  1  0
  6  7  1  0
  7  8  1  0
  8  2  1  0
  7  5  1  0
  3  9  1  0
  3 10  1  0
  4 11  1  0
  4 12  1  0
  5 13  1  0
  6 14  1  0
  6 15  1  0
  7 16  1  0
M  END
