
     RDKit          3D

 19 20  0  0  0  0  0  0  0  0999 V2000
    2.5617   -0.3491    1.6919 O   0  0  0  0  0  0  0  0  0  0  0  0
    1.7291    0.1313    0.9107 C   0  0  0  0  0  0  0  0  0  0  0  0
    1.8002   -0.0378   -0.5876 C   0  0  0  0  0  0  0  0  0  0  0  0
    0.3196   -0.0160   -0.8957 C   0  0  0  0  0  0  0  0  0  0  0  0
   -0.3514   -1.1627   -0.2164 C   0  0  0  0  0  0  0  0  0  0  0  0
   -1.5042   -0.6125    0.5889 C   0  0  0  0  0  0  0  0  0  0  0  0
   -1.6011    0.8333    0.1010 C   0  0  0  0  0  0  0  0  0  0  0  0
   -0.1197    1.1605   -0.0121 C   0  0  0  0  0  0  0  0  0  0  0  0
    0.5863    0.8991    1.1648 O   0  0  0  0  0  0  0  0  0  0  0  0
    2.3000   -0.9613   -0.8746 H   0  0  0  0  0  0  0  0  0  0  0  0
    2.2365    0.8843   -0.9750 H   0  0  0  0  0  0  0  0  0  0  0  0
    0.0779    0.1288   -1.9383 H   0  0  0  0  0  0  0  0  0  0  0  0
    0.3740   -1.6750    0.4805 H   0  0  0  0  0  0  0  0  0  0  0  0
   -0.6844   -1.9436   -0.9152 H   0  0  0  0  0  0  0  0  0  0  0  0
   -2.4197   -1.1777    0.4220 H   0  0  0  0  0  0  0  0  0  0  0  0
   -1.2477   -0.5295    1.6792 H   0  0  0  0  0  0  0  0  0  0  0  0
   -2.1366    1.4780    0.7890 H   0  0  0  0  0  0  0  0  0  0  0  0
   -1.9945    0.8268   -0.9381 H   0  0  0  0  0  0  0  0  0  0  0  0
    0.0740    2.1232   -0.4750 H   0  0  0  0  0  0  0  0  0  0  0  0
  1  2  2  0
  2  3  1  0
  3  4  1  0
  4  5  1  0
  5  6  1  0
  6  7  1  0
  7  8  1  0
  8  9  1  0
  9  2  1  0
  8  4  1  0
  3 10  1  0
  3 11  1  0
  4 12  1  0
  5 13  1  0
  5 14  1  0
  6 15  1  0
  6 16  1  0
  7 17  1  0
  7 18  1  0
  8 19  1  0
M  END
