
     RDKit          3D

 17 18  0  0  0  0  0  0  0  0999 V2000
   -0.7330   -2.2436   -1.1123 O   0  0  0  0  0  0  0  0  0  0  0  0
   -0.4244   -1.2025   -0.5703 C   0  0  0  0  0  0  0  0  0  0  0  0
   -1.4670   -0.5551    0.2641 C   0  0  0  0  0  0  0  0  0  0  0  0
   -1.3751    0.9452   -0.0244 C   0  0  0  0  0  0  0  0  0  0  0  0
   -0.0141    1.3523    0.4135 C   0  0  0  0  0  0  0  0  0  0  0  0
    0.1265    2.2353    1.2390 O   0  0  0  0  0  0  0  0  0  0  0  0
    1.1528    0.6793   -0.1591 C   0  0  0  0  0  0  0  0  0  0  0  0
    1.7202   -0.4922    0.5134 C   0  0  0  0  0  0  0  0  0  0  0  0
    0.9065   -0.6446   -0.7493 C   0  0  0  0  0  0  0  0  0  0  0  0
   -2.4597   -0.8765   -0.0413 H   0  0  0  0  0  0  0  0  0  0  0  0
   -1.2468   -0.7478    1.3342 H   0  0  0  0  0  0  0  0  0  0  0  0
   -2.1243    1.5114    0.5276 H   0  0  0  0  0  0  0  0  0  0  0  0
   -1.4830    1.0480   -1.1339 H   0  0  0  0  0  0  0  0  0  0  0  0
    1.8417    1.3653   -0.7163 H   0  0  0  0  0  0  0  0  0  0  0  0
    1.3259   -0.8811    1.4732 H   0  0  0  0  0  0  0  0  0  0  0  0
    2.8364   -0.6114    0.4348 H   0  0  0  0  0  0  0  0  0  0  0  0
    1.4172   -0.8821   -1.6928 H   0  0  0  0  0  0  0  0  0  0  0  0
  1  2  2  0
  2  3  1  0
  3  4  1  0
  4  5  1  0
  5  6  2  0
  5  7  1  0
  7  8  1  0
  8  9  1  0
  9  2  1  0
  9  7  1  0
  3 10  1  0
  3 11  1  0
  4 12  1  0
  4 13  1  0
  7 14  1  0
  8 15  1  0
  8 16  1  0
  9 17  1  0
M  END
