
     RDKit          3D

 16 17  0  0  0  0  0  0  0  0999 V2000
    2.0708   -0.4669    1.5966 O   0  0  0  0  0  0  0  0  0  0  0  0
    1.4238   -0.4187    0.5682 C   0  0  0  0  0  0  0  0  0  0  0  0
    1.1347    0.6450   -0.4298 C   0  0  0  0  0  0  0  0  0  0  0  0
   -0.1241    1.3449    0.0221 C   0  0  0  0  0  0  0  0  0  0  0  0
   -1.2225    0.3790    0.2713 C   0  0  0  0  0  0  0  0  0  0  0  0
   -0.9028   -1.0421   -0.0699 C   0  0  0  0  0  0  0  0  0  0  0  0
    0.5824   -1.2243   -0.3207 C   0  0  0  0  0  0  0  0  0  0  0  0
    0.8860   -0.3367   -1.3813 O   0  0  0  0  0  0  0  0  0  0  0  0
    1.9632    1.2808   -0.7289 H   0  0  0  0  0  0  0  0  0  0  0  0
    0.1323    1.8255    1.0120 H   0  0  0  0  0  0  0  0  0  0  0  0
   -0.4064    2.1924   -0.6395 H   0  0  0  0  0  0  0  0  0  0  0  0
   -1.5772    0.3807    1.3435 H   0  0  0  0  0  0  0  0  0  0  0  0
   -2.1266    0.7384   -0.3027 H   0  0  0  0  0  0  0  0  0  0  0  0
   -1.3901   -1.2566   -1.0669 H   0  0  0  0  0  0  0  0  0  0  0  0
   -1.3121   -1.7758    0.6254 H   0  0  0  0  0  0  0  0  0  0  0  0
    0.8686   -2.2656   -0.4994 H   0  0  0  0  0  0  0  0  0  0  0  0
  1  2  2  0
  2  3  1  0
  3  4  1  0
  4  5  1  0
  5  6  1  0
  6  7  1  0
  7  8  1  0
  7  2  1  0
  8  3  1  0
  3  9  1  0
  4 10  1  0
  4 11  1  0
  5 12  1  0
  5 13  1  0
  6 14  1  0
  6 15  1  0
  7 16  1  0
M  END
