
     RDKit          3D

 19 19  0  0  0  0  0  0  0  0999 V2000
   -1.6333   -1.7051    0.8344 O   0  0  0  0  0  0  0  0  0  0  0  0
   -0.8112   -1.0825    0.1952 C   0  0  0  0  0  0  0  0  0  0  0  0
    0.4961   -1.7761    0.1996 C   0  0  0  0  0  0  0  0  0  0  0  0
    1.5271   -0.8485   -0.4582 C   0  0  0  0  0  0  0  0  0  0  0  0
    1.7346    0.1929    0.4228 O   0  0  0  0  0  0  0  0  0  0  0  0
    1.0424    1.3487    0.0777 C   0  0  0  0  0  0  0  0  0  0  0  0
    0.0191    1.6572    0.9260 O   0  0  0  0  0  0  0  0  0  0  0  0
   -1.2399    1.3422    0.5285 C   0  0  0  0  0  0  0  0  0  0  0  0
   -1.3735    0.1603   -0.3794 C   0  0  0  0  0  0  0  0  0  0  0  0
    0.4840   -2.7683   -0.2531 H   0  0  0  0  0  0  0  0  0  0  0  0
    0.7806   -1.9065    1.2847 H   0  0  0  0  0  0  0  0  0  0  0  0
    2.4371   -1.3930   -0.7453 H   0  0  0  0  0  0  0  0  0  0  0  0
    1.0132   -0.4111   -1.3626 H   0  0  0  0  0  0  0  0  0  0  0  0
    1.8039    2.1792    0.1706 H   0  0  0  0  0  0  0  0  0  0  0  0
    0.7549    1.3632   -0.9961 H   0  0  0  0  0  0  0  0  0  0  0  0
   -1.8464    1.1162    1.4430 H   0  0  0  0  0  0  0  0  0  0  0  0
   -1.7493    2.1987    0.0393 H   0  0  0  0  0  0  0  0  0  0  0  0
   -2.4672   -0.0109   -0.5252 H   0  0  0  0  0  0  0  0  0  0  0  0
   -0.9721    0.3435   -1.4020 H   0  0  0  0  0  0  0  0  0  0  0  0
  1  2  2  0
  2  3  1  0
  3  4  1  0
  4  5  1  0
  5  6  1  0
  6  7  1  0
  7  8  1  0
  8  9  1  0
  9  2  1  0
  3 10  1  0
  3 11  1  0
  4 12  1  0
  4 13  1  0
  6 14  1  0
  6 15  1  0
  8 16  1  0
  8 17  1  0
  9 18  1  0
  9 19  1  0
M  END
