
     RDKit          3D

 15 16  0  0  0  0  0  0  0  0999 V2000
   -2.4383   -0.6556    1.6588 O   0  0  0  0  0  0  0  0  0  0  0  0
   -1.8771   -0.3069    0.5737 C   0  0  0  0  0  0  0  0  0  0  0  0
   -1.5853    0.9800    0.1526 O   0  0  0  0  0  0  0  0  0  0  0  0
   -0.4065    0.8836   -0.6221 C   0  0  0  0  0  0  0  0  0  0  0  0
    0.7340    1.3125    0.2264 C   0  0  0  0  0  0  0  0  0  0  0  0
    1.4494    0.2728    0.6066 C   0  0  0  0  0  0  0  0  0  0  0  0
    0.8686   -0.9854    0.0537 C   0  0  0  0  0  0  0  0  0  0  0  0
   -0.2171   -0.5831   -0.8854 C   0  0  0  0  0  0  0  0  0  0  0  0
   -1.4318   -1.1458   -0.4328 O   0  0  0  0  0  0  0  0  0  0  0  0
   -0.4866    1.4870   -1.5554 H   0  0  0  0  0  0  0  0  0  0  0  0
    0.9376    2.3369    0.4880 H   0  0  0  0  0  0  0  0  0  0  0  0
    2.3322    0.3258    1.2308 H   0  0  0  0  0  0  0  0  0  0  0  0
    0.4827   -1.5776    0.9214 H   0  0  0  0  0  0  0  0  0  0  0  0
    1.6467   -1.5377   -0.4718 H   0  0  0  0  0  0  0  0  0  0  0  0
   -0.0085   -0.8066   -1.9445 H   0  0  0  0  0  0  0  0  0  0  0  0
  1  2  2  0
  2  3  1  0
  3  4  1  0
  4  5  1  0
  5  6  2  0
  6  7  1  0
  7  8  1  0
  8  9  1  0
  9  2  1  0
  8  4  1  0
  4 10  1  0
  5 11  1  0
  6 12  1  0
  7 13  1  0
  7 14  1  0
  8 15  1  0
M  END
