
     RDKit          3D

 15 17  0  0  0  0  0  0  0  0999 V2000
   -1.8345    1.8694   -1.2654 O   0  0  0  0  0  0  0  0  0  0  0  0
   -1.3391    0.7692   -0.9594 C   0  0  0  0  0  0  0  0  0  0  0  0
   -1.0938   -0.3608   -1.7385 O   0  0  0  0  0  0  0  0  0  0  0  0
   -0.2447   -0.8168   -0.7169 C   0  0  0  0  0  0  0  0  0  0  0  0
    1.1912   -0.5287   -0.7363 C   0  0  0  0  0  0  0  0  0  0  0  0
    1.5353    0.4054    0.1331 C   0  0  0  0  0  0  0  0  0  0  0  0
    0.3566    0.9004    0.8882 C   0  0  0  0  0  0  0  0  0  0  0  0
   -0.8123    0.1770    0.2844 C   0  0  0  0  0  0  0  0  0  0  0  0
   -0.8836   -1.2750    0.5308 C   0  0  0  0  0  0  0  0  0  0  0  0
    1.9158   -1.0151   -1.3845 H   0  0  0  0  0  0  0  0  0  0  0  0
    2.5442    0.7998    0.3134 H   0  0  0  0  0  0  0  0  0  0  0  0
    0.2594    1.9896    0.8963 H   0  0  0  0  0  0  0  0  0  0  0  0
    0.4869    0.5283    1.9457 H   0  0  0  0  0  0  0  0  0  0  0  0
   -1.8833   -1.7395    0.5190 H   0  0  0  0  0  0  0  0  0  0  0  0
   -0.1981   -1.7032    1.2901 H   0  0  0  0  0  0  0  0  0  0  0  0
  1  2  2  0
  2  3  1  0
  3  4  1  0
  4  5  1  0
  5  6  2  0
  6  7  1  0
  7  8  1  0
  8  9  1  0
  8  2  1  0
  8  4  1  0
  9  4  1  0
  5 10  1  0
  6 11  1  0
  7 12  1  0
  7 13  1  0
  9 14  1  0
  9 15  1  0
M  END
