
     RDKit          3D

 13 13  0  0  0  0  0  0  0  0999 V2000
    1.0482    2.0286    0.4693 O   0  0  0  0  0  0  0  0  0  0  0  0
    0.5077    0.9528    0.2956 C   0  0  0  0  0  0  0  0  0  0  0  0
    1.3392   -0.2722    0.1742 C   0  0  0  0  0  0  0  0  0  0  0  0
    0.5730   -1.4325    0.2777 O   0  0  0  0  0  0  0  0  0  0  0  0
   -0.6508   -1.1932   -0.3381 C   0  0  0  0  0  0  0  0  0  0  0  0
   -1.3833   -0.3610    0.5023 O   0  0  0  0  0  0  0  0  0  0  0  0
   -0.9762    0.9394    0.2155 C   0  0  0  0  0  0  0  0  0  0  0  0
    2.1590   -0.2708    0.9009 H   0  0  0  0  0  0  0  0  0  0  0  0
    1.7743   -0.2842   -0.8554 H   0  0  0  0  0  0  0  0  0  0  0  0
   -0.4597   -0.7314   -1.3268 H   0  0  0  0  0  0  0  0  0  0  0  0
   -1.2222   -2.1430   -0.4229 H   0  0  0  0  0  0  0  0  0  0  0  0
   -1.4336    1.6228    0.9427 H   0  0  0  0  0  0  0  0  0  0  0  0
   -1.2756    1.1447   -0.8353 H   0  0  0  0  0  0  0  0  0  0  0  0
  1  2  2  0
  2  3  1  0
  3  4  1  0
  4  5  1  0
  5  6  1  0
  6  7  1  0
  7  2  1  0
  3  8  1  0
  3  9  1  0
  5 10  1  0
  5 11  1  0
  7 12  1  0
  7 13  1  0
M  END
