
     RDKit          3D

 14 16  0  0  0  0  0  0  0  0999 V2000
    0.9704    2.2174   -0.4399 O   0  0  0  0  0  0  0  0  0  0  0  0
    0.8864    1.0438   -0.1984 C   0  0  0  0  0  0  0  0  0  0  0  0
    1.8243   -0.0525    0.0180 C   0  0  0  0  0  0  0  0  0  0  0  0
    2.0583   -1.1478   -0.6754 O   0  0  0  0  0  0  0  0  0  0  0  0
    0.7530   -0.8358   -0.8023 C   0  0  0  0  0  0  0  0  0  0  0  0
   -0.1155    0.0261    0.0194 C   0  0  0  0  0  0  0  0  0  0  0  0
   -1.5289    0.1143   -0.2816 C   0  0  0  0  0  0  0  0  0  0  0  0
   -0.9759   -0.2314    1.0917 C   0  0  0  0  0  0  0  0  0  0  0  0
    1.8103   -0.3050    1.1288 H   0  0  0  0  0  0  0  0  0  0  0  0
    0.6083   -0.4804   -1.8764 H   0  0  0  0  0  0  0  0  0  0  0  0
   -1.9951   -0.7268   -0.8470 H   0  0  0  0  0  0  0  0  0  0  0  0
   -1.9721    1.0897   -0.4689 H   0  0  0  0  0  0  0  0  0  0  0  0
   -1.1906    0.5450    1.8508 H   0  0  0  0  0  0  0  0  0  0  0  0
   -1.1329   -1.2567    1.4810 H   0  0  0  0  0  0  0  0  0  0  0  0
  1  2  2  0
  2  3  1  0
  3  4  1  0
  4  5  1  0
  5  6  1  0
  6  7  1  0
  7  8  1  0
  6  2  1  0
  5  3  1  0
  8  6  1  0
  3  9  1  0
  5 10  1  0
  7 11  1  0
  7 12  1  0
  8 13  1  0
  8 14  1  0
M  END
