
     RDKit          3D

 16 16  0  0  0  0  0  0  0  0999 V2000
   -0.3248    2.9468    0.4213 O   0  0  0  0  0  0  0  0  0  0  0  0
   -0.3645    1.7159    0.2506 C   0  0  0  0  0  0  0  0  0  0  0  0
    0.8680    1.0017   -0.0808 C   0  0  0  0  0  0  0  0  0  0  0  0
    0.8225   -0.4683    0.1539 C   0  0  0  0  0  0  0  0  0  0  0  0
    1.7492   -1.0414   -0.7424 O   0  0  0  0  0  0  0  0  0  0  0  0
   -0.4704   -1.1409   -0.0221 C   0  0  0  0  0  0  0  0  0  0  0  0
   -1.7018   -0.3480    0.1623 C   0  0  0  0  0  0  0  0  0  0  0  0
   -1.5180    1.0251    0.3641 O   0  0  0  0  0  0  0  0  0  0  0  0
    1.0783    1.1861   -1.1661 H   0  0  0  0  0  0  0  0  0  0  0  0
    1.6949    1.4553    0.5235 H   0  0  0  0  0  0  0  0  0  0  0  0
    1.2597   -0.6601    1.1705 H   0  0  0  0  0  0  0  0  0  0  0  0
    2.6717   -0.8498   -0.5078 H   0  0  0  0  0  0  0  0  0  0  0  0
   -0.5364   -1.6358   -1.0385 H   0  0  0  0  0  0  0  0  0  0  0  0
   -0.5045   -2.0305    0.6776 H   0  0  0  0  0  0  0  0  0  0  0  0
   -2.3012   -0.7164    1.0381 H   0  0  0  0  0  0  0  0  0  0  0  0
   -2.4226   -0.4397   -0.7048 H   0  0  0  0  0  0  0  0  0  0  0  0
  1  2  2  0
  2  3  1  0
  3  4  1  0
  4  5  1  0
  4  6  1  0
  6  7  1  0
  7  8  1  0
  8  2  1  0
  3  9  1  0
  3 10  1  0
  4 11  1  0
  5 12  1  0
  6 13  1  0
  6 14  1  0
  7 15  1  0
  7 16  1  0
M  END
