
     RDKit          3D

 17 17  0  0  0  0  0  0  0  0999 V2000
   -2.5388    1.1192    1.1048 O   0  0  0  0  0  0  0  0  0  0  0  0
   -1.5751    0.6047    0.4855 C   0  0  0  0  0  0  0  0  0  0  0  0
   -0.5792    1.4550   -0.1330 C   0  0  0  0  0  0  0  0  0  0  0  0
    0.6765    1.2539   -0.5003 C   0  0  0  0  0  0  0  0  0  0  0  0
    1.4604    0.0048   -0.3655 C   0  0  0  0  0  0  0  0  0  0  0  0
    2.3683    0.0450    0.6834 O   0  0  0  0  0  0  0  0  0  0  0  0
    0.5877   -1.2230   -0.3404 C   0  0  0  0  0  0  0  0  0  0  0  0
   -0.2611   -1.2726    0.7393 O   0  0  0  0  0  0  0  0  0  0  0  0
   -1.5643   -0.8997    0.4552 C   0  0  0  0  0  0  0  0  0  0  0  0
   -0.9527    2.4631   -0.3310 H   0  0  0  0  0  0  0  0  0  0  0  0
    1.1554    2.1170   -0.9450 H   0  0  0  0  0  0  0  0  0  0  0  0
    2.0767   -0.0731   -1.3069 H   0  0  0  0  0  0  0  0  0  0  0  0
    1.9798    0.2759    1.5454 H   0  0  0  0  0  0  0  0  0  0  0  0
    0.0548   -1.2704   -1.3180 H   0  0  0  0  0  0  0  0  0  0  0  0
    1.2721   -2.1003   -0.2854 H   0  0  0  0  0  0  0  0  0  0  0  0
   -2.3123   -1.3382    1.1140 H   0  0  0  0  0  0  0  0  0  0  0  0
   -1.8482   -1.1613   -0.6022 H   0  0  0  0  0  0  0  0  0  0  0  0
  1  2  2  0
  2  3  1  0
  3  4  2  0
  4  5  1  0
  5  6  1  0
  5  7  1  0
  7  8  1  0
  8  9  1  0
  9  2  1  0
  3 10  1  0
  4 11  1  0
  5 12  1  0
  6 13  1  0
  7 14  1  0
  7 15  1  0
  9 16  1  0
  9 17  1  0
M  END
