
     RDKit          3D

 14 15  0  0  0  0  0  0  0  0999 V2000
   -0.7359   -0.4200   -2.2391 O   0  0  0  0  0  0  0  0  0  0  0  0
   -0.7868   -0.2954   -1.0294 C   0  0  0  0  0  0  0  0  0  0  0  0
   -1.6953    0.2237    0.0287 C   0  0  0  0  0  0  0  0  0  0  0  0
   -0.8945   -0.4448    1.1080 C   0  0  0  0  0  0  0  0  0  0  0  0
   -0.2417   -1.6258    0.8978 O   0  0  0  0  0  0  0  0  0  0  0  0
    0.1666   -0.6605    0.0229 C   0  0  0  0  0  0  0  0  0  0  0  0
    1.4604    0.0743    0.1936 C   0  0  0  0  0  0  0  0  0  0  0  0
    1.5722    0.9832   -0.8623 O   0  0  0  0  0  0  0  0  0  0  0  0
   -2.7551   -0.0819   -0.0600 H   0  0  0  0  0  0  0  0  0  0  0  0
   -1.5889    1.3480    0.0728 H   0  0  0  0  0  0  0  0  0  0  0  0
   -0.6010    0.1006    2.0188 H   0  0  0  0  0  0  0  0  0  0  0  0
    1.4970    0.6717    1.1307 H   0  0  0  0  0  0  0  0  0  0  0  0
    2.3294   -0.6124    0.2256 H   0  0  0  0  0  0  0  0  0  0  0  0
    2.2736    0.7393   -1.5082 H   0  0  0  0  0  0  0  0  0  0  0  0
  1  2  2  0
  2  3  1  0
  3  4  1  0
  4  5  1  0
  5  6  1  0
  6  7  1  0
  7  8  1  0
  6  2  1  0
  6  4  1  0
  3  9  1  0
  3 10  1  0
  4 11  1  0
  7 12  1  0
  7 13  1  0
  8 14  1  0
M  END
