
     RDKit          3D

 14 15  0  0  0  0  0  0  0  0999 V2000
   -0.2363    1.7739   -1.9497 O   0  0  0  0  0  0  0  0  0  0  0  0
   -0.3418    1.0434   -0.9574 C   0  0  0  0  0  0  0  0  0  0  0  0
   -1.5214    0.4334   -0.5604 O   0  0  0  0  0  0  0  0  0  0  0  0
   -1.6503   -0.3303    0.6203 C   0  0  0  0  0  0  0  0  0  0  0  0
   -0.4096   -0.6928    1.2006 O   0  0  0  0  0  0  0  0  0  0  0  0
    0.4857   -0.7789    0.2052 C   0  0  0  0  0  0  0  0  0  0  0  0
    1.7626   -0.2514   -0.0576 C   0  0  0  0  0  0  0  0  0  0  0  0
    0.7689    0.7426   -0.0928 C   0  0  0  0  0  0  0  0  0  0  0  0
   -2.0982   -1.3164    0.2989 H   0  0  0  0  0  0  0  0  0  0  0  0
   -2.3419    0.0925    1.3486 H   0  0  0  0  0  0  0  0  0  0  0  0
    0.0350   -1.3797   -0.6456 H   0  0  0  0  0  0  0  0  0  0  0  0
    2.5204   -0.2256    0.7770 H   0  0  0  0  0  0  0  0  0  0  0  0
    2.3024   -0.5415   -0.9983 H   0  0  0  0  0  0  0  0  0  0  0  0
    0.7246    1.4308    0.8112 H   0  0  0  0  0  0  0  0  0  0  0  0
  1  2  2  0
  2  3  1  0
  3  4  1  0
  4  5  1  0
  5  6  1  0
  6  7  1  0
  7  8  1  0
  8  2  1  0
  8  6  1  0
  4  9  1  0
  4 10  1  0
  6 11  1  0
  7 12  1  0
  7 13  1  0
  8 14  1  0
M  END
