
     RDKit          3D

 19 20  0  0  0  0  0  0  0  0999 V2000
    2.6951   -1.1369    1.1189 O   0  0  0  0  0  0  0  0  0  0  0  0
    1.9704   -0.6583    0.2742 C   0  0  0  0  0  0  0  0  0  0  0  0
    1.2172   -1.0999   -0.9521 C   0  0  0  0  0  0  0  0  0  0  0  0
    0.2436    0.0275   -0.6892 C   0  0  0  0  0  0  0  0  0  0  0  0
   -0.8354   -0.3291    0.3076 C   0  0  0  0  0  0  0  0  0  0  0  0
   -1.8697    0.7384    0.6441 C   0  0  0  0  0  0  0  0  0  0  0  0
   -2.2407   -0.5133   -0.1082 C   0  0  0  0  0  0  0  0  0  0  0  0
    1.4262    0.7074    0.0127 C   0  0  0  0  0  0  0  0  0  0  0  0
    1.1035    1.4224    1.1326 O   0  0  0  0  0  0  0  0  0  0  0  0
    1.8472   -0.9360   -1.8294 H   0  0  0  0  0  0  0  0  0  0  0  0
    0.8247   -2.1115   -0.7957 H   0  0  0  0  0  0  0  0  0  0  0  0
   -0.0837    0.5082   -1.6075 H   0  0  0  0  0  0  0  0  0  0  0  0
   -0.4793   -0.9962    1.1141 H   0  0  0  0  0  0  0  0  0  0  0  0
   -2.1353    0.8121    1.7287 H   0  0  0  0  0  0  0  0  0  0  0  0
   -1.8621    1.6894    0.0966 H   0  0  0  0  0  0  0  0  0  0  0  0
   -2.5468   -0.3395   -1.1738 H   0  0  0  0  0  0  0  0  0  0  0  0
   -2.8798   -1.2823    0.3740 H   0  0  0  0  0  0  0  0  0  0  0  0
    2.0421    1.1997   -0.7574 H   0  0  0  0  0  0  0  0  0  0  0  0
    1.5629    2.2980    1.1098 H   0  0  0  0  0  0  0  0  0  0  0  0
  1  2  2  0
  2  3  1  0
  3  4  1  0
  4  5  1  0
  5  6  1  0
  6  7  1  0
  4  8  1  0
  8  9  1  0
  8  2  1  0
  7  5  1  0
  3 10  1  0
  3 11  1  0
  4 12  1  0
  5 13  1  0
  6 14  1  0
  6 15  1  0
  7 16  1  0
  7 17  1  0
  8 18  1  0
  9 19  1  0
M  END
