
     RDKit          3D

 17 18  0  0  0  0  0  0  0  0999 V2000
    1.2156    2.1990    0.9827 O   0  0  0  0  0  0  0  0  0  0  0  0
    0.9533    1.2204    0.3143 C   0  0  0  0  0  0  0  0  0  0  0  0
    1.9324    0.1399    0.0324 C   0  0  0  0  0  0  0  0  0  0  0  0
    1.0479   -1.0693    0.0846 C   0  0  0  0  0  0  0  0  0  0  0  0
    1.3234   -2.1133    0.6357 O   0  0  0  0  0  0  0  0  0  0  0  0
   -0.1637   -0.6571   -0.6700 C   0  0  0  0  0  0  0  0  0  0  0  0
   -1.4697   -0.8998   -0.0142 C   0  0  0  0  0  0  0  0  0  0  0  0
   -1.4636    0.5066    0.5301 C   0  0  0  0  0  0  0  0  0  0  0  0
   -0.2973    0.8300   -0.3641 C   0  0  0  0  0  0  0  0  0  0  0  0
    2.7587    0.0935    0.7361 H   0  0  0  0  0  0  0  0  0  0  0  0
    2.2343    0.2522   -1.0293 H   0  0  0  0  0  0  0  0  0  0  0  0
   -0.0825   -0.8978   -1.7473 H   0  0  0  0  0  0  0  0  0  0  0  0
   -2.2809   -0.9888   -0.7910 H   0  0  0  0  0  0  0  0  0  0  0  0
   -1.5115   -1.6998    0.7375 H   0  0  0  0  0  0  0  0  0  0  0  0
   -1.2940    0.5999    1.6094 H   0  0  0  0  0  0  0  0  0  0  0  0
   -2.3615    1.1178    0.2443 H   0  0  0  0  0  0  0  0  0  0  0  0
   -0.5412    1.3666   -1.2912 H   0  0  0  0  0  0  0  0  0  0  0  0
  1  2  2  0
  2  3  1  0
  3  4  1  0
  4  5  2  0
  4  6  1  0
  6  7  1  0
  7  8  1  0
  8  9  1  0
  9  2  1  0
  9  6  1  0
  3 10  1  0
  3 11  1  0
  6 12  1  0
  7 13  1  0
  7 14  1  0
  8 15  1  0
  8 16  1  0
  9 17  1  0
M  END
