
     RDKit          3D

 17 19  0  0  0  0  0  0  0  0999 V2000
   -0.0365    2.3739    1.0047 O   0  0  0  0  0  0  0  0  0  0  0  0
   -0.0652    1.3335    0.3695 C   0  0  0  0  0  0  0  0  0  0  0  0
   -1.1559    0.9949   -0.5881 C   0  0  0  0  0  0  0  0  0  0  0  0
   -1.2545   -0.5024   -0.6003 C   0  0  0  0  0  0  0  0  0  0  0  0
   -1.1757   -1.3154    0.6191 C   0  0  0  0  0  0  0  0  0  0  0  0
    0.0588   -0.9677   -0.1419 C   0  0  0  0  0  0  0  0  0  0  0  0
    0.8658    0.2011    0.3462 C   0  0  0  0  0  0  0  0  0  0  0  0
    2.2610    0.2699    0.0554 C   0  0  0  0  0  0  0  0  0  0  0  0
    1.7514    0.0751    1.3841 O   0  0  0  0  0  0  0  0  0  0  0  0
   -0.8029    1.3486   -1.5892 H   0  0  0  0  0  0  0  0  0  0  0  0
   -2.0961    1.5134   -0.3832 H   0  0  0  0  0  0  0  0  0  0  0  0
   -1.7506   -0.9201   -1.5040 H   0  0  0  0  0  0  0  0  0  0  0  0
   -1.2391   -0.9079    1.6345 H   0  0  0  0  0  0  0  0  0  0  0  0
   -1.5221   -2.3615    0.5348 H   0  0  0  0  0  0  0  0  0  0  0  0
    0.6118   -1.7273   -0.7046 H   0  0  0  0  0  0  0  0  0  0  0  0
    2.7654    1.2335   -0.1354 H   0  0  0  0  0  0  0  0  0  0  0  0
    2.7846   -0.6416   -0.3017 H   0  0  0  0  0  0  0  0  0  0  0  0
  1  2  2  0
  2  3  1  0
  3  4  1  0
  4  5  1  0
  5  6  1  0
  6  7  1  0
  7  8  1  0
  8  9  1  0
  7  2  1  0
  6  4  1  0
  9  7  1  0
  3 10  1  0
  3 11  1  0
  4 12  1  0
  5 13  1  0
  5 14  1  0
  6 15  1  0
  8 16  1  0
  8 17  1  0
M  END
