
     RDKit          3D

 17 17  0  0  0  0  0  0  0  0999 V2000
    3.2004    0.4402    0.5223 O   0  0  0  0  0  0  0  0  0  0  0  0
    1.9830    0.2933    0.2461 C   0  0  0  0  0  0  0  0  0  0  0  0
    1.3456    1.4910   -0.0364 O   0  0  0  0  0  0  0  0  0  0  0  0
   -0.0342    1.6266   -0.3816 C   0  0  0  0  0  0  0  0  0  0  0  0
   -0.7972    0.6396    0.4327 C   0  0  0  0  0  0  0  0  0  0  0  0
   -0.9322   -0.7116   -0.1840 C   0  0  0  0  0  0  0  0  0  0  0  0
   -1.6326   -1.5209    0.7278 O   0  0  0  0  0  0  0  0  0  0  0  0
    0.3411   -1.3676   -0.5629 C   0  0  0  0  0  0  0  0  0  0  0  0
    1.4449   -0.9918    0.2562 O   0  0  0  0  0  0  0  0  0  0  0  0
   -0.1478    1.4946   -1.4723 H   0  0  0  0  0  0  0  0  0  0  0  0
   -0.3301    2.6489   -0.0510 H   0  0  0  0  0  0  0  0  0  0  0  0
   -1.8375    1.0478    0.5587 H   0  0  0  0  0  0  0  0  0  0  0  0
   -0.3866    0.5481    1.4441 H   0  0  0  0  0  0  0  0  0  0  0  0
   -1.5859   -0.6779   -1.0992 H   0  0  0  0  0  0  0  0  0  0  0  0
   -1.4210   -1.2247    1.6451 H   0  0  0  0  0  0  0  0  0  0  0  0
    0.5727   -1.2584   -1.6435 H   0  0  0  0  0  0  0  0  0  0  0  0
    0.2175   -2.4772   -0.4020 H   0  0  0  0  0  0  0  0  0  0  0  0
  1  2  2  0
  2  3  1  0
  3  4  1  0
  4  5  1  0
  5  6  1  0
  6  7  1  0
  6  8  1  0
  8  9  1  0
  9  2  1  0
  4 10  1  0
  4 11  1  0
  5 12  1  0
  5 13  1  0
  6 14  1  0
  7 15  1  0
  8 16  1  0
  8 17  1  0
M  END
