
     RDKit          3D

 17 18  0  0  0  0  0  0  0  0999 V2000
    1.7650   -1.7902   -0.3965 O   0  0  0  0  0  0  0  0  0  0  0  0
    1.0172   -0.9569    0.0671 C   0  0  0  0  0  0  0  0  0  0  0  0
    1.6088    0.4071    0.1018 C   0  0  0  0  0  0  0  0  0  0  0  0
    0.6769    1.4001   -0.5515 C   0  0  0  0  0  0  0  0  0  0  0  0
   -0.6458    1.4539   -0.4186 C   0  0  0  0  0  0  0  0  0  0  0  0
   -1.4726    0.5698    0.3820 C   0  0  0  0  0  0  0  0  0  0  0  0
   -2.4722   -0.2361    0.0496 O   0  0  0  0  0  0  0  0  0  0  0  0
   -1.3283   -0.7966   -0.3294 C   0  0  0  0  0  0  0  0  0  0  0  0
   -0.2977   -1.5106    0.4817 C   0  0  0  0  0  0  0  0  0  0  0  0
    1.6207    0.7029    1.1790 H   0  0  0  0  0  0  0  0  0  0  0  0
    2.5861    0.4223   -0.3641 H   0  0  0  0  0  0  0  0  0  0  0  0
    1.1616    2.1354   -1.1906 H   0  0  0  0  0  0  0  0  0  0  0  0
   -1.0878    2.2681   -0.9968 H   0  0  0  0  0  0  0  0  0  0  0  0
   -1.2298    0.6116    1.4695 H   0  0  0  0  0  0  0  0  0  0  0  0
   -1.1188   -0.8032   -1.4120 H   0  0  0  0  0  0  0  0  0  0  0  0
   -0.4979   -1.2883    1.5630 H   0  0  0  0  0  0  0  0  0  0  0  0
   -0.2853   -2.5894    0.3656 H   0  0  0  0  0  0  0  0  0  0  0  0
  1  2  2  0
  2  3  1  0
  3  4  1  0
  4  5  2  0
  5  6  1  0
  6  7  1  0
  7  8  1  0
  8  9  1  0
  9  2  1  0
  8  6  1  0
  3 10  1  0
  3 11  1  0
  4 12  1  0
  5 13  1  0
  6 14  1  0
  8 15  1  0
  9 16  1  0
  9 17  1  0
M  END
