
     RDKit          3D

 17 18  0  0  0  0  0  0  0  0999 V2000
   -1.8256    1.2352    1.5922 O   0  0  0  0  0  0  0  0  0  0  0  0
   -1.3475    0.3278    0.8636 C   0  0  0  0  0  0  0  0  0  0  0  0
   -1.4649   -1.0471    0.9470 O   0  0  0  0  0  0  0  0  0  0  0  0
   -0.3087   -1.6474    0.3884 C   0  0  0  0  0  0  0  0  0  0  0  0
    0.3169   -0.6678   -0.5375 C   0  0  0  0  0  0  0  0  0  0  0  0
    1.5204    0.0783   -0.0238 C   0  0  0  0  0  0  0  0  0  0  0  0
    0.7297    1.3738    0.0538 C   0  0  0  0  0  0  0  0  0  0  0  0
   -0.4958    0.5886   -0.3222 C   0  0  0  0  0  0  0  0  0  0  0  0
   -1.1461    0.9830   -1.4658 O   0  0  0  0  0  0  0  0  0  0  0  0
    0.3164   -2.0079    1.1994 H   0  0  0  0  0  0  0  0  0  0  0  0
   -0.6818   -2.5369   -0.1921 H   0  0  0  0  0  0  0  0  0  0  0  0
    0.4047   -1.0097   -1.5682 H   0  0  0  0  0  0  0  0  0  0  0  0
    1.9341   -0.2548    0.9364 H   0  0  0  0  0  0  0  0  0  0  0  0
    2.2986    0.1736   -0.8109 H   0  0  0  0  0  0  0  0  0  0  0  0
    1.0387    2.1463   -0.6664 H   0  0  0  0  0  0  0  0  0  0  0  0
    0.7271    1.7686    1.1019 H   0  0  0  0  0  0  0  0  0  0  0  0
   -2.0163    0.4964   -1.4959 H   0  0  0  0  0  0  0  0  0  0  0  0
  1  2  2  0
  2  3  1  0
  3  4  1  0
  4  5  1  0
  5  6  1  0
  6  7  1  0
  7  8  1  0
  8  9  1  0
  8  2  1  0
  8  5  1  0
  4 10  1  0
  4 11  1  0
  5 12  1  0
  6 13  1  0
  6 14  1  0
  7 15  1  0
  7 16  1  0
  9 17  1  0
M  END
