
     RDKit          3D

 19 20  0  0  0  0  0  0  0  0999 V2000
   -1.5802    2.4348   -0.7670 O   0  0  0  0  0  0  0  0  0  0  0  0
   -1.8237    1.2678   -0.3582 C   0  0  0  0  0  0  0  0  0  0  0  0
   -2.8461    0.6812    0.3600 O   0  0  0  0  0  0  0  0  0  0  0  0
   -2.2197   -0.5752    0.2605 C   0  0  0  0  0  0  0  0  0  0  0  0
   -1.0592   -0.0079   -0.4983 C   0  0  0  0  0  0  0  0  0  0  0  0
    0.1957    0.0561    0.2888 C   0  0  0  0  0  0  0  0  0  0  0  0
    1.0996   -1.1298    0.2750 C   0  0  0  0  0  0  0  0  0  0  0  0
    2.2305   -0.0911    0.3975 C   0  0  0  0  0  0  0  0  0  0  0  0
    1.3155    0.7497   -0.5057 C   0  0  0  0  0  0  0  0  0  0  0  0
   -1.9952   -0.9711    1.2617 H   0  0  0  0  0  0  0  0  0  0  0  0
   -2.8558   -1.3075   -0.3158 H   0  0  0  0  0  0  0  0  0  0  0  0
   -0.9617   -0.3740   -1.5195 H   0  0  0  0  0  0  0  0  0  0  0  0
    0.1031    0.5260    1.2636 H   0  0  0  0  0  0  0  0  0  0  0  0
    1.2189   -1.5913   -0.7358 H   0  0  0  0  0  0  0  0  0  0  0  0
    1.0867   -1.8069    1.1203 H   0  0  0  0  0  0  0  0  0  0  0  0
    2.2187    0.3446    1.4015 H   0  0  0  0  0  0  0  0  0  0  0  0
    3.1739   -0.3855   -0.0429 H   0  0  0  0  0  0  0  0  0  0  0  0
    1.3157    0.3580   -1.5289 H   0  0  0  0  0  0  0  0  0  0  0  0
    1.3831    1.8221   -0.3567 H   0  0  0  0  0  0  0  0  0  0  0  0
  1  2  2  0
  2  3  1  0
  3  4  1  0
  4  5  1  0
  5  6  1  0
  6  7  1  0
  7  8  1  0
  8  9  1  0
  5  2  1  0
  9  6  1  0
  4 10  1  0
  4 11  1  0
  5 12  1  0
  6 13  1  0
  7 14  1  0
  7 15  1  0
  8 16  1  0
  8 17  1  0
  9 18  1  0
  9 19  1  0
M  END
