
     RDKit          3D

 15 17  0  0  0  0  0  0  0  0999 V2000
   -1.6668    1.3428    1.5293 O   0  0  0  0  0  0  0  0  0  0  0  0
   -1.3258    0.5962    0.6325 C   0  0  0  0  0  0  0  0  0  0  0  0
   -2.0205   -0.1555   -0.4659 C   0  0  0  0  0  0  0  0  0  0  0  0
   -1.7688   -1.5022   -0.6234 O   0  0  0  0  0  0  0  0  0  0  0  0
   -0.7453   -0.6298   -0.9698 C   0  0  0  0  0  0  0  0  0  0  0  0
   -0.0631    0.0395    0.1539 C   0  0  0  0  0  0  0  0  0  0  0  0
    0.9871   -0.5081    0.9757 C   0  0  0  0  0  0  0  0  0  0  0  0
    1.1997    0.7441    0.0952 C   0  0  0  0  0  0  0  0  0  0  0  0
    2.1536    0.5704   -0.8893 O   0  0  0  0  0  0  0  0  0  0  0  0
   -2.7977    0.3490   -1.0300 H   0  0  0  0  0  0  0  0  0  0  0  0
   -0.4286   -0.5308   -2.0173 H   0  0  0  0  0  0  0  0  0  0  0  0
    1.0793   -0.3249    2.0662 H   0  0  0  0  0  0  0  0  0  0  0  0
    1.4873   -1.4412    0.6588 H   0  0  0  0  0  0  0  0  0  0  0  0
    1.2451    1.7281    0.6466 H   0  0  0  0  0  0  0  0  0  0  0  0
    2.6646   -0.2775   -0.7625 H   0  0  0  0  0  0  0  0  0  0  0  0
  1  2  2  0
  2  3  1  0
  3  4  1  0
  4  5  1  0
  5  6  1  0
  6  7  1  0
  7  8  1  0
  8  9  1  0
  6  2  1  0
  5  3  1  0
  8  6  1  0
  3 10  1  0
  5 11  1  0
  7 12  1  0
  7 13  1  0
  8 14  1  0
  9 15  1  0
M  END
