
     RDKit          3D

 17 18  0  0  0  0  0  0  0  0999 V2000
    2.2155    1.7917   -0.1416 O   0  0  0  0  0  0  0  0  0  0  0  0
    1.6989    0.6366   -0.0051 C   0  0  0  0  0  0  0  0  0  0  0  0
    1.1531   -0.2526   -1.0584 C   0  0  0  0  0  0  0  0  0  0  0  0
    0.0056   -0.9239   -0.3715 C   0  0  0  0  0  0  0  0  0  0  0  0
   -1.2684   -0.1369   -0.2651 C   0  0  0  0  0  0  0  0  0  0  0  0
   -1.4883    0.7887   -1.2673 O   0  0  0  0  0  0  0  0  0  0  0  0
   -0.8182    0.4124    1.0546 C   0  0  0  0  0  0  0  0  0  0  0  0
    0.2643   -0.6617    1.0847 C   0  0  0  0  0  0  0  0  0  0  0  0
    1.5332   -0.0509    1.1808 O   0  0  0  0  0  0  0  0  0  0  0  0
    0.8529    0.3063   -1.9661 H   0  0  0  0  0  0  0  0  0  0  0  0
    1.9276   -1.0216   -1.2623 H   0  0  0  0  0  0  0  0  0  0  0  0
   -0.1358   -1.9999   -0.6061 H   0  0  0  0  0  0  0  0  0  0  0  0
   -2.1447   -0.8065   -0.1323 H   0  0  0  0  0  0  0  0  0  0  0  0
   -1.9347    1.6102   -0.8893 H   0  0  0  0  0  0  0  0  0  0  0  0
   -1.5105    0.3480    1.8923 H   0  0  0  0  0  0  0  0  0  0  0  0
   -0.4251    1.4509    0.9723 H   0  0  0  0  0  0  0  0  0  0  0  0
    0.0745   -1.4908    1.7804 H   0  0  0  0  0  0  0  0  0  0  0  0
  1  2  2  0
  2  3  1  0
  3  4  1  0
  4  5  1  0
  5  6  1  0
  5  7  1  0
  7  8  1  0
  8  9  1  0
  9  2  1  0
  8  4  1  0
  3 10  1  0
  3 11  1  0
  4 12  1  0
  5 13  1  0
  6 14  1  0
  7 15  1  0
  7 16  1  0
  8 17  1  0
M  END
