
     RDKit          3D

 17 18  0  0  0  0  0  0  0  0999 V2000
   -0.0339   -2.5403   -0.7290 O   0  0  0  0  0  0  0  0  0  0  0  0
   -0.0427   -1.3909   -0.3524 C   0  0  0  0  0  0  0  0  0  0  0  0
   -1.3579   -0.7585   -0.0798 C   0  0  0  0  0  0  0  0  0  0  0  0
   -1.2115    0.6104    0.5430 C   0  0  0  0  0  0  0  0  0  0  0  0
   -0.0504    1.3764    0.0234 C   0  0  0  0  0  0  0  0  0  0  0  0
    0.0494    1.1211   -1.4421 O   0  0  0  0  0  0  0  0  0  0  0  0
    1.0374    0.7669   -0.5380 C   0  0  0  0  0  0  0  0  0  0  0  0
    1.2388   -0.6854   -0.1854 C   0  0  0  0  0  0  0  0  0  0  0  0
    1.6464   -0.8384    1.1332 O   0  0  0  0  0  0  0  0  0  0  0  0
   -1.8837   -1.3941    0.6781 H   0  0  0  0  0  0  0  0  0  0  0  0
   -1.8996   -0.7224   -1.0481 H   0  0  0  0  0  0  0  0  0  0  0  0
   -2.1351    1.1804    0.2214 H   0  0  0  0  0  0  0  0  0  0  0  0
   -1.2612    0.5815    1.6423 H   0  0  0  0  0  0  0  0  0  0  0  0
   -0.0992    2.4772    0.2300 H   0  0  0  0  0  0  0  0  0  0  0  0
    1.9895    1.3096   -0.7026 H   0  0  0  0  0  0  0  0  0  0  0  0
    1.9794   -1.0908   -0.9065 H   0  0  0  0  0  0  0  0  0  0  0  0
    2.0342   -0.0026    1.5126 H   0  0  0  0  0  0  0  0  0  0  0  0
  1  2  2  0
  2  3  1  0
  3  4  1  0
  4  5  1  0
  5  6  1  0
  6  7  1  0
  7  8  1  0
  8  9  1  0
  8  2  1  0
  7  5  1  0
  3 10  1  0
  3 11  1  0
  4 12  1  0
  4 13  1  0
  5 14  1  0
  7 15  1  0
  8 16  1  0
  9 17  1  0
M  END
