
     RDKit          3D

 15 17  0  0  0  0  0  0  0  0999 V2000
   -1.9384   -1.1610   -1.6876 O   0  0  0  0  0  0  0  0  0  0  0  0
   -1.1885   -0.6255   -0.8888 C   0  0  0  0  0  0  0  0  0  0  0  0
    0.2697   -0.8421   -0.7542 C   0  0  0  0  0  0  0  0  0  0  0  0
    1.0649    0.1547   -1.3055 O   0  0  0  0  0  0  0  0  0  0  0  0
    1.7238    0.4022   -0.0885 C   0  0  0  0  0  0  0  0  0  0  0  0
    0.6061   -0.2676    0.6189 C   0  0  0  0  0  0  0  0  0  0  0  0
   -0.5027    0.6895    0.9622 C   0  0  0  0  0  0  0  0  0  0  0  0
   -1.6445    0.0448    1.4574 O   0  0  0  0  0  0  0  0  0  0  0  0
   -1.6272    0.3704    0.1205 C   0  0  0  0  0  0  0  0  0  0  0  0
    0.6378   -1.8575   -0.9224 H   0  0  0  0  0  0  0  0  0  0  0  0
    1.8083    1.4919    0.0508 H   0  0  0  0  0  0  0  0  0  0  0  0
    2.6707   -0.1664    0.0382 H   0  0  0  0  0  0  0  0  0  0  0  0
    0.8352   -1.0480    1.3487 H   0  0  0  0  0  0  0  0  0  0  0  0
   -0.2916    1.7229    1.2273 H   0  0  0  0  0  0  0  0  0  0  0  0
   -2.4237    1.0919   -0.1770 H   0  0  0  0  0  0  0  0  0  0  0  0
  1  2  2  0
  2  3  1  0
  3  4  1  0
  4  5  1  0
  5  6  1  0
  6  7  1  0
  7  8  1  0
  8  9  1  0
  9  2  1  0
  6  3  1  0
  9  7  1  0
  3 10  1  0
  5 11  1  0
  5 12  1  0
  6 13  1  0
  7 14  1  0
  9 15  1  0
M  END
