
     RDKit          3D

 17 17  0  0  0  0  0  0  0  0999 V2000
    0.7587    2.3240   -0.9754 O   0  0  0  0  0  0  0  0  0  0  0  0
    0.3894    1.3581   -0.2702 C   0  0  0  0  0  0  0  0  0  0  0  0
    1.4609    0.5330    0.2682 C   0  0  0  0  0  0  0  0  0  0  0  0
    1.2318   -0.9478    0.1576 C   0  0  0  0  0  0  0  0  0  0  0  0
   -0.1369   -1.3136   -0.3059 C   0  0  0  0  0  0  0  0  0  0  0  0
   -1.0282   -0.9894    0.7419 O   0  0  0  0  0  0  0  0  0  0  0  0
   -1.8088    0.0491    0.3026 C   0  0  0  0  0  0  0  0  0  0  0  0
   -1.0386    1.2365   -0.1175 C   0  0  0  0  0  0  0  0  0  0  0  0
   -1.7355    2.2446   -0.3642 O   0  0  0  0  0  0  0  0  0  0  0  0
    2.4098    0.7858   -0.2344 H   0  0  0  0  0  0  0  0  0  0  0  0
    1.6041    0.8206    1.3395 H   0  0  0  0  0  0  0  0  0  0  0  0
    1.3935   -1.4293    1.1492 H   0  0  0  0  0  0  0  0  0  0  0  0
    1.9833   -1.4090   -0.5383 H   0  0  0  0  0  0  0  0  0  0  0  0
   -0.1818   -2.4187   -0.3928 H   0  0  0  0  0  0  0  0  0  0  0  0
   -0.4313   -0.8513   -1.2570 H   0  0  0  0  0  0  0  0  0  0  0  0
   -2.5192    0.3210    1.1093 H   0  0  0  0  0  0  0  0  0  0  0  0
   -2.3512   -0.3133   -0.6126 H   0  0  0  0  0  0  0  0  0  0  0  0
  1  2  2  0
  2  3  1  0
  3  4  1  0
  4  5  1  0
  5  6  1  0
  6  7  1  0
  7  8  1  0
  8  9  2  0
  8  2  1  0
  3 10  1  0
  3 11  1  0
  4 12  1  0
  4 13  1  0
  5 14  1  0
  5 15  1  0
  7 16  1  0
  7 17  1  0
M  END
