
     RDKit          3D

 14 15  0  0  0  0  0  0  0  0999 V2000
   -2.0877   -1.4981    0.9869 O   0  0  0  0  0  0  0  0  0  0  0  0
   -1.1763   -0.8930    0.5040 C   0  0  0  0  0  0  0  0  0  0  0  0
    0.0221   -1.2082   -0.3292 C   0  0  0  0  0  0  0  0  0  0  0  0
    0.4510    0.2220   -0.1655 C   0  0  0  0  0  0  0  0  0  0  0  0
    1.7425    0.6275   -0.0102 C   0  0  0  0  0  0  0  0  0  0  0  0
    0.9727    0.9427   -1.1970 O   0  0  0  0  0  0  0  0  0  0  0  0
   -0.8089    0.5661    0.5260 C   0  0  0  0  0  0  0  0  0  0  0  0
   -1.7015    1.3658   -0.1822 O   0  0  0  0  0  0  0  0  0  0  0  0
    0.6943   -1.8736    0.2752 H   0  0  0  0  0  0  0  0  0  0  0  0
   -0.1785   -1.5607   -1.3365 H   0  0  0  0  0  0  0  0  0  0  0  0
    2.0548    1.5363    0.5829 H   0  0  0  0  0  0  0  0  0  0  0  0
    2.6227   -0.0345   -0.1858 H   0  0  0  0  0  0  0  0  0  0  0  0
   -0.6448    0.9221    1.5442 H   0  0  0  0  0  0  0  0  0  0  0  0
   -1.9625    0.8854   -1.0128 H   0  0  0  0  0  0  0  0  0  0  0  0
  1  2  2  0
  2  3  1  0
  3  4  1  0
  4  5  1  0
  5  6  1  0
  4  7  1  0
  7  8  1  0
  7  2  1  0
  6  4  1  0
  3  9  1  0
  3 10  1  0
  5 11  1  0
  5 12  1  0
  7 13  1  0
  8 14  1  0
M  END
