
     RDKit          3D

 15 16  0  0  0  0  0  0  0  0999 V2000
   -1.9448    1.8464   -0.6841 O   0  0  0  0  0  0  0  0  0  0  0  0
   -1.1944    0.8561   -0.6992 C   0  0  0  0  0  0  0  0  0  0  0  0
   -0.0161    0.7642   -1.4378 O   0  0  0  0  0  0  0  0  0  0  0  0
    0.8513   -0.1717   -0.8767 C   0  0  0  0  0  0  0  0  0  0  0  0
    1.7267    0.3801    0.2411 C   0  0  0  0  0  0  0  0  0  0  0  0
    0.6635    0.2491    1.1278 O   0  0  0  0  0  0  0  0  0  0  0  0
    0.1382   -0.7650    0.2980 C   0  0  0  0  0  0  0  0  0  0  0  0
   -1.3027   -0.4495    0.0107 C   0  0  0  0  0  0  0  0  0  0  0  0
   -1.9557   -0.3048    1.2472 O   0  0  0  0  0  0  0  0  0  0  0  0
    1.3541   -0.8745   -1.5599 H   0  0  0  0  0  0  0  0  0  0  0  0
    2.5463   -0.2845    0.5285 H   0  0  0  0  0  0  0  0  0  0  0  0
    1.9722    1.4244    0.0264 H   0  0  0  0  0  0  0  0  0  0  0  0
    0.3817   -1.7824    0.5868 H   0  0  0  0  0  0  0  0  0  0  0  0
   -1.8024   -1.2016   -0.6126 H   0  0  0  0  0  0  0  0  0  0  0  0
   -1.4181    0.3137    1.8038 H   0  0  0  0  0  0  0  0  0  0  0  0
  1  2  2  0
  2  3  1  0
  3  4  1  0
  4  5  1  0
  5  6  1  0
  6  7  1  0
  7  8  1  0
  8  9  1  0
  8  2  1  0
  7  4  1  0
  4 10  1  0
  5 11  1  0
  5 12  1  0
  7 13  1  0
  8 14  1  0
  9 15  1  0
M  END
