
     RDKit          3D

 17 18  0  0  0  0  0  0  0  0999 V2000
   -1.7773   -1.7861   -1.4767 O   0  0  0  0  0  0  0  0  0  0  0  0
   -1.6121   -0.7938   -0.7189 C   0  0  0  0  0  0  0  0  0  0  0  0
   -2.5581   -0.0044   -0.0769 O   0  0  0  0  0  0  0  0  0  0  0  0
   -1.6258    0.9598    0.3914 C   0  0  0  0  0  0  0  0  0  0  0  0
   -0.5455    0.0178   -0.1329 C   0  0  0  0  0  0  0  0  0  0  0  0
    0.3997    0.6609   -1.0519 C   0  0  0  0  0  0  0  0  0  0  0  0
    1.6668    0.3900   -0.7298 C   0  0  0  0  0  0  0  0  0  0  0  0
    1.7175   -0.4883    0.4729 C   0  0  0  0  0  0  0  0  0  0  0  0
    0.2900   -0.6266    0.9274 C   0  0  0  0  0  0  0  0  0  0  0  0
   -1.6456    1.8644   -0.2231 H   0  0  0  0  0  0  0  0  0  0  0  0
   -1.5877    1.0850    1.4749 H   0  0  0  0  0  0  0  0  0  0  0  0
    0.1570    1.2893   -1.9045 H   0  0  0  0  0  0  0  0  0  0  0  0
    2.5636    0.7304   -1.2317 H   0  0  0  0  0  0  0  0  0  0  0  0
    2.3404    0.0073    1.2270 H   0  0  0  0  0  0  0  0  0  0  0  0
    2.0993   -1.4671    0.1344 H   0  0  0  0  0  0  0  0  0  0  0  0
    0.0784   -0.1333    1.8890 H   0  0  0  0  0  0  0  0  0  0  0  0
    0.0396   -1.7052    1.0293 H   0  0  0  0  0  0  0  0  0  0  0  0
  1  2  2  0
  2  3  1  0
  3  4  1  0
  4  5  1  0
  5  6  1  0
  6  7  2  0
  7  8  1  0
  8  9  1  0
  5  2  1  0
  9  5  1  0
  4 10  1  0
  4 11  1  0
  6 12  1  0
  7 13  1  0
  8 14  1  0
  8 15  1  0
  9 16  1  0
  9 17  1  0
M  END
