
     RDKit          3D

 17 18  0  0  0  0  0  0  0  0999 V2000
    0.5859   -2.0526   -1.5885 O   0  0  0  0  0  0  0  0  0  0  0  0
    0.6863   -1.1631   -0.6714 C   0  0  0  0  0  0  0  0  0  0  0  0
    1.9310   -0.4650   -0.3976 C   0  0  0  0  0  0  0  0  0  0  0  0
    1.6371    0.5627    0.3708 C   0  0  0  0  0  0  0  0  0  0  0  0
    0.2002    0.6484    0.6778 C   0  0  0  0  0  0  0  0  0  0  0  0
   -0.6798    1.2832   -0.3707 C   0  0  0  0  0  0  0  0  0  0  0  0
   -1.5323    0.0063   -0.4176 C   0  0  0  0  0  0  0  0  0  0  0  0
   -0.3690   -0.6889    0.2414 C   0  0  0  0  0  0  0  0  0  0  0  0
   -0.6610   -1.5623    1.2535 O   0  0  0  0  0  0  0  0  0  0  0  0
    2.9329   -0.7533   -0.7711 H   0  0  0  0  0  0  0  0  0  0  0  0
    2.3594    1.2944    0.7576 H   0  0  0  0  0  0  0  0  0  0  0  0
    0.0145    0.9349    1.7152 H   0  0  0  0  0  0  0  0  0  0  0  0
   -1.2812    2.1106    0.0950 H   0  0  0  0  0  0  0  0  0  0  0  0
   -0.1836    1.5361   -1.3099 H   0  0  0  0  0  0  0  0  0  0  0  0
   -2.4478    0.0464    0.1849 H   0  0  0  0  0  0  0  0  0  0  0  0
   -1.6678   -0.3410   -1.4634 H   0  0  0  0  0  0  0  0  0  0  0  0
   -1.5248   -1.3969    1.6940 H   0  0  0  0  0  0  0  0  0  0  0  0
  1  2  2  0
  2  3  1  0
  3  4  2  0
  4  5  1  0
  5  6  1  0
  6  7  1  0
  7  8  1  0
  8  9  1  0
  8  2  1  0
  8  5  1  0
  3 10  1  0
  4 11  1  0
  5 12  1  0
  6 13  1  0
  6 14  1  0
  7 15  1  0
  7 16  1  0
  9 17  1  0
M  END
