
     RDKit          3D

 17 18  0  0  0  0  0  0  0  0999 V2000
    0.6940    2.0889    1.6443 O   0  0  0  0  0  0  0  0  0  0  0  0
    0.5318    1.1765    0.8086 C   0  0  0  0  0  0  0  0  0  0  0  0
    1.6753    0.6527    0.0556 C   0  0  0  0  0  0  0  0  0  0  0  0
    1.5778   -0.5461   -0.4765 C   0  0  0  0  0  0  0  0  0  0  0  0
    0.4049   -1.4249   -0.3832 C   0  0  0  0  0  0  0  0  0  0  0  0
   -0.6513   -0.9282    0.5451 C   0  0  0  0  0  0  0  0  0  0  0  0
   -0.7821    0.5544    0.5046 C   0  0  0  0  0  0  0  0  0  0  0  0
   -1.6575    1.1355   -0.5514 C   0  0  0  0  0  0  0  0  0  0  0  0
   -1.9501    1.2000    0.8056 O   0  0  0  0  0  0  0  0  0  0  0  0
    2.5815    1.2682   -0.0469 H   0  0  0  0  0  0  0  0  0  0  0  0
    2.4359   -0.9081   -1.0266 H   0  0  0  0  0  0  0  0  0  0  0  0
    0.0136   -1.5844   -1.4125 H   0  0  0  0  0  0  0  0  0  0  0  0
    0.7339   -2.4258   -0.0131 H   0  0  0  0  0  0  0  0  0  0  0  0
   -0.4816   -1.3443    1.5628 H   0  0  0  0  0  0  0  0  0  0  0  0
   -1.6330   -1.3562    0.1867 H   0  0  0  0  0  0  0  0  0  0  0  0
   -1.2320    2.0199   -1.0688 H   0  0  0  0  0  0  0  0  0  0  0  0
   -2.2611    0.4218   -1.1343 H   0  0  0  0  0  0  0  0  0  0  0  0
  1  2  2  0
  2  3  1  0
  3  4  2  0
  4  5  1  0
  5  6  1  0
  6  7  1  0
  7  8  1  0
  8  9  1  0
  7  2  1  0
  9  7  1  0
  3 10  1  0
  4 11  1  0
  5 12  1  0
  5 13  1  0
  6 14  1  0
  6 15  1  0
  8 16  1  0
  8 17  1  0
M  END
