
     RDKit          3D

 16 17  0  0  0  0  0  0  0  0999 V2000
   -1.7369    1.3414   -1.2842 O   0  0  0  0  0  0  0  0  0  0  0  0
   -1.0813    0.8011   -0.4397 C   0  0  0  0  0  0  0  0  0  0  0  0
   -1.3645   -0.5698    0.1008 C   0  0  0  0  0  0  0  0  0  0  0  0
   -0.0823   -1.3145    0.3362 C   0  0  0  0  0  0  0  0  0  0  0  0
    1.1099   -0.7160   -0.3147 C   0  0  0  0  0  0  0  0  0  0  0  0
    2.0391   -0.0144    0.6391 O   0  0  0  0  0  0  0  0  0  0  0  0
    1.3147    0.6658   -0.3296 C   0  0  0  0  0  0  0  0  0  0  0  0
    0.1266    1.4632    0.1807 C   0  0  0  0  0  0  0  0  0  0  0  0
   -2.0776   -1.1074   -0.5547 H   0  0  0  0  0  0  0  0  0  0  0  0
   -1.8853   -0.3919    1.0817 H   0  0  0  0  0  0  0  0  0  0  0  0
   -0.2534   -2.3629   -0.0516 H   0  0  0  0  0  0  0  0  0  0  0  0
    0.0653   -1.4666    1.4433 H   0  0  0  0  0  0  0  0  0  0  0  0
    1.7652   -1.4284   -0.8729 H   0  0  0  0  0  0  0  0  0  0  0  0
    1.8369    1.1727   -1.1639 H   0  0  0  0  0  0  0  0  0  0  0  0
    0.1844    2.5263   -0.0690 H   0  0  0  0  0  0  0  0  0  0  0  0
    0.0393    1.4014    1.2986 H   0  0  0  0  0  0  0  0  0  0  0  0
  1  2  2  0
  2  3  1  0
  3  4  1  0
  4  5  1  0
  5  6  1  0
  6  7  1  0
  7  8  1  0
  8  2  1  0
  7  5  1  0
  3  9  1  0
  3 10  1  0
  4 11  1  0
  4 12  1  0
  5 13  1  0
  7 14  1  0
  8 15  1  0
  8 16  1  0
M  END
