
     RDKit          3D

 19 19  0  0  0  0  0  0  0  0999 V2000
   -1.7696    2.5293   -0.0195 O   0  0  0  0  0  0  0  0  0  0  0  0
   -0.9520    1.5724    0.0576 C   0  0  0  0  0  0  0  0  0  0  0  0
   -1.3637    0.3313    0.7604 C   0  0  0  0  0  0  0  0  0  0  0  0
   -0.8600   -0.8552   -0.0656 C   0  0  0  0  0  0  0  0  0  0  0  0
   -1.6270   -1.9885    0.2118 O   0  0  0  0  0  0  0  0  0  0  0  0
    0.5818   -1.1205    0.2012 C   0  0  0  0  0  0  0  0  0  0  0  0
    1.5179   -0.2675   -0.6040 C   0  0  0  0  0  0  0  0  0  0  0  0
    1.4925    1.1832   -0.2059 C   0  0  0  0  0  0  0  0  0  0  0  0
    0.2726    1.8090   -0.5457 O   0  0  0  0  0  0  0  0  0  0  0  0
   -0.8733    0.3216    1.7540 H   0  0  0  0  0  0  0  0  0  0  0  0
   -2.4506    0.3278    0.8585 H   0  0  0  0  0  0  0  0  0  0  0  0
   -1.0731   -0.5857   -1.1294 H   0  0  0  0  0  0  0  0  0  0  0  0
   -2.3819   -2.0766   -0.4458 H   0  0  0  0  0  0  0  0  0  0  0  0
    0.7717   -1.0336    1.2857 H   0  0  0  0  0  0  0  0  0  0  0  0
    0.7962   -2.1817   -0.0672 H   0  0  0  0  0  0  0  0  0  0  0  0
    1.3072   -0.3578   -1.6664 H   0  0  0  0  0  0  0  0  0  0  0  0
    2.5498   -0.6413   -0.4187 H   0  0  0  0  0  0  0  0  0  0  0  0
    2.2796    1.6931   -0.8126 H   0  0  0  0  0  0  0  0  0  0  0  0
    1.7819    1.3407    0.8516 H   0  0  0  0  0  0  0  0  0  0  0  0
  1  2  2  0
  2  3  1  0
  3  4  1  0
  4  5  1  0
  4  6  1  0
  6  7  1  0
  7  8  1  0
  8  9  1  0
  9  2  1  0
  3 10  1  0
  3 11  1  0
  4 12  1  0
  5 13  1  0
  6 14  1  0
  6 15  1  0
  7 16  1  0
  7 17  1  0
  8 18  1  0
  8 19  1  0
M  END
