
     RDKit          3D

 17 19  0  0  0  0  0  0  0  0999 V2000
   -1.6148   -1.2984    1.6288 O   0  0  0  0  0  0  0  0  0  0  0  0
   -1.3885   -0.4962    0.7581 C   0  0  0  0  0  0  0  0  0  0  0  0
   -2.0072    0.5691   -0.0635 C   0  0  0  0  0  0  0  0  0  0  0  0
   -2.2396    0.6106   -1.3596 O   0  0  0  0  0  0  0  0  0  0  0  0
   -1.1568   -0.1263   -1.1730 C   0  0  0  0  0  0  0  0  0  0  0  0
   -0.1933   -0.1301   -0.0367 C   0  0  0  0  0  0  0  0  0  0  0  0
    0.9395   -1.0495   -0.1065 C   0  0  0  0  0  0  0  0  0  0  0  0
    1.8578    0.1433    0.1862 C   0  0  0  0  0  0  0  0  0  0  0  0
    0.6013    1.0239    0.2995 C   0  0  0  0  0  0  0  0  0  0  0  0
   -1.5682    1.5590    0.2877 H   0  0  0  0  0  0  0  0  0  0  0  0
   -1.4295   -1.2130   -1.3740 H   0  0  0  0  0  0  0  0  0  0  0  0
    1.1207   -1.5503   -1.0576 H   0  0  0  0  0  0  0  0  0  0  0  0
    0.9716   -1.7524    0.7501 H   0  0  0  0  0  0  0  0  0  0  0  0
    2.4284    0.0480    1.1169 H   0  0  0  0  0  0  0  0  0  0  0  0
    2.4484    0.3551   -0.7327 H   0  0  0  0  0  0  0  0  0  0  0  0
    0.6631    1.8469   -0.4391 H   0  0  0  0  0  0  0  0  0  0  0  0
    0.5670    1.4605    1.3154 H   0  0  0  0  0  0  0  0  0  0  0  0
  1  2  2  0
  2  3  1  0
  3  4  1  0
  4  5  1  0
  5  6  1  0
  6  7  1  0
  7  8  1  0
  8  9  1  0
  6  2  1  0
  5  3  1  0
  9  6  1  0
  3 10  1  0
  5 11  1  0
  7 12  1  0
  7 13  1  0
  8 14  1  0
  8 15  1  0
  9 16  1  0
  9 17  1  0
M  END
