
     RDKit          3D

 17 18  0  0  0  0  0  0  0  0999 V2000
   -0.0537   -1.3245    2.2579 O   0  0  0  0  0  0  0  0  0  0  0  0
    0.0104   -0.8407    1.1783 C   0  0  0  0  0  0  0  0  0  0  0  0
   -0.2787   -1.2226   -0.2149 C   0  0  0  0  0  0  0  0  0  0  0  0
   -1.4172   -0.2981   -0.5547 C   0  0  0  0  0  0  0  0  0  0  0  0
   -0.7847    1.0240   -0.0819 C   0  0  0  0  0  0  0  0  0  0  0  0
    0.4287    0.4543    0.6125 C   0  0  0  0  0  0  0  0  0  0  0  0
    1.2682    1.2496    1.2604 O   0  0  0  0  0  0  0  0  0  0  0  0
    0.9863   -0.4077   -0.5356 C   0  0  0  0  0  0  0  0  0  0  0  0
    0.9661    0.1868   -1.7646 O   0  0  0  0  0  0  0  0  0  0  0  0
   -0.2993   -2.2349   -0.5117 H   0  0  0  0  0  0  0  0  0  0  0  0
   -1.6867   -0.2731   -1.6053 H   0  0  0  0  0  0  0  0  0  0  0  0
   -2.2487   -0.4960    0.1451 H   0  0  0  0  0  0  0  0  0  0  0  0
   -0.4146    1.6176   -0.9330 H   0  0  0  0  0  0  0  0  0  0  0  0
   -1.4604    1.5716    0.5776 H   0  0  0  0  0  0  0  0  0  0  0  0
    1.4807    1.0347    2.1978 H   0  0  0  0  0  0  0  0  0  0  0  0
    1.8719   -0.9433   -0.2148 H   0  0  0  0  0  0  0  0  0  0  0  0
    1.6316    0.9021   -1.8131 H   0  0  0  0  0  0  0  0  0  0  0  0
  1  2  2  0
  2  3  1  0
  3  4  1  0
  4  5  1  0
  5  6  1  0
  6  7  1  0
  6  8  1  0
  8  9  1  0
  6  2  1  0
  8  3  1  0
  3 10  1  0
  4 11  1  0
  4 12  1  0
  5 13  1  0
  5 14  1  0
  7 15  1  0
  8 16  1  0
  9 17  1  0
M  END
