
     RDKit          3D

 18 19  0  0  0  0  0  0  0  0999 V2000
    0.9984    2.3422   -0.7518 O   0  0  0  0  0  0  0  0  0  0  0  0
    0.7932    1.2048   -0.4402 C   0  0  0  0  0  0  0  0  0  0  0  0
    1.3871    0.4449    0.6815 C   0  0  0  0  0  0  0  0  0  0  0  0
    0.4034   -0.7189    0.7839 C   0  0  0  0  0  0  0  0  0  0  0  0
   -0.9839   -0.1821    0.9798 C   0  0  0  0  0  0  0  0  0  0  0  0
   -1.4459    0.3459   -0.3895 C   0  0  0  0  0  0  0  0  0  0  0  0
   -0.1373    0.3004   -1.1513 C   0  0  0  0  0  0  0  0  0  0  0  0
    0.3524   -1.0932   -0.7078 C   0  0  0  0  0  0  0  0  0  0  0  0
    2.3506   -0.0125    0.3401 H   0  0  0  0  0  0  0  0  0  0  0  0
    1.4670    0.9966    1.6140 H   0  0  0  0  0  0  0  0  0  0  0  0
    0.7109   -1.5179    1.4226 H   0  0  0  0  0  0  0  0  0  0  0  0
   -1.0320    0.6331    1.7234 H   0  0  0  0  0  0  0  0  0  0  0  0
   -1.6583   -1.0149    1.2257 H   0  0  0  0  0  0  0  0  0  0  0  0
   -2.1376   -0.3470   -0.8738 H   0  0  0  0  0  0  0  0  0  0  0  0
   -1.7767    1.3817   -0.3245 H   0  0  0  0  0  0  0  0  0  0  0  0
   -0.2079    0.4157   -2.2069 H   0  0  0  0  0  0  0  0  0  0  0  0
    1.3345   -1.3277   -1.1084 H   0  0  0  0  0  0  0  0  0  0  0  0
   -0.4180   -1.8510   -0.8168 H   0  0  0  0  0  0  0  0  0  0  0  0
  1  2  2  0
  2  3  1  0
  3  4  1  0
  4  5  1  0
  5  6  1  0
  6  7  1  0
  7  8  1  0
  7  2  1  0
  8  4  1  0
  3  9  1  0
  3 10  1  0
  4 11  1  0
  5 12  1  0
  5 13  1  0
  6 14  1  0
  6 15  1  0
  7 16  1  0
  8 17  1  0
  8 18  1  0
M  END
