
     RDKit          3D

 15 15  0  0  0  0  0  0  0  0999 V2000
   -0.8543    2.4384    0.3556 O   0  0  0  0  0  0  0  0  0  0  0  0
   -0.4139    1.2686    0.1472 C   0  0  0  0  0  0  0  0  0  0  0  0
    1.0502    1.2804    0.1353 C   0  0  0  0  0  0  0  0  0  0  0  0
    1.8045    0.2076   -0.1123 C   0  0  0  0  0  0  0  0  0  0  0  0
    1.3943   -1.1598   -0.4143 C   0  0  0  0  0  0  0  0  0  0  0  0
    2.3020   -1.9912   -0.5740 O   0  0  0  0  0  0  0  0  0  0  0  0
    0.0601   -1.5681   -0.5296 O   0  0  0  0  0  0  0  0  0  0  0  0
   -1.0996   -1.1480    0.0929 C   0  0  0  0  0  0  0  0  0  0  0  0
   -1.4576    0.2825   -0.0151 C   0  0  0  0  0  0  0  0  0  0  0  0
    1.5588    2.2159    0.3397 H   0  0  0  0  0  0  0  0  0  0  0  0
    2.8828    0.4056   -0.0786 H   0  0  0  0  0  0  0  0  0  0  0  0
   -1.9501   -1.7468   -0.3202 H   0  0  0  0  0  0  0  0  0  0  0  0
   -1.0379   -1.4716    1.1734 H   0  0  0  0  0  0  0  0  0  0  0  0
   -2.2423    0.4820    0.7766 H   0  0  0  0  0  0  0  0  0  0  0  0
   -1.9972    0.5046   -0.9767 H   0  0  0  0  0  0  0  0  0  0  0  0
  1  2  2  0
  2  3  1  0
  3  4  2  0
  4  5  1  0
  5  6  2  0
  5  7  1  0
  7  8  1  0
  8  9  1  0
  9  2  1  0
  3 10  1  0
  4 11  1  0
  8 12  1  0
  8 13  1  0
  9 14  1  0
  9 15  1  0
M  END
