
     RDKit          3D

 15 16  0  0  0  0  0  0  0  0999 V2000
    2.1061   -1.4506    0.6386 O   0  0  0  0  0  0  0  0  0  0  0  0
    1.3025   -0.5538    0.3975 C   0  0  0  0  0  0  0  0  0  0  0  0
    1.5679    0.8598    0.2936 C   0  0  0  0  0  0  0  0  0  0  0  0
    0.4676    1.5168   -0.0767 C   0  0  0  0  0  0  0  0  0  0  0  0
   -0.6730    0.6027   -0.2648 C   0  0  0  0  0  0  0  0  0  0  0  0
   -1.9160    1.0528    0.1462 O   0  0  0  0  0  0  0  0  0  0  0  0
   -0.6147   -0.5170   -1.2275 C   0  0  0  0  0  0  0  0  0  0  0  0
   -0.1421   -0.7188    0.1547 C   0  0  0  0  0  0  0  0  0  0  0  0
   -0.9057   -1.4537    1.0598 O   0  0  0  0  0  0  0  0  0  0  0  0
    2.5214    1.3099    0.4893 H   0  0  0  0  0  0  0  0  0  0  0  0
    0.4588    2.5893   -0.2107 H   0  0  0  0  0  0  0  0  0  0  0  0
   -2.3242    0.4096    0.7576 H   0  0  0  0  0  0  0  0  0  0  0  0
    0.1446   -0.5452   -2.0432 H   0  0  0  0  0  0  0  0  0  0  0  0
   -1.5999   -0.9073   -1.5703 H   0  0  0  0  0  0  0  0  0  0  0  0
   -0.3933   -2.1945    1.4559 H   0  0  0  0  0  0  0  0  0  0  0  0
  1  2  2  0
  2  3  1  0
  3  4  2  0
  4  5  1  0
  5  6  1  0
  5  7  1  0
  7  8  1  0
  8  9  1  0
  8  2  1  0
  8  5  1  0
  3 10  1  0
  4 11  1  0
  6 12  1  0
  7 13  1  0
  7 14  1  0
  9 15  1  0
M  END
