
     RDKit          3D

 13 14  0  0  0  0  0  0  0  0999 V2000
   -2.4315   -1.2965   -0.8814 O   0  0  0  0  0  0  0  0  0  0  0  0
   -1.4399   -0.5630   -0.6843 C   0  0  0  0  0  0  0  0  0  0  0  0
   -0.8353    0.4245   -1.4640 O   0  0  0  0  0  0  0  0  0  0  0  0
    0.2404    0.8269   -0.6379 C   0  0  0  0  0  0  0  0  0  0  0  0
   -0.4279    0.9349    0.6988 C   0  0  0  0  0  0  0  0  0  0  0  0
   -0.7288    1.7149    1.5494 O   0  0  0  0  0  0  0  0  0  0  0  0
   -0.5945   -0.5572    0.5157 C   0  0  0  0  0  0  0  0  0  0  0  0
    0.7901   -0.4972   -0.0892 C   0  0  0  0  0  0  0  0  0  0  0  0
    1.7514   -0.3275    0.8832 O   0  0  0  0  0  0  0  0  0  0  0  0
    0.9179    1.5673   -0.9448 H   0  0  0  0  0  0  0  0  0  0  0  0
   -0.7929   -1.1503    1.3542 H   0  0  0  0  0  0  0  0  0  0  0  0
    1.0235   -1.2404   -0.8526 H   0  0  0  0  0  0  0  0  0  0  0  0
    2.5273    0.1635    0.5527 H   0  0  0  0  0  0  0  0  0  0  0  0
  1  2  2  0
  2  3  1  0
  3  4  1  0
  4  5  1  0
  5  6  2  0
  5  7  1  0
  7  8  1  0
  8  9  1  0
  7  2  1  0
  8  4  1  0
  4 10  1  0
  7 11  1  0
  8 12  1  0
  9 13  1  0
M  END
