
     RDKit          3D

 15 16  0  0  0  0  0  0  0  0999 V2000
    2.6569    0.7210   -0.1560 O   0  0  0  0  0  0  0  0  0  0  0  0
    1.4308    0.5672   -0.1303 C   0  0  0  0  0  0  0  0  0  0  0  0
    0.4480    1.5434   -0.5764 C   0  0  0  0  0  0  0  0  0  0  0  0
   -0.7351    1.2707   -0.0506 C   0  0  0  0  0  0  0  0  0  0  0  0
   -0.6137    0.0698    0.7993 C   0  0  0  0  0  0  0  0  0  0  0  0
   -1.7347   -0.7435    0.7438 O   0  0  0  0  0  0  0  0  0  0  0  0
    0.6305   -0.5457    0.3163 C   0  0  0  0  0  0  0  0  0  0  0  0
    0.3983   -1.6221   -0.7567 C   0  0  0  0  0  0  0  0  0  0  0  0
    1.0158   -1.8223    0.4512 O   0  0  0  0  0  0  0  0  0  0  0  0
    0.6140    2.4000   -1.2499 H   0  0  0  0  0  0  0  0  0  0  0  0
   -1.6812    1.8128   -0.1892 H   0  0  0  0  0  0  0  0  0  0  0  0
   -0.4536    0.3629    1.8758 H   0  0  0  0  0  0  0  0  0  0  0  0
   -2.3691   -0.3853    1.4433 H   0  0  0  0  0  0  0  0  0  0  0  0
    1.0126   -1.5732   -1.6762 H   0  0  0  0  0  0  0  0  0  0  0  0
   -0.6193   -2.0557   -0.8445 H   0  0  0  0  0  0  0  0  0  0  0  0
  1  2  2  0
  2  3  1  0
  3  4  2  0
  4  5  1  0
  5  6  1  0
  5  7  1  0
  7  8  1  0
  8  9  1  0
  7  2  1  0
  9  7  1  0
  3 10  1  0
  4 11  1  0
  5 12  1  0
  6 13  1  0
  8 14  1  0
  8 15  1  0
M  END
