
     RDKit          3D

 17 18  0  0  0  0  0  0  0  0999 V2000
    0.2144   -1.2369    2.2997 O   0  0  0  0  0  0  0  0  0  0  0  0
    0.2313   -0.7157    1.2155 C   0  0  0  0  0  0  0  0  0  0  0  0
    0.3175   -1.0379   -0.2360 C   0  0  0  0  0  0  0  0  0  0  0  0
   -1.0013   -0.8757   -0.9360 C   0  0  0  0  0  0  0  0  0  0  0  0
   -1.8711   -0.2448   -0.0481 O   0  0  0  0  0  0  0  0  0  0  0  0
   -1.2692    0.9588    0.3617 C   0  0  0  0  0  0  0  0  0  0  0  0
    0.1612    0.7146    0.7955 C   0  0  0  0  0  0  0  0  0  0  0  0
    1.0418    0.3094   -0.3733 C   0  0  0  0  0  0  0  0  0  0  0  0
    2.3472    0.1807    0.0676 O   0  0  0  0  0  0  0  0  0  0  0  0
    0.9087   -1.9155   -0.4373 H   0  0  0  0  0  0  0  0  0  0  0  0
   -0.8855   -0.1547   -1.7990 H   0  0  0  0  0  0  0  0  0  0  0  0
   -1.4103   -1.7963   -1.3485 H   0  0  0  0  0  0  0  0  0  0  0  0
   -1.3605    1.7416   -0.4039 H   0  0  0  0  0  0  0  0  0  0  0  0
   -1.8196    1.2651    1.2785 H   0  0  0  0  0  0  0  0  0  0  0  0
    0.5873    1.4248    1.4986 H   0  0  0  0  0  0  0  0  0  0  0  0
    0.8709    0.8297   -1.3074 H   0  0  0  0  0  0  0  0  0  0  0  0
    2.9371    0.5528   -0.6275 H   0  0  0  0  0  0  0  0  0  0  0  0
  1  2  2  0
  2  3  1  0
  3  4  1  0
  4  5  1  0
  5  6  1  0
  6  7  1  0
  7  8  1  0
  8  9  1  0
  7  2  1  0
  8  3  1  0
  3 10  1  0
  4 11  1  0
  4 12  1  0
  6 13  1  0
  6 14  1  0
  7 15  1  0
  8 16  1  0
  9 17  1  0
M  END
