
     RDKit          3D

 15 17  0  0  0  0  0  0  0  0999 V2000
    1.3204   -0.9660   -2.2839 O   0  0  0  0  0  0  0  0  0  0  0  0
    0.8151   -0.5624   -1.2606 C   0  0  0  0  0  0  0  0  0  0  0  0
   -0.1729   -1.0976   -0.3217 C   0  0  0  0  0  0  0  0  0  0  0  0
   -1.5231   -0.4596   -0.4979 C   0  0  0  0  0  0  0  0  0  0  0  0
   -1.5001    0.7910   -0.0539 C   0  0  0  0  0  0  0  0  0  0  0  0
   -0.1318    1.1002    0.4591 C   0  0  0  0  0  0  0  0  0  0  0  0
    0.9494    0.6653   -0.4619 C   0  0  0  0  0  0  0  0  0  0  0  0
    0.4280   -0.2087    0.7305 C   0  0  0  0  0  0  0  0  0  0  0  0
    1.4010   -0.5664    1.5743 O   0  0  0  0  0  0  0  0  0  0  0  0
   -0.1800   -2.1663   -0.1242 H   0  0  0  0  0  0  0  0  0  0  0  0
   -2.3928   -0.9358   -0.9215 H   0  0  0  0  0  0  0  0  0  0  0  0
   -2.3318    1.4807   -0.0588 H   0  0  0  0  0  0  0  0  0  0  0  0
    0.0352    1.9644    1.0852 H   0  0  0  0  0  0  0  0  0  0  0  0
    1.9129    1.1583   -0.3312 H   0  0  0  0  0  0  0  0  0  0  0  0
    1.3705   -0.1973    2.4664 H   0  0  0  0  0  0  0  0  0  0  0  0
  1  2  2  0
  2  3  1  0
  3  4  1  0
  4  5  2  0
  5  6  1  0
  6  7  1  0
  7  8  1  0
  8  9  1  0
  7  2  1  0
  8  3  1  0
  8  6  1  0
  3 10  1  0
  4 11  1  0
  5 12  1  0
  6 13  1  0
  7 14  1  0
  9 15  1  0
M  END
