
     RDKit          3D

 19 20  0  0  0  0  0  0  0  0999 V2000
   -0.9876   -0.9251   -2.3229 O   0  0  0  0  0  0  0  0  0  0  0  0
   -1.0961   -0.3261   -1.2353 C   0  0  0  0  0  0  0  0  0  0  0  0
   -2.3581    0.1602   -0.6331 C   0  0  0  0  0  0  0  0  0  0  0  0
   -2.0755    0.0542    0.8464 C   0  0  0  0  0  0  0  0  0  0  0  0
   -0.6115    0.2731    0.9063 C   0  0  0  0  0  0  0  0  0  0  0  0
   -0.0645    0.0538   -0.2826 C   0  0  0  0  0  0  0  0  0  0  0  0
    1.3908    0.1790   -0.5884 C   0  0  0  0  0  0  0  0  0  0  0  0
    2.3372   -0.8287    0.0727 C   0  0  0  0  0  0  0  0  0  0  0  0
    2.3393    0.5749    0.4796 C   0  0  0  0  0  0  0  0  0  0  0  0
   -2.4864    1.2201   -0.9547 H   0  0  0  0  0  0  0  0  0  0  0  0
   -3.2369   -0.4481   -0.9306 H   0  0  0  0  0  0  0  0  0  0  0  0
   -2.3346   -0.9966    1.1495 H   0  0  0  0  0  0  0  0  0  0  0  0
   -2.6408    0.7955    1.4438 H   0  0  0  0  0  0  0  0  0  0  0  0
   -0.0472    0.5712    1.7887 H   0  0  0  0  0  0  0  0  0  0  0  0
    1.6850    0.4643   -1.6227 H   0  0  0  0  0  0  0  0  0  0  0  0
    3.1555   -1.2481   -0.5307 H   0  0  0  0  0  0  0  0  0  0  0  0
    1.8124   -1.5792    0.7002 H   0  0  0  0  0  0  0  0  0  0  0  0
    3.2329    1.1923    0.2046 H   0  0  0  0  0  0  0  0  0  0  0  0
    1.9860    0.8133    1.5092 H   0  0  0  0  0  0  0  0  0  0  0  0
  1  2  2  0
  2  3  1  0
  3  4  1  0
  4  5  1  0
  5  6  2  0
  6  7  1  0
  7  8  1  0
  8  9  1  0
  6  2  1  0
  9  7  1  0
  3 10  1  0
  3 11  1  0
  4 12  1  0
  4 13  1  0
  5 14  1  0
  7 15  1  0
  8 16  1  0
  8 17  1  0
  9 18  1  0
  9 19  1  0
M  END
