
     RDKit          3D

 19 19  0  0  0  0  0  0  0  0999 V2000
    0.0431    0.0698   -2.3360 O   0  0  0  0  0  0  0  0  0  0  0  0
   -0.0268    0.2611   -1.1349 C   0  0  0  0  0  0  0  0  0  0  0  0
    0.9854    0.4877   -0.0658 C   0  0  0  0  0  0  0  0  0  0  0  0
    2.2740   -0.2523   -0.2289 C   0  0  0  0  0  0  0  0  0  0  0  0
    3.0898    0.0792    0.8535 O   0  0  0  0  0  0  0  0  0  0  0  0
    0.0001   -0.2132    0.8784 C   0  0  0  0  0  0  0  0  0  0  0  0
   -1.0564    0.3809   -0.0632 C   0  0  0  0  0  0  0  0  0  0  0  0
   -2.2698   -0.4891   -0.2510 C   0  0  0  0  0  0  0  0  0  0  0  0
   -3.1197   -0.2530    0.8304 O   0  0  0  0  0  0  0  0  0  0  0  0
    1.0611    1.5657    0.1765 H   0  0  0  0  0  0  0  0  0  0  0  0
    2.0667   -1.3357   -0.2081 H   0  0  0  0  0  0  0  0  0  0  0  0
    2.7257    0.0703   -1.1964 H   0  0  0  0  0  0  0  0  0  0  0  0
    4.0280    0.2479    0.5919 H   0  0  0  0  0  0  0  0  0  0  0  0
    0.0980   -1.3154    0.7957 H   0  0  0  0  0  0  0  0  0  0  0  0
   -0.0220    0.1842    1.8926 H   0  0  0  0  0  0  0  0  0  0  0  0
   -1.2579    1.4182    0.2519 H   0  0  0  0  0  0  0  0  0  0  0  0
   -2.7588   -0.3138   -1.2143 H   0  0  0  0  0  0  0  0  0  0  0  0
   -1.9751   -1.5621   -0.1793 H   0  0  0  0  0  0  0  0  0  0  0  0
   -3.8853    0.3114    0.6071 H   0  0  0  0  0  0  0  0  0  0  0  0
  1  2  2  0
  2  3  1  0
  3  4  1  0
  4  5  1  0
  3  6  1  0
  6  7  1  0
  7  8  1  0
  8  9  1  0
  7  2  1  0
  3 10  1  0
  4 11  1  0
  4 12  1  0
  5 13  1  0
  6 14  1  0
  6 15  1  0
  7 16  1  0
  8 17  1  0
  8 18  1  0
  9 19  1  0
M  END
