
     RDKit          3D

 17 18  0  0  0  0  0  0  0  0999 V2000
   -1.9986   -2.1212    0.0732 O   0  0  0  0  0  0  0  0  0  0  0  0
   -1.6531   -0.9261    0.2204 C   0  0  0  0  0  0  0  0  0  0  0  0
   -2.4163    0.2191    0.0529 O   0  0  0  0  0  0  0  0  0  0  0  0
   -1.5698    1.3138   -0.2259 C   0  0  0  0  0  0  0  0  0  0  0  0
   -0.1837    0.8211   -0.1675 C   0  0  0  0  0  0  0  0  0  0  0  0
    1.0737    1.0031   -0.4880 C   0  0  0  0  0  0  0  0  0  0  0  0
    1.8921   -0.1308    0.0460 C   0  0  0  0  0  0  0  0  0  0  0  0
    0.8288   -1.2429   -0.0075 C   0  0  0  0  0  0  0  0  0  0  0  0
   -0.3143   -0.4790    0.6165 C   0  0  0  0  0  0  0  0  0  0  0  0
   -1.7149    2.1499    0.4930 H   0  0  0  0  0  0  0  0  0  0  0  0
   -1.8541    1.6594   -1.2637 H   0  0  0  0  0  0  0  0  0  0  0  0
    1.5074    1.8443   -1.0601 H   0  0  0  0  0  0  0  0  0  0  0  0
    2.0920    0.0587    1.1094 H   0  0  0  0  0  0  0  0  0  0  0  0
    2.7601   -0.3652   -0.5618 H   0  0  0  0  0  0  0  0  0  0  0  0
    1.1329   -2.1278    0.5457 H   0  0  0  0  0  0  0  0  0  0  0  0
    0.6037   -1.3937   -1.0680 H   0  0  0  0  0  0  0  0  0  0  0  0
   -0.1860   -0.2829    1.6853 H   0  0  0  0  0  0  0  0  0  0  0  0
  1  2  2  0
  2  3  1  0
  3  4  1  0
  4  5  1  0
  5  6  2  0
  6  7  1  0
  7  8  1  0
  8  9  1  0
  9  2  1  0
  9  5  1  0
  4 10  1  0
  4 11  1  0
  6 12  1  0
  7 13  1  0
  7 14  1  0
  8 15  1  0
  8 16  1  0
  9 17  1  0
M  END
