
     RDKit          3D

 15 16  0  0  0  0  0  0  0  0999 V2000
    2.8828   -1.1578   -0.6659 O   0  0  0  0  0  0  0  0  0  0  0  0
    1.7772   -0.7299   -0.2889 C   0  0  0  0  0  0  0  0  0  0  0  0
    0.7540   -0.5948   -1.2411 O   0  0  0  0  0  0  0  0  0  0  0  0
   -0.3966    0.1544   -0.9810 C   0  0  0  0  0  0  0  0  0  0  0  0
   -1.3546   -0.7014   -0.1570 C   0  0  0  0  0  0  0  0  0  0  0  0
   -0.7040   -0.8758    1.0327 O   0  0  0  0  0  0  0  0  0  0  0  0
    0.1707    0.1489    1.2528 C   0  0  0  0  0  0  0  0  0  0  0  0
   -0.0217    1.1627    0.1169 C   0  0  0  0  0  0  0  0  0  0  0  0
    1.4931   -0.3744    1.0330 O   0  0  0  0  0  0  0  0  0  0  0  0
   -0.8628    0.6226   -1.8379 H   0  0  0  0  0  0  0  0  0  0  0  0
   -2.3017   -0.1069    0.0047 H   0  0  0  0  0  0  0  0  0  0  0  0
   -1.5709   -1.6537   -0.6642 H   0  0  0  0  0  0  0  0  0  0  0  0
    0.0655    0.6047    2.2354 H   0  0  0  0  0  0  0  0  0  0  0  0
   -0.8468    1.8412    0.3028 H   0  0  0  0  0  0  0  0  0  0  0  0
    0.9158    1.6602   -0.1422 H   0  0  0  0  0  0  0  0  0  0  0  0
  1  2  2  0
  2  3  1  0
  3  4  1  0
  4  5  1  0
  5  6  1  0
  6  7  1  0
  7  8  1  0
  7  9  1  0
  9  2  1  0
  8  4  1  0
  4 10  1  0
  5 11  1  0
  5 12  1  0
  7 13  1  0
  8 14  1  0
  8 15  1  0
M  END
