
     RDKit          3D

 18 19  0  0  0  0  0  0  0  0999 V2000
   -1.6375   -1.0626    1.9185 O   0  0  0  0  0  0  0  0  0  0  0  0
   -1.1835   -0.5899    0.9020 C   0  0  0  0  0  0  0  0  0  0  0  0
   -1.0464    0.7231    0.2052 C   0  0  0  0  0  0  0  0  0  0  0  0
    0.3112    1.3368    0.4690 C   0  0  0  0  0  0  0  0  0  0  0  0
    1.4126    0.4469   -0.0692 C   0  0  0  0  0  0  0  0  0  0  0  0
    1.0108   -0.9930   -0.0165 C   0  0  0  0  0  0  0  0  0  0  0  0
   -0.4542   -1.1901   -0.2777 C   0  0  0  0  0  0  0  0  0  0  0  0
   -1.0110   -0.0675   -1.1048 C   0  0  0  0  0  0  0  0  0  0  0  0
   -1.8710    1.4196    0.3107 H   0  0  0  0  0  0  0  0  0  0  0  0
    0.3036    2.3405   -0.0303 H   0  0  0  0  0  0  0  0  0  0  0  0
    0.3909    1.4350    1.5795 H   0  0  0  0  0  0  0  0  0  0  0  0
    1.7851    0.7799   -1.0536 H   0  0  0  0  0  0  0  0  0  0  0  0
    2.2895    0.5750    0.6326 H   0  0  0  0  0  0  0  0  0  0  0  0
    1.6479   -1.6115   -0.6801 H   0  0  0  0  0  0  0  0  0  0  0  0
    1.1839   -1.3468    1.0425 H   0  0  0  0  0  0  0  0  0  0  0  0
   -0.7647   -2.2018   -0.5214 H   0  0  0  0  0  0  0  0  0  0  0  0
   -2.0541   -0.2874   -1.4533 H   0  0  0  0  0  0  0  0  0  0  0  0
   -0.3131    0.2940   -1.8529 H   0  0  0  0  0  0  0  0  0  0  0  0
  1  2  2  0
  2  3  1  0
  3  4  1  0
  4  5  1  0
  5  6  1  0
  6  7  1  0
  7  8  1  0
  7  2  1  0
  8  3  1  0
  3  9  1  0
  4 10  1  0
  4 11  1  0
  5 12  1  0
  5 13  1  0
  6 14  1  0
  6 15  1  0
  7 16  1  0
  8 17  1  0
  8 18  1  0
M  END
