
     RDKit          3D

 17 18  0  0  0  0  0  0  0  0999 V2000
   -2.8999   -0.6263   -0.1570 O   0  0  0  0  0  0  0  0  0  0  0  0
   -1.7238   -0.3271    0.1833 C   0  0  0  0  0  0  0  0  0  0  0  0
   -1.4068    0.9810    0.7371 C   0  0  0  0  0  0  0  0  0  0  0  0
   -0.2834    1.5514    0.3837 C   0  0  0  0  0  0  0  0  0  0  0  0
    0.6257    0.8784   -0.5504 C   0  0  0  0  0  0  0  0  0  0  0  0
    1.9620    0.8273   -0.1271 O   0  0  0  0  0  0  0  0  0  0  0  0
    1.7409   -0.4384    0.4404 C   0  0  0  0  0  0  0  0  0  0  0  0
    0.5939   -0.6012   -0.5383 C   0  0  0  0  0  0  0  0  0  0  0  0
   -0.5872   -1.2687    0.0495 C   0  0  0  0  0  0  0  0  0  0  0  0
   -2.1194    1.4489    1.4281 H   0  0  0  0  0  0  0  0  0  0  0  0
   -0.0196    2.5434    0.7910 H   0  0  0  0  0  0  0  0  0  0  0  0
    0.5578    1.3416   -1.5833 H   0  0  0  0  0  0  0  0  0  0  0  0
    2.5525   -1.1631    0.3057 H   0  0  0  0  0  0  0  0  0  0  0  0
    1.3596   -0.2987    1.4737 H   0  0  0  0  0  0  0  0  0  0  0  0
    0.8912   -1.0306   -1.5220 H   0  0  0  0  0  0  0  0  0  0  0  0
   -0.9063   -2.1322   -0.6035 H   0  0  0  0  0  0  0  0  0  0  0  0
   -0.3372   -1.6857    1.0682 H   0  0  0  0  0  0  0  0  0  0  0  0
  1  2  2  0
  2  3  1  0
  3  4  2  0
  4  5  1  0
  5  6  1  0
  6  7  1  0
  7  8  1  0
  8  9  1  0
  9  2  1  0
  8  5  1  0
  3 10  1  0
  4 11  1  0
  5 12  1  0
  7 13  1  0
  7 14  1  0
  8 15  1  0
  9 16  1  0
  9 17  1  0
M  END
