
     RDKit          3D

 15 16  0  0  0  0  0  0  0  0999 V2000
    3.2111   -0.6035   -0.2183 O   0  0  0  0  0  0  0  0  0  0  0  0
    2.0339   -0.2047   -0.1751 C   0  0  0  0  0  0  0  0  0  0  0  0
    0.9610   -1.1919   -0.0739 C   0  0  0  0  0  0  0  0  0  0  0  0
   -0.2807   -0.8138   -0.0285 C   0  0  0  0  0  0  0  0  0  0  0  0
   -1.7718   -0.9518    0.0558 C   0  0  0  0  0  0  0  0  0  0  0  0
   -1.7191    0.3059    0.7327 O   0  0  0  0  0  0  0  0  0  0  0  0
   -0.7059    0.6251   -0.1380 C   0  0  0  0  0  0  0  0  0  0  0  0
    0.3769    1.5508    0.2722 C   0  0  0  0  0  0  0  0  0  0  0  0
    1.6523    1.1304   -0.2163 O   0  0  0  0  0  0  0  0  0  0  0  0
    1.1541   -2.2566   -0.0334 H   0  0  0  0  0  0  0  0  0  0  0  0
   -2.1100   -1.7782    0.6921 H   0  0  0  0  0  0  0  0  0  0  0  0
   -2.2654   -0.8207   -0.9177 H   0  0  0  0  0  0  0  0  0  0  0  0
   -1.0811    0.7842   -1.1698 H   0  0  0  0  0  0  0  0  0  0  0  0
    0.4003    1.6677    1.3724 H   0  0  0  0  0  0  0  0  0  0  0  0
    0.1445    2.5572   -0.1541 H   0  0  0  0  0  0  0  0  0  0  0  0
  1  2  2  0
  2  3  1  0
  3  4  2  0
  4  5  1  0
  5  6  1  0
  6  7  1  0
  7  8  1  0
  8  9  1  0
  9  2  1  0
  7  4  1  0
  3 10  1  0
  5 11  1  0
  5 12  1  0
  7 13  1  0
  8 14  1  0
  8 15  1  0
M  END
