
     RDKit          3D

 15 17  0  0  0  0  0  0  0  0999 V2000
    2.9673    0.7235    0.2948 O   0  0  0  0  0  0  0  0  0  0  0  0
    1.7252    0.6952    0.1107 C   0  0  0  0  0  0  0  0  0  0  0  0
    0.9069    1.5924   -0.5559 O   0  0  0  0  0  0  0  0  0  0  0  0
   -0.4639    1.3407   -0.2658 C   0  0  0  0  0  0  0  0  0  0  0  0
   -0.4480    0.3409    0.8044 C   0  0  0  0  0  0  0  0  0  0  0  0
    0.8461   -0.3809    0.6093 C   0  0  0  0  0  0  0  0  0  0  0  0
    0.2011   -1.0768   -0.5897 C   0  0  0  0  0  0  0  0  0  0  0  0
   -0.8939   -0.0562   -0.5220 C   0  0  0  0  0  0  0  0  0  0  0  0
   -2.2102   -0.4048   -0.6950 O   0  0  0  0  0  0  0  0  0  0  0  0
   -1.1681    2.1719   -0.2335 H   0  0  0  0  0  0  0  0  0  0  0  0
   -1.0087    0.3532    1.7159 H   0  0  0  0  0  0  0  0  0  0  0  0
    1.2135   -1.0215    1.3942 H   0  0  0  0  0  0  0  0  0  0  0  0
    0.7788   -0.9465   -1.5363 H   0  0  0  0  0  0  0  0  0  0  0  0
   -0.0706   -2.1179   -0.4040 H   0  0  0  0  0  0  0  0  0  0  0  0
   -2.3756   -1.2132   -0.1271 H   0  0  0  0  0  0  0  0  0  0  0  0
  1  2  2  0
  2  3  1  0
  3  4  1  0
  4  5  1  0
  5  6  1  0
  6  7  1  0
  7  8  1  0
  8  9  1  0
  6  2  1  0
  8  4  1  0
  8  5  1  0
  4 10  1  0
  5 11  1  0
  6 12  1  0
  7 13  1  0
  7 14  1  0
  9 15  1  0
M  END
