
     RDKit          3D

 15 16  0  0  0  0  0  0  0  0999 V2000
    2.2183   -1.4799    0.5007 O   0  0  0  0  0  0  0  0  0  0  0  0
    1.3750   -0.5579    0.5779 C   0  0  0  0  0  0  0  0  0  0  0  0
    0.7664    0.0852    1.6480 O   0  0  0  0  0  0  0  0  0  0  0  0
   -0.2442    0.5639    0.8171 C   0  0  0  0  0  0  0  0  0  0  0  0
   -1.3491   -0.4664    0.6449 C   0  0  0  0  0  0  0  0  0  0  0  0
   -1.4227   -0.7813   -0.6805 O   0  0  0  0  0  0  0  0  0  0  0  0
   -0.2809   -0.4016   -1.3204 C   0  0  0  0  0  0  0  0  0  0  0  0
    0.6340    0.2745   -0.3642 C   0  0  0  0  0  0  0  0  0  0  0  0
    1.3419    1.3193   -0.8893 O   0  0  0  0  0  0  0  0  0  0  0  0
   -0.5678    1.5922    0.9631 H   0  0  0  0  0  0  0  0  0  0  0  0
   -2.2837    0.0398    1.0209 H   0  0  0  0  0  0  0  0  0  0  0  0
   -1.1823   -1.3409    1.3196 H   0  0  0  0  0  0  0  0  0  0  0  0
   -0.5443    0.3371   -2.1178 H   0  0  0  0  0  0  0  0  0  0  0  0
    0.1927   -1.2697   -1.8411 H   0  0  0  0  0  0  0  0  0  0  0  0
    1.3468    2.0858   -0.2790 H   0  0  0  0  0  0  0  0  0  0  0  0
  1  2  2  0
  2  3  1  0
  3  4  1  0
  4  5  1  0
  5  6  1  0
  6  7  1  0
  7  8  1  0
  8  9  1  0
  8  2  1  0
  8  4  1  0
  4 10  1  0
  5 11  1  0
  5 12  1  0
  7 13  1  0
  7 14  1  0
  9 15  1  0
M  END
