
     RDKit          3D

 17 18  0  0  0  0  0  0  0  0999 V2000
   -1.1516   -2.3634    0.9078 O   0  0  0  0  0  0  0  0  0  0  0  0
   -0.8581   -1.3185    0.3769 C   0  0  0  0  0  0  0  0  0  0  0  0
   -1.8978   -0.3385   -0.0064 C   0  0  0  0  0  0  0  0  0  0  0  0
   -1.2723    0.6828   -0.7351 O   0  0  0  0  0  0  0  0  0  0  0  0
   -0.3113    1.3399    0.0003 C   0  0  0  0  0  0  0  0  0  0  0  0
    0.7869    0.4393    0.4374 C   0  0  0  0  0  0  0  0  0  0  0  0
    1.7928    0.2066   -0.6685 C   0  0  0  0  0  0  0  0  0  0  0  0
    0.8819   -0.7078   -1.2003 O   0  0  0  0  0  0  0  0  0  0  0  0
    0.5464   -1.0305    0.1151 C   0  0  0  0  0  0  0  0  0  0  0  0
   -2.6548   -0.7634   -0.7055 H   0  0  0  0  0  0  0  0  0  0  0  0
   -2.4456    0.0591    0.8590 H   0  0  0  0  0  0  0  0  0  0  0  0
   -0.7486    1.9002    0.8664 H   0  0  0  0  0  0  0  0  0  0  0  0
    0.1378    2.1067   -0.6882 H   0  0  0  0  0  0  0  0  0  0  0  0
    1.2191    0.6167    1.4372 H   0  0  0  0  0  0  0  0  0  0  0  0
    1.9357    1.1196   -1.2627 H   0  0  0  0  0  0  0  0  0  0  0  0
    2.7353   -0.2913   -0.3352 H   0  0  0  0  0  0  0  0  0  0  0  0
    1.3042   -1.6576    0.6020 H   0  0  0  0  0  0  0  0  0  0  0  0
  1  2  2  0
  2  3  1  0
  3  4  1  0
  4  5  1  0
  5  6  1  0
  6  7  1  0
  7  8  1  0
  8  9  1  0
  9  2  1  0
  9  6  1  0
  3 10  1  0
  3 11  1  0
  5 12  1  0
  5 13  1  0
  6 14  1  0
  7 15  1  0
  7 16  1  0
  9 17  1  0
M  END
