
     RDKit          3D

 15 17  0  0  0  0  0  0  0  0999 V2000
    3.3665    1.1215    0.4211 O   0  0  0  0  0  0  0  0  0  0  0  0
    2.4550    0.2965    0.3017 C   0  0  0  0  0  0  0  0  0  0  0  0
    2.1944   -0.9289   -0.3643 O   0  0  0  0  0  0  0  0  0  0  0  0
    1.0434   -0.2015   -0.7834 C   0  0  0  0  0  0  0  0  0  0  0  0
    1.0437    0.0575    0.7798 C   0  0  0  0  0  0  0  0  0  0  0  0
   -0.1355    0.0774   -0.0510 C   0  0  0  0  0  0  0  0  0  0  0  0
   -1.3203   -0.7731    0.1429 C   0  0  0  0  0  0  0  0  0  0  0  0
   -2.0327    0.5570   -0.0395 C   0  0  0  0  0  0  0  0  0  0  0  0
   -0.8485    1.2517   -0.1423 O   0  0  0  0  0  0  0  0  0  0  0  0
    1.4269    0.6888   -1.3787 H   0  0  0  0  0  0  0  0  0  0  0  0
    1.0918   -0.8948    1.3986 H   0  0  0  0  0  0  0  0  0  0  0  0
   -1.3834   -1.2055    1.1482 H   0  0  0  0  0  0  0  0  0  0  0  0
   -1.6180   -1.4558   -0.6742 H   0  0  0  0  0  0  0  0  0  0  0  0
   -2.6636    0.6252   -0.9495 H   0  0  0  0  0  0  0  0  0  0  0  0
   -2.6195    0.7840    0.8612 H   0  0  0  0  0  0  0  0  0  0  0  0
  1  2  2  0
  2  3  1  0
  3  4  1  0
  4  5  1  0
  5  6  1  0
  6  7  1  0
  7  8  1  0
  8  9  1  0
  5  2  1  0
  9  6  1  0
  6  4  1  0
  4 10  1  0
  5 11  1  0
  7 12  1  0
  7 13  1  0
  8 14  1  0
  8 15  1  0
M  END
