
     RDKit          3D

 16 16  0  0  0  0  0  0  0  0999 V2000
   -0.7613   -2.6667   -0.0413 O   0  0  0  0  0  0  0  0  0  0  0  0
   -0.3573   -1.4984    0.1758 C   0  0  0  0  0  0  0  0  0  0  0  0
    1.0842   -1.3140    0.0544 C   0  0  0  0  0  0  0  0  0  0  0  0
    1.7898   -0.1930   -0.0352 C   0  0  0  0  0  0  0  0  0  0  0  0
    1.2038    1.1500   -0.0274 C   0  0  0  0  0  0  0  0  0  0  0  0
   -0.0407    1.5570   -0.2171 C   0  0  0  0  0  0  0  0  0  0  0  0
   -1.2147    0.6981   -0.5010 C   0  0  0  0  0  0  0  0  0  0  0  0
   -1.3332   -0.4373    0.5249 C   0  0  0  0  0  0  0  0  0  0  0  0
    1.6501   -2.2367    0.0359 H   0  0  0  0  0  0  0  0  0  0  0  0
    2.8511   -0.3170   -0.1171 H   0  0  0  0  0  0  0  0  0  0  0  0
    1.9198    1.9385    0.1681 H   0  0  0  0  0  0  0  0  0  0  0  0
   -0.2777    2.6077   -0.1717 H   0  0  0  0  0  0  0  0  0  0  0  0
   -2.1339    1.2906   -0.4755 H   0  0  0  0  0  0  0  0  0  0  0  0
   -1.0259    0.2587   -1.5244 H   0  0  0  0  0  0  0  0  0  0  0  0
   -0.9982   -0.0422    1.5293 H   0  0  0  0  0  0  0  0  0  0  0  0
   -2.3560   -0.7955    0.6223 H   0  0  0  0  0  0  0  0  0  0  0  0
  1  2  2  0
  2  3  1  0
  3  4  2  0
  4  5  1  0
  5  6  2  0
  6  7  1  0
  7  8  1  0
  8  2  1  0
  3  9  1  0
  4 10  1  0
  5 11  1  0
  6 12  1  0
  7 13  1  0
  7 14  1  0
  8 15  1  0
  8 16  1  0
M  END
