
     RDKit          3D

 17 19  0  0  0  0  0  0  0  0999 V2000
   -1.5111    2.3095   -0.4979 O   0  0  0  0  0  0  0  0  0  0  0  0
   -0.6623    1.4852   -0.2346 C   0  0  0  0  0  0  0  0  0  0  0  0
    0.7579    1.6165    0.1898 C   0  0  0  0  0  0  0  0  0  0  0  0
    0.8572    0.1458    0.2099 C   0  0  0  0  0  0  0  0  0  0  0  0
    1.7487   -0.7248    0.7425 C   0  0  0  0  0  0  0  0  0  0  0  0
    1.7771   -0.4749   -0.7102 O   0  0  0  0  0  0  0  0  0  0  0  0
   -0.5402    0.0500   -0.1827 C   0  0  0  0  0  0  0  0  0  0  0  0
   -1.1533   -0.9187   -1.0658 C   0  0  0  0  0  0  0  0  0  0  0  0
   -1.5322   -0.8705    0.3853 C   0  0  0  0  0  0  0  0  0  0  0  0
    1.4149    2.1547   -0.5481 H   0  0  0  0  0  0  0  0  0  0  0  0
    0.8437    2.0430    1.2320 H   0  0  0  0  0  0  0  0  0  0  0  0
    1.4706   -1.8007    0.9357 H   0  0  0  0  0  0  0  0  0  0  0  0
    2.7215   -0.4716    1.1671 H   0  0  0  0  0  0  0  0  0  0  0  0
   -0.5150   -1.7992   -1.3684 H   0  0  0  0  0  0  0  0  0  0  0  0
   -1.9283   -0.6760   -1.8143 H   0  0  0  0  0  0  0  0  0  0  0  0
   -2.5239   -0.4146    0.6484 H   0  0  0  0  0  0  0  0  0  0  0  0
   -1.2254   -1.6539    1.0824 H   0  0  0  0  0  0  0  0  0  0  0  0
  1  2  2  0
  2  3  1  0
  3  4  1  0
  4  5  1  0
  5  6  1  0
  4  7  1  0
  7  8  1  0
  8  9  1  0
  7  2  1  0
  6  4  1  0
  9  7  1  0
  3 10  1  0
  3 11  1  0
  5 12  1  0
  5 13  1  0
  8 14  1  0
  8 15  1  0
  9 16  1  0
  9 17  1  0
M  END
