
     RDKit          3D

 19 20  0  0  0  0  0  0  0  0999 V2000
   -0.3973    2.4341    0.0778 O   0  0  0  0  0  0  0  0  0  0  0  0
    0.0246    1.3028    0.0508 C   0  0  0  0  0  0  0  0  0  0  0  0
    1.4571    0.9138    0.0976 C   0  0  0  0  0  0  0  0  0  0  0  0
    1.5224   -0.4636   -0.4848 C   0  0  0  0  0  0  0  0  0  0  0  0
    2.3782   -1.2214    0.3410 O   0  0  0  0  0  0  0  0  0  0  0  0
    0.1366   -1.0452   -0.4272 C   0  0  0  0  0  0  0  0  0  0  0  0
   -0.7535    0.0654   -0.0327 C   0  0  0  0  0  0  0  0  0  0  0  0
   -2.0068   -0.0661    0.7022 C   0  0  0  0  0  0  0  0  0  0  0  0
   -2.1027    0.0694   -0.7522 C   0  0  0  0  0  0  0  0  0  0  0  0
    1.7843    0.9508    1.1617 H   0  0  0  0  0  0  0  0  0  0  0  0
    2.0827    1.6298   -0.4495 H   0  0  0  0  0  0  0  0  0  0  0  0
    1.9159   -0.3888   -1.5170 H   0  0  0  0  0  0  0  0  0  0  0  0
    3.2583   -0.7664    0.2918 H   0  0  0  0  0  0  0  0  0  0  0  0
    0.0640   -1.9523    0.2028 H   0  0  0  0  0  0  0  0  0  0  0  0
   -0.1095   -1.3845   -1.4670 H   0  0  0  0  0  0  0  0  0  0  0  0
   -2.3288    0.8073    1.3185 H   0  0  0  0  0  0  0  0  0  0  0  0
   -2.2335   -1.0265    1.1699 H   0  0  0  0  0  0  0  0  0  0  0  0
   -2.2947    0.9950   -1.2895 H   0  0  0  0  0  0  0  0  0  0  0  0
   -2.3972   -0.8537   -1.3093 H   0  0  0  0  0  0  0  0  0  0  0  0
  1  2  2  0
  2  3  1  0
  3  4  1  0
  4  5  1  0
  4  6  1  0
  6  7  1  0
  7  8  1  0
  8  9  1  0
  7  2  1  0
  9  7  1  0
  3 10  1  0
  3 11  1  0
  4 12  1  0
  5 13  1  0
  6 14  1  0
  6 15  1  0
  8 16  1  0
  8 17  1  0
  9 18  1  0
  9 19  1  0
M  END
