
     RDKit          3D

 17 18  0  0  0  0  0  0  0  0999 V2000
    2.9970    1.1882    0.3140 O   0  0  0  0  0  0  0  0  0  0  0  0
    1.9283    0.6657   -0.0140 C   0  0  0  0  0  0  0  0  0  0  0  0
    0.6939    1.4281   -0.0512 C   0  0  0  0  0  0  0  0  0  0  0  0
   -0.4493    0.7715    0.0890 C   0  0  0  0  0  0  0  0  0  0  0  0
   -1.9297    0.6682    0.1743 C   0  0  0  0  0  0  0  0  0  0  0  0
   -1.7751   -0.8215   -0.0808 C   0  0  0  0  0  0  0  0  0  0  0  0
   -0.3171   -0.7087    0.2900 C   0  0  0  0  0  0  0  0  0  0  0  0
    0.5706   -1.1687   -0.6739 O   0  0  0  0  0  0  0  0  0  0  0  0
    1.8775   -0.7637   -0.3811 C   0  0  0  0  0  0  0  0  0  0  0  0
    0.6631    2.5023   -0.1864 H   0  0  0  0  0  0  0  0  0  0  0  0
   -2.4953    1.2231   -0.5883 H   0  0  0  0  0  0  0  0  0  0  0  0
   -2.2749    0.9366    1.1803 H   0  0  0  0  0  0  0  0  0  0  0  0
   -2.3195   -1.4459    0.6753 H   0  0  0  0  0  0  0  0  0  0  0  0
   -1.8909   -1.1425   -1.1139 H   0  0  0  0  0  0  0  0  0  0  0  0
   -0.0748   -1.0043    1.3347 H   0  0  0  0  0  0  0  0  0  0  0  0
    2.3405   -1.4291    0.3689 H   0  0  0  0  0  0  0  0  0  0  0  0
    2.4554   -0.8992   -1.3369 H   0  0  0  0  0  0  0  0  0  0  0  0
  1  2  2  0
  2  3  1  0
  3  4  2  0
  4  5  1  0
  5  6  1  0
  6  7  1  0
  7  8  1  0
  8  9  1  0
  9  2  1  0
  7  4  1  0
  3 10  1  0
  5 11  1  0
  5 12  1  0
  6 13  1  0
  6 14  1  0
  7 15  1  0
  9 16  1  0
  9 17  1  0
M  END
