
     RDKit          3D

 17 19  0  0  0  0  0  0  0  0999 V2000
    1.3598    2.0350    0.8425 O   0  0  0  0  0  0  0  0  0  0  0  0
    1.2004    0.9867    0.2376 C   0  0  0  0  0  0  0  0  0  0  0  0
    1.8052   -0.3884    0.2068 C   0  0  0  0  0  0  0  0  0  0  0  0
    0.4505   -0.9053   -0.2073 C   0  0  0  0  0  0  0  0  0  0  0  0
    0.2788    0.4801   -0.8463 C   0  0  0  0  0  0  0  0  0  0  0  0
   -1.1644    0.8348   -0.6361 C   0  0  0  0  0  0  0  0  0  0  0  0
   -1.6619    0.0050    0.4989 C   0  0  0  0  0  0  0  0  0  0  0  0
   -0.9019    0.0788    1.6583 O   0  0  0  0  0  0  0  0  0  0  0  0
   -0.5886   -0.9945    0.8426 C   0  0  0  0  0  0  0  0  0  0  0  0
    2.4876   -0.4359   -0.6844 H   0  0  0  0  0  0  0  0  0  0  0  0
    2.2100   -0.7414    1.1474 H   0  0  0  0  0  0  0  0  0  0  0  0
    0.4271   -1.7405   -0.9031 H   0  0  0  0  0  0  0  0  0  0  0  0
    0.6813    0.5776   -1.8520 H   0  0  0  0  0  0  0  0  0  0  0  0
   -1.7062    0.6208   -1.5629 H   0  0  0  0  0  0  0  0  0  0  0  0
   -1.2675    1.9274   -0.4428 H   0  0  0  0  0  0  0  0  0  0  0  0
   -2.7085   -0.3250    0.5326 H   0  0  0  0  0  0  0  0  0  0  0  0
   -0.9017   -2.0150    1.1682 H   0  0  0  0  0  0  0  0  0  0  0  0
  1  2  2  0
  2  3  1  0
  3  4  1  0
  4  5  1  0
  5  6  1  0
  6  7  1  0
  7  8  1  0
  8  9  1  0
  5  2  1  0
  9  7  1  0
  9  4  1  0
  3 10  1  0
  3 11  1  0
  4 12  1  0
  5 13  1  0
  6 14  1  0
  6 15  1  0
  7 16  1  0
  9 17  1  0
M  END
