
     RDKit          3D

 18 19  0  0  0  0  0  0  0  0999 V2000
    1.1156    0.6611   -2.1658 O   0  0  0  0  0  0  0  0  0  0  0  0
    1.0562    0.3456   -0.9968 C   0  0  0  0  0  0  0  0  0  0  0  0
    2.0520   -0.0326    0.0417 C   0  0  0  0  0  0  0  0  0  0  0  0
    1.0343    0.4598    1.0734 C   0  0  0  0  0  0  0  0  0  0  0  0
    0.0364    0.1611    0.0219 C   0  0  0  0  0  0  0  0  0  0  0  0
   -1.2266    0.8886   -0.0486 C   0  0  0  0  0  0  0  0  0  0  0  0
   -1.9041   -0.4053   -0.5055 C   0  0  0  0  0  0  0  0  0  0  0  0
   -0.6824   -1.1376    0.0696 C   0  0  0  0  0  0  0  0  0  0  0  0
    2.1227   -1.1343    0.1180 H   0  0  0  0  0  0  0  0  0  0  0  0
    2.9993    0.5259    0.0282 H   0  0  0  0  0  0  0  0  0  0  0  0
    1.0091   -0.0958    2.0083 H   0  0  0  0  0  0  0  0  0  0  0  0
    1.1681    1.5606    1.1954 H   0  0  0  0  0  0  0  0  0  0  0  0
   -1.6281    1.1239    0.9787 H   0  0  0  0  0  0  0  0  0  0  0  0
   -1.3386    1.7293   -0.7540 H   0  0  0  0  0  0  0  0  0  0  0  0
   -1.9325   -0.5444   -1.5937 H   0  0  0  0  0  0  0  0  0  0  0  0
   -2.7854   -0.6981    0.0622 H   0  0  0  0  0  0  0  0  0  0  0  0
   -0.2871   -1.9086   -0.6261 H   0  0  0  0  0  0  0  0  0  0  0  0
   -0.8088   -1.4993    1.0929 H   0  0  0  0  0  0  0  0  0  0  0  0
  1  2  2  0
  2  3  1  0
  3  4  1  0
  4  5  1  0
  5  6  1  0
  6  7  1  0
  7  8  1  0
  5  2  1  0
  8  5  1  0
  3  9  1  0
  3 10  1  0
  4 11  1  0
  4 12  1  0
  6 13  1  0
  6 14  1  0
  7 15  1  0
  7 16  1  0
  8 17  1  0
  8 18  1  0
M  END
