
     RDKit          3D

 19 20  0  0  0  0  0  0  0  0999 V2000
    2.5460    1.0314    1.0847 O   0  0  0  0  0  0  0  0  0  0  0  0
    1.6231    0.5861    0.4295 C   0  0  0  0  0  0  0  0  0  0  0  0
    1.6210   -0.8133   -0.1103 C   0  0  0  0  0  0  0  0  0  0  0  0
    0.2154   -1.3416    0.1468 C   0  0  0  0  0  0  0  0  0  0  0  0
   -0.8394   -0.5389   -0.5083 C   0  0  0  0  0  0  0  0  0  0  0  0
   -2.0346   -0.1616    0.3126 C   0  0  0  0  0  0  0  0  0  0  0  0
   -1.9194    1.1396   -0.2070 O   0  0  0  0  0  0  0  0  0  0  0  0
   -0.5983    0.9024   -0.6563 C   0  0  0  0  0  0  0  0  0  0  0  0
    0.4738    1.4964    0.1775 C   0  0  0  0  0  0  0  0  0  0  0  0
    2.3020   -1.4307    0.5011 H   0  0  0  0  0  0  0  0  0  0  0  0
    1.8518   -0.8486   -1.1856 H   0  0  0  0  0  0  0  0  0  0  0  0
    0.0755   -1.4310    1.2444 H   0  0  0  0  0  0  0  0  0  0  0  0
    0.2109   -2.3824   -0.2626 H   0  0  0  0  0  0  0  0  0  0  0  0
   -1.1527   -0.9959   -1.4913 H   0  0  0  0  0  0  0  0  0  0  0  0
   -2.9760   -0.6819    0.0443 H   0  0  0  0  0  0  0  0  0  0  0  0
   -1.8615   -0.1065    1.4095 H   0  0  0  0  0  0  0  0  0  0  0  0
   -0.5582    1.2632   -1.7251 H   0  0  0  0  0  0  0  0  0  0  0  0
    0.1086    1.9227    1.1536 H   0  0  0  0  0  0  0  0  0  0  0  0
    0.9121    2.3907   -0.3574 H   0  0  0  0  0  0  0  0  0  0  0  0
  1  2  2  0
  2  3  1  0
  3  4  1  0
  4  5  1  0
  5  6  1  0
  6  7  1  0
  7  8  1  0
  8  9  1  0
  9  2  1  0
  8  5  1  0
  3 10  1  0
  3 11  1  0
  4 12  1  0
  4 13  1  0
  5 14  1  0
  6 15  1  0
  6 16  1  0
  8 17  1  0
  9 18  1  0
  9 19  1  0
M  END
