
     RDKit          3D

 15 16  0  0  0  0  0  0  0  0999 V2000
   -2.0585    1.6774   -0.6517 O   0  0  0  0  0  0  0  0  0  0  0  0
   -1.2156    0.8509   -0.3702 C   0  0  0  0  0  0  0  0  0  0  0  0
   -1.1380   -0.6073   -0.7604 C   0  0  0  0  0  0  0  0  0  0  0  0
    0.1420   -0.9502   -0.0306 C   0  0  0  0  0  0  0  0  0  0  0  0
   -0.0501   -0.2480    1.2505 C   0  0  0  0  0  0  0  0  0  0  0  0
   -0.1935   -0.5486    2.3895 O   0  0  0  0  0  0  0  0  0  0  0  0
    0.0205    0.9881    0.4489 C   0  0  0  0  0  0  0  0  0  0  0  0
    1.0141    0.2287   -0.4093 C   0  0  0  0  0  0  0  0  0  0  0  0
    2.3057    0.2008    0.0365 O   0  0  0  0  0  0  0  0  0  0  0  0
   -1.0160   -0.7399   -1.8337 H   0  0  0  0  0  0  0  0  0  0  0  0
   -2.0088   -1.1073   -0.3233 H   0  0  0  0  0  0  0  0  0  0  0  0
    0.5323   -1.9284   -0.0699 H   0  0  0  0  0  0  0  0  0  0  0  0
    0.2844    1.9096    0.8737 H   0  0  0  0  0  0  0  0  0  0  0  0
    0.9279    0.4335   -1.4740 H   0  0  0  0  0  0  0  0  0  0  0  0
    2.4537   -0.1594    0.9240 H   0  0  0  0  0  0  0  0  0  0  0  0
  1  2  2  0
  2  3  1  0
  3  4  1  0
  4  5  1  0
  5  6  2  0
  5  7  1  0
  7  8  1  0
  8  9  1  0
  7  2  1  0
  8  4  1  0
  3 10  1  0
  3 11  1  0
  4 12  1  0
  7 13  1  0
  8 14  1  0
  9 15  1  0
M  END
