
     RDKit          3D

 17 17  0  0  0  0  0  0  0  0999 V2000
    2.7190    1.9744    0.4014 O   0  0  0  0  0  0  0  0  0  0  0  0
    2.3304    0.8428    0.0575 C   0  0  0  0  0  0  0  0  0  0  0  0
    2.9382   -0.2845   -0.4530 O   0  0  0  0  0  0  0  0  0  0  0  0
    1.8156   -1.1280   -0.3005 C   0  0  0  0  0  0  0  0  0  0  0  0
    1.0359    0.1340    0.0195 C   0  0  0  0  0  0  0  0  0  0  0  0
    0.1904    0.4827   -1.0118 O   0  0  0  0  0  0  0  0  0  0  0  0
   -1.0851    0.7095   -0.5445 C   0  0  0  0  0  0  0  0  0  0  0  0
   -1.7429   -0.4681    0.1071 C   0  0  0  0  0  0  0  0  0  0  0  0
   -3.0441   -0.1419    0.5524 O   0  0  0  0  0  0  0  0  0  0  0  0
    1.8914   -1.8577    0.5265 H   0  0  0  0  0  0  0  0  0  0  0  0
    1.4835   -1.6005   -1.2411 H   0  0  0  0  0  0  0  0  0  0  0  0
    0.5779    0.1037    1.0304 H   0  0  0  0  0  0  0  0  0  0  0  0
   -1.6693    1.1584   -1.3509 H   0  0  0  0  0  0  0  0  0  0  0  0
   -1.0085    1.5123    0.2475 H   0  0  0  0  0  0  0  0  0  0  0  0
   -1.8965   -1.3108   -0.6119 H   0  0  0  0  0  0  0  0  0  0  0  0
   -1.1945   -0.8270    0.9971 H   0  0  0  0  0  0  0  0  0  0  0  0
   -3.3414    0.7007    0.1693 H   0  0  0  0  0  0  0  0  0  0  0  0
  1  2  2  0
  2  3  1  0
  3  4  1  0
  4  5  1  0
  5  6  1  0
  6  7  1  0
  7  8  1  0
  8  9  1  0
  5  2  1  0
  4 10  1  0
  4 11  1  0
  5 12  1  0
  7 13  1  0
  7 14  1  0
  8 15  1  0
  8 16  1  0
  9 17  1  0
M  END
