
     RDKit          3D

 15 16  0  0  0  0  0  0  0  0999 V2000
    1.6029    1.0300   -1.6496 O   0  0  0  0  0  0  0  0  0  0  0  0
    0.9591    0.4809   -0.8028 C   0  0  0  0  0  0  0  0  0  0  0  0
    1.4949   -0.6692   -0.0467 C   0  0  0  0  0  0  0  0  0  0  0  0
    0.6101   -1.1457    0.9060 O   0  0  0  0  0  0  0  0  0  0  0  0
   -0.6273   -0.5477    0.9188 C   0  0  0  0  0  0  0  0  0  0  0  0
   -1.2396   -0.3658   -0.4617 C   0  0  0  0  0  0  0  0  0  0  0  0
   -0.4048    0.9287   -0.4733 C   0  0  0  0  0  0  0  0  0  0  0  0
   -0.5823    0.9307    1.0045 C   0  0  0  0  0  0  0  0  0  0  0  0
   -0.6550    1.7616    1.8682 O   0  0  0  0  0  0  0  0  0  0  0  0
    2.4635   -0.3716    0.4498 H   0  0  0  0  0  0  0  0  0  0  0  0
    1.7585   -1.5276   -0.7090 H   0  0  0  0  0  0  0  0  0  0  0  0
   -1.3008   -1.0578    1.6054 H   0  0  0  0  0  0  0  0  0  0  0  0
   -0.9508   -1.0992   -1.2146 H   0  0  0  0  0  0  0  0  0  0  0  0
   -2.2979   -0.0965   -0.3696 H   0  0  0  0  0  0  0  0  0  0  0  0
   -0.8304    1.7493   -1.0254 H   0  0  0  0  0  0  0  0  0  0  0  0
  1  2  2  0
  2  3  1  0
  3  4  1  0
  4  5  1  0
  5  6  1  0
  6  7  1  0
  7  8  1  0
  8  9  2  0
  7  2  1  0
  8  5  1  0
  3 10  1  0
  3 11  1  0
  5 12  1  0
  6 13  1  0
  6 14  1  0
  7 15  1  0
M  END
