
     RDKit          3D

 17 18  0  0  0  0  0  0  0  0999 V2000
   -1.8458    2.2644   -0.7188 O   0  0  0  0  0  0  0  0  0  0  0  0
   -0.9852    1.4445   -0.4074 C   0  0  0  0  0  0  0  0  0  0  0  0
    0.2784    1.8322   -0.0429 O   0  0  0  0  0  0  0  0  0  0  0  0
    1.2812    0.8290    0.0904 C   0  0  0  0  0  0  0  0  0  0  0  0
    0.6468   -0.5057    0.1924 C   0  0  0  0  0  0  0  0  0  0  0  0
    1.4427   -1.5482    0.6403 O   0  0  0  0  0  0  0  0  0  0  0  0
   -0.1396   -0.7838   -1.0681 C   0  0  0  0  0  0  0  0  0  0  0  0
   -1.2774    0.0028   -0.4128 C   0  0  0  0  0  0  0  0  0  0  0  0
   -0.6852   -0.5053    0.9148 C   0  0  0  0  0  0  0  0  0  0  0  0
    1.8938    0.9062   -0.8555 H   0  0  0  0  0  0  0  0  0  0  0  0
    1.9793    1.0485    0.9271 H   0  0  0  0  0  0  0  0  0  0  0  0
    1.6041   -1.3699    1.6183 H   0  0  0  0  0  0  0  0  0  0  0  0
   -0.4151   -1.8212   -1.2360 H   0  0  0  0  0  0  0  0  0  0  0  0
    0.2752   -0.2380   -1.9475 H   0  0  0  0  0  0  0  0  0  0  0  0
   -2.2778   -0.3274   -0.6335 H   0  0  0  0  0  0  0  0  0  0  0  0
   -1.0380   -1.4882    1.2129 H   0  0  0  0  0  0  0  0  0  0  0  0
   -0.7373    0.2602    1.7264 H   0  0  0  0  0  0  0  0  0  0  0  0
  1  2  2  0
  2  3  1  0
  3  4  1  0
  4  5  1  0
  5  6  1  0
  5  7  1  0
  7  8  1  0
  8  9  1  0
  8  2  1  0
  9  5  1  0
  4 10  1  0
  4 11  1  0
  6 12  1  0
  7 13  1  0
  7 14  1  0
  8 15  1  0
  9 16  1  0
  9 17  1  0
M  END
