
     RDKit          3D

 17 17  0  0  0  0  0  0  0  0999 V2000
    1.3732    1.0351    2.0643 O   0  0  0  0  0  0  0  0  0  0  0  0
    1.0061    0.6370    0.9859 C   0  0  0  0  0  0  0  0  0  0  0  0
    1.7929   -0.3215    0.1760 C   0  0  0  0  0  0  0  0  0  0  0  0
    1.0129   -1.4331   -0.0254 O   0  0  0  0  0  0  0  0  0  0  0  0
   -0.1750   -1.1974   -0.6575 C   0  0  0  0  0  0  0  0  0  0  0  0
   -1.0205   -0.1290   -0.0768 C   0  0  0  0  0  0  0  0  0  0  0  0
   -1.8414   -0.6372    0.9390 O   0  0  0  0  0  0  0  0  0  0  0  0
   -0.2725    1.0848    0.3897 C   0  0  0  0  0  0  0  0  0  0  0  0
    0.0678    1.8457   -0.7482 O   0  0  0  0  0  0  0  0  0  0  0  0
    2.6914   -0.6133    0.7496 H   0  0  0  0  0  0  0  0  0  0  0  0
    2.0843    0.1914   -0.7802 H   0  0  0  0  0  0  0  0  0  0  0  0
   -0.0117   -0.9895   -1.7328 H   0  0  0  0  0  0  0  0  0  0  0  0
   -0.7654   -2.1588   -0.6163 H   0  0  0  0  0  0  0  0  0  0  0  0
   -1.7305    0.2197   -0.8779 H   0  0  0  0  0  0  0  0  0  0  0  0
   -2.6924   -0.9857    0.5640 H   0  0  0  0  0  0  0  0  0  0  0  0
   -0.8920    1.6640    1.0881 H   0  0  0  0  0  0  0  0  0  0  0  0
   -0.6274    1.7877   -1.4417 H   0  0  0  0  0  0  0  0  0  0  0  0
  1  2  2  0
  2  3  1  0
  3  4  1  0
  4  5  1  0
  5  6  1  0
  6  7  1  0
  6  8  1  0
  8  9  1  0
  8  2  1  0
  3 10  1  0
  3 11  1  0
  5 12  1  0
  5 13  1  0
  6 14  1  0
  7 15  1  0
  8 16  1  0
  9 17  1  0
M  END
