
     RDKit          3D

 17 17  0  0  0  0  0  0  0  0999 V2000
   -2.9234    1.6760    1.7878 O   0  0  0  0  0  0  0  0  0  0  0  0
   -2.2075    0.9688    1.0196 C   0  0  0  0  0  0  0  0  0  0  0  0
   -2.7658    0.0705    0.1152 O   0  0  0  0  0  0  0  0  0  0  0  0
   -1.7007   -0.4118   -0.6852 C   0  0  0  0  0  0  0  0  0  0  0  0
   -0.5302   -0.2875    0.2684 C   0  0  0  0  0  0  0  0  0  0  0  0
    0.7383   -0.2491   -0.5247 C   0  0  0  0  0  0  0  0  0  0  0  0
    1.9697   -0.1257    0.3390 C   0  0  0  0  0  0  0  0  0  0  0  0
    3.1153   -0.0944   -0.4480 O   0  0  0  0  0  0  0  0  0  0  0  0
   -0.8223    0.9305    0.9127 O   0  0  0  0  0  0  0  0  0  0  0  0
   -1.4893    0.2631   -1.5397 H   0  0  0  0  0  0  0  0  0  0  0  0
   -1.8746   -1.4487   -1.0114 H   0  0  0  0  0  0  0  0  0  0  0  0
   -0.5570   -1.1540    0.9455 H   0  0  0  0  0  0  0  0  0  0  0  0
    0.7771   -1.1741   -1.1359 H   0  0  0  0  0  0  0  0  0  0  0  0
    0.7232    0.6002   -1.2365 H   0  0  0  0  0  0  0  0  0  0  0  0
    2.0489   -1.0700    0.9505 H   0  0  0  0  0  0  0  0  0  0  0  0
    1.9445    0.7176    1.0230 H   0  0  0  0  0  0  0  0  0  0  0  0
    3.5540    0.7887   -0.4183 H   0  0  0  0  0  0  0  0  0  0  0  0
  1  2  2  0
  2  3  1  0
  3  4  1  0
  4  5  1  0
  5  6  1  0
  6  7  1  0
  7  8  1  0
  5  9  1  0
  9  2  1  0
  4 10  1  0
  4 11  1  0
  5 12  1  0
  6 13  1  0
  6 14  1  0
  7 15  1  0
  7 16  1  0
  8 17  1  0
M  END
