
     RDKit          3D

 19 20  0  0  0  0  0  0  0  0999 V2000
    1.6927   -1.3261   -2.0012 O   0  0  0  0  0  0  0  0  0  0  0  0
    0.8934   -0.9711   -1.1095 C   0  0  0  0  0  0  0  0  0  0  0  0
   -0.3766   -1.5129   -1.1290 O   0  0  0  0  0  0  0  0  0  0  0  0
   -1.3785   -1.1882   -0.1869 C   0  0  0  0  0  0  0  0  0  0  0  0
   -0.8803   -0.0580    0.6958 C   0  0  0  0  0  0  0  0  0  0  0  0
   -0.7357    1.1568   -0.1819 C   0  0  0  0  0  0  0  0  0  0  0  0
    0.7554    1.3794   -0.3295 C   0  0  0  0  0  0  0  0  0  0  0  0
    1.3128   -0.0116   -0.0893 C   0  0  0  0  0  0  0  0  0  0  0  0
    0.5369   -0.3842    1.1846 C   0  0  0  0  0  0  0  0  0  0  0  0
   -2.3046   -0.8174   -0.6770 H   0  0  0  0  0  0  0  0  0  0  0  0
   -1.6341   -2.0274    0.4737 H   0  0  0  0  0  0  0  0  0  0  0  0
   -1.5531    0.0805    1.5428 H   0  0  0  0  0  0  0  0  0  0  0  0
   -1.1935    2.0181    0.3434 H   0  0  0  0  0  0  0  0  0  0  0  0
   -1.1406    1.0105   -1.2040 H   0  0  0  0  0  0  0  0  0  0  0  0
    1.0397    1.7967   -1.2918 H   0  0  0  0  0  0  0  0  0  0  0  0
    1.0909    2.0272    0.4802 H   0  0  0  0  0  0  0  0  0  0  0  0
    2.3833    0.0239    0.1155 H   0  0  0  0  0  0  0  0  0  0  0  0
    0.6882   -1.4511    1.3352 H   0  0  0  0  0  0  0  0  0  0  0  0
    0.8037    0.2549    2.0289 H   0  0  0  0  0  0  0  0  0  0  0  0
  1  2  2  0
  2  3  1  0
  3  4  1  0
  4  5  1  0
  5  6  1  0
  6  7  1  0
  7  8  1  0
  8  9  1  0
  8  2  1  0
  9  5  1  0
  4 10  1  0
  4 11  1  0
  5 12  1  0
  6 13  1  0
  6 14  1  0
  7 15  1  0
  7 16  1  0
  8 17  1  0
  9 18  1  0
  9 19  1  0
M  END
