
     RDKit          3D

 19 19  0  0  0  0  0  0  0  0999 V2000
    2.1630    2.2085   -0.0797 O   0  0  0  0  0  0  0  0  0  0  0  0
    1.2965    1.3039   -0.1894 C   0  0  0  0  0  0  0  0  0  0  0  0
    1.8297   -0.0841   -0.2784 C   0  0  0  0  0  0  0  0  0  0  0  0
    1.0980   -0.9038    0.7647 C   0  0  0  0  0  0  0  0  0  0  0  0
    0.1707   -1.7561    0.2573 O   0  0  0  0  0  0  0  0  0  0  0  0
   -0.9585   -1.2392   -0.2647 C   0  0  0  0  0  0  0  0  0  0  0  0
   -1.5429   -0.0466    0.4000 C   0  0  0  0  0  0  0  0  0  0  0  0
   -1.2930    1.2131   -0.4239 C   0  0  0  0  0  0  0  0  0  0  0  0
   -0.0283    1.7560   -0.2094 O   0  0  0  0  0  0  0  0  0  0  0  0
    2.9246   -0.0244   -0.0648 H   0  0  0  0  0  0  0  0  0  0  0  0
    1.6863   -0.4492   -1.2970 H   0  0  0  0  0  0  0  0  0  0  0  0
    0.7303   -0.2320    1.5747 H   0  0  0  0  0  0  0  0  0  0  0  0
    1.8935   -1.5292    1.2643 H   0  0  0  0  0  0  0  0  0  0  0  0
   -1.7157   -2.0754   -0.3461 H   0  0  0  0  0  0  0  0  0  0  0  0
   -0.7597   -0.9624   -1.3384 H   0  0  0  0  0  0  0  0  0  0  0  0
   -1.2816    0.0828    1.4578 H   0  0  0  0  0  0  0  0  0  0  0  0
   -2.6663   -0.1662    0.3820 H   0  0  0  0  0  0  0  0  0  0  0  0
   -1.4976    0.9334   -1.4735 H   0  0  0  0  0  0  0  0  0  0  0  0
   -2.0490    1.9710   -0.1356 H   0  0  0  0  0  0  0  0  0  0  0  0
  1  2  2  0
  2  3  1  0
  3  4  1  0
  4  5  1  0
  5  6  1  0
  6  7  1  0
  7  8  1  0
  8  9  1  0
  9  2  1  0
  3 10  1  0
  3 11  1  0
  4 12  1  0
  4 13  1  0
  6 14  1  0
  6 15  1  0
  7 16  1  0
  7 17  1  0
  8 18  1  0
  8 19  1  0
M  END
