
     RDKit          3D

 17 20  0  0  0  0  0  0  0  0999 V2000
   -1.7768    2.1546    0.7997 O   0  0  0  0  0  0  0  0  0  0  0  0
   -1.1248    1.2233    0.4392 C   0  0  0  0  0  0  0  0  0  0  0  0
    0.2892    1.1407    0.1299 C   0  0  0  0  0  0  0  0  0  0  0  0
    0.3989    0.2225   -1.0714 C   0  0  0  0  0  0  0  0  0  0  0  0
    1.6274   -0.3368   -0.3407 C   0  0  0  0  0  0  0  0  0  0  0  0
    0.7149   -0.1348    0.8777 C   0  0  0  0  0  0  0  0  0  0  0  0
   -0.5074   -0.9779    0.7000 C   0  0  0  0  0  0  0  0  0  0  0  0
   -1.6289   -0.1512    0.2071 C   0  0  0  0  0  0  0  0  0  0  0  0
   -0.7485   -0.7150   -0.8276 C   0  0  0  0  0  0  0  0  0  0  0  0
    0.9394    1.9771    0.1965 H   0  0  0  0  0  0  0  0  0  0  0  0
    0.5515    0.6491   -2.0335 H   0  0  0  0  0  0  0  0  0  0  0  0
    2.4893    0.3481   -0.3585 H   0  0  0  0  0  0  0  0  0  0  0  0
    1.8111   -1.3985   -0.4921 H   0  0  0  0  0  0  0  0  0  0  0  0
    1.1723   -0.0157    1.8254 H   0  0  0  0  0  0  0  0  0  0  0  0
   -0.5884   -1.9966    1.0462 H   0  0  0  0  0  0  0  0  0  0  0  0
   -2.6569   -0.4221    0.3529 H   0  0  0  0  0  0  0  0  0  0  0  0
   -0.9623   -1.5669   -1.4509 H   0  0  0  0  0  0  0  0  0  0  0  0
  1  2  2  0
  2  3  1  0
  3  4  1  0
  4  5  1  0
  5  6  1  0
  6  7  1  0
  7  8  1  0
  8  9  1  0
  8  2  1  0
  6  3  1  0
  9  7  1  0
  9  4  1  0
  3 10  1  0
  4 11  1  0
  5 12  1  0
  5 13  1  0
  6 14  1  0
  7 15  1  0
  8 16  1  0
  9 17  1  0
M  END
