
     RDKit          3D

 15 17  0  0  0  0  0  0  0  0999 V2000
   -0.5968   -2.2723    1.5370 O   0  0  0  0  0  0  0  0  0  0  0  0
   -0.4040   -1.4257    0.7095 C   0  0  0  0  0  0  0  0  0  0  0  0
   -1.2568   -0.4457   -0.0030 C   0  0  0  0  0  0  0  0  0  0  0  0
   -1.1933    0.8723    0.6824 C   0  0  0  0  0  0  0  0  0  0  0  0
   -0.0051    1.4253    0.4753 C   0  0  0  0  0  0  0  0  0  0  0  0
    0.8323    0.5301   -0.3659 C   0  0  0  0  0  0  0  0  0  0  0  0
    1.9376    1.0209   -1.0051 O   0  0  0  0  0  0  0  0  0  0  0  0
    0.7632   -0.9138   -0.0303 C   0  0  0  0  0  0  0  0  0  0  0  0
   -0.1618   -0.3264   -1.0183 C   0  0  0  0  0  0  0  0  0  0  0  0
   -2.2305   -0.7810   -0.3420 H   0  0  0  0  0  0  0  0  0  0  0  0
   -2.0386    1.2759    1.2605 H   0  0  0  0  0  0  0  0  0  0  0  0
    0.2862    2.4018    0.8795 H   0  0  0  0  0  0  0  0  0  0  0  0
    2.7297    0.8292   -0.4101 H   0  0  0  0  0  0  0  0  0  0  0  0
    1.5800   -1.6054   -0.3199 H   0  0  0  0  0  0  0  0  0  0  0  0
   -0.2422   -0.5851   -2.0498 H   0  0  0  0  0  0  0  0  0  0  0  0
  1  2  2  0
  2  3  1  0
  3  4  1  0
  4  5  2  0
  5  6  1  0
  6  7  1  0
  6  8  1  0
  8  9  1  0
  8  2  1  0
  9  3  1  0
  9  6  1  0
  3 10  1  0
  4 11  1  0
  5 12  1  0
  7 13  1  0
  8 14  1  0
  9 15  1  0
M  END
