
     RDKit          3D

 19 20  0  0  0  0  0  0  0  0999 V2000
    3.0092   -1.6057   -0.6173 O   0  0  0  0  0  0  0  0  0  0  0  0
    2.0333   -0.9536   -0.3654 C   0  0  0  0  0  0  0  0  0  0  0  0
    1.1458   -0.0148   -1.0902 C   0  0  0  0  0  0  0  0  0  0  0  0
    0.2473    0.0130    0.1004 C   0  0  0  0  0  0  0  0  0  0  0  0
   -0.1823    1.3440    0.6110 C   0  0  0  0  0  0  0  0  0  0  0  0
   -1.6235    0.8848    0.4118 C   0  0  0  0  0  0  0  0  0  0  0  0
   -1.1399   -0.4865   -0.0664 C   0  0  0  0  0  0  0  0  0  0  0  0
   -1.5353   -0.7885   -1.3744 O   0  0  0  0  0  0  0  0  0  0  0  0
    1.2066   -0.7778    0.8862 C   0  0  0  0  0  0  0  0  0  0  0  0
    1.6814    0.9591   -1.2426 H   0  0  0  0  0  0  0  0  0  0  0  0
    0.6846   -0.4084   -2.0144 H   0  0  0  0  0  0  0  0  0  0  0  0
    0.1056    2.1449   -0.1228 H   0  0  0  0  0  0  0  0  0  0  0  0
    0.0852    1.6203    1.6328 H   0  0  0  0  0  0  0  0  0  0  0  0
   -2.1624    1.3897   -0.3890 H   0  0  0  0  0  0  0  0  0  0  0  0
   -2.1483    0.8793    1.3699 H   0  0  0  0  0  0  0  0  0  0  0  0
   -1.4102   -1.2664    0.6765 H   0  0  0  0  0  0  0  0  0  0  0  0
   -2.5269   -0.8514   -1.3481 H   0  0  0  0  0  0  0  0  0  0  0  0
    0.7909   -1.7701    1.2226 H   0  0  0  0  0  0  0  0  0  0  0  0
    1.7392   -0.3119    1.7193 H   0  0  0  0  0  0  0  0  0  0  0  0
  1  2  2  0
  2  3  1  0
  3  4  1  0
  4  5  1  0
  5  6  1  0
  6  7  1  0
  7  8  1  0
  4  9  1  0
  9  2  1  0
  7  4  1  0
  3 10  1  0
  3 11  1  0
  5 12  1  0
  5 13  1  0
  6 14  1  0
  6 15  1  0
  7 16  1  0
  8 17  1  0
  9 18  1  0
  9 19  1  0
M  END
