
     RDKit          3D

 17 17  0  0  0  0  0  0  0  0999 V2000
    1.8703    2.7538    0.0870 O   0  0  0  0  0  0  0  0  0  0  0  0
    1.4505    1.5676    0.0241 C   0  0  0  0  0  0  0  0  0  0  0  0
    2.1006    0.4952    0.6214 O   0  0  0  0  0  0  0  0  0  0  0  0
    1.2693   -0.5913    0.9870 C   0  0  0  0  0  0  0  0  0  0  0  0
    0.4045   -1.0570   -0.1573 C   0  0  0  0  0  0  0  0  0  0  0  0
   -0.2485    0.0392   -0.9085 C   0  0  0  0  0  0  0  0  0  0  0  0
   -1.7418    0.1678   -0.5839 C   0  0  0  0  0  0  0  0  0  0  0  0
   -1.9213    0.5438    0.7425 O   0  0  0  0  0  0  0  0  0  0  0  0
    0.2977    1.3183   -0.6656 O   0  0  0  0  0  0  0  0  0  0  0  0
    1.9507   -1.4135    1.3000 H   0  0  0  0  0  0  0  0  0  0  0  0
    0.6284   -0.2742    1.8540 H   0  0  0  0  0  0  0  0  0  0  0  0
    1.0765   -1.6673   -0.8246 H   0  0  0  0  0  0  0  0  0  0  0  0
   -0.3098   -1.8042    0.2712 H   0  0  0  0  0  0  0  0  0  0  0  0
   -0.1463   -0.1469   -1.9976 H   0  0  0  0  0  0  0  0  0  0  0  0
   -2.2875   -0.7580   -0.8441 H   0  0  0  0  0  0  0  0  0  0  0  0
   -2.1182    0.9995   -1.2148 H   0  0  0  0  0  0  0  0  0  0  0  0
   -2.2751   -0.1728    1.3092 H   0  0  0  0  0  0  0  0  0  0  0  0
  1  2  2  0
  2  3  1  0
  3  4  1  0
  4  5  1  0
  5  6  1  0
  6  7  1  0
  7  8  1  0
  6  9  1  0
  9  2  1  0
  4 10  1  0
  4 11  1  0
  5 12  1  0
  5 13  1  0
  6 14  1  0
  7 15  1  0
  7 16  1  0
  8 17  1  0
M  END
