
     RDKit          3D

 19 20  0  0  0  0  0  0  0  0999 V2000
   -2.2572    1.5856    0.4008 O   0  0  0  0  0  0  0  0  0  0  0  0
   -1.3913    0.7833    0.2294 C   0  0  0  0  0  0  0  0  0  0  0  0
   -0.9047   -0.2855    1.1823 C   0  0  0  0  0  0  0  0  0  0  0  0
    0.0288   -1.1386    0.3624 C   0  0  0  0  0  0  0  0  0  0  0  0
    1.3478   -0.4209    0.1581 C   0  0  0  0  0  0  0  0  0  0  0  0
    0.8827    0.8570   -0.5550 C   0  0  0  0  0  0  0  0  0  0  0  0
    0.8653    1.8484    0.4544 O   0  0  0  0  0  0  0  0  0  0  0  0
   -0.5203    0.5884   -0.9821 C   0  0  0  0  0  0  0  0  0  0  0  0
   -0.5747   -0.9445   -1.0415 C   0  0  0  0  0  0  0  0  0  0  0  0
   -1.7715   -0.8598    1.5115 H   0  0  0  0  0  0  0  0  0  0  0  0
   -0.3601    0.2231    2.0210 H   0  0  0  0  0  0  0  0  0  0  0  0
    0.1056   -2.1649    0.6549 H   0  0  0  0  0  0  0  0  0  0  0  0
    1.8816   -0.2077    1.0826 H   0  0  0  0  0  0  0  0  0  0  0  0
    1.9446   -1.0129   -0.5825 H   0  0  0  0  0  0  0  0  0  0  0  0
    1.5671    1.1243   -1.3629 H   0  0  0  0  0  0  0  0  0  0  0  0
    1.5539    1.6302    1.1402 H   0  0  0  0  0  0  0  0  0  0  0  0
   -0.8709    1.0723   -1.8644 H   0  0  0  0  0  0  0  0  0  0  0  0
   -1.5916   -1.3237   -0.9905 H   0  0  0  0  0  0  0  0  0  0  0  0
    0.0647   -1.3542   -1.8187 H   0  0  0  0  0  0  0  0  0  0  0  0
  1  2  2  0
  2  3  1  0
  3  4  1  0
  4  5  1  0
  5  6  1  0
  6  7  1  0
  6  8  1  0
  8  9  1  0
  8  2  1  0
  9  4  1  0
  3 10  1  0
  3 11  1  0
  4 12  1  0
  5 13  1  0
  5 14  1  0
  6 15  1  0
  7 16  1  0
  8 17  1  0
  9 18  1  0
  9 19  1  0
M  END
