
     RDKit          3D

 21 21  0  0  0  0  0  0  0  0999 V2000
   -0.0573    0.7330    2.0916 O   0  0  0  0  0  0  0  0  0  0  0  0
    0.5141    0.3095    1.0930 C   0  0  0  0  0  0  0  0  0  0  0  0
    1.8600    0.7878    0.7035 C   0  0  0  0  0  0  0  0  0  0  0  0
    1.9406    0.4877   -0.7641 C   0  0  0  0  0  0  0  0  0  0  0  0
    1.3177   -0.9144   -0.7894 C   0  0  0  0  0  0  0  0  0  0  0  0
    0.0935   -0.6868    0.0918 C   0  0  0  0  0  0  0  0  0  0  0  0
   -1.0756   -0.2043   -0.7140 C   0  0  0  0  0  0  0  0  0  0  0  0
   -2.2323    0.0530    0.2156 C   0  0  0  0  0  0  0  0  0  0  0  0
   -3.3658    0.4851   -0.4859 O   0  0  0  0  0  0  0  0  0  0  0  0
    2.5894    0.1295    1.2147 H   0  0  0  0  0  0  0  0  0  0  0  0
    2.0183    1.8590    0.9364 H   0  0  0  0  0  0  0  0  0  0  0  0
    1.2386    1.1256   -1.3419 H   0  0  0  0  0  0  0  0  0  0  0  0
    2.9452    0.4964   -1.1822 H   0  0  0  0  0  0  0  0  0  0  0  0
    1.9990   -1.6191   -0.2728 H   0  0  0  0  0  0  0  0  0  0  0  0
    1.0724   -1.2556   -1.7937 H   0  0  0  0  0  0  0  0  0  0  0  0
   -0.1634   -1.6546    0.5602 H   0  0  0  0  0  0  0  0  0  0  0  0
   -0.8161    0.7246   -1.3049 H   0  0  0  0  0  0  0  0  0  0  0  0
   -1.3311   -0.9491   -1.5006 H   0  0  0  0  0  0  0  0  0  0  0  0
   -1.9472    0.9026    0.8788 H   0  0  0  0  0  0  0  0  0  0  0  0
   -2.4452   -0.8850    0.7592 H   0  0  0  0  0  0  0  0  0  0  0  0
   -4.1548    0.0751   -0.0325 H   0  0  0  0  0  0  0  0  0  0  0  0
  1  2  2  0
  2  3  1  0
  3  4  1  0
  4  5  1  0
  5  6  1  0
  6  7  1  0
  7  8  1  0
  8  9  1  0
  6  2  1  0
  3 10  1  0
  3 11  1  0
  4 12  1  0
  4 13  1  0
  5 14  1  0
  5 15  1  0
  6 16  1  0
  7 17  1  0
  7 18  1  0
  8 19  1  0
  8 20  1  0
  9 21  1  0
M  END
