
     RDKit          3D

 15 17  0  0  0  0  0  0  0  0999 V2000
    2.8487    0.7010    0.3796 O   0  0  0  0  0  0  0  0  0  0  0  0
    1.7375    0.3259   -0.0748 C   0  0  0  0  0  0  0  0  0  0  0  0
    1.1434   -1.0226    0.1236 C   0  0  0  0  0  0  0  0  0  0  0  0
   -0.3306   -0.6777    0.2726 C   0  0  0  0  0  0  0  0  0  0  0  0
   -1.1069   -0.6027   -0.9918 C   0  0  0  0  0  0  0  0  0  0  0  0
   -0.4969    0.6448   -0.5197 C   0  0  0  0  0  0  0  0  0  0  0  0
   -1.0868    1.2192    0.7653 C   0  0  0  0  0  0  0  0  0  0  0  0
   -0.6899    0.0330    1.3935 O   0  0  0  0  0  0  0  0  0  0  0  0
    0.8098    1.0222   -0.8421 O   0  0  0  0  0  0  0  0  0  0  0  0
    1.2966   -1.6746   -0.7632 H   0  0  0  0  0  0  0  0  0  0  0  0
    1.5323   -1.5490    0.9981 H   0  0  0  0  0  0  0  0  0  0  0  0
   -0.6890   -1.1627   -1.8393 H   0  0  0  0  0  0  0  0  0  0  0  0
   -2.2135   -0.6750   -0.8774 H   0  0  0  0  0  0  0  0  0  0  0  0
   -0.5751    2.1339    1.1218 H   0  0  0  0  0  0  0  0  0  0  0  0
   -2.1795    1.2842    0.6769 H   0  0  0  0  0  0  0  0  0  0  0  0
  1  2  2  0
  2  3  1  0
  3  4  1  0
  4  5  1  0
  5  6  1  0
  6  7  1  0
  7  8  1  0
  6  9  1  0
  9  2  1  0
  6  4  1  0
  8  4  1  0
  3 10  1  0
  3 11  1  0
  5 12  1  0
  5 13  1  0
  7 14  1  0
  7 15  1  0
M  END
