
     RDKit          3D

 19 20  0  0  0  0  0  0  0  0999 V2000
    0.9814    1.1887    1.8895 O   0  0  0  0  0  0  0  0  0  0  0  0
    1.0401    0.5316    0.8649 C   0  0  0  0  0  0  0  0  0  0  0  0
    2.1727    0.1171   -0.0085 C   0  0  0  0  0  0  0  0  0  0  0  0
    1.2515   -0.9720   -0.5681 C   0  0  0  0  0  0  0  0  0  0  0  0
    0.1285   -0.1770   -0.0381 C   0  0  0  0  0  0  0  0  0  0  0  0
   -0.6393    0.6787   -1.0135 C   0  0  0  0  0  0  0  0  0  0  0  0
   -1.8195    1.0776   -0.1794 C   0  0  0  0  0  0  0  0  0  0  0  0
   -2.0248    0.1675    0.7676 C   0  0  0  0  0  0  0  0  0  0  0  0
   -0.9925   -0.9209    0.6435 C   0  0  0  0  0  0  0  0  0  0  0  0
    3.0641   -0.2624    0.5034 H   0  0  0  0  0  0  0  0  0  0  0  0
    2.3792    0.9260   -0.7379 H   0  0  0  0  0  0  0  0  0  0  0  0
    1.4154   -1.9429   -0.0612 H   0  0  0  0  0  0  0  0  0  0  0  0
    1.3969   -1.0050   -1.6658 H   0  0  0  0  0  0  0  0  0  0  0  0
   -0.9658   -0.0131   -1.8412 H   0  0  0  0  0  0  0  0  0  0  0  0
   -0.0751    1.5337   -1.3924 H   0  0  0  0  0  0  0  0  0  0  0  0
   -2.4103    1.9737   -0.3320 H   0  0  0  0  0  0  0  0  0  0  0  0
   -2.8012    0.1805    1.5206 H   0  0  0  0  0  0  0  0  0  0  0  0
   -0.7119   -1.3376    1.6241 H   0  0  0  0  0  0  0  0  0  0  0  0
   -1.3895   -1.7440    0.0245 H   0  0  0  0  0  0  0  0  0  0  0  0
  1  2  2  0
  2  3  1  0
  3  4  1  0
  4  5  1  0
  5  6  1  0
  6  7  1  0
  7  8  2  0
  8  9  1  0
  5  2  1  0
  9  5  1  0
  3 10  1  0
  3 11  1  0
  4 12  1  0
  4 13  1  0
  6 14  1  0
  6 15  1  0
  7 16  1  0
  8 17  1  0
  9 18  1  0
  9 19  1  0
M  END
