
     RDKit          3D

 17 18  0  0  0  0  0  0  0  0999 V2000
   -2.9479    0.0546    1.0518 O   0  0  0  0  0  0  0  0  0  0  0  0
   -1.7595   -0.0782    0.7053 C   0  0  0  0  0  0  0  0  0  0  0  0
   -1.3856   -0.5299   -0.6498 C   0  0  0  0  0  0  0  0  0  0  0  0
    0.0736   -0.2317   -0.8953 C   0  0  0  0  0  0  0  0  0  0  0  0
    0.3945    1.1428   -0.3058 C   0  0  0  0  0  0  0  0  0  0  0  0
    0.5534    0.4133    1.0354 C   0  0  0  0  0  0  0  0  0  0  0  0
   -0.7218    0.1986    1.5974 O   0  0  0  0  0  0  0  0  0  0  0  0
    0.9609   -0.8095    0.2052 C   0  0  0  0  0  0  0  0  0  0  0  0
    2.2892   -0.6918   -0.1730 O   0  0  0  0  0  0  0  0  0  0  0  0
   -1.5681   -1.6012   -0.7386 H   0  0  0  0  0  0  0  0  0  0  0  0
   -1.9650    0.0440   -1.3869 H   0  0  0  0  0  0  0  0  0  0  0  0
    0.4576   -0.4163   -1.8938 H   0  0  0  0  0  0  0  0  0  0  0  0
   -0.4434    1.8380   -0.3540 H   0  0  0  0  0  0  0  0  0  0  0  0
    1.3758    1.5062   -0.6784 H   0  0  0  0  0  0  0  0  0  0  0  0
    1.3272    0.8102    1.6885 H   0  0  0  0  0  0  0  0  0  0  0  0
    0.6404   -1.7700    0.6092 H   0  0  0  0  0  0  0  0  0  0  0  0
    2.7187    0.1209    0.1827 H   0  0  0  0  0  0  0  0  0  0  0  0
  1  2  2  0
  2  3  1  0
  3  4  1  0
  4  5  1  0
  5  6  1  0
  6  7  1  0
  6  8  1  0
  8  9  1  0
  7  2  1  0
  8  4  1  0
  3 10  1  0
  3 11  1  0
  4 12  1  0
  5 13  1  0
  5 14  1  0
  6 15  1  0
  8 16  1  0
  9 17  1  0
M  END
