
     RDKit          3D

 19 20  0  0  0  0  0  0  0  0999 V2000
   -1.1464    2.0796    1.1448 O   0  0  0  0  0  0  0  0  0  0  0  0
   -1.0459    0.9253    0.7932 C   0  0  0  0  0  0  0  0  0  0  0  0
   -2.1990    0.1149    0.2406 C   0  0  0  0  0  0  0  0  0  0  0  0
   -1.4937   -0.9919   -0.5781 C   0  0  0  0  0  0  0  0  0  0  0  0
   -0.1850   -0.3273   -0.7876 C   0  0  0  0  0  0  0  0  0  0  0  0
    1.0629   -0.3706   -0.1494 C   0  0  0  0  0  0  0  0  0  0  0  0
    2.1126    0.6994   -0.4649 C   0  0  0  0  0  0  0  0  0  0  0  0
    3.2570    0.4604    0.2743 O   0  0  0  0  0  0  0  0  0  0  0  0
    0.0427   -0.0289    0.7540 C   0  0  0  0  0  0  0  0  0  0  0  0
   -2.8493    0.7160   -0.3935 H   0  0  0  0  0  0  0  0  0  0  0  0
   -2.7150   -0.4136    1.0648 H   0  0  0  0  0  0  0  0  0  0  0  0
   -1.4665   -1.9335   -0.0374 H   0  0  0  0  0  0  0  0  0  0  0  0
   -2.0247   -1.0863   -1.5480 H   0  0  0  0  0  0  0  0  0  0  0  0
   -0.3571    0.5942   -1.4283 H   0  0  0  0  0  0  0  0  0  0  0  0
    1.5746   -1.3688   -0.0813 H   0  0  0  0  0  0  0  0  0  0  0  0
    1.7535    1.7114   -0.2283 H   0  0  0  0  0  0  0  0  0  0  0  0
    2.3885    0.5799   -1.5357 H   0  0  0  0  0  0  0  0  0  0  0  0
    3.5489   -0.4793    0.1190 H   0  0  0  0  0  0  0  0  0  0  0  0
   -0.2582   -0.8809    1.4500 H   0  0  0  0  0  0  0  0  0  0  0  0
  1  2  2  0
  2  3  1  0
  3  4  1  0
  4  5  1  0
  5  6  1  0
  6  7  1  0
  7  8  1  0
  6  9  1  0
  9  2  1  0
  9  5  1  0
  3 10  1  0
  3 11  1  0
  4 12  1  0
  4 13  1  0
  5 14  1  0
  6 15  1  0
  7 16  1  0
  7 17  1  0
  8 18  1  0
  9 19  1  0
M  END
