
     RDKit          3D

 17 18  0  0  0  0  0  0  0  0999 V2000
   -3.3505   -0.0069   -0.1392 O   0  0  0  0  0  0  0  0  0  0  0  0
   -2.0991    0.0094   -0.0888 C   0  0  0  0  0  0  0  0  0  0  0  0
   -1.4966   -1.1824    0.2867 O   0  0  0  0  0  0  0  0  0  0  0  0
   -0.1784   -1.6688    0.1038 C   0  0  0  0  0  0  0  0  0  0  0  0
    0.6538   -0.5704   -0.4628 C   0  0  0  0  0  0  0  0  0  0  0  0
    1.8292    0.0046    0.1606 C   0  0  0  0  0  0  0  0  0  0  0  0
    0.5683    0.5935    0.5461 C   0  0  0  0  0  0  0  0  0  0  0  0
   -0.1496    1.6837   -0.1564 C   0  0  0  0  0  0  0  0  0  0  0  0
   -1.4610    1.1878   -0.4056 O   0  0  0  0  0  0  0  0  0  0  0  0
    0.2036   -1.9954    1.0975 H   0  0  0  0  0  0  0  0  0  0  0  0
   -0.1928   -2.5125   -0.6031 H   0  0  0  0  0  0  0  0  0  0  0  0
    0.4682   -0.3585   -1.5272 H   0  0  0  0  0  0  0  0  0  0  0  0
    2.3792   -0.5870    0.9213 H   0  0  0  0  0  0  0  0  0  0  0  0
    2.5464    0.5447   -0.5167 H   0  0  0  0  0  0  0  0  0  0  0  0
    0.1830    0.3736    1.5625 H   0  0  0  0  0  0  0  0  0  0  0  0
    0.2849    1.8431   -1.1886 H   0  0  0  0  0  0  0  0  0  0  0  0
   -0.1884    2.6414    0.4100 H   0  0  0  0  0  0  0  0  0  0  0  0
  1  2  2  0
  2  3  1  0
  3  4  1  0
  4  5  1  0
  5  6  1  0
  6  7  1  0
  7  8  1  0
  8  9  1  0
  9  2  1  0
  7  5  1  0
  4 10  1  0
  4 11  1  0
  5 12  1  0
  6 13  1  0
  6 14  1  0
  7 15  1  0
  8 16  1  0
  8 17  1  0
M  END
