
     RDKit          3D

 19 20  0  0  0  0  0  0  0  0999 V2000
   -2.8443   -0.6553    0.2039 O   0  0  0  0  0  0  0  0  0  0  0  0
   -1.6587   -0.3697    0.1598 C   0  0  0  0  0  0  0  0  0  0  0  0
   -1.2769    0.8887   -0.5387 C   0  0  0  0  0  0  0  0  0  0  0  0
    0.2481    0.9613   -0.5870 C   0  0  0  0  0  0  0  0  0  0  0  0
    0.7202    0.8000    0.8482 C   0  0  0  0  0  0  0  0  0  0  0  0
    0.6882   -0.6893    0.6303 C   0  0  0  0  0  0  0  0  0  0  0  0
   -0.6887   -1.2799    0.7949 C   0  0  0  0  0  0  0  0  0  0  0  0
    0.8301   -0.4038   -0.8704 C   0  0  0  0  0  0  0  0  0  0  0  0
    2.1248   -0.4052   -1.3117 O   0  0  0  0  0  0  0  0  0  0  0  0
   -1.7174    0.9871   -1.5368 H   0  0  0  0  0  0  0  0  0  0  0  0
   -1.5839    1.7311    0.1375 H   0  0  0  0  0  0  0  0  0  0  0  0
    0.6633    1.8001   -1.1389 H   0  0  0  0  0  0  0  0  0  0  0  0
    0.0064    1.2156    1.5579 H   0  0  0  0  0  0  0  0  0  0  0  0
    1.7664    1.1437    0.9487 H   0  0  0  0  0  0  0  0  0  0  0  0
    1.5177   -1.2265    1.0811 H   0  0  0  0  0  0  0  0  0  0  0  0
   -0.9357   -1.5730    1.8126 H   0  0  0  0  0  0  0  0  0  0  0  0
   -0.6931   -2.2265    0.1801 H   0  0  0  0  0  0  0  0  0  0  0  0
    0.1557   -0.9857   -1.5094 H   0  0  0  0  0  0  0  0  0  0  0  0
    2.6779    0.2873   -0.8621 H   0  0  0  0  0  0  0  0  0  0  0  0
  1  2  2  0
  2  3  1  0
  3  4  1  0
  4  5  1  0
  5  6  1  0
  6  7  1  0
  6  8  1  0
  8  9  1  0
  7  2  1  0
  8  4  1  0
  3 10  1  0
  3 11  1  0
  4 12  1  0
  5 13  1  0
  5 14  1  0
  6 15  1  0
  7 16  1  0
  7 17  1  0
  8 18  1  0
  9 19  1  0
M  END
