
     RDKit          3D

 19 21  0  0  0  0  0  0  0  0999 V2000
   -0.5230    2.4723   -0.5059 O   0  0  0  0  0  0  0  0  0  0  0  0
   -0.4840    1.3236   -0.2282 C   0  0  0  0  0  0  0  0  0  0  0  0
   -0.9758    0.1732   -1.0023 C   0  0  0  0  0  0  0  0  0  0  0  0
   -1.8188   -0.5240    0.0773 C   0  0  0  0  0  0  0  0  0  0  0  0
   -0.4665   -0.7191    0.7312 C   0  0  0  0  0  0  0  0  0  0  0  0
    0.0704    0.6751    0.9838 C   0  0  0  0  0  0  0  0  0  0  0  0
    1.5393    0.4450    0.7163 C   0  0  0  0  0  0  0  0  0  0  0  0
    1.4327   -0.2781   -0.6376 C   0  0  0  0  0  0  0  0  0  0  0  0
    0.0650   -0.8815   -0.7020 C   0  0  0  0  0  0  0  0  0  0  0  0
   -1.3766    0.2722   -1.9640 H   0  0  0  0  0  0  0  0  0  0  0  0
   -2.4595    0.1549    0.6407 H   0  0  0  0  0  0  0  0  0  0  0  0
   -2.2373   -1.4878   -0.2398 H   0  0  0  0  0  0  0  0  0  0  0  0
   -0.3061   -1.4958    1.4196 H   0  0  0  0  0  0  0  0  0  0  0  0
   -0.1801    1.1108    1.9198 H   0  0  0  0  0  0  0  0  0  0  0  0
    1.9242   -0.2699    1.4549 H   0  0  0  0  0  0  0  0  0  0  0  0
    2.1124    1.3745    0.6338 H   0  0  0  0  0  0  0  0  0  0  0  0
    2.2537   -1.0134   -0.7549 H   0  0  0  0  0  0  0  0  0  0  0  0
    1.4906    0.5215   -1.3998 H   0  0  0  0  0  0  0  0  0  0  0  0
   -0.0605   -1.8534   -1.1428 H   0  0  0  0  0  0  0  0  0  0  0  0
  1  2  2  0
  2  3  1  0
  3  4  1  0
  4  5  1  0
  5  6  1  0
  6  7  1  0
  7  8  1  0
  8  9  1  0
  6  2  1  0
  9  3  1  0
  9  5  1  0
  3 10  1  0
  4 11  1  0
  4 12  1  0
  5 13  1  0
  6 14  1  0
  7 15  1  0
  7 16  1  0
  8 17  1  0
  8 18  1  0
  9 19  1  0
M  END
