
     RDKit          3D

 14 14  0  0  0  0  0  0  0  0999 V2000
   -0.4969    2.8092   -0.9230 O   0  0  0  0  0  0  0  0  0  0  0  0
   -0.3436    1.7150   -0.3433 C   0  0  0  0  0  0  0  0  0  0  0  0
   -1.4737    0.9530   -0.2109 O   0  0  0  0  0  0  0  0  0  0  0  0
   -1.5892   -0.3950    0.2525 C   0  0  0  0  0  0  0  0  0  0  0  0
   -0.4316   -1.2096   -0.2049 C   0  0  0  0  0  0  0  0  0  0  0  0
    0.8461   -0.9495   -0.1780 C   0  0  0  0  0  0  0  0  0  0  0  0
    1.5943    0.2347    0.3110 C   0  0  0  0  0  0  0  0  0  0  0  0
    0.9402    1.4484    0.0715 O   0  0  0  0  0  0  0  0  0  0  0  0
   -2.5502   -0.7691   -0.1583 H   0  0  0  0  0  0  0  0  0  0  0  0
   -1.6870   -0.4255    1.3568 H   0  0  0  0  0  0  0  0  0  0  0  0
   -0.7039   -2.1710   -0.6261 H   0  0  0  0  0  0  0  0  0  0  0  0
    1.5039   -1.7269   -0.5822 H   0  0  0  0  0  0  0  0  0  0  0  0
    1.7853    0.1701    1.4124 H   0  0  0  0  0  0  0  0  0  0  0  0
    2.6064    0.3164   -0.1774 H   0  0  0  0  0  0  0  0  0  0  0  0
  1  2  2  0
  2  3  1  0
  3  4  1  0
  4  5  1  0
  5  6  2  0
  6  7  1  0
  7  8  1  0
  8  2  1  0
  4  9  1  0
  4 10  1  0
  5 11  1  0
  6 12  1  0
  7 13  1  0
  7 14  1  0
M  END
