
     RDKit          3D

 17 18  0  0  0  0  0  0  0  0999 V2000
    3.1940   -0.9666    0.6274 O   0  0  0  0  0  0  0  0  0  0  0  0
    2.2012   -0.2740    0.2868 C   0  0  0  0  0  0  0  0  0  0  0  0
    1.3276   -0.1598   -0.9200 C   0  0  0  0  0  0  0  0  0  0  0  0
    0.3566    0.2999    0.0848 C   0  0  0  0  0  0  0  0  0  0  0  0
   -0.7131    1.2386   -0.2764 C   0  0  0  0  0  0  0  0  0  0  0  0
   -1.6994    0.3645    0.5109 C   0  0  0  0  0  0  0  0  0  0  0  0
   -0.5944   -0.6681    0.6752 C   0  0  0  0  0  0  0  0  0  0  0  0
   -0.7880   -1.8563    0.0144 O   0  0  0  0  0  0  0  0  0  0  0  0
    1.4162    0.7390    0.8701 O   0  0  0  0  0  0  0  0  0  0  0  0
    1.1521   -1.1209   -1.4315 H   0  0  0  0  0  0  0  0  0  0  0  0
    1.7156    0.6579   -1.5565 H   0  0  0  0  0  0  0  0  0  0  0  0
   -1.0106    1.3369   -1.3334 H   0  0  0  0  0  0  0  0  0  0  0  0
   -0.6274    2.2385    0.2096 H   0  0  0  0  0  0  0  0  0  0  0  0
   -2.5450    0.0410   -0.1113 H   0  0  0  0  0  0  0  0  0  0  0  0
   -1.9628    0.7881    1.5048 H   0  0  0  0  0  0  0  0  0  0  0  0
   -0.3245   -0.8773    1.7456 H   0  0  0  0  0  0  0  0  0  0  0  0
   -1.0981   -1.7815   -0.9005 H   0  0  0  0  0  0  0  0  0  0  0  0
  1  2  2  0
  2  3  1  0
  3  4  1  0
  4  5  1  0
  5  6  1  0
  6  7  1  0
  7  8  1  0
  4  9  1  0
  9  2  1  0
  7  4  1  0
  3 10  1  0
  3 11  1  0
  5 12  1  0
  5 13  1  0
  6 14  1  0
  6 15  1  0
  7 16  1  0
  8 17  1  0
M  END
