
     RDKit          3D

 18 19  0  0  0  0  0  0  0  0999 V2000
    2.0611   -1.5463   -0.9856 O   0  0  0  0  0  0  0  0  0  0  0  0
    1.2690   -0.8568   -0.3687 C   0  0  0  0  0  0  0  0  0  0  0  0
    1.5576    0.5486   -0.1050 C   0  0  0  0  0  0  0  0  0  0  0  0
    0.2998    1.4244    0.0404 C   0  0  0  0  0  0  0  0  0  0  0  0
   -0.7927    0.5736   -0.4408 C   0  0  0  0  0  0  0  0  0  0  0  0
   -2.0049    0.1321    0.1535 C   0  0  0  0  0  0  0  0  0  0  0  0
   -0.8598   -0.5361    0.6502 C   0  0  0  0  0  0  0  0  0  0  0  0
    0.0149   -1.5801    0.0730 C   0  0  0  0  0  0  0  0  0  0  0  0
    2.0698    0.9638   -1.0203 H   0  0  0  0  0  0  0  0  0  0  0  0
    2.2636    0.7363    0.7244 H   0  0  0  0  0  0  0  0  0  0  0  0
    0.4163    2.3895   -0.4571 H   0  0  0  0  0  0  0  0  0  0  0  0
    0.2434    1.6453    1.1440 H   0  0  0  0  0  0  0  0  0  0  0  0
   -0.6084    0.2425   -1.5029 H   0  0  0  0  0  0  0  0  0  0  0  0
   -2.5278    0.8620    0.8379 H   0  0  0  0  0  0  0  0  0  0  0  0
   -2.7867   -0.3262   -0.5190 H   0  0  0  0  0  0  0  0  0  0  0  0
   -0.5156   -0.2640    1.6901 H   0  0  0  0  0  0  0  0  0  0  0  0
   -0.4499   -2.1083   -0.7596 H   0  0  0  0  0  0  0  0  0  0  0  0
    0.3503   -2.3003    0.8455 H   0  0  0  0  0  0  0  0  0  0  0  0
  1  2  2  0
  2  3  1  0
  3  4  1  0
  4  5  1  0
  5  6  1  0
  6  7  1  0
  7  8  1  0
  8  2  1  0
  7  5  1  0
  3  9  1  0
  3 10  1  0
  4 11  1  0
  4 12  1  0
  5 13  1  0
  6 14  1  0
  6 15  1  0
  7 16  1  0
  8 17  1  0
  8 18  1  0
M  END
