
     RDKit          3D

 19 19  0  0  0  0  0  0  0  0999 V2000
   -1.4059    2.2825    0.0247 O   0  0  0  0  0  0  0  0  0  0  0  0
   -1.4409    1.0695    0.1511 C   0  0  0  0  0  0  0  0  0  0  0  0
   -2.4760    0.0298   -0.0390 C   0  0  0  0  0  0  0  0  0  0  0  0
   -1.3495   -0.9879   -0.1608 C   0  0  0  0  0  0  0  0  0  0  0  0
   -0.4601   -0.0043    0.5635 C   0  0  0  0  0  0  0  0  0  0  0  0
    0.8534    0.2957   -0.0856 C   0  0  0  0  0  0  0  0  0  0  0  0
    1.2587    1.5654    0.3729 O   0  0  0  0  0  0  0  0  0  0  0  0
    1.9497   -0.6651    0.2974 C   0  0  0  0  0  0  0  0  0  0  0  0
    3.1196   -0.2148   -0.3426 O   0  0  0  0  0  0  0  0  0  0  0  0
   -3.1010    0.1397   -0.9467 H   0  0  0  0  0  0  0  0  0  0  0  0
   -3.0819   -0.0644    0.8829 H   0  0  0  0  0  0  0  0  0  0  0  0
   -1.6146   -1.8995    0.3857 H   0  0  0  0  0  0  0  0  0  0  0  0
   -1.1342   -1.1663   -1.2123 H   0  0  0  0  0  0  0  0  0  0  0  0
   -0.4583   -0.1354    1.6533 H   0  0  0  0  0  0  0  0  0  0  0  0
    0.7421    0.3145   -1.1662 H   0  0  0  0  0  0  0  0  0  0  0  0
    1.7789    2.0166   -0.3360 H   0  0  0  0  0  0  0  0  0  0  0  0
    1.7546   -1.6795   -0.1107 H   0  0  0  0  0  0  0  0  0  0  0  0
    2.1583   -0.6605    1.3821 H   0  0  0  0  0  0  0  0  0  0  0  0
    2.9071   -0.2362   -1.3138 H   0  0  0  0  0  0  0  0  0  0  0  0
  1  2  2  0
  2  3  1  0
  3  4  1  0
  4  5  1  0
  5  6  1  0
  6  7  1  0
  6  8  1  0
  8  9  1  0
  5  2  1  0
  3 10  1  0
  3 11  1  0
  4 12  1  0
  4 13  1  0
  5 14  1  0
  6 15  1  0
  7 16  1  0
  8 17  1  0
  8 18  1  0
  9 19  1  0
M  END
