
     RDKit          3D

 17 18  0  0  0  0  0  0  0  0999 V2000
   -2.7132   -1.0160   -0.3709 O   0  0  0  0  0  0  0  0  0  0  0  0
   -1.6887   -0.4469    0.0145 C   0  0  0  0  0  0  0  0  0  0  0  0
   -1.5685    0.9996   -0.2443 C   0  0  0  0  0  0  0  0  0  0  0  0
   -0.1446    1.3850   -0.3106 C   0  0  0  0  0  0  0  0  0  0  0  0
    0.8664    0.5874   -0.1983 C   0  0  0  0  0  0  0  0  0  0  0  0
    2.2757    0.1651   -0.1438 C   0  0  0  0  0  0  0  0  0  0  0  0
    1.8373   -0.7840    0.8252 O   0  0  0  0  0  0  0  0  0  0  0  0
    0.7148   -0.9003    0.0172 C   0  0  0  0  0  0  0  0  0  0  0  0
   -0.6056   -1.1640    0.7125 C   0  0  0  0  0  0  0  0  0  0  0  0
   -1.9914    1.5800    0.6284 H   0  0  0  0  0  0  0  0  0  0  0  0
   -2.1233    1.3032   -1.1663 H   0  0  0  0  0  0  0  0  0  0  0  0
    0.0392    2.4657   -0.4725 H   0  0  0  0  0  0  0  0  0  0  0  0
    2.5643   -0.3316   -1.0870 H   0  0  0  0  0  0  0  0  0  0  0  0
    2.9905    0.8945    0.2723 H   0  0  0  0  0  0  0  0  0  0  0  0
    0.9180   -1.5142   -0.8817 H   0  0  0  0  0  0  0  0  0  0  0  0
   -0.8178   -2.2570    0.6103 H   0  0  0  0  0  0  0  0  0  0  0  0
   -0.5530   -0.9666    1.7950 H   0  0  0  0  0  0  0  0  0  0  0  0
  1  2  2  0
  2  3  1  0
  3  4  1  0
  4  5  2  0
  5  6  1  0
  6  7  1  0
  7  8  1  0
  8  9  1  0
  9  2  1  0
  8  5  1  0
  3 10  1  0
  3 11  1  0
  4 12  1  0
  6 13  1  0
  6 14  1  0
  8 15  1  0
  9 16  1  0
  9 17  1  0
M  END
