
     RDKit          3D

 14 14  0  0  0  0  0  0  0  0999 V2000
   -2.8303    1.1019    0.0369 O   0  0  0  0  0  0  0  0  0  0  0  0
   -1.7873    0.4035    0.1392 C   0  0  0  0  0  0  0  0  0  0  0  0
   -1.5305   -0.9523   -0.4671 C   0  0  0  0  0  0  0  0  0  0  0  0
   -0.1970   -0.8112   -0.8225 O   0  0  0  0  0  0  0  0  0  0  0  0
    0.4008   -0.1394    0.2333 C   0  0  0  0  0  0  0  0  0  0  0  0
    1.4197    0.8096   -0.3719 C   0  0  0  0  0  0  0  0  0  0  0  0
    2.3823    0.1227   -1.1008 O   0  0  0  0  0  0  0  0  0  0  0  0
   -0.6067    0.6753    0.8218 O   0  0  0  0  0  0  0  0  0  0  0  0
   -1.5782   -1.7324    0.3227 H   0  0  0  0  0  0  0  0  0  0  0  0
   -2.2014   -1.1387   -1.3075 H   0  0  0  0  0  0  0  0  0  0  0  0
    0.8533   -0.8431    0.9447 H   0  0  0  0  0  0  0  0  0  0  0  0
    0.8582    1.4324   -1.1104 H   0  0  0  0  0  0  0  0  0  0  0  0
    1.8442    1.4962    0.3733 H   0  0  0  0  0  0  0  0  0  0  0  0
    2.9728   -0.4246   -0.5412 H   0  0  0  0  0  0  0  0  0  0  0  0
  1  2  2  0
  2  3  1  0
  3  4  1  0
  4  5  1  0
  5  6  1  0
  6  7  1  0
  5  8  1  0
  8  2  1  0
  3  9  1  0
  3 10  1  0
  5 11  1  0
  6 12  1  0
  6 13  1  0
  7 14  1  0
M  END
