
     RDKit          3D

 17 18  0  0  0  0  0  0  0  0999 V2000
    1.0406   -0.0593    2.2448 O   0  0  0  0  0  0  0  0  0  0  0  0
    1.2620   -0.1703    1.0671 C   0  0  0  0  0  0  0  0  0  0  0  0
    2.3644   -0.2798    0.0841 C   0  0  0  0  0  0  0  0  0  0  0  0
    1.4521   -0.6084   -0.9444 O   0  0  0  0  0  0  0  0  0  0  0  0
    0.4468   -0.2642   -0.1304 C   0  0  0  0  0  0  0  0  0  0  0  0
   -0.4027    0.9330   -0.4772 C   0  0  0  0  0  0  0  0  0  0  0  0
   -1.4914    0.2301    0.3504 C   0  0  0  0  0  0  0  0  0  0  0  0
   -2.7666    0.3868   -0.1243 O   0  0  0  0  0  0  0  0  0  0  0  0
   -0.8018   -1.0732   -0.0754 C   0  0  0  0  0  0  0  0  0  0  0  0
    2.8312    0.6993   -0.1276 H   0  0  0  0  0  0  0  0  0  0  0  0
    3.0618   -1.0994    0.3404 H   0  0  0  0  0  0  0  0  0  0  0  0
   -0.6820    0.9663   -1.5412 H   0  0  0  0  0  0  0  0  0  0  0  0
   -0.0345    1.8596   -0.0218 H   0  0  0  0  0  0  0  0  0  0  0  0
   -1.3098    0.3867    1.4178 H   0  0  0  0  0  0  0  0  0  0  0  0
   -3.0022    1.3498   -0.0414 H   0  0  0  0  0  0  0  0  0  0  0  0
   -1.1788   -1.4098   -1.0417 H   0  0  0  0  0  0  0  0  0  0  0  0
   -0.7894   -1.8473    0.7352 H   0  0  0  0  0  0  0  0  0  0  0  0
  1  2  2  0
  2  3  1  0
  3  4  1  0
  4  5  1  0
  5  6  1  0
  6  7  1  0
  7  8  1  0
  7  9  1  0
  5  2  1  0
  9  5  1  0
  3 10  1  0
  3 11  1  0
  6 12  1  0
  6 13  1  0
  7 14  1  0
  8 15  1  0
  9 16  1  0
  9 17  1  0
M  END
