
     RDKit          3D

 14 15  0  0  0  0  0  0  0  0999 V2000
   -1.2338   -2.2770   -0.7382 O   0  0  0  0  0  0  0  0  0  0  0  0
   -0.6649   -1.2170   -0.5377 C   0  0  0  0  0  0  0  0  0  0  0  0
   -1.0999    0.0820    0.0231 C   0  0  0  0  0  0  0  0  0  0  0  0
   -1.6755   -0.0055    1.3027 O   0  0  0  0  0  0  0  0  0  0  0  0
    0.3040    0.5765    0.0429 C   0  0  0  0  0  0  0  0  0  0  0  0
    0.5803    1.8173   -0.5356 O   0  0  0  0  0  0  0  0  0  0  0  0
    1.4416   -0.2730    0.4686 C   0  0  0  0  0  0  0  0  0  0  0  0
    0.6893   -0.6760   -0.7315 C   0  0  0  0  0  0  0  0  0  0  0  0
   -1.7491    0.6208   -0.7058 H   0  0  0  0  0  0  0  0  0  0  0  0
   -2.6173    0.3025    1.3038 H   0  0  0  0  0  0  0  0  0  0  0  0
    1.0738    2.3318    0.1685 H   0  0  0  0  0  0  0  0  0  0  0  0
    2.4440    0.1805    0.3262 H   0  0  0  0  0  0  0  0  0  0  0  0
    1.3861   -0.9417    1.3326 H   0  0  0  0  0  0  0  0  0  0  0  0
    1.1214   -0.5212   -1.7195 H   0  0  0  0  0  0  0  0  0  0  0  0
  1  2  2  0
  2  3  1  0
  3  4  1  0
  3  5  1  0
  5  6  1  0
  5  7  1  0
  7  8  1  0
  8  2  1  0
  8  5  1  0
  3  9  1  0
  4 10  1  0
  6 11  1  0
  7 12  1  0
  7 13  1  0
  8 14  1  0
M  END
