
     RDKit          3D

 19 20  0  0  0  0  0  0  0  0999 V2000
    3.4353    0.0536   -0.0540 O   0  0  0  0  0  0  0  0  0  0  0  0
    2.1976    0.1108    0.1094 C   0  0  0  0  0  0  0  0  0  0  0  0
    1.4772    1.3147   -0.2688 C   0  0  0  0  0  0  0  0  0  0  0  0
    0.1536    1.3340   -0.4008 C   0  0  0  0  0  0  0  0  0  0  0  0
   -0.6601    0.1349   -0.1710 C   0  0  0  0  0  0  0  0  0  0  0  0
    0.1520   -1.1176   -0.2005 C   0  0  0  0  0  0  0  0  0  0  0  0
    1.4028   -0.9984    0.6777 C   0  0  0  0  0  0  0  0  0  0  0  0
   -2.0396    0.0234   -0.7251 C   0  0  0  0  0  0  0  0  0  0  0  0
   -1.8342    0.2317    0.7362 C   0  0  0  0  0  0  0  0  0  0  0  0
    2.0316    2.2365   -0.4522 H   0  0  0  0  0  0  0  0  0  0  0  0
   -0.3154    2.2834   -0.6896 H   0  0  0  0  0  0  0  0  0  0  0  0
   -0.4920   -1.9542    0.1405 H   0  0  0  0  0  0  0  0  0  0  0  0
    0.5349   -1.3157   -1.2334 H   0  0  0  0  0  0  0  0  0  0  0  0
    1.9206   -1.9769    0.6169 H   0  0  0  0  0  0  0  0  0  0  0  0
    1.0768   -0.7972    1.7295 H   0  0  0  0  0  0  0  0  0  0  0  0
   -2.4176   -0.9971   -1.0010 H   0  0  0  0  0  0  0  0  0  0  0  0
   -2.4618    0.8163   -1.3677 H   0  0  0  0  0  0  0  0  0  0  0  0
   -2.1582    1.2242    1.1135 H   0  0  0  0  0  0  0  0  0  0  0  0
   -2.0034   -0.6063    1.4405 H   0  0  0  0  0  0  0  0  0  0  0  0
  1  2  2  0
  2  3  1  0
  3  4  2  0
  4  5  1  0
  5  6  1  0
  6  7  1  0
  5  8  1  0
  8  9  1  0
  7  2  1  0
  9  5  1  0
  3 10  1  0
  4 11  1  0
  6 12  1  0
  6 13  1  0
  7 14  1  0
  7 15  1  0
  8 16  1  0
  8 17  1  0
  9 18  1  0
  9 19  1  0
M  END
