
     RDKit          3D

 19 20  0  0  0  0  0  0  0  0999 V2000
   -1.1626   -2.5206   -0.2612 O   0  0  0  0  0  0  0  0  0  0  0  0
   -0.7326   -1.4172   -0.0652 C   0  0  0  0  0  0  0  0  0  0  0  0
   -1.5793   -0.4488    0.7165 C   0  0  0  0  0  0  0  0  0  0  0  0
   -1.4931    0.8403   -0.1093 C   0  0  0  0  0  0  0  0  0  0  0  0
   -0.0450    1.3012    0.1034 C   0  0  0  0  0  0  0  0  0  0  0  0
    0.9051    0.3939   -0.5853 C   0  0  0  0  0  0  0  0  0  0  0  0
    2.0813   -0.0799    0.2342 C   0  0  0  0  0  0  0  0  0  0  0  0
    1.5899   -1.3829    0.2954 O   0  0  0  0  0  0  0  0  0  0  0  0
    0.5804   -1.0366   -0.5776 C   0  0  0  0  0  0  0  0  0  0  0  0
   -1.0585   -0.2906    1.6842 H   0  0  0  0  0  0  0  0  0  0  0  0
   -2.6127   -0.7952    0.8142 H   0  0  0  0  0  0  0  0  0  0  0  0
   -2.2082    1.5885    0.2218 H   0  0  0  0  0  0  0  0  0  0  0  0
   -1.5723    0.6018   -1.1958 H   0  0  0  0  0  0  0  0  0  0  0  0
    0.0957    1.2936    1.2210 H   0  0  0  0  0  0  0  0  0  0  0  0
    0.0099    2.3412   -0.2911 H   0  0  0  0  0  0  0  0  0  0  0  0
    1.2753    0.8180   -1.5647 H   0  0  0  0  0  0  0  0  0  0  0  0
    2.1300    0.3836    1.2548 H   0  0  0  0  0  0  0  0  0  0  0  0
    3.0566   -0.0936   -0.3009 H   0  0  0  0  0  0  0  0  0  0  0  0
    0.7403   -1.4967   -1.5944 H   0  0  0  0  0  0  0  0  0  0  0  0
  1  2  2  0
  2  3  1  0
  3  4  1  0
  4  5  1  0
  5  6  1  0
  6  7  1  0
  7  8  1  0
  8  9  1  0
  9  2  1  0
  9  6  1  0
  3 10  1  0
  3 11  1  0
  4 12  1  0
  4 13  1  0
  5 14  1  0
  5 15  1  0
  6 16  1  0
  7 17  1  0
  7 18  1  0
  9 19  1  0
M  END
