
     RDKit          3D

 16 17  0  0  0  0  0  0  0  0999 V2000
   -2.6107   -1.0707    0.5218 O   0  0  0  0  0  0  0  0  0  0  0  0
   -1.5180   -0.6051    0.3687 C   0  0  0  0  0  0  0  0  0  0  0  0
   -0.1884   -1.2563    0.5059 C   0  0  0  0  0  0  0  0  0  0  0  0
    0.6353   -0.6303   -0.6074 C   0  0  0  0  0  0  0  0  0  0  0  0
    1.3009    0.6464   -0.2802 C   0  0  0  0  0  0  0  0  0  0  0  0
    1.4292    0.9469    1.0696 O   0  0  0  0  0  0  0  0  0  0  0  0
   -0.0410    0.6384   -0.9291 C   0  0  0  0  0  0  0  0  0  0  0  0
   -1.2307    0.8011   -0.0127 C   0  0  0  0  0  0  0  0  0  0  0  0
    0.2282   -0.9144    1.4925 H   0  0  0  0  0  0  0  0  0  0  0  0
   -0.2325   -2.3561    0.4285 H   0  0  0  0  0  0  0  0  0  0  0  0
    0.9690   -1.2893   -1.4265 H   0  0  0  0  0  0  0  0  0  0  0  0
    2.1102    1.0650   -0.9007 H   0  0  0  0  0  0  0  0  0  0  0  0
    2.2562    0.4666    1.3829 H   0  0  0  0  0  0  0  0  0  0  0  0
   -0.1470    0.9105   -1.9892 H   0  0  0  0  0  0  0  0  0  0  0  0
   -2.0872    1.2830   -0.5054 H   0  0  0  0  0  0  0  0  0  0  0  0
   -0.8735    1.3643    0.8813 H   0  0  0  0  0  0  0  0  0  0  0  0
  1  2  2  0
  2  3  1  0
  3  4  1  0
  4  5  1  0
  5  6  1  0
  5  7  1  0
  7  8  1  0
  8  2  1  0
  7  4  1  0
  3  9  1  0
  3 10  1  0
  4 11  1  0
  5 12  1  0
  6 13  1  0
  7 14  1  0
  8 15  1  0
  8 16  1  0
M  END
