
     RDKit          3D

 15 17  0  0  0  0  0  0  0  0999 V2000
    2.5005    0.5323   -0.8504 O   0  0  0  0  0  0  0  0  0  0  0  0
    1.4038    0.3674   -0.4176 C   0  0  0  0  0  0  0  0  0  0  0  0
    0.9582   -0.9851    0.0038 C   0  0  0  0  0  0  0  0  0  0  0  0
   -0.5318   -1.0181    0.0749 C   0  0  0  0  0  0  0  0  0  0  0  0
   -1.0123    0.1224    0.9041 C   0  0  0  0  0  0  0  0  0  0  0  0
   -0.1632    1.1809    1.0364 O   0  0  0  0  0  0  0  0  0  0  0  0
    0.3675    1.4213   -0.2396 C   0  0  0  0  0  0  0  0  0  0  0  0
   -0.6490    1.0839   -1.1335 O   0  0  0  0  0  0  0  0  0  0  0  0
   -1.2857    0.0344   -0.5453 C   0  0  0  0  0  0  0  0  0  0  0  0
    1.4177   -1.7832   -0.5786 H   0  0  0  0  0  0  0  0  0  0  0  0
    1.3280   -1.1166    1.0635 H   0  0  0  0  0  0  0  0  0  0  0  0
   -0.9760   -2.0036    0.2051 H   0  0  0  0  0  0  0  0  0  0  0  0
   -1.7664   -0.0978    1.6660 H   0  0  0  0  0  0  0  0  0  0  0  0
    0.7473    2.4338   -0.3676 H   0  0  0  0  0  0  0  0  0  0  0  0
   -2.3387   -0.1719   -0.8213 H   0  0  0  0  0  0  0  0  0  0  0  0
  1  2  2  0
  2  3  1  0
  3  4  1  0
  4  5  1  0
  5  6  1  0
  6  7  1  0
  7  8  1  0
  8  9  1  0
  7  2  1  0
  9  4  1  0
  9  5  1  0
  3 10  1  0
  3 11  1  0
  4 12  1  0
  5 13  1  0
  7 14  1  0
  9 15  1  0
M  END
