
     RDKit          3D

 16 16  0  0  0  0  0  0  0  0999 V2000
   -2.1658    1.6725    0.9860 O   0  0  0  0  0  0  0  0  0  0  0  0
   -1.2868    1.0520    0.3405 C   0  0  0  0  0  0  0  0  0  0  0  0
   -1.6861   -0.2011   -0.3455 C   0  0  0  0  0  0  0  0  0  0  0  0
   -0.9536   -1.2462    0.2076 O   0  0  0  0  0  0  0  0  0  0  0  0
    0.3555   -1.2873   -0.2114 C   0  0  0  0  0  0  0  0  0  0  0  0
    1.2517   -0.3218    0.5507 C   0  0  0  0  0  0  0  0  0  0  0  0
    1.1895    1.0456   -0.0730 C   0  0  0  0  0  0  0  0  0  0  0  0
   -0.0402    1.6403    0.3616 O   0  0  0  0  0  0  0  0  0  0  0  0
   -1.3956   -0.0574   -1.4283 H   0  0  0  0  0  0  0  0  0  0  0  0
   -2.7594   -0.3938   -0.2910 H   0  0  0  0  0  0  0  0  0  0  0  0
    0.4853   -1.1612   -1.3070 H   0  0  0  0  0  0  0  0  0  0  0  0
    0.7379   -2.3203    0.0383 H   0  0  0  0  0  0  0  0  0  0  0  0
    0.8856   -0.2941    1.6105 H   0  0  0  0  0  0  0  0  0  0  0  0
    2.2745   -0.7267    0.5297 H   0  0  0  0  0  0  0  0  0  0  0  0
    2.0238    1.6926    0.1939 H   0  0  0  0  0  0  0  0  0  0  0  0
    1.0837    0.9069   -1.1627 H   0  0  0  0  0  0  0  0  0  0  0  0
  1  2  2  0
  2  3  1  0
  3  4  1  0
  4  5  1  0
  5  6  1  0
  6  7  1  0
  7  8  1  0
  8  2  1  0
  3  9  1  0
  3 10  1  0
  5 11  1  0
  5 12  1  0
  6 13  1  0
  6 14  1  0
  7 15  1  0
  7 16  1  0
M  END
