
     RDKit          3D

 17 18  0  0  0  0  0  0  0  0999 V2000
    3.5036   -0.1965   -0.7208 O   0  0  0  0  0  0  0  0  0  0  0  0
    2.3500    0.0099   -0.3062 C   0  0  0  0  0  0  0  0  0  0  0  0
    1.7092    0.3587    0.9762 C   0  0  0  0  0  0  0  0  0  0  0  0
    0.6140   -0.4886    0.3650 C   0  0  0  0  0  0  0  0  0  0  0  0
   -0.7368   -0.0255    0.8009 C   0  0  0  0  0  0  0  0  0  0  0  0
   -1.8408   -0.8803    0.1842 C   0  0  0  0  0  0  0  0  0  0  0  0
   -2.6237    0.2966    0.1622 O   0  0  0  0  0  0  0  0  0  0  0  0
   -1.4130    0.9617   -0.1360 C   0  0  0  0  0  0  0  0  0  0  0  0
    1.0874    0.0089   -0.8716 O   0  0  0  0  0  0  0  0  0  0  0  0
    1.4489    1.4524    1.0199 H   0  0  0  0  0  0  0  0  0  0  0  0
    2.1763   -0.0410    1.8853 H   0  0  0  0  0  0  0  0  0  0  0  0
    0.8362   -1.5580    0.5045 H   0  0  0  0  0  0  0  0  0  0  0  0
   -0.8427    0.1764    1.8669 H   0  0  0  0  0  0  0  0  0  0  0  0
   -2.2321   -1.6728    0.8282 H   0  0  0  0  0  0  0  0  0  0  0  0
   -1.5927   -1.1379   -0.8551 H   0  0  0  0  0  0  0  0  0  0  0  0
   -1.3706    2.0081    0.1580 H   0  0  0  0  0  0  0  0  0  0  0  0
   -1.0732    0.7278   -1.1828 H   0  0  0  0  0  0  0  0  0  0  0  0
  1  2  2  0
  2  3  1  0
  3  4  1  0
  4  5  1  0
  5  6  1  0
  6  7  1  0
  7  8  1  0
  4  9  1  0
  9  2  1  0
  8  5  1  0
  3 10  1  0
  3 11  1  0
  4 12  1  0
  5 13  1  0
  6 14  1  0
  6 15  1  0
  8 16  1  0
  8 17  1  0
M  END
