
     RDKit          3D

 15 16  0  0  0  0  0  0  0  0999 V2000
   -0.3498    2.5044   -0.0517 O   0  0  0  0  0  0  0  0  0  0  0  0
   -0.2004    1.3173   -0.0972 C   0  0  0  0  0  0  0  0  0  0  0  0
   -1.0765    0.3544   -0.7856 C   0  0  0  0  0  0  0  0  0  0  0  0
   -1.1189   -0.7969    0.1959 C   0  0  0  0  0  0  0  0  0  0  0  0
    0.2720   -0.8301    0.7291 C   0  0  0  0  0  0  0  0  0  0  0  0
    1.2084   -1.3935   -0.1631 O   0  0  0  0  0  0  0  0  0  0  0  0
    1.7904   -0.1587   -0.4056 C   0  0  0  0  0  0  0  0  0  0  0  0
    2.7406    0.1893   -1.1490 O   0  0  0  0  0  0  0  0  0  0  0  0
    0.8845    0.5372    0.5172 C   0  0  0  0  0  0  0  0  0  0  0  0
   -2.0846    0.7514   -0.9993 H   0  0  0  0  0  0  0  0  0  0  0  0
   -0.5633   -0.0243   -1.6941 H   0  0  0  0  0  0  0  0  0  0  0  0
   -1.8356   -0.5240    0.9846 H   0  0  0  0  0  0  0  0  0  0  0  0
   -1.3767   -1.7568   -0.2844 H   0  0  0  0  0  0  0  0  0  0  0  0
    0.3594   -1.1436    1.7831 H   0  0  0  0  0  0  0  0  0  0  0  0
    1.3507    0.9737    1.4202 H   0  0  0  0  0  0  0  0  0  0  0  0
  1  2  2  0
  2  3  1  0
  3  4  1  0
  4  5  1  0
  5  6  1  0
  6  7  1  0
  7  8  2  0
  7  9  1  0
  9  2  1  0
  9  5  1  0
  3 10  1  0
  3 11  1  0
  4 12  1  0
  4 13  1  0
  5 14  1  0
  9 15  1  0
M  END
