
     RDKit          3D

 17 18  0  0  0  0  0  0  0  0999 V2000
   -1.2513   -0.5937    2.2423 O   0  0  0  0  0  0  0  0  0  0  0  0
   -0.9795   -0.4457    1.0916 C   0  0  0  0  0  0  0  0  0  0  0  0
   -1.0636    0.6525    0.1052 C   0  0  0  0  0  0  0  0  0  0  0  0
   -1.5897   -0.3955   -0.8431 C   0  0  0  0  0  0  0  0  0  0  0  0
   -0.4410   -1.0567   -0.1274 C   0  0  0  0  0  0  0  0  0  0  0  0
    0.2978    0.2399   -0.3441 C   0  0  0  0  0  0  0  0  0  0  0  0
    0.5431    0.5945   -1.6490 O   0  0  0  0  0  0  0  0  0  0  0  0
    1.4327    0.4644    0.5934 C   0  0  0  0  0  0  0  0  0  0  0  0
    2.5285   -0.2936    0.1591 O   0  0  0  0  0  0  0  0  0  0  0  0
   -1.4270    1.5745    0.2449 H   0  0  0  0  0  0  0  0  0  0  0  0
   -2.5828   -0.7944   -0.6395 H   0  0  0  0  0  0  0  0  0  0  0  0
   -1.3255   -0.2026   -1.8973 H   0  0  0  0  0  0  0  0  0  0  0  0
   -0.0909   -1.9811   -0.2702 H   0  0  0  0  0  0  0  0  0  0  0  0
    0.3125    1.5678   -1.7426 H   0  0  0  0  0  0  0  0  0  0  0  0
    1.1569    0.1525    1.6172 H   0  0  0  0  0  0  0  0  0  0  0  0
    1.7207    1.5346    0.6613 H   0  0  0  0  0  0  0  0  0  0  0  0
    2.7590   -1.0174    0.7984 H   0  0  0  0  0  0  0  0  0  0  0  0
  1  2  2  0
  2  3  1  0
  3  4  1  0
  4  5  1  0
  5  6  1  0
  6  7  1  0
  6  8  1  0
  8  9  1  0
  5  2  1  0
  6  3  1  0
  3 10  1  0
  4 11  1  0
  4 12  1  0
  5 13  1  0
  7 14  1  0
  8 15  1  0
  8 16  1  0
  9 17  1  0
M  END
