
     RDKit          3D

 19 20  0  0  0  0  0  0  0  0999 V2000
    0.3990    1.0601   -2.1731 O   0  0  0  0  0  0  0  0  0  0  0  0
    0.6770    0.3671   -1.2137 C   0  0  0  0  0  0  0  0  0  0  0  0
    1.9362    0.3138   -0.4275 C   0  0  0  0  0  0  0  0  0  0  0  0
    1.5682   -0.3072    0.8903 C   0  0  0  0  0  0  0  0  0  0  0  0
    0.0701   -0.3827    0.9031 C   0  0  0  0  0  0  0  0  0  0  0  0
   -0.5329    0.8694    1.0687 O   0  0  0  0  0  0  0  0  0  0  0  0
   -1.7942    0.7406    0.5259 C   0  0  0  0  0  0  0  0  0  0  0  0
   -1.6788   -0.2147   -0.6499 C   0  0  0  0  0  0  0  0  0  0  0  0
   -0.2297   -0.6336   -0.5810 C   0  0  0  0  0  0  0  0  0  0  0  0
    2.6284   -0.3482   -0.9501 H   0  0  0  0  0  0  0  0  0  0  0  0
    2.3487    1.3177   -0.2191 H   0  0  0  0  0  0  0  0  0  0  0  0
    1.9489   -1.3492    0.9962 H   0  0  0  0  0  0  0  0  0  0  0  0
    1.9002    0.2549    1.7663 H   0  0  0  0  0  0  0  0  0  0  0  0
   -0.3458   -1.1559    1.5478 H   0  0  0  0  0  0  0  0  0  0  0  0
   -2.4483    0.3062    1.3097 H   0  0  0  0  0  0  0  0  0  0  0  0
   -2.1700    1.6976    0.1296 H   0  0  0  0  0  0  0  0  0  0  0  0
   -2.2831   -1.1209   -0.4390 H   0  0  0  0  0  0  0  0  0  0  0  0
   -1.9540    0.2418   -1.6030 H   0  0  0  0  0  0  0  0  0  0  0  0
   -0.0399   -1.6566   -0.8812 H   0  0  0  0  0  0  0  0  0  0  0  0
  1  2  2  0
  2  3  1  0
  3  4  1  0
  4  5  1  0
  5  6  1  0
  6  7  1  0
  7  8  1  0
  8  9  1  0
  9  2  1  0
  9  5  1  0
  3 10  1  0
  3 11  1  0
  4 12  1  0
  4 13  1  0
  5 14  1  0
  7 15  1  0
  7 16  1  0
  8 17  1  0
  8 18  1  0
  9 19  1  0
M  END
