
     RDKit          3D

 17 18  0  0  0  0  0  0  0  0999 V2000
    1.8974    1.9457    0.9373 O   0  0  0  0  0  0  0  0  0  0  0  0
    0.9794    1.3085    0.3565 C   0  0  0  0  0  0  0  0  0  0  0  0
   -0.3594    1.7691    0.3763 O   0  0  0  0  0  0  0  0  0  0  0  0
   -1.2569    0.8845   -0.1934 C   0  0  0  0  0  0  0  0  0  0  0  0
   -2.1509   -0.0683    0.3294 C   0  0  0  0  0  0  0  0  0  0  0  0
   -0.8032   -0.4559    0.4652 C   0  0  0  0  0  0  0  0  0  0  0  0
    0.2217   -0.9302   -0.4771 C   0  0  0  0  0  0  0  0  0  0  0  0
    1.3809    0.0573   -0.3439 C   0  0  0  0  0  0  0  0  0  0  0  0
    2.3023   -0.5742    0.5046 O   0  0  0  0  0  0  0  0  0  0  0  0
   -1.1841    0.9501   -1.3209 H   0  0  0  0  0  0  0  0  0  0  0  0
   -2.8062   -0.6426   -0.3884 H   0  0  0  0  0  0  0  0  0  0  0  0
   -2.7533    0.1452    1.2532 H   0  0  0  0  0  0  0  0  0  0  0  0
   -0.3693   -0.3951    1.5096 H   0  0  0  0  0  0  0  0  0  0  0  0
   -0.1699   -0.8990   -1.5384 H   0  0  0  0  0  0  0  0  0  0  0  0
    0.5545   -1.9465   -0.2591 H   0  0  0  0  0  0  0  0  0  0  0  0
    1.8569    0.2543   -1.3202 H   0  0  0  0  0  0  0  0  0  0  0  0
    2.6602   -1.4027    0.1093 H   0  0  0  0  0  0  0  0  0  0  0  0
  1  2  2  0
  2  3  1  0
  3  4  1  0
  4  5  1  0
  5  6  1  0
  6  7  1  0
  7  8  1  0
  8  9  1  0
  8  2  1  0
  6  4  1  0
  4 10  1  0
  5 11  1  0
  5 12  1  0
  6 13  1  0
  7 14  1  0
  7 15  1  0
  8 16  1  0
  9 17  1  0
M  END
