
     RDKit          3D

 12 13  0  0  0  0  0  0  0  0999 V2000
    2.3546    0.9049   -0.5553 O   0  0  0  0  0  0  0  0  0  0  0  0
    1.2266    0.5431   -0.1516 C   0  0  0  0  0  0  0  0  0  0  0  0
    0.0621    1.2929    0.3122 C   0  0  0  0  0  0  0  0  0  0  0  0
   -0.1809    2.5097    0.4380 O   0  0  0  0  0  0  0  0  0  0  0  0
   -0.8486    0.1575    0.6279 C   0  0  0  0  0  0  0  0  0  0  0  0
   -0.7303   -0.7042   -0.6052 C   0  0  0  0  0  0  0  0  0  0  0  0
    0.6592   -0.8502    0.0008 C   0  0  0  0  0  0  0  0  0  0  0  0
    0.0290   -0.7780    1.2259 O   0  0  0  0  0  0  0  0  0  0  0  0
   -1.7848    0.3336    1.0740 H   0  0  0  0  0  0  0  0  0  0  0  0
   -0.7884   -0.0829   -1.5041 H   0  0  0  0  0  0  0  0  0  0  0  0
   -1.2596   -1.6568   -0.5912 H   0  0  0  0  0  0  0  0  0  0  0  0
    1.2613   -1.6696   -0.2715 H   0  0  0  0  0  0  0  0  0  0  0  0
  1  2  2  0
  2  3  1  0
  3  4  2  0
  3  5  1  0
  5  6  1  0
  6  7  1  0
  7  8  1  0
  7  2  1  0
  8  5  1  0
  5  9  1  0
  6 10  1  0
  6 11  1  0
  7 12  1  0
M  END
