
     RDKit          3D

 19 19  0  0  0  0  0  0  0  0999 V2000
   -1.7224   -2.5415    0.5349 O   0  0  0  0  0  0  0  0  0  0  0  0
   -0.8857   -1.7214    0.2401 C   0  0  0  0  0  0  0  0  0  0  0  0
    0.3565   -1.1699    0.8508 C   0  0  0  0  0  0  0  0  0  0  0  0
    0.0659    0.1157    0.1042 C   0  0  0  0  0  0  0  0  0  0  0  0
    1.2974    0.8031   -0.4444 C   0  0  0  0  0  0  0  0  0  0  0  0
    1.9637   -0.0326   -1.3372 O   0  0  0  0  0  0  0  0  0  0  0  0
   -0.9406    1.0204    0.7442 C   0  0  0  0  0  0  0  0  0  0  0  0
   -1.0934    2.1400   -0.0515 O   0  0  0  0  0  0  0  0  0  0  0  0
   -0.6294   -0.8012   -0.9032 C   0  0  0  0  0  0  0  0  0  0  0  0
    0.3620   -1.0973    1.9469 H   0  0  0  0  0  0  0  0  0  0  0  0
    1.2384   -1.6662    0.3965 H   0  0  0  0  0  0  0  0  0  0  0  0
    1.0638    1.7812   -0.8656 H   0  0  0  0  0  0  0  0  0  0  0  0
    1.9617    0.9939    0.4461 H   0  0  0  0  0  0  0  0  0  0  0  0
    2.8376   -0.3366   -1.0058 H   0  0  0  0  0  0  0  0  0  0  0  0
   -1.8921    0.4539    0.8307 H   0  0  0  0  0  0  0  0  0  0  0  0
   -0.6040    1.2680    1.7733 H   0  0  0  0  0  0  0  0  0  0  0  0
   -2.0337    2.3378   -0.2735 H   0  0  0  0  0  0  0  0  0  0  0  0
   -1.5077   -0.3613   -1.3793 H   0  0  0  0  0  0  0  0  0  0  0  0
    0.1621   -1.1860   -1.6074 H   0  0  0  0  0  0  0  0  0  0  0  0
  1  2  2  0
  2  3  1  0
  3  4  1  0
  4  5  1  0
  5  6  1  0
  4  7  1  0
  7  8  1  0
  4  9  1  0
  9  2  1  0
  3 10  1  0
  3 11  1  0
  5 12  1  0
  5 13  1  0
  6 14  1  0
  7 15  1  0
  7 16  1  0
  8 17  1  0
  9 18  1  0
  9 19  1  0
M  END
