
     RDKit          3D

 17 17  0  0  0  0  0  0  0  0999 V2000
    2.0741    1.4854    1.6334 O   0  0  0  0  0  0  0  0  0  0  0  0
    1.3116    1.0580    0.7080 C   0  0  0  0  0  0  0  0  0  0  0  0
    1.8433    0.0472   -0.2192 C   0  0  0  0  0  0  0  0  0  0  0  0
    0.9799   -1.1112   -0.4443 C   0  0  0  0  0  0  0  0  0  0  0  0
   -0.2984   -1.2427   -0.1912 C   0  0  0  0  0  0  0  0  0  0  0  0
   -1.2504   -0.3024    0.3818 C   0  0  0  0  0  0  0  0  0  0  0  0
   -2.5426   -0.6747    0.0174 O   0  0  0  0  0  0  0  0  0  0  0  0
   -1.0784    1.1329   -0.0061 C   0  0  0  0  0  0  0  0  0  0  0  0
    0.0457    1.6443    0.7282 O   0  0  0  0  0  0  0  0  0  0  0  0
    2.8097   -0.3163    0.1946 H   0  0  0  0  0  0  0  0  0  0  0  0
    2.0902    0.5253   -1.2104 H   0  0  0  0  0  0  0  0  0  0  0  0
    1.4865   -1.9654   -0.8802 H   0  0  0  0  0  0  0  0  0  0  0  0
   -0.7407   -2.2229   -0.4482 H   0  0  0  0  0  0  0  0  0  0  0  0
   -1.2140   -0.3725    1.4948 H   0  0  0  0  0  0  0  0  0  0  0  0
   -2.6905   -0.5755   -0.9685 H   0  0  0  0  0  0  0  0  0  0  0  0
   -0.8290    1.2088   -1.0688 H   0  0  0  0  0  0  0  0  0  0  0  0
   -1.9969    1.6816    0.2787 H   0  0  0  0  0  0  0  0  0  0  0  0
  1  2  2  0
  2  3  1  0
  3  4  1  0
  4  5  2  0
  5  6  1  0
  6  7  1  0
  6  8  1  0
  8  9  1  0
  9  2  1  0
  3 10  1  0
  3 11  1  0
  4 12  1  0
  5 13  1  0
  6 14  1  0
  7 15  1  0
  8 16  1  0
  8 17  1  0
M  END
