
     RDKit          3D

 19 21  0  0  0  0  0  0  0  0999 V2000
   -1.2786    2.6175    0.8039 O   0  0  0  0  0  0  0  0  0  0  0  0
   -0.8781    1.6441    0.1963 C   0  0  0  0  0  0  0  0  0  0  0  0
    0.5105    1.3716   -0.2816 C   0  0  0  0  0  0  0  0  0  0  0  0
    0.5974   -0.1257   -0.1239 C   0  0  0  0  0  0  0  0  0  0  0  0
    1.6161   -0.7563    0.7367 C   0  0  0  0  0  0  0  0  0  0  0  0
    1.7278   -0.8864   -0.7491 C   0  0  0  0  0  0  0  0  0  0  0  0
   -0.7628   -0.6875   -0.3293 C   0  0  0  0  0  0  0  0  0  0  0  0
   -1.8040   -0.6743    0.7260 C   0  0  0  0  0  0  0  0  0  0  0  0
   -1.6772    0.4636   -0.2306 C   0  0  0  0  0  0  0  0  0  0  0  0
    0.6573    1.6755   -1.3278 H   0  0  0  0  0  0  0  0  0  0  0  0
    1.2457    1.8809    0.3844 H   0  0  0  0  0  0  0  0  0  0  0  0
    1.2665   -1.6296    1.3284 H   0  0  0  0  0  0  0  0  0  0  0  0
    2.3981   -0.1429    1.2068 H   0  0  0  0  0  0  0  0  0  0  0  0
    1.5102   -1.9239   -1.1359 H   0  0  0  0  0  0  0  0  0  0  0  0
    2.4560   -0.2737   -1.2914 H   0  0  0  0  0  0  0  0  0  0  0  0
   -0.8996   -1.3689   -1.2191 H   0  0  0  0  0  0  0  0  0  0  0  0
   -1.5395   -0.4987    1.7782 H   0  0  0  0  0  0  0  0  0  0  0  0
   -2.6783   -1.3389    0.5224 H   0  0  0  0  0  0  0  0  0  0  0  0
   -2.4675    0.6537   -0.9945 H   0  0  0  0  0  0  0  0  0  0  0  0
  1  2  2  0
  2  3  1  0
  3  4  1  0
  4  5  1  0
  5  6  1  0
  4  7  1  0
  7  8  1  0
  8  9  1  0
  9  2  1  0
  6  4  1  0
  9  7  1  0
  3 10  1  0
  3 11  1  0
  5 12  1  0
  5 13  1  0
  6 14  1  0
  6 15  1  0
  7 16  1  0
  8 17  1  0
  8 18  1  0
  9 19  1  0
M  END
