
     RDKit          3D

 17 18  0  0  0  0  0  0  0  0999 V2000
    2.6219   -1.4523   -0.0695 O   0  0  0  0  0  0  0  0  0  0  0  0
    1.4936   -0.9600    0.1871 C   0  0  0  0  0  0  0  0  0  0  0  0
    1.3224    0.5122    0.3467 C   0  0  0  0  0  0  0  0  0  0  0  0
    0.1163    0.9774   -0.4152 C   0  0  0  0  0  0  0  0  0  0  0  0
   -1.0134    1.1470    0.5651 C   0  0  0  0  0  0  0  0  0  0  0  0
   -1.3101   -0.0910    0.9492 C   0  0  0  0  0  0  0  0  0  0  0  0
   -0.8845   -1.0896   -0.0444 C   0  0  0  0  0  0  0  0  0  0  0  0
   -0.4474   -0.1995   -1.2220 C   0  0  0  0  0  0  0  0  0  0  0  0
    0.3445   -1.7310    0.3386 O   0  0  0  0  0  0  0  0  0  0  0  0
    2.2440    1.0500    0.0920 H   0  0  0  0  0  0  0  0  0  0  0  0
    1.1747    0.6757    1.4546 H   0  0  0  0  0  0  0  0  0  0  0  0
    0.2752    1.8535   -1.0355 H   0  0  0  0  0  0  0  0  0  0  0  0
   -1.4637    2.0854    0.8700 H   0  0  0  0  0  0  0  0  0  0  0  0
   -1.8109   -0.3295    1.8927 H   0  0  0  0  0  0  0  0  0  0  0  0
   -1.6475   -1.8088   -0.3339 H   0  0  0  0  0  0  0  0  0  0  0  0
    0.3334   -0.7039   -1.8067 H   0  0  0  0  0  0  0  0  0  0  0  0
   -1.3484    0.0645   -1.7688 H   0  0  0  0  0  0  0  0  0  0  0  0
  1  2  2  0
  2  3  1  0
  3  4  1  0
  4  5  1  0
  5  6  2  0
  6  7  1  0
  7  8  1  0
  7  9  1  0
  9  2  1  0
  8  4  1  0
  3 10  1  0
  3 11  1  0
  4 12  1  0
  5 13  1  0
  6 14  1  0
  7 15  1  0
  8 16  1  0
  8 17  1  0
M  END
