
     RDKit          3D

 19 19  0  0  0  0  0  0  0  0999 V2000
   -0.5204   -0.0417   -1.9820 O   0  0  0  0  0  0  0  0  0  0  0  0
   -0.9003   -0.2929   -0.8751 C   0  0  0  0  0  0  0  0  0  0  0  0
   -2.2623   -0.2076   -0.3177 C   0  0  0  0  0  0  0  0  0  0  0  0
   -1.9394    0.1141    1.1276 C   0  0  0  0  0  0  0  0  0  0  0  0
   -0.8906   -0.7645    1.3803 O   0  0  0  0  0  0  0  0  0  0  0  0
   -0.0833   -0.7669    0.2525 C   0  0  0  0  0  0  0  0  0  0  0  0
    1.1960   -0.0344    0.4732 C   0  0  0  0  0  0  0  0  0  0  0  0
    2.1401   -0.0870   -0.6910 C   0  0  0  0  0  0  0  0  0  0  0  0
    3.3050    0.6381   -0.3428 O   0  0  0  0  0  0  0  0  0  0  0  0
   -2.8928    0.5550   -0.7941 H   0  0  0  0  0  0  0  0  0  0  0  0
   -2.7213   -1.2221   -0.3197 H   0  0  0  0  0  0  0  0  0  0  0  0
   -2.7911   -0.0819    1.7919 H   0  0  0  0  0  0  0  0  0  0  0  0
   -1.6149    1.1711    1.2560 H   0  0  0  0  0  0  0  0  0  0  0  0
    0.1461   -1.8489    0.0390 H   0  0  0  0  0  0  0  0  0  0  0  0
    1.7043   -0.4455    1.3633 H   0  0  0  0  0  0  0  0  0  0  0  0
    0.9161    1.0306    0.7226 H   0  0  0  0  0  0  0  0  0  0  0  0
    2.3558   -1.0986   -1.0251 H   0  0  0  0  0  0  0  0  0  0  0  0
    1.6829    0.5132   -1.5306 H   0  0  0  0  0  0  0  0  0  0  0  0
    3.1704    1.6009   -0.5284 H   0  0  0  0  0  0  0  0  0  0  0  0
  1  2  2  0
  2  3  1  0
  3  4  1  0
  4  5  1  0
  5  6  1  0
  6  7  1  0
  7  8  1  0
  8  9  1  0
  6  2  1  0
  3 10  1  0
  3 11  1  0
  4 12  1  0
  4 13  1  0
  6 14  1  0
  7 15  1  0
  7 16  1  0
  8 17  1  0
  8 18  1  0
  9 19  1  0
M  END
