
     RDKit          3D

 16 16  0  0  0  0  0  0  0  0999 V2000
   -1.6273   -1.6231   -1.7444 O   0  0  0  0  0  0  0  0  0  0  0  0
   -0.8549   -0.8874   -1.1154 C   0  0  0  0  0  0  0  0  0  0  0  0
    0.4851   -0.8384   -1.4059 O   0  0  0  0  0  0  0  0  0  0  0  0
    1.4560   -0.5839   -0.3865 C   0  0  0  0  0  0  0  0  0  0  0  0
    1.0148    0.4974    0.5400 C   0  0  0  0  0  0  0  0  0  0  0  0
   -0.2979    1.0876    0.0986 C   0  0  0  0  0  0  0  0  0  0  0  0
   -1.3411   -0.0296   -0.0242 C   0  0  0  0  0  0  0  0  0  0  0  0
   -1.3344   -0.8094    1.1448 O   0  0  0  0  0  0  0  0  0  0  0  0
    1.7155   -1.5345    0.1339 H   0  0  0  0  0  0  0  0  0  0  0  0
    2.3645   -0.2220   -0.9323 H   0  0  0  0  0  0  0  0  0  0  0  0
    1.7534    1.3474    0.5722 H   0  0  0  0  0  0  0  0  0  0  0  0
    0.8860    0.1329    1.5811 H   0  0  0  0  0  0  0  0  0  0  0  0
   -0.6581    1.8916    0.7303 H   0  0  0  0  0  0  0  0  0  0  0  0
   -0.1441    1.5020   -0.9319 H   0  0  0  0  0  0  0  0  0  0  0  0
   -2.3429    0.3820   -0.1940 H   0  0  0  0  0  0  0  0  0  0  0  0
   -1.0746   -0.3126    1.9336 H   0  0  0  0  0  0  0  0  0  0  0  0
  1  2  2  0
  2  3  1  0
  3  4  1  0
  4  5  1  0
  5  6  1  0
  6  7  1  0
  7  8  1  0
  7  2  1  0
  4  9  1  0
  4 10  1  0
  5 11  1  0
  5 12  1  0
  6 13  1  0
  6 14  1  0
  7 15  1  0
  8 16  1  0
M  END
