
     RDKit          3D

 19 20  0  0  0  0  0  0  0  0999 V2000
    1.3165    2.2333    1.1843 O   0  0  0  0  0  0  0  0  0  0  0  0
    1.1314    1.2613    0.4892 C   0  0  0  0  0  0  0  0  0  0  0  0
    1.8006   -0.0621    0.4064 C   0  0  0  0  0  0  0  0  0  0  0  0
    0.8665   -0.5118   -0.6945 C   0  0  0  0  0  0  0  0  0  0  0  0
   -0.1617   -1.4996   -0.2243 C   0  0  0  0  0  0  0  0  0  0  0  0
   -1.0099   -0.6550    0.7080 C   0  0  0  0  0  0  0  0  0  0  0  0
   -1.1870    0.5555   -0.2189 C   0  0  0  0  0  0  0  0  0  0  0  0
   -1.9099    1.5572    0.3456 O   0  0  0  0  0  0  0  0  0  0  0  0
    0.2148    0.8738   -0.5777 C   0  0  0  0  0  0  0  0  0  0  0  0
    2.8441   -0.0226   -0.0091 H   0  0  0  0  0  0  0  0  0  0  0  0
    1.7544   -0.6353    1.3411 H   0  0  0  0  0  0  0  0  0  0  0  0
    1.3142   -0.6833   -1.6716 H   0  0  0  0  0  0  0  0  0  0  0  0
   -0.8132   -1.8068   -1.0550 H   0  0  0  0  0  0  0  0  0  0  0  0
    0.3015   -2.3552    0.3032 H   0  0  0  0  0  0  0  0  0  0  0  0
   -0.3661   -0.3925    1.5738 H   0  0  0  0  0  0  0  0  0  0  0  0
   -1.9591   -1.1167    0.9745 H   0  0  0  0  0  0  0  0  0  0  0  0
   -1.6792    0.1150   -1.1350 H   0  0  0  0  0  0  0  0  0  0  0  0
   -2.7403    1.6864   -0.2135 H   0  0  0  0  0  0  0  0  0  0  0  0
    0.2823    1.4585   -1.5264 H   0  0  0  0  0  0  0  0  0  0  0  0
  1  2  2  0
  2  3  1  0
  3  4  1  0
  4  5  1  0
  5  6  1  0
  6  7  1  0
  7  8  1  0
  7  9  1  0
  9  2  1  0
  9  4  1  0
  3 10  1  0
  3 11  1  0
  4 12  1  0
  5 13  1  0
  5 14  1  0
  6 15  1  0
  6 16  1  0
  7 17  1  0
  8 18  1  0
  9 19  1  0
M  END
