
     RDKit          3D

 17 18  0  0  0  0  0  0  0  0999 V2000
    0.8727    2.3292    0.9724 O   0  0  0  0  0  0  0  0  0  0  0  0
    0.6065    1.2948    0.4200 C   0  0  0  0  0  0  0  0  0  0  0  0
    1.5188    0.1364    0.4831 C   0  0  0  0  0  0  0  0  0  0  0  0
    0.9388   -0.9739   -0.3431 C   0  0  0  0  0  0  0  0  0  0  0  0
   -0.3962   -0.6460   -0.9277 C   0  0  0  0  0  0  0  0  0  0  0  0
   -0.2977    0.5901   -1.5737 O   0  0  0  0  0  0  0  0  0  0  0  0
   -0.6547    1.1703   -0.3385 C   0  0  0  0  0  0  0  0  0  0  0  0
   -1.3963   -0.0971    0.0236 C   0  0  0  0  0  0  0  0  0  0  0  0
   -1.2865   -0.4823    1.3481 O   0  0  0  0  0  0  0  0  0  0  0  0
    1.6741   -0.2073    1.5483 H   0  0  0  0  0  0  0  0  0  0  0  0
    2.5276    0.3560    0.0855 H   0  0  0  0  0  0  0  0  0  0  0  0
    1.6094   -1.2399   -1.2035 H   0  0  0  0  0  0  0  0  0  0  0  0
    0.7919   -1.8734    0.3150 H   0  0  0  0  0  0  0  0  0  0  0  0
   -0.7419   -1.3990   -1.6489 H   0  0  0  0  0  0  0  0  0  0  0  0
   -1.2556    2.0663   -0.4571 H   0  0  0  0  0  0  0  0  0  0  0  0
   -2.4035   -0.0983   -0.3972 H   0  0  0  0  0  0  0  0  0  0  0  0
   -2.1072   -0.9260    1.6937 H   0  0  0  0  0  0  0  0  0  0  0  0
  1  2  2  0
  2  3  1  0
  3  4  1  0
  4  5  1  0
  5  6  1  0
  6  7  1  0
  7  8  1  0
  8  9  1  0
  7  2  1  0
  8  5  1  0
  3 10  1  0
  3 11  1  0
  4 12  1  0
  4 13  1  0
  5 14  1  0
  7 15  1  0
  8 16  1  0
  9 17  1  0
M  END
