
     RDKit          3D

 17 17  0  0  0  0  0  0  0  0999 V2000
   -1.5229   -1.9408   -0.5729 O   0  0  0  0  0  0  0  0  0  0  0  0
   -0.8111   -0.9581   -0.5297 C   0  0  0  0  0  0  0  0  0  0  0  0
   -1.3544    0.3952   -0.8091 C   0  0  0  0  0  0  0  0  0  0  0  0
   -1.0847    1.2145    0.4287 C   0  0  0  0  0  0  0  0  0  0  0  0
    0.1188    1.0913    0.9791 C   0  0  0  0  0  0  0  0  0  0  0  0
    1.1752    0.2032    0.4357 C   0  0  0  0  0  0  0  0  0  0  0  0
    2.0589    0.8857   -0.4028 O   0  0  0  0  0  0  0  0  0  0  0  0
    0.6326   -1.0482   -0.1980 C   0  0  0  0  0  0  0  0  0  0  0  0
    0.9074   -2.1860    0.5833 O   0  0  0  0  0  0  0  0  0  0  0  0
   -0.7382    0.8611   -1.6129 H   0  0  0  0  0  0  0  0  0  0  0  0
   -2.4344    0.3756   -1.0509 H   0  0  0  0  0  0  0  0  0  0  0  0
   -1.8704    1.8422    0.7897 H   0  0  0  0  0  0  0  0  0  0  0  0
    0.2811    1.7047    1.8823 H   0  0  0  0  0  0  0  0  0  0  0  0
    1.7938   -0.1189    1.3209 H   0  0  0  0  0  0  0  0  0  0  0  0
    1.6104    1.4075   -1.1005 H   0  0  0  0  0  0  0  0  0  0  0  0
    1.1619   -1.2462   -1.1761 H   0  0  0  0  0  0  0  0  0  0  0  0
    0.0762   -2.4829    1.0332 H   0  0  0  0  0  0  0  0  0  0  0  0
  1  2  2  0
  2  3  1  0
  3  4  1  0
  4  5  2  0
  5  6  1  0
  6  7  1  0
  6  8  1  0
  8  9  1  0
  8  2  1  0
  3 10  1  0
  3 11  1  0
  4 12  1  0
  5 13  1  0
  6 14  1  0
  7 15  1  0
  8 16  1  0
  9 17  1  0
M  END
