
     RDKit          3D

 17 18  0  0  0  0  0  0  0  0999 V2000
   -2.6080    1.0250    0.7937 O   0  0  0  0  0  0  0  0  0  0  0  0
   -1.6092    0.5551    0.2717 C   0  0  0  0  0  0  0  0  0  0  0  0
   -1.6403   -0.8271   -0.1842 C   0  0  0  0  0  0  0  0  0  0  0  0
   -0.5203   -1.3727   -0.6506 O   0  0  0  0  0  0  0  0  0  0  0  0
    0.5975   -0.6682   -0.8163 C   0  0  0  0  0  0  0  0  0  0  0  0
    1.3691   -0.3805    0.5035 C   0  0  0  0  0  0  0  0  0  0  0  0
    2.7447   -0.5256    0.4693 O   0  0  0  0  0  0  0  0  0  0  0  0
    0.7579    0.6745   -0.3531 C   0  0  0  0  0  0  0  0  0  0  0  0
   -0.4391    1.4161    0.1370 C   0  0  0  0  0  0  0  0  0  0  0  0
   -2.0366   -1.4554    0.6674 H   0  0  0  0  0  0  0  0  0  0  0  0
   -2.4510   -0.9074   -0.9670 H   0  0  0  0  0  0  0  0  0  0  0  0
    1.2756   -1.0236   -1.6490 H   0  0  0  0  0  0  0  0  0  0  0  0
    0.8940   -0.6569    1.4399 H   0  0  0  0  0  0  0  0  0  0  0  0
    3.0609   -1.3873    0.7919 H   0  0  0  0  0  0  0  0  0  0  0  0
    1.4931    1.3338   -0.8945 H   0  0  0  0  0  0  0  0  0  0  0  0
   -0.1950    1.9895    1.0655 H   0  0  0  0  0  0  0  0  0  0  0  0
   -0.6934    2.2106   -0.6253 H   0  0  0  0  0  0  0  0  0  0  0  0
  1  2  2  0
  2  3  1  0
  3  4  1  0
  4  5  1  0
  5  6  1  0
  6  7  1  0
  6  8  1  0
  8  9  1  0
  9  2  1  0
  8  5  1  0
  3 10  1  0
  3 11  1  0
  5 12  1  0
  6 13  1  0
  7 14  1  0
  8 15  1  0
  9 16  1  0
  9 17  1  0
M  END
