
     RDKit          3D

 15 17  0  0  0  0  0  0  0  0999 V2000
    2.6138    0.0025    0.7698 O   0  0  0  0  0  0  0  0  0  0  0  0
    1.5353    0.0837    0.2170 C   0  0  0  0  0  0  0  0  0  0  0  0
    0.4793   -0.9034   -0.1455 C   0  0  0  0  0  0  0  0  0  0  0  0
   -0.6725   -0.8438    0.8687 C   0  0  0  0  0  0  0  0  0  0  0  0
   -1.2631    0.5108    0.4630 C   0  0  0  0  0  0  0  0  0  0  0  0
   -0.3208    1.5129    0.5076 O   0  0  0  0  0  0  0  0  0  0  0  0
    0.6601    1.1371   -0.3972 C   0  0  0  0  0  0  0  0  0  0  0  0
    0.0003    0.0399   -1.1896 C   0  0  0  0  0  0  0  0  0  0  0  0
   -1.3592    0.2952   -0.9335 O   0  0  0  0  0  0  0  0  0  0  0  0
    0.8026   -1.8934   -0.4288 H   0  0  0  0  0  0  0  0  0  0  0  0
   -0.3192   -0.8599    1.8940 H   0  0  0  0  0  0  0  0  0  0  0  0
   -1.4029   -1.6261    0.6062 H   0  0  0  0  0  0  0  0  0  0  0  0
   -2.2106    0.7221    0.9284 H   0  0  0  0  0  0  0  0  0  0  0  0
    1.1691    1.9198   -0.9470 H   0  0  0  0  0  0  0  0  0  0  0  0
    0.2877   -0.0976   -2.2132 H   0  0  0  0  0  0  0  0  0  0  0  0
  1  2  2  0
  2  3  1  0
  3  4  1  0
  4  5  1  0
  5  6  1  0
  6  7  1  0
  7  8  1  0
  8  9  1  0
  7  2  1  0
  8  3  1  0
  9  5  1  0
  3 10  1  0
  4 11  1  0
  4 12  1  0
  5 13  1  0
  7 14  1  0
  8 15  1  0
M  END
