
     RDKit          3D

 19 20  0  0  0  0  0  0  0  0999 V2000
    1.4937   -1.4489    1.6634 O   0  0  0  0  0  0  0  0  0  0  0  0
    1.2336   -0.9478    0.5905 C   0  0  0  0  0  0  0  0  0  0  0  0
    1.9930   -0.0385   -0.3068 C   0  0  0  0  0  0  0  0  0  0  0  0
    0.6388    0.4085   -0.8740 C   0  0  0  0  0  0  0  0  0  0  0  0
    0.0578    1.4973   -0.0171 C   0  0  0  0  0  0  0  0  0  0  0  0
   -1.3176    1.4678   -0.0060 O   0  0  0  0  0  0  0  0  0  0  0  0
   -1.8634    0.3250    0.5028 C   0  0  0  0  0  0  0  0  0  0  0  0
   -1.2470   -0.9449    0.0929 C   0  0  0  0  0  0  0  0  0  0  0  0
    0.1324   -0.9181   -0.3984 C   0  0  0  0  0  0  0  0  0  0  0  0
    2.5158    0.7829    0.1807 H   0  0  0  0  0  0  0  0  0  0  0  0
    2.5842   -0.6504   -1.0221 H   0  0  0  0  0  0  0  0  0  0  0  0
    0.6189    0.5723   -1.9493 H   0  0  0  0  0  0  0  0  0  0  0  0
    0.4996    1.4369    1.0088 H   0  0  0  0  0  0  0  0  0  0  0  0
    0.3649    2.4993   -0.4084 H   0  0  0  0  0  0  0  0  0  0  0  0
   -2.9572    0.3352    0.2183 H   0  0  0  0  0  0  0  0  0  0  0  0
   -1.8850    0.4177    1.6283 H   0  0  0  0  0  0  0  0  0  0  0  0
   -1.8981   -1.4379   -0.6862 H   0  0  0  0  0  0  0  0  0  0  0  0
   -1.2978   -1.6597    0.9665 H   0  0  0  0  0  0  0  0  0  0  0  0
    0.3335   -1.6966   -1.1837 H   0  0  0  0  0  0  0  0  0  0  0  0
  1  2  2  0
  2  3  1  0
  3  4  1  0
  4  5  1  0
  5  6  1  0
  6  7  1  0
  7  8  1  0
  8  9  1  0
  9  2  1  0
  9  4  1  0
  3 10  1  0
  3 11  1  0
  4 12  1  0
  5 13  1  0
  5 14  1  0
  7 15  1  0
  7 16  1  0
  8 17  1  0
  8 18  1  0
  9 19  1  0
M  END
