
     RDKit          3D

 15 17  0  0  0  0  0  0  0  0999 V2000
   -0.9049    2.5391   -0.9137 O   0  0  0  0  0  0  0  0  0  0  0  0
   -0.6313    1.4628   -0.3738 C   0  0  0  0  0  0  0  0  0  0  0  0
   -0.2864    1.0590    0.9426 O   0  0  0  0  0  0  0  0  0  0  0  0
   -1.3398    0.1441    0.6970 C   0  0  0  0  0  0  0  0  0  0  0  0
   -1.3694   -1.0281   -0.1061 C   0  0  0  0  0  0  0  0  0  0  0  0
   -0.4737    0.0153   -0.6156 C   0  0  0  0  0  0  0  0  0  0  0  0
    0.9539   -0.3955   -0.5046 C   0  0  0  0  0  0  0  0  0  0  0  0
    1.8462   -0.3009    0.5669 C   0  0  0  0  0  0  0  0  0  0  0  0
    1.8956    0.7485   -0.4629 O   0  0  0  0  0  0  0  0  0  0  0  0
   -2.2726    0.7869    0.5594 H   0  0  0  0  0  0  0  0  0  0  0  0
   -2.2232   -1.2666   -0.8074 H   0  0  0  0  0  0  0  0  0  0  0  0
   -1.0062   -1.9836    0.3554 H   0  0  0  0  0  0  0  0  0  0  0  0
    1.2862   -0.9926   -1.4132 H   0  0  0  0  0  0  0  0  0  0  0  0
    2.7581   -0.9717    0.5432 H   0  0  0  0  0  0  0  0  0  0  0  0
    1.7675    0.1832    1.5328 H   0  0  0  0  0  0  0  0  0  0  0  0
  1  2  2  0
  2  3  1  0
  3  4  1  0
  4  5  1  0
  5  6  1  0
  6  7  1  0
  7  8  1  0
  8  9  1  0
  6  2  1  0
  9  7  1  0
  6  4  1  0
  4 10  1  0
  5 11  1  0
  5 12  1  0
  7 13  1  0
  8 14  1  0
  8 15  1  0
M  END
