
     RDKit          3D

 14 15  0  0  0  0  0  0  0  0999 V2000
   -1.9073   -1.1611   -1.3486 O   0  0  0  0  0  0  0  0  0  0  0  0
   -1.3832   -0.3928   -0.5604 C   0  0  0  0  0  0  0  0  0  0  0  0
   -1.5812    1.0158   -0.1319 C   0  0  0  0  0  0  0  0  0  0  0  0
   -0.3333    1.0381    0.4781 O   0  0  0  0  0  0  0  0  0  0  0  0
   -0.2693   -0.3630    0.4293 C   0  0  0  0  0  0  0  0  0  0  0  0
    0.9913   -0.9098   -0.1945 C   0  0  0  0  0  0  0  0  0  0  0  0
    1.9162    0.1737   -0.7449 C   0  0  0  0  0  0  0  0  0  0  0  0
    2.2232   -0.6187    0.3547 O   0  0  0  0  0  0  0  0  0  0  0  0
   -1.6867    1.7087   -1.0059 H   0  0  0  0  0  0  0  0  0  0  0  0
   -2.4085    1.0880    0.6093 H   0  0  0  0  0  0  0  0  0  0  0  0
   -0.5125   -0.8287    1.4176 H   0  0  0  0  0  0  0  0  0  0  0  0
    0.9341   -1.8748   -0.7075 H   0  0  0  0  0  0  0  0  0  0  0  0
    2.3184   -0.0886   -1.7450 H   0  0  0  0  0  0  0  0  0  0  0  0
    1.6988    1.2131   -0.5044 H   0  0  0  0  0  0  0  0  0  0  0  0
  1  2  2  0
  2  3  1  0
  3  4  1  0
  4  5  1  0
  5  6  1  0
  6  7  1  0
  7  8  1  0
  5  2  1  0
  8  6  1  0
  3  9  1  0
  3 10  1  0
  5 11  1  0
  6 12  1  0
  7 13  1  0
  7 14  1  0
M  END
