
     RDKit          3D

 17 17  0  0  0  0  0  0  0  0999 V2000
   -1.0936    2.9177   -0.0695 O   0  0  0  0  0  0  0  0  0  0  0  0
   -0.5596    1.7981    0.0658 C   0  0  0  0  0  0  0  0  0  0  0  0
    0.9047    1.7507   -0.1055 C   0  0  0  0  0  0  0  0  0  0  0  0
    1.7840    0.7654   -0.0391 C   0  0  0  0  0  0  0  0  0  0  0  0
    1.6077   -0.6746    0.2370 C   0  0  0  0  0  0  0  0  0  0  0  0
    0.6160   -1.5448    0.0299 C   0  0  0  0  0  0  0  0  0  0  0  0
   -0.7334   -1.5302   -0.5447 C   0  0  0  0  0  0  0  0  0  0  0  0
   -1.6174   -0.5608    0.1391 C   0  0  0  0  0  0  0  0  0  0  0  0
   -1.5491    0.7416    0.3774 C   0  0  0  0  0  0  0  0  0  0  0  0
    1.3128    2.7159   -0.3263 H   0  0  0  0  0  0  0  0  0  0  0  0
    2.8092    1.0292   -0.2095 H   0  0  0  0  0  0  0  0  0  0  0  0
    2.4481   -1.1434    0.6983 H   0  0  0  0  0  0  0  0  0  0  0  0
    0.9160   -2.5309    0.3979 H   0  0  0  0  0  0  0  0  0  0  0  0
   -0.7109   -1.2754   -1.6435 H   0  0  0  0  0  0  0  0  0  0  0  0
   -1.1766   -2.5568   -0.4709 H   0  0  0  0  0  0  0  0  0  0  0  0
   -2.5445   -1.0184    0.5446 H   0  0  0  0  0  0  0  0  0  0  0  0
   -2.4134    1.1167    0.9191 H   0  0  0  0  0  0  0  0  0  0  0  0
  1  2  2  0
  2  3  1  0
  3  4  2  3
  4  5  1  0
  5  6  2  3
  6  7  1  0
  7  8  1  0
  8  9  2  3
  9  2  1  0
  3 10  1  0
  4 11  1  0
  5 12  1  0
  6 13  1  0
  7 14  1  0
  7 15  1  0
  8 16  1  0
  9 17  1  0
M  END
