
     RDKit          3D

 15 17  0  0  0  0  0  0  0  0999 V2000
    1.5046   -0.2245    1.9042 O   0  0  0  0  0  0  0  0  0  0  0  0
    0.7362    0.0542    1.0333 C   0  0  0  0  0  0  0  0  0  0  0  0
   -0.4939    0.8317    0.7117 C   0  0  0  0  0  0  0  0  0  0  0  0
    0.1896    1.0962   -0.6380 C   0  0  0  0  0  0  0  0  0  0  0  0
    0.6681   -0.3441   -0.4137 C   0  0  0  0  0  0  0  0  0  0  0  0
    1.7778   -0.7458   -1.0246 O   0  0  0  0  0  0  0  0  0  0  0  0
   -0.5774   -1.1734   -0.4318 C   0  0  0  0  0  0  0  0  0  0  0  0
   -1.1385   -1.5756    0.7664 O   0  0  0  0  0  0  0  0  0  0  0  0
   -1.4797   -0.2695    0.4314 C   0  0  0  0  0  0  0  0  0  0  0  0
   -0.7607    1.6624    1.3053 H   0  0  0  0  0  0  0  0  0  0  0  0
   -0.4906    1.2309   -1.4784 H   0  0  0  0  0  0  0  0  0  0  0  0
    0.9825    1.8379   -0.4819 H   0  0  0  0  0  0  0  0  0  0  0  0
    2.5611   -0.7217   -0.4306 H   0  0  0  0  0  0  0  0  0  0  0  0
   -0.9873   -1.5916   -1.3510 H   0  0  0  0  0  0  0  0  0  0  0  0
   -2.4919   -0.0671    0.0978 H   0  0  0  0  0  0  0  0  0  0  0  0
  1  2  2  0
  2  3  1  0
  3  4  1  0
  4  5  1  0
  5  6  1  0
  5  7  1  0
  7  8  1  0
  8  9  1  0
  5  2  1  0
  9  7  1  0
  9  3  1  0
  3 10  1  0
  4 11  1  0
  4 12  1  0
  6 13  1  0
  7 14  1  0
  9 15  1  0
M  END
