
     RDKit          3D

 17 18  0  0  0  0  0  0  0  0999 V2000
    0.3326    2.8052   -0.5866 O   0  0  0  0  0  0  0  0  0  0  0  0
    0.1295    1.5672   -0.5923 C   0  0  0  0  0  0  0  0  0  0  0  0
   -0.6291    0.8077   -1.5012 O   0  0  0  0  0  0  0  0  0  0  0  0
   -0.5366   -0.5803   -1.1499 C   0  0  0  0  0  0  0  0  0  0  0  0
   -1.3239   -0.7714    0.0945 C   0  0  0  0  0  0  0  0  0  0  0  0
   -0.5366    0.0357    1.1402 C   0  0  0  0  0  0  0  0  0  0  0  0
    0.6481    0.5723    0.3768 C   0  0  0  0  0  0  0  0  0  0  0  0
    1.7131    0.9346    1.0961 O   0  0  0  0  0  0  0  0  0  0  0  0
    0.8976   -0.5953   -0.5949 C   0  0  0  0  0  0  0  0  0  0  0  0
   -0.6965   -1.2545   -1.9588 H   0  0  0  0  0  0  0  0  0  0  0  0
   -1.2889   -1.8261    0.4259 H   0  0  0  0  0  0  0  0  0  0  0  0
   -2.3525   -0.4030   -0.0108 H   0  0  0  0  0  0  0  0  0  0  0  0
   -0.2658   -0.5781    2.0081 H   0  0  0  0  0  0  0  0  0  0  0  0
   -1.1777    0.9094    1.4066 H   0  0  0  0  0  0  0  0  0  0  0  0
    2.3405    0.1729    1.2664 H   0  0  0  0  0  0  0  0  0  0  0  0
    1.6238   -0.2758   -1.3482 H   0  0  0  0  0  0  0  0  0  0  0  0
    1.1224   -1.5204   -0.0718 H   0  0  0  0  0  0  0  0  0  0  0  0
  1  2  2  0
  2  3  1  0
  3  4  1  0
  4  5  1  0
  5  6  1  0
  6  7  1  0
  7  8  1  0
  7  9  1  0
  7  2  1  0
  9  4  1  0
  4 10  1  0
  5 11  1  0
  5 12  1  0
  6 13  1  0
  6 14  1  0
  8 15  1  0
  9 16  1  0
  9 17  1  0
M  END
