
     RDKit          3D

 17 18  0  0  0  0  0  0  0  0999 V2000
   -2.9109    0.7855   -1.0675 O   0  0  0  0  0  0  0  0  0  0  0  0
   -1.8682    0.5540   -0.4093 C   0  0  0  0  0  0  0  0  0  0  0  0
   -1.5696   -0.7584    0.2184 C   0  0  0  0  0  0  0  0  0  0  0  0
   -0.0984   -0.6718    0.5057 C   0  0  0  0  0  0  0  0  0  0  0  0
    0.7582   -1.0427   -0.5942 C   0  0  0  0  0  0  0  0  0  0  0  0
    1.6862   -0.1475   -0.8457 C   0  0  0  0  0  0  0  0  0  0  0  0
    1.5088    0.9602    0.1289 C   0  0  0  0  0  0  0  0  0  0  0  0
    0.1252    0.7994    0.6961 C   0  0  0  0  0  0  0  0  0  0  0  0
   -0.8409    1.4114   -0.1434 O   0  0  0  0  0  0  0  0  0  0  0  0
   -2.1156   -0.8076    1.1720 H   0  0  0  0  0  0  0  0  0  0  0  0
   -1.8321   -1.6065   -0.4456 H   0  0  0  0  0  0  0  0  0  0  0  0
    0.2053   -1.2357    1.4096 H   0  0  0  0  0  0  0  0  0  0  0  0
    0.6810   -1.9686   -1.1902 H   0  0  0  0  0  0  0  0  0  0  0  0
    2.4695   -0.1858   -1.6340 H   0  0  0  0  0  0  0  0  0  0  0  0
    2.2608    0.9557    0.9134 H   0  0  0  0  0  0  0  0  0  0  0  0
    1.5146    1.9083   -0.4633 H   0  0  0  0  0  0  0  0  0  0  0  0
    0.0261    1.0499    1.7490 H   0  0  0  0  0  0  0  0  0  0  0  0
  1  2  2  0
  2  3  1  0
  3  4  1  0
  4  5  1  0
  5  6  2  0
  6  7  1  0
  7  8  1  0
  8  9  1  0
  9  2  1  0
  8  4  1  0
  3 10  1  0
  3 11  1  0
  4 12  1  0
  5 13  1  0
  6 14  1  0
  7 15  1  0
  7 16  1  0
  8 17  1  0
M  END
