
     RDKit          3D

 17 18  0  0  0  0  0  0  0  0999 V2000
    3.3449    0.2935   -0.1231 O   0  0  0  0  0  0  0  0  0  0  0  0
    2.1577    0.1317   -0.1461 C   0  0  0  0  0  0  0  0  0  0  0  0
    1.0691    0.1832   -1.1536 C   0  0  0  0  0  0  0  0  0  0  0  0
    0.0269    0.1133   -0.0758 C   0  0  0  0  0  0  0  0  0  0  0  0
   -1.0010   -0.9236   -0.3182 C   0  0  0  0  0  0  0  0  0  0  0  0
   -2.1852   -0.1563   -0.4052 O   0  0  0  0  0  0  0  0  0  0  0  0
   -1.9268    0.8248    0.5585 C   0  0  0  0  0  0  0  0  0  0  0  0
   -0.6302    1.2831    0.2299 O   0  0  0  0  0  0  0  0  0  0  0  0
    1.1382   -0.2195    0.8812 C   0  0  0  0  0  0  0  0  0  0  0  0
    1.0987   -0.7784   -1.7427 H   0  0  0  0  0  0  0  0  0  0  0  0
    1.0469    1.0621   -1.8058 H   0  0  0  0  0  0  0  0  0  0  0  0
   -1.0879   -1.7016    0.4369 H   0  0  0  0  0  0  0  0  0  0  0  0
   -0.8756   -1.3726   -1.3284 H   0  0  0  0  0  0  0  0  0  0  0  0
   -2.6730    1.6277    0.4492 H   0  0  0  0  0  0  0  0  0  0  0  0
   -1.9495    0.3751    1.5660 H   0  0  0  0  0  0  0  0  0  0  0  0
    1.1990   -1.2483    1.2375 H   0  0  0  0  0  0  0  0  0  0  0  0
    1.2479    0.5058    1.7398 H   0  0  0  0  0  0  0  0  0  0  0  0
  1  2  2  0
  2  3  1  0
  3  4  1  0
  4  5  1  0
  5  6  1  0
  6  7  1  0
  7  8  1  0
  4  9  1  0
  9  2  1  0
  8  4  1  0
  3 10  1  0
  3 11  1  0
  5 12  1  0
  5 13  1  0
  7 14  1  0
  7 15  1  0
  9 16  1  0
  9 17  1  0
M  END
