
     RDKit          3D

 19 20  0  0  0  0  0  0  0  0999 V2000
   -0.0375    2.5813   -0.4020 O   0  0  0  0  0  0  0  0  0  0  0  0
   -0.2025    1.4267   -0.1309 C   0  0  0  0  0  0  0  0  0  0  0  0
   -1.4889    0.7625   -0.4166 C   0  0  0  0  0  0  0  0  0  0  0  0
   -1.6713   -0.5804    0.1973 C   0  0  0  0  0  0  0  0  0  0  0  0
   -0.3986   -1.3705    0.4286 C   0  0  0  0  0  0  0  0  0  0  0  0
    0.6710   -0.7088   -0.3259 C   0  0  0  0  0  0  0  0  0  0  0  0
    1.9118   -0.1295   -0.0015 C   0  0  0  0  0  0  0  0  0  0  0  0
    2.6943    0.4293   -1.0374 O   0  0  0  0  0  0  0  0  0  0  0  0
    0.8269    0.6366    0.4780 C   0  0  0  0  0  0  0  0  0  0  0  0
   -2.2908    1.4350    0.0095 H   0  0  0  0  0  0  0  0  0  0  0  0
   -1.7046    0.7319   -1.5207 H   0  0  0  0  0  0  0  0  0  0  0  0
   -2.3671   -1.1581   -0.4426 H   0  0  0  0  0  0  0  0  0  0  0  0
   -2.1623   -0.4904    1.1887 H   0  0  0  0  0  0  0  0  0  0  0  0
   -0.5975   -2.4157    0.1179 H   0  0  0  0  0  0  0  0  0  0  0  0
   -0.1484   -1.4410    1.5247 H   0  0  0  0  0  0  0  0  0  0  0  0
    0.3540   -0.6091   -1.4087 H   0  0  0  0  0  0  0  0  0  0  0  0
    2.5823   -0.6426    0.7229 H   0  0  0  0  0  0  0  0  0  0  0  0
    3.3825    0.9810   -0.5781 H   0  0  0  0  0  0  0  0  0  0  0  0
    0.6466    0.5618    1.5968 H   0  0  0  0  0  0  0  0  0  0  0  0
  1  2  2  0
  2  3  1  0
  3  4  1  0
  4  5  1  0
  5  6  1  0
  6  7  1  0
  7  8  1  0
  7  9  1  0
  9  2  1  0
  9  6  1  0
  3 10  1  0
  3 11  1  0
  4 12  1  0
  4 13  1  0
  5 14  1  0
  5 15  1  0
  6 16  1  0
  7 17  1  0
  8 18  1  0
  9 19  1  0
M  END
