
     RDKit          3D

 20 20  0  0  0  0  0  0  0  0999 V2000
   -0.1908   -2.9254    0.5978 O   0  0  0  0  0  0  0  0  0  0  0  0
    0.0111   -1.8020    0.2909 C   0  0  0  0  0  0  0  0  0  0  0  0
   -1.1527   -1.0106   -0.1855 C   0  0  0  0  0  0  0  0  0  0  0  0
   -1.2783    0.4002    0.2349 C   0  0  0  0  0  0  0  0  0  0  0  0
   -0.5533    1.5134   -0.4777 C   0  0  0  0  0  0  0  0  0  0  0  0
    0.9949    1.4848   -0.1944 C   0  0  0  0  0  0  0  0  0  0  0  0
    1.3249    0.1560    0.0978 C   0  0  0  0  0  0  0  0  0  0  0  0
    1.4158   -1.2328    0.3947 C   0  0  0  0  0  0  0  0  0  0  0  0
   -1.2564   -1.0367   -1.2895 H   0  0  0  0  0  0  0  0  0  0  0  0
   -2.0714   -1.5426    0.1878 H   0  0  0  0  0  0  0  0  0  0  0  0
   -2.3623    0.6626   -0.0393 H   0  0  0  0  0  0  0  0  0  0  0  0
   -1.3487    0.5568    1.3522 H   0  0  0  0  0  0  0  0  0  0  0  0
   -0.7162    1.3714   -1.5540 H   0  0  0  0  0  0  0  0  0  0  0  0
   -0.9527    2.4459   -0.0878 H   0  0  0  0  0  0  0  0  0  0  0  0
    1.2270    2.2638    0.5794 H   0  0  0  0  0  0  0  0  0  0  0  0
    1.4765    1.9272   -1.1055 H   0  0  0  0  0  0  0  0  0  0  0  0
    0.5918    0.2279    0.9890 H   0  0  0  0  0  0  0  0  0  0  0  0
    0.8617   -0.1488   -0.9193 H   0  0  0  0  0  0  0  0  0  0  0  0
    2.1221   -1.8139   -0.2775 H   0  0  0  0  0  0  0  0  0  0  0  0
    1.8570   -1.4972    1.4061 H   0  0  0  0  0  0  0  0  0  0  0  0
  1  2  2  0
  2  3  1  0
  3  4  1  0
  4  5  1  0
  5  6  1  0
  6  7  1  0
  7  8  1  0
  8  2  1  0
  3  9  1  0
  3 10  1  0
  4 11  1  0
  4 12  1  0
  5 13  1  0
  5 14  1  0
  6 15  1  0
  6 16  1  0
  7 17  1  0
  7 18  1  0
  8 19  1  0
  8 20  1  0
M  END
