
     RDKit          3D

 17 18  0  0  0  0  0  0  0  0999 V2000
   -1.5855   -1.5173    1.7926 O   0  0  0  0  0  0  0  0  0  0  0  0
   -1.3588   -0.6659    0.9539 C   0  0  0  0  0  0  0  0  0  0  0  0
   -2.1535    0.2846    0.1033 C   0  0  0  0  0  0  0  0  0  0  0  0
   -0.9038    0.5850   -0.7393 C   0  0  0  0  0  0  0  0  0  0  0  0
   -0.1439   -0.1213    0.3299 C   0  0  0  0  0  0  0  0  0  0  0  0
    0.8247   -1.1730   -0.1373 C   0  0  0  0  0  0  0  0  0  0  0  0
    2.0333   -0.6425   -0.0308 C   0  0  0  0  0  0  0  0  0  0  0  0
    1.8644    0.7298    0.4939 C   0  0  0  0  0  0  0  0  0  0  0  0
    0.6498    0.6934    1.1657 O   0  0  0  0  0  0  0  0  0  0  0  0
   -2.9541   -0.2062   -0.4860 H   0  0  0  0  0  0  0  0  0  0  0  0
   -2.5005    1.1581    0.6987 H   0  0  0  0  0  0  0  0  0  0  0  0
   -0.9649    0.0262   -1.7145 H   0  0  0  0  0  0  0  0  0  0  0  0
   -0.7304    1.6670   -0.8502 H   0  0  0  0  0  0  0  0  0  0  0  0
    0.5091   -2.1344   -0.4730 H   0  0  0  0  0  0  0  0  0  0  0  0
    2.9875   -1.1526   -0.2931 H   0  0  0  0  0  0  0  0  0  0  0  0
    2.7014    1.0421    1.1512 H   0  0  0  0  0  0  0  0  0  0  0  0
    1.7251    1.4269   -0.3595 H   0  0  0  0  0  0  0  0  0  0  0  0
  1  2  2  0
  2  3  1  0
  3  4  1  0
  4  5  1  0
  5  6  1  0
  6  7  2  0
  7  8  1  0
  8  9  1  0
  5  2  1  0
  9  5  1  0
  3 10  1  0
  3 11  1  0
  4 12  1  0
  4 13  1  0
  6 14  1  0
  7 15  1  0
  8 16  1  0
  8 17  1  0
M  END
