
     RDKit          3D

 16 17  0  0  0  0  0  0  0  0999 V2000
    0.5085    2.7928   -0.4277 O   0  0  0  0  0  0  0  0  0  0  0  0
    0.4821    1.5608   -0.2412 C   0  0  0  0  0  0  0  0  0  0  0  0
    1.6088    0.7540   -0.2463 O   0  0  0  0  0  0  0  0  0  0  0  0
    1.4676   -0.6578   -0.0159 C   0  0  0  0  0  0  0  0  0  0  0  0
    0.0159   -1.0258    0.0638 C   0  0  0  0  0  0  0  0  0  0  0  0
   -0.6484   -0.1404    1.1090 C   0  0  0  0  0  0  0  0  0  0  0  0
   -0.8105    0.8897    0.0027 C   0  0  0  0  0  0  0  0  0  0  0  0
   -0.8433   -0.3056   -0.9632 C   0  0  0  0  0  0  0  0  0  0  0  0
    2.0061   -1.1485   -0.8340 H   0  0  0  0  0  0  0  0  0  0  0  0
    1.9306   -0.9196    0.9519 H   0  0  0  0  0  0  0  0  0  0  0  0
   -0.1580   -2.0889    0.1683 H   0  0  0  0  0  0  0  0  0  0  0  0
   -1.6406   -0.5413    1.3704 H   0  0  0  0  0  0  0  0  0  0  0  0
    0.0051    0.1552    1.9322 H   0  0  0  0  0  0  0  0  0  0  0  0
   -1.7051    1.4958    0.0261 H   0  0  0  0  0  0  0  0  0  0  0  0
   -1.8561   -0.7156   -0.9719 H   0  0  0  0  0  0  0  0  0  0  0  0
   -0.3627   -0.1049   -1.9243 H   0  0  0  0  0  0  0  0  0  0  0  0
  1  2  2  0
  2  3  1  0
  3  4  1  0
  4  5  1  0
  5  6  1  0
  6  7  1  0
  7  8  1  0
  7  2  1  0
  8  5  1  0
  4  9  1  0
  4 10  1  0
  5 11  1  0
  6 12  1  0
  6 13  1  0
  7 14  1  0
  8 15  1  0
  8 16  1  0
M  END
