
     RDKit          3D

 19 21  0  0  0  0  0  0  0  0999 V2000
   -1.1022   -0.4557    2.4751 O   0  0  0  0  0  0  0  0  0  0  0  0
   -0.6670   -0.3760    1.3402 C   0  0  0  0  0  0  0  0  0  0  0  0
   -1.3280    0.3440    0.2378 C   0  0  0  0  0  0  0  0  0  0  0  0
   -0.3582    1.4121   -0.2377 C   0  0  0  0  0  0  0  0  0  0  0  0
    0.8269    0.5629   -0.6570 C   0  0  0  0  0  0  0  0  0  0  0  0
    1.6647    0.1286    0.5318 C   0  0  0  0  0  0  0  0  0  0  0  0
    0.5877   -0.9440    0.7490 C   0  0  0  0  0  0  0  0  0  0  0  0
    0.3370   -0.8695   -0.7351 C   0  0  0  0  0  0  0  0  0  0  0  0
   -1.1510   -0.6763   -0.9010 C   0  0  0  0  0  0  0  0  0  0  0  0
   -2.3332    0.6619    0.3877 H   0  0  0  0  0  0  0  0  0  0  0  0
   -0.7811    1.9989   -1.0537 H   0  0  0  0  0  0  0  0  0  0  0  0
   -0.0787    2.0008    0.6592 H   0  0  0  0  0  0  0  0  0  0  0  0
    1.3576    0.8646   -1.5474 H   0  0  0  0  0  0  0  0  0  0  0  0
    1.7027    0.8473    1.3488 H   0  0  0  0  0  0  0  0  0  0  0  0
    2.5976   -0.3508    0.2209 H   0  0  0  0  0  0  0  0  0  0  0  0
    0.9339   -1.8825    1.1529 H   0  0  0  0  0  0  0  0  0  0  0  0
    0.8473   -1.5453   -1.3843 H   0  0  0  0  0  0  0  0  0  0  0  0
   -1.7390   -1.5730   -0.7419 H   0  0  0  0  0  0  0  0  0  0  0  0
   -1.3170   -0.1481   -1.8455 H   0  0  0  0  0  0  0  0  0  0  0  0
  1  2  2  0
  2  3  1  0
  3  4  1  0
  4  5  1  0
  5  6  1  0
  6  7  1  0
  7  8  1  0
  8  9  1  0
  7  2  1  0
  9  3  1  0
  8  5  1  0
  3 10  1  0
  4 11  1  0
  4 12  1  0
  5 13  1  0
  6 14  1  0
  6 15  1  0
  7 16  1  0
  8 17  1  0
  9 18  1  0
  9 19  1  0
M  END
