
     RDKit          3D

 19 20  0  0  0  0  0  0  0  0999 V2000
   -1.2196   -1.0240   -2.4246 O   0  0  0  0  0  0  0  0  0  0  0  0
   -1.2304   -0.6413   -1.2674 C   0  0  0  0  0  0  0  0  0  0  0  0
   -2.3030   -0.4017   -0.2478 C   0  0  0  0  0  0  0  0  0  0  0  0
   -1.3523    0.6229    0.3833 C   0  0  0  0  0  0  0  0  0  0  0  0
   -0.2454   -0.2185   -0.2647 C   0  0  0  0  0  0  0  0  0  0  0  0
    0.8790    0.6576   -0.7546 C   0  0  0  0  0  0  0  0  0  0  0  0
    1.8360    0.5600    0.4387 C   0  0  0  0  0  0  0  0  0  0  0  0
    1.5331   -0.8038    0.9598 C   0  0  0  0  0  0  0  0  0  0  0  0
    0.2875   -1.1814    0.5493 O   0  0  0  0  0  0  0  0  0  0  0  0
   -3.2336    0.0112   -0.6315 H   0  0  0  0  0  0  0  0  0  0  0  0
   -2.4128   -1.2521    0.4700 H   0  0  0  0  0  0  0  0  0  0  0  0
   -1.3803    1.6115   -0.1182 H   0  0  0  0  0  0  0  0  0  0  0  0
   -1.3182    0.6157    1.4707 H   0  0  0  0  0  0  0  0  0  0  0  0
    1.4280    0.2327   -1.6107 H   0  0  0  0  0  0  0  0  0  0  0  0
    0.5030    1.6689   -0.9017 H   0  0  0  0  0  0  0  0  0  0  0  0
    2.8800    0.6264    0.1386 H   0  0  0  0  0  0  0  0  0  0  0  0
    1.5052    1.3212    1.1662 H   0  0  0  0  0  0  0  0  0  0  0  0
    2.2687   -1.5492    0.5677 H   0  0  0  0  0  0  0  0  0  0  0  0
    1.5751   -0.8561    2.0770 H   0  0  0  0  0  0  0  0  0  0  0  0
  1  2  2  0
  2  3  1  0
  3  4  1  0
  4  5  1  0
  5  6  1  0
  6  7  1  0
  7  8  1  0
  8  9  1  0
  5  2  1  0
  9  5  1  0
  3 10  1  0
  3 11  1  0
  4 12  1  0
  4 13  1  0
  6 14  1  0
  6 15  1  0
  7 16  1  0
  7 17  1  0
  8 18  1  0
  8 19  1  0
M  END
