
     RDKit          3D

 17 17  0  0  0  0  0  0  0  0999 V2000
   -0.7664   -1.9698    1.1056 O   0  0  0  0  0  0  0  0  0  0  0  0
   -0.4293   -1.1805    0.2539 C   0  0  0  0  0  0  0  0  0  0  0  0
   -1.5512   -0.4166   -0.3616 C   0  0  0  0  0  0  0  0  0  0  0  0
   -1.4885    0.9933    0.2078 C   0  0  0  0  0  0  0  0  0  0  0  0
   -0.3717    1.6550   -0.3890 O   0  0  0  0  0  0  0  0  0  0  0  0
    0.9280    1.2481   -0.4999 C   0  0  0  0  0  0  0  0  0  0  0  0
    1.6566    1.7311   -1.4061 O   0  0  0  0  0  0  0  0  0  0  0  0
    1.6009    0.2422    0.3869 C   0  0  0  0  0  0  0  0  0  0  0  0
    1.0134   -1.1127   -0.0231 C   0  0  0  0  0  0  0  0  0  0  0  0
   -1.2746   -0.3063   -1.4514 H   0  0  0  0  0  0  0  0  0  0  0  0
   -2.5253   -0.8888   -0.2387 H   0  0  0  0  0  0  0  0  0  0  0  0
   -1.3142    0.8899    1.3054 H   0  0  0  0  0  0  0  0  0  0  0  0
   -2.4155    1.5508    0.0265 H   0  0  0  0  0  0  0  0  0  0  0  0
    1.4415    0.4532    1.4534 H   0  0  0  0  0  0  0  0  0  0  0  0
    2.6705    0.2043    0.1846 H   0  0  0  0  0  0  0  0  0  0  0  0
    1.5622   -1.8737    0.5505 H   0  0  0  0  0  0  0  0  0  0  0  0
    1.2636   -1.2193   -1.1047 H   0  0  0  0  0  0  0  0  0  0  0  0
  1  2  2  0
  2  3  1  0
  3  4  1  0
  4  5  1  0
  5  6  1  0
  6  7  2  0
  6  8  1  0
  8  9  1  0
  9  2  1  0
  3 10  1  0
  3 11  1  0
  4 12  1  0
  4 13  1  0
  8 14  1  0
  8 15  1  0
  9 16  1  0
  9 17  1  0
M  END
