
     RDKit          3D

 13 14  0  0  0  0  0  0  0  0999 V2000
    2.2032   -1.4393   -0.5175 O   0  0  0  0  0  0  0  0  0  0  0  0
    1.0536   -1.0868   -0.1504 C   0  0  0  0  0  0  0  0  0  0  0  0
   -0.1771   -1.6393   -0.5079 O   0  0  0  0  0  0  0  0  0  0  0  0
   -1.1355   -0.7318    0.0316 C   0  0  0  0  0  0  0  0  0  0  0  0
   -0.5182   -0.4481    1.2757 O   0  0  0  0  0  0  0  0  0  0  0  0
    0.7183    0.0172    0.7650 C   0  0  0  0  0  0  0  0  0  0  0  0
    0.2353    1.1749   -0.0844 C   0  0  0  0  0  0  0  0  0  0  0  0
   -1.0123    0.5516   -0.6660 C   0  0  0  0  0  0  0  0  0  0  0  0
   -1.6687    1.1103   -1.5198 O   0  0  0  0  0  0  0  0  0  0  0  0
   -2.1249   -1.1379    0.1287 H   0  0  0  0  0  0  0  0  0  0  0  0
    1.4397    0.2606    1.5148 H   0  0  0  0  0  0  0  0  0  0  0  0
    0.9861    1.3681   -0.8506 H   0  0  0  0  0  0  0  0  0  0  0  0
    0.0006    2.0006    0.5810 H   0  0  0  0  0  0  0  0  0  0  0  0
  1  2  2  0
  2  3  1  0
  3  4  1  0
  4  5  1  0
  5  6  1  0
  6  7  1  0
  7  8  1  0
  8  9  2  0
  6  2  1  0
  8  4  1  0
  4 10  1  0
  6 11  1  0
  7 12  1  0
  7 13  1  0
M  END
