
     RDKit          3D

 17 18  0  0  0  0  0  0  0  0999 V2000
   -2.0123    2.2011    0.5262 O   0  0  0  0  0  0  0  0  0  0  0  0
   -1.2615    1.2822    0.1688 C   0  0  0  0  0  0  0  0  0  0  0  0
    0.1561    1.5904   -0.0587 C   0  0  0  0  0  0  0  0  0  0  0  0
    0.9858    0.5748   -0.0312 C   0  0  0  0  0  0  0  0  0  0  0  0
    2.3135   -0.0640   -0.1201 C   0  0  0  0  0  0  0  0  0  0  0  0
    1.6214   -1.1865   -0.6482 O   0  0  0  0  0  0  0  0  0  0  0  0
    0.5886   -0.8231    0.2143 C   0  0  0  0  0  0  0  0  0  0  0  0
   -0.8019   -1.1618   -0.1643 C   0  0  0  0  0  0  0  0  0  0  0  0
   -1.8091   -0.0694   -0.0131 C   0  0  0  0  0  0  0  0  0  0  0  0
    0.4901    2.5993   -0.2381 H   0  0  0  0  0  0  0  0  0  0  0  0
    3.0152    0.3809   -0.8542 H   0  0  0  0  0  0  0  0  0  0  0  0
    2.7573   -0.3707    0.8385 H   0  0  0  0  0  0  0  0  0  0  0  0
    0.8652   -1.1178    1.2490 H   0  0  0  0  0  0  0  0  0  0  0  0
   -0.8118   -1.4835   -1.2283 H   0  0  0  0  0  0  0  0  0  0  0  0
   -1.1189   -2.0584    0.4163 H   0  0  0  0  0  0  0  0  0  0  0  0
   -2.4987   -0.0182   -0.9055 H   0  0  0  0  0  0  0  0  0  0  0  0
   -2.4787   -0.2754    0.8488 H   0  0  0  0  0  0  0  0  0  0  0  0
  1  2  2  0
  2  3  1  0
  3  4  2  0
  4  5  1  0
  5  6  1  0
  6  7  1  0
  7  8  1  0
  8  9  1  0
  9  2  1  0
  7  4  1  0
  3 10  1  0
  5 11  1  0
  5 12  1  0
  7 13  1  0
  8 14  1  0
  8 15  1  0
  9 16  1  0
  9 17  1  0
M  END
