
     RDKit          3D

 17 18  0  0  0  0  0  0  0  0999 V2000
   -1.8725   -1.8902   -1.2808 O   0  0  0  0  0  0  0  0  0  0  0  0
   -1.0770   -1.1416   -0.7441 C   0  0  0  0  0  0  0  0  0  0  0  0
   -1.4602    0.2338   -0.2996 C   0  0  0  0  0  0  0  0  0  0  0  0
   -0.2709    0.8488    0.3285 C   0  0  0  0  0  0  0  0  0  0  0  0
   -0.5498    1.6798    1.4300 O   0  0  0  0  0  0  0  0  0  0  0  0
    0.9943    1.0968   -0.3717 C   0  0  0  0  0  0  0  0  0  0  0  0
    0.7605   -0.1758    0.3878 C   0  0  0  0  0  0  0  0  0  0  0  0
    1.5091   -0.4578    1.5093 O   0  0  0  0  0  0  0  0  0  0  0  0
    0.3456   -1.3709   -0.4195 C   0  0  0  0  0  0  0  0  0  0  0  0
   -1.8393    0.7526   -1.2032 H   0  0  0  0  0  0  0  0  0  0  0  0
   -2.2558    0.1049    0.4812 H   0  0  0  0  0  0  0  0  0  0  0  0
   -0.3055    2.6181    1.2385 H   0  0  0  0  0  0  0  0  0  0  0  0
    1.1182    0.9824   -1.4654 H   0  0  0  0  0  0  0  0  0  0  0  0
    1.6792    1.8689    0.0551 H   0  0  0  0  0  0  0  0  0  0  0  0
    1.7661   -1.4164    1.5484 H   0  0  0  0  0  0  0  0  0  0  0  0
    0.4571   -2.3244    0.1200 H   0  0  0  0  0  0  0  0  0  0  0  0
    1.0008   -1.4089   -1.3145 H   0  0  0  0  0  0  0  0  0  0  0  0
  1  2  2  0
  2  3  1  0
  3  4  1  0
  4  5  1  0
  4  6  1  0
  6  7  1  0
  7  8  1  0
  7  9  1  0
  9  2  1  0
  7  4  1  0
  3 10  1  0
  3 11  1  0
  5 12  1  0
  6 13  1  0
  6 14  1  0
  8 15  1  0
  9 16  1  0
  9 17  1  0
M  END
