
     RDKit          3D

 17 17  0  0  0  0  0  0  0  0999 V2000
    1.6096    2.6506    0.3359 O   0  0  0  0  0  0  0  0  0  0  0  0
    0.9988    1.5937    0.0438 C   0  0  0  0  0  0  0  0  0  0  0  0
    1.7372    0.3369    0.1444 C   0  0  0  0  0  0  0  0  0  0  0  0
    1.3549   -0.8991   -0.1723 C   0  0  0  0  0  0  0  0  0  0  0  0
    0.0120   -1.2355   -0.7228 C   0  0  0  0  0  0  0  0  0  0  0  0
   -1.0761   -0.6202    0.0757 C   0  0  0  0  0  0  0  0  0  0  0  0
   -0.7870   -0.8726    1.4374 O   0  0  0  0  0  0  0  0  0  0  0  0
   -1.3893    0.7952   -0.1697 C   0  0  0  0  0  0  0  0  0  0  0  0
   -0.3331    1.6742   -0.3553 O   0  0  0  0  0  0  0  0  0  0  0  0
    2.7426    0.4495    0.5369 H   0  0  0  0  0  0  0  0  0  0  0  0
    2.0717   -1.6834   -0.0136 H   0  0  0  0  0  0  0  0  0  0  0  0
   -0.0126   -0.7728   -1.7485 H   0  0  0  0  0  0  0  0  0  0  0  0
   -0.1330   -2.3135   -0.8491 H   0  0  0  0  0  0  0  0  0  0  0  0
   -2.0109   -1.2211   -0.1196 H   0  0  0  0  0  0  0  0  0  0  0  0
   -0.7156    0.0081    1.8925 H   0  0  0  0  0  0  0  0  0  0  0  0
   -1.9718    1.1795    0.7212 H   0  0  0  0  0  0  0  0  0  0  0  0
   -2.0974    0.9306   -1.0370 H   0  0  0  0  0  0  0  0  0  0  0  0
  1  2  2  0
  2  3  1  0
  3  4  2  0
  4  5  1  0
  5  6  1  0
  6  7  1  0
  6  8  1  0
  8  9  1  0
  9  2  1  0
  3 10  1  0
  4 11  1  0
  5 12  1  0
  5 13  1  0
  6 14  1  0
  7 15  1  0
  8 16  1  0
  8 17  1  0
M  END
