
     RDKit          3D

 17 17  0  0  0  0  0  0  0  0999 V2000
   -0.3002    2.4033   -0.4812 O   0  0  0  0  0  0  0  0  0  0  0  0
   -0.4752    1.2122   -0.2045 C   0  0  0  0  0  0  0  0  0  0  0  0
   -1.7089    0.7592    0.4446 C   0  0  0  0  0  0  0  0  0  0  0  0
   -2.0047   -0.5303    0.4769 C   0  0  0  0  0  0  0  0  0  0  0  0
   -1.0430   -1.4663   -0.1638 C   0  0  0  0  0  0  0  0  0  0  0  0
    0.2597   -1.0405    0.0469 O   0  0  0  0  0  0  0  0  0  0  0  0
    0.5460    0.1759   -0.5106 C   0  0  0  0  0  0  0  0  0  0  0  0
    1.8799    0.6420    0.0688 C   0  0  0  0  0  0  0  0  0  0  0  0
    2.8675   -0.2947   -0.2530 O   0  0  0  0  0  0  0  0  0  0  0  0
   -2.4008    1.4507    0.9075 H   0  0  0  0  0  0  0  0  0  0  0  0
   -2.9255   -0.8938    0.9588 H   0  0  0  0  0  0  0  0  0  0  0  0
   -1.1376   -2.4832    0.2633 H   0  0  0  0  0  0  0  0  0  0  0  0
   -1.2801   -1.5436   -1.2605 H   0  0  0  0  0  0  0  0  0  0  0  0
    0.6575    0.1220   -1.6033 H   0  0  0  0  0  0  0  0  0  0  0  0
    2.1814    1.6123   -0.4032 H   0  0  0  0  0  0  0  0  0  0  0  0
    1.8254    0.7478    1.1617 H   0  0  0  0  0  0  0  0  0  0  0  0
    3.0586   -0.8730    0.5516 H   0  0  0  0  0  0  0  0  0  0  0  0
  1  2  2  0
  2  3  1  0
  3  4  2  0
  4  5  1  0
  5  6  1  0
  6  7  1  0
  7  8  1  0
  8  9  1  0
  7  2  1  0
  3 10  1  0
  4 11  1  0
  5 12  1  0
  5 13  1  0
  7 14  1  0
  8 15  1  0
  8 16  1  0
  9 17  1  0
M  END
