
     RDKit          3D

 19 19  0  0  0  0  0  0  0  0999 V2000
    0.9552    2.7236    0.3691 O   0  0  0  0  0  0  0  0  0  0  0  0
    1.0956    1.4613    0.4485 C   0  0  0  0  0  0  0  0  0  0  0  0
    1.9784    0.7636    1.2595 O   0  0  0  0  0  0  0  0  0  0  0  0
    2.3356   -0.3996    0.5400 C   0  0  0  0  0  0  0  0  0  0  0  0
    1.0489   -0.8335   -0.0877 C   0  0  0  0  0  0  0  0  0  0  0  0
    0.3345    0.4600   -0.3197 C   0  0  0  0  0  0  0  0  0  0  0  0
   -1.0820    0.4631    0.1471 C   0  0  0  0  0  0  0  0  0  0  0  0
   -1.9082   -0.5535   -0.6153 C   0  0  0  0  0  0  0  0  0  0  0  0
   -3.2315   -0.5475   -0.1761 O   0  0  0  0  0  0  0  0  0  0  0  0
    3.0427   -0.1470   -0.3006 H   0  0  0  0  0  0  0  0  0  0  0  0
    2.7796   -1.1562    1.2172 H   0  0  0  0  0  0  0  0  0  0  0  0
    1.2617   -1.3418   -1.0609 H   0  0  0  0  0  0  0  0  0  0  0  0
    0.4761   -1.5545    0.5215 H   0  0  0  0  0  0  0  0  0  0  0  0
    0.3282    0.6799   -1.4144 H   0  0  0  0  0  0  0  0  0  0  0  0
   -1.5162    1.4573   -0.0899 H   0  0  0  0  0  0  0  0  0  0  0  0
   -1.2103    0.2938    1.2177 H   0  0  0  0  0  0  0  0  0  0  0  0
   -1.4483   -1.5451   -0.5112 H   0  0  0  0  0  0  0  0  0  0  0  0
   -1.9478   -0.3106   -1.7062 H   0  0  0  0  0  0  0  0  0  0  0  0
   -3.2924    0.0869    0.5614 H   0  0  0  0  0  0  0  0  0  0  0  0
  1  2  2  0
  2  3  1  0
  3  4  1  0
  4  5  1  0
  5  6  1  0
  6  7  1  0
  7  8  1  0
  8  9  1  0
  6  2  1  0
  4 10  1  0
  4 11  1  0
  5 12  1  0
  5 13  1  0
  6 14  1  0
  7 15  1  0
  7 16  1  0
  8 17  1  0
  8 18  1  0
  9 19  1  0
M  END
