
     RDKit          3D

 19 20  0  0  0  0  0  0  0  0999 V2000
    0.3473    2.9894   -0.2314 O   0  0  0  0  0  0  0  0  0  0  0  0
    0.2794    1.7735   -0.0034 C   0  0  0  0  0  0  0  0  0  0  0  0
    1.5194    0.9678   -0.0556 C   0  0  0  0  0  0  0  0  0  0  0  0
    1.6955   -0.3415   -0.1458 C   0  0  0  0  0  0  0  0  0  0  0  0
    0.5952   -1.3460   -0.1966 C   0  0  0  0  0  0  0  0  0  0  0  0
   -0.3623   -1.0879    0.9696 C   0  0  0  0  0  0  0  0  0  0  0  0
   -1.2063   -0.2291    0.0919 C   0  0  0  0  0  0  0  0  0  0  0  0
   -1.0561    1.2393    0.3034 C   0  0  0  0  0  0  0  0  0  0  0  0
   -0.5041   -0.7773   -1.0991 C   0  0  0  0  0  0  0  0  0  0  0  0
    2.4529    1.5491   -0.0127 H   0  0  0  0  0  0  0  0  0  0  0  0
    2.6955   -0.7483   -0.1880 H   0  0  0  0  0  0  0  0  0  0  0  0
    0.8711   -2.3764   -0.3712 H   0  0  0  0  0  0  0  0  0  0  0  0
   -0.8680   -2.0671    1.2138 H   0  0  0  0  0  0  0  0  0  0  0  0
    0.1436   -0.6102    1.8095 H   0  0  0  0  0  0  0  0  0  0  0  0
   -2.2859   -0.5092    0.1788 H   0  0  0  0  0  0  0  0  0  0  0  0
   -1.8676    1.7464   -0.2683 H   0  0  0  0  0  0  0  0  0  0  0  0
   -1.2625    1.4957    1.3779 H   0  0  0  0  0  0  0  0  0  0  0  0
   -0.1176   -0.0407   -1.8368 H   0  0  0  0  0  0  0  0  0  0  0  0
   -1.0696   -1.6274   -1.5359 H   0  0  0  0  0  0  0  0  0  0  0  0
  1  2  2  0
  2  3  1  0
  3  4  2  0
  4  5  1  0
  5  6  1  0
  6  7  1  0
  7  8  1  0
  7  9  1  0
  8  2  1  0
  9  5  1  0
  3 10  1  0
  4 11  1  0
  5 12  1  0
  6 13  1  0
  6 14  1  0
  7 15  1  0
  8 16  1  0
  8 17  1  0
  9 18  1  0
  9 19  1  0
M  END
