
     RDKit          3D

 19 19  0  0  0  0  0  0  0  0999 V2000
   -0.4071    0.3205   -2.4960 O   0  0  0  0  0  0  0  0  0  0  0  0
   -0.3792    0.5129   -1.3055 C   0  0  0  0  0  0  0  0  0  0  0  0
   -0.8257    1.6249   -0.4284 C   0  0  0  0  0  0  0  0  0  0  0  0
   -0.0186    1.0247    0.7099 C   0  0  0  0  0  0  0  0  0  0  0  0
    0.1013   -0.2368   -0.1230 C   0  0  0  0  0  0  0  0  0  0  0  0
    1.5352   -0.6727   -0.2048 C   0  0  0  0  0  0  0  0  0  0  0  0
    2.3605    0.4405   -0.3361 O   0  0  0  0  0  0  0  0  0  0  0  0
   -0.8677   -1.3252    0.2423 C   0  0  0  0  0  0  0  0  0  0  0  0
   -2.0950   -0.7316    0.5312 O   0  0  0  0  0  0  0  0  0  0  0  0
   -1.9197    1.6321   -0.2226 H   0  0  0  0  0  0  0  0  0  0  0  0
   -0.4168    2.5865   -0.7368 H   0  0  0  0  0  0  0  0  0  0  0  0
   -0.6162    0.9384    1.6181 H   0  0  0  0  0  0  0  0  0  0  0  0
    0.9520    1.5288    0.8909 H   0  0  0  0  0  0  0  0  0  0  0  0
    1.7971   -1.1555    0.7707 H   0  0  0  0  0  0  0  0  0  0  0  0
    1.7304   -1.3487   -1.0664 H   0  0  0  0  0  0  0  0  0  0  0  0
    3.2863    0.1998   -0.5826 H   0  0  0  0  0  0  0  0  0  0  0  0
   -0.9460   -2.0071   -0.6460 H   0  0  0  0  0  0  0  0  0  0  0  0
   -0.5043   -1.9548    1.0821 H   0  0  0  0  0  0  0  0  0  0  0  0
   -2.7665   -1.3767    0.8563 H   0  0  0  0  0  0  0  0  0  0  0  0
  1  2  2  0
  2  3  1  0
  3  4  1  0
  4  5  1  0
  5  6  1  0
  6  7  1  0
  5  8  1  0
  8  9  1  0
  5  2  1  0
  3 10  1  0
  3 11  1  0
  4 12  1  0
  4 13  1  0
  6 14  1  0
  6 15  1  0
  7 16  1  0
  8 17  1  0
  8 18  1  0
  9 19  1  0
M  END
