
     RDKit          3D

 15 16  0  0  0  0  0  0  0  0999 V2000
    0.7753    1.7709   -1.9122 O   0  0  0  0  0  0  0  0  0  0  0  0
    0.7729    0.8988   -1.0075 C   0  0  0  0  0  0  0  0  0  0  0  0
    1.6916   -0.1294   -0.9279 O   0  0  0  0  0  0  0  0  0  0  0  0
    1.3569   -1.0696    0.0356 C   0  0  0  0  0  0  0  0  0  0  0  0
    0.3073   -0.3731    0.8800 C   0  0  0  0  0  0  0  0  0  0  0  0
   -1.0544   -0.3642    0.3108 C   0  0  0  0  0  0  0  0  0  0  0  0
   -1.3358   -1.2588   -0.7236 O   0  0  0  0  0  0  0  0  0  0  0  0
   -0.1798    0.8027    0.1125 C   0  0  0  0  0  0  0  0  0  0  0  0
   -0.5184    1.9922    0.7887 O   0  0  0  0  0  0  0  0  0  0  0  0
    2.1608   -1.3931    0.6947 H   0  0  0  0  0  0  0  0  0  0  0  0
    0.8669   -1.9840   -0.3727 H   0  0  0  0  0  0  0  0  0  0  0  0
    0.5158   -0.1816    1.9464 H   0  0  0  0  0  0  0  0  0  0  0  0
   -1.9103   -0.2224    0.9967 H   0  0  0  0  0  0  0  0  0  0  0  0
   -2.1512   -0.9318   -1.1617 H   0  0  0  0  0  0  0  0  0  0  0  0
   -1.2975    2.4433    0.3403 H   0  0  0  0  0  0  0  0  0  0  0  0
  1  2  2  0
  2  3  1  0
  3  4  1  0
  4  5  1  0
  5  6  1  0
  6  7  1  0
  6  8  1  0
  8  9  1  0
  8  2  1  0
  8  5  1  0
  4 10  1  0
  4 11  1  0
  5 12  1  0
  6 13  1  0
  7 14  1  0
  9 15  1  0
M  END
