
     RDKit          3D

 15 16  0  0  0  0  0  0  0  0999 V2000
    0.2072    2.3355    0.5504 O   0  0  0  0  0  0  0  0  0  0  0  0
    0.2065    1.1470    0.3550 C   0  0  0  0  0  0  0  0  0  0  0  0
   -0.7923    0.2114    0.9304 C   0  0  0  0  0  0  0  0  0  0  0  0
   -1.7259   -0.1628   -0.1954 C   0  0  0  0  0  0  0  0  0  0  0  0
   -0.8938   -0.9566   -0.9928 O   0  0  0  0  0  0  0  0  0  0  0  0
    0.3406   -1.0381   -0.3456 C   0  0  0  0  0  0  0  0  0  0  0  0
   -0.0528   -0.9959    1.0172 O   0  0  0  0  0  0  0  0  0  0  0  0
    1.1052    0.2720   -0.4455 C   0  0  0  0  0  0  0  0  0  0  0  0
    2.2848    0.1241    0.2762 O   0  0  0  0  0  0  0  0  0  0  0  0
   -1.2510    0.5113    1.8446 H   0  0  0  0  0  0  0  0  0  0  0  0
   -1.9766    0.7391   -0.7906 H   0  0  0  0  0  0  0  0  0  0  0  0
   -2.6250   -0.6775    0.1325 H   0  0  0  0  0  0  0  0  0  0  0  0
    0.9163   -1.9139   -0.5945 H   0  0  0  0  0  0  0  0  0  0  0  0
    1.2473    0.6157   -1.4677 H   0  0  0  0  0  0  0  0  0  0  0  0
    3.0095   -0.2114   -0.2741 H   0  0  0  0  0  0  0  0  0  0  0  0
  1  2  2  0
  2  3  1  0
  3  4  1  0
  4  5  1  0
  5  6  1  0
  6  7  1  0
  6  8  1  0
  8  9  1  0
  8  2  1  0
  7  3  1  0
  3 10  1  0
  4 11  1  0
  4 12  1  0
  6 13  1  0
  8 14  1  0
  9 15  1  0
M  END
