
     RDKit          3D

 17 17  0  0  0  0  0  0  0  0999 V2000
   -0.2175   -2.6689    0.1421 O   0  0  0  0  0  0  0  0  0  0  0  0
   -0.1304   -1.4627    0.3021 C   0  0  0  0  0  0  0  0  0  0  0  0
    1.2613   -0.9461    0.3366 C   0  0  0  0  0  0  0  0  0  0  0  0
    1.2573    0.3406   -0.5002 C   0  0  0  0  0  0  0  0  0  0  0  0
    0.5137    1.3510    0.2780 C   0  0  0  0  0  0  0  0  0  0  0  0
    1.1587    2.1815    0.8742 O   0  0  0  0  0  0  0  0  0  0  0  0
   -0.9720    1.4472    0.4011 C   0  0  0  0  0  0  0  0  0  0  0  0
   -1.3926    0.3814    1.1617 O   0  0  0  0  0  0  0  0  0  0  0  0
   -1.4491   -0.7966    0.4249 C   0  0  0  0  0  0  0  0  0  0  0  0
    1.5763   -0.7211    1.3756 H   0  0  0  0  0  0  0  0  0  0  0  0
    1.9680   -1.6206   -0.1578 H   0  0  0  0  0  0  0  0  0  0  0  0
    0.7503    0.0883   -1.4442 H   0  0  0  0  0  0  0  0  0  0  0  0
    2.2953    0.7029   -0.6524 H   0  0  0  0  0  0  0  0  0  0  0  0
   -1.3895    1.4558   -0.6242 H   0  0  0  0  0  0  0  0  0  0  0  0
   -1.2643    2.3899    0.9027 H   0  0  0  0  0  0  0  0  0  0  0  0
   -1.8421   -0.6251   -0.5772 H   0  0  0  0  0  0  0  0  0  0  0  0
   -2.1234   -1.4976    0.9758 H   0  0  0  0  0  0  0  0  0  0  0  0
  1  2  2  0
  2  3  1  0
  3  4  1  0
  4  5  1  0
  5  6  2  0
  5  7  1  0
  7  8  1  0
  8  9  1  0
  9  2  1  0
  3 10  1  0
  3 11  1  0
  4 12  1  0
  4 13  1  0
  7 14  1  0
  7 15  1  0
  9 16  1  0
  9 17  1  0
M  END
