
     RDKit          3D

 19 19  0  0  0  0  0  0  0  0999 V2000
   -1.5478    1.4020   -1.9708 O   0  0  0  0  0  0  0  0  0  0  0  0
   -1.2299    0.6115   -1.0832 C   0  0  0  0  0  0  0  0  0  0  0  0
   -2.2048    0.3723   -0.0048 C   0  0  0  0  0  0  0  0  0  0  0  0
   -1.4381    0.1328    1.2511 C   0  0  0  0  0  0  0  0  0  0  0  0
   -0.1954   -0.3432    1.2638 C   0  0  0  0  0  0  0  0  0  0  0  0
    0.5653   -0.6875    0.0551 C   0  0  0  0  0  0  0  0  0  0  0  0
    2.0759   -0.5018    0.2667 C   0  0  0  0  0  0  0  0  0  0  0  0
    2.3869    0.7997    0.5884 O   0  0  0  0  0  0  0  0  0  0  0  0
    0.0977   -0.0171   -1.1901 C   0  0  0  0  0  0  0  0  0  0  0  0
   -2.8289    1.2878    0.1386 H   0  0  0  0  0  0  0  0  0  0  0  0
   -2.8864   -0.4742   -0.2165 H   0  0  0  0  0  0  0  0  0  0  0  0
   -1.9487    0.3689    2.1787 H   0  0  0  0  0  0  0  0  0  0  0  0
    0.2674   -0.4781    2.2444 H   0  0  0  0  0  0  0  0  0  0  0  0
    0.4463   -1.7997   -0.0955 H   0  0  0  0  0  0  0  0  0  0  0  0
    2.4117   -1.1475    1.1041 H   0  0  0  0  0  0  0  0  0  0  0  0
    2.5706   -0.8553   -0.6750 H   0  0  0  0  0  0  0  0  0  0  0  0
    2.5998    1.2980   -0.2558 H   0  0  0  0  0  0  0  0  0  0  0  0
    0.8148    0.7740   -1.5477 H   0  0  0  0  0  0  0  0  0  0  0  0
    0.0436   -0.7426   -2.0514 H   0  0  0  0  0  0  0  0  0  0  0  0
  1  2  2  0
  2  3  1  0
  3  4  1  0
  4  5  2  0
  5  6  1  0
  6  7  1  0
  7  8  1  0
  6  9  1  0
  9  2  1  0
  3 10  1  0
  3 11  1  0
  4 12  1  0
  5 13  1  0
  6 14  1  0
  7 15  1  0
  7 16  1  0
  8 17  1  0
  9 18  1  0
  9 19  1  0
M  END
