
     RDKit          3D

 15 16  0  0  0  0  0  0  0  0999 V2000
    1.3729    2.1155    0.3348 O   0  0  0  0  0  0  0  0  0  0  0  0
    0.8886    1.0488    0.0577 C   0  0  0  0  0  0  0  0  0  0  0  0
    1.5253   -0.1778    0.5828 C   0  0  0  0  0  0  0  0  0  0  0  0
    0.8288   -1.3290    0.3726 O   0  0  0  0  0  0  0  0  0  0  0  0
   -0.2558   -1.2542   -0.4510 C   0  0  0  0  0  0  0  0  0  0  0  0
   -1.4106   -0.7229    0.3422 C   0  0  0  0  0  0  0  0  0  0  0  0
   -1.4518    0.5823    0.1307 C   0  0  0  0  0  0  0  0  0  0  0  0
   -0.3262    0.8724   -0.7903 C   0  0  0  0  0  0  0  0  0  0  0  0
   -0.1273   -0.3302   -1.4881 O   0  0  0  0  0  0  0  0  0  0  0  0
    2.5224   -0.2697    0.0956 H   0  0  0  0  0  0  0  0  0  0  0  0
    1.6380   -0.0297    1.6945 H   0  0  0  0  0  0  0  0  0  0  0  0
   -0.4839   -2.2277   -0.9135 H   0  0  0  0  0  0  0  0  0  0  0  0
   -2.0677   -1.3196    0.9611 H   0  0  0  0  0  0  0  0  0  0  0  0
   -2.1257    1.3235    0.5117 H   0  0  0  0  0  0  0  0  0  0  0  0
   -0.5269    1.7183   -1.4407 H   0  0  0  0  0  0  0  0  0  0  0  0
  1  2  2  0
  2  3  1  0
  3  4  1  0
  4  5  1  0
  5  6  1  0
  6  7  2  0
  7  8  1  0
  8  9  1  0
  8  2  1  0
  9  5  1  0
  3 10  1  0
  3 11  1  0
  5 12  1  0
  6 13  1  0
  7 14  1  0
  8 15  1  0
M  END
