
     RDKit          3D

 14 15  0  0  0  0  0  0  0  0999 V2000
   -1.5482   -2.0803   -0.5861 O   0  0  0  0  0  0  0  0  0  0  0  0
   -1.3025   -0.8428   -0.4859 C   0  0  0  0  0  0  0  0  0  0  0  0
   -1.5259    0.2008   -1.3541 O   0  0  0  0  0  0  0  0  0  0  0  0
   -1.0281    1.1448   -0.4268 C   0  0  0  0  0  0  0  0  0  0  0  0
   -0.6898    0.0532    0.5489 C   0  0  0  0  0  0  0  0  0  0  0  0
    0.7483   -0.1916    0.8178 C   0  0  0  0  0  0  0  0  0  0  0  0
    1.8066   -0.0995   -0.1305 C   0  0  0  0  0  0  0  0  0  0  0  0
    1.2500   -1.4400    0.1540 O   0  0  0  0  0  0  0  0  0  0  0  0
   -1.7990    1.8699   -0.0698 H   0  0  0  0  0  0  0  0  0  0  0  0
   -0.1676    1.6892   -0.8526 H   0  0  0  0  0  0  0  0  0  0  0  0
   -1.3400    0.0445    1.4479 H   0  0  0  0  0  0  0  0  0  0  0  0
    1.0093   -0.3128    1.8925 H   0  0  0  0  0  0  0  0  0  0  0  0
    2.8582   -0.1075    0.2429 H   0  0  0  0  0  0  0  0  0  0  0  0
    1.7287    0.0720   -1.1982 H   0  0  0  0  0  0  0  0  0  0  0  0
  1  2  2  0
  2  3  1  0
  3  4  1  0
  4  5  1  0
  5  6  1  0
  6  7  1  0
  7  8  1  0
  5  2  1  0
  8  6  1  0
  4  9  1  0
  4 10  1  0
  5 11  1  0
  6 12  1  0
  7 13  1  0
  7 14  1  0
M  END
