
     RDKit          3D

 17 19  0  0  0  0  0  0  0  0999 V2000
   -0.5523    2.2708    1.2630 O   0  0  0  0  0  0  0  0  0  0  0  0
   -0.5236    1.3132    0.5137 C   0  0  0  0  0  0  0  0  0  0  0  0
    0.2813    1.1205   -0.7213 C   0  0  0  0  0  0  0  0  0  0  0  0
    1.4630    0.1817   -0.4516 C   0  0  0  0  0  0  0  0  0  0  0  0
    0.9289   -0.8534    0.5059 C   0  0  0  0  0  0  0  0  0  0  0  0
   -0.5236   -1.1194    0.3794 C   0  0  0  0  0  0  0  0  0  0  0  0
   -1.2490   -0.5133   -0.7094 C   0  0  0  0  0  0  0  0  0  0  0  0
   -0.5940    0.3873   -1.5126 O   0  0  0  0  0  0  0  0  0  0  0  0
   -1.3161    0.0930    0.6840 C   0  0  0  0  0  0  0  0  0  0  0  0
    0.5833    2.0462   -1.2049 H   0  0  0  0  0  0  0  0  0  0  0  0
    2.3358    0.7137   -0.0778 H   0  0  0  0  0  0  0  0  0  0  0  0
    1.7167   -0.3465   -1.3975 H   0  0  0  0  0  0  0  0  0  0  0  0
    1.5246   -1.7849    0.3543 H   0  0  0  0  0  0  0  0  0  0  0  0
    1.2200   -0.5008    1.5384 H   0  0  0  0  0  0  0  0  0  0  0  0
   -0.8479   -2.1192    0.7299 H   0  0  0  0  0  0  0  0  0  0  0  0
   -2.1680   -0.9618   -1.0782 H   0  0  0  0  0  0  0  0  0  0  0  0
   -2.2790    0.0729    1.1847 H   0  0  0  0  0  0  0  0  0  0  0  0
  1  2  2  0
  2  3  1  0
  3  4  1  0
  4  5  1  0
  5  6  1  0
  6  7  1  0
  7  8  1  0
  7  9  1  0
  9  2  1  0
  8  3  1  0
  9  6  1  0
  3 10  1  0
  4 11  1  0
  4 12  1  0
  5 13  1  0
  5 14  1  0
  6 15  1  0
  7 16  1  0
  9 17  1  0
M  END
