
     RDKit          3D

 19 20  0  0  0  0  0  0  0  0999 V2000
   -3.0161   -1.0616   -0.7925 O   0  0  0  0  0  0  0  0  0  0  0  0
   -2.0038   -0.5495   -0.3606 C   0  0  0  0  0  0  0  0  0  0  0  0
   -0.8856   -1.1058    0.4522 C   0  0  0  0  0  0  0  0  0  0  0  0
   -0.0504    0.0294   -0.0620 C   0  0  0  0  0  0  0  0  0  0  0  0
    0.9100   -0.2553   -1.1441 C   0  0  0  0  0  0  0  0  0  0  0  0
    2.0072   -0.2260   -0.0680 C   0  0  0  0  0  0  0  0  0  0  0  0
    1.0062    0.5669    0.7869 C   0  0  0  0  0  0  0  0  0  0  0  0
   -1.2895    0.7601   -0.3396 C   0  0  0  0  0  0  0  0  0  0  0  0
   -1.7862    1.5479    0.7096 O   0  0  0  0  0  0  0  0  0  0  0  0
   -1.0451   -0.9952    1.5465 H   0  0  0  0  0  0  0  0  0  0  0  0
   -0.4839   -2.0666    0.1214 H   0  0  0  0  0  0  0  0  0  0  0  0
    0.7478   -1.2439   -1.5954 H   0  0  0  0  0  0  0  0  0  0  0  0
    0.9924    0.5970   -1.8615 H   0  0  0  0  0  0  0  0  0  0  0  0
    2.8979    0.3412   -0.3377 H   0  0  0  0  0  0  0  0  0  0  0  0
    2.1701   -1.2610    0.3171 H   0  0  0  0  0  0  0  0  0  0  0  0
    1.2180    1.6505    0.7702 H   0  0  0  0  0  0  0  0  0  0  0  0
    0.9567    0.1836    1.8285 H   0  0  0  0  0  0  0  0  0  0  0  0
   -1.3107    1.3240   -1.2916 H   0  0  0  0  0  0  0  0  0  0  0  0
   -1.0350    1.7643    1.3207 H   0  0  0  0  0  0  0  0  0  0  0  0
  1  2  2  0
  2  3  1  0
  3  4  1  0
  4  5  1  0
  5  6  1  0
  6  7  1  0
  4  8  1  0
  8  9  1  0
  8  2  1  0
  7  4  1  0
  3 10  1  0
  3 11  1  0
  5 12  1  0
  5 13  1  0
  6 14  1  0
  6 15  1  0
  7 16  1  0
  7 17  1  0
  8 18  1  0
  9 19  1  0
M  END
