
     RDKit          3D

 17 19  0  0  0  0  0  0  0  0999 V2000
    0.2341    2.0571    1.4465 O   0  0  0  0  0  0  0  0  0  0  0  0
    0.1319    1.3589    0.4767 C   0  0  0  0  0  0  0  0  0  0  0  0
    1.3033    0.7012   -0.1861 C   0  0  0  0  0  0  0  0  0  0  0  0
    1.8695   -0.5641    0.1657 C   0  0  0  0  0  0  0  0  0  0  0  0
    0.5926   -0.6425   -0.6083 C   0  0  0  0  0  0  0  0  0  0  0  0
   -0.6924   -0.5767    0.0884 C   0  0  0  0  0  0  0  0  0  0  0  0
   -0.5384   -0.7712    1.4891 O   0  0  0  0  0  0  0  0  0  0  0  0
   -1.9736   -0.0937   -0.2577 C   0  0  0  0  0  0  0  0  0  0  0  0
   -0.9991    0.9179   -0.3466 C   0  0  0  0  0  0  0  0  0  0  0  0
    1.6590    1.2839   -1.0602 H   0  0  0  0  0  0  0  0  0  0  0  0
    1.8632   -0.8713    1.2365 H   0  0  0  0  0  0  0  0  0  0  0  0
    2.7809   -0.8790   -0.3568 H   0  0  0  0  0  0  0  0  0  0  0  0
    0.6353   -0.8968   -1.6671 H   0  0  0  0  0  0  0  0  0  0  0  0
   -0.9097   -1.6564    1.6905 H   0  0  0  0  0  0  0  0  0  0  0  0
   -2.7847    0.0185    0.4966 H   0  0  0  0  0  0  0  0  0  0  0  0
   -2.4352   -0.5569   -1.1828 H   0  0  0  0  0  0  0  0  0  0  0  0
   -0.7369    1.1711   -1.4243 H   0  0  0  0  0  0  0  0  0  0  0  0
  1  2  2  0
  2  3  1  0
  3  4  1  0
  4  5  1  0
  5  6  1  0
  6  7  1  0
  6  8  1  0
  8  9  1  0
  9  2  1  0
  5  3  1  0
  9  6  1  0
  3 10  1  0
  4 11  1  0
  4 12  1  0
  5 13  1  0
  7 14  1  0
  8 15  1  0
  8 16  1  0
  9 17  1  0
M  END
