
     RDKit          3D

 19 20  0  0  0  0  0  0  0  0999 V2000
   -0.0128    2.4729    0.1921 O   0  0  0  0  0  0  0  0  0  0  0  0
    0.1759    1.2864    0.1727 C   0  0  0  0  0  0  0  0  0  0  0  0
    1.4286    0.6701    0.7442 C   0  0  0  0  0  0  0  0  0  0  0  0
    2.4895    1.0559   -0.0578 O   0  0  0  0  0  0  0  0  0  0  0  0
    1.2123   -0.8089    0.7441 C   0  0  0  0  0  0  0  0  0  0  0  0
    0.2748   -1.0029   -0.4330 C   0  0  0  0  0  0  0  0  0  0  0  0
   -0.6215    0.1784   -0.3358 C   0  0  0  0  0  0  0  0  0  0  0  0
   -1.9885   -0.0777    0.3282 C   0  0  0  0  0  0  0  0  0  0  0  0
   -1.7997    0.2472   -1.1580 C   0  0  0  0  0  0  0  0  0  0  0  0
    1.5893    0.9887    1.7963 H   0  0  0  0  0  0  0  0  0  0  0  0
    2.6799    0.3860   -0.7574 H   0  0  0  0  0  0  0  0  0  0  0  0
    0.7605   -1.2105    1.6581 H   0  0  0  0  0  0  0  0  0  0  0  0
    2.1605   -1.3394    0.4646 H   0  0  0  0  0  0  0  0  0  0  0  0
   -0.2452   -1.9740   -0.2797 H   0  0  0  0  0  0  0  0  0  0  0  0
    0.7818   -1.0436   -1.3950 H   0  0  0  0  0  0  0  0  0  0  0  0
   -2.3390    0.7462    0.9951 H   0  0  0  0  0  0  0  0  0  0  0  0
   -2.2187   -1.1107    0.6187 H   0  0  0  0  0  0  0  0  0  0  0  0
   -2.3285    1.1671   -1.4568 H   0  0  0  0  0  0  0  0  0  0  0  0
   -1.9993   -0.6312   -1.8406 H   0  0  0  0  0  0  0  0  0  0  0  0
  1  2  2  0
  2  3  1  0
  3  4  1  0
  3  5  1  0
  5  6  1  0
  6  7  1  0
  7  8  1  0
  8  9  1  0
  7  2  1  0
  9  7  1  0
  3 10  1  0
  4 11  1  0
  5 12  1  0
  5 13  1  0
  6 14  1  0
  6 15  1  0
  8 16  1  0
  8 17  1  0
  9 18  1  0
  9 19  1  0
M  END
