
     RDKit          3D

 17 17  0  0  0  0  0  0  0  0999 V2000
   -1.7237    1.0118    2.5681 O   0  0  0  0  0  0  0  0  0  0  0  0
   -1.2734    0.6090    1.4893 C   0  0  0  0  0  0  0  0  0  0  0  0
   -2.1557    0.4493    0.3148 C   0  0  0  0  0  0  0  0  0  0  0  0
   -1.4918   -0.3998   -0.7284 C   0  0  0  0  0  0  0  0  0  0  0  0
   -0.1743   -0.4632   -0.8660 C   0  0  0  0  0  0  0  0  0  0  0  0
    0.6885    0.3362    0.0462 C   0  0  0  0  0  0  0  0  0  0  0  0
    2.0548   -0.2725    0.2096 C   0  0  0  0  0  0  0  0  0  0  0  0
    2.7787   -0.3008   -0.9688 O   0  0  0  0  0  0  0  0  0  0  0  0
    0.0701    0.2934    1.3410 O   0  0  0  0  0  0  0  0  0  0  0  0
   -2.2952    1.4626   -0.1279 H   0  0  0  0  0  0  0  0  0  0  0  0
   -3.1074   -0.0044    0.6364 H   0  0  0  0  0  0  0  0  0  0  0  0
   -2.1734   -0.9724   -1.3788 H   0  0  0  0  0  0  0  0  0  0  0  0
    0.2142   -1.0976   -1.6405 H   0  0  0  0  0  0  0  0  0  0  0  0
    0.7185    1.4074   -0.2306 H   0  0  0  0  0  0  0  0  0  0  0  0
    2.5873    0.3212    0.9805 H   0  0  0  0  0  0  0  0  0  0  0  0
    1.9067   -1.2949    0.6265 H   0  0  0  0  0  0  0  0  0  0  0  0
    3.3762   -1.0855   -0.9374 H   0  0  0  0  0  0  0  0  0  0  0  0
  1  2  2  0
  2  3  1  0
  3  4  1  0
  4  5  2  0
  5  6  1  0
  6  7  1  0
  7  8  1  0
  6  9  1  0
  9  2  1  0
  3 10  1  0
  3 11  1  0
  4 12  1  0
  5 13  1  0
  6 14  1  0
  7 15  1  0
  7 16  1  0
  8 17  1  0
M  END
