
     RDKit          3D

 17 18  0  0  0  0  0  0  0  0999 V2000
    0.4593   -2.5243   -0.7895 O   0  0  0  0  0  0  0  0  0  0  0  0
    0.2688   -1.4549   -0.2912 C   0  0  0  0  0  0  0  0  0  0  0  0
   -1.0830   -0.8803   -0.1305 C   0  0  0  0  0  0  0  0  0  0  0  0
   -1.0150    0.5153    0.4836 C   0  0  0  0  0  0  0  0  0  0  0  0
   -1.4798    1.4336   -0.4554 O   0  0  0  0  0  0  0  0  0  0  0  0
    0.4287    0.9089    0.7815 C   0  0  0  0  0  0  0  0  0  0  0  0
    1.2218    0.7201   -0.4676 C   0  0  0  0  0  0  0  0  0  0  0  0
    1.4074   -0.6470    0.1952 C   0  0  0  0  0  0  0  0  0  0  0  0
    1.1102   -0.0728    1.4575 O   0  0  0  0  0  0  0  0  0  0  0  0
   -1.6495   -0.8330   -1.0768 H   0  0  0  0  0  0  0  0  0  0  0  0
   -1.7156   -1.5024    0.5585 H   0  0  0  0  0  0  0  0  0  0  0  0
   -1.5996    0.5697    1.4341 H   0  0  0  0  0  0  0  0  0  0  0  0
   -2.0504    0.9542   -1.0993 H   0  0  0  0  0  0  0  0  0  0  0  0
    0.4946    1.8872    1.2718 H   0  0  0  0  0  0  0  0  0  0  0  0
    2.1433    1.3054   -0.5736 H   0  0  0  0  0  0  0  0  0  0  0  0
    0.6564    0.6954   -1.4115 H   0  0  0  0  0  0  0  0  0  0  0  0
    2.4025   -1.0752    0.1133 H   0  0  0  0  0  0  0  0  0  0  0  0
  1  2  2  0
  2  3  1  0
  3  4  1  0
  4  5  1  0
  4  6  1  0
  6  7  1  0
  7  8  1  0
  8  9  1  0
  8  2  1  0
  9  6  1  0
  3 10  1  0
  3 11  1  0
  4 12  1  0
  5 13  1  0
  6 14  1  0
  7 15  1  0
  7 16  1  0
  8 17  1  0
M  END
