
     RDKit          3D

 14 15  0  0  0  0  0  0  0  0999 V2000
    1.5772   -1.2970    1.5381 O   0  0  0  0  0  0  0  0  0  0  0  0
    1.0456   -0.7769    0.5758 C   0  0  0  0  0  0  0  0  0  0  0  0
    0.0396   -1.1003   -0.4803 C   0  0  0  0  0  0  0  0  0  0  0  0
   -1.3022   -0.4679   -0.1808 C   0  0  0  0  0  0  0  0  0  0  0  0
   -1.2267    0.8909   -0.5126 O   0  0  0  0  0  0  0  0  0  0  0  0
   -0.1132    1.3851    0.2043 C   0  0  0  0  0  0  0  0  0  0  0  0
    1.0544    0.5121   -0.1677 C   0  0  0  0  0  0  0  0  0  0  0  0
    0.7783   -0.2428   -1.3308 O   0  0  0  0  0  0  0  0  0  0  0  0
    0.0192   -2.1387   -0.8211 H   0  0  0  0  0  0  0  0  0  0  0  0
   -1.5186   -0.5018    0.9090 H   0  0  0  0  0  0  0  0  0  0  0  0
   -2.0691   -0.9601   -0.7791 H   0  0  0  0  0  0  0  0  0  0  0  0
   -0.4034    1.2557    1.2886 H   0  0  0  0  0  0  0  0  0  0  0  0
    0.0856    2.4430   -0.0229 H   0  0  0  0  0  0  0  0  0  0  0  0
    2.0333    0.9987   -0.2205 H   0  0  0  0  0  0  0  0  0  0  0  0
  1  2  2  0
  2  3  1  0
  3  4  1  0
  4  5  1  0
  5  6  1  0
  6  7  1  0
  7  8  1  0
  7  2  1  0
  8  3  1  0
  3  9  1  0
  4 10  1  0
  4 11  1  0
  6 12  1  0
  6 13  1  0
  7 14  1  0
M  END
