
     RDKit          3D

 15 16  0  0  0  0  0  0  0  0999 V2000
   -0.0416    2.4099    1.2530 O   0  0  0  0  0  0  0  0  0  0  0  0
   -0.4610    1.3920    0.6633 C   0  0  0  0  0  0  0  0  0  0  0  0
   -1.7192    0.8641    0.7908 O   0  0  0  0  0  0  0  0  0  0  0  0
   -1.8442   -0.3327    0.0448 C   0  0  0  0  0  0  0  0  0  0  0  0
   -0.6293   -0.4865   -0.8083 C   0  0  0  0  0  0  0  0  0  0  0  0
   -0.1578    0.5689   -1.5730 O   0  0  0  0  0  0  0  0  0  0  0  0
    0.2996    0.5686   -0.2716 C   0  0  0  0  0  0  0  0  0  0  0  0
    1.6990    0.1264    0.0410 C   0  0  0  0  0  0  0  0  0  0  0  0
    1.9685   -1.1742   -0.3327 O   0  0  0  0  0  0  0  0  0  0  0  0
   -2.7957   -0.4196   -0.4874 H   0  0  0  0  0  0  0  0  0  0  0  0
   -1.8193   -1.1632    0.8108 H   0  0  0  0  0  0  0  0  0  0  0  0
   -0.2141   -1.4731   -1.0365 H   0  0  0  0  0  0  0  0  0  0  0  0
    2.4765    0.7843   -0.3772 H   0  0  0  0  0  0  0  0  0  0  0  0
    1.8124    0.1840    1.1581 H   0  0  0  0  0  0  0  0  0  0  0  0
    1.4260   -1.8487    0.1247 H   0  0  0  0  0  0  0  0  0  0  0  0
  1  2  2  0
  2  3  1  0
  3  4  1  0
  4  5  1  0
  5  6  1  0
  6  7  1  0
  7  8  1  0
  8  9  1  0
  7  2  1  0
  7  5  1  0
  4 10  1  0
  4 11  1  0
  5 12  1  0
  8 13  1  0
  8 14  1  0
  9 15  1  0
M  END
