
     RDKit          3D

 14 15  0  0  0  0  0  0  0  0999 V2000
   -0.1321    2.4341   -0.3029 O   0  0  0  0  0  0  0  0  0  0  0  0
   -0.3645    1.2154   -0.1851 C   0  0  0  0  0  0  0  0  0  0  0  0
   -1.6691    0.5703   -0.1805 C   0  0  0  0  0  0  0  0  0  0  0  0
   -1.5454   -0.6566    0.3283 C   0  0  0  0  0  0  0  0  0  0  0  0
   -0.1336   -0.9141    0.7015 C   0  0  0  0  0  0  0  0  0  0  0  0
    0.6100    0.1514   -0.0246 C   0  0  0  0  0  0  0  0  0  0  0  0
    1.9296    0.1223   -0.3897 C   0  0  0  0  0  0  0  0  0  0  0  0
    1.0399   -0.3718   -1.3606 O   0  0  0  0  0  0  0  0  0  0  0  0
   -2.5891    1.0529   -0.5477 H   0  0  0  0  0  0  0  0  0  0  0  0
   -2.4070   -1.3291    0.4284 H   0  0  0  0  0  0  0  0  0  0  0  0
   -0.0494   -0.7083    1.8078 H   0  0  0  0  0  0  0  0  0  0  0  0
    0.1916   -1.9417    0.4537 H   0  0  0  0  0  0  0  0  0  0  0  0
    2.6287   -0.6624   -0.0180 H   0  0  0  0  0  0  0  0  0  0  0  0
    2.4903    1.0374   -0.7106 H   0  0  0  0  0  0  0  0  0  0  0  0
  1  2  2  0
  2  3  1  0
  3  4  2  0
  4  5  1  0
  5  6  1  0
  6  7  1  0
  7  8  1  0
  6  2  1  0
  8  6  1  0
  3  9  1  0
  4 10  1  0
  5 11  1  0
  5 12  1  0
  7 13  1  0
  7 14  1  0
M  END
