
     RDKit          3D

 17 18  0  0  0  0  0  0  0  0999 V2000
    2.7544   -0.8966    0.5666 O   0  0  0  0  0  0  0  0  0  0  0  0
    1.5384   -0.6043    0.4518 C   0  0  0  0  0  0  0  0  0  0  0  0
    0.4914   -1.3793    0.9243 O   0  0  0  0  0  0  0  0  0  0  0  0
   -0.7561   -1.3901    0.2150 C   0  0  0  0  0  0  0  0  0  0  0  0
   -1.0255    0.0407   -0.2085 C   0  0  0  0  0  0  0  0  0  0  0  0
   -0.6845    1.0134    0.8956 C   0  0  0  0  0  0  0  0  0  0  0  0
    0.5778    1.4877    0.6755 O   0  0  0  0  0  0  0  0  0  0  0  0
    1.2111    0.6600   -0.2389 C   0  0  0  0  0  0  0  0  0  0  0  0
    0.0764    0.3793   -1.2238 C   0  0  0  0  0  0  0  0  0  0  0  0
   -1.5564   -1.7838    0.8717 H   0  0  0  0  0  0  0  0  0  0  0  0
   -0.6101   -2.0221   -0.6870 H   0  0  0  0  0  0  0  0  0  0  0  0
   -2.0015    0.1940   -0.6563 H   0  0  0  0  0  0  0  0  0  0  0  0
   -1.3823    1.8901    0.8930 H   0  0  0  0  0  0  0  0  0  0  0  0
   -0.7618    0.5480    1.9001 H   0  0  0  0  0  0  0  0  0  0  0  0
    2.0426    1.1276   -0.7537 H   0  0  0  0  0  0  0  0  0  0  0  0
   -0.1700    1.2666   -1.8155 H   0  0  0  0  0  0  0  0  0  0  0  0
    0.2561   -0.5311   -1.8099 H   0  0  0  0  0  0  0  0  0  0  0  0
  1  2  2  0
  2  3  1  0
  3  4  1  0
  4  5  1  0
  5  6  1  0
  6  7  1  0
  7  8  1  0
  8  9  1  0
  8  2  1  0
  9  5  1  0
  4 10  1  0
  4 11  1  0
  5 12  1  0
  6 13  1  0
  6 14  1  0
  8 15  1  0
  9 16  1  0
  9 17  1  0
M  END
