
     RDKit          3D

 17 18  0  0  0  0  0  0  0  0999 V2000
    3.3092   -0.0123    0.0241 O   0  0  0  0  0  0  0  0  0  0  0  0
    2.0644   -0.0005   -0.0994 C   0  0  0  0  0  0  0  0  0  0  0  0
    1.2197   -0.7160   -1.0561 C   0  0  0  0  0  0  0  0  0  0  0  0
   -0.0185   -0.8138   -0.6483 C   0  0  0  0  0  0  0  0  0  0  0  0
   -1.4550   -1.0574   -0.4239 C   0  0  0  0  0  0  0  0  0  0  0  0
   -1.4070    0.3428    0.2440 C   0  0  0  0  0  0  0  0  0  0  0  0
   -1.2796    1.2910   -0.7596 O   0  0  0  0  0  0  0  0  0  0  0  0
   -0.0775   -0.1618    0.7278 C   0  0  0  0  0  0  0  0  0  0  0  0
    1.0922    0.7808    0.7358 C   0  0  0  0  0  0  0  0  0  0  0  0
    1.6333   -1.1044   -1.9936 H   0  0  0  0  0  0  0  0  0  0  0  0
   -1.6004   -1.8105    0.3743 H   0  0  0  0  0  0  0  0  0  0  0  0
   -2.1029   -1.1087   -1.2942 H   0  0  0  0  0  0  0  0  0  0  0  0
   -2.1872    0.5016    0.9862 H   0  0  0  0  0  0  0  0  0  0  0  0
   -1.4496    2.2021   -0.4667 H   0  0  0  0  0  0  0  0  0  0  0  0
   -0.1376   -0.8873    1.5496 H   0  0  0  0  0  0  0  0  0  0  0  0
    1.5081    0.7805    1.7587 H   0  0  0  0  0  0  0  0  0  0  0  0
    0.8886    1.7739    0.3411 H   0  0  0  0  0  0  0  0  0  0  0  0
  1  2  2  0
  2  3  1  0
  3  4  2  0
  4  5  1  0
  5  6  1  0
  6  7  1  0
  6  8  1  0
  8  9  1  0
  9  2  1  0
  8  4  1  0
  3 10  1  0
  5 11  1  0
  5 12  1  0
  6 13  1  0
  7 14  1  0
  8 15  1  0
  9 16  1  0
  9 17  1  0
M  END
