
     RDKit          3D

 17 17  0  0  0  0  0  0  0  0999 V2000
    1.6547    1.4505    1.7303 O   0  0  0  0  0  0  0  0  0  0  0  0
    0.5821    1.2367    1.1263 C   0  0  0  0  0  0  0  0  0  0  0  0
   -0.5576    2.0033    0.9481 O   0  0  0  0  0  0  0  0  0  0  0  0
   -0.8279    1.2931   -0.2491 C   0  0  0  0  0  0  0  0  0  0  0  0
   -0.0291    0.1705    0.3414 C   0  0  0  0  0  0  0  0  0  0  0  0
    0.8937   -0.5497   -0.6259 C   0  0  0  0  0  0  0  0  0  0  0  0
    1.4275    0.3148   -1.5537 O   0  0  0  0  0  0  0  0  0  0  0  0
   -0.9057   -0.7980    1.0915 C   0  0  0  0  0  0  0  0  0  0  0  0
   -1.3862   -1.7279    0.1672 O   0  0  0  0  0  0  0  0  0  0  0  0
   -0.3700    1.7507   -1.1683 H   0  0  0  0  0  0  0  0  0  0  0  0
   -1.9112    1.0927   -0.3957 H   0  0  0  0  0  0  0  0  0  0  0  0
    1.7050   -0.9880   -0.0117 H   0  0  0  0  0  0  0  0  0  0  0  0
    0.2878   -1.3701   -1.0864 H   0  0  0  0  0  0  0  0  0  0  0  0
    2.3976    0.1350   -1.6437 H   0  0  0  0  0  0  0  0  0  0  0  0
   -1.7817   -0.2163    1.4932 H   0  0  0  0  0  0  0  0  0  0  0  0
   -0.3334   -1.2431    1.9074 H   0  0  0  0  0  0  0  0  0  0  0  0
   -0.8455   -2.5540    0.1343 H   0  0  0  0  0  0  0  0  0  0  0  0
  1  2  2  0
  2  3  1  0
  3  4  1  0
  4  5  1  0
  5  6  1  0
  6  7  1  0
  5  8  1  0
  8  9  1  0
  5  2  1  0
  4 10  1  0
  4 11  1  0
  6 12  1  0
  6 13  1  0
  7 14  1  0
  8 15  1  0
  8 16  1  0
  9 17  1  0
M  END
