
     RDKit          3D

 15 16  0  0  0  0  0  0  0  0999 V2000
    0.6955   -1.0268   -2.0617 O   0  0  0  0  0  0  0  0  0  0  0  0
    0.1605   -0.5398   -1.1063 C   0  0  0  0  0  0  0  0  0  0  0  0
   -1.2073   -0.6088   -0.5421 C   0  0  0  0  0  0  0  0  0  0  0  0
   -1.1734   -1.4953    0.5590 O   0  0  0  0  0  0  0  0  0  0  0  0
   -1.4200    0.7396   -0.0094 C   0  0  0  0  0  0  0  0  0  0  0  0
   -0.2366    1.2848    0.2148 C   0  0  0  0  0  0  0  0  0  0  0  0
    0.8670    0.3767   -0.1384 C   0  0  0  0  0  0  0  0  0  0  0  0
    1.8598   -0.1504    0.6915 C   0  0  0  0  0  0  0  0  0  0  0  0
    2.1186    0.8322   -0.4205 O   0  0  0  0  0  0  0  0  0  0  0  0
   -1.9619   -0.9333   -1.2764 H   0  0  0  0  0  0  0  0  0  0  0  0
   -1.7910   -1.1363    1.2175 H   0  0  0  0  0  0  0  0  0  0  0  0
   -2.4000    1.1932    0.1635 H   0  0  0  0  0  0  0  0  0  0  0  0
   -0.1005    2.2826    0.6118 H   0  0  0  0  0  0  0  0  0  0  0  0
    2.3808   -1.0930    0.4343 H   0  0  0  0  0  0  0  0  0  0  0  0
    2.2085    0.2745    1.6624 H   0  0  0  0  0  0  0  0  0  0  0  0
  1  2  2  0
  2  3  1  0
  3  4  1  0
  3  5  1  0
  5  6  2  0
  6  7  1  0
  7  8  1  0
  8  9  1  0
  7  2  1  0
  9  7  1  0
  3 10  1  0
  4 11  1  0
  5 12  1  0
  6 13  1  0
  8 14  1  0
  8 15  1  0
M  END
