
     RDKit          3D

 19 19  0  0  0  0  0  0  0  0999 V2000
   -0.8548   -0.7904    2.5869 O   0  0  0  0  0  0  0  0  0  0  0  0
   -1.1320   -0.2705    1.5490 C   0  0  0  0  0  0  0  0  0  0  0  0
   -2.4718   -0.0964    0.9666 C   0  0  0  0  0  0  0  0  0  0  0  0
   -2.3278    0.0813   -0.3966 O   0  0  0  0  0  0  0  0  0  0  0  0
   -0.9979    0.0654   -0.7123 C   0  0  0  0  0  0  0  0  0  0  0  0
   -0.2180    0.3365    0.5707 C   0  0  0  0  0  0  0  0  0  0  0  0
    1.1305   -0.3237    0.5035 C   0  0  0  0  0  0  0  0  0  0  0  0
    1.9287    0.4327   -0.5504 C   0  0  0  0  0  0  0  0  0  0  0  0
    3.1948   -0.0657   -0.7209 O   0  0  0  0  0  0  0  0  0  0  0  0
   -2.8676    0.8830    1.3632 H   0  0  0  0  0  0  0  0  0  0  0  0
   -3.1737   -0.9145    1.2232 H   0  0  0  0  0  0  0  0  0  0  0  0
   -0.7172   -0.9689   -1.0219 H   0  0  0  0  0  0  0  0  0  0  0  0
   -0.7108    0.7661   -1.5165 H   0  0  0  0  0  0  0  0  0  0  0  0
   -0.1497    1.4249    0.7741 H   0  0  0  0  0  0  0  0  0  0  0  0
    1.6819   -0.3108    1.4395 H   0  0  0  0  0  0  0  0  0  0  0  0
    1.0287   -1.3535    0.1339 H   0  0  0  0  0  0  0  0  0  0  0  0
    1.8903    1.5029   -0.2905 H   0  0  0  0  0  0  0  0  0  0  0  0
    1.3632    0.2769   -1.5128 H   0  0  0  0  0  0  0  0  0  0  0  0
    3.4033   -0.6753    0.0315 H   0  0  0  0  0  0  0  0  0  0  0  0
  1  2  2  0
  2  3  1  0
  3  4  1  0
  4  5  1  0
  5  6  1  0
  6  7  1  0
  7  8  1  0
  8  9  1  0
  6  2  1  0
  3 10  1  0
  3 11  1  0
  5 12  1  0
  5 13  1  0
  6 14  1  0
  7 15  1  0
  7 16  1  0
  8 17  1  0
  8 18  1  0
  9 19  1  0
M  END
