
     RDKit          3D

 17 18  0  0  0  0  0  0  0  0999 V2000
    2.8042    1.3163   -0.7141 O   0  0  0  0  0  0  0  0  0  0  0  0
    1.7318    0.8139   -0.3163 C   0  0  0  0  0  0  0  0  0  0  0  0
    0.6682    1.4806    0.4622 C   0  0  0  0  0  0  0  0  0  0  0  0
   -0.4792    0.8439    0.2707 C   0  0  0  0  0  0  0  0  0  0  0  0
   -1.9057    0.3478    0.2577 C   0  0  0  0  0  0  0  0  0  0  0  0
   -1.2575   -1.0443    0.1226 C   0  0  0  0  0  0  0  0  0  0  0  0
   -0.2416   -0.3061   -0.6823 C   0  0  0  0  0  0  0  0  0  0  0  0
    1.1950   -0.5836   -0.4951 C   0  0  0  0  0  0  0  0  0  0  0  0
    1.4955   -1.3368    0.6116 O   0  0  0  0  0  0  0  0  0  0  0  0
    0.7869    2.3519    1.0944 H   0  0  0  0  0  0  0  0  0  0  0  0
   -2.4559    0.5064    1.1793 H   0  0  0  0  0  0  0  0  0  0  0  0
   -2.3691    0.6437   -0.6930 H   0  0  0  0  0  0  0  0  0  0  0  0
   -0.9483   -1.3651    1.1343 H   0  0  0  0  0  0  0  0  0  0  0  0
   -1.9459   -1.7109   -0.4201 H   0  0  0  0  0  0  0  0  0  0  0  0
   -0.6114   -0.1238   -1.7034 H   0  0  0  0  0  0  0  0  0  0  0  0
    1.6210   -1.0448   -1.4229 H   0  0  0  0  0  0  0  0  0  0  0  0
    1.9118   -0.7894    1.3144 H   0  0  0  0  0  0  0  0  0  0  0  0
  1  2  2  0
  2  3  1  0
  3  4  2  0
  4  5  1  0
  5  6  1  0
  6  7  1  0
  7  8  1  0
  8  9  1  0
  8  2  1  0
  7  4  1  0
  3 10  1  0
  5 11  1  0
  5 12  1  0
  6 13  1  0
  6 14  1  0
  7 15  1  0
  8 16  1  0
  9 17  1  0
M  END
