
     RDKit          3D

 19 20  0  0  0  0  0  0  0  0999 V2000
   -1.3697    1.3364    2.0024 O   0  0  0  0  0  0  0  0  0  0  0  0
   -1.4270    0.7053    0.9643 C   0  0  0  0  0  0  0  0  0  0  0  0
   -2.3689   -0.2043    0.2569 C   0  0  0  0  0  0  0  0  0  0  0  0
   -1.1141   -0.8426   -0.3587 C   0  0  0  0  0  0  0  0  0  0  0  0
   -0.5031    0.5277   -0.1907 C   0  0  0  0  0  0  0  0  0  0  0  0
    0.9359    0.6148    0.1356 C   0  0  0  0  0  0  0  0  0  0  0  0
    1.8983    0.4499   -0.9918 C   0  0  0  0  0  0  0  0  0  0  0  0
    2.8083   -0.0728   -0.0464 O   0  0  0  0  0  0  0  0  0  0  0  0
    1.6611   -0.6092    0.5892 C   0  0  0  0  0  0  0  0  0  0  0  0
   -2.9446    0.3901   -0.5006 H   0  0  0  0  0  0  0  0  0  0  0  0
   -2.9658   -0.8691    0.8695 H   0  0  0  0  0  0  0  0  0  0  0  0
   -0.7306   -1.6177    0.3581 H   0  0  0  0  0  0  0  0  0  0  0  0
   -1.2773   -1.1825   -1.3846 H   0  0  0  0  0  0  0  0  0  0  0  0
   -0.7600    1.1471   -1.0783 H   0  0  0  0  0  0  0  0  0  0  0  0
    1.2124    1.5040    0.7750 H   0  0  0  0  0  0  0  0  0  0  0  0
    2.2460    1.3619   -1.4943 H   0  0  0  0  0  0  0  0  0  0  0  0
    1.6141   -0.3852   -1.6741 H   0  0  0  0  0  0  0  0  0  0  0  0
    1.8060   -0.7324    1.6758 H   0  0  0  0  0  0  0  0  0  0  0  0
    1.2789   -1.5215    0.0928 H   0  0  0  0  0  0  0  0  0  0  0  0
  1  2  2  0
  2  3  1  0
  3  4  1  0
  4  5  1  0
  5  6  1  0
  6  7  1  0
  7  8  1  0
  8  9  1  0
  5  2  1  0
  9  6  1  0
  3 10  1  0
  3 11  1  0
  4 12  1  0
  4 13  1  0
  5 14  1  0
  6 15  1  0
  7 16  1  0
  7 17  1  0
  9 18  1  0
  9 19  1  0
M  END
