
     RDKit          3D

 15 16  0  0  0  0  0  0  0  0999 V2000
   -0.9909   -0.3282    2.4427 O   0  0  0  0  0  0  0  0  0  0  0  0
   -0.5945   -0.1708    1.3136 C   0  0  0  0  0  0  0  0  0  0  0  0
   -0.3416    1.0809    0.5353 C   0  0  0  0  0  0  0  0  0  0  0  0
   -1.0326    0.7120   -0.7411 C   0  0  0  0  0  0  0  0  0  0  0  0
   -0.8473   -0.5876   -0.9176 C   0  0  0  0  0  0  0  0  0  0  0  0
   -0.2195   -1.2058    0.3048 C   0  0  0  0  0  0  0  0  0  0  0  0
    1.1722   -1.1160    0.1858 O   0  0  0  0  0  0  0  0  0  0  0  0
    1.5911    0.0883   -0.2764 C   0  0  0  0  0  0  0  0  0  0  0  0
    1.0094    1.2059    0.2840 O   0  0  0  0  0  0  0  0  0  0  0  0
   -0.7219    1.9774    1.0000 H   0  0  0  0  0  0  0  0  0  0  0  0
   -1.5761    1.3864   -1.3873 H   0  0  0  0  0  0  0  0  0  0  0  0
   -1.1179   -1.1100   -1.8236 H   0  0  0  0  0  0  0  0  0  0  0  0
   -0.5799   -2.1984    0.5214 H   0  0  0  0  0  0  0  0  0  0  0  0
    2.6954    0.1663   -0.0432 H   0  0  0  0  0  0  0  0  0  0  0  0
    1.5542    0.0996   -1.3985 H   0  0  0  0  0  0  0  0  0  0  0  0
  1  2  2  0
  2  3  1  0
  3  4  1  0
  4  5  2  0
  5  6  1  0
  6  7  1  0
  7  8  1  0
  8  9  1  0
  6  2  1  0
  9  3  1  0
  3 10  1  0
  4 11  1  0
  5 12  1  0
  6 13  1  0
  8 14  1  0
  8 15  1  0
M  END
