
     RDKit          3D

 19 19  0  0  0  0  0  0  0  0999 V2000
    1.5888   -0.4341   -2.2050 O   0  0  0  0  0  0  0  0  0  0  0  0
    1.2214   -0.2837   -1.0554 C   0  0  0  0  0  0  0  0  0  0  0  0
    1.8181    0.2582    0.1890 C   0  0  0  0  0  0  0  0  0  0  0  0
    3.1435   -0.1527    0.2989 O   0  0  0  0  0  0  0  0  0  0  0  0
    0.8551   -0.6109    0.9706 C   0  0  0  0  0  0  0  0  0  0  0  0
   -0.0198   -0.5602   -0.2769 C   0  0  0  0  0  0  0  0  0  0  0  0
   -0.9294    0.6340   -0.3211 C   0  0  0  0  0  0  0  0  0  0  0  0
   -2.2101    0.4224    0.4498 C   0  0  0  0  0  0  0  0  0  0  0  0
   -2.9226   -0.6569   -0.0698 O   0  0  0  0  0  0  0  0  0  0  0  0
    1.6223    1.3186    0.3994 H   0  0  0  0  0  0  0  0  0  0  0  0
    3.6451    0.2812   -0.4400 H   0  0  0  0  0  0  0  0  0  0  0  0
    1.2622   -1.6160    1.1386 H   0  0  0  0  0  0  0  0  0  0  0  0
    0.4073   -0.1190    1.8558 H   0  0  0  0  0  0  0  0  0  0  0  0
   -0.4609   -1.5248   -0.5368 H   0  0  0  0  0  0  0  0  0  0  0  0
   -1.2157    0.8509   -1.3724 H   0  0  0  0  0  0  0  0  0  0  0  0
   -0.3819    1.5115    0.0694 H   0  0  0  0  0  0  0  0  0  0  0  0
   -2.8388    1.3222    0.2948 H   0  0  0  0  0  0  0  0  0  0  0  0
   -2.0440    0.3274    1.5408 H   0  0  0  0  0  0  0  0  0  0  0  0
   -2.5406   -0.9682   -0.9298 H   0  0  0  0  0  0  0  0  0  0  0  0
  1  2  2  0
  2  3  1  0
  3  4  1  0
  3  5  1  0
  5  6  1  0
  6  7  1  0
  7  8  1  0
  8  9  1  0
  6  2  1  0
  3 10  1  0
  4 11  1  0
  5 12  1  0
  5 13  1  0
  6 14  1  0
  7 15  1  0
  7 16  1  0
  8 17  1  0
  8 18  1  0
  9 19  1  0
M  END
