
     RDKit          3D

 19 20  0  0  0  0  0  0  0  0999 V2000
    1.2627    2.3886    0.4948 O   0  0  0  0  0  0  0  0  0  0  0  0
    0.9284    1.3587   -0.0191 C   0  0  0  0  0  0  0  0  0  0  0  0
    1.8278    0.1654   -0.1738 C   0  0  0  0  0  0  0  0  0  0  0  0
    0.9921   -1.0158    0.3068 C   0  0  0  0  0  0  0  0  0  0  0  0
   -0.2356   -1.0715   -0.5599 C   0  0  0  0  0  0  0  0  0  0  0  0
   -1.5110   -0.8117    0.2444 C   0  0  0  0  0  0  0  0  0  0  0  0
   -1.3313    0.6804    0.5364 C   0  0  0  0  0  0  0  0  0  0  0  0
   -0.4517    1.1216   -0.5840 C   0  0  0  0  0  0  0  0  0  0  0  0
   -0.3019    0.0208   -1.4501 O   0  0  0  0  0  0  0  0  0  0  0  0
    2.7734    0.2664    0.3354 H   0  0  0  0  0  0  0  0  0  0  0  0
    1.9194    0.0201   -1.2879 H   0  0  0  0  0  0  0  0  0  0  0  0
    1.6044   -1.9319    0.2009 H   0  0  0  0  0  0  0  0  0  0  0  0
    0.6913   -0.8359    1.3668 H   0  0  0  0  0  0  0  0  0  0  0  0
   -0.2658   -2.0214   -1.0862 H   0  0  0  0  0  0  0  0  0  0  0  0
   -1.5769   -1.4127    1.1439 H   0  0  0  0  0  0  0  0  0  0  0  0
   -2.3463   -0.8876   -0.4567 H   0  0  0  0  0  0  0  0  0  0  0  0
   -2.3117    1.1625    0.5748 H   0  0  0  0  0  0  0  0  0  0  0  0
   -0.8649    0.7914    1.5287 H   0  0  0  0  0  0  0  0  0  0  0  0
   -0.8024    2.0129   -1.1152 H   0  0  0  0  0  0  0  0  0  0  0  0
  1  2  2  0
  2  3  1  0
  3  4  1  0
  4  5  1  0
  5  6  1  0
  6  7  1  0
  7  8  1  0
  8  9  1  0
  8  2  1  0
  9  5  1  0
  3 10  1  0
  3 11  1  0
  4 12  1  0
  4 13  1  0
  5 14  1  0
  6 15  1  0
  6 16  1  0
  7 17  1  0
  7 18  1  0
  8 19  1  0
M  END
