
     RDKit          3D

 19 19  0  0  0  0  0  0  0  0999 V2000
   -1.3843   -2.4274   -0.3204 O   0  0  0  0  0  0  0  0  0  0  0  0
   -0.6426   -1.4393   -0.1795 C   0  0  0  0  0  0  0  0  0  0  0  0
    0.7370   -1.7117   -0.6099 C   0  0  0  0  0  0  0  0  0  0  0  0
    1.3064   -0.6159   -1.2406 O   0  0  0  0  0  0  0  0  0  0  0  0
    1.6249    0.3056   -0.2301 C   0  0  0  0  0  0  0  0  0  0  0  0
    0.4932    1.2796   -0.1621 C   0  0  0  0  0  0  0  0  0  0  0  0
   -0.6080    0.8828    0.7553 C   0  0  0  0  0  0  0  0  0  0  0  0
   -1.5074    1.9770    0.8094 O   0  0  0  0  0  0  0  0  0  0  0  0
   -1.3803   -0.3076    0.3740 C   0  0  0  0  0  0  0  0  0  0  0  0
    1.3531   -2.0733    0.2380 H   0  0  0  0  0  0  0  0  0  0  0  0
    0.7633   -2.5501   -1.3658 H   0  0  0  0  0  0  0  0  0  0  0  0
    1.7994   -0.2214    0.7247 H   0  0  0  0  0  0  0  0  0  0  0  0
    2.5657    0.8626   -0.4690 H   0  0  0  0  0  0  0  0  0  0  0  0
    0.9172    2.2476    0.2241 H   0  0  0  0  0  0  0  0  0  0  0  0
    0.0755    1.4899   -1.1608 H   0  0  0  0  0  0  0  0  0  0  0  0
   -0.1982    0.8145    1.7982 H   0  0  0  0  0  0  0  0  0  0  0  0
   -1.7789    2.2265   -0.1282 H   0  0  0  0  0  0  0  0  0  0  0  0
   -2.2132   -0.0630   -0.3475 H   0  0  0  0  0  0  0  0  0  0  0  0
   -1.9228   -0.6764    1.2901 H   0  0  0  0  0  0  0  0  0  0  0  0
  1  2  2  0
  2  3  1  0
  3  4  1  0
  4  5  1  0
  5  6  1  0
  6  7  1  0
  7  8  1  0
  7  9  1  0
  9  2  1  0
  3 10  1  0
  3 11  1  0
  5 12  1  0
  5 13  1  0
  6 14  1  0
  6 15  1  0
  7 16  1  0
  8 17  1  0
  9 18  1  0
  9 19  1  0
M  END
