
     RDKit          3D

 13 14  0  0  0  0  0  0  0  0999 V2000
   -0.9977    2.4440   -0.5410 O   0  0  0  0  0  0  0  0  0  0  0  0
   -0.9277    1.2242   -0.2455 C   0  0  0  0  0  0  0  0  0  0  0  0
   -2.0255    0.3145    0.0433 C   0  0  0  0  0  0  0  0  0  0  0  0
   -1.4946   -0.8695    0.3026 C   0  0  0  0  0  0  0  0  0  0  0  0
   -0.0398   -0.8198    0.2038 C   0  0  0  0  0  0  0  0  0  0  0  0
    1.0616   -1.5162    0.3092 O   0  0  0  0  0  0  0  0  0  0  0  0
    2.1192   -0.8049    0.0715 C   0  0  0  0  0  0  0  0  0  0  0  0
    1.6956    0.4800   -0.2189 C   0  0  0  0  0  0  0  0  0  0  0  0
    0.3187    0.4652   -0.1332 C   0  0  0  0  0  0  0  0  0  0  0  0
   -3.0849    0.5854    0.0399 H   0  0  0  0  0  0  0  0  0  0  0  0
   -2.0668   -1.7525    0.5536 H   0  0  0  0  0  0  0  0  0  0  0  0
    3.1661   -1.1095    0.0840 H   0  0  0  0  0  0  0  0  0  0  0  0
    2.2757    1.3590   -0.4693 H   0  0  0  0  0  0  0  0  0  0  0  0
  1  2  2  0
  2  3  1  0
  3  4  2  0
  4  5  1  0
  5  6  1  0
  6  7  1  0
  7  8  2  0
  8  9  1  0
  9  2  1  0
  9  5  2  0
  3 10  1  0
  4 11  1  0
  7 12  1  0
  8 13  1  0
M  END
