
     RDKit          3D

 21 22  0  0  0  0  0  0  0  0999 V2000
    1.8779    2.2209    0.8382 O   0  0  0  0  0  0  0  0  0  0  0  0
    1.3842    1.3143    0.1874 C   0  0  0  0  0  0  0  0  0  0  0  0
    1.9806   -0.0449    0.2070 C   0  0  0  0  0  0  0  0  0  0  0  0
    0.8527   -1.0182    0.4987 C   0  0  0  0  0  0  0  0  0  0  0  0
   -0.2356   -0.9213   -0.5195 C   0  0  0  0  0  0  0  0  0  0  0  0
   -1.5919   -1.2715    0.1163 C   0  0  0  0  0  0  0  0  0  0  0  0
   -1.6232    0.2041    0.5421 C   0  0  0  0  0  0  0  0  0  0  0  0
   -0.7749    0.4475   -0.7131 C   0  0  0  0  0  0  0  0  0  0  0  0
    0.1931    1.5557   -0.6243 C   0  0  0  0  0  0  0  0  0  0  0  0
    2.7186   -0.0923    1.0041 H   0  0  0  0  0  0  0  0  0  0  0  0
    2.3938   -0.3357   -0.7910 H   0  0  0  0  0  0  0  0  0  0  0  0
    0.4955   -0.9519    1.5405 H   0  0  0  0  0  0  0  0  0  0  0  0
    1.3072   -2.0459    0.3950 H   0  0  0  0  0  0  0  0  0  0  0  0
   -0.1069   -1.5531   -1.4109 H   0  0  0  0  0  0  0  0  0  0  0  0
   -2.3826   -1.4522   -0.6521 H   0  0  0  0  0  0  0  0  0  0  0  0
   -1.5384   -1.9823    0.9383 H   0  0  0  0  0  0  0  0  0  0  0  0
   -1.0291    0.4058    1.4548 H   0  0  0  0  0  0  0  0  0  0  0  0
   -2.5999    0.6828    0.4679 H   0  0  0  0  0  0  0  0  0  0  0  0
   -1.4297    0.5130   -1.5996 H   0  0  0  0  0  0  0  0  0  0  0  0
    0.4517    1.8738   -1.6767 H   0  0  0  0  0  0  0  0  0  0  0  0
   -0.3429    2.4514   -0.2030 H   0  0  0  0  0  0  0  0  0  0  0  0
  1  2  2  0
  2  3  1  0
  3  4  1  0
  4  5  1  0
  5  6  1  0
  6  7  1  0
  7  8  1  0
  8  9  1  0
  9  2  1  0
  8  5  1  0
  3 10  1  0
  3 11  1  0
  4 12  1  0
  4 13  1  0
  5 14  1  0
  6 15  1  0
  6 16  1  0
  7 17  1  0
  7 18  1  0
  8 19  1  0
  9 20  1  0
  9 21  1  0
M  END
