
     RDKit          3D

 19 19  0  0  0  0  0  0  0  0999 V2000
   -0.1210    1.1878   -1.8389 O   0  0  0  0  0  0  0  0  0  0  0  0
    0.3038    0.8186   -0.7847 C   0  0  0  0  0  0  0  0  0  0  0  0
    1.7438    0.7233   -0.5294 C   0  0  0  0  0  0  0  0  0  0  0  0
    1.9986   -0.5879    0.1992 C   0  0  0  0  0  0  0  0  0  0  0  0
    0.8857   -1.4350    0.1276 O   0  0  0  0  0  0  0  0  0  0  0  0
   -0.1909   -0.8985    0.8318 C   0  0  0  0  0  0  0  0  0  0  0  0
   -0.6199    0.4471    0.2927 C   0  0  0  0  0  0  0  0  0  0  0  0
   -2.0670    0.4072   -0.1350 C   0  0  0  0  0  0  0  0  0  0  0  0
   -2.2989   -0.5019   -1.1494 O   0  0  0  0  0  0  0  0  0  0  0  0
    2.3704    0.7988   -1.4392 H   0  0  0  0  0  0  0  0  0  0  0  0
    2.0600    1.5889    0.1197 H   0  0  0  0  0  0  0  0  0  0  0  0
    2.8496   -1.1146   -0.2857 H   0  0  0  0  0  0  0  0  0  0  0  0
    2.1654   -0.3633    1.2514 H   0  0  0  0  0  0  0  0  0  0  0  0
   -1.0212   -1.6297    0.7491 H   0  0  0  0  0  0  0  0  0  0  0  0
    0.0942   -0.8590    1.8939 H   0  0  0  0  0  0  0  0  0  0  0  0
   -0.5273    1.1978    1.0991 H   0  0  0  0  0  0  0  0  0  0  0  0
   -2.6636    0.1705    0.7679 H   0  0  0  0  0  0  0  0  0  0  0  0
   -2.3733    1.4072   -0.4714 H   0  0  0  0  0  0  0  0  0  0  0  0
   -2.5884   -1.3573   -0.6987 H   0  0  0  0  0  0  0  0  0  0  0  0
  1  2  2  0
  2  3  1  0
  3  4  1  0
  4  5  1  0
  5  6  1  0
  6  7  1  0
  7  8  1  0
  8  9  1  0
  7  2  1  0
  3 10  1  0
  3 11  1  0
  4 12  1  0
  4 13  1  0
  6 14  1  0
  6 15  1  0
  7 16  1  0
  8 17  1  0
  8 18  1  0
  9 19  1  0
M  END
