
     RDKit          3D

 17 18  0  0  0  0  0  0  0  0999 V2000
    1.1171   -2.6570    0.1266 O   0  0  0  0  0  0  0  0  0  0  0  0
    0.7474   -1.4654    0.1325 C   0  0  0  0  0  0  0  0  0  0  0  0
    1.6695   -0.3377   -0.0508 C   0  0  0  0  0  0  0  0  0  0  0  0
    1.2392    0.9132   -0.0926 C   0  0  0  0  0  0  0  0  0  0  0  0
   -0.2305    1.1157   -0.0119 C   0  0  0  0  0  0  0  0  0  0  0  0
   -0.9123    0.4792   -1.2023 C   0  0  0  0  0  0  0  0  0  0  0  0
   -1.2760   -0.7904   -0.8636 O   0  0  0  0  0  0  0  0  0  0  0  0
   -0.6869   -1.1436    0.3324 C   0  0  0  0  0  0  0  0  0  0  0  0
   -0.7139    0.1805    1.1056 C   0  0  0  0  0  0  0  0  0  0  0  0
    2.7226   -0.5270   -0.1545 H   0  0  0  0  0  0  0  0  0  0  0  0
    1.8676    1.7850   -0.1796 H   0  0  0  0  0  0  0  0  0  0  0  0
   -0.5265    2.1495    0.1641 H   0  0  0  0  0  0  0  0  0  0  0  0
   -1.8376    1.0862   -1.4066 H   0  0  0  0  0  0  0  0  0  0  0  0
   -0.2915    0.5360   -2.1251 H   0  0  0  0  0  0  0  0  0  0  0  0
   -1.2357   -1.9141    0.8738 H   0  0  0  0  0  0  0  0  0  0  0  0
   -1.7145    0.4369    1.4560 H   0  0  0  0  0  0  0  0  0  0  0  0
    0.0620    0.1530    1.8961 H   0  0  0  0  0  0  0  0  0  0  0  0
  1  2  2  0
  2  3  1  0
  3  4  2  0
  4  5  1  0
  5  6  1  0
  6  7  1  0
  7  8  1  0
  8  9  1  0
  8  2  1  0
  9  5  1  0
  3 10  1  0
  4 11  1  0
  5 12  1  0
  6 13  1  0
  6 14  1  0
  8 15  1  0
  9 16  1  0
  9 17  1  0
M  END
