
     RDKit          3D

 14 15  0  0  0  0  0  0  0  0999 V2000
   -2.3296   -1.0844    1.3755 O   0  0  0  0  0  0  0  0  0  0  0  0
   -1.4287   -0.8915    0.5594 C   0  0  0  0  0  0  0  0  0  0  0  0
   -0.2375   -1.5943    0.2789 O   0  0  0  0  0  0  0  0  0  0  0  0
    0.3039   -0.3831   -0.0953 C   0  0  0  0  0  0  0  0  0  0  0  0
    1.1927    0.3582    0.8219 C   0  0  0  0  0  0  0  0  0  0  0  0
    1.5966   -0.0828   -0.5867 C   0  0  0  0  0  0  0  0  0  0  0  0
   -1.0187    0.0531   -0.5264 C   0  0  0  0  0  0  0  0  0  0  0  0
   -1.3451    1.3717   -0.2976 O   0  0  0  0  0  0  0  0  0  0  0  0
    0.9691    1.4058    1.0095 H   0  0  0  0  0  0  0  0  0  0  0  0
    1.6176   -0.2567    1.6520 H   0  0  0  0  0  0  0  0  0  0  0  0
    1.8073    0.7346   -1.2722 H   0  0  0  0  0  0  0  0  0  0  0  0
    2.3701   -0.9005   -0.6379 H   0  0  0  0  0  0  0  0  0  0  0  0
   -1.3331   -0.3719   -1.5028 H   0  0  0  0  0  0  0  0  0  0  0  0
   -2.1645    1.6418   -0.7781 H   0  0  0  0  0  0  0  0  0  0  0  0
  1  2  2  0
  2  3  1  0
  3  4  1  0
  4  5  1  0
  5  6  1  0
  4  7  1  0
  7  8  1  0
  7  2  1  0
  6  4  1  0
  5  9  1  0
  5 10  1  0
  6 11  1  0
  6 12  1  0
  7 13  1  0
  8 14  1  0
M  END
