
     RDKit          3D

 17 18  0  0  0  0  0  0  0  0999 V2000
    0.7059    1.9638    0.8044 O   0  0  0  0  0  0  0  0  0  0  0  0
    0.7007    0.9489    0.1464 C   0  0  0  0  0  0  0  0  0  0  0  0
    1.8698    0.3590   -0.5639 C   0  0  0  0  0  0  0  0  0  0  0  0
    1.5835   -1.0963   -0.5006 C   0  0  0  0  0  0  0  0  0  0  0  0
    0.2893   -1.2713   -0.2628 C   0  0  0  0  0  0  0  0  0  0  0  0
   -0.4022    0.0243   -0.1459 C   0  0  0  0  0  0  0  0  0  0  0  0
   -1.6246    0.0962    0.6726 C   0  0  0  0  0  0  0  0  0  0  0  0
   -2.1519    1.0197   -0.2599 O   0  0  0  0  0  0  0  0  0  0  0  0
   -1.3229    0.4201   -1.2365 C   0  0  0  0  0  0  0  0  0  0  0  0
    2.8295    0.6276   -0.0933 H   0  0  0  0  0  0  0  0  0  0  0  0
    1.7986    0.6798   -1.6235 H   0  0  0  0  0  0  0  0  0  0  0  0
    2.3056   -1.9078   -0.6265 H   0  0  0  0  0  0  0  0  0  0  0  0
   -0.1721   -2.2572   -0.1711 H   0  0  0  0  0  0  0  0  0  0  0  0
   -1.4703    0.4905    1.6757 H   0  0  0  0  0  0  0  0  0  0  0  0
   -2.2030   -0.8706    0.6131 H   0  0  0  0  0  0  0  0  0  0  0  0
   -1.8838   -0.3737   -1.7411 H   0  0  0  0  0  0  0  0  0  0  0  0
   -0.8519    1.1471   -1.9255 H   0  0  0  0  0  0  0  0  0  0  0  0
  1  2  2  0
  2  3  1  0
  3  4  1  0
  4  5  2  0
  5  6  1  0
  6  7  1  0
  7  8  1  0
  8  9  1  0
  6  2  1  0
  9  6  1  0
  3 10  1  0
  3 11  1  0
  4 12  1  0
  5 13  1  0
  7 14  1  0
  7 15  1  0
  9 16  1  0
  9 17  1  0
M  END
