
     RDKit          3D

 17 18  0  0  0  0  0  0  0  0999 V2000
    1.4173    2.3290   -0.6146 O   0  0  0  0  0  0  0  0  0  0  0  0
    0.9439    1.2905   -0.2075 C   0  0  0  0  0  0  0  0  0  0  0  0
    1.3480   -0.1162   -0.2278 C   0  0  0  0  0  0  0  0  0  0  0  0
    2.5146   -0.4392    0.4606 O   0  0  0  0  0  0  0  0  0  0  0  0
    0.1477   -0.4466    0.6252 C   0  0  0  0  0  0  0  0  0  0  0  0
   -0.8370   -1.2690   -0.1129 C   0  0  0  0  0  0  0  0  0  0  0  0
   -1.8198   -0.3400   -0.6393 C   0  0  0  0  0  0  0  0  0  0  0  0
   -1.5237    0.8861   -0.2836 C   0  0  0  0  0  0  0  0  0  0  0  0
   -0.3135    0.9733    0.5257 C   0  0  0  0  0  0  0  0  0  0  0  0
    1.2978   -0.5218   -1.2693 H   0  0  0  0  0  0  0  0  0  0  0  0
    3.3239   -0.3516   -0.0745 H   0  0  0  0  0  0  0  0  0  0  0  0
    0.3727   -0.7641    1.6608 H   0  0  0  0  0  0  0  0  0  0  0  0
   -1.2497   -2.0412    0.5712 H   0  0  0  0  0  0  0  0  0  0  0  0
   -0.3808   -1.8252   -0.9562 H   0  0  0  0  0  0  0  0  0  0  0  0
   -2.6922   -0.6295   -1.2524 H   0  0  0  0  0  0  0  0  0  0  0  0
   -2.1298    1.7554   -0.5694 H   0  0  0  0  0  0  0  0  0  0  0  0
   -0.4193    1.5102    1.4989 H   0  0  0  0  0  0  0  0  0  0  0  0
  1  2  2  0
  2  3  1  0
  3  4  1  0
  3  5  1  0
  5  6  1  0
  6  7  1  0
  7  8  2  0
  8  9  1  0
  9  2  1  0
  9  5  1  0
  3 10  1  0
  4 11  1  0
  5 12  1  0
  6 13  1  0
  6 14  1  0
  7 15  1  0
  8 16  1  0
  9 17  1  0
M  END
