
     RDKit          3D

 16 18  0  0  0  0  0  0  0  0999 V2000
    2.5755   -0.1563    0.9519 O   0  0  0  0  0  0  0  0  0  0  0  0
    1.5788   -0.2342    0.2814 C   0  0  0  0  0  0  0  0  0  0  0  0
    0.8341    0.7116   -0.5824 C   0  0  0  0  0  0  0  0  0  0  0  0
   -0.3542    1.2508    0.1898 C   0  0  0  0  0  0  0  0  0  0  0  0
   -1.4750    0.2962   -0.1008 C   0  0  0  0  0  0  0  0  0  0  0  0
   -0.7647   -0.9728   -0.5228 C   0  0  0  0  0  0  0  0  0  0  0  0
    0.5982   -1.2747   -0.0303 C   0  0  0  0  0  0  0  0  0  0  0  0
    0.3304   -0.4794   -1.3368 C   0  0  0  0  0  0  0  0  0  0  0  0
    1.4152    1.4473   -1.1345 H   0  0  0  0  0  0  0  0  0  0  0  0
   -0.6285    2.2836   -0.1472 H   0  0  0  0  0  0  0  0  0  0  0  0
   -0.1271    1.2758    1.2899 H   0  0  0  0  0  0  0  0  0  0  0  0
   -2.0939    0.6834   -0.9479 H   0  0  0  0  0  0  0  0  0  0  0  0
   -2.1577    0.1365    0.7508 H   0  0  0  0  0  0  0  0  0  0  0  0
   -1.3873   -1.7996   -0.8564 H   0  0  0  0  0  0  0  0  0  0  0  0
    0.9334   -2.3257   -0.1499 H   0  0  0  0  0  0  0  0  0  0  0  0
    0.7229   -0.8425   -2.2541 H   0  0  0  0  0  0  0  0  0  0  0  0
  1  2  2  0
  2  3  1  0
  3  4  1  0
  4  5  1  0
  5  6  1  0
  6  7  1  0
  7  8  1  0
  7  2  1  0
  8  3  1  0
  8  6  1  0
  3  9  1  0
  4 10  1  0
  4 11  1  0
  5 12  1  0
  5 13  1  0
  6 14  1  0
  7 15  1  0
  8 16  1  0
M  END
