
     RDKit          3D

 11 12  0  0  0  0  0  0  0  0999 V2000
   -0.0897    2.1558    0.4930 O   0  0  0  0  0  0  0  0  0  0  0  0
   -0.2559    1.0556    0.0467 C   0  0  0  0  0  0  0  0  0  0  0  0
    0.6204   -0.0827   -0.4572 C   0  0  0  0  0  0  0  0  0  0  0  0
    1.8982   -0.0097    0.0412 O   0  0  0  0  0  0  0  0  0  0  0  0
   -0.3203   -0.8551    0.4472 C   0  0  0  0  0  0  0  0  0  0  0  0
   -1.6147   -1.0646    0.2802 O   0  0  0  0  0  0  0  0  0  0  0  0
   -1.3161    0.0763   -0.3139 C   0  0  0  0  0  0  0  0  0  0  0  0
    0.5099   -0.2684   -1.5285 H   0  0  0  0  0  0  0  0  0  0  0  0
    1.9762   -0.4543    0.9240 H   0  0  0  0  0  0  0  0  0  0  0  0
   -0.1074   -0.5135    1.5117 H   0  0  0  0  0  0  0  0  0  0  0  0
   -1.3005   -0.0393   -1.4444 H   0  0  0  0  0  0  0  0  0  0  0  0
  1  2  2  0
  2  3  1  0
  3  4  1  0
  3  5  1  0
  5  6  1  0
  6  7  1  0
  7  2  1  0
  7  5  1  0
  3  8  1  0
  4  9  1  0
  5 10  1  0
  7 11  1  0
M  END
