
     RDKit          3D

 17 17  0  0  0  0  0  0  0  0999 V2000
   -2.8244    1.1038   -0.6523 O   0  0  0  0  0  0  0  0  0  0  0  0
   -1.8418    0.5872   -0.1878 C   0  0  0  0  0  0  0  0  0  0  0  0
   -1.7322   -0.7968    0.3121 C   0  0  0  0  0  0  0  0  0  0  0  0
   -0.3203   -1.1303   -0.0252 C   0  0  0  0  0  0  0  0  0  0  0  0
    0.1554   -2.1432   -0.4849 O   0  0  0  0  0  0  0  0  0  0  0  0
    0.4422    0.1010    0.3350 C   0  0  0  0  0  0  0  0  0  0  0  0
    1.7099    0.1644   -0.4922 C   0  0  0  0  0  0  0  0  0  0  0  0
    2.4842   -0.9644   -0.2263 O   0  0  0  0  0  0  0  0  0  0  0  0
   -0.5147    1.2132   -0.0077 C   0  0  0  0  0  0  0  0  0  0  0  0
   -2.4549   -1.4860   -0.1529 H   0  0  0  0  0  0  0  0  0  0  0  0
   -1.7897   -0.8255    1.4337 H   0  0  0  0  0  0  0  0  0  0  0  0
    0.6492    0.0452    1.4125 H   0  0  0  0  0  0  0  0  0  0  0  0
    1.4788    0.1325   -1.5767 H   0  0  0  0  0  0  0  0  0  0  0  0
    2.2529    1.1017   -0.2977 H   0  0  0  0  0  0  0  0  0  0  0  0
    3.0945   -0.8062    0.5317 H   0  0  0  0  0  0  0  0  0  0  0  0
   -0.1942    1.8437   -0.8354 H   0  0  0  0  0  0  0  0  0  0  0  0
   -0.5948    1.8596    0.9140 H   0  0  0  0  0  0  0  0  0  0  0  0
  1  2  2  0
  2  3  1  0
  3  4  1  0
  4  5  2  0
  4  6  1  0
  6  7  1  0
  7  8  1  0
  6  9  1  0
  9  2  1  0
  3 10  1  0
  3 11  1  0
  6 12  1  0
  7 13  1  0
  7 14  1  0
  8 15  1  0
  9 16  1  0
  9 17  1  0
M  END
