
     RDKit          3D

 15 16  0  0  0  0  0  0  0  0999 V2000
   -1.3346   -2.1628   -0.5474 O   0  0  0  0  0  0  0  0  0  0  0  0
   -0.7763   -1.1649   -0.1619 C   0  0  0  0  0  0  0  0  0  0  0  0
    0.6975   -1.0572   -0.2185 C   0  0  0  0  0  0  0  0  0  0  0  0
    1.2772    0.2233    0.2355 C   0  0  0  0  0  0  0  0  0  0  0  0
    0.2959    1.3706    0.2759 C   0  0  0  0  0  0  0  0  0  0  0  0
    0.5897    2.3718    0.8997 O   0  0  0  0  0  0  0  0  0  0  0  0
   -0.9281    1.1303   -0.4640 C   0  0  0  0  0  0  0  0  0  0  0  0
   -2.1854    0.9440   -0.1625 O   0  0  0  0  0  0  0  0  0  0  0  0
   -1.5127   -0.0483    0.3639 C   0  0  0  0  0  0  0  0  0  0  0  0
    1.0147   -1.3440   -1.2511 H   0  0  0  0  0  0  0  0  0  0  0  0
    1.1123   -1.8756    0.4368 H   0  0  0  0  0  0  0  0  0  0  0  0
    1.8318    0.1357    1.1925 H   0  0  0  0  0  0  0  0  0  0  0  0
    2.0465    0.5464   -0.5268 H   0  0  0  0  0  0  0  0  0  0  0  0
   -0.7026    0.9110   -1.5517 H   0  0  0  0  0  0  0  0  0  0  0  0
   -1.4257    0.0198    1.4796 H   0  0  0  0  0  0  0  0  0  0  0  0
  1  2  2  0
  2  3  1  0
  3  4  1  0
  4  5  1  0
  5  6  2  0
  5  7  1  0
  7  8  1  0
  8  9  1  0
  9  2  1  0
  9  7  1  0
  3 10  1  0
  3 11  1  0
  4 12  1  0
  4 13  1  0
  7 14  1  0
  9 15  1  0
M  END
