
     RDKit          3D

 16 17  0  0  0  0  0  0  0  0999 V2000
   -0.1064    1.7387    1.4037 O   0  0  0  0  0  0  0  0  0  0  0  0
    0.2680    0.8361    0.7013 C   0  0  0  0  0  0  0  0  0  0  0  0
    1.6606    0.3507    0.6287 C   0  0  0  0  0  0  0  0  0  0  0  0
    1.6038   -0.6844   -0.4546 C   0  0  0  0  0  0  0  0  0  0  0  0
    0.3699   -0.6453   -1.0391 O   0  0  0  0  0  0  0  0  0  0  0  0
   -0.5073    0.0178   -0.2210 C   0  0  0  0  0  0  0  0  0  0  0  0
   -1.7938    0.4394   -0.8058 C   0  0  0  0  0  0  0  0  0  0  0  0
   -1.7714   -0.5878    0.2524 C   0  0  0  0  0  0  0  0  0  0  0  0
    2.3923    1.1602    0.4236 H   0  0  0  0  0  0  0  0  0  0  0  0
    1.9712   -0.0873    1.6175 H   0  0  0  0  0  0  0  0  0  0  0  0
    1.8030   -1.7142   -0.0551 H   0  0  0  0  0  0  0  0  0  0  0  0
    2.3630   -0.4844   -1.2566 H   0  0  0  0  0  0  0  0  0  0  0  0
   -2.0364    0.0692   -1.8408 H   0  0  0  0  0  0  0  0  0  0  0  0
   -2.1404    1.4639   -0.6257 H   0  0  0  0  0  0  0  0  0  0  0  0
   -1.9475   -1.6458    0.0126 H   0  0  0  0  0  0  0  0  0  0  0  0
   -2.1284   -0.2269    1.2586 H   0  0  0  0  0  0  0  0  0  0  0  0
  1  2  2  0
  2  3  1  0
  3  4  1  0
  4  5  1  0
  5  6  1  0
  6  7  1  0
  7  8  1  0
  6  2  1  0
  8  6  1  0
  3  9  1  0
  3 10  1  0
  4 11  1  0
  4 12  1  0
  7 13  1  0
  7 14  1  0
  8 15  1  0
  8 16  1  0
M  END
