
     RDKit          3D

 17 18  0  0  0  0  0  0  0  0999 V2000
   -0.5882    2.1714    1.7127 O   0  0  0  0  0  0  0  0  0  0  0  0
   -0.5077    1.3476    0.7869 C   0  0  0  0  0  0  0  0  0  0  0  0
   -1.2932    1.3104   -0.3979 O   0  0  0  0  0  0  0  0  0  0  0  0
   -1.4315   -0.0725   -0.7757 C   0  0  0  0  0  0  0  0  0  0  0  0
   -0.9222   -0.7456    0.4216 C   0  0  0  0  0  0  0  0  0  0  0  0
    0.3222   -1.1688    0.8909 C   0  0  0  0  0  0  0  0  0  0  0  0
    0.3526    0.1859    0.5634 C   0  0  0  0  0  0  0  0  0  0  0  0
    1.1244    0.4901   -0.7360 C   0  0  0  0  0  0  0  0  0  0  0  0
    1.9791   -0.5233   -1.0806 O   0  0  0  0  0  0  0  0  0  0  0  0
   -1.0293   -0.3281   -1.7384 H   0  0  0  0  0  0  0  0  0  0  0  0
   -2.5522   -0.1962   -0.8903 H   0  0  0  0  0  0  0  0  0  0  0  0
   -1.6919   -0.6186    1.2552 H   0  0  0  0  0  0  0  0  0  0  0  0
    0.4766   -1.4616    1.9704 H   0  0  0  0  0  0  0  0  0  0  0  0
    0.8623   -1.9421    0.2668 H   0  0  0  0  0  0  0  0  0  0  0  0
    0.5252    0.9284   -1.5179 H   0  0  0  0  0  0  0  0  0  0  0  0
    1.7967    1.3404   -0.3950 H   0  0  0  0  0  0  0  0  0  0  0  0
    2.5773   -0.7172   -0.3360 H   0  0  0  0  0  0  0  0  0  0  0  0
  1  2  2  0
  2  3  1  0
  3  4  1  0
  4  5  1  0
  5  6  1  0
  6  7  1  0
  7  8  1  0
  8  9  1  0
  7  2  1  0
  7  5  1  0
  4 10  1  0
  4 11  1  0
  5 12  1  0
  6 13  1  0
  6 14  1  0
  8 15  1  0
  8 16  1  0
  9 17  1  0
M  END
