
     RDKit          3D

 19 20  0  0  0  0  0  0  0  0999 V2000
    3.3802   -1.2914   -0.6485 O   0  0  0  0  0  0  0  0  0  0  0  0
    2.3154   -0.6185   -0.5086 C   0  0  0  0  0  0  0  0  0  0  0  0
    1.8485    0.6752    0.0038 C   0  0  0  0  0  0  0  0  0  0  0  0
    0.5080    0.0721   -0.0851 C   0  0  0  0  0  0  0  0  0  0  0  0
   -0.5534    0.8397   -0.8337 C   0  0  0  0  0  0  0  0  0  0  0  0
   -1.7357   -0.1176   -0.6579 C   0  0  0  0  0  0  0  0  0  0  0  0
   -1.6090   -0.4650    0.8071 C   0  0  0  0  0  0  0  0  0  0  0  0
   -0.1461   -0.4275    1.1487 C   0  0  0  0  0  0  0  0  0  0  0  0
    1.0041   -0.9784   -0.8732 O   0  0  0  0  0  0  0  0  0  0  0  0
    2.1681    0.9578    1.0191 H   0  0  0  0  0  0  0  0  0  0  0  0
    1.9659    1.5268   -0.7079 H   0  0  0  0  0  0  0  0  0  0  0  0
   -0.7690    1.8296   -0.3853 H   0  0  0  0  0  0  0  0  0  0  0  0
   -0.2354    0.9172   -1.8816 H   0  0  0  0  0  0  0  0  0  0  0  0
   -1.5401   -0.9725   -1.3272 H   0  0  0  0  0  0  0  0  0  0  0  0
   -2.6468    0.4460   -0.8895 H   0  0  0  0  0  0  0  0  0  0  0  0
   -2.0987    0.3599    1.3716 H   0  0  0  0  0  0  0  0  0  0  0  0
   -2.0971   -1.4180    1.0249 H   0  0  0  0  0  0  0  0  0  0  0  0
    0.1717   -1.4872    1.3590 H   0  0  0  0  0  0  0  0  0  0  0  0
    0.0693    0.1517    2.0642 H   0  0  0  0  0  0  0  0  0  0  0  0
  1  2  2  0
  2  3  1  0
  3  4  1  0
  4  5  1  0
  5  6  1  0
  6  7  1  0
  7  8  1  0
  4  9  1  0
  9  2  1  0
  8  4  1  0
  3 10  1  0
  3 11  1  0
  5 12  1  0
  5 13  1  0
  6 14  1  0
  6 15  1  0
  7 16  1  0
  7 17  1  0
  8 18  1  0
  8 19  1  0
M  END
