
     RDKit          3D

 19 20  0  0  0  0  0  0  0  0999 V2000
   -2.2981   -1.8966    0.4142 O   0  0  0  0  0  0  0  0  0  0  0  0
   -1.4850   -0.9780    0.2428 C   0  0  0  0  0  0  0  0  0  0  0  0
   -1.8189    0.4192    0.6350 C   0  0  0  0  0  0  0  0  0  0  0  0
   -1.2619    1.3459   -0.3860 C   0  0  0  0  0  0  0  0  0  0  0  0
   -0.0367    1.1018   -0.8279 C   0  0  0  0  0  0  0  0  0  0  0  0
    0.6935   -0.0598   -0.2882 C   0  0  0  0  0  0  0  0  0  0  0  0
    2.1489   -0.2174   -0.4147 C   0  0  0  0  0  0  0  0  0  0  0  0
    1.5587    0.1869    0.8839 C   0  0  0  0  0  0  0  0  0  0  0  0
   -0.1839   -1.3046   -0.3571 C   0  0  0  0  0  0  0  0  0  0  0  0
   -2.9270    0.5596    0.6843 H   0  0  0  0  0  0  0  0  0  0  0  0
   -1.4294    0.6591    1.6536 H   0  0  0  0  0  0  0  0  0  0  0  0
   -1.7939    2.1960   -0.7821 H   0  0  0  0  0  0  0  0  0  0  0  0
    0.4355    1.7335   -1.5717 H   0  0  0  0  0  0  0  0  0  0  0  0
    2.6937    0.5324   -1.0066 H   0  0  0  0  0  0  0  0  0  0  0  0
    2.5153   -1.2684   -0.4862 H   0  0  0  0  0  0  0  0  0  0  0  0
    1.4509   -0.5278    1.7255 H   0  0  0  0  0  0  0  0  0  0  0  0
    1.7021    1.2300    1.2289 H   0  0  0  0  0  0  0  0  0  0  0  0
    0.3037   -2.1733    0.1105 H   0  0  0  0  0  0  0  0  0  0  0  0
   -0.2675   -1.5386   -1.4583 H   0  0  0  0  0  0  0  0  0  0  0  0
  1  2  2  0
  2  3  1  0
  3  4  1  0
  4  5  2  0
  5  6  1  0
  6  7  1  0
  7  8  1  0
  6  9  1  0
  9  2  1  0
  8  6  1  0
  3 10  1  0
  3 11  1  0
  4 12  1  0
  5 13  1  0
  7 14  1  0
  7 15  1  0
  8 16  1  0
  8 17  1  0
  9 18  1  0
  9 19  1  0
M  END
