
     RDKit          3D

 17 18  0  0  0  0  0  0  0  0999 V2000
    0.1705    2.2534    0.5407 O   0  0  0  0  0  0  0  0  0  0  0  0
   -0.2583    1.1512    0.2171 C   0  0  0  0  0  0  0  0  0  0  0  0
   -1.7125    0.8029    0.1618 C   0  0  0  0  0  0  0  0  0  0  0  0
   -1.7501   -0.6938    0.0383 C   0  0  0  0  0  0  0  0  0  0  0  0
   -0.3352   -1.1193   -0.2916 C   0  0  0  0  0  0  0  0  0  0  0  0
    0.0812   -0.4820   -1.5420 O   0  0  0  0  0  0  0  0  0  0  0  0
    0.4928   -0.0484   -0.1783 C   0  0  0  0  0  0  0  0  0  0  0  0
    1.9888    0.0026   -0.1356 C   0  0  0  0  0  0  0  0  0  0  0  0
    2.4456    0.3967    1.0976 O   0  0  0  0  0  0  0  0  0  0  0  0
   -2.2120    1.3207   -0.6929 H   0  0  0  0  0  0  0  0  0  0  0  0
   -2.1840    1.1091    1.1144 H   0  0  0  0  0  0  0  0  0  0  0  0
   -2.3717   -0.9210   -0.8749 H   0  0  0  0  0  0  0  0  0  0  0  0
   -2.1473   -1.2150    0.9090 H   0  0  0  0  0  0  0  0  0  0  0  0
   -0.1646   -2.1919   -0.3631 H   0  0  0  0  0  0  0  0  0  0  0  0
    2.3153    0.7036   -0.9529 H   0  0  0  0  0  0  0  0  0  0  0  0
    2.3794   -1.0083   -0.4351 H   0  0  0  0  0  0  0  0  0  0  0  0
    3.2623   -0.0605    1.3876 H   0  0  0  0  0  0  0  0  0  0  0  0
  1  2  2  0
  2  3  1  0
  3  4  1  0
  4  5  1  0
  5  6  1  0
  6  7  1  0
  7  8  1  0
  8  9  1  0
  7  2  1  0
  7  5  1  0
  3 10  1  0
  3 11  1  0
  4 12  1  0
  4 13  1  0
  5 14  1  0
  8 15  1  0
  8 16  1  0
  9 17  1  0
M  END
