
     RDKit          3D

 14 14  0  0  0  0  0  0  0  0999 V2000
   -1.1344    2.2341   -0.6037 O   0  0  0  0  0  0  0  0  0  0  0  0
   -0.5289    1.1633   -0.3781 C   0  0  0  0  0  0  0  0  0  0  0  0
   -1.1137   -0.1777   -0.6384 C   0  0  0  0  0  0  0  0  0  0  0  0
   -0.6674   -1.0476    0.5175 C   0  0  0  0  0  0  0  0  0  0  0  0
    0.6740   -1.1759    0.6713 O   0  0  0  0  0  0  0  0  0  0  0  0
    1.4787   -0.2097    0.1332 C   0  0  0  0  0  0  0  0  0  0  0  0
    0.8248    1.1249    0.1685 C   0  0  0  0  0  0  0  0  0  0  0  0
    1.3935    2.1461    0.6340 O   0  0  0  0  0  0  0  0  0  0  0  0
   -0.6694   -0.6247   -1.5542 H   0  0  0  0  0  0  0  0  0  0  0  0
   -2.2065   -0.1676   -0.6765 H   0  0  0  0  0  0  0  0  0  0  0  0
   -1.1222   -2.0630    0.4780 H   0  0  0  0  0  0  0  0  0  0  0  0
   -1.1193   -0.5734    1.4389 H   0  0  0  0  0  0  0  0  0  0  0  0
    2.4245   -0.1584    0.7329 H   0  0  0  0  0  0  0  0  0  0  0  0
    1.7663   -0.4703   -0.9234 H   0  0  0  0  0  0  0  0  0  0  0  0
  1  2  2  0
  2  3  1  0
  3  4  1  0
  4  5  1  0
  5  6  1  0
  6  7  1  0
  7  8  2  0
  7  2  1  0
  3  9  1  0
  3 10  1  0
  4 11  1  0
  4 12  1  0
  6 13  1  0
  6 14  1  0
M  END
