
     RDKit          3D

 14 15  0  0  0  0  0  0  0  0999 V2000
    2.8669   -1.0605   -0.8492 O   0  0  0  0  0  0  0  0  0  0  0  0
    1.7762   -0.6768   -0.3317 C   0  0  0  0  0  0  0  0  0  0  0  0
    1.6161    0.5710    0.2651 O   0  0  0  0  0  0  0  0  0  0  0  0
    0.3644    1.2868    0.2682 C   0  0  0  0  0  0  0  0  0  0  0  0
   -0.6005    0.4145   -0.4133 C   0  0  0  0  0  0  0  0  0  0  0  0
   -1.6689   -0.3980    0.0171 C   0  0  0  0  0  0  0  0  0  0  0  0
   -0.4185   -0.9341    0.3736 C   0  0  0  0  0  0  0  0  0  0  0  0
    0.6278   -1.5113   -0.3282 O   0  0  0  0  0  0  0  0  0  0  0  0
    0.0248    1.4957    1.2966 H   0  0  0  0  0  0  0  0  0  0  0  0
    0.5518    2.2217   -0.3183 H   0  0  0  0  0  0  0  0  0  0  0  0
   -0.3594    0.3783   -1.5209 H   0  0  0  0  0  0  0  0  0  0  0  0
   -2.3526   -0.0506    0.8451 H   0  0  0  0  0  0  0  0  0  0  0  0
   -2.3129   -0.8956   -0.7653 H   0  0  0  0  0  0  0  0  0  0  0  0
   -0.1153   -0.8410    1.4613 H   0  0  0  0  0  0  0  0  0  0  0  0
  1  2  2  0
  2  3  1  0
  3  4  1  0
  4  5  1  0
  5  6  1  0
  6  7  1  0
  7  8  1  0
  8  2  1  0
  7  5  1  0
  4  9  1  0
  4 10  1  0
  5 11  1  0
  6 12  1  0
  6 13  1  0
  7 14  1  0
M  END
