
     RDKit          3D

 17 19  0  0  0  0  0  0  0  0999 V2000
   -1.0083    0.0395    2.4868 O   0  0  0  0  0  0  0  0  0  0  0  0
   -0.6226    0.0245    1.3460 C   0  0  0  0  0  0  0  0  0  0  0  0
    0.1496   -1.0011    0.5957 C   0  0  0  0  0  0  0  0  0  0  0  0
    1.5486   -0.4928    0.2491 C   0  0  0  0  0  0  0  0  0  0  0  0
    1.4601    0.8718    0.1982 O   0  0  0  0  0  0  0  0  0  0  0  0
    0.3614    1.3783   -0.3920 C   0  0  0  0  0  0  0  0  0  0  0  0
   -0.6153    0.5166   -1.0117 C   0  0  0  0  0  0  0  0  0  0  0  0
   -0.5927   -0.9296   -0.7449 C   0  0  0  0  0  0  0  0  0  0  0  0
   -0.8599    1.1233    0.3691 C   0  0  0  0  0  0  0  0  0  0  0  0
    0.1428   -1.9885    1.0344 H   0  0  0  0  0  0  0  0  0  0  0  0
    2.3058   -0.8880    0.9165 H   0  0  0  0  0  0  0  0  0  0  0  0
    1.8319   -0.8395   -0.7897 H   0  0  0  0  0  0  0  0  0  0  0  0
    0.4736    2.4010   -0.8162 H   0  0  0  0  0  0  0  0  0  0  0  0
   -1.2142    0.9100   -1.8678 H   0  0  0  0  0  0  0  0  0  0  0  0
   -0.0303   -1.5458   -1.4774 H   0  0  0  0  0  0  0  0  0  0  0  0
   -1.6124   -1.3547   -0.5393 H   0  0  0  0  0  0  0  0  0  0  0  0
   -1.7181    1.7750    0.4433 H   0  0  0  0  0  0  0  0  0  0  0  0
  1  2  2  0
  2  3  1  0
  3  4  1  0
  4  5  1  0
  5  6  1  0
  6  7  1  0
  7  8  1  0
  7  9  1  0
  9  2  1  0
  8  3  1  0
  9  6  1  0
  3 10  1  0
  4 11  1  0
  4 12  1  0
  6 13  1  0
  7 14  1  0
  8 15  1  0
  8 16  1  0
  9 17  1  0
M  END
