
     RDKit          3D

 17 19  0  0  0  0  0  0  0  0999 V2000
    0.8057    2.6602    1.1039 O   0  0  0  0  0  0  0  0  0  0  0  0
    0.4278    1.7143    0.4441 C   0  0  0  0  0  0  0  0  0  0  0  0
    1.1719    0.6512   -0.2381 C   0  0  0  0  0  0  0  0  0  0  0  0
    1.1691   -0.6161    0.5895 C   0  0  0  0  0  0  0  0  0  0  0  0
   -0.0298   -1.1197   -0.1998 C   0  0  0  0  0  0  0  0  0  0  0  0
   -1.3501   -1.0316    0.5306 C   0  0  0  0  0  0  0  0  0  0  0  0
   -1.4774    0.2940    0.8655 O   0  0  0  0  0  0  0  0  0  0  0  0
   -0.8242    1.0755   -0.0520 C   0  0  0  0  0  0  0  0  0  0  0  0
   -0.0332    0.1567   -0.9397 C   0  0  0  0  0  0  0  0  0  0  0  0
    2.0651    0.8918   -0.7865 H   0  0  0  0  0  0  0  0  0  0  0  0
    2.0785   -1.2079    0.3145 H   0  0  0  0  0  0  0  0  0  0  0  0
    1.0057   -0.4905    1.6666 H   0  0  0  0  0  0  0  0  0  0  0  0
    0.1520   -2.0499   -0.7598 H   0  0  0  0  0  0  0  0  0  0  0  0
   -2.1387   -1.2561   -0.2306 H   0  0  0  0  0  0  0  0  0  0  0  0
   -1.4056   -1.6790    1.4143 H   0  0  0  0  0  0  0  0  0  0  0  0
   -1.4795    1.7981   -0.5627 H   0  0  0  0  0  0  0  0  0  0  0  0
   -0.1373    0.2090   -1.9920 H   0  0  0  0  0  0  0  0  0  0  0  0
  1  2  2  0
  2  3  1  0
  3  4  1  0
  4  5  1  0
  5  6  1  0
  6  7  1  0
  7  8  1  0
  8  9  1  0
  8  2  1  0
  9  3  1  0
  9  5  1  0
  3 10  1  0
  4 11  1  0
  4 12  1  0
  5 13  1  0
  6 14  1  0
  6 15  1  0
  8 16  1  0
  9 17  1  0
M  END
