
     RDKit          3D

 17 18  0  0  0  0  0  0  0  0999 V2000
    1.0833    2.2782   -1.0287 O   0  0  0  0  0  0  0  0  0  0  0  0
    0.8945    1.1961   -0.5326 C   0  0  0  0  0  0  0  0  0  0  0  0
    1.5013   -0.1435   -0.7502 C   0  0  0  0  0  0  0  0  0  0  0  0
    2.7243   -0.3143   -0.1242 O   0  0  0  0  0  0  0  0  0  0  0  0
    0.3926   -0.7976    0.0226 C   0  0  0  0  0  0  0  0  0  0  0  0
   -0.6804   -1.2467   -0.7389 O   0  0  0  0  0  0  0  0  0  0  0  0
   -1.7545   -0.8593    0.0865 C   0  0  0  0  0  0  0  0  0  0  0  0
   -1.4632    0.6434    0.1916 C   0  0  0  0  0  0  0  0  0  0  0  0
    0.0279    0.6029    0.4945 C   0  0  0  0  0  0  0  0  0  0  0  0
    1.5751   -0.4129   -1.8093 H   0  0  0  0  0  0  0  0  0  0  0  0
    2.6686   -0.1639    0.8614 H   0  0  0  0  0  0  0  0  0  0  0  0
    0.6843   -1.4612    0.8435 H   0  0  0  0  0  0  0  0  0  0  0  0
   -2.7253   -1.0690   -0.3463 H   0  0  0  0  0  0  0  0  0  0  0  0
   -1.5548   -1.2879    1.0717 H   0  0  0  0  0  0  0  0  0  0  0  0
   -1.6108    1.1459   -0.7950 H   0  0  0  0  0  0  0  0  0  0  0  0
   -2.0527    1.0739    1.0023 H   0  0  0  0  0  0  0  0  0  0  0  0
    0.2898    0.8161    1.5511 H   0  0  0  0  0  0  0  0  0  0  0  0
  1  2  2  0
  2  3  1  0
  3  4  1  0
  3  5  1  0
  5  6  1  0
  6  7  1  0
  7  8  1  0
  8  9  1  0
  9  2  1  0
  9  5  1  0
  3 10  1  0
  4 11  1  0
  5 12  1  0
  7 13  1  0
  7 14  1  0
  8 15  1  0
  8 16  1  0
  9 17  1  0
M  END
