
     RDKit          3D

 17 18  0  0  0  0  0  0  0  0999 V2000
    1.0564    0.9648    2.1078 O   0  0  0  0  0  0  0  0  0  0  0  0
    0.9762    0.5989    0.9665 C   0  0  0  0  0  0  0  0  0  0  0  0
    1.9045    0.6881   -0.2219 C   0  0  0  0  0  0  0  0  0  0  0  0
    1.2590   -0.6340   -0.6689 C   0  0  0  0  0  0  0  0  0  0  0  0
    0.0572   -0.0981    0.0292 C   0  0  0  0  0  0  0  0  0  0  0  0
   -0.9229   -1.0314    0.6034 C   0  0  0  0  0  0  0  0  0  0  0  0
   -2.0261   -0.1806    0.8489 O   0  0  0  0  0  0  0  0  0  0  0  0
   -2.0185    0.6138   -0.2934 C   0  0  0  0  0  0  0  0  0  0  0  0
   -0.7127    0.8221   -0.6591 O   0  0  0  0  0  0  0  0  0  0  0  0
    1.5464    1.5105   -0.8684 H   0  0  0  0  0  0  0  0  0  0  0  0
    2.9598    0.6356    0.0048 H   0  0  0  0  0  0  0  0  0  0  0  0
    1.1595   -0.7370   -1.7621 H   0  0  0  0  0  0  0  0  0  0  0  0
    1.6680   -1.5125   -0.1327 H   0  0  0  0  0  0  0  0  0  0  0  0
   -1.2737   -1.7273   -0.1926 H   0  0  0  0  0  0  0  0  0  0  0  0
   -0.6271   -1.5923    1.4852 H   0  0  0  0  0  0  0  0  0  0  0  0
   -2.4816    1.6099   -0.1172 H   0  0  0  0  0  0  0  0  0  0  0  0
   -2.5243    0.0695   -1.1296 H   0  0  0  0  0  0  0  0  0  0  0  0
  1  2  2  0
  2  3  1  0
  3  4  1  0
  4  5  1  0
  5  6  1  0
  6  7  1  0
  7  8  1  0
  8  9  1  0
  5  2  1  0
  9  5  1  0
  3 10  1  0
  3 11  1  0
  4 12  1  0
  4 13  1  0
  6 14  1  0
  6 15  1  0
  8 16  1  0
  8 17  1  0
M  END
