
     RDKit          3D

 15 16  0  0  0  0  0  0  0  0999 V2000
   -0.4718    2.4583    0.6410 O   0  0  0  0  0  0  0  0  0  0  0  0
   -0.8183    1.2889    0.4236 C   0  0  0  0  0  0  0  0  0  0  0  0
   -2.0174    0.9176   -0.1387 O   0  0  0  0  0  0  0  0  0  0  0  0
   -2.0622   -0.4901   -0.2209 C   0  0  0  0  0  0  0  0  0  0  0  0
   -1.0473   -0.9568    0.6299 O   0  0  0  0  0  0  0  0  0  0  0  0
   -0.0806    0.0445    0.6935 C   0  0  0  0  0  0  0  0  0  0  0  0
    0.9044   -0.1922   -0.3997 C   0  0  0  0  0  0  0  0  0  0  0  0
    2.2473   -0.5937   -0.1996 C   0  0  0  0  0  0  0  0  0  0  0  0
    1.9511    0.8740   -0.3472 O   0  0  0  0  0  0  0  0  0  0  0  0
   -3.0668   -0.8220    0.1190 H   0  0  0  0  0  0  0  0  0  0  0  0
   -1.9125   -0.8777   -1.2350 H   0  0  0  0  0  0  0  0  0  0  0  0
    0.3557    0.0851    1.7008 H   0  0  0  0  0  0  0  0  0  0  0  0
    0.4724   -0.1559   -1.4194 H   0  0  0  0  0  0  0  0  0  0  0  0
    2.6653   -0.7226    0.8221 H   0  0  0  0  0  0  0  0  0  0  0  0
    2.8808   -0.8575   -1.0696 H   0  0  0  0  0  0  0  0  0  0  0  0
  1  2  2  0
  2  3  1  0
  3  4  1  0
  4  5  1  0
  5  6  1  0
  6  7  1  0
  7  8  1  0
  8  9  1  0
  6  2  1  0
  9  7  1  0
  4 10  1  0
  4 11  1  0
  6 12  1  0
  7 13  1  0
  8 14  1  0
  8 15  1  0
M  END
