
     RDKit          3D

 19 20  0  0  0  0  0  0  0  0999 V2000
   -0.9338    0.9978   -2.2000 O   0  0  0  0  0  0  0  0  0  0  0  0
   -1.1353    0.5103   -1.1090 C   0  0  0  0  0  0  0  0  0  0  0  0
   -2.2379    0.5827   -0.1161 C   0  0  0  0  0  0  0  0  0  0  0  0
   -1.6415   -0.6394    0.5923 C   0  0  0  0  0  0  0  0  0  0  0  0
   -0.4256   -0.3789   -0.2172 C   0  0  0  0  0  0  0  0  0  0  0  0
    0.5964   -1.3319   -0.5554 C   0  0  0  0  0  0  0  0  0  0  0  0
    0.9012   -0.1254    0.3498 C   0  0  0  0  0  0  0  0  0  0  0  0
    1.8282    0.9257   -0.1570 C   0  0  0  0  0  0  0  0  0  0  0  0
    2.9921    0.9072    0.5893 O   0  0  0  0  0  0  0  0  0  0  0  0
   -3.2369    0.3196   -0.4770 H   0  0  0  0  0  0  0  0  0  0  0  0
   -2.2254    1.4912    0.5232 H   0  0  0  0  0  0  0  0  0  0  0  0
   -1.4847   -0.4742    1.6773 H   0  0  0  0  0  0  0  0  0  0  0  0
   -2.1171   -1.5937    0.3171 H   0  0  0  0  0  0  0  0  0  0  0  0
    1.0471   -1.2908   -1.5789 H   0  0  0  0  0  0  0  0  0  0  0  0
    0.6113   -2.3371   -0.0626 H   0  0  0  0  0  0  0  0  0  0  0  0
    1.0131   -0.3500    1.4474 H   0  0  0  0  0  0  0  0  0  0  0  0
    2.0132    0.8520   -1.2475 H   0  0  0  0  0  0  0  0  0  0  0  0
    1.3506    1.9190    0.0187 H   0  0  0  0  0  0  0  0  0  0  0  0
    3.0852    0.0161    1.0020 H   0  0  0  0  0  0  0  0  0  0  0  0
  1  2  2  0
  2  3  1  0
  3  4  1  0
  4  5  1  0
  5  6  1  0
  6  7  1  0
  7  8  1  0
  8  9  1  0
  5  2  1  0
  7  5  1  0
  3 10  1  0
  3 11  1  0
  4 12  1  0
  4 13  1  0
  6 14  1  0
  6 15  1  0
  7 16  1  0
  8 17  1  0
  8 18  1  0
  9 19  1  0
M  END
