
     RDKit          3D

 17 19  0  0  0  0  0  0  0  0999 V2000
   -1.9418   -0.6929    1.6513 O   0  0  0  0  0  0  0  0  0  0  0  0
   -1.3969   -0.5096    0.5922 C   0  0  0  0  0  0  0  0  0  0  0  0
   -0.5247   -1.4886   -0.1481 C   0  0  0  0  0  0  0  0  0  0  0  0
    0.6013   -0.6418   -0.6183 C   0  0  0  0  0  0  0  0  0  0  0  0
    1.6679   -0.1465    0.2981 C   0  0  0  0  0  0  0  0  0  0  0  0
    1.0151    1.2217    0.3219 C   0  0  0  0  0  0  0  0  0  0  0  0
    0.0480    0.7632   -0.7232 C   0  0  0  0  0  0  0  0  0  0  0  0
   -1.4005    0.6926   -0.3036 C   0  0  0  0  0  0  0  0  0  0  0  0
    0.4773    0.0254   -1.8100 O   0  0  0  0  0  0  0  0  0  0  0  0
   -1.1225   -1.7904   -1.0419 H   0  0  0  0  0  0  0  0  0  0  0  0
   -0.2675   -2.3598    0.4360 H   0  0  0  0  0  0  0  0  0  0  0  0
    2.6410   -0.0781   -0.2511 H   0  0  0  0  0  0  0  0  0  0  0  0
    1.7605   -0.5899    1.2821 H   0  0  0  0  0  0  0  0  0  0  0  0
    0.5264    1.4147    1.3090 H   0  0  0  0  0  0  0  0  0  0  0  0
    1.6425    2.0359   -0.0469 H   0  0  0  0  0  0  0  0  0  0  0  0
   -2.0557    0.5291   -1.1755 H   0  0  0  0  0  0  0  0  0  0  0  0
   -1.6703    1.6150    0.2280 H   0  0  0  0  0  0  0  0  0  0  0  0
  1  2  2  0
  2  3  1  0
  3  4  1  0
  4  5  1  0
  5  6  1  0
  6  7  1  0
  7  8  1  0
  7  9  1  0
  8  2  1  0
  7  4  1  0
  9  4  1  0
  3 10  1  0
  3 11  1  0
  5 12  1  0
  5 13  1  0
  6 14  1  0
  6 15  1  0
  8 16  1  0
  8 17  1  0
M  END
