
     RDKit          3D

 16 17  0  0  0  0  0  0  0  0999 V2000
    1.9910    2.2699    0.0504 O   0  0  0  0  0  0  0  0  0  0  0  0
    1.3123    1.2644    0.2071 C   0  0  0  0  0  0  0  0  0  0  0  0
    1.6542   -0.1689   -0.0585 C   0  0  0  0  0  0  0  0  0  0  0  0
    0.3060   -0.5962    0.3966 C   0  0  0  0  0  0  0  0  0  0  0  0
   -0.6899   -0.9172   -0.7282 C   0  0  0  0  0  0  0  0  0  0  0  0
   -1.8247    0.0177   -0.2856 C   0  0  0  0  0  0  0  0  0  0  0  0
   -1.0889    1.1999   -0.1242 O   0  0  0  0  0  0  0  0  0  0  0  0
   -0.0183    0.8477    0.6637 C   0  0  0  0  0  0  0  0  0  0  0  0
    2.4458   -0.5363    0.6489 H   0  0  0  0  0  0  0  0  0  0  0  0
    1.9225   -0.3946   -1.0939 H   0  0  0  0  0  0  0  0  0  0  0  0
    0.2410   -1.2762    1.2579 H   0  0  0  0  0  0  0  0  0  0  0  0
   -0.3066   -0.5858   -1.7063 H   0  0  0  0  0  0  0  0  0  0  0  0
   -1.0373   -1.9466   -0.6946 H   0  0  0  0  0  0  0  0  0  0  0  0
   -2.6173    0.0918   -1.0222 H   0  0  0  0  0  0  0  0  0  0  0  0
   -2.1524   -0.2770    0.7322 H   0  0  0  0  0  0  0  0  0  0  0  0
   -0.1374    1.0073    1.7567 H   0  0  0  0  0  0  0  0  0  0  0  0
  1  2  2  0
  2  3  1  0
  3  4  1  0
  4  5  1  0
  5  6  1  0
  6  7  1  0
  7  8  1  0
  8  2  1  0
  8  4  1  0
  3  9  1  0
  3 10  1  0
  4 11  1  0
  5 12  1  0
  5 13  1  0
  6 14  1  0
  6 15  1  0
  8 16  1  0
M  END
