
     RDKit          3D

 15 16  0  0  0  0  0  0  0  0999 V2000
   -2.3507    1.4806    0.0705 O   0  0  0  0  0  0  0  0  0  0  0  0
   -1.3931    0.6981   -0.0817 C   0  0  0  0  0  0  0  0  0  0  0  0
   -1.4346   -0.7276    0.3130 C   0  0  0  0  0  0  0  0  0  0  0  0
   -0.3733   -1.4772    0.1141 C   0  0  0  0  0  0  0  0  0  0  0  0
    0.8120   -0.8587   -0.5106 C   0  0  0  0  0  0  0  0  0  0  0  0
    1.4537   -0.0038    0.5471 C   0  0  0  0  0  0  0  0  0  0  0  0
    0.9066    1.1811    0.4255 C   0  0  0  0  0  0  0  0  0  0  0  0
   -0.0757    1.1085   -0.6863 C   0  0  0  0  0  0  0  0  0  0  0  0
    0.4409    0.0820   -1.4830 O   0  0  0  0  0  0  0  0  0  0  0  0
   -2.3500   -1.0930    0.7535 H   0  0  0  0  0  0  0  0  0  0  0  0
   -0.3449   -2.5086    0.3885 H   0  0  0  0  0  0  0  0  0  0  0  0
    1.5469   -1.5838   -0.8906 H   0  0  0  0  0  0  0  0  0  0  0  0
    2.2065   -0.3963    1.2190 H   0  0  0  0  0  0  0  0  0  0  0  0
    1.1519    2.0439    1.0462 H   0  0  0  0  0  0  0  0  0  0  0  0
   -0.1963    2.0545   -1.2252 H   0  0  0  0  0  0  0  0  0  0  0  0
  1  2  2  0
  2  3  1  0
  3  4  2  0
  4  5  1  0
  5  6  1  0
  6  7  2  0
  7  8  1  0
  8  9  1  0
  8  2  1  0
  9  5  1  0
  3 10  1  0
  4 11  1  0
  5 12  1  0
  6 13  1  0
  7 14  1  0
  8 15  1  0
M  END
