
     RDKit          3D

 15 17  0  0  0  0  0  0  0  0999 V2000
    2.0805    0.5499    1.7572 O   0  0  0  0  0  0  0  0  0  0  0  0
    1.6135    0.4141    0.6586 C   0  0  0  0  0  0  0  0  0  0  0  0
    2.0759    0.3903   -0.7455 C   0  0  0  0  0  0  0  0  0  0  0  0
    0.7650    0.7625   -1.1257 O   0  0  0  0  0  0  0  0  0  0  0  0
    0.3330    0.1941    0.0465 C   0  0  0  0  0  0  0  0  0  0  0  0
   -0.9721    0.3310    0.6311 C   0  0  0  0  0  0  0  0  0  0  0  0
   -2.1714   -0.0138   -0.2286 C   0  0  0  0  0  0  0  0  0  0  0  0
   -1.5367   -1.1141   -0.7795 O   0  0  0  0  0  0  0  0  0  0  0  0
   -0.4487   -1.0474    0.1085 C   0  0  0  0  0  0  0  0  0  0  0  0
    2.8590    1.0868   -1.0310 H   0  0  0  0  0  0  0  0  0  0  0  0
    2.2475   -0.6566   -1.1050 H   0  0  0  0  0  0  0  0  0  0  0  0
   -1.1213    0.3968    1.7314 H   0  0  0  0  0  0  0  0  0  0  0  0
   -2.3375    0.8431   -0.9447 H   0  0  0  0  0  0  0  0  0  0  0  0
   -3.0783   -0.3035    0.3263 H   0  0  0  0  0  0  0  0  0  0  0  0
   -0.3082   -1.8332    0.8563 H   0  0  0  0  0  0  0  0  0  0  0  0
  1  2  2  0
  2  3  1  0
  3  4  1  0
  4  5  1  0
  5  6  1  0
  6  7  1  0
  7  8  1  0
  8  9  1  0
  5  2  1  0
  9  6  1  0
  9  5  1  0
  3 10  1  0
  3 11  1  0
  6 12  1  0
  7 13  1  0
  7 14  1  0
  9 15  1  0
M  END
