
     RDKit          3D

 17 18  0  0  0  0  0  0  0  0999 V2000
    2.8141    1.3807   -0.7134 O   0  0  0  0  0  0  0  0  0  0  0  0
    1.7818    0.6691   -0.5158 C   0  0  0  0  0  0  0  0  0  0  0  0
    1.7231   -0.6796    0.1139 C   0  0  0  0  0  0  0  0  0  0  0  0
    0.4678   -0.5289    0.9498 C   0  0  0  0  0  0  0  0  0  0  0  0
   -0.4940    0.0995   -0.0299 C   0  0  0  0  0  0  0  0  0  0  0  0
   -1.8228    0.5755    0.4012 C   0  0  0  0  0  0  0  0  0  0  0  0
   -1.6557   -0.5841   -0.5635 C   0  0  0  0  0  0  0  0  0  0  0  0
    0.3918    0.9676   -0.8438 C   0  0  0  0  0  0  0  0  0  0  0  0
    0.0538    1.8409   -1.6974 O   0  0  0  0  0  0  0  0  0  0  0  0
    2.6095   -0.8536    0.7531 H   0  0  0  0  0  0  0  0  0  0  0  0
    1.5796   -1.4757   -0.6403 H   0  0  0  0  0  0  0  0  0  0  0  0
    0.6981    0.2024    1.7516 H   0  0  0  0  0  0  0  0  0  0  0  0
    0.0915   -1.4883    1.3381 H   0  0  0  0  0  0  0  0  0  0  0  0
   -2.0919    0.3337    1.4618 H   0  0  0  0  0  0  0  0  0  0  0  0
   -2.2170    1.5378    0.0058 H   0  0  0  0  0  0  0  0  0  0  0  0
   -1.9526   -0.4393   -1.6230 H   0  0  0  0  0  0  0  0  0  0  0  0
   -1.9771   -1.5576   -0.1479 H   0  0  0  0  0  0  0  0  0  0  0  0
  1  2  2  0
  2  3  1  0
  3  4  1  0
  4  5  1  0
  5  6  1  0
  6  7  1  0
  5  8  1  0
  8  9  2  0
  8  2  1  0
  7  5  1  0
  3 10  1  0
  3 11  1  0
  4 12  1  0
  4 13  1  0
  6 14  1  0
  6 15  1  0
  7 16  1  0
  7 17  1  0
M  END
