
     RDKit          3D

 17 18  0  0  0  0  0  0  0  0999 V2000
    2.9777    0.6437    0.4436 O   0  0  0  0  0  0  0  0  0  0  0  0
    1.8140    0.5134    0.1521 C   0  0  0  0  0  0  0  0  0  0  0  0
    0.6543    1.3745   -0.2695 C   0  0  0  0  0  0  0  0  0  0  0  0
   -0.2252    0.2208    0.0151 C   0  0  0  0  0  0  0  0  0  0  0  0
   -1.2767    0.1779    1.0264 C   0  0  0  0  0  0  0  0  0  0  0  0
   -1.5653    0.1078   -0.4349 C   0  0  0  0  0  0  0  0  0  0  0  0
   -2.1274   -1.0401   -0.9908 O   0  0  0  0  0  0  0  0  0  0  0  0
    0.8982   -0.6791    0.0668 C   0  0  0  0  0  0  0  0  0  0  0  0
    1.2269   -1.4650   -1.0146 O   0  0  0  0  0  0  0  0  0  0  0  0
    0.4534    2.2352    0.3632 H   0  0  0  0  0  0  0  0  0  0  0  0
    0.6865    1.5713   -1.3794 H   0  0  0  0  0  0  0  0  0  0  0  0
   -1.3990   -0.7896    1.5718 H   0  0  0  0  0  0  0  0  0  0  0  0
   -1.4412    1.0856    1.6155 H   0  0  0  0  0  0  0  0  0  0  0  0
   -2.0905    1.0394   -0.8028 H   0  0  0  0  0  0  0  0  0  0  0  0
   -1.6836   -1.8138   -0.5820 H   0  0  0  0  0  0  0  0  0  0  0  0
    0.9944   -1.2686    1.0051 H   0  0  0  0  0  0  0  0  0  0  0  0
    2.1035   -1.9133   -0.7855 H   0  0  0  0  0  0  0  0  0  0  0  0
  1  2  2  0
  2  3  1  0
  3  4  1  0
  4  5  1  0
  5  6  1  0
  6  7  1  0
  4  8  1  0
  8  9  1  0
  8  2  1  0
  6  4  1  0
  3 10  1  0
  3 11  1  0
  5 12  1  0
  5 13  1  0
  6 14  1  0
  7 15  1  0
  8 16  1  0
  9 17  1  0
M  END
