
     RDKit          3D

 17 18  0  0  0  0  0  0  0  0999 V2000
    0.7253    1.5836    1.3268 O   0  0  0  0  0  0  0  0  0  0  0  0
    0.4253    0.9007    0.3773 C   0  0  0  0  0  0  0  0  0  0  0  0
    1.2955   -0.2701   -0.0386 C   0  0  0  0  0  0  0  0  0  0  0  0
    2.3334    0.2510   -0.8460 O   0  0  0  0  0  0  0  0  0  0  0  0
    0.6021   -1.3353   -0.7745 C   0  0  0  0  0  0  0  0  0  0  0  0
   -0.6636   -1.0566   -1.2890 O   0  0  0  0  0  0  0  0  0  0  0  0
   -1.3536   -0.3792   -0.3513 C   0  0  0  0  0  0  0  0  0  0  0  0
   -2.1085    0.8172   -0.3431 C   0  0  0  0  0  0  0  0  0  0  0  0
   -0.7314    1.0558   -0.4797 C   0  0  0  0  0  0  0  0  0  0  0  0
    1.7338   -0.6454    0.9148 H   0  0  0  0  0  0  0  0  0  0  0  0
    3.1408    0.4298   -0.3329 H   0  0  0  0  0  0  0  0  0  0  0  0
    1.2487   -1.7108   -1.5930 H   0  0  0  0  0  0  0  0  0  0  0  0
    0.4438   -2.2060   -0.0718 H   0  0  0  0  0  0  0  0  0  0  0  0
   -1.2429   -0.8907    0.6521 H   0  0  0  0  0  0  0  0  0  0  0  0
   -2.6865    1.0874    0.5884 H   0  0  0  0  0  0  0  0  0  0  0  0
   -2.7864    1.0156   -1.2260 H   0  0  0  0  0  0  0  0  0  0  0  0
   -0.3758    1.3530   -1.5156 H   0  0  0  0  0  0  0  0  0  0  0  0
  1  2  2  0
  2  3  1  0
  3  4  1  0
  3  5  1  0
  5  6  1  0
  6  7  1  0
  7  8  1  0
  8  9  1  0
  9  2  1  0
  9  7  1  0
  3 10  1  0
  4 11  1  0
  5 12  1  0
  5 13  1  0
  7 14  1  0
  8 15  1  0
  8 16  1  0
  9 17  1  0
M  END
