
     RDKit          3D

 19 20  0  0  0  0  0  0  0  0999 V2000
    0.5692   -2.2991    0.5248 O   0  0  0  0  0  0  0  0  0  0  0  0
    0.0285   -1.2674    0.1425 C   0  0  0  0  0  0  0  0  0  0  0  0
   -1.4267   -1.3429   -0.1587 C   0  0  0  0  0  0  0  0  0  0  0  0
   -2.0981   -0.0386    0.0974 C   0  0  0  0  0  0  0  0  0  0  0  0
   -1.4311    1.0537   -0.2583 C   0  0  0  0  0  0  0  0  0  0  0  0
   -0.0710    0.9269   -0.8839 C   0  0  0  0  0  0  0  0  0  0  0  0
    0.7283    0.0079   -0.0286 C   0  0  0  0  0  0  0  0  0  0  0  0
    1.4765    0.5061    1.1624 C   0  0  0  0  0  0  0  0  0  0  0  0
    2.1993    0.1201   -0.0757 C   0  0  0  0  0  0  0  0  0  0  0  0
   -1.9383   -2.1028    0.4863 H   0  0  0  0  0  0  0  0  0  0  0  0
   -1.6163   -1.5739   -1.2445 H   0  0  0  0  0  0  0  0  0  0  0  0
   -3.0871    0.0103    0.5542 H   0  0  0  0  0  0  0  0  0  0  0  0
   -1.8462    2.0308   -0.1072 H   0  0  0  0  0  0  0  0  0  0  0  0
   -0.2580    0.3968   -1.8629 H   0  0  0  0  0  0  0  0  0  0  0  0
    0.3714    1.9148   -1.0288 H   0  0  0  0  0  0  0  0  0  0  0  0
    1.3731    1.6037    1.3990 H   0  0  0  0  0  0  0  0  0  0  0  0
    1.5550   -0.1096    2.0839 H   0  0  0  0  0  0  0  0  0  0  0  0
    2.8476   -0.7859   -0.1097 H   0  0  0  0  0  0  0  0  0  0  0  0
    2.6239    0.9491   -0.6922 H   0  0  0  0  0  0  0  0  0  0  0  0
  1  2  2  0
  2  3  1  0
  3  4  1  0
  4  5  2  0
  5  6  1  0
  6  7  1  0
  7  8  1  0
  8  9  1  0
  7  2  1  0
  9  7  1  0
  3 10  1  0
  3 11  1  0
  4 12  1  0
  5 13  1  0
  6 14  1  0
  6 15  1  0
  8 16  1  0
  8 17  1  0
  9 18  1  0
  9 19  1  0
M  END
