
     RDKit          3D

 14 15  0  0  0  0  0  0  0  0999 V2000
    1.1513    0.3086    2.1154 O   0  0  0  0  0  0  0  0  0  0  0  0
    0.8043    0.1677    0.9681 C   0  0  0  0  0  0  0  0  0  0  0  0
    1.6182   -0.1924   -0.2434 C   0  0  0  0  0  0  0  0  0  0  0  0
    0.7189   -0.9560   -0.9809 O   0  0  0  0  0  0  0  0  0  0  0  0
   -0.5113   -0.3451   -0.9105 C   0  0  0  0  0  0  0  0  0  0  0  0
   -1.4462   -0.8015    0.1490 C   0  0  0  0  0  0  0  0  0  0  0  0
   -0.5762    0.3259    0.4649 C   0  0  0  0  0  0  0  0  0  0  0  0
   -1.0088    1.6469    0.4120 O   0  0  0  0  0  0  0  0  0  0  0  0
    2.4674   -0.7941    0.1232 H   0  0  0  0  0  0  0  0  0  0  0  0
    1.9011    0.6964   -0.8169 H   0  0  0  0  0  0  0  0  0  0  0  0
   -0.9248    0.2061   -1.7792 H   0  0  0  0  0  0  0  0  0  0  0  0
   -2.5221   -0.6007    0.0507 H   0  0  0  0  0  0  0  0  0  0  0  0
   -1.2477   -1.7694    0.6843 H   0  0  0  0  0  0  0  0  0  0  0  0
   -0.4242    2.1077   -0.2367 H   0  0  0  0  0  0  0  0  0  0  0  0
  1  2  2  0
  2  3  1  0
  3  4  1  0
  4  5  1  0
  5  6  1  0
  6  7  1  0
  7  8  1  0
  7  2  1  0
  7  5  1  0
  3  9  1  0
  3 10  1  0
  5 11  1  0
  6 12  1  0
  6 13  1  0
  8 14  1  0
M  END
