
     RDKit          3D

 13 14  0  0  0  0  0  0  0  0999 V2000
   -1.3965   -1.8924    0.4619 O   0  0  0  0  0  0  0  0  0  0  0  0
   -0.8992   -0.8547    0.0537 C   0  0  0  0  0  0  0  0  0  0  0  0
   -1.5226    0.4816   -0.1423 C   0  0  0  0  0  0  0  0  0  0  0  0
   -0.4942    1.3298    0.2653 O   0  0  0  0  0  0  0  0  0  0  0  0
    0.6875    0.8287   -0.1888 C   0  0  0  0  0  0  0  0  0  0  0  0
    1.4541   -0.1747    0.6403 C   0  0  0  0  0  0  0  0  0  0  0  0
    0.5273   -0.6712   -0.3675 C   0  0  0  0  0  0  0  0  0  0  0  0
   -1.8234    0.6578   -1.1849 H   0  0  0  0  0  0  0  0  0  0  0  0
   -2.3686    0.5492    0.5808 H   0  0  0  0  0  0  0  0  0  0  0  0
    1.3099    1.3833   -0.9173 H   0  0  0  0  0  0  0  0  0  0  0  0
    2.5419   -0.2837    0.4650 H   0  0  0  0  0  0  0  0  0  0  0  0
    1.1776   -0.3336    1.7037 H   0  0  0  0  0  0  0  0  0  0  0  0
    0.8061   -1.0201   -1.3699 H   0  0  0  0  0  0  0  0  0  0  0  0
  1  2  2  0
  2  3  1  0
  3  4  1  0
  4  5  1  0
  5  6  1  0
  6  7  1  0
  7  2  1  0
  7  5  1  0
  3  8  1  0
  3  9  1  0
  5 10  1  0
  6 11  1  0
  6 12  1  0
  7 13  1  0
M  END
