
     RDKit          3D

 17 18  0  0  0  0  0  0  0  0999 V2000
   -1.9867    2.3371   -0.5145 O   0  0  0  0  0  0  0  0  0  0  0  0
   -1.4994    1.2132   -0.2883 C   0  0  0  0  0  0  0  0  0  0  0  0
   -2.1117    0.0330   -0.6727 O   0  0  0  0  0  0  0  0  0  0  0  0
   -1.0956   -0.9807   -0.5995 C   0  0  0  0  0  0  0  0  0  0  0  0
   -0.3496   -0.5516    0.6198 C   0  0  0  0  0  0  0  0  0  0  0  0
    1.0860   -0.9761    0.6410 C   0  0  0  0  0  0  0  0  0  0  0  0
    1.7204    0.0041   -0.2847 C   0  0  0  0  0  0  0  0  0  0  0  0
    0.9649    1.0812   -0.4110 C   0  0  0  0  0  0  0  0  0  0  0  0
   -0.2403    0.9525    0.3985 C   0  0  0  0  0  0  0  0  0  0  0  0
   -0.4360   -0.8488   -1.4774 H   0  0  0  0  0  0  0  0  0  0  0  0
   -1.5775   -1.9533   -0.5364 H   0  0  0  0  0  0  0  0  0  0  0  0
   -0.8872   -0.6954    1.5565 H   0  0  0  0  0  0  0  0  0  0  0  0
    1.2035   -2.0218    0.3061 H   0  0  0  0  0  0  0  0  0  0  0  0
    1.4532   -0.8193    1.6919 H   0  0  0  0  0  0  0  0  0  0  0  0
    2.6708   -0.1735   -0.7703 H   0  0  0  0  0  0  0  0  0  0  0  0
    1.2131    1.9240   -1.0247 H   0  0  0  0  0  0  0  0  0  0  0  0
   -0.1282    1.4756    1.3658 H   0  0  0  0  0  0  0  0  0  0  0  0
  1  2  2  0
  2  3  1  0
  3  4  1  0
  4  5  1  0
  5  6  1  0
  6  7  1  0
  7  8  2  0
  8  9  1  0
  9  2  1  0
  9  5  1  0
  4 10  1  0
  4 11  1  0
  5 12  1  0
  6 13  1  0
  6 14  1  0
  7 15  1  0
  8 16  1  0
  9 17  1  0
M  END
