
     RDKit          3D

 14 16  0  0  0  0  0  0  0  0999 V2000
   -0.5583    1.0224    2.2970 O   0  0  0  0  0  0  0  0  0  0  0  0
   -0.3855    0.5984    1.1862 C   0  0  0  0  0  0  0  0  0  0  0  0
    0.6067    1.0763    0.1870 C   0  0  0  0  0  0  0  0  0  0  0  0
    1.2545   -0.2555   -0.1486 C   0  0  0  0  0  0  0  0  0  0  0  0
   -0.0257   -1.0278   -0.4925 C   0  0  0  0  0  0  0  0  0  0  0  0
   -0.9072    0.0314   -0.9810 C   0  0  0  0  0  0  0  0  0  0  0  0
   -0.2142    1.2550   -0.9125 O   0  0  0  0  0  0  0  0  0  0  0  0
   -1.0428   -0.4921    0.4186 C   0  0  0  0  0  0  0  0  0  0  0  0
    1.2477    1.8616    0.4724 H   0  0  0  0  0  0  0  0  0  0  0  0
    1.6619   -0.7212    0.7667 H   0  0  0  0  0  0  0  0  0  0  0  0
    1.9418   -0.2070   -0.9897 H   0  0  0  0  0  0  0  0  0  0  0  0
    0.0311   -2.0374   -0.8593 H   0  0  0  0  0  0  0  0  0  0  0  0
   -1.6947   -0.0989   -1.7201 H   0  0  0  0  0  0  0  0  0  0  0  0
   -1.9155   -1.0051    0.7759 H   0  0  0  0  0  0  0  0  0  0  0  0
  1  2  2  0
  2  3  1  0
  3  4  1  0
  4  5  1  0
  5  6  1  0
  6  7  1  0
  6  8  1  0
  8  2  1  0
  7  3  1  0
  8  5  1  0
  3  9  1  0
  4 10  1  0
  4 11  1  0
  5 12  1  0
  6 13  1  0
  8 14  1  0
M  END
