
     RDKit          3D

 19 20  0  0  0  0  0  0  0  0999 V2000
    3.6057   -1.0156    0.3206 O   0  0  0  0  0  0  0  0  0  0  0  0
    2.5151   -0.4604    0.0647 C   0  0  0  0  0  0  0  0  0  0  0  0
    2.2443    0.9651   -0.0050 C   0  0  0  0  0  0  0  0  0  0  0  0
    0.9422    1.1866    0.1096 C   0  0  0  0  0  0  0  0  0  0  0  0
    0.2289   -0.0762    0.2668 C   0  0  0  0  0  0  0  0  0  0  0  0
   -1.0805   -0.1424   -0.4734 C   0  0  0  0  0  0  0  0  0  0  0  0
   -2.1814    0.7807   -0.2203 C   0  0  0  0  0  0  0  0  0  0  0  0
   -2.2739   -0.5536    0.4142 C   0  0  0  0  0  0  0  0  0  0  0  0
    1.2140   -1.1068   -0.2344 C   0  0  0  0  0  0  0  0  0  0  0  0
    3.0223    1.7081   -0.1324 H   0  0  0  0  0  0  0  0  0  0  0  0
    0.5145    2.1993    0.0831 H   0  0  0  0  0  0  0  0  0  0  0  0
    0.0886   -0.2422    1.3752 H   0  0  0  0  0  0  0  0  0  0  0  0
   -1.0340   -0.6159   -1.4806 H   0  0  0  0  0  0  0  0  0  0  0  0
   -2.0922    1.6320    0.5155 H   0  0  0  0  0  0  0  0  0  0  0  0
   -2.8980    1.0247   -1.0253 H   0  0  0  0  0  0  0  0  0  0  0  0
   -2.9314   -1.3498   -0.0119 H   0  0  0  0  0  0  0  0  0  0  0  0
   -2.1056   -0.6589    1.4849 H   0  0  0  0  0  0  0  0  0  0  0  0
    1.1383   -1.1980   -1.3358 H   0  0  0  0  0  0  0  0  0  0  0  0
    1.0831   -2.0768    0.2847 H   0  0  0  0  0  0  0  0  0  0  0  0
  1  2  2  0
  2  3  1  0
  3  4  2  0
  4  5  1  0
  5  6  1  0
  6  7  1  0
  7  8  1  0
  5  9  1  0
  9  2  1  0
  8  6  1  0
  3 10  1  0
  4 11  1  0
  5 12  1  0
  6 13  1  0
  7 14  1  0
  7 15  1  0
  8 16  1  0
  8 17  1  0
  9 18  1  0
  9 19  1  0
M  END
