
     RDKit          3D

 15 17  0  0  0  0  0  0  0  0999 V2000
   -2.3518    0.3015    1.4659 O   0  0  0  0  0  0  0  0  0  0  0  0
   -1.7077    0.0623    0.4819 C   0  0  0  0  0  0  0  0  0  0  0  0
   -1.0151    0.6727   -0.6346 C   0  0  0  0  0  0  0  0  0  0  0  0
   -1.6106   -0.2842   -1.4522 O   0  0  0  0  0  0  0  0  0  0  0  0
   -1.1178   -0.9958   -0.3629 C   0  0  0  0  0  0  0  0  0  0  0  0
    0.0978   -0.2586   -0.4452 C   0  0  0  0  0  0  0  0  0  0  0  0
    0.8981   -0.7537    0.6658 C   0  0  0  0  0  0  0  0  0  0  0  0
    1.1543    0.5004    0.1005 C   0  0  0  0  0  0  0  0  0  0  0  0
    2.2979    0.6352   -0.7317 O   0  0  0  0  0  0  0  0  0  0  0  0
   -0.9733    1.6712   -0.8670 H   0  0  0  0  0  0  0  0  0  0  0  0
   -1.3017   -1.9985   -0.2229 H   0  0  0  0  0  0  0  0  0  0  0  0
    0.5417   -0.8225    1.7311 H   0  0  0  0  0  0  0  0  0  0  0  0
    1.4649   -1.6916    0.4069 H   0  0  0  0  0  0  0  0  0  0  0  0
    1.1109    1.4026    0.7840 H   0  0  0  0  0  0  0  0  0  0  0  0
    2.5123    1.5589   -0.9195 H   0  0  0  0  0  0  0  0  0  0  0  0
  1  2  2  0
  2  3  1  0
  3  4  1  0
  4  5  1  0
  5  6  1  0
  6  7  1  0
  7  8  1  0
  8  9  1  0
  5  2  1  0
  8  6  1  0
  6  3  1  0
  3 10  1  0
  5 11  1  0
  7 12  1  0
  7 13  1  0
  8 14  1  0
  9 15  1  0
M  END
