
     RDKit          3D

 21 22  0  0  0  0  0  0  0  0999 V2000
    2.5644   -0.9204   -0.3707 O   0  0  0  0  0  0  0  0  0  0  0  0
    1.5541   -0.4702    0.1648 C   0  0  0  0  0  0  0  0  0  0  0  0
    0.5050   -1.3839    0.6735 C   0  0  0  0  0  0  0  0  0  0  0  0
   -0.8782   -0.7889    0.5656 C   0  0  0  0  0  0  0  0  0  0  0  0
   -1.1752   -0.6664   -0.9331 C   0  0  0  0  0  0  0  0  0  0  0  0
   -0.3058    0.4838   -1.3618 C   0  0  0  0  0  0  0  0  0  0  0  0
   -0.0546    1.2906   -0.1220 C   0  0  0  0  0  0  0  0  0  0  0  0
    1.3900    1.0127    0.3004 C   0  0  0  0  0  0  0  0  0  0  0  0
   -0.9158    0.6661    0.9786 C   0  0  0  0  0  0  0  0  0  0  0  0
    0.7692   -1.6257    1.7237 H   0  0  0  0  0  0  0  0  0  0  0  0
    0.4835   -2.3227    0.0491 H   0  0  0  0  0  0  0  0  0  0  0  0
   -1.5973   -1.4125    1.0876 H   0  0  0  0  0  0  0  0  0  0  0  0
   -0.8620   -1.6196   -1.3795 H   0  0  0  0  0  0  0  0  0  0  0  0
   -2.2453   -0.4373   -1.0351 H   0  0  0  0  0  0  0  0  0  0  0  0
    0.6371    0.0258   -1.7771 H   0  0  0  0  0  0  0  0  0  0  0  0
   -0.7237    1.0916   -2.1676 H   0  0  0  0  0  0  0  0  0  0  0  0
   -0.2778    2.3481   -0.2034 H   0  0  0  0  0  0  0  0  0  0  0  0
    2.0271    1.5427   -0.4145 H   0  0  0  0  0  0  0  0  0  0  0  0
    1.5413    1.3360    1.3491 H   0  0  0  0  0  0  0  0  0  0  0  0
   -1.9537    1.0050    0.8967 H   0  0  0  0  0  0  0  0  0  0  0  0
   -0.4821    0.8452    1.9760 H   0  0  0  0  0  0  0  0  0  0  0  0
  1  2  2  0
  2  3  1  0
  3  4  1  0
  4  5  1  0
  5  6  1  0
  6  7  1  0
  7  8  1  0
  7  9  1  0
  8  2  1  0
  9  4  1  0
  3 10  1  0
  3 11  1  0
  4 12  1  0
  5 13  1  0
  5 14  1  0
  6 15  1  0
  6 16  1  0
  7 17  1  0
  8 18  1  0
  8 19  1  0
  9 20  1  0
  9 21  1  0
M  END
