
     RDKit          3D

 17 17  0  0  0  0  0  0  0  0999 V2000
    0.3907   -3.0036    0.2725 O   0  0  0  0  0  0  0  0  0  0  0  0
    0.2718   -1.7728    0.0478 C   0  0  0  0  0  0  0  0  0  0  0  0
    1.5205   -1.0231    0.0419 C   0  0  0  0  0  0  0  0  0  0  0  0
    1.8354    0.2818    0.0678 C   0  0  0  0  0  0  0  0  0  0  0  0
    1.0191    1.4854    0.1133 C   0  0  0  0  0  0  0  0  0  0  0  0
   -0.2751    1.7415    0.1135 C   0  0  0  0  0  0  0  0  0  0  0  0
   -1.5262    0.9101    0.0668 C   0  0  0  0  0  0  0  0  0  0  0  0
   -1.3752   -0.2928    0.7059 O   0  0  0  0  0  0  0  0  0  0  0  0
   -1.1384   -1.3556   -0.1641 C   0  0  0  0  0  0  0  0  0  0  0  0
    2.3940   -1.6735    0.0090 H   0  0  0  0  0  0  0  0  0  0  0  0
    2.9067    0.4629    0.0514 H   0  0  0  0  0  0  0  0  0  0  0  0
    1.6418    2.3643    0.1567 H   0  0  0  0  0  0  0  0  0  0  0  0
   -0.4836    2.8002    0.1577 H   0  0  0  0  0  0  0  0  0  0  0  0
   -2.2934    1.5008    0.6193 H   0  0  0  0  0  0  0  0  0  0  0  0
   -1.8141    0.8034   -1.0063 H   0  0  0  0  0  0  0  0  0  0  0  0
   -1.8356   -2.1988   -0.0166 H   0  0  0  0  0  0  0  0  0  0  0  0
   -1.2386   -1.0303   -1.2366 H   0  0  0  0  0  0  0  0  0  0  0  0
  1  2  2  0
  2  3  1  0
  3  4  2  3
  4  5  1  0
  5  6  2  3
  6  7  1  0
  7  8  1  0
  8  9  1  0
  9  2  1  0
  3 10  1  0
  4 11  1  0
  5 12  1  0
  6 13  1  0
  7 14  1  0
  7 15  1  0
  9 16  1  0
  9 17  1  0
M  END
