
     RDKit          3D

 19 19  0  0  0  0  0  0  0  0999 V2000
    0.0531   -2.2547   -0.2841 O   0  0  0  0  0  0  0  0  0  0  0  0
   -0.2660   -1.1556    0.1075 C   0  0  0  0  0  0  0  0  0  0  0  0
   -1.6858   -0.8723    0.4192 C   0  0  0  0  0  0  0  0  0  0  0  0
   -2.1346    0.4736   -0.0489 C   0  0  0  0  0  0  0  0  0  0  0  0
   -1.0532    1.3071   -0.6170 C   0  0  0  0  0  0  0  0  0  0  0  0
    0.2277    1.1007   -0.4868 C   0  0  0  0  0  0  0  0  0  0  0  0
    0.7149   -0.0624    0.2923 C   0  0  0  0  0  0  0  0  0  0  0  0
    2.1125   -0.4761   -0.1157 C   0  0  0  0  0  0  0  0  0  0  0  0
    2.9367    0.6332    0.1046 O   0  0  0  0  0  0  0  0  0  0  0  0
   -2.3301   -1.7024    0.0498 H   0  0  0  0  0  0  0  0  0  0  0  0
   -1.7776   -0.8868    1.5450 H   0  0  0  0  0  0  0  0  0  0  0  0
   -2.6249    1.0792    0.7688 H   0  0  0  0  0  0  0  0  0  0  0  0
   -2.9165    0.3754   -0.8429 H   0  0  0  0  0  0  0  0  0  0  0  0
   -1.3726    2.1788   -1.2010 H   0  0  0  0  0  0  0  0  0  0  0  0
    0.9292    1.7811   -0.9493 H   0  0  0  0  0  0  0  0  0  0  0  0
    0.7687    0.1662    1.3878 H   0  0  0  0  0  0  0  0  0  0  0  0
    2.4371   -1.2611    0.5846 H   0  0  0  0  0  0  0  0  0  0  0  0
    2.1638   -0.8004   -1.1750 H   0  0  0  0  0  0  0  0  0  0  0  0
    3.8177    0.3765    0.4611 H   0  0  0  0  0  0  0  0  0  0  0  0
  1  2  2  0
  2  3  1  0
  3  4  1  0
  4  5  1  0
  5  6  2  0
  6  7  1  0
  7  8  1  0
  8  9  1  0
  7  2  1  0
  3 10  1  0
  3 11  1  0
  4 12  1  0
  4 13  1  0
  5 14  1  0
  6 15  1  0
  7 16  1  0
  8 17  1  0
  8 18  1  0
  9 19  1  0
M  END
