
     RDKit          3D

 17 19  0  0  0  0  0  0  0  0999 V2000
    1.6594    1.0593    1.6693 O   0  0  0  0  0  0  0  0  0  0  0  0
    1.3294    0.6279    0.5957 C   0  0  0  0  0  0  0  0  0  0  0  0
    1.3953   -0.6229   -0.1346 C   0  0  0  0  0  0  0  0  0  0  0  0
    0.1062   -1.4199   -0.1071 C   0  0  0  0  0  0  0  0  0  0  0  0
   -1.1147   -0.5824   -0.0534 C   0  0  0  0  0  0  0  0  0  0  0  0
   -1.3383    0.5169    0.8821 C   0  0  0  0  0  0  0  0  0  0  0  0
   -0.8106    0.7967   -0.5304 C   0  0  0  0  0  0  0  0  0  0  0  0
    0.6595    1.1046   -0.6278 C   0  0  0  0  0  0  0  0  0  0  0  0
    1.3539    0.1209   -1.3330 O   0  0  0  0  0  0  0  0  0  0  0  0
    2.2627   -1.2707   -0.0172 H   0  0  0  0  0  0  0  0  0  0  0  0
    0.0856   -1.9809   -1.0897 H   0  0  0  0  0  0  0  0  0  0  0  0
    0.1554   -2.2223    0.6640 H   0  0  0  0  0  0  0  0  0  0  0  0
   -2.0365   -1.1029   -0.4503 H   0  0  0  0  0  0  0  0  0  0  0  0
   -2.3712    0.8665    1.0301 H   0  0  0  0  0  0  0  0  0  0  0  0
   -0.6616    0.7809    1.7105 H   0  0  0  0  0  0  0  0  0  0  0  0
   -1.5081    1.1942   -1.2823 H   0  0  0  0  0  0  0  0  0  0  0  0
    0.8338    2.1344   -0.9259 H   0  0  0  0  0  0  0  0  0  0  0  0
  1  2  2  0
  2  3  1  0
  3  4  1  0
  4  5  1  0
  5  6  1  0
  6  7  1  0
  7  8  1  0
  8  9  1  0
  8  2  1  0
  9  3  1  0
  7  5  1  0
  3 10  1  0
  4 11  1  0
  4 12  1  0
  5 13  1  0
  6 14  1  0
  6 15  1  0
  7 16  1  0
  8 17  1  0
M  END
