
     RDKit          3D

 19 20  0  0  0  0  0  0  0  0999 V2000
    0.1851    1.4365    1.8289 O   0  0  0  0  0  0  0  0  0  0  0  0
   -0.2690    0.8282    0.8926 C   0  0  0  0  0  0  0  0  0  0  0  0
   -1.6599    0.9092    0.3971 C   0  0  0  0  0  0  0  0  0  0  0  0
   -1.9385   -0.4934   -0.0607 C   0  0  0  0  0  0  0  0  0  0  0  0
   -0.6100   -1.1951   -0.2038 C   0  0  0  0  0  0  0  0  0  0  0  0
    0.4166   -0.1307    0.0157 C   0  0  0  0  0  0  0  0  0  0  0  0
    1.7831   -0.5563    0.3957 C   0  0  0  0  0  0  0  0  0  0  0  0
    2.0991    0.7284   -0.3814 C   0  0  0  0  0  0  0  0  0  0  0  0
    0.9339    0.4568   -1.1346 O   0  0  0  0  0  0  0  0  0  0  0  0
   -1.6444    1.5958   -0.5010 H   0  0  0  0  0  0  0  0  0  0  0  0
   -2.3698    1.2886    1.1463 H   0  0  0  0  0  0  0  0  0  0  0  0
   -2.4914   -0.5211   -1.0358 H   0  0  0  0  0  0  0  0  0  0  0  0
   -2.5201   -1.0292    0.7395 H   0  0  0  0  0  0  0  0  0  0  0  0
   -0.5156   -2.0448    0.5131 H   0  0  0  0  0  0  0  0  0  0  0  0
   -0.5424   -1.6617   -1.2167 H   0  0  0  0  0  0  0  0  0  0  0  0
    2.0835   -0.4635    1.4384 H   0  0  0  0  0  0  0  0  0  0  0  0
    2.1079   -1.4685   -0.1403 H   0  0  0  0  0  0  0  0  0  0  0  0
    3.0246    0.7005   -0.9549 H   0  0  0  0  0  0  0  0  0  0  0  0
    1.9273    1.6202    0.2514 H   0  0  0  0  0  0  0  0  0  0  0  0
  1  2  2  0
  2  3  1  0
  3  4  1  0
  4  5  1  0
  5  6  1  0
  6  7  1  0
  7  8  1  0
  8  9  1  0
  6  2  1  0
  9  6  1  0
  3 10  1  0
  3 11  1  0
  4 12  1  0
  4 13  1  0
  5 14  1  0
  5 15  1  0
  7 16  1  0
  7 17  1  0
  8 18  1  0
  8 19  1  0
M  END
