
     RDKit          3D

 12 12  0  0  0  0  0  0  0  0999 V2000
   -1.6208   -0.5118    1.6081 O   0  0  0  0  0  0  0  0  0  0  0  0
   -0.8692   -0.3031    0.6963 C   0  0  0  0  0  0  0  0  0  0  0  0
    0.2086   -1.1924    0.2223 C   0  0  0  0  0  0  0  0  0  0  0  0
    1.2267   -0.1898   -0.2405 C   0  0  0  0  0  0  0  0  0  0  0  0
    0.6373    0.9833   -0.4654 C   0  0  0  0  0  0  0  0  0  0  0  0
   -0.8302    0.8853   -0.1770 C   0  0  0  0  0  0  0  0  0  0  0  0
   -0.1256   -1.8309   -0.6431 H   0  0  0  0  0  0  0  0  0  0  0  0
    0.6117   -1.8635    1.0022 H   0  0  0  0  0  0  0  0  0  0  0  0
    2.2961   -0.3304   -0.3911 H   0  0  0  0  0  0  0  0  0  0  0  0
    1.0819    1.9137   -0.8060 H   0  0  0  0  0  0  0  0  0  0  0  0
   -1.3975    0.6393   -1.1120 H   0  0  0  0  0  0  0  0  0  0  0  0
   -1.2190    1.8001    0.3061 H   0  0  0  0  0  0  0  0  0  0  0  0
  1  2  2  0
  2  3  1  0
  3  4  1  0
  4  5  2  0
  5  6  1  0
  6  2  1  0
  3  7  1  0
  3  8  1  0
  4  9  1  0
  5 10  1  0
  6 11  1  0
  6 12  1  0
M  END
