
     RDKit          3D

 14 16  0  0  0  0  0  0  0  0999 V2000
    2.1945    1.1411    0.7828 O   0  0  0  0  0  0  0  0  0  0  0  0
    1.1740    0.6176    0.4134 C   0  0  0  0  0  0  0  0  0  0  0  0
    1.1143   -0.8158   -0.0740 C   0  0  0  0  0  0  0  0  0  0  0  0
   -0.3816   -0.8780   -0.3415 C   0  0  0  0  0  0  0  0  0  0  0  0
   -1.0549   -0.0807    0.7257 C   0  0  0  0  0  0  0  0  0  0  0  0
   -1.9618    0.3302   -0.2338 O   0  0  0  0  0  0  0  0  0  0  0  0
   -0.7681    0.4185   -0.9342 C   0  0  0  0  0  0  0  0  0  0  0  0
   -0.2053    1.0684    0.2987 C   0  0  0  0  0  0  0  0  0  0  0  0
    1.6626   -0.9345   -1.0172 H   0  0  0  0  0  0  0  0  0  0  0  0
    1.4264   -1.5042    0.7282 H   0  0  0  0  0  0  0  0  0  0  0  0
   -0.8006   -1.7996   -0.6772 H   0  0  0  0  0  0  0  0  0  0  0  0
   -1.2603   -0.3733    1.6708 H   0  0  0  0  0  0  0  0  0  0  0  0
   -0.6515    0.7432   -1.8820 H   0  0  0  0  0  0  0  0  0  0  0  0
   -0.4876    2.0672    0.5403 H   0  0  0  0  0  0  0  0  0  0  0  0
  1  2  2  0
  2  3  1  0
  3  4  1  0
  4  5  1  0
  5  6  1  0
  6  7  1  0
  7  8  1  0
  8  2  1  0
  7  4  1  0
  8  5  1  0
  3  9  1  0
  3 10  1  0
  4 11  1  0
  5 12  1  0
  7 13  1  0
  8 14  1  0
M  END
