
     RDKit          3D

 14 15  0  0  0  0  0  0  0  0999 V2000
    0.6911    0.0610   -2.4466 O   0  0  0  0  0  0  0  0  0  0  0  0
    0.6031    0.2231   -1.2784 C   0  0  0  0  0  0  0  0  0  0  0  0
    1.6917    0.0524   -0.2689 C   0  0  0  0  0  0  0  0  0  0  0  0
    0.8915   -0.6691    0.7900 C   0  0  0  0  0  0  0  0  0  0  0  0
   -0.3893   -0.4175    0.6689 C   0  0  0  0  0  0  0  0  0  0  0  0
   -1.8947   -0.2461    0.6857 C   0  0  0  0  0  0  0  0  0  0  0  0
   -1.7975    0.1617   -0.6948 O   0  0  0  0  0  0  0  0  0  0  0  0
   -0.5179    0.6206   -0.4479 C   0  0  0  0  0  0  0  0  0  0  0  0
    2.5218   -0.5600   -0.6310 H   0  0  0  0  0  0  0  0  0  0  0  0
    1.9734    1.0525    0.0912 H   0  0  0  0  0  0  0  0  0  0  0  0
    1.3402   -1.2983    1.5310 H   0  0  0  0  0  0  0  0  0  0  0  0
   -2.1987    0.5511    1.3587 H   0  0  0  0  0  0  0  0  0  0  0  0
   -2.4624   -1.1878    0.6925 H   0  0  0  0  0  0  0  0  0  0  0  0
   -0.4522    1.6563   -0.0503 H   0  0  0  0  0  0  0  0  0  0  0  0
  1  2  2  0
  2  3  1  0
  3  4  1  0
  4  5  2  0
  5  6  1  0
  6  7  1  0
  7  8  1  0
  8  2  1  0
  8  5  1  0
  3  9  1  0
  3 10  1  0
  4 11  1  0
  6 12  1  0
  6 13  1  0
  8 14  1  0
M  END
