
     RDKit          3D

 15 15  0  0  0  0  0  0  0  0999 V2000
   -1.0601   -0.6205    2.2073 O   0  0  0  0  0  0  0  0  0  0  0  0
   -0.8430   -0.3713    1.0580 C   0  0  0  0  0  0  0  0  0  0  0  0
   -1.5772    0.2649   -0.0547 C   0  0  0  0  0  0  0  0  0  0  0  0
   -0.7203   -0.5402   -0.9995 C   0  0  0  0  0  0  0  0  0  0  0  0
    0.2835   -0.5663    0.1239 C   0  0  0  0  0  0  0  0  0  0  0  0
    1.1783    0.6675    0.1186 C   0  0  0  0  0  0  0  0  0  0  0  0
    2.2231    0.4236   -0.7785 O   0  0  0  0  0  0  0  0  0  0  0  0
   -1.3256    1.3407   -0.1500 H   0  0  0  0  0  0  0  0  0  0  0  0
   -2.6631    0.0394   -0.0960 H   0  0  0  0  0  0  0  0  0  0  0  0
   -0.3911   -0.0022   -1.9081 H   0  0  0  0  0  0  0  0  0  0  0  0
   -1.1881   -1.5361   -1.1741 H   0  0  0  0  0  0  0  0  0  0  0  0
    0.8418   -1.5163    0.2367 H   0  0  0  0  0  0  0  0  0  0  0  0
    1.6150    0.8702    1.1154 H   0  0  0  0  0  0  0  0  0  0  0  0
    0.6744    1.5739   -0.2153 H   0  0  0  0  0  0  0  0  0  0  0  0
    2.9525   -0.0273   -0.2918 H   0  0  0  0  0  0  0  0  0  0  0  0
  1  2  2  0
  2  3  1  0
  3  4  1  0
  4  5  1  0
  5  6  1  0
  6  7  1  0
  5  2  1  0
  3  8  1  0
  3  9  1  0
  4 10  1  0
  4 11  1  0
  5 12  1  0
  6 13  1  0
  6 14  1  0
  7 15  1  0
M  END
