
     RDKit          3D

 16 18  0  0  0  0  0  0  0  0999 V2000
   -1.4807    1.9255   -1.2498 O   0  0  0  0  0  0  0  0  0  0  0  0
   -0.9319    1.0318   -0.6672 C   0  0  0  0  0  0  0  0  0  0  0  0
   -1.5432   -0.2086   -0.1522 C   0  0  0  0  0  0  0  0  0  0  0  0
   -0.5729   -0.6728    0.9460 C   0  0  0  0  0  0  0  0  0  0  0  0
    0.7791   -0.9840    0.3982 C   0  0  0  0  0  0  0  0  0  0  0  0
    1.2285   -0.2586   -0.8293 C   0  0  0  0  0  0  0  0  0  0  0  0
    0.5080    0.9808   -0.3327 C   0  0  0  0  0  0  0  0  0  0  0  0
    0.4752    0.3254    1.0205 C   0  0  0  0  0  0  0  0  0  0  0  0
   -2.5426   -0.0815    0.2651 H   0  0  0  0  0  0  0  0  0  0  0  0
   -1.5463   -0.9635   -0.9903 H   0  0  0  0  0  0  0  0  0  0  0  0
   -0.9799   -1.2210    1.7950 H   0  0  0  0  0  0  0  0  0  0  0  0
    1.4328   -1.7244    0.8915 H   0  0  0  0  0  0  0  0  0  0  0  0
    0.8235   -0.6784   -1.7771 H   0  0  0  0  0  0  0  0  0  0  0  0
    2.3153   -0.1068   -0.8121 H   0  0  0  0  0  0  0  0  0  0  0  0
    1.0690    1.9126   -0.3929 H   0  0  0  0  0  0  0  0  0  0  0  0
    0.9661    0.7235    1.8873 H   0  0  0  0  0  0  0  0  0  0  0  0
  1  2  2  0
  2  3  1  0
  3  4  1  0
  4  5  1  0
  5  6  1  0
  6  7  1  0
  7  8  1  0
  7  2  1  0
  8  4  1  0
  8  5  1  0
  3  9  1  0
  3 10  1  0
  4 11  1  0
  5 12  1  0
  6 13  1  0
  6 14  1  0
  7 15  1  0
  8 16  1  0
M  END
