
     RDKit          3D

 17 18  0  0  0  0  0  0  0  0999 V2000
    2.6456    1.7380   -0.0301 O   0  0  0  0  0  0  0  0  0  0  0  0
    1.6231    1.0106   -0.0687 C   0  0  0  0  0  0  0  0  0  0  0  0
    1.5032   -0.4544   -0.3092 C   0  0  0  0  0  0  0  0  0  0  0  0
    0.0654   -0.7211   -0.5954 C   0  0  0  0  0  0  0  0  0  0  0  0
   -0.7277   -1.1513    0.6421 C   0  0  0  0  0  0  0  0  0  0  0  0
   -1.6689   -0.0164    0.3877 C   0  0  0  0  0  0  0  0  0  0  0  0
   -0.6847    0.5698   -0.5632 C   0  0  0  0  0  0  0  0  0  0  0  0
    0.2598    1.4894    0.1275 C   0  0  0  0  0  0  0  0  0  0  0  0
   -0.0602    2.5261    0.7842 O   0  0  0  0  0  0  0  0  0  0  0  0
    2.1624   -0.7533   -1.1576 H   0  0  0  0  0  0  0  0  0  0  0  0
    1.8065   -1.0579    0.5630 H   0  0  0  0  0  0  0  0  0  0  0  0
   -0.1329   -1.3745   -1.4832 H   0  0  0  0  0  0  0  0  0  0  0  0
   -1.1128   -2.1642    0.5145 H   0  0  0  0  0  0  0  0  0  0  0  0
   -0.1408   -0.9616    1.5668 H   0  0  0  0  0  0  0  0  0  0  0  0
   -2.6340   -0.2757   -0.1028 H   0  0  0  0  0  0  0  0  0  0  0  0
   -1.8307    0.6597    1.2525 H   0  0  0  0  0  0  0  0  0  0  0  0
   -1.0731    0.9369   -1.5282 H   0  0  0  0  0  0  0  0  0  0  0  0
  1  2  2  0
  2  3  1  0
  3  4  1  0
  4  5  1  0
  5  6  1  0
  6  7  1  0
  7  8  1  0
  8  9  2  0
  8  2  1  0
  7  4  1  0
  3 10  1  0
  3 11  1  0
  4 12  1  0
  5 13  1  0
  5 14  1  0
  6 15  1  0
  6 16  1  0
  7 17  1  0
M  END
