
     RDKit          3D

 15 17  0  0  0  0  0  0  0  0999 V2000
   -0.6860    2.5765    0.4011 O   0  0  0  0  0  0  0  0  0  0  0  0
   -0.3088    1.4628    0.1528 C   0  0  0  0  0  0  0  0  0  0  0  0
   -0.2072    0.1941    0.9108 C   0  0  0  0  0  0  0  0  0  0  0  0
   -1.3463   -0.7219    0.4782 C   0  0  0  0  0  0  0  0  0  0  0  0
   -0.9209   -1.4071   -0.6545 O   0  0  0  0  0  0  0  0  0  0  0  0
    0.1378   -0.6947   -1.1937 C   0  0  0  0  0  0  0  0  0  0  0  0
    0.2465    0.7707   -1.0184 C   0  0  0  0  0  0  0  0  0  0  0  0
    0.8651   -0.2026   -0.0400 C   0  0  0  0  0  0  0  0  0  0  0  0
    2.1723   -0.2538    0.2208 O   0  0  0  0  0  0  0  0  0  0  0  0
    0.0030    0.2441    1.9648 H   0  0  0  0  0  0  0  0  0  0  0  0
   -1.6351   -1.4307    1.2633 H   0  0  0  0  0  0  0  0  0  0  0  0
   -2.2265   -0.1003    0.1380 H   0  0  0  0  0  0  0  0  0  0  0  0
    0.6578   -1.1532   -2.0219 H   0  0  0  0  0  0  0  0  0  0  0  0
    0.9017    1.3055   -1.7320 H   0  0  0  0  0  0  0  0  0  0  0  0
    2.3466   -0.5893    1.1307 H   0  0  0  0  0  0  0  0  0  0  0  0
  1  2  2  0
  2  3  1  0
  3  4  1  0
  4  5  1  0
  5  6  1  0
  6  7  1  0
  7  8  1  0
  8  9  1  0
  7  2  1  0
  8  3  1  0
  8  6  1  0
  3 10  1  0
  4 11  1  0
  4 12  1  0
  6 13  1  0
  7 14  1  0
  9 15  1  0
M  END
