
     RDKit          3D

 15 17  0  0  0  0  0  0  0  0999 V2000
    0.0723    2.5323    0.5675 O   0  0  0  0  0  0  0  0  0  0  0  0
    0.1334    1.4062    0.1550 C   0  0  0  0  0  0  0  0  0  0  0  0
   -1.0028    0.6659   -0.4655 C   0  0  0  0  0  0  0  0  0  0  0  0
   -1.3180   -0.5000    0.4369 C   0  0  0  0  0  0  0  0  0  0  0  0
   -0.2293   -1.1019   -0.3926 C   0  0  0  0  0  0  0  0  0  0  0  0
   -0.6082   -0.2287   -1.4302 O   0  0  0  0  0  0  0  0  0  0  0  0
    1.1504   -0.7742    0.0539 C   0  0  0  0  0  0  0  0  0  0  0  0
    1.9096    0.0976   -0.9146 O   0  0  0  0  0  0  0  0  0  0  0  0
    1.4325    0.6564    0.2540 C   0  0  0  0  0  0  0  0  0  0  0  0
   -1.8106    1.3488   -0.7019 H   0  0  0  0  0  0  0  0  0  0  0  0
   -2.2927   -0.9616    0.2143 H   0  0  0  0  0  0  0  0  0  0  0  0
   -1.1432   -0.3681    1.5008 H   0  0  0  0  0  0  0  0  0  0  0  0
   -0.3280   -2.1741   -0.6340 H   0  0  0  0  0  0  0  0  0  0  0  0
    1.8670   -1.5752    0.3350 H   0  0  0  0  0  0  0  0  0  0  0  0
    2.1673    0.9766    1.0215 H   0  0  0  0  0  0  0  0  0  0  0  0
  1  2  2  0
  2  3  1  0
  3  4  1  0
  4  5  1  0
  5  6  1  0
  5  7  1  0
  7  8  1  0
  8  9  1  0
  9  2  1  0
  6  3  1  0
  9  7  1  0
  3 10  1  0
  4 11  1  0
  4 12  1  0
  5 13  1  0
  7 14  1  0
  9 15  1  0
M  END
