
     RDKit          3D

 17 18  0  0  0  0  0  0  0  0999 V2000
   -0.3049   -2.2263    1.3204 O   0  0  0  0  0  0  0  0  0  0  0  0
   -0.3474   -1.3687    0.4904 C   0  0  0  0  0  0  0  0  0  0  0  0
   -1.4970   -0.4511    0.2720 C   0  0  0  0  0  0  0  0  0  0  0  0
   -0.8631    0.5645   -0.6762 C   0  0  0  0  0  0  0  0  0  0  0  0
    0.0231    1.5318    0.0745 C   0  0  0  0  0  0  0  0  0  0  0  0
    1.3555    1.2891   -0.3099 O   0  0  0  0  0  0  0  0  0  0  0  0
    1.6398   -0.0056    0.1280 C   0  0  0  0  0  0  0  0  0  0  0  0
    0.6695   -0.9714   -0.5225 C   0  0  0  0  0  0  0  0  0  0  0  0
   -0.1027   -0.2806   -1.4866 O   0  0  0  0  0  0  0  0  0  0  0  0
   -2.2591   -0.9931   -0.3252 H   0  0  0  0  0  0  0  0  0  0  0  0
   -1.8757   -0.0015    1.1854 H   0  0  0  0  0  0  0  0  0  0  0  0
   -1.6030    1.0763   -1.2941 H   0  0  0  0  0  0  0  0  0  0  0  0
   -0.0118    1.3098    1.1642 H   0  0  0  0  0  0  0  0  0  0  0  0
   -0.1975    2.5768   -0.1647 H   0  0  0  0  0  0  0  0  0  0  0  0
    1.4950    0.0233    1.2451 H   0  0  0  0  0  0  0  0  0  0  0  0
    2.6907   -0.2351   -0.1332 H   0  0  0  0  0  0  0  0  0  0  0  0
    1.1885   -1.8382   -0.9678 H   0  0  0  0  0  0  0  0  0  0  0  0
  1  2  2  0
  2  3  1  0
  3  4  1  0
  4  5  1  0
  5  6  1  0
  6  7  1  0
  7  8  1  0
  8  9  1  0
  8  2  1  0
  9  4  1  0
  3 10  1  0
  3 11  1  0
  4 12  1  0
  5 13  1  0
  5 14  1  0
  7 15  1  0
  7 16  1  0
  8 17  1  0
M  END
