
     RDKit          3D

 19 19  0  0  0  0  0  0  0  0999 V2000
   -2.3789    1.1985   -1.5737 O   0  0  0  0  0  0  0  0  0  0  0  0
   -1.5496    0.6342   -0.8295 C   0  0  0  0  0  0  0  0  0  0  0  0
   -1.7539    0.6557    0.6093 C   0  0  0  0  0  0  0  0  0  0  0  0
   -1.0620   -0.1514    1.3671 C   0  0  0  0  0  0  0  0  0  0  0  0
   -0.0798   -1.0860    0.8241 C   0  0  0  0  0  0  0  0  0  0  0  0
    0.5413   -0.6590   -0.4695 C   0  0  0  0  0  0  0  0  0  0  0  0
    1.7586    0.1927   -0.1639 C   0  0  0  0  0  0  0  0  0  0  0  0
    1.3467    1.2972    0.5627 O   0  0  0  0  0  0  0  0  0  0  0  0
   -0.3938   -0.0330   -1.4374 C   0  0  0  0  0  0  0  0  0  0  0  0
   -2.4913    1.3554    1.0322 H   0  0  0  0  0  0  0  0  0  0  0  0
   -1.2241   -0.1241    2.4295 H   0  0  0  0  0  0  0  0  0  0  0  0
    0.7383   -1.1973    1.5657 H   0  0  0  0  0  0  0  0  0  0  0  0
   -0.5740   -2.0720    0.6954 H   0  0  0  0  0  0  0  0  0  0  0  0
    0.9427   -1.5991   -0.9532 H   0  0  0  0  0  0  0  0  0  0  0  0
    2.3099    0.4883   -1.0776 H   0  0  0  0  0  0  0  0  0  0  0  0
    2.4133   -0.4360    0.4922 H   0  0  0  0  0  0  0  0  0  0  0  0
    2.0869    1.5604    1.1801 H   0  0  0  0  0  0  0  0  0  0  0  0
    0.1565    0.7344   -2.0542 H   0  0  0  0  0  0  0  0  0  0  0  0
   -0.7866   -0.7588   -2.1993 H   0  0  0  0  0  0  0  0  0  0  0  0
  1  2  2  0
  2  3  1  0
  3  4  2  0
  4  5  1  0
  5  6  1  0
  6  7  1  0
  7  8  1  0
  6  9  1  0
  9  2  1  0
  3 10  1  0
  4 11  1  0
  5 12  1  0
  5 13  1  0
  6 14  1  0
  7 15  1  0
  7 16  1  0
  8 17  1  0
  9 18  1  0
  9 19  1  0
M  END
