
     RDKit          3D

 11 12  0  0  0  0  0  0  0  0999 V2000
   -1.8419   -0.1453    1.4852 O   0  0  0  0  0  0  0  0  0  0  0  0
   -1.0491   -0.2561    0.6074 C   0  0  0  0  0  0  0  0  0  0  0  0
    0.0230   -1.0785    0.0075 C   0  0  0  0  0  0  0  0  0  0  0  0
    1.2180   -0.1783    0.2150 C   0  0  0  0  0  0  0  0  0  0  0  0
    0.7097    0.9952   -0.1609 C   0  0  0  0  0  0  0  0  0  0  0  0
   -0.6772    0.5697   -0.5707 C   0  0  0  0  0  0  0  0  0  0  0  0
   -0.4611   -0.6421   -1.2234 O   0  0  0  0  0  0  0  0  0  0  0  0
    0.1145   -2.1021    0.2216 H   0  0  0  0  0  0  0  0  0  0  0  0
    2.2071   -0.4434    0.5736 H   0  0  0  0  0  0  0  0  0  0  0  0
    1.0971    1.9961   -0.1963 H   0  0  0  0  0  0  0  0  0  0  0  0
   -1.3402    1.2848   -0.9590 H   0  0  0  0  0  0  0  0  0  0  0  0
  1  2  2  0
  2  3  1  0
  3  4  1  0
  4  5  2  0
  5  6  1  0
  6  7  1  0
  6  2  1  0
  7  3  1  0
  3  8  1  0
  4  9  1  0
  5 10  1  0
  6 11  1  0
M  END
