
     RDKit          3D

 19 20  0  0  0  0  0  0  0  0999 V2000
    2.7366    0.7215   -1.2518 O   0  0  0  0  0  0  0  0  0  0  0  0
    1.7512    0.3925   -0.6299 C   0  0  0  0  0  0  0  0  0  0  0  0
    1.6964   -0.7152    0.3477 C   0  0  0  0  0  0  0  0  0  0  0  0
    0.4228   -0.3651    1.1189 C   0  0  0  0  0  0  0  0  0  0  0  0
   -0.4528    0.1540    0.0376 C   0  0  0  0  0  0  0  0  0  0  0  0
   -1.8133    0.6164    0.3810 C   0  0  0  0  0  0  0  0  0  0  0  0
   -2.2836    0.0966   -0.8200 O   0  0  0  0  0  0  0  0  0  0  0  0
   -1.2513   -0.8529   -0.7423 C   0  0  0  0  0  0  0  0  0  0  0  0
    0.4274    1.0597   -0.7545 C   0  0  0  0  0  0  0  0  0  0  0  0
    1.5059   -1.6968   -0.1174 H   0  0  0  0  0  0  0  0  0  0  0  0
    2.5227   -0.7081    1.0671 H   0  0  0  0  0  0  0  0  0  0  0  0
    0.6083    0.4478    1.8436 H   0  0  0  0  0  0  0  0  0  0  0  0
   -0.0393   -1.2483    1.5708 H   0  0  0  0  0  0  0  0  0  0  0  0
   -2.2363    0.0234    1.2339 H   0  0  0  0  0  0  0  0  0  0  0  0
   -1.9066    1.6954    0.5148 H   0  0  0  0  0  0  0  0  0  0  0  0
   -1.5349   -1.7036   -0.0891 H   0  0  0  0  0  0  0  0  0  0  0  0
   -0.8195   -1.1436   -1.7241 H   0  0  0  0  0  0  0  0  0  0  0  0
    0.5107    2.0318   -0.1897 H   0  0  0  0  0  0  0  0  0  0  0  0
    0.1556    1.1944   -1.7967 H   0  0  0  0  0  0  0  0  0  0  0  0
  1  2  2  0
  2  3  1  0
  3  4  1  0
  4  5  1  0
  5  6  1  0
  6  7  1  0
  7  8  1  0
  5  9  1  0
  9  2  1  0
  8  5  1  0
  3 10  1  0
  3 11  1  0
  4 12  1  0
  4 13  1  0
  6 14  1  0
  6 15  1  0
  8 16  1  0
  8 17  1  0
  9 18  1  0
  9 19  1  0
M  END
