
     RDKit          3D

 16 16  0  0  0  0  0  0  0  0999 V2000
   -0.9533    2.9374   -0.3178 O   0  0  0  0  0  0  0  0  0  0  0  0
   -0.7115    1.7219   -0.1356 C   0  0  0  0  0  0  0  0  0  0  0  0
   -1.7975    0.8181   -0.1789 O   0  0  0  0  0  0  0  0  0  0  0  0
   -1.7136   -0.6374    0.0760 C   0  0  0  0  0  0  0  0  0  0  0  0
   -0.3338   -0.9215    0.1141 C   0  0  0  0  0  0  0  0  0  0  0  0
    1.0608   -1.0184    0.1597 C   0  0  0  0  0  0  0  0  0  0  0  0
    1.5718    0.4474   -0.1038 C   0  0  0  0  0  0  0  0  0  0  0  0
    0.5884    1.3930    0.0881 O   0  0  0  0  0  0  0  0  0  0  0  0
   -2.3074   -1.1742   -0.7153 H   0  0  0  0  0  0  0  0  0  0  0  0
   -2.3210   -0.8653    0.9923 H   0  0  0  0  0  0  0  0  0  0  0  0
   -0.2586   -0.1720    0.9881 H   0  0  0  0  0  0  0  0  0  0  0  0
   -0.2479   -0.5078   -0.9567 H   0  0  0  0  0  0  0  0  0  0  0  0
    1.5372   -1.7097   -0.5849 H   0  0  0  0  0  0  0  0  0  0  0  0
    1.5363   -1.3857    1.1188 H   0  0  0  0  0  0  0  0  0  0  0  0
    1.9431    0.4245   -1.1397 H   0  0  0  0  0  0  0  0  0  0  0  0
    2.4071    0.6497    0.5955 H   0  0  0  0  0  0  0  0  0  0  0  0
  1  2  2  0
  2  3  1  0
  3  4  1  0
  4  5  1  0
  5  6  1  0
  6  7  1  0
  7  8  1  0
  8  2  1  0
  4  9  1  0
  4 10  1  0
  5 11  1  0
  5 12  1  0
  6 13  1  0
  6 14  1  0
  7 15  1  0
  7 16  1  0
M  END
