
     RDKit          3D

 17 18  0  0  0  0  0  0  0  0999 V2000
    0.8153   -0.8227   -2.0832 O   0  0  0  0  0  0  0  0  0  0  0  0
    0.8383   -0.4883   -0.9197 C   0  0  0  0  0  0  0  0  0  0  0  0
    2.0539   -0.2928   -0.0936 C   0  0  0  0  0  0  0  0  0  0  0  0
    1.5863    0.4346    1.1143 C   0  0  0  0  0  0  0  0  0  0  0  0
    0.2759    0.4874    1.1404 C   0  0  0  0  0  0  0  0  0  0  0  0
   -0.2915   -0.1967   -0.0445 C   0  0  0  0  0  0  0  0  0  0  0  0
   -1.4975   -1.0313    0.0503 C   0  0  0  0  0  0  0  0  0  0  0  0
   -1.5606    0.2944   -0.6452 C   0  0  0  0  0  0  0  0  0  0  0  0
   -2.1239    1.3942   -0.0081 O   0  0  0  0  0  0  0  0  0  0  0  0
    2.8259    0.3099   -0.6118 H   0  0  0  0  0  0  0  0  0  0  0  0
    2.4393   -1.3054    0.1590 H   0  0  0  0  0  0  0  0  0  0  0  0
    2.2352    0.8800    1.8986 H   0  0  0  0  0  0  0  0  0  0  0  0
   -0.3009    0.9770    1.9409 H   0  0  0  0  0  0  0  0  0  0  0  0
   -1.6606   -1.9422   -0.5341 H   0  0  0  0  0  0  0  0  0  0  0  0
   -1.9660   -1.0733    1.0715 H   0  0  0  0  0  0  0  0  0  0  0  0
   -1.6033    0.2272   -1.7597 H   0  0  0  0  0  0  0  0  0  0  0  0
   -2.0658    2.1481   -0.6750 H   0  0  0  0  0  0  0  0  0  0  0  0
  1  2  2  0
  2  3  1  0
  3  4  1  0
  4  5  2  0
  5  6  1  0
  6  7  1  0
  7  8  1  0
  8  9  1  0
  6  2  1  0
  8  6  1  0
  3 10  1  0
  3 11  1  0
  4 12  1  0
  5 13  1  0
  7 14  1  0
  7 15  1  0
  8 16  1  0
  9 17  1  0
M  END
