
     RDKit          3D

 17 18  0  0  0  0  0  0  0  0999 V2000
    2.1460    1.0957    1.7499 O   0  0  0  0  0  0  0  0  0  0  0  0
    1.3423    0.7389    0.9096 C   0  0  0  0  0  0  0  0  0  0  0  0
    0.2726    1.3794    0.0879 C   0  0  0  0  0  0  0  0  0  0  0  0
   -0.3295    0.0328   -0.0521 C   0  0  0  0  0  0  0  0  0  0  0  0
   -1.5016   -0.3371    0.7466 C   0  0  0  0  0  0  0  0  0  0  0  0
   -2.2365   -0.4281   -0.4581 O   0  0  0  0  0  0  0  0  0  0  0  0
   -1.0674   -0.3418   -1.2539 C   0  0  0  0  0  0  0  0  0  0  0  0
    0.9896   -0.5447    0.2411 C   0  0  0  0  0  0  0  0  0  0  0  0
    1.8194   -0.7920   -0.8503 O   0  0  0  0  0  0  0  0  0  0  0  0
    0.7490    1.7270   -0.8750 H   0  0  0  0  0  0  0  0  0  0  0  0
   -0.3076    2.1619    0.5834 H   0  0  0  0  0  0  0  0  0  0  0  0
   -1.8577    0.4276    1.4441 H   0  0  0  0  0  0  0  0  0  0  0  0
   -1.4069   -1.3758    1.1662 H   0  0  0  0  0  0  0  0  0  0  0  0
   -1.2353    0.4187   -2.0325 H   0  0  0  0  0  0  0  0  0  0  0  0
   -0.8832   -1.3375   -1.6978 H   0  0  0  0  0  0  0  0  0  0  0  0
    0.9540   -1.4287    0.8877 H   0  0  0  0  0  0  0  0  0  0  0  0
    2.5527   -1.3962   -0.5967 H   0  0  0  0  0  0  0  0  0  0  0  0
  1  2  2  0
  2  3  1  0
  3  4  1  0
  4  5  1  0
  5  6  1  0
  6  7  1  0
  4  8  1  0
  8  9  1  0
  8  2  1  0
  7  4  1  0
  3 10  1  0
  3 11  1  0
  5 12  1  0
  5 13  1  0
  7 14  1  0
  7 15  1  0
  8 16  1  0
  9 17  1  0
M  END
