
     RDKit          3D

 19 20  0  0  0  0  0  0  0  0999 V2000
    2.6593   -0.1389    1.3689 O   0  0  0  0  0  0  0  0  0  0  0  0
    1.7859   -0.1268    0.5194 C   0  0  0  0  0  0  0  0  0  0  0  0
    0.8745   -1.2735    0.2727 C   0  0  0  0  0  0  0  0  0  0  0  0
   -0.1885   -0.7851   -0.6502 C   0  0  0  0  0  0  0  0  0  0  0  0
   -1.5571   -1.0135   -0.1044 C   0  0  0  0  0  0  0  0  0  0  0  0
   -2.0005    0.0780    0.5123 C   0  0  0  0  0  0  0  0  0  0  0  0
   -0.9478    1.1506    0.4309 C   0  0  0  0  0  0  0  0  0  0  0  0
   -0.0584    0.7402   -0.6908 C   0  0  0  0  0  0  0  0  0  0  0  0
    1.3977    0.9388   -0.4435 C   0  0  0  0  0  0  0  0  0  0  0  0
    1.4224   -2.1328   -0.1356 H   0  0  0  0  0  0  0  0  0  0  0  0
    0.4803   -1.5803    1.2697 H   0  0  0  0  0  0  0  0  0  0  0  0
   -0.0478   -1.1717   -1.6602 H   0  0  0  0  0  0  0  0  0  0  0  0
   -2.1061   -1.9392   -0.2002 H   0  0  0  0  0  0  0  0  0  0  0  0
   -2.9762    0.1636    0.9952 H   0  0  0  0  0  0  0  0  0  0  0  0
   -1.4933    2.0978    0.2534 H   0  0  0  0  0  0  0  0  0  0  0  0
   -0.4495    1.1649    1.4063 H   0  0  0  0  0  0  0  0  0  0  0  0
   -0.3816    1.1400   -1.6677 H   0  0  0  0  0  0  0  0  0  0  0  0
    1.9316    0.7384   -1.4050 H   0  0  0  0  0  0  0  0  0  0  0  0
    1.6552    1.9493   -0.0713 H   0  0  0  0  0  0  0  0  0  0  0  0
  1  2  2  0
  2  3  1  0
  3  4  1  0
  4  5  1  0
  5  6  2  0
  6  7  1  0
  7  8  1  0
  8  9  1  0
  9  2  1  0
  8  4  1  0
  3 10  1  0
  3 11  1  0
  4 12  1  0
  5 13  1  0
  6 14  1  0
  7 15  1  0
  7 16  1  0
  8 17  1  0
  9 18  1  0
  9 19  1  0
M  END
