
     RDKit          3D

 14 15  0  0  0  0  0  0  0  0999 V2000
   -1.1580    2.3882    0.9211 O   0  0  0  0  0  0  0  0  0  0  0  0
   -0.9362    1.2575    0.5608 C   0  0  0  0  0  0  0  0  0  0  0  0
   -1.7588    0.1505    0.0712 C   0  0  0  0  0  0  0  0  0  0  0  0
   -0.7366   -0.0513   -0.9965 C   0  0  0  0  0  0  0  0  0  0  0  0
   -0.0242    0.1714    0.3068 C   0  0  0  0  0  0  0  0  0  0  0  0
    1.3458    0.1178    0.4972 C   0  0  0  0  0  0  0  0  0  0  0  0
    2.0143    1.1221   -0.2069 O   0  0  0  0  0  0  0  0  0  0  0  0
   -0.9692   -0.6747    0.8598 O   0  0  0  0  0  0  0  0  0  0  0  0
   -2.7604    0.1136   -0.0191 H   0  0  0  0  0  0  0  0  0  0  0  0
   -0.7012   -1.0871   -1.3470 H   0  0  0  0  0  0  0  0  0  0  0  0
   -0.6442    0.7465   -1.7465 H   0  0  0  0  0  0  0  0  0  0  0  0
    1.7865   -0.8451    0.1031 H   0  0  0  0  0  0  0  0  0  0  0  0
    1.6440    0.1461    1.5580 H   0  0  0  0  0  0  0  0  0  0  0  0
    2.8981    0.8048   -0.5618 H   0  0  0  0  0  0  0  0  0  0  0  0
  1  2  2  0
  2  3  1  0
  3  4  1  0
  4  5  1  0
  5  6  1  0
  6  7  1  0
  5  8  1  0
  5  2  1  0
  8  3  1  0
  3  9  1  0
  4 10  1  0
  4 11  1  0
  6 12  1  0
  6 13  1  0
  7 14  1  0
M  END
