
     RDKit          3D

 15 16  0  0  0  0  0  0  0  0999 V2000
    0.3179   -2.0504    1.2072 O   0  0  0  0  0  0  0  0  0  0  0  0
    0.7112   -1.0989    0.4877 C   0  0  0  0  0  0  0  0  0  0  0  0
    1.9994   -0.7264    0.1194 O   0  0  0  0  0  0  0  0  0  0  0  0
    1.9120    0.5675   -0.4969 C   0  0  0  0  0  0  0  0  0  0  0  0
    0.6186    0.6376   -1.0139 O   0  0  0  0  0  0  0  0  0  0  0  0
   -0.1567   -0.1110   -0.1621 C   0  0  0  0  0  0  0  0  0  0  0  0
   -1.0138    0.6579    0.8163 C   0  0  0  0  0  0  0  0  0  0  0  0
   -1.9217   -0.4228    0.7378 O   0  0  0  0  0  0  0  0  0  0  0  0
   -1.4934   -0.5405   -0.6065 C   0  0  0  0  0  0  0  0  0  0  0  0
    2.0442    1.3671    0.2847 H   0  0  0  0  0  0  0  0  0  0  0  0
    2.6908    0.6434   -1.2810 H   0  0  0  0  0  0  0  0  0  0  0  0
   -0.5720    0.8249    1.7949 H   0  0  0  0  0  0  0  0  0  0  0  0
   -1.5189    1.5439    0.3445 H   0  0  0  0  0  0  0  0  0  0  0  0
   -1.6174   -1.5417   -1.0371 H   0  0  0  0  0  0  0  0  0  0  0  0
   -2.0002    0.2494   -1.1949 H   0  0  0  0  0  0  0  0  0  0  0  0
  1  2  2  0
  2  3  1  0
  3  4  1  0
  4  5  1  0
  5  6  1  0
  6  7  1  0
  7  8  1  0
  8  9  1  0
  6  2  1  0
  9  6  1  0
  4 10  1  0
  4 11  1  0
  7 12  1  0
  7 13  1  0
  9 14  1  0
  9 15  1  0
M  END
