
     RDKit          3D

 17 18  0  0  0  0  0  0  0  0999 V2000
    2.1055   -0.0730    2.5880 O   0  0  0  0  0  0  0  0  0  0  0  0
    1.6950   -0.3257    1.4292 C   0  0  0  0  0  0  0  0  0  0  0  0
    2.3320    0.1696    0.1671 C   0  0  0  0  0  0  0  0  0  0  0  0
    1.4370   -0.0725   -0.8425 O   0  0  0  0  0  0  0  0  0  0  0  0
    0.2985   -0.6387   -0.3051 C   0  0  0  0  0  0  0  0  0  0  0  0
   -0.7694    0.4301   -0.2929 C   0  0  0  0  0  0  0  0  0  0  0  0
   -2.1259    0.1518    0.2204 C   0  0  0  0  0  0  0  0  0  0  0  0
   -1.9035    0.1638   -1.2545 C   0  0  0  0  0  0  0  0  0  0  0  0
    0.6130   -1.0804    1.0002 O   0  0  0  0  0  0  0  0  0  0  0  0
    3.2637   -0.3893   -0.0597 H   0  0  0  0  0  0  0  0  0  0  0  0
    2.6100    1.2347    0.2749 H   0  0  0  0  0  0  0  0  0  0  0  0
    0.0285   -1.5010   -0.9702 H   0  0  0  0  0  0  0  0  0  0  0  0
   -0.3736    1.4587   -0.1836 H   0  0  0  0  0  0  0  0  0  0  0  0
   -2.6810    1.0242    0.6221 H   0  0  0  0  0  0  0  0  0  0  0  0
   -2.3745   -0.7989    0.7223 H   0  0  0  0  0  0  0  0  0  0  0  0
   -2.1709    1.0474   -1.8657 H   0  0  0  0  0  0  0  0  0  0  0  0
   -1.9844   -0.8009   -1.7600 H   0  0  0  0  0  0  0  0  0  0  0  0
  1  2  2  0
  2  3  1  0
  3  4  1  0
  4  5  1  0
  5  6  1  0
  6  7  1  0
  7  8  1  0
  5  9  1  0
  9  2  1  0
  8  6  1  0
  3 10  1  0
  3 11  1  0
  5 12  1  0
  6 13  1  0
  7 14  1  0
  7 15  1  0
  8 16  1  0
  8 17  1  0
M  END
