
     RDKit          3D

 17 18  0  0  0  0  0  0  0  0999 V2000
    3.2016   -0.3356    0.4741 O   0  0  0  0  0  0  0  0  0  0  0  0
    2.1379    0.0879   -0.0825 C   0  0  0  0  0  0  0  0  0  0  0  0
    1.6467    1.3684    0.1232 O   0  0  0  0  0  0  0  0  0  0  0  0
    0.2795    1.5787    0.2196 C   0  0  0  0  0  0  0  0  0  0  0  0
   -0.5983    0.5808   -0.3961 C   0  0  0  0  0  0  0  0  0  0  0  0
   -1.3401   -0.2989    0.6133 C   0  0  0  0  0  0  0  0  0  0  0  0
   -0.5857   -1.5185    0.1262 C   0  0  0  0  0  0  0  0  0  0  0  0
    0.0184   -0.6283   -0.9676 C   0  0  0  0  0  0  0  0  0  0  0  0
    1.3955   -0.7123   -0.9385 O   0  0  0  0  0  0  0  0  0  0  0  0
    0.0760    2.6187   -0.1730 H   0  0  0  0  0  0  0  0  0  0  0  0
    0.0201    1.6588    1.3153 H   0  0  0  0  0  0  0  0  0  0  0  0
   -1.3543    1.0455   -1.0792 H   0  0  0  0  0  0  0  0  0  0  0  0
   -2.4188   -0.3598    0.4754 H   0  0  0  0  0  0  0  0  0  0  0  0
   -1.0649   -0.0177    1.6644 H   0  0  0  0  0  0  0  0  0  0  0  0
    0.1699   -1.8532    0.8858 H   0  0  0  0  0  0  0  0  0  0  0  0
   -1.2092   -2.3259   -0.2728 H   0  0  0  0  0  0  0  0  0  0  0  0
   -0.3742   -0.8886   -1.9876 H   0  0  0  0  0  0  0  0  0  0  0  0
  1  2  2  0
  2  3  1  0
  3  4  1  0
  4  5  1  0
  5  6  1  0
  6  7  1  0
  7  8  1  0
  8  9  1  0
  9  2  1  0
  8  5  1  0
  4 10  1  0
  4 11  1  0
  5 12  1  0
  6 13  1  0
  6 14  1  0
  7 15  1  0
  7 16  1  0
  8 17  1  0
M  END
