
     RDKit          3D

 19 20  0  0  0  0  0  0  0  0999 V2000
    0.7092   -1.9844    1.6068 O   0  0  0  0  0  0  0  0  0  0  0  0
    0.3947   -1.1248    0.8412 C   0  0  0  0  0  0  0  0  0  0  0  0
    1.3651   -0.4668   -0.0455 C   0  0  0  0  0  0  0  0  0  0  0  0
    2.3947    0.1744    0.6502 O   0  0  0  0  0  0  0  0  0  0  0  0
    0.7211    0.5658   -0.9458 C   0  0  0  0  0  0  0  0  0  0  0  0
   -0.6884    0.8644   -0.5536 C   0  0  0  0  0  0  0  0  0  0  0  0
   -1.4666   -0.4356   -0.6466 C   0  0  0  0  0  0  0  0  0  0  0  0
   -1.0204   -0.7004    0.7759 C   0  0  0  0  0  0  0  0  0  0  0  0
   -0.9539    0.8303    0.9265 C   0  0  0  0  0  0  0  0  0  0  0  0
    1.8590   -1.2865   -0.6468 H   0  0  0  0  0  0  0  0  0  0  0  0
    3.0575    0.4725   -0.0168 H   0  0  0  0  0  0  0  0  0  0  0  0
    1.3302    1.4924   -1.0254 H   0  0  0  0  0  0  0  0  0  0  0  0
    0.6966    0.1321   -1.9701 H   0  0  0  0  0  0  0  0  0  0  0  0
   -1.1258    1.7138   -1.0836 H   0  0  0  0  0  0  0  0  0  0  0  0
   -2.5511   -0.3319   -0.7121 H   0  0  0  0  0  0  0  0  0  0  0  0
   -0.9968   -1.1969   -1.3164 H   0  0  0  0  0  0  0  0  0  0  0  0
   -1.7286   -1.1934    1.4285 H   0  0  0  0  0  0  0  0  0  0  0  0
   -0.0987    1.1750    1.5455 H   0  0  0  0  0  0  0  0  0  0  0  0
   -1.8980    1.2998    1.1880 H   0  0  0  0  0  0  0  0  0  0  0  0
  1  2  2  0
  2  3  1  0
  3  4  1  0
  3  5  1  0
  5  6  1  0
  6  7  1  0
  7  8  1  0
  8  9  1  0
  8  2  1  0
  9  6  1  0
  3 10  1  0
  4 11  1  0
  5 12  1  0
  5 13  1  0
  6 14  1  0
  7 15  1  0
  7 16  1  0
  8 17  1  0
  9 18  1  0
  9 19  1  0
M  END
