
     RDKit          3D

 17 18  0  0  0  0  0  0  0  0999 V2000
   -1.5617   -0.5701    1.9853 O   0  0  0  0  0  0  0  0  0  0  0  0
   -1.2979   -0.4703    0.8002 C   0  0  0  0  0  0  0  0  0  0  0  0
   -1.5264    0.6659   -0.1707 C   0  0  0  0  0  0  0  0  0  0  0  0
   -0.3374    1.5314   -0.0601 C   0  0  0  0  0  0  0  0  0  0  0  0
    0.9101    1.2388    0.2653 C   0  0  0  0  0  0  0  0  0  0  0  0
    1.4890   -0.1544    0.3827 C   0  0  0  0  0  0  0  0  0  0  0  0
    0.7385   -1.0638   -0.5298 C   0  0  0  0  0  0  0  0  0  0  0  0
   -0.7127   -1.1655   -0.3315 C   0  0  0  0  0  0  0  0  0  0  0  0
   -1.4047   -0.2833   -1.1845 O   0  0  0  0  0  0  0  0  0  0  0  0
   -2.4990    1.1448   -0.1021 H   0  0  0  0  0  0  0  0  0  0  0  0
   -0.5150    2.5725   -0.2807 H   0  0  0  0  0  0  0  0  0  0  0  0
    1.6112    2.0451    0.4740 H   0  0  0  0  0  0  0  0  0  0  0  0
    1.4956   -0.4756    1.4347 H   0  0  0  0  0  0  0  0  0  0  0  0
    2.5212   -0.0602   -0.0448 H   0  0  0  0  0  0  0  0  0  0  0  0
    1.2507   -2.0701   -0.5163 H   0  0  0  0  0  0  0  0  0  0  0  0
    0.9268   -0.6908   -1.5802 H   0  0  0  0  0  0  0  0  0  0  0  0
   -1.0885   -2.1943   -0.5417 H   0  0  0  0  0  0  0  0  0  0  0  0
  1  2  2  0
  2  3  1  0
  3  4  1  0
  4  5  2  0
  5  6  1  0
  6  7  1  0
  7  8  1  0
  8  9  1  0
  8  2  1  0
  9  3  1  0
  3 10  1  0
  4 11  1  0
  5 12  1  0
  6 13  1  0
  6 14  1  0
  7 15  1  0
  7 16  1  0
  8 17  1  0
M  END
