
     RDKit          3D

 19 20  0  0  0  0  0  0  0  0999 V2000
   -3.1788    1.2611   -1.1154 O   0  0  0  0  0  0  0  0  0  0  0  0
   -2.1326    0.9409   -0.6511 C   0  0  0  0  0  0  0  0  0  0  0  0
   -1.5756    0.7862    0.7604 C   0  0  0  0  0  0  0  0  0  0  0  0
   -1.2028   -0.5552    0.1139 C   0  0  0  0  0  0  0  0  0  0  0  0
   -0.1487   -0.7880   -0.8338 C   0  0  0  0  0  0  0  0  0  0  0  0
    1.1821   -1.1336   -0.2150 C   0  0  0  0  0  0  0  0  0  0  0  0
    1.7557   -0.0882    0.6950 C   0  0  0  0  0  0  0  0  0  0  0  0
    2.0238    1.1233    0.1225 O   0  0  0  0  0  0  0  0  0  0  0  0
   -0.7400    0.5020   -0.9752 C   0  0  0  0  0  0  0  0  0  0  0  0
   -2.3311    0.6792    1.5294 H   0  0  0  0  0  0  0  0  0  0  0  0
   -0.7228    1.4516    0.9538 H   0  0  0  0  0  0  0  0  0  0  0  0
   -2.1917   -1.0471   -0.1564 H   0  0  0  0  0  0  0  0  0  0  0  0
   -0.3570   -1.4934   -1.7093 H   0  0  0  0  0  0  0  0  0  0  0  0
    1.0944   -2.0574    0.4394 H   0  0  0  0  0  0  0  0  0  0  0  0
    1.9242   -1.4444   -0.9838 H   0  0  0  0  0  0  0  0  0  0  0  0
    1.0916    0.0135    1.5830 H   0  0  0  0  0  0  0  0  0  0  0  0
    2.7256   -0.5271    1.0771 H   0  0  0  0  0  0  0  0  0  0  0  0
    2.8769    1.0475   -0.3920 H   0  0  0  0  0  0  0  0  0  0  0  0
   -0.0932    1.3292   -0.6158 H   0  0  0  0  0  0  0  0  0  0  0  0
  1  2  2  0
  2  3  1  0
  3  4  1  0
  4  5  1  0
  5  6  1  0
  6  7  1  0
  7  8  1  0
  5  9  1  0
  9  2  1  0
  9  4  1  0
  3 10  1  0
  3 11  1  0
  4 12  1  0
  5 13  1  0
  6 14  1  0
  6 15  1  0
  7 16  1  0
  7 17  1  0
  8 18  1  0
  9 19  1  0
M  END
