
     RDKit          3D

 13 14  0  0  0  0  0  0  0  0999 V2000
   -0.3904    0.3990    2.1590 O   0  0  0  0  0  0  0  0  0  0  0  0
   -0.4843    0.0622    1.0078 C   0  0  0  0  0  0  0  0  0  0  0  0
   -1.6175   -0.6670    0.4039 C   0  0  0  0  0  0  0  0  0  0  0  0
   -1.5797   -0.2725   -0.9617 O   0  0  0  0  0  0  0  0  0  0  0  0
   -0.3788    0.3307   -1.2688 C   0  0  0  0  0  0  0  0  0  0  0  0
   -0.0141    0.8450   -2.3527 O   0  0  0  0  0  0  0  0  0  0  0  0
    0.4751    0.2830   -0.0608 C   0  0  0  0  0  0  0  0  0  0  0  0
    1.8223    0.5020   -0.0462 C   0  0  0  0  0  0  0  0  0  0  0  0
    1.4366   -0.8393   -0.2053 O   0  0  0  0  0  0  0  0  0  0  0  0
   -2.5978   -0.4152    0.8605 H   0  0  0  0  0  0  0  0  0  0  0  0
   -1.4456   -1.7614    0.5173 H   0  0  0  0  0  0  0  0  0  0  0  0
    2.3645    0.8758   -0.9410 H   0  0  0  0  0  0  0  0  0  0  0  0
    2.4097    0.6578    0.8880 H   0  0  0  0  0  0  0  0  0  0  0  0
  1  2  2  0
  2  3  1  0
  3  4  1  0
  4  5  1  0
  5  6  2  0
  5  7  1  0
  7  8  1  0
  8  9  1  0
  7  2  1  0
  9  7  1  0
  3 10  1  0
  3 11  1  0
  8 12  1  0
  8 13  1  0
M  END
