
     RDKit          3D

 17 18  0  0  0  0  0  0  0  0999 V2000
    1.5398    2.0350   -0.5190 O   0  0  0  0  0  0  0  0  0  0  0  0
    1.0362    1.0297   -0.1308 C   0  0  0  0  0  0  0  0  0  0  0  0
    1.5020    0.1727    0.9961 C   0  0  0  0  0  0  0  0  0  0  0  0
    0.5984   -0.9385    0.9626 O   0  0  0  0  0  0  0  0  0  0  0  0
    0.5356   -1.0954   -0.3990 C   0  0  0  0  0  0  0  0  0  0  0  0
   -0.3902   -0.7875   -1.4047 C   0  0  0  0  0  0  0  0  0  0  0  0
   -0.1372    0.3315   -0.5937 C   0  0  0  0  0  0  0  0  0  0  0  0
   -1.2633    0.6390    0.4269 C   0  0  0  0  0  0  0  0  0  0  0  0
   -2.4419    0.0031    0.0598 O   0  0  0  0  0  0  0  0  0  0  0  0
    1.4584    0.6715    1.9703 H   0  0  0  0  0  0  0  0  0  0  0  0
    2.4994   -0.2399    0.7391 H   0  0  0  0  0  0  0  0  0  0  0  0
    1.6087   -1.1739   -0.7694 H   0  0  0  0  0  0  0  0  0  0  0  0
   -1.3968   -1.2808   -1.3747 H   0  0  0  0  0  0  0  0  0  0  0  0
   -0.0704   -0.7317   -2.4800 H   0  0  0  0  0  0  0  0  0  0  0  0
   -0.9801    0.2796    1.4251 H   0  0  0  0  0  0  0  0  0  0  0  0
   -1.3663    1.7478    0.3681 H   0  0  0  0  0  0  0  0  0  0  0  0
   -2.7322   -0.6623    0.7232 H   0  0  0  0  0  0  0  0  0  0  0  0
  1  2  2  0
  2  3  1  0
  3  4  1  0
  4  5  1  0
  5  6  1  0
  6  7  1  0
  7  8  1  0
  8  9  1  0
  7  2  1  0
  7  5  1  0
  3 10  1  0
  3 11  1  0
  5 12  1  0
  6 13  1  0
  6 14  1  0
  8 15  1  0
  8 16  1  0
  9 17  1  0
M  END
