
     RDKit          3D

 19 20  0  0  0  0  0  0  0  0999 V2000
   -0.7183    0.0564   -2.5469 O   0  0  0  0  0  0  0  0  0  0  0  0
   -0.4768    0.0553   -1.3799 C   0  0  0  0  0  0  0  0  0  0  0  0
   -0.6048    1.1660   -0.4046 C   0  0  0  0  0  0  0  0  0  0  0  0
    0.7483    1.5514    0.0896 C   0  0  0  0  0  0  0  0  0  0  0  0
    1.6632    0.6132    0.2431 C   0  0  0  0  0  0  0  0  0  0  0  0
    1.4035   -0.8316   -0.0198 C   0  0  0  0  0  0  0  0  0  0  0  0
    0.0257   -1.0849   -0.5861 C   0  0  0  0  0  0  0  0  0  0  0  0
   -0.9332   -1.0220    0.6126 C   0  0  0  0  0  0  0  0  0  0  0  0
   -1.3535    0.4195    0.7166 C   0  0  0  0  0  0  0  0  0  0  0  0
   -1.1852    2.0171   -0.7789 H   0  0  0  0  0  0  0  0  0  0  0  0
    0.9797    2.5711    0.3178 H   0  0  0  0  0  0  0  0  0  0  0  0
    2.6452    0.8823    0.5714 H   0  0  0  0  0  0  0  0  0  0  0  0
    1.4592   -1.3598    0.9562 H   0  0  0  0  0  0  0  0  0  0  0  0
    2.1579   -1.2344   -0.7220 H   0  0  0  0  0  0  0  0  0  0  0  0
   -0.0225   -2.0455   -1.0903 H   0  0  0  0  0  0  0  0  0  0  0  0
   -1.7673   -1.7093    0.3942 H   0  0  0  0  0  0  0  0  0  0  0  0
   -0.4248   -1.3697    1.5266 H   0  0  0  0  0  0  0  0  0  0  0  0
   -2.4294    0.4630    0.4048 H   0  0  0  0  0  0  0  0  0  0  0  0
   -1.1670    0.8619    1.6955 H   0  0  0  0  0  0  0  0  0  0  0  0
  1  2  2  0
  2  3  1  0
  3  4  1  0
  4  5  2  0
  5  6  1  0
  6  7  1  0
  7  8  1  0
  8  9  1  0
  7  2  1  0
  9  3  1  0
  3 10  1  0
  4 11  1  0
  5 12  1  0
  6 13  1  0
  6 14  1  0
  7 15  1  0
  8 16  1  0
  8 17  1  0
  9 18  1  0
  9 19  1  0
M  END
