
     RDKit          3D

 13 14  0  0  0  0  0  0  0  0999 V2000
    1.9252    1.8570   -0.3204 O   0  0  0  0  0  0  0  0  0  0  0  0
    1.1791    0.8569   -0.3425 C   0  0  0  0  0  0  0  0  0  0  0  0
    1.4223   -0.5773   -0.2294 C   0  0  0  0  0  0  0  0  0  0  0  0
    2.4532   -1.2616   -0.0778 O   0  0  0  0  0  0  0  0  0  0  0  0
    0.0105   -1.0637   -0.3505 C   0  0  0  0  0  0  0  0  0  0  0  0
   -0.4820   -0.2590   -1.3752 O   0  0  0  0  0  0  0  0  0  0  0  0
   -0.3165    0.8217   -0.5054 C   0  0  0  0  0  0  0  0  0  0  0  0
   -0.6932   -0.1277    0.6004 C   0  0  0  0  0  0  0  0  0  0  0  0
   -2.0249   -0.3442    0.8104 O   0  0  0  0  0  0  0  0  0  0  0  0
   -0.1859   -2.0964   -0.3338 H   0  0  0  0  0  0  0  0  0  0  0  0
   -0.8397    1.7203   -0.6575 H   0  0  0  0  0  0  0  0  0  0  0  0
   -0.0523    0.0538    1.4821 H   0  0  0  0  0  0  0  0  0  0  0  0
   -2.3958    0.4203    1.2997 H   0  0  0  0  0  0  0  0  0  0  0  0
  1  2  2  0
  2  3  1  0
  3  4  2  0
  3  5  1  0
  5  6  1  0
  6  7  1  0
  7  8  1  0
  8  9  1  0
  7  2  1  0
  8  5  1  0
  5 10  1  0
  7 11  1  0
  8 12  1  0
  9 13  1  0
M  END
