
     RDKit          3D

 17 18  0  0  0  0  0  0  0  0999 V2000
    1.9880    0.6666    2.4863 O   0  0  0  0  0  0  0  0  0  0  0  0
    1.6101    0.5266    1.3058 C   0  0  0  0  0  0  0  0  0  0  0  0
    1.8763    1.2359    0.1434 O   0  0  0  0  0  0  0  0  0  0  0  0
    1.5321    0.1122   -0.6801 C   0  0  0  0  0  0  0  0  0  0  0  0
    0.7530   -0.3701    0.5199 C   0  0  0  0  0  0  0  0  0  0  0  0
   -0.7138   -0.0457    0.5116 C   0  0  0  0  0  0  0  0  0  0  0  0
   -1.4379   -1.0679   -0.3425 C   0  0  0  0  0  0  0  0  0  0  0  0
   -1.3324   -0.2179   -1.4530 O   0  0  0  0  0  0  0  0  0  0  0  0
   -1.2079    0.8360   -0.5776 C   0  0  0  0  0  0  0  0  0  0  0  0
    0.9319    0.4133   -1.5464 H   0  0  0  0  0  0  0  0  0  0  0  0
    2.4039   -0.5356   -0.8935 H   0  0  0  0  0  0  0  0  0  0  0  0
    0.9343   -1.4327    0.7973 H   0  0  0  0  0  0  0  0  0  0  0  0
   -1.1401    0.1078    1.5176 H   0  0  0  0  0  0  0  0  0  0  0  0
   -2.4967   -1.1393   -0.0495 H   0  0  0  0  0  0  0  0  0  0  0  0
   -0.8989   -1.9998   -0.5353 H   0  0  0  0  0  0  0  0  0  0  0  0
   -0.5735    1.6798   -0.8882 H   0  0  0  0  0  0  0  0  0  0  0  0
   -2.2284    1.2308   -0.3159 H   0  0  0  0  0  0  0  0  0  0  0  0
  1  2  2  0
  2  3  1  0
  3  4  1  0
  4  5  1  0
  5  6  1  0
  6  7  1  0
  7  8  1  0
  8  9  1  0
  5  2  1  0
  9  6  1  0
  4 10  1  0
  4 11  1  0
  5 12  1  0
  6 13  1  0
  7 14  1  0
  7 15  1  0
  9 16  1  0
  9 17  1  0
M  END
