
     RDKit          3D

 17 18  0  0  0  0  0  0  0  0999 V2000
    0.0978   -0.4370    2.5208 O   0  0  0  0  0  0  0  0  0  0  0  0
   -0.0404   -0.3145    1.3476 C   0  0  0  0  0  0  0  0  0  0  0  0
   -1.2717   -0.0679    0.5002 C   0  0  0  0  0  0  0  0  0  0  0  0
   -1.0532   -1.1760   -0.4949 C   0  0  0  0  0  0  0  0  0  0  0  0
    0.2692   -1.3678   -0.6574 C   0  0  0  0  0  0  0  0  0  0  0  0
    0.9297   -0.3485    0.1941 C   0  0  0  0  0  0  0  0  0  0  0  0
    2.2033   -0.5427    0.5127 O   0  0  0  0  0  0  0  0  0  0  0  0
    0.5933    1.0002   -0.4444 C   0  0  0  0  0  0  0  0  0  0  0  0
   -0.8916    1.2246   -0.1385 C   0  0  0  0  0  0  0  0  0  0  0  0
   -2.1878   -0.1152    1.0351 H   0  0  0  0  0  0  0  0  0  0  0  0
   -1.8035   -1.7603   -1.0261 H   0  0  0  0  0  0  0  0  0  0  0  0
    0.7842   -2.0913   -1.2635 H   0  0  0  0  0  0  0  0  0  0  0  0
    2.7992   -0.1864   -0.1733 H   0  0  0  0  0  0  0  0  0  0  0  0
    0.7260    0.9233   -1.5421 H   0  0  0  0  0  0  0  0  0  0  0  0
    1.2272    1.7629    0.0096 H   0  0  0  0  0  0  0  0  0  0  0  0
   -0.9215    2.0127    0.6539 H   0  0  0  0  0  0  0  0  0  0  0  0
   -1.4602    1.4838   -1.0337 H   0  0  0  0  0  0  0  0  0  0  0  0
  1  2  2  0
  2  3  1  0
  3  4  1  0
  4  5  2  0
  5  6  1  0
  6  7  1  0
  6  8  1  0
  8  9  1  0
  6  2  1  0
  9  3  1  0
  3 10  1  0
  4 11  1  0
  5 12  1  0
  7 13  1  0
  8 14  1  0
  8 15  1  0
  9 16  1  0
  9 17  1  0
M  END
