
     RDKit          3D

 17 19  0  0  0  0  0  0  0  0999 V2000
   -0.8301   -2.1970   -1.1347 O   0  0  0  0  0  0  0  0  0  0  0  0
   -0.8370   -1.1049   -0.5949 C   0  0  0  0  0  0  0  0  0  0  0  0
   -1.1310    0.3171   -0.9289 C   0  0  0  0  0  0  0  0  0  0  0  0
   -1.4790    0.5282    0.5274 C   0  0  0  0  0  0  0  0  0  0  0  0
   -0.5254   -0.6398    0.7789 C   0  0  0  0  0  0  0  0  0  0  0  0
    0.8641   -0.0413    0.7855 C   0  0  0  0  0  0  0  0  0  0  0  0
    1.8672   -0.3769   -0.2209 C   0  0  0  0  0  0  0  0  0  0  0  0
    1.0370    0.8912   -0.3449 C   0  0  0  0  0  0  0  0  0  0  0  0
    0.0280    0.9572   -1.2507 O   0  0  0  0  0  0  0  0  0  0  0  0
   -1.9279    0.4753   -1.6480 H   0  0  0  0  0  0  0  0  0  0  0  0
   -1.1178    1.4852    0.9127 H   0  0  0  0  0  0  0  0  0  0  0  0
   -2.5124    0.2874    0.7938 H   0  0  0  0  0  0  0  0  0  0  0  0
   -0.7862   -1.2958    1.6014 H   0  0  0  0  0  0  0  0  0  0  0  0
    1.1358    0.3896    1.7914 H   0  0  0  0  0  0  0  0  0  0  0  0
    2.9288   -0.2970    0.0851 H   0  0  0  0  0  0  0  0  0  0  0  0
    1.6334   -1.1925   -0.9260 H   0  0  0  0  0  0  0  0  0  0  0  0
    1.6524    1.8142   -0.2273 H   0  0  0  0  0  0  0  0  0  0  0  0
  1  2  2  0
  2  3  1  0
  3  4  1  0
  4  5  1  0
  5  6  1  0
  6  7  1  0
  7  8  1  0
  8  9  1  0
  5  2  1  0
  8  6  1  0
  9  3  1  0
  3 10  1  0
  4 11  1  0
  4 12  1  0
  5 13  1  0
  6 14  1  0
  7 15  1  0
  7 16  1  0
  8 17  1  0
M  END
