
     RDKit          3D

 19 19  0  0  0  0  0  0  0  0999 V2000
    0.4615    2.2484    0.3054 O   0  0  0  0  0  0  0  0  0  0  0  0
   -0.0153    1.2185   -0.0492 C   0  0  0  0  0  0  0  0  0  0  0  0
   -1.4413    1.0800   -0.3315 C   0  0  0  0  0  0  0  0  0  0  0  0
   -1.9918   -0.2193    0.1667 C   0  0  0  0  0  0  0  0  0  0  0  0
   -0.9928   -1.3158    0.2989 C   0  0  0  0  0  0  0  0  0  0  0  0
    0.2802   -0.9403    0.6200 O   0  0  0  0  0  0  0  0  0  0  0  0
    0.8243    0.0278   -0.2197 C   0  0  0  0  0  0  0  0  0  0  0  0
    2.2491    0.2548    0.2581 C   0  0  0  0  0  0  0  0  0  0  0  0
    2.9796   -0.9252    0.1821 O   0  0  0  0  0  0  0  0  0  0  0  0
   -1.6547    1.1888   -1.4343 H   0  0  0  0  0  0  0  0  0  0  0  0
   -2.0225    1.9243    0.1352 H   0  0  0  0  0  0  0  0  0  0  0  0
   -2.5310   -0.0367    1.1249 H   0  0  0  0  0  0  0  0  0  0  0  0
   -2.7738   -0.5552   -0.5468 H   0  0  0  0  0  0  0  0  0  0  0  0
   -0.9372   -1.9679   -0.6136 H   0  0  0  0  0  0  0  0  0  0  0  0
   -1.3408   -1.9908    1.1161 H   0  0  0  0  0  0  0  0  0  0  0  0
    0.8112   -0.3358   -1.2647 H   0  0  0  0  0  0  0  0  0  0  0  0
    2.2599    0.5696    1.3182 H   0  0  0  0  0  0  0  0  0  0  0  0
    2.7773    1.0172   -0.3315 H   0  0  0  0  0  0  0  0  0  0  0  0
    3.0581   -1.2422   -0.7343 H   0  0  0  0  0  0  0  0  0  0  0  0
  1  2  2  0
  2  3  1  0
  3  4  1  0
  4  5  1  0
  5  6  1  0
  6  7  1  0
  7  8  1  0
  8  9  1  0
  7  2  1  0
  3 10  1  0
  3 11  1  0
  4 12  1  0
  4 13  1  0
  5 14  1  0
  5 15  1  0
  7 16  1  0
  8 17  1  0
  8 18  1  0
  9 19  1  0
M  END
