
     RDKit          3D

 21 22  0  0  0  0  0  0  0  0999 V2000
   -2.9643    0.0448   -0.1901 O   0  0  0  0  0  0  0  0  0  0  0  0
   -1.7140    0.0362   -0.1578 C   0  0  0  0  0  0  0  0  0  0  0  0
   -1.2354   -1.3389   -0.1262 C   0  0  0  0  0  0  0  0  0  0  0  0
    0.2083   -1.5859   -0.3244 C   0  0  0  0  0  0  0  0  0  0  0  0
    1.0006   -0.6615    0.5156 C   0  0  0  0  0  0  0  0  0  0  0  0
    2.2544   -0.0203    0.1927 C   0  0  0  0  0  0  0  0  0  0  0  0
    1.0853    0.6523   -0.3033 C   0  0  0  0  0  0  0  0  0  0  0  0
    0.1881    1.5848    0.4065 C   0  0  0  0  0  0  0  0  0  0  0  0
   -1.2018    1.4013   -0.1639 C   0  0  0  0  0  0  0  0  0  0  0  0
   -1.5735   -1.7934    0.8514 H   0  0  0  0  0  0  0  0  0  0  0  0
   -1.7915   -1.9388   -0.9026 H   0  0  0  0  0  0  0  0  0  0  0  0
    0.4308   -2.6276   -0.0125 H   0  0  0  0  0  0  0  0  0  0  0  0
    0.5127   -1.4583   -1.3817 H   0  0  0  0  0  0  0  0  0  0  0  0
    0.6512   -0.6054    1.5642 H   0  0  0  0  0  0  0  0  0  0  0  0
    2.9118   -0.5322   -0.5510 H   0  0  0  0  0  0  0  0  0  0  0  0
    2.8758    0.3505    1.0532 H   0  0  0  0  0  0  0  0  0  0  0  0
    0.8799    0.5946   -1.3976 H   0  0  0  0  0  0  0  0  0  0  0  0
    0.4481    2.6440    0.3371 H   0  0  0  0  0  0  0  0  0  0  0  0
    0.0903    1.3658    1.5094 H   0  0  0  0  0  0  0  0  0  0  0  0
   -1.1361    1.7617   -1.2321 H   0  0  0  0  0  0  0  0  0  0  0  0
   -1.9207    2.1264    0.3132 H   0  0  0  0  0  0  0  0  0  0  0  0
  1  2  2  0
  2  3  1  0
  3  4  1  0
  4  5  1  0
  5  6  1  0
  6  7  1  0
  7  8  1  0
  8  9  1  0
  9  2  1  0
  7  5  1  0
  3 10  1  0
  3 11  1  0
  4 12  1  0
  4 13  1  0
  5 14  1  0
  6 15  1  0
  6 16  1  0
  7 17  1  0
  8 18  1  0
  8 19  1  0
  9 20  1  0
  9 21  1  0
M  END
