
     RDKit          3D

 15 16  0  0  0  0  0  0  0  0999 V2000
    0.3198    2.3168   -0.4334 O   0  0  0  0  0  0  0  0  0  0  0  0
   -0.1634    1.2159   -0.4103 C   0  0  0  0  0  0  0  0  0  0  0  0
   -1.5126    0.7663    0.0779 C   0  0  0  0  0  0  0  0  0  0  0  0
   -1.2817   -0.6172    0.5855 C   0  0  0  0  0  0  0  0  0  0  0  0
   -2.0608   -1.2169    1.2671 O   0  0  0  0  0  0  0  0  0  0  0  0
    0.0366   -1.0472    0.0886 C   0  0  0  0  0  0  0  0  0  0  0  0
    1.0941   -0.6766    0.9271 O   0  0  0  0  0  0  0  0  0  0  0  0
    1.8172   -0.2214   -0.1982 C   0  0  0  0  0  0  0  0  0  0  0  0
    0.5024   -0.0162   -0.8860 C   0  0  0  0  0  0  0  0  0  0  0  0
   -2.1741    0.7143   -0.7917 H   0  0  0  0  0  0  0  0  0  0  0  0
   -1.8547    1.4249    0.8764 H   0  0  0  0  0  0  0  0  0  0  0  0
    0.0642   -2.0756   -0.2903 H   0  0  0  0  0  0  0  0  0  0  0  0
    2.3396    0.7279   -0.0580 H   0  0  0  0  0  0  0  0  0  0  0  0
    2.4340   -1.0502   -0.5796 H   0  0  0  0  0  0  0  0  0  0  0  0
    0.4394   -0.2450   -1.9432 H   0  0  0  0  0  0  0  0  0  0  0  0
  1  2  2  0
  2  3  1  0
  3  4  1  0
  4  5  2  0
  4  6  1  0
  6  7  1  0
  7  8  1  0
  8  9  1  0
  9  2  1  0
  9  6  1  0
  3 10  1  0
  3 11  1  0
  6 12  1  0
  8 13  1  0
  8 14  1  0
  9 15  1  0
M  END
