
     RDKit          3D

 16 17  0  0  0  0  0  0  0  0999 V2000
   -1.4165    0.5719    2.1677 O   0  0  0  0  0  0  0  0  0  0  0  0
   -1.0224    0.3945    1.0501 C   0  0  0  0  0  0  0  0  0  0  0  0
   -0.5861   -0.8382    0.3181 C   0  0  0  0  0  0  0  0  0  0  0  0
    0.9313   -0.8333    0.4081 C   0  0  0  0  0  0  0  0  0  0  0  0
    1.4656    0.3829   -0.2752 C   0  0  0  0  0  0  0  0  0  0  0  0
    0.6070    1.4401   -0.3450 O   0  0  0  0  0  0  0  0  0  0  0  0
   -0.7256    1.1345   -0.2175 C   0  0  0  0  0  0  0  0  0  0  0  0
   -1.0453   -0.1607   -0.9548 C   0  0  0  0  0  0  0  0  0  0  0  0
   -1.0846   -1.7616    0.5925 H   0  0  0  0  0  0  0  0  0  0  0  0
    1.1561   -0.7368    1.5111 H   0  0  0  0  0  0  0  0  0  0  0  0
    1.3832   -1.7687    0.0690 H   0  0  0  0  0  0  0  0  0  0  0  0
    2.3655    0.7388    0.3095 H   0  0  0  0  0  0  0  0  0  0  0  0
    1.8857    0.1348   -1.2888 H   0  0  0  0  0  0  0  0  0  0  0  0
   -1.3828    1.9740   -0.4177 H   0  0  0  0  0  0  0  0  0  0  0  0
   -2.1219   -0.3015   -1.1035 H   0  0  0  0  0  0  0  0  0  0  0  0
   -0.4092   -0.3707   -1.8238 H   0  0  0  0  0  0  0  0  0  0  0  0
  1  2  2  0
  2  3  1  0
  3  4  1  0
  4  5  1  0
  5  6  1  0
  6  7  1  0
  7  8  1  0
  7  2  1  0
  8  3  1  0
  3  9  1  0
  4 10  1  0
  4 11  1  0
  5 12  1  0
  5 13  1  0
  7 14  1  0
  8 15  1  0
  8 16  1  0
M  END
