
     RDKit          3D

 15 17  0  0  0  0  0  0  0  0999 V2000
    2.5141    1.3811   -0.4347 O   0  0  0  0  0  0  0  0  0  0  0  0
    1.4295    0.9127   -0.0069 C   0  0  0  0  0  0  0  0  0  0  0  0
    1.4180   -0.5298    0.4108 C   0  0  0  0  0  0  0  0  0  0  0  0
    0.0754   -1.0790   -0.0917 C   0  0  0  0  0  0  0  0  0  0  0  0
   -0.2015   -0.6007   -1.3895 O   0  0  0  0  0  0  0  0  0  0  0  0
   -1.3019    0.0505   -0.8865 C   0  0  0  0  0  0  0  0  0  0  0  0
   -1.0119    1.1422    0.0894 C   0  0  0  0  0  0  0  0  0  0  0  0
    0.2940    1.6875    0.0773 O   0  0  0  0  0  0  0  0  0  0  0  0
   -0.9922   -0.2526    0.5158 C   0  0  0  0  0  0  0  0  0  0  0  0
    1.3716   -0.5394    1.5115 H   0  0  0  0  0  0  0  0  0  0  0  0
    2.2628   -1.0830    0.0047 H   0  0  0  0  0  0  0  0  0  0  0  0
   -0.0102   -2.1643   -0.0657 H   0  0  0  0  0  0  0  0  0  0  0  0
   -2.2968   -0.0792   -1.3356 H   0  0  0  0  0  0  0  0  0  0  0  0
   -1.8269    1.8057    0.3736 H   0  0  0  0  0  0  0  0  0  0  0  0
   -1.7240   -0.6517    1.2276 H   0  0  0  0  0  0  0  0  0  0  0  0
  1  2  2  0
  2  3  1  0
  3  4  1  0
  4  5  1  0
  5  6  1  0
  6  7  1  0
  7  8  1  0
  7  9  1  0
  8  2  1  0
  9  4  1  0
  9  6  1  0
  3 10  1  0
  3 11  1  0
  4 12  1  0
  6 13  1  0
  7 14  1  0
  9 15  1  0
M  END
