
     RDKit          3D

 17 19  0  0  0  0  0  0  0  0999 V2000
    0.3296    2.2149   -1.3042 O   0  0  0  0  0  0  0  0  0  0  0  0
    0.4379    1.1368   -0.7364 C   0  0  0  0  0  0  0  0  0  0  0  0
    1.3180    0.9197    0.4336 C   0  0  0  0  0  0  0  0  0  0  0  0
    0.9288   -0.4331    0.9579 C   0  0  0  0  0  0  0  0  0  0  0  0
   -0.4788   -0.9154    0.8876 C   0  0  0  0  0  0  0  0  0  0  0  0
   -1.4356   -0.3188   -0.1282 C   0  0  0  0  0  0  0  0  0  0  0  0
   -1.9788    0.8670    0.2962 O   0  0  0  0  0  0  0  0  0  0  0  0
   -0.2427   -0.1504   -1.0546 C   0  0  0  0  0  0  0  0  0  0  0  0
    0.4765   -1.1560   -0.2157 C   0  0  0  0  0  0  0  0  0  0  0  0
    1.3062    1.7167    1.1691 H   0  0  0  0  0  0  0  0  0  0  0  0
    2.3698    0.8304    0.0331 H   0  0  0  0  0  0  0  0  0  0  0  0
    1.5696   -0.9370    1.6746 H   0  0  0  0  0  0  0  0  0  0  0  0
   -0.7915   -1.7205    1.5437 H   0  0  0  0  0  0  0  0  0  0  0  0
   -2.1495   -1.0949   -0.4533 H   0  0  0  0  0  0  0  0  0  0  0  0
   -2.0447    1.5303   -0.4340 H   0  0  0  0  0  0  0  0  0  0  0  0
   -0.4081   -0.3731   -2.1023 H   0  0  0  0  0  0  0  0  0  0  0  0
    0.7932   -2.1165   -0.5672 H   0  0  0  0  0  0  0  0  0  0  0  0
  1  2  2  0
  2  3  1  0
  3  4  1  0
  4  5  1  0
  5  6  1  0
  6  7  1  0
  6  8  1  0
  8  9  1  0
  8  2  1  0
  9  4  1  0
  9  5  1  0
  3 10  1  0
  3 11  1  0
  4 12  1  0
  5 13  1  0
  6 14  1  0
  7 15  1  0
  8 16  1  0
  9 17  1  0
M  END
