
     RDKit          3D

 15 15  0  0  0  0  0  0  0  0999 V2000
   -3.0984    0.9542    0.4225 O   0  0  0  0  0  0  0  0  0  0  0  0
   -1.9876    0.4205    0.0971 C   0  0  0  0  0  0  0  0  0  0  0  0
   -1.6780   -0.9831   -0.1018 C   0  0  0  0  0  0  0  0  0  0  0  0
   -0.4181   -1.1451   -0.4327 C   0  0  0  0  0  0  0  0  0  0  0  0
    0.2604    0.1317   -0.4932 C   0  0  0  0  0  0  0  0  0  0  0  0
    1.3954    0.2560    0.5115 C   0  0  0  0  0  0  0  0  0  0  0  0
    2.3751   -0.7133    0.3137 O   0  0  0  0  0  0  0  0  0  0  0  0
   -0.7526    1.1397   -0.1515 C   0  0  0  0  0  0  0  0  0  0  0  0
   -0.5599    2.3920   -0.0920 O   0  0  0  0  0  0  0  0  0  0  0  0
   -2.3658   -1.8159   -0.0007 H   0  0  0  0  0  0  0  0  0  0  0  0
    0.0822   -2.1053   -0.6413 H   0  0  0  0  0  0  0  0  0  0  0  0
    0.6997    0.3721   -1.4884 H   0  0  0  0  0  0  0  0  0  0  0  0
    1.8084    1.2807    0.3784 H   0  0  0  0  0  0  0  0  0  0  0  0
    0.9869    0.1122    1.5555 H   0  0  0  0  0  0  0  0  0  0  0  0
    3.2523   -0.2965    0.1229 H   0  0  0  0  0  0  0  0  0  0  0  0
  1  2  2  0
  2  3  1  0
  3  4  2  0
  4  5  1  0
  5  6  1  0
  6  7  1  0
  5  8  1  0
  8  9  2  0
  8  2  1  0
  3 10  1  0
  4 11  1  0
  5 12  1  0
  6 13  1  0
  6 14  1  0
  7 15  1  0
M  END
