
     RDKit          3D

 15 16  0  0  0  0  0  0  0  0999 V2000
    2.9457    0.2484    0.7473 O   0  0  0  0  0  0  0  0  0  0  0  0
    1.8263    0.1343    0.1963 C   0  0  0  0  0  0  0  0  0  0  0  0
    1.3687    0.7430   -0.9807 O   0  0  0  0  0  0  0  0  0  0  0  0
   -0.0094    1.0833   -0.7783 C   0  0  0  0  0  0  0  0  0  0  0  0
   -0.4976    0.1070    0.2183 C   0  0  0  0  0  0  0  0  0  0  0  0
   -1.3042    0.5219    1.2335 O   0  0  0  0  0  0  0  0  0  0  0  0
   -0.9157   -1.1923   -0.4383 C   0  0  0  0  0  0  0  0  0  0  0  0
    0.3353   -1.7486   -0.1400 O   0  0  0  0  0  0  0  0  0  0  0  0
    0.6958   -0.7065    0.6940 C   0  0  0  0  0  0  0  0  0  0  0  0
   -0.5065    0.9363   -1.7613 H   0  0  0  0  0  0  0  0  0  0  0  0
   -0.1100    2.1418   -0.4909 H   0  0  0  0  0  0  0  0  0  0  0  0
   -1.7004    1.4132    1.1375 H   0  0  0  0  0  0  0  0  0  0  0  0
   -1.1054   -1.0719   -1.5216 H   0  0  0  0  0  0  0  0  0  0  0  0
   -1.7427   -1.6658    0.1293 H   0  0  0  0  0  0  0  0  0  0  0  0
    0.7201   -0.9442    1.7550 H   0  0  0  0  0  0  0  0  0  0  0  0
  1  2  2  0
  2  3  1  0
  3  4  1  0
  4  5  1  0
  5  6  1  0
  5  7  1  0
  7  8  1  0
  8  9  1  0
  9  2  1  0
  9  5  1  0
  4 10  1  0
  4 11  1  0
  6 12  1  0
  7 13  1  0
  7 14  1  0
  9 15  1  0
M  END
