
     RDKit          3D

 14 15  0  0  0  0  0  0  0  0999 V2000
    1.1259   -0.7577   -2.1633 O   0  0  0  0  0  0  0  0  0  0  0  0
    0.7510   -0.7370   -1.0037 C   0  0  0  0  0  0  0  0  0  0  0  0
    1.2907   -0.2917    0.3254 C   0  0  0  0  0  0  0  0  0  0  0  0
    0.7448    1.0782    0.5539 C   0  0  0  0  0  0  0  0  0  0  0  0
   -0.5105    1.2879    0.1629 C   0  0  0  0  0  0  0  0  0  0  0  0
   -1.3560    0.0408    0.0768 C   0  0  0  0  0  0  0  0  0  0  0  0
   -0.3955   -1.1031   -0.1672 C   0  0  0  0  0  0  0  0  0  0  0  0
    0.4609   -1.2328    0.9123 O   0  0  0  0  0  0  0  0  0  0  0  0
    2.3603   -0.4191    0.4616 H   0  0  0  0  0  0  0  0  0  0  0  0
    1.3245    1.8725    1.0122 H   0  0  0  0  0  0  0  0  0  0  0  0
   -0.9089    2.2675   -0.0777 H   0  0  0  0  0  0  0  0  0  0  0  0
   -2.1378    0.1155   -0.6748 H   0  0  0  0  0  0  0  0  0  0  0  0
   -1.8657   -0.0720    1.0671 H   0  0  0  0  0  0  0  0  0  0  0  0
   -0.8839   -2.0489   -0.4856 H   0  0  0  0  0  0  0  0  0  0  0  0
  1  2  2  0
  2  3  1  0
  3  4  1  0
  4  5  2  0
  5  6  1  0
  6  7  1  0
  7  8  1  0
  7  2  1  0
  8  3  1  0
  3  9  1  0
  4 10  1  0
  5 11  1  0
  6 12  1  0
  6 13  1  0
  7 14  1  0
M  END
