
     RDKit          3D

 19 21  0  0  0  0  0  0  0  0999 V2000
   -2.0373    0.3712    1.9268 O   0  0  0  0  0  0  0  0  0  0  0  0
   -1.4633    0.1112    0.8786 C   0  0  0  0  0  0  0  0  0  0  0  0
   -1.1883    1.1384   -0.1573 C   0  0  0  0  0  0  0  0  0  0  0  0
   -0.0580    0.6256   -0.9582 C   0  0  0  0  0  0  0  0  0  0  0  0
    1.2962    0.8172   -0.3554 C   0  0  0  0  0  0  0  0  0  0  0  0
    1.3525   -0.1710    0.8173 C   0  0  0  0  0  0  0  0  0  0  0  0
    0.5641   -1.3226    0.2838 C   0  0  0  0  0  0  0  0  0  0  0  0
   -0.9312   -1.1839    0.3952 C   0  0  0  0  0  0  0  0  0  0  0  0
   -0.2345   -0.8850   -0.8665 C   0  0  0  0  0  0  0  0  0  0  0  0
   -1.0633    2.1516    0.2551 H   0  0  0  0  0  0  0  0  0  0  0  0
   -2.0941    1.1773   -0.8085 H   0  0  0  0  0  0  0  0  0  0  0  0
   -0.0315    0.9686   -2.0099 H   0  0  0  0  0  0  0  0  0  0  0  0
    2.0388    0.4027   -1.0932 H   0  0  0  0  0  0  0  0  0  0  0  0
    1.5362    1.8327   -0.0536 H   0  0  0  0  0  0  0  0  0  0  0  0
    0.8152    0.2275    1.7007 H   0  0  0  0  0  0  0  0  0  0  0  0
    2.3866   -0.4045    1.0865 H   0  0  0  0  0  0  0  0  0  0  0  0
    1.0100   -2.3252    0.2361 H   0  0  0  0  0  0  0  0  0  0  0  0
   -1.5605   -2.0675    0.5032 H   0  0  0  0  0  0  0  0  0  0  0  0
   -0.3376   -1.4644   -1.7807 H   0  0  0  0  0  0  0  0  0  0  0  0
  1  2  2  0
  2  3  1  0
  3  4  1  0
  4  5  1  0
  5  6  1  0
  6  7  1  0
  7  8  1  0
  8  9  1  0
  8  2  1  0
  9  4  1  0
  9  7  1  0
  3 10  1  0
  3 11  1  0
  4 12  1  0
  5 13  1  0
  5 14  1  0
  6 15  1  0
  6 16  1  0
  7 17  1  0
  8 18  1  0
  9 19  1  0
M  END
