
     RDKit          3D

 21 22  0  0  0  0  0  0  0  0999 V2000
   -0.5668    2.6170   -0.8398 O   0  0  0  0  0  0  0  0  0  0  0  0
   -0.1833    1.5892   -0.3273 C   0  0  0  0  0  0  0  0  0  0  0  0
    1.2848    1.3398   -0.3233 C   0  0  0  0  0  0  0  0  0  0  0  0
    1.6358   -0.1076   -0.1556 C   0  0  0  0  0  0  0  0  0  0  0  0
    0.9287   -0.8337    0.9156 C   0  0  0  0  0  0  0  0  0  0  0  0
   -0.3359   -1.5542    0.4300 C   0  0  0  0  0  0  0  0  0  0  0  0
   -0.9815   -0.6445   -0.5454 C   0  0  0  0  0  0  0  0  0  0  0  0
   -2.2545    0.0193   -0.4410 C   0  0  0  0  0  0  0  0  0  0  0  0
   -1.1805    0.6967    0.2343 C   0  0  0  0  0  0  0  0  0  0  0  0
    1.7234    1.9794    0.4929 H   0  0  0  0  0  0  0  0  0  0  0  0
    1.7486    1.6822   -1.2766 H   0  0  0  0  0  0  0  0  0  0  0  0
    1.5524   -0.5975   -1.1424 H   0  0  0  0  0  0  0  0  0  0  0  0
    2.7402   -0.1325    0.0864 H   0  0  0  0  0  0  0  0  0  0  0  0
    1.5806   -1.6524    1.3192 H   0  0  0  0  0  0  0  0  0  0  0  0
    0.7098   -0.1617    1.7520 H   0  0  0  0  0  0  0  0  0  0  0  0
   -0.9861   -1.7259    1.3017 H   0  0  0  0  0  0  0  0  0  0  0  0
   -0.0498   -2.4893   -0.0937 H   0  0  0  0  0  0  0  0  0  0  0  0
   -0.4518   -0.5977   -1.5199 H   0  0  0  0  0  0  0  0  0  0  0  0
   -2.7148    0.3937   -1.3974 H   0  0  0  0  0  0  0  0  0  0  0  0
   -3.0396   -0.4659    0.1865 H   0  0  0  0  0  0  0  0  0  0  0  0
   -1.1597    0.6458    1.3437 H   0  0  0  0  0  0  0  0  0  0  0  0
  1  2  2  0
  2  3  1  0
  3  4  1  0
  4  5  1  0
  5  6  1  0
  6  7  1  0
  7  8  1  0
  8  9  1  0
  9  2  1  0
  9  7  1  0
  3 10  1  0
  3 11  1  0
  4 12  1  0
  4 13  1  0
  5 14  1  0
  5 15  1  0
  6 16  1  0
  6 17  1  0
  7 18  1  0
  8 19  1  0
  8 20  1  0
  9 21  1  0
M  END
