
     RDKit          3D

 17 17  0  0  0  0  0  0  0  0999 V2000
    2.7945    0.0979    1.7170 O   0  0  0  0  0  0  0  0  0  0  0  0
    1.8426   -0.2275    0.9802 C   0  0  0  0  0  0  0  0  0  0  0  0
    1.9083    0.1589   -0.4474 C   0  0  0  0  0  0  0  0  0  0  0  0
    0.5341    0.5546   -0.8462 C   0  0  0  0  0  0  0  0  0  0  0  0
   -0.5305   -0.0972   -0.4150 C   0  0  0  0  0  0  0  0  0  0  0  0
   -1.9270    0.2642   -0.7888 C   0  0  0  0  0  0  0  0  0  0  0  0
   -1.9793    1.3565   -1.6361 O   0  0  0  0  0  0  0  0  0  0  0  0
   -0.3507   -1.2631    0.4976 C   0  0  0  0  0  0  0  0  0  0  0  0
    0.7171   -0.9223    1.3683 O   0  0  0  0  0  0  0  0  0  0  0  0
    2.1534   -0.7638   -1.0123 H   0  0  0  0  0  0  0  0  0  0  0  0
    2.6403    0.9703   -0.6324 H   0  0  0  0  0  0  0  0  0  0  0  0
    0.4191    1.3976   -1.5052 H   0  0  0  0  0  0  0  0  0  0  0  0
   -2.4235   -0.6216   -1.2512 H   0  0  0  0  0  0  0  0  0  0  0  0
   -2.5293    0.5241    0.1290 H   0  0  0  0  0  0  0  0  0  0  0  0
   -1.9623    2.2149   -1.1420 H   0  0  0  0  0  0  0  0  0  0  0  0
   -0.0552   -2.1634   -0.1048 H   0  0  0  0  0  0  0  0  0  0  0  0
   -1.2518   -1.4799    1.0929 H   0  0  0  0  0  0  0  0  0  0  0  0
  1  2  2  0
  2  3  1  0
  3  4  1  0
  4  5  2  0
  5  6  1  0
  6  7  1  0
  5  8  1  0
  8  9  1  0
  9  2  1  0
  3 10  1  0
  3 11  1  0
  4 12  1  0
  6 13  1  0
  6 14  1  0
  7 15  1  0
  8 16  1  0
  8 17  1  0
M  END
