
     RDKit          3D

 15 16  0  0  0  0  0  0  0  0999 V2000
    2.6457   -1.4549   -0.0325 O   0  0  0  0  0  0  0  0  0  0  0  0
    1.5818   -0.8057   -0.2056 C   0  0  0  0  0  0  0  0  0  0  0  0
    1.3461    0.5820    0.2043 C   0  0  0  0  0  0  0  0  0  0  0  0
   -0.1187    0.7691   -0.0015 C   0  0  0  0  0  0  0  0  0  0  0  0
   -1.0291    0.0355    0.9494 C   0  0  0  0  0  0  0  0  0  0  0  0
   -1.7673   -0.4679   -0.2335 C   0  0  0  0  0  0  0  0  0  0  0  0
   -2.8884   -0.8483   -0.4677 O   0  0  0  0  0  0  0  0  0  0  0  0
   -0.5199   -0.3007   -1.0143 C   0  0  0  0  0  0  0  0  0  0  0  0
    0.4438   -1.3027   -0.8201 O   0  0  0  0  0  0  0  0  0  0  0  0
    1.8760    1.3299   -0.4252 H   0  0  0  0  0  0  0  0  0  0  0  0
    1.5538    0.7624    1.2939 H   0  0  0  0  0  0  0  0  0  0  0  0
   -0.4413    1.7882   -0.2740 H   0  0  0  0  0  0  0  0  0  0  0  0
   -1.5977    0.6508    1.6518 H   0  0  0  0  0  0  0  0  0  0  0  0
   -0.4496   -0.8065    1.4186 H   0  0  0  0  0  0  0  0  0  0  0  0
   -0.6353    0.0687   -2.0435 H   0  0  0  0  0  0  0  0  0  0  0  0
  1  2  2  0
  2  3  1  0
  3  4  1  0
  4  5  1  0
  5  6  1  0
  6  7  2  0
  6  8  1  0
  8  9  1  0
  9  2  1  0
  8  4  1  0
  3 10  1  0
  3 11  1  0
  4 12  1  0
  5 13  1  0
  5 14  1  0
  8 15  1  0
M  END
