
     RDKit          3D

 15 16  0  0  0  0  0  0  0  0999 V2000
   -1.8147   -1.2639    1.8093 O   0  0  0  0  0  0  0  0  0  0  0  0
   -1.5219   -0.7711    0.6959 C   0  0  0  0  0  0  0  0  0  0  0  0
   -2.0898    0.2622   -0.0355 O   0  0  0  0  0  0  0  0  0  0  0  0
   -0.7938    0.5327   -0.5705 C   0  0  0  0  0  0  0  0  0  0  0  0
    0.1291    1.2673    0.3602 C   0  0  0  0  0  0  0  0  0  0  0  0
    1.4215    0.9557    0.0425 O   0  0  0  0  0  0  0  0  0  0  0  0
    1.6997   -0.3632   -0.1424 C   0  0  0  0  0  0  0  0  0  0  0  0
    0.6958   -1.2449    0.0881 O   0  0  0  0  0  0  0  0  0  0  0  0
   -0.5315   -0.9416   -0.3998 C   0  0  0  0  0  0  0  0  0  0  0  0
   -0.8844    0.9000   -1.5879 H   0  0  0  0  0  0  0  0  0  0  0  0
   -0.0220    2.3544    0.1943 H   0  0  0  0  0  0  0  0  0  0  0  0
   -0.0744    0.9560    1.3893 H   0  0  0  0  0  0  0  0  0  0  0  0
    2.5485   -0.6269    0.5576 H   0  0  0  0  0  0  0  0  0  0  0  0
    2.1674   -0.4680   -1.1654 H   0  0  0  0  0  0  0  0  0  0  0  0
   -0.9296   -1.5488   -1.2355 H   0  0  0  0  0  0  0  0  0  0  0  0
  1  2  2  0
  2  3  1  0
  3  4  1  0
  4  5  1  0
  5  6  1  0
  6  7  1  0
  7  8  1  0
  8  9  1  0
  9  2  1  0
  9  4  1  0
  4 10  1  0
  5 11  1  0
  5 12  1  0
  7 13  1  0
  7 14  1  0
  9 15  1  0
M  END
