
     RDKit          3D

 17 18  0  0  0  0  0  0  0  0999 V2000
    3.1317    0.8495   -0.2684 O   0  0  0  0  0  0  0  0  0  0  0  0
    1.9401    0.5188   -0.1786 C   0  0  0  0  0  0  0  0  0  0  0  0
    1.5852   -0.9125    0.0089 C   0  0  0  0  0  0  0  0  0  0  0  0
    0.3720   -1.4956   -0.1167 C   0  0  0  0  0  0  0  0  0  0  0  0
   -0.8287   -0.7794   -0.4714 C   0  0  0  0  0  0  0  0  0  0  0  0
   -2.0478   -0.5568    0.2200 C   0  0  0  0  0  0  0  0  0  0  0  0
   -1.0024    0.2929    0.6616 C   0  0  0  0  0  0  0  0  0  0  0  0
   -0.4046    1.4863    0.1010 C   0  0  0  0  0  0  0  0  0  0  0  0
    0.8887    1.5646   -0.2608 C   0  0  0  0  0  0  0  0  0  0  0  0
    2.4217   -1.5372    0.2765 H   0  0  0  0  0  0  0  0  0  0  0  0
    0.3365   -2.5526    0.0646 H   0  0  0  0  0  0  0  0  0  0  0  0
   -0.7630   -0.3742   -1.5260 H   0  0  0  0  0  0  0  0  0  0  0  0
   -2.9057   -0.0969   -0.3479 H   0  0  0  0  0  0  0  0  0  0  0  0
   -2.4366   -1.3362    0.9045 H   0  0  0  0  0  0  0  0  0  0  0  0
   -0.5235    0.0280    1.6539 H   0  0  0  0  0  0  0  0  0  0  0  0
   -0.9952    2.3920   -0.0537 H   0  0  0  0  0  0  0  0  0  0  0  0
    1.2317    2.5093   -0.6676 H   0  0  0  0  0  0  0  0  0  0  0  0
  1  2  2  0
  2  3  1  0
  3  4  2  0
  4  5  1  0
  5  6  1  0
  6  7  1  0
  7  8  1  0
  8  9  2  0
  9  2  1  0
  7  5  1  0
  3 10  1  0
  4 11  1  0
  5 12  1  0
  6 13  1  0
  6 14  1  0
  7 15  1  0
  8 16  1  0
  9 17  1  0
M  END
