
     RDKit          3D

 17 18  0  0  0  0  0  0  0  0999 V2000
    1.9897   -1.5480    1.3265 O   0  0  0  0  0  0  0  0  0  0  0  0
    1.6728   -0.6676    0.5790 C   0  0  0  0  0  0  0  0  0  0  0  0
    2.3111    0.0097   -0.6100 C   0  0  0  0  0  0  0  0  0  0  0  0
    0.9899    0.1617   -1.0936 O   0  0  0  0  0  0  0  0  0  0  0  0
    0.6131    0.2965    0.2569 C   0  0  0  0  0  0  0  0  0  0  0  0
   -0.7934   -0.1092    0.5157 C   0  0  0  0  0  0  0  0  0  0  0  0
   -1.7477    1.0091    0.1238 C   0  0  0  0  0  0  0  0  0  0  0  0
   -1.9269    0.3340   -1.0946 O   0  0  0  0  0  0  0  0  0  0  0  0
   -1.5049   -0.8727   -0.5499 C   0  0  0  0  0  0  0  0  0  0  0  0
    2.7293    1.0070   -0.3261 H   0  0  0  0  0  0  0  0  0  0  0  0
    2.9528   -0.6335   -1.2158 H   0  0  0  0  0  0  0  0  0  0  0  0
    0.8068    1.3359    0.6136 H   0  0  0  0  0  0  0  0  0  0  0  0
   -0.9909   -0.4252    1.5606 H   0  0  0  0  0  0  0  0  0  0  0  0
   -1.2415    1.9866   -0.0508 H   0  0  0  0  0  0  0  0  0  0  0  0
   -2.6337    1.1099    0.7480 H   0  0  0  0  0  0  0  0  0  0  0  0
   -2.3301   -1.4826   -0.0880 H   0  0  0  0  0  0  0  0  0  0  0  0
   -0.8964   -1.5115   -1.2106 H   0  0  0  0  0  0  0  0  0  0  0  0
  1  2  2  0
  2  3  1  0
  3  4  1  0
  4  5  1  0
  5  6  1  0
  6  7  1  0
  7  8  1  0
  8  9  1  0
  5  2  1  0
  9  6  1  0
  3 10  1  0
  3 11  1  0
  5 12  1  0
  6 13  1  0
  7 14  1  0
  7 15  1  0
  9 16  1  0
  9 17  1  0
M  END
