
     RDKit          3D

 18 19  0  0  0  0  0  0  0  0999 V2000
    3.5225   -0.1200    0.7251 O   0  0  0  0  0  0  0  0  0  0  0  0
    2.3773   -0.2197    0.3520 C   0  0  0  0  0  0  0  0  0  0  0  0
    1.6512    0.1613   -0.8821 C   0  0  0  0  0  0  0  0  0  0  0  0
    0.3963    0.2680   -0.0261 C   0  0  0  0  0  0  0  0  0  0  0  0
   -0.8442   -0.2383   -0.6975 C   0  0  0  0  0  0  0  0  0  0  0  0
   -2.1063   -0.1573    0.0981 C   0  0  0  0  0  0  0  0  0  0  0  0
   -1.8873    0.8621   -0.9844 C   0  0  0  0  0  0  0  0  0  0  0  0
    1.0942   -0.7511    0.8766 C   0  0  0  0  0  0  0  0  0  0  0  0
    1.9365    1.1048   -1.3544 H   0  0  0  0  0  0  0  0  0  0  0  0
    1.5369   -0.7090   -1.5599 H   0  0  0  0  0  0  0  0  0  0  0  0
    0.3347    1.2210    0.4995 H   0  0  0  0  0  0  0  0  0  0  0  0
   -0.6870   -1.0115   -1.4586 H   0  0  0  0  0  0  0  0  0  0  0  0
   -2.0319    0.1529    1.1657 H   0  0  0  0  0  0  0  0  0  0  0  0
   -2.9450   -0.8783   -0.1265 H   0  0  0  0  0  0  0  0  0  0  0  0
   -2.4491    0.7898   -1.9277 H   0  0  0  0  0  0  0  0  0  0  0  0
   -1.6392    1.8925   -0.6946 H   0  0  0  0  0  0  0  0  0  0  0  0
    0.8981   -0.5814    1.9383 H   0  0  0  0  0  0  0  0  0  0  0  0
    0.8421   -1.7857    0.5043 H   0  0  0  0  0  0  0  0  0  0  0  0
  1  2  2  0
  2  3  1  0
  3  4  1  0
  4  5  1  0
  5  6  1  0
  6  7  1  0
  4  8  1  0
  8  2  1  0
  7  5  1  0
  3  9  1  0
  3 10  1  0
  4 11  1  0
  5 12  1  0
  6 13  1  0
  6 14  1  0
  7 15  1  0
  7 16  1  0
  8 17  1  0
  8 18  1  0
M  END
