
     RDKit          3D

 19 20  0  0  0  0  0  0  0  0999 V2000
    1.7538    2.4568   -0.3957 O   0  0  0  0  0  0  0  0  0  0  0  0
    1.3982    1.2658   -0.1999 C   0  0  0  0  0  0  0  0  0  0  0  0
    2.3333    0.1451    0.0359 C   0  0  0  0  0  0  0  0  0  0  0  0
    1.4880   -1.0859    0.0573 C   0  0  0  0  0  0  0  0  0  0  0  0
    0.0834   -0.5900   -0.0149 C   0  0  0  0  0  0  0  0  0  0  0  0
    0.0416    0.7104   -0.1571 C   0  0  0  0  0  0  0  0  0  0  0  0
   -1.3592    1.2090   -0.2297 C   0  0  0  0  0  0  0  0  0  0  0  0
   -2.1624    0.0321    0.2112 C   0  0  0  0  0  0  0  0  0  0  0  0
   -1.2874   -1.1651    0.0298 C   0  0  0  0  0  0  0  0  0  0  0  0
    2.8158    0.2548    1.0233 H   0  0  0  0  0  0  0  0  0  0  0  0
    3.0678    0.0773   -0.7917 H   0  0  0  0  0  0  0  0  0  0  0  0
    1.5751   -1.6686    0.9968 H   0  0  0  0  0  0  0  0  0  0  0  0
    1.7080   -1.7315   -0.8248 H   0  0  0  0  0  0  0  0  0  0  0  0
   -1.4653    2.0656    0.4912 H   0  0  0  0  0  0  0  0  0  0  0  0
   -1.6356    1.5340   -1.2508 H   0  0  0  0  0  0  0  0  0  0  0  0
   -2.3470    0.1537    1.3154 H   0  0  0  0  0  0  0  0  0  0  0  0
   -3.1399   -0.0556   -0.3145 H   0  0  0  0  0  0  0  0  0  0  0  0
   -1.3491   -1.8648    0.9046 H   0  0  0  0  0  0  0  0  0  0  0  0
   -1.5192   -1.7432   -0.8864 H   0  0  0  0  0  0  0  0  0  0  0  0
  1  2  2  0
  2  3  1  0
  3  4  1  0
  4  5  1  0
  5  6  2  0
  6  7  1  0
  7  8  1  0
  8  9  1  0
  6  2  1  0
  9  5  1  0
  3 10  1  0
  3 11  1  0
  4 12  1  0
  4 13  1  0
  7 14  1  0
  7 15  1  0
  8 16  1  0
  8 17  1  0
  9 18  1  0
  9 19  1  0
M  END
