
     RDKit          3D

 12 13  0  0  0  0  0  0  0  0999 V2000
    2.6901   -1.0841   -0.1422 O   0  0  0  0  0  0  0  0  0  0  0  0
    1.5247   -0.6553    0.0207 C   0  0  0  0  0  0  0  0  0  0  0  0
    0.4647   -1.4154    0.4688 O   0  0  0  0  0  0  0  0  0  0  0  0
   -0.6214   -0.5416    0.6963 C   0  0  0  0  0  0  0  0  0  0  0  0
   -1.3383   -0.0795   -0.5649 C   0  0  0  0  0  0  0  0  0  0  0  0
   -0.3273    0.7779    0.0965 C   0  0  0  0  0  0  0  0  0  0  0  0
    1.0960    0.7071   -0.2335 C   0  0  0  0  0  0  0  0  0  0  0  0
    1.8588    1.6022   -0.6564 O   0  0  0  0  0  0  0  0  0  0  0  0
   -1.1626   -0.5633    1.6424 H   0  0  0  0  0  0  0  0  0  0  0  0
   -1.1115   -0.6364   -1.5035 H   0  0  0  0  0  0  0  0  0  0  0  0
   -2.3847    0.1820   -0.4098 H   0  0  0  0  0  0  0  0  0  0  0  0
   -0.6885    1.7063    0.5857 H   0  0  0  0  0  0  0  0  0  0  0  0
  1  2  2  0
  2  3  1  0
  3  4  1  0
  4  5  1  0
  5  6  1  0
  6  7  1  0
  7  8  2  0
  7  2  1  0
  6  4  1  0
  4  9  1  0
  5 10  1  0
  5 11  1  0
  6 12  1  0
M  END
