
     RDKit          3D

 19 19  0  0  0  0  0  0  0  0999 V2000
    1.2419    1.5823   -1.2184 O   0  0  0  0  0  0  0  0  0  0  0  0
    0.6276    1.0130   -0.3132 C   0  0  0  0  0  0  0  0  0  0  0  0
   -0.7665    1.4093   -0.1695 C   0  0  0  0  0  0  0  0  0  0  0  0
   -1.6806    0.3590    0.3535 C   0  0  0  0  0  0  0  0  0  0  0  0
   -1.2812   -1.0428    0.0230 C   0  0  0  0  0  0  0  0  0  0  0  0
   -0.2304   -1.5118    0.7949 O   0  0  0  0  0  0  0  0  0  0  0  0
    0.9501   -1.3386    0.0751 C   0  0  0  0  0  0  0  0  0  0  0  0
    1.4774    0.0387    0.4285 C   0  0  0  0  0  0  0  0  0  0  0  0
    2.8066    0.1350    0.0745 O   0  0  0  0  0  0  0  0  0  0  0  0
   -0.8204    2.2815    0.5460 H   0  0  0  0  0  0  0  0  0  0  0  0
   -1.1330    1.8226   -1.1367 H   0  0  0  0  0  0  0  0  0  0  0  0
   -1.8669    0.4130    1.4485 H   0  0  0  0  0  0  0  0  0  0  0  0
   -2.6910    0.5274   -0.1224 H   0  0  0  0  0  0  0  0  0  0  0  0
   -1.1080   -1.1978   -1.0589 H   0  0  0  0  0  0  0  0  0  0  0  0
   -2.1638   -1.6986    0.2739 H   0  0  0  0  0  0  0  0  0  0  0  0
    0.6961   -1.3720   -0.9889 H   0  0  0  0  0  0  0  0  0  0  0  0
    1.6996   -2.1255    0.3188 H   0  0  0  0  0  0  0  0  0  0  0  0
    1.3705    0.2373    1.5281 H   0  0  0  0  0  0  0  0  0  0  0  0
    2.8722    0.4680   -0.8567 H   0  0  0  0  0  0  0  0  0  0  0  0
  1  2  2  0
  2  3  1  0
  3  4  1  0
  4  5  1  0
  5  6  1  0
  6  7  1  0
  7  8  1  0
  8  9  1  0
  8  2  1  0
  3 10  1  0
  3 11  1  0
  4 12  1  0
  4 13  1  0
  5 14  1  0
  5 15  1  0
  7 16  1  0
  7 17  1  0
  8 18  1  0
  9 19  1  0
M  END
