
     RDKit          3D

  9  9  0  0  0  0  0  0  0  0999 V2000
    2.1963    0.7871    0.0185 O   0  0  0  0  0  0  0  0  0  0  0  0
    1.0311    0.3601    0.2080 C   0  0  0  0  0  0  0  0  0  0  0  0
    0.1376   -0.7703   -0.1241 C   0  0  0  0  0  0  0  0  0  0  0  0
   -0.8852    0.3345   -0.0622 C   0  0  0  0  0  0  0  0  0  0  0  0
   -0.0202    0.9067    0.9328 O   0  0  0  0  0  0  0  0  0  0  0  0
   -0.0254   -1.4772    0.7231 H   0  0  0  0  0  0  0  0  0  0  0  0
    0.3156   -1.2234   -1.0986 H   0  0  0  0  0  0  0  0  0  0  0  0
   -0.8832    1.0131   -0.9343 H   0  0  0  0  0  0  0  0  0  0  0  0
   -1.8666    0.0693    0.3368 H   0  0  0  0  0  0  0  0  0  0  0  0
  1  2  2  0
  2  3  1  0
  3  4  1  0
  4  5  1  0
  5  2  1  0
  3  6  1  0
  3  7  1  0
  4  8  1  0
  4  9  1  0
M  END
