
     RDKit          3D

 13 15  0  0  0  0  0  0  0  0999 V2000
    2.0405   -1.7597   -0.0738 O   0  0  0  0  0  0  0  0  0  0  0  0
    1.1517   -0.8716   -0.0682 C   0  0  0  0  0  0  0  0  0  0  0  0
    1.2303    0.5369   -0.5069 C   0  0  0  0  0  0  0  0  0  0  0  0
    2.1964    1.1902   -0.9656 O   0  0  0  0  0  0  0  0  0  0  0  0
   -0.1406    1.0020   -0.2684 C   0  0  0  0  0  0  0  0  0  0  0  0
   -0.5921    0.3742    1.0067 C   0  0  0  0  0  0  0  0  0  0  0  0
   -1.8432    0.2576    0.4236 O   0  0  0  0  0  0  0  0  0  0  0  0
   -1.0110   -0.1583   -0.6136 C   0  0  0  0  0  0  0  0  0  0  0  0
   -0.2622   -0.9489    0.3800 C   0  0  0  0  0  0  0  0  0  0  0  0
   -0.4295    1.9935   -0.5199 H   0  0  0  0  0  0  0  0  0  0  0  0
   -0.3833    0.6655    1.9472 H   0  0  0  0  0  0  0  0  0  0  0  0
   -1.3218   -0.4309   -1.5386 H   0  0  0  0  0  0  0  0  0  0  0  0
   -0.6353   -1.8505    0.7975 H   0  0  0  0  0  0  0  0  0  0  0  0
  1  2  2  0
  2  3  1  0
  3  4  2  0
  3  5  1  0
  5  6  1  0
  6  7  1  0
  7  8  1  0
  8  9  1  0
  9  2  1  0
  8  5  1  0
  9  6  1  0
  5 10  1  0
  6 11  1  0
  8 12  1  0
  9 13  1  0
M  END
