
     RDKit          3D

 17 18  0  0  0  0  0  0  0  0999 V2000
   -1.1755   -2.9155   -0.5565 O   0  0  0  0  0  0  0  0  0  0  0  0
   -0.7917   -1.7426   -0.3384 C   0  0  0  0  0  0  0  0  0  0  0  0
    0.4597   -1.3478    0.2019 O   0  0  0  0  0  0  0  0  0  0  0  0
    0.3269    0.0532    0.2700 C   0  0  0  0  0  0  0  0  0  0  0  0
    1.4115    0.8640    0.7668 C   0  0  0  0  0  0  0  0  0  0  0  0
    2.5498    0.6758   -0.0406 O   0  0  0  0  0  0  0  0  0  0  0  0
   -1.0788    0.2663    0.7762 C   0  0  0  0  0  0  0  0  0  0  0  0
   -1.4406   -0.4333   -0.5431 C   0  0  0  0  0  0  0  0  0  0  0  0
   -0.2593    0.3628   -1.1000 C   0  0  0  0  0  0  0  0  0  0  0  0
    1.2081    1.9447    0.8400 H   0  0  0  0  0  0  0  0  0  0  0  0
    1.7182    0.5388    1.7820 H   0  0  0  0  0  0  0  0  0  0  0  0
    2.4984   -0.2633   -0.3621 H   0  0  0  0  0  0  0  0  0  0  0  0
   -1.3761    1.3163    0.7139 H   0  0  0  0  0  0  0  0  0  0  0  0
   -1.3838   -0.3119    1.6437 H   0  0  0  0  0  0  0  0  0  0  0  0
   -2.3923   -0.3202   -0.9470 H   0  0  0  0  0  0  0  0  0  0  0  0
   -0.5208    1.4184   -1.1614 H   0  0  0  0  0  0  0  0  0  0  0  0
    0.2463   -0.1059   -1.9455 H   0  0  0  0  0  0  0  0  0  0  0  0
  1  2  2  0
  2  3  1  0
  3  4  1  0
  4  5  1  0
  5  6  1  0
  4  7  1  0
  7  8  1  0
  8  9  1  0
  8  2  1  0
  9  4  1  0
  5 10  1  0
  5 11  1  0
  6 12  1  0
  7 13  1  0
  7 14  1  0
  8 15  1  0
  9 16  1  0
  9 17  1  0
M  END
