
     RDKit          3D

 19 19  0  0  0  0  0  0  0  0999 V2000
    2.5499   -1.9069    0.3718 O   0  0  0  0  0  0  0  0  0  0  0  0
    1.5949   -1.1269    0.1377 C   0  0  0  0  0  0  0  0  0  0  0  0
    1.9793    0.0908   -0.6440 C   0  0  0  0  0  0  0  0  0  0  0  0
    1.2796    1.2553   -0.0587 C   0  0  0  0  0  0  0  0  0  0  0  0
   -0.0165    1.5502    0.0399 C   0  0  0  0  0  0  0  0  0  0  0  0
   -1.2883    0.8987   -0.3614 C   0  0  0  0  0  0  0  0  0  0  0  0
   -1.6889   -0.2125    0.5453 C   0  0  0  0  0  0  0  0  0  0  0  0
   -0.9956   -1.5117    0.2692 C   0  0  0  0  0  0  0  0  0  0  0  0
    0.3593   -1.5134    0.6331 O   0  0  0  0  0  0  0  0  0  0  0  0
    1.6795   -0.1007   -1.6910 H   0  0  0  0  0  0  0  0  0  0  0  0
    3.0854    0.2708   -0.5536 H   0  0  0  0  0  0  0  0  0  0  0  0
    1.9146    2.0075    0.3675 H   0  0  0  0  0  0  0  0  0  0  0  0
   -0.1257    2.5039    0.5397 H   0  0  0  0  0  0  0  0  0  0  0  0
   -2.0825    1.6726   -0.3555 H   0  0  0  0  0  0  0  0  0  0  0  0
   -1.1788    0.5468   -1.4062 H   0  0  0  0  0  0  0  0  0  0  0  0
   -1.5951    0.0886    1.6039 H   0  0  0  0  0  0  0  0  0  0  0  0
   -2.7889   -0.3964    0.3867 H   0  0  0  0  0  0  0  0  0  0  0  0
   -1.1855   -1.8384   -0.7569 H   0  0  0  0  0  0  0  0  0  0  0  0
   -1.4964   -2.2782    0.9325 H   0  0  0  0  0  0  0  0  0  0  0  0
  1  2  2  0
  2  3  1  0
  3  4  1  0
  4  5  2  3
  5  6  1  0
  6  7  1  0
  7  8  1  0
  8  9  1  0
  9  2  1  0
  3 10  1  0
  3 11  1  0
  4 12  1  0
  5 13  1  0
  6 14  1  0
  6 15  1  0
  7 16  1  0
  7 17  1  0
  8 18  1  0
  8 19  1  0
M  END
