
     RDKit          3D

 19 20  0  0  0  0  0  0  0  0999 V2000
   -1.6082    2.0521    0.8638 O   0  0  0  0  0  0  0  0  0  0  0  0
   -0.8933    1.2108    0.3804 C   0  0  0  0  0  0  0  0  0  0  0  0
   -1.3537    0.4565   -0.8026 C   0  0  0  0  0  0  0  0  0  0  0  0
   -0.9285   -0.9748   -0.6694 C   0  0  0  0  0  0  0  0  0  0  0  0
    0.4574   -1.1427   -0.1078 C   0  0  0  0  0  0  0  0  0  0  0  0
    1.4566   -0.2552   -0.7513 C   0  0  0  0  0  0  0  0  0  0  0  0
    1.4279    0.9367   -0.1719 C   0  0  0  0  0  0  0  0  0  0  0  0
    0.4266    0.9268    0.9511 C   0  0  0  0  0  0  0  0  0  0  0  0
    0.4497   -0.5592    1.3099 C   0  0  0  0  0  0  0  0  0  0  0  0
   -0.8625    0.9230   -1.6928 H   0  0  0  0  0  0  0  0  0  0  0  0
   -2.4623    0.4832   -0.9025 H   0  0  0  0  0  0  0  0  0  0  0  0
   -1.0269   -1.4521   -1.6552 H   0  0  0  0  0  0  0  0  0  0  0  0
   -1.6234   -1.5057    0.0189 H   0  0  0  0  0  0  0  0  0  0  0  0
    0.7171   -2.1977   -0.1189 H   0  0  0  0  0  0  0  0  0  0  0  0
    2.0958   -0.5603   -1.5649 H   0  0  0  0  0  0  0  0  0  0  0  0
    2.0509    1.7909   -0.4814 H   0  0  0  0  0  0  0  0  0  0  0  0
    0.7224    1.5641    1.7814 H   0  0  0  0  0  0  0  0  0  0  0  0
   -0.4439   -0.8776    1.8395 H   0  0  0  0  0  0  0  0  0  0  0  0
    1.3984   -0.8188    1.7738 H   0  0  0  0  0  0  0  0  0  0  0  0
  1  2  2  0
  2  3  1  0
  3  4  1  0
  4  5  1  0
  5  6  1  0
  6  7  2  0
  7  8  1  0
  8  9  1  0
  8  2  1  0
  9  5  1  0
  3 10  1  0
  3 11  1  0
  4 12  1  0
  4 13  1  0
  5 14  1  0
  6 15  1  0
  7 16  1  0
  8 17  1  0
  9 18  1  0
  9 19  1  0
M  END
