
     RDKit          3D

 15 17  0  0  0  0  0  0  0  0999 V2000
   -2.4737   -0.5208    1.0382 O   0  0  0  0  0  0  0  0  0  0  0  0
   -1.4512   -0.3163    0.4429 C   0  0  0  0  0  0  0  0  0  0  0  0
   -1.1211    0.7068   -0.6153 C   0  0  0  0  0  0  0  0  0  0  0  0
    0.1296    1.2968    0.0442 C   0  0  0  0  0  0  0  0  0  0  0  0
    0.8925   -0.0115    0.2271 C   0  0  0  0  0  0  0  0  0  0  0  0
    2.2083   -0.0364    0.4860 O   0  0  0  0  0  0  0  0  0  0  0  0
    0.3754   -0.8286   -0.9016 C   0  0  0  0  0  0  0  0  0  0  0  0
   -0.5785   -0.0808   -1.5827 O   0  0  0  0  0  0  0  0  0  0  0  0
   -0.1096   -1.0014    0.5246 C   0  0  0  0  0  0  0  0  0  0  0  0
   -1.8858    1.3916   -0.8451 H   0  0  0  0  0  0  0  0  0  0  0  0
   -0.1125    1.6661    1.0479 H   0  0  0  0  0  0  0  0  0  0  0  0
    0.6489    2.0048   -0.6031 H   0  0  0  0  0  0  0  0  0  0  0  0
    2.5281   -0.7255    1.1013 H   0  0  0  0  0  0  0  0  0  0  0  0
    0.9561   -1.6008   -1.3922 H   0  0  0  0  0  0  0  0  0  0  0  0
   -0.0064   -1.9439    1.0277 H   0  0  0  0  0  0  0  0  0  0  0  0
  1  2  2  0
  2  3  1  0
  3  4  1  0
  4  5  1  0
  5  6  1  0
  5  7  1  0
  7  8  1  0
  7  9  1  0
  9  2  1  0
  8  3  1  0
  9  5  1  0
  3 10  1  0
  4 11  1  0
  4 12  1  0
  6 13  1  0
  7 14  1  0
  9 15  1  0
M  END
