
     RDKit          3D

 15 17  0  0  0  0  0  0  0  0999 V2000
    2.8929    1.0392    0.4442 O   0  0  0  0  0  0  0  0  0  0  0  0
    1.7140    0.6470    0.3858 C   0  0  0  0  0  0  0  0  0  0  0  0
    0.4857    1.4880    0.4874 C   0  0  0  0  0  0  0  0  0  0  0  0
   -0.5670    0.8280    0.2282 C   0  0  0  0  0  0  0  0  0  0  0  0
   -1.8572    0.1874   -0.0434 C   0  0  0  0  0  0  0  0  0  0  0  0
   -1.4123   -1.0324    0.6802 O   0  0  0  0  0  0  0  0  0  0  0  0
   -0.1506   -1.3240    0.1978 C   0  0  0  0  0  0  0  0  0  0  0  0
    1.1448   -0.7243    0.2042 C   0  0  0  0  0  0  0  0  0  0  0  0
    0.1493   -0.2861   -0.7543 C   0  0  0  0  0  0  0  0  0  0  0  0
    0.4431    2.5584    0.7535 H   0  0  0  0  0  0  0  0  0  0  0  0
   -2.6949    0.5969    0.5272 H   0  0  0  0  0  0  0  0  0  0  0  0
   -2.0775   -0.0681   -1.0581 H   0  0  0  0  0  0  0  0  0  0  0  0
   -0.1594   -2.3823   -0.2377 H   0  0  0  0  0  0  0  0  0  0  0  0
    2.0094   -1.4163   -0.0614 H   0  0  0  0  0  0  0  0  0  0  0  0
    0.0797   -0.1114   -1.7534 H   0  0  0  0  0  0  0  0  0  0  0  0
  1  2  2  0
  2  3  1  0
  3  4  2  0
  4  5  1  0
  5  6  1  0
  6  7  1  0
  7  8  1  0
  8  9  1  0
  8  2  1  0
  9  4  1  0
  9  7  1  0
  3 10  1  0
  5 11  1  0
  5 12  1  0
  7 13  1  0
  8 14  1  0
  9 15  1  0
M  END
