
     RDKit          3D

 13 14  0  0  0  0  0  0  0  0999 V2000
    2.9317   -0.5063    0.2840 O   0  0  0  0  0  0  0  0  0  0  0  0
    1.6883   -0.4556    0.0491 C   0  0  0  0  0  0  0  0  0  0  0  0
    0.7398   -1.4581    0.1987 O   0  0  0  0  0  0  0  0  0  0  0  0
   -0.5381   -0.9299    0.3117 C   0  0  0  0  0  0  0  0  0  0  0  0
   -1.2869   -0.3152   -0.7825 C   0  0  0  0  0  0  0  0  0  0  0  0
   -0.4290    0.5700   -0.0009 C   0  0  0  0  0  0  0  0  0  0  0  0
   -0.8899    1.3940    1.0004 O   0  0  0  0  0  0  0  0  0  0  0  0
    0.9983    0.7258   -0.4454 C   0  0  0  0  0  0  0  0  0  0  0  0
    1.4748    1.6855   -1.1061 O   0  0  0  0  0  0  0  0  0  0  0  0
   -1.0948   -1.2150    1.2304 H   0  0  0  0  0  0  0  0  0  0  0  0
   -2.3837   -0.2616   -0.6734 H   0  0  0  0  0  0  0  0  0  0  0  0
   -0.9478   -0.5343   -1.8369 H   0  0  0  0  0  0  0  0  0  0  0  0
   -0.2626    1.3007    1.7709 H   0  0  0  0  0  0  0  0  0  0  0  0
  1  2  2  0
  2  3  1  0
  3  4  1  0
  4  5  1  0
  5  6  1  0
  6  7  1  0
  6  8  1  0
  8  9  2  0
  8  2  1  0
  6  4  1  0
  4 10  1  0
  5 11  1  0
  5 12  1  0
  7 13  1  0
M  END
