
     RDKit          3D

 17 18  0  0  0  0  0  0  0  0999 V2000
   -2.2950    1.9186   -0.7713 O   0  0  0  0  0  0  0  0  0  0  0  0
   -1.8443    0.7505   -0.6113 C   0  0  0  0  0  0  0  0  0  0  0  0
   -2.4260   -0.5241   -0.7435 O   0  0  0  0  0  0  0  0  0  0  0  0
   -1.5771   -0.9198    0.3278 C   0  0  0  0  0  0  0  0  0  0  0  0
   -0.6001    0.0965   -0.2384 C   0  0  0  0  0  0  0  0  0  0  0  0
    0.2900    0.7593    0.7503 C   0  0  0  0  0  0  0  0  0  0  0  0
    1.6064    0.0158    0.4832 C   0  0  0  0  0  0  0  0  0  0  0  0
    1.4718   -0.3438   -0.9579 C   0  0  0  0  0  0  0  0  0  0  0  0
    0.1457   -0.3245   -1.3026 O   0  0  0  0  0  0  0  0  0  0  0  0
   -1.9956   -0.5293    1.2727 H   0  0  0  0  0  0  0  0  0  0  0  0
   -1.2392   -1.9533    0.3159 H   0  0  0  0  0  0  0  0  0  0  0  0
    0.4054    1.8315    0.6545 H   0  0  0  0  0  0  0  0  0  0  0  0
    0.0131    0.4973    1.8014 H   0  0  0  0  0  0  0  0  0  0  0  0
    1.6204   -0.9154    1.0907 H   0  0  0  0  0  0  0  0  0  0  0  0
    2.4799    0.6404    0.6618 H   0  0  0  0  0  0  0  0  0  0  0  0
    2.0778    0.3760   -1.5582 H   0  0  0  0  0  0  0  0  0  0  0  0
    1.8669   -1.3756   -1.1750 H   0  0  0  0  0  0  0  0  0  0  0  0
  1  2  2  0
  2  3  1  0
  3  4  1  0
  4  5  1  0
  5  6  1  0
  6  7  1  0
  7  8  1  0
  8  9  1  0
  5  2  1  0
  9  5  1  0
  4 10  1  0
  4 11  1  0
  6 12  1  0
  6 13  1  0
  7 14  1  0
  7 15  1  0
  8 16  1  0
  8 17  1  0
M  END
