
     RDKit          3D

 13 13  0  0  0  0  0  0  0  0999 V2000
    2.5262   -1.8590   -0.0849 O   0  0  0  0  0  0  0  0  0  0  0  0
    1.5254   -1.0974   -0.0711 C   0  0  0  0  0  0  0  0  0  0  0  0
    1.6878    0.2648    0.0465 C   0  0  0  0  0  0  0  0  0  0  0  0
    0.5540    1.0499    0.0560 C   0  0  0  0  0  0  0  0  0  0  0  0
   -0.7180    0.4898   -0.0496 C   0  0  0  0  0  0  0  0  0  0  0  0
   -1.8513    1.2883   -0.0390 O   0  0  0  0  0  0  0  0  0  0  0  0
   -0.7808   -0.8768   -0.1628 C   0  0  0  0  0  0  0  0  0  0  0  0
   -2.0196   -1.5053   -0.2723 O   0  0  0  0  0  0  0  0  0  0  0  0
    0.3185   -1.6261   -0.1710 O   0  0  0  0  0  0  0  0  0  0  0  0
    2.6587    0.7266    0.1299 H   0  0  0  0  0  0  0  0  0  0  0  0
    0.6169    2.1283    0.1459 H   0  0  0  0  0  0  0  0  0  0  0  0
   -1.8117    2.2940    0.0440 H   0  0  0  0  0  0  0  0  0  0  0  0
   -2.7061   -1.2770    0.4284 H   0  0  0  0  0  0  0  0  0  0  0  0
  1  2  2  0
  2  3  1  0
  3  4  2  0
  4  5  1  0
  5  6  1  0
  5  7  2  0
  7  8  1  0
  7  9  1  0
  9  2  1  0
  3 10  1  0
  4 11  1  0
  6 12  1  0
  8 13  1  0
M  END
