
     RDKit          3D

 17 18  0  0  0  0  0  0  0  0999 V2000
   -0.6306    2.3608    0.4662 O   0  0  0  0  0  0  0  0  0  0  0  0
   -0.6005    1.2304    0.0656 C   0  0  0  0  0  0  0  0  0  0  0  0
   -1.7500    0.3124    0.3269 C   0  0  0  0  0  0  0  0  0  0  0  0
   -1.4394   -1.0795   -0.1866 C   0  0  0  0  0  0  0  0  0  0  0  0
   -0.1819   -1.5174   -0.2405 C   0  0  0  0  0  0  0  0  0  0  0  0
    0.8317   -0.5971    0.2123 C   0  0  0  0  0  0  0  0  0  0  0  0
    1.7990    0.2251   -0.3882 C   0  0  0  0  0  0  0  0  0  0  0  0
    2.6040    1.0442    0.4388 O   0  0  0  0  0  0  0  0  0  0  0  0
    0.4985    0.6672   -0.6759 C   0  0  0  0  0  0  0  0  0  0  0  0
   -2.6813    0.6612   -0.1420 H   0  0  0  0  0  0  0  0  0  0  0  0
   -1.8501    0.1737    1.4391 H   0  0  0  0  0  0  0  0  0  0  0  0
   -2.2769   -1.7003   -0.5062 H   0  0  0  0  0  0  0  0  0  0  0  0
    0.0387   -2.4994   -0.6027 H   0  0  0  0  0  0  0  0  0  0  0  0
    0.7081   -0.4478    1.3327 H   0  0  0  0  0  0  0  0  0  0  0  0
    2.4386   -0.1918   -1.2011 H   0  0  0  0  0  0  0  0  0  0  0  0
    2.3514    0.9235    1.3925 H   0  0  0  0  0  0  0  0  0  0  0  0
    0.1407    0.4348   -1.7309 H   0  0  0  0  0  0  0  0  0  0  0  0
  1  2  2  0
  2  3  1  0
  3  4  1  0
  4  5  2  0
  5  6  1  0
  6  7  1  0
  7  8  1  0
  7  9  1  0
  9  2  1  0
  9  6  1  0
  3 10  1  0
  3 11  1  0
  4 12  1  0
  5 13  1  0
  6 14  1  0
  7 15  1  0
  8 16  1  0
  9 17  1  0
M  END
