
     RDKit          3D

 19 20  0  0  0  0  0  0  0  0999 V2000
   -1.6302   -2.0293    0.9627 O   0  0  0  0  0  0  0  0  0  0  0  0
   -1.2851   -0.9295    0.5455 C   0  0  0  0  0  0  0  0  0  0  0  0
   -2.1385    0.0764   -0.1231 C   0  0  0  0  0  0  0  0  0  0  0  0
   -1.3111    1.3126   -0.1399 C   0  0  0  0  0  0  0  0  0  0  0  0
    0.1228    0.8239   -0.2074 C   0  0  0  0  0  0  0  0  0  0  0  0
    1.3536    0.9841   -0.6417 C   0  0  0  0  0  0  0  0  0  0  0  0
    2.2187   -0.1493   -0.1417 C   0  0  0  0  0  0  0  0  0  0  0  0
    1.1388   -1.2446   -0.0272 C   0  0  0  0  0  0  0  0  0  0  0  0
    0.0732   -0.4047    0.6394 C   0  0  0  0  0  0  0  0  0  0  0  0
   -3.0805    0.2448    0.4437 H   0  0  0  0  0  0  0  0  0  0  0  0
   -2.4236   -0.2745   -1.1376 H   0  0  0  0  0  0  0  0  0  0  0  0
   -1.3809    1.8572    0.8023 H   0  0  0  0  0  0  0  0  0  0  0  0
   -1.5225    2.0062   -0.9723 H   0  0  0  0  0  0  0  0  0  0  0  0
    1.6769    1.8072   -1.2604 H   0  0  0  0  0  0  0  0  0  0  0  0
    2.5717    0.0769    0.8830 H   0  0  0  0  0  0  0  0  0  0  0  0
    3.0003   -0.4194   -0.8508 H   0  0  0  0  0  0  0  0  0  0  0  0
    0.7733   -1.5074   -1.0381 H   0  0  0  0  0  0  0  0  0  0  0  0
    1.4732   -2.0806    0.5731 H   0  0  0  0  0  0  0  0  0  0  0  0
    0.3698   -0.1500    1.6905 H   0  0  0  0  0  0  0  0  0  0  0  0
  1  2  2  0
  2  3  1  0
  3  4  1  0
  4  5  1  0
  5  6  2  0
  6  7  1  0
  7  8  1  0
  8  9  1  0
  9  2  1  0
  9  5  1  0
  3 10  1  0
  3 11  1  0
  4 12  1  0
  4 13  1  0
  6 14  1  0
  7 15  1  0
  7 16  1  0
  8 17  1  0
  8 18  1  0
  9 19  1  0
M  END
