
     RDKit          3D

 17 18  0  0  0  0  0  0  0  0999 V2000
   -1.5510    2.3835   -0.3741 O   0  0  0  0  0  0  0  0  0  0  0  0
   -1.6317    1.1501   -0.1731 C   0  0  0  0  0  0  0  0  0  0  0  0
   -2.5192    0.2618    0.4051 O   0  0  0  0  0  0  0  0  0  0  0  0
   -1.8026   -0.8928    0.0054 C   0  0  0  0  0  0  0  0  0  0  0  0
   -0.7355    0.0259   -0.4970 C   0  0  0  0  0  0  0  0  0  0  0  0
    0.5496   -0.0117    0.2999 C   0  0  0  0  0  0  0  0  0  0  0  0
    0.3518   -0.1141    1.6683 O   0  0  0  0  0  0  0  0  0  0  0  0
    1.7326   -0.5384   -0.3805 C   0  0  0  0  0  0  0  0  0  0  0  0
    1.6613    0.9406   -0.0810 C   0  0  0  0  0  0  0  0  0  0  0  0
   -1.5033   -1.5246    0.8682 H   0  0  0  0  0  0  0  0  0  0  0  0
   -2.3178   -1.5083   -0.7733 H   0  0  0  0  0  0  0  0  0  0  0  0
   -0.5612   -0.1446   -1.5841 H   0  0  0  0  0  0  0  0  0  0  0  0
    0.4794   -1.0083    2.0299 H   0  0  0  0  0  0  0  0  0  0  0  0
    1.6496   -0.7789   -1.4554 H   0  0  0  0  0  0  0  0  0  0  0  0
    2.4363   -1.1637    0.1986 H   0  0  0  0  0  0  0  0  0  0  0  0
    1.3918    1.6527   -0.8597 H   0  0  0  0  0  0  0  0  0  0  0  0
    2.3698    1.2707    0.7029 H   0  0  0  0  0  0  0  0  0  0  0  0
  1  2  2  0
  2  3  1  0
  3  4  1  0
  4  5  1  0
  5  6  1  0
  6  7  1  0
  6  8  1  0
  8  9  1  0
  5  2  1  0
  9  6  1  0
  4 10  1  0
  4 11  1  0
  5 12  1  0
  7 13  1  0
  8 14  1  0
  8 15  1  0
  9 16  1  0
  9 17  1  0
M  END
