
     RDKit          3D

 13 14  0  0  0  0  0  0  0  0999 V2000
    2.7164    0.3639   -0.8254 O   0  0  0  0  0  0  0  0  0  0  0  0
    1.4769    0.2485   -0.6957 C   0  0  0  0  0  0  0  0  0  0  0  0
    0.8220   -0.9132   -0.0373 C   0  0  0  0  0  0  0  0  0  0  0  0
   -0.2624   -0.2225    0.7512 C   0  0  0  0  0  0  0  0  0  0  0  0
   -1.5422   -0.0238    0.0397 C   0  0  0  0  0  0  0  0  0  0  0  0
   -0.5473    1.0483   -0.0721 C   0  0  0  0  0  0  0  0  0  0  0  0
    0.4318    1.0729   -1.0802 O   0  0  0  0  0  0  0  0  0  0  0  0
    0.3838   -1.5269   -0.8473 H   0  0  0  0  0  0  0  0  0  0  0  0
    1.5214   -1.4827    0.6052 H   0  0  0  0  0  0  0  0  0  0  0  0
   -0.1259   -0.0526    1.8195 H   0  0  0  0  0  0  0  0  0  0  0  0
   -1.7357   -0.6867   -0.8372 H   0  0  0  0  0  0  0  0  0  0  0  0
   -2.4268    0.1804    0.6662 H   0  0  0  0  0  0  0  0  0  0  0  0
   -0.7120    1.9943    0.5133 H   0  0  0  0  0  0  0  0  0  0  0  0
  1  2  2  0
  2  3  1  0
  3  4  1  0
  4  5  1  0
  5  6  1  0
  6  7  1  0
  7  2  1  0
  6  4  1  0
  3  8  1  0
  3  9  1  0
  4 10  1  0
  5 11  1  0
  5 12  1  0
  6 13  1  0
M  END
