
     RDKit          3D

 17 17  0  0  0  0  0  0  0  0999 V2000
   -2.8967    0.0981   -0.8101 O   0  0  0  0  0  0  0  0  0  0  0  0
   -1.6484   -0.0780   -0.7021 C   0  0  0  0  0  0  0  0  0  0  0  0
   -0.9903   -1.2169   -1.1343 O   0  0  0  0  0  0  0  0  0  0  0  0
    0.0710   -1.7036   -0.3378 C   0  0  0  0  0  0  0  0  0  0  0  0
    1.0744   -0.6169    0.0080 C   0  0  0  0  0  0  0  0  0  0  0  0
    1.7710   -0.1729   -1.0907 O   0  0  0  0  0  0  0  0  0  0  0  0
    0.3269    0.4926    0.7160 C   0  0  0  0  0  0  0  0  0  0  0  0
   -0.8397    0.9950   -0.0772 C   0  0  0  0  0  0  0  0  0  0  0  0
   -0.4276    1.8638   -1.0857 O   0  0  0  0  0  0  0  0  0  0  0  0
   -0.3340   -2.0822    0.6216 H   0  0  0  0  0  0  0  0  0  0  0  0
    0.5640   -2.5609   -0.8377 H   0  0  0  0  0  0  0  0  0  0  0  0
    1.7771   -1.0521    0.7456 H   0  0  0  0  0  0  0  0  0  0  0  0
    2.5832    0.3075   -0.7393 H   0  0  0  0  0  0  0  0  0  0  0  0
    0.9969    1.3514    0.9101 H   0  0  0  0  0  0  0  0  0  0  0  0
   -0.0710    0.0518    1.6626 H   0  0  0  0  0  0  0  0  0  0  0  0
   -1.5110    1.5200    0.6563 H   0  0  0  0  0  0  0  0  0  0  0  0
   -0.4458    2.8033   -0.8364 H   0  0  0  0  0  0  0  0  0  0  0  0
  1  2  2  0
  2  3  1  0
  3  4  1  0
  4  5  1  0
  5  6  1  0
  5  7  1  0
  7  8  1  0
  8  9  1  0
  8  2  1  0
  4 10  1  0
  4 11  1  0
  5 12  1  0
  6 13  1  0
  7 14  1  0
  7 15  1  0
  8 16  1  0
  9 17  1  0
M  END
