
     RDKit          3D

 17 19  0  0  0  0  0  0  0  0999 V2000
    1.9805    1.9991    0.5235 O   0  0  0  0  0  0  0  0  0  0  0  0
    1.3442    0.9408    0.3406 C   0  0  0  0  0  0  0  0  0  0  0  0
    1.9120   -0.3613    0.0590 C   0  0  0  0  0  0  0  0  0  0  0  0
    0.9619   -1.2819    0.0204 C   0  0  0  0  0  0  0  0  0  0  0  0
   -0.3746   -0.7287    0.2700 C   0  0  0  0  0  0  0  0  0  0  0  0
   -1.3421   -0.5073   -0.8563 C   0  0  0  0  0  0  0  0  0  0  0  0
   -0.7991    0.8988   -0.9539 C   0  0  0  0  0  0  0  0  0  0  0  0
   -0.1095    0.8058    0.3748 C   0  0  0  0  0  0  0  0  0  0  0  0
   -0.6840    0.0465    1.5052 C   0  0  0  0  0  0  0  0  0  0  0  0
    2.9804   -0.5256   -0.0948 H   0  0  0  0  0  0  0  0  0  0  0  0
    1.1576   -2.3262   -0.1747 H   0  0  0  0  0  0  0  0  0  0  0  0
   -1.2107   -1.1375   -1.7521 H   0  0  0  0  0  0  0  0  0  0  0  0
   -2.3889   -0.4971   -0.4355 H   0  0  0  0  0  0  0  0  0  0  0  0
   -1.5439    1.6964   -1.0756 H   0  0  0  0  0  0  0  0  0  0  0  0
   -0.0889    0.9393   -1.8275 H   0  0  0  0  0  0  0  0  0  0  0  0
   -1.7477    0.1924    1.7149 H   0  0  0  0  0  0  0  0  0  0  0  0
   -0.0473   -0.1533    2.3618 H   0  0  0  0  0  0  0  0  0  0  0  0
  1  2  2  0
  2  3  1  0
  3  4  2  0
  4  5  1  0
  5  6  1  0
  6  7  1  0
  7  8  1  0
  8  9  1  0
  8  2  1  0
  8  5  1  0
  9  5  1  0
  3 10  1  0
  4 11  1  0
  6 12  1  0
  6 13  1  0
  7 14  1  0
  7 15  1  0
  9 16  1  0
  9 17  1  0
M  END
