
     RDKit          3D

 15 15  0  0  0  0  0  0  0  0999 V2000
   -0.4986   -0.3869   -2.3737 O   0  0  0  0  0  0  0  0  0  0  0  0
   -0.3231   -0.2218   -1.1877 C   0  0  0  0  0  0  0  0  0  0  0  0
   -1.4592    0.0556   -0.2991 C   0  0  0  0  0  0  0  0  0  0  0  0
   -0.9420    0.3338    1.1137 C   0  0  0  0  0  0  0  0  0  0  0  0
    0.1258    1.2625    0.9480 O   0  0  0  0  0  0  0  0  0  0  0  0
    1.2436    0.8208    0.2640 C   0  0  0  0  0  0  0  0  0  0  0  0
    2.3552    1.3343    0.4176 O   0  0  0  0  0  0  0  0  0  0  0  0
    1.0662   -0.3104   -0.6789 C   0  0  0  0  0  0  0  0  0  0  0  0
    1.2994   -1.5341   -0.0289 O   0  0  0  0  0  0  0  0  0  0  0  0
   -2.0212    0.9764   -0.5808 H   0  0  0  0  0  0  0  0  0  0  0  0
   -2.1519   -0.8063   -0.1940 H   0  0  0  0  0  0  0  0  0  0  0  0
   -1.7291    0.6982    1.7735 H   0  0  0  0  0  0  0  0  0  0  0  0
   -0.5363   -0.6319    1.5025 H   0  0  0  0  0  0  0  0  0  0  0  0
    1.8063   -0.2763   -1.5064 H   0  0  0  0  0  0  0  0  0  0  0  0
    1.7649   -1.3141    0.8304 H   0  0  0  0  0  0  0  0  0  0  0  0
  1  2  2  0
  2  3  1  0
  3  4  1  0
  4  5  1  0
  5  6  1  0
  6  7  2  0
  6  8  1  0
  8  9  1  0
  8  2  1  0
  3 10  1  0
  3 11  1  0
  4 12  1  0
  4 13  1  0
  8 14  1  0
  9 15  1  0
M  END
