
     RDKit          3D

 19 20  0  0  0  0  0  0  0  0999 V2000
    2.0784    1.6159   -1.0584 O   0  0  0  0  0  0  0  0  0  0  0  0
    1.5836    0.7976   -0.3120 C   0  0  0  0  0  0  0  0  0  0  0  0
    2.2655   -0.4403    0.1639 C   0  0  0  0  0  0  0  0  0  0  0  0
    1.2281   -1.3680    0.0646 O   0  0  0  0  0  0  0  0  0  0  0  0
    0.1154   -0.7615    0.5916 C   0  0  0  0  0  0  0  0  0  0  0  0
   -1.1558   -1.1777   -0.1564 C   0  0  0  0  0  0  0  0  0  0  0  0
   -1.9546    0.1091   -0.1110 C   0  0  0  0  0  0  0  0  0  0  0  0
   -0.8783    1.1140   -0.5429 C   0  0  0  0  0  0  0  0  0  0  0  0
    0.2542    0.7351    0.3349 C   0  0  0  0  0  0  0  0  0  0  0  0
    2.4701   -0.3169    1.2464 H   0  0  0  0  0  0  0  0  0  0  0  0
    3.1375   -0.7027   -0.4288 H   0  0  0  0  0  0  0  0  0  0  0  0
    0.0057   -0.9069    1.6756 H   0  0  0  0  0  0  0  0  0  0  0  0
   -1.6624   -2.0207    0.3210 H   0  0  0  0  0  0  0  0  0  0  0  0
   -0.8961   -1.3852   -1.2174 H   0  0  0  0  0  0  0  0  0  0  0  0
   -2.8137    0.1149   -0.7809 H   0  0  0  0  0  0  0  0  0  0  0  0
   -2.2356    0.2942    0.9622 H   0  0  0  0  0  0  0  0  0  0  0  0
   -1.2278    2.1451   -0.4377 H   0  0  0  0  0  0  0  0  0  0  0  0
   -0.6340    0.8469   -1.5928 H   0  0  0  0  0  0  0  0  0  0  0  0
    0.3202    1.3072    1.2782 H   0  0  0  0  0  0  0  0  0  0  0  0
  1  2  2  0
  2  3  1  0
  3  4  1  0
  4  5  1  0
  5  6  1  0
  6  7  1  0
  7  8  1  0
  8  9  1  0
  9  2  1  0
  9  5  1  0
  3 10  1  0
  3 11  1  0
  5 12  1  0
  6 13  1  0
  6 14  1  0
  7 15  1  0
  7 16  1  0
  8 17  1  0
  8 18  1  0
  9 19  1  0
M  END
