
     RDKit          3D

 14 15  0  0  0  0  0  0  0  0999 V2000
    0.9732   -2.1609   -1.1714 O   0  0  0  0  0  0  0  0  0  0  0  0
    0.6461   -1.2728   -0.4237 C   0  0  0  0  0  0  0  0  0  0  0  0
   -0.7491   -0.8366   -0.1240 C   0  0  0  0  0  0  0  0  0  0  0  0
   -0.5662    0.6290    0.3235 C   0  0  0  0  0  0  0  0  0  0  0  0
   -1.5058    1.3624   -0.3972 O   0  0  0  0  0  0  0  0  0  0  0  0
    0.7857    0.8990   -0.2413 C   0  0  0  0  0  0  0  0  0  0  0  0
    2.0023    0.7913    0.2185 O   0  0  0  0  0  0  0  0  0  0  0  0
    1.4375   -0.3761    0.3926 C   0  0  0  0  0  0  0  0  0  0  0  0
   -1.4264   -0.9320   -0.9594 H   0  0  0  0  0  0  0  0  0  0  0  0
   -1.1016   -1.3837    0.7964 H   0  0  0  0  0  0  0  0  0  0  0  0
   -0.6521    0.7395    1.4031 H   0  0  0  0  0  0  0  0  0  0  0  0
   -1.7633    2.1755    0.0679 H   0  0  0  0  0  0  0  0  0  0  0  0
    0.7429    0.9040   -1.3738 H   0  0  0  0  0  0  0  0  0  0  0  0
    1.1767   -0.5387    1.4887 H   0  0  0  0  0  0  0  0  0  0  0  0
  1  2  2  0
  2  3  1  0
  3  4  1  0
  4  5  1  0
  4  6  1  0
  6  7  1  0
  7  8  1  0
  8  2  1  0
  8  6  1  0
  3  9  1  0
  3 10  1  0
  4 11  1  0
  5 12  1  0
  6 13  1  0
  8 14  1  0
M  END
