
     RDKit          3D

 17 18  0  0  0  0  0  0  0  0999 V2000
    0.1701   -0.0128    2.5268 O   0  0  0  0  0  0  0  0  0  0  0  0
    0.1710   -0.2589    1.3468 C   0  0  0  0  0  0  0  0  0  0  0  0
   -0.4426   -1.2136    0.3964 C   0  0  0  0  0  0  0  0  0  0  0  0
   -1.6396   -0.5080   -0.1893 C   0  0  0  0  0  0  0  0  0  0  0  0
   -1.4906    0.8172   -0.3413 C   0  0  0  0  0  0  0  0  0  0  0  0
   -0.0944    1.3216   -0.4729 C   0  0  0  0  0  0  0  0  0  0  0  0
    0.8711    0.3629    0.1987 C   0  0  0  0  0  0  0  0  0  0  0  0
    2.1215    0.8538    0.4148 O   0  0  0  0  0  0  0  0  0  0  0  0
    0.7561   -0.9656   -0.5028 C   0  0  0  0  0  0  0  0  0  0  0  0
   -0.6062   -2.2278    0.7275 H   0  0  0  0  0  0  0  0  0  0  0  0
   -2.5385   -1.0362   -0.4608 H   0  0  0  0  0  0  0  0  0  0  0  0
   -2.3621    1.4838   -0.3656 H   0  0  0  0  0  0  0  0  0  0  0  0
    0.0450    2.3076    0.0084 H   0  0  0  0  0  0  0  0  0  0  0  0
    0.1591    1.3329   -1.5504 H   0  0  0  0  0  0  0  0  0  0  0  0
    2.8631    0.2665    0.1614 H   0  0  0  0  0  0  0  0  0  0  0  0
    0.4446   -0.8522   -1.5648 H   0  0  0  0  0  0  0  0  0  0  0  0
    1.5724   -1.6712   -0.3327 H   0  0  0  0  0  0  0  0  0  0  0  0
  1  2  2  0
  2  3  1  0
  3  4  1  0
  4  5  2  0
  5  6  1  0
  6  7  1  0
  7  8  1  0
  7  9  1  0
  7  2  1  0
  9  3  1  0
  3 10  1  0
  4 11  1  0
  5 12  1  0
  6 13  1  0
  6 14  1  0
  8 15  1  0
  9 16  1  0
  9 17  1  0
M  END
