
     RDKit          3D

 19 20  0  0  0  0  0  0  0  0999 V2000
    2.0411   -2.2123    0.2903 O   0  0  0  0  0  0  0  0  0  0  0  0
    1.3876   -1.1895    0.2060 C   0  0  0  0  0  0  0  0  0  0  0  0
    2.1214    0.0535   -0.1584 C   0  0  0  0  0  0  0  0  0  0  0  0
    1.0615    1.1044   -0.4665 C   0  0  0  0  0  0  0  0  0  0  0  0
    0.0649    0.4281   -1.2020 O   0  0  0  0  0  0  0  0  0  0  0  0
   -0.7930   -0.1120   -0.2219 C   0  0  0  0  0  0  0  0  0  0  0  0
   -2.2417   -0.0919   -0.4417 C   0  0  0  0  0  0  0  0  0  0  0  0
   -1.5927    0.9007    0.5037 C   0  0  0  0  0  0  0  0  0  0  0  0
   -0.0740   -1.2179    0.4621 C   0  0  0  0  0  0  0  0  0  0  0  0
    2.6799   -0.1159   -1.0925 H   0  0  0  0  0  0  0  0  0  0  0  0
    2.7471    0.3412    0.6931 H   0  0  0  0  0  0  0  0  0  0  0  0
    0.6369    1.4559    0.5136 H   0  0  0  0  0  0  0  0  0  0  0  0
    1.4623    1.9694   -1.0027 H   0  0  0  0  0  0  0  0  0  0  0  0
   -2.8745   -0.8310    0.0835 H   0  0  0  0  0  0  0  0  0  0  0  0
   -2.5969    0.2728   -1.4302 H   0  0  0  0  0  0  0  0  0  0  0  0
   -1.6893    0.7756    1.5836 H   0  0  0  0  0  0  0  0  0  0  0  0
   -1.6095    1.9558    0.1198 H   0  0  0  0  0  0  0  0  0  0  0  0
   -0.2837   -1.3015    1.5450 H   0  0  0  0  0  0  0  0  0  0  0  0
   -0.4475   -2.1852    0.0153 H   0  0  0  0  0  0  0  0  0  0  0  0
  1  2  2  0
  2  3  1  0
  3  4  1  0
  4  5  1  0
  5  6  1  0
  6  7  1  0
  7  8  1  0
  6  9  1  0
  9  2  1  0
  8  6  1  0
  3 10  1  0
  3 11  1  0
  4 12  1  0
  4 13  1  0
  7 14  1  0
  7 15  1  0
  8 16  1  0
  8 17  1  0
  9 18  1  0
  9 19  1  0
M  END
