
     RDKit          3D

 13 15  0  0  0  0  0  0  0  0999 V2000
    2.5932    0.3493   -1.2284 O   0  0  0  0  0  0  0  0  0  0  0  0
    1.4133    0.3855   -0.8117 C   0  0  0  0  0  0  0  0  0  0  0  0
    0.5918    1.4964   -0.7142 O   0  0  0  0  0  0  0  0  0  0  0  0
   -0.6435    1.1335   -0.0880 C   0  0  0  0  0  0  0  0  0  0  0  0
   -1.2676   -0.1846   -0.4868 C   0  0  0  0  0  0  0  0  0  0  0  0
   -0.4652   -1.0991   -1.1357 O   0  0  0  0  0  0  0  0  0  0  0  0
    0.6413   -0.7854   -0.3270 C   0  0  0  0  0  0  0  0  0  0  0  0
   -0.3262   -0.1169    0.6032 C   0  0  0  0  0  0  0  0  0  0  0  0
   -0.4896   -0.4135    1.8887 O   0  0  0  0  0  0  0  0  0  0  0  0
   -1.2576    1.9077    0.3557 H   0  0  0  0  0  0  0  0  0  0  0  0
   -2.3497   -0.3220   -0.4190 H   0  0  0  0  0  0  0  0  0  0  0  0
    1.1968   -1.6182    0.0762 H   0  0  0  0  0  0  0  0  0  0  0  0
    0.3629   -0.7327    2.2871 H   0  0  0  0  0  0  0  0  0  0  0  0
  1  2  2  0
  2  3  1  0
  3  4  1  0
  4  5  1  0
  5  6  1  0
  6  7  1  0
  7  8  1  0
  8  9  1  0
  7  2  1  0
  8  4  1  0
  8  5  1  0
  4 10  1  0
  5 11  1  0
  7 12  1  0
  9 13  1  0
M  END
