
     RDKit          3D

 17 19  0  0  0  0  0  0  0  0999 V2000
    0.6508    2.0427   -1.6979 O   0  0  0  0  0  0  0  0  0  0  0  0
    0.4439    1.1943   -0.8584 C   0  0  0  0  0  0  0  0  0  0  0  0
    1.5231    0.2595   -0.4920 C   0  0  0  0  0  0  0  0  0  0  0  0
    0.8930   -0.7640    0.4534 C   0  0  0  0  0  0  0  0  0  0  0  0
   -0.3461   -1.3696   -0.1868 C   0  0  0  0  0  0  0  0  0  0  0  0
   -1.3642   -0.2820   -0.0095 C   0  0  0  0  0  0  0  0  0  0  0  0
   -0.8374    0.4895    1.1481 C   0  0  0  0  0  0  0  0  0  0  0  0
    0.3749   -0.0459    1.5204 O   0  0  0  0  0  0  0  0  0  0  0  0
   -0.8608    1.0950   -0.2132 C   0  0  0  0  0  0  0  0  0  0  0  0
    2.2869    0.7964    0.1317 H   0  0  0  0  0  0  0  0  0  0  0  0
    1.9998   -0.2212   -1.3580 H   0  0  0  0  0  0  0  0  0  0  0  0
    1.6136   -1.5198    0.7913 H   0  0  0  0  0  0  0  0  0  0  0  0
   -0.1912   -1.6881   -1.2165 H   0  0  0  0  0  0  0  0  0  0  0  0
   -0.6492   -2.2124    0.4944 H   0  0  0  0  0  0  0  0  0  0  0  0
   -2.4394   -0.4894   -0.1054 H   0  0  0  0  0  0  0  0  0  0  0  0
   -1.4702    0.8463    1.9571 H   0  0  0  0  0  0  0  0  0  0  0  0
   -1.6275    1.8688   -0.3585 H   0  0  0  0  0  0  0  0  0  0  0  0
  1  2  2  0
  2  3  1  0
  3  4  1  0
  4  5  1  0
  5  6  1  0
  6  7  1  0
  7  8  1  0
  7  9  1  0
  9  2  1  0
  8  4  1  0
  9  6  1  0
  3 10  1  0
  3 11  1  0
  4 12  1  0
  5 13  1  0
  5 14  1  0
  6 15  1  0
  7 16  1  0
  9 17  1  0
M  END
