
     RDKit          3D

 17 17  0  0  0  0  0  0  0  0999 V2000
   -2.2500    1.7829   -0.9767 O   0  0  0  0  0  0  0  0  0  0  0  0
   -1.3497    1.0923   -0.4503 C   0  0  0  0  0  0  0  0  0  0  0  0
    0.0182    1.3076   -0.3601 O   0  0  0  0  0  0  0  0  0  0  0  0
    0.6669    0.2202    0.2602 C   0  0  0  0  0  0  0  0  0  0  0  0
    2.0265   -0.0086   -0.3628 C   0  0  0  0  0  0  0  0  0  0  0  0
    2.7546    1.1747   -0.1694 O   0  0  0  0  0  0  0  0  0  0  0  0
   -0.2791   -0.9213   -0.0037 C   0  0  0  0  0  0  0  0  0  0  0  0
   -1.6171   -0.2164    0.2429 C   0  0  0  0  0  0  0  0  0  0  0  0
   -2.6732   -0.8925   -0.3019 O   0  0  0  0  0  0  0  0  0  0  0  0
    0.7349    0.3527    1.3662 H   0  0  0  0  0  0  0  0  0  0  0  0
    2.5544   -0.8146    0.1601 H   0  0  0  0  0  0  0  0  0  0  0  0
    1.8788   -0.1930   -1.4344 H   0  0  0  0  0  0  0  0  0  0  0  0
    3.0028    1.1829    0.7913 H   0  0  0  0  0  0  0  0  0  0  0  0
   -0.2340   -1.1426   -1.0858 H   0  0  0  0  0  0  0  0  0  0  0  0
   -0.1344   -1.7838    0.6444 H   0  0  0  0  0  0  0  0  0  0  0  0
   -1.7269    0.0279    1.3152 H   0  0  0  0  0  0  0  0  0  0  0  0
   -3.3728   -1.1682    0.3648 H   0  0  0  0  0  0  0  0  0  0  0  0
  1  2  2  0
  2  3  1  0
  3  4  1  0
  4  5  1  0
  5  6  1  0
  4  7  1  0
  7  8  1  0
  8  9  1  0
  8  2  1  0
  4 10  1  0
  5 11  1  0
  5 12  1  0
  6 13  1  0
  7 14  1  0
  7 15  1  0
  8 16  1  0
  9 17  1  0
M  END
