
     RDKit          3D

 17 19  0  0  0  0  0  0  0  0999 V2000
   -0.9125    1.5272   -2.0558 O   0  0  0  0  0  0  0  0  0  0  0  0
   -0.7757    0.7819   -1.1233 C   0  0  0  0  0  0  0  0  0  0  0  0
   -1.4889   -0.1980   -0.2594 C   0  0  0  0  0  0  0  0  0  0  0  0
   -1.8675   -0.0984    1.1104 C   0  0  0  0  0  0  0  0  0  0  0  0
   -0.6958    0.6607    0.8158 C   0  0  0  0  0  0  0  0  0  0  0  0
    0.3524    0.4092   -0.2275 C   0  0  0  0  0  0  0  0  0  0  0  0
    0.9835   -0.8935   -0.3496 C   0  0  0  0  0  0  0  0  0  0  0  0
    2.2245   -0.0439   -0.1531 C   0  0  0  0  0  0  0  0  0  0  0  0
    1.4622    1.1460   -0.2299 O   0  0  0  0  0  0  0  0  0  0  0  0
   -1.0082   -1.2031   -0.4881 H   0  0  0  0  0  0  0  0  0  0  0  0
   -1.7231   -0.9384    1.8561 H   0  0  0  0  0  0  0  0  0  0  0  0
   -2.8816    0.3654    1.3105 H   0  0  0  0  0  0  0  0  0  0  0  0
   -0.9296    1.7753    0.7611 H   0  0  0  0  0  0  0  0  0  0  0  0
    0.9429   -1.4123   -1.3159 H   0  0  0  0  0  0  0  0  0  0  0  0
    0.7514   -1.5633    0.5193 H   0  0  0  0  0  0  0  0  0  0  0  0
    2.6605   -0.2309    0.8435 H   0  0  0  0  0  0  0  0  0  0  0  0
    2.9057   -0.0840   -1.0141 H   0  0  0  0  0  0  0  0  0  0  0  0
  1  2  2  0
  2  3  1  0
  3  4  1  0
  4  5  1  0
  5  6  1  0
  6  7  1  0
  7  8  1  0
  8  9  1  0
  6  2  1  0
  5  3  1  0
  9  6  1  0
  3 10  1  0
  4 11  1  0
  4 12  1  0
  5 13  1  0
  7 14  1  0
  7 15  1  0
  8 16  1  0
  8 17  1  0
M  END
