
     RDKit          3D

 17 19  0  0  0  0  0  0  0  0999 V2000
    1.1696   -0.2357   -2.5609 O   0  0  0  0  0  0  0  0  0  0  0  0
    1.3398   -0.1240   -1.3343 C   0  0  0  0  0  0  0  0  0  0  0  0
    2.4152   -0.3763   -0.5065 O   0  0  0  0  0  0  0  0  0  0  0  0
    1.8764    0.1920    0.6675 C   0  0  0  0  0  0  0  0  0  0  0  0
    1.0957    1.4485    0.5972 C   0  0  0  0  0  0  0  0  0  0  0  0
    0.5636    0.3041   -0.1553 C   0  0  0  0  0  0  0  0  0  0  0  0
   -0.5214   -0.5872    0.3095 C   0  0  0  0  0  0  0  0  0  0  0  0
   -1.6223   -0.8306   -0.7555 C   0  0  0  0  0  0  0  0  0  0  0  0
   -1.9054   -0.1441    0.5469 C   0  0  0  0  0  0  0  0  0  0  0  0
    1.8460   -0.4212    1.5722 H   0  0  0  0  0  0  0  0  0  0  0  0
    1.4803    2.2982   -0.0432 H   0  0  0  0  0  0  0  0  0  0  0  0
    0.6655    1.8088    1.5345 H   0  0  0  0  0  0  0  0  0  0  0  0
   -0.1897   -1.5000    0.8648 H   0  0  0  0  0  0  0  0  0  0  0  0
   -1.8843   -1.8779   -0.9100 H   0  0  0  0  0  0  0  0  0  0  0  0
   -1.6355   -0.1428   -1.6298 H   0  0  0  0  0  0  0  0  0  0  0  0
   -2.5231   -0.7396    1.2516 H   0  0  0  0  0  0  0  0  0  0  0  0
   -2.1703    0.9278    0.5514 H   0  0  0  0  0  0  0  0  0  0  0  0
  1  2  2  0
  2  3  1  0
  3  4  1  0
  4  5  1  0
  5  6  1  0
  6  7  1  0
  7  8  1  0
  8  9  1  0
  6  2  1  0
  9  7  1  0
  6  4  1  0
  4 10  1  0
  5 11  1  0
  5 12  1  0
  7 13  1  0
  8 14  1  0
  8 15  1  0
  9 16  1  0
  9 17  1  0
M  END
