
     RDKit          3D

 21 22  0  0  0  0  0  0  0  0999 V2000
    0.9877   -1.0017    2.2218 O   0  0  0  0  0  0  0  0  0  0  0  0
    0.7187   -0.5579    1.1538 C   0  0  0  0  0  0  0  0  0  0  0  0
    0.7614    0.8550    0.7186 C   0  0  0  0  0  0  0  0  0  0  0  0
   -0.5946    1.3276    0.2267 C   0  0  0  0  0  0  0  0  0  0  0  0
   -1.6511    0.2839    0.3506 C   0  0  0  0  0  0  0  0  0  0  0  0
   -1.2550   -1.0967   -0.0578 C   0  0  0  0  0  0  0  0  0  0  0  0
    0.2643   -1.2979   -0.0434 C   0  0  0  0  0  0  0  0  0  0  0  0
    0.8974   -0.5048   -1.1875 C   0  0  0  0  0  0  0  0  0  0  0  0
    1.6050    0.6754   -0.5565 C   0  0  0  0  0  0  0  0  0  0  0  0
    1.2310    1.5353    1.4256 H   0  0  0  0  0  0  0  0  0  0  0  0
   -0.9089    2.2062    0.8351 H   0  0  0  0  0  0  0  0  0  0  0  0
   -0.5752    1.6813   -0.8241 H   0  0  0  0  0  0  0  0  0  0  0  0
   -2.5068    0.5870   -0.3215 H   0  0  0  0  0  0  0  0  0  0  0  0
   -2.0606    0.3363    1.3832 H   0  0  0  0  0  0  0  0  0  0  0  0
   -1.6358   -1.7965    0.7433 H   0  0  0  0  0  0  0  0  0  0  0  0
   -1.7004   -1.4446   -0.9948 H   0  0  0  0  0  0  0  0  0  0  0  0
    0.5097   -2.3546   -0.0603 H   0  0  0  0  0  0  0  0  0  0  0  0
    0.1217   -0.1670   -1.9082 H   0  0  0  0  0  0  0  0  0  0  0  0
    1.5866   -1.1723   -1.7061 H   0  0  0  0  0  0  0  0  0  0  0  0
    2.5958    0.3348   -0.2244 H   0  0  0  0  0  0  0  0  0  0  0  0
    1.6091    1.5713   -1.1741 H   0  0  0  0  0  0  0  0  0  0  0  0
  1  2  2  0
  2  3  1  0
  3  4  1  0
  4  5  1  0
  5  6  1  0
  6  7  1  0
  7  8  1  0
  8  9  1  0
  7  2  1  0
  9  3  1  0
  3 10  1  0
  4 11  1  0
  4 12  1  0
  5 13  1  0
  5 14  1  0
  6 15  1  0
  6 16  1  0
  7 17  1  0
  8 18  1  0
  8 19  1  0
  9 20  1  0
  9 21  1  0
M  END
