
     RDKit          3D

 14 15  0  0  0  0  0  0  0  0999 V2000
   -2.3564   -1.4931    0.1607 O   0  0  0  0  0  0  0  0  0  0  0  0
   -1.4079   -0.7126   -0.0647 C   0  0  0  0  0  0  0  0  0  0  0  0
   -1.4927    0.7093   -0.3113 C   0  0  0  0  0  0  0  0  0  0  0  0
   -0.2980    1.2255   -0.5277 C   0  0  0  0  0  0  0  0  0  0  0  0
    0.7518    0.1856   -0.4497 C   0  0  0  0  0  0  0  0  0  0  0  0
    1.3905    0.0117    0.8919 C   0  0  0  0  0  0  0  0  0  0  0  0
    0.5967   -1.1258    1.1318 O   0  0  0  0  0  0  0  0  0  0  0  0
    0.0163   -1.0901   -0.1260 C   0  0  0  0  0  0  0  0  0  0  0  0
   -2.3998    1.2764   -0.3192 H   0  0  0  0  0  0  0  0  0  0  0  0
   -0.0622    2.2683   -0.7394 H   0  0  0  0  0  0  0  0  0  0  0  0
    1.3942    0.1142   -1.3310 H   0  0  0  0  0  0  0  0  0  0  0  0
    2.4628   -0.2651    0.8799 H   0  0  0  0  0  0  0  0  0  0  0  0
    1.1965    0.8436    1.5878 H   0  0  0  0  0  0  0  0  0  0  0  0
    0.2083   -1.9479   -0.7831 H   0  0  0  0  0  0  0  0  0  0  0  0
  1  2  2  0
  2  3  1  0
  3  4  2  0
  4  5  1  0
  5  6  1  0
  6  7  1  0
  7  8  1  0
  8  2  1  0
  8  5  1  0
  3  9  1  0
  4 10  1  0
  5 11  1  0
  6 12  1  0
  6 13  1  0
  8 14  1  0
M  END
