
     RDKit          3D

 17 18  0  0  0  0  0  0  0  0999 V2000
   -2.4468    0.3197   -0.9664 O   0  0  0  0  0  0  0  0  0  0  0  0
   -1.3875    0.3279   -0.4333 C   0  0  0  0  0  0  0  0  0  0  0  0
   -0.2547    1.2625   -0.2971 C   0  0  0  0  0  0  0  0  0  0  0  0
    0.9356    0.5766   -0.8971 C   0  0  0  0  0  0  0  0  0  0  0  0
    0.5783   -0.8738   -0.5188 C   0  0  0  0  0  0  0  0  0  0  0  0
    1.5940   -1.4986    0.1504 O   0  0  0  0  0  0  0  0  0  0  0  0
   -0.5847   -0.5830    0.4007 C   0  0  0  0  0  0  0  0  0  0  0  0
   -1.1496   -1.5564    1.0979 O   0  0  0  0  0  0  0  0  0  0  0  0
   -0.1804    0.7047    1.1405 C   0  0  0  0  0  0  0  0  0  0  0  0
   -0.3940    2.3050   -0.4017 H   0  0  0  0  0  0  0  0  0  0  0  0
    1.0226    0.6892   -1.9834 H   0  0  0  0  0  0  0  0  0  0  0  0
    1.8296    0.8333   -0.3235 H   0  0  0  0  0  0  0  0  0  0  0  0
    0.2772   -1.3798   -1.4413 H   0  0  0  0  0  0  0  0  0  0  0  0
    2.3180   -0.9303    0.4666 H   0  0  0  0  0  0  0  0  0  0  0  0
   -1.9668   -1.9364    0.6784 H   0  0  0  0  0  0  0  0  0  0  0  0
    0.8215    0.6906    1.5663 H   0  0  0  0  0  0  0  0  0  0  0  0
   -1.0123    1.0489    1.7620 H   0  0  0  0  0  0  0  0  0  0  0  0
  1  2  2  0
  2  3  1  0
  3  4  1  0
  4  5  1  0
  5  6  1  0
  5  7  1  0
  7  8  1  0
  7  9  1  0
  7  2  1  0
  9  3  1  0
  3 10  1  0
  4 11  1  0
  4 12  1  0
  5 13  1  0
  6 14  1  0
  8 15  1  0
  9 16  1  0
  9 17  1  0
M  END
