
     RDKit          3D

 21 22  0  0  0  0  0  0  0  0999 V2000
   -0.4772   -1.8614   -1.7083 O   0  0  0  0  0  0  0  0  0  0  0  0
   -0.0518   -1.0349   -0.9106 C   0  0  0  0  0  0  0  0  0  0  0  0
    1.3770   -1.1049   -0.5603 C   0  0  0  0  0  0  0  0  0  0  0  0
    1.8860   -0.0473    0.3124 C   0  0  0  0  0  0  0  0  0  0  0  0
    1.0131    1.1063    0.5990 C   0  0  0  0  0  0  0  0  0  0  0  0
   -0.1175    1.2924   -0.3695 C   0  0  0  0  0  0  0  0  0  0  0  0
   -0.9134    0.0005   -0.3095 C   0  0  0  0  0  0  0  0  0  0  0  0
   -2.3607   -0.0365   -0.3071 C   0  0  0  0  0  0  0  0  0  0  0  0
   -1.5840   -0.3943    0.9622 C   0  0  0  0  0  0  0  0  0  0  0  0
    1.9433   -1.1560   -1.5364 H   0  0  0  0  0  0  0  0  0  0  0  0
    1.5411   -2.1250   -0.1084 H   0  0  0  0  0  0  0  0  0  0  0  0
    2.8512    0.3470   -0.1211 H   0  0  0  0  0  0  0  0  0  0  0  0
    2.2060   -0.4939    1.2992 H   0  0  0  0  0  0  0  0  0  0  0  0
    1.5855    2.0644    0.6762 H   0  0  0  0  0  0  0  0  0  0  0  0
    0.5380    0.9891    1.6186 H   0  0  0  0  0  0  0  0  0  0  0  0
   -0.6968    2.1785   -0.1393 H   0  0  0  0  0  0  0  0  0  0  0  0
    0.3160    1.3579   -1.4004 H   0  0  0  0  0  0  0  0  0  0  0  0
   -2.8881    0.9608   -0.2711 H   0  0  0  0  0  0  0  0  0  0  0  0
   -2.9443   -0.8234   -0.7920 H   0  0  0  0  0  0  0  0  0  0  0  0
   -1.6346    0.2658    1.8278 H   0  0  0  0  0  0  0  0  0  0  0  0
   -1.5888   -1.4851    1.2386 H   0  0  0  0  0  0  0  0  0  0  0  0
  1  2  2  0
  2  3  1  0
  3  4  1  0
  4  5  1  0
  5  6  1  0
  6  7  1  0
  7  8  1  0
  8  9  1  0
  7  2  1  0
  9  7  1  0
  3 10  1  0
  3 11  1  0
  4 12  1  0
  4 13  1  0
  5 14  1  0
  5 15  1  0
  6 16  1  0
  6 17  1  0
  8 18  1  0
  8 19  1  0
  9 20  1  0
  9 21  1  0
M  END
