
     RDKit          3D

 15 15  0  0  0  0  0  0  0  0999 V2000
    3.3267    0.8120   -0.4436 O   0  0  0  0  0  0  0  0  0  0  0  0
    2.1815    0.3158   -0.2132 C   0  0  0  0  0  0  0  0  0  0  0  0
    1.8903   -0.9093    0.3565 O   0  0  0  0  0  0  0  0  0  0  0  0
    0.4901   -1.1720    0.2752 C   0  0  0  0  0  0  0  0  0  0  0  0
   -0.1028    0.2185    0.2928 C   0  0  0  0  0  0  0  0  0  0  0  0
   -1.4769    0.2577   -0.3255 C   0  0  0  0  0  0  0  0  0  0  0  0
   -2.3112   -0.5918    0.3979 O   0  0  0  0  0  0  0  0  0  0  0  0
    0.8963    0.9648   -0.5156 C   0  0  0  0  0  0  0  0  0  0  0  0
    0.6687    1.9217   -1.2715 O   0  0  0  0  0  0  0  0  0  0  0  0
    0.2352   -1.6165   -0.7110 H   0  0  0  0  0  0  0  0  0  0  0  0
    0.1910   -1.7865    1.1264 H   0  0  0  0  0  0  0  0  0  0  0  0
   -0.1707    0.6232    1.3242 H   0  0  0  0  0  0  0  0  0  0  0  0
   -1.4590   -0.0614   -1.3805 H   0  0  0  0  0  0  0  0  0  0  0  0
   -1.8820    1.2776   -0.2199 H   0  0  0  0  0  0  0  0  0  0  0  0
   -2.4773   -0.2540    1.3080 H   0  0  0  0  0  0  0  0  0  0  0  0
  1  2  2  0
  2  3  1  0
  3  4  1  0
  4  5  1  0
  5  6  1  0
  6  7  1  0
  5  8  1  0
  8  9  2  0
  8  2  1  0
  4 10  1  0
  4 11  1  0
  5 12  1  0
  6 13  1  0
  6 14  1  0
  7 15  1  0
M  END
