
     RDKit          3D

 19 20  0  0  0  0  0  0  0  0999 V2000
   -3.1367   -1.2178    0.6923 O   0  0  0  0  0  0  0  0  0  0  0  0
   -1.9715   -0.7783    0.7224 C   0  0  0  0  0  0  0  0  0  0  0  0
   -1.7503    0.6499    0.3822 C   0  0  0  0  0  0  0  0  0  0  0  0
   -0.6380    0.6888   -0.6466 C   0  0  0  0  0  0  0  0  0  0  0  0
    0.5626   -0.0640   -0.1822 C   0  0  0  0  0  0  0  0  0  0  0  0
    1.5552   -0.6382   -1.1035 C   0  0  0  0  0  0  0  0  0  0  0  0
    1.8741    0.6475   -0.4527 C   0  0  0  0  0  0  0  0  0  0  0  0
    0.3763   -0.7539    1.1397 C   0  0  0  0  0  0  0  0  0  0  0  0
   -0.8396   -1.5127    1.0504 O   0  0  0  0  0  0  0  0  0  0  0  0
   -1.4382    1.1531    1.3203 H   0  0  0  0  0  0  0  0  0  0  0  0
   -2.6404    1.1215   -0.0624 H   0  0  0  0  0  0  0  0  0  0  0  0
   -1.0407    0.2799   -1.5954 H   0  0  0  0  0  0  0  0  0  0  0  0
   -0.4262    1.7723   -0.8349 H   0  0  0  0  0  0  0  0  0  0  0  0
    2.1330   -1.5154   -0.7471 H   0  0  0  0  0  0  0  0  0  0  0  0
    1.3889   -0.6610   -2.2083 H   0  0  0  0  0  0  0  0  0  0  0  0
    1.8810    1.5390   -1.1142 H   0  0  0  0  0  0  0  0  0  0  0  0
    2.5924    0.7289    0.3886 H   0  0  0  0  0  0  0  0  0  0  0  0
    1.2001   -1.4466    1.3234 H   0  0  0  0  0  0  0  0  0  0  0  0
    0.3178    0.0071    1.9281 H   0  0  0  0  0  0  0  0  0  0  0  0
  1  2  2  0
  2  3  1  0
  3  4  1  0
  4  5  1  0
  5  6  1  0
  6  7  1  0
  5  8  1  0
  8  9  1  0
  9  2  1  0
  7  5  1  0
  3 10  1  0
  3 11  1  0
  4 12  1  0
  4 13  1  0
  6 14  1  0
  6 15  1  0
  7 16  1  0
  7 17  1  0
  8 18  1  0
  8 19  1  0
M  END
