
     RDKit          3D

 15 17  0  0  0  0  0  0  0  0999 V2000
   -2.0413   -1.8534   -0.5914 O   0  0  0  0  0  0  0  0  0  0  0  0
   -1.3431   -0.8946   -0.4846 C   0  0  0  0  0  0  0  0  0  0  0  0
   -1.5952    0.4968    0.0087 C   0  0  0  0  0  0  0  0  0  0  0  0
   -0.1805    1.0201   -0.2751 C   0  0  0  0  0  0  0  0  0  0  0  0
    0.0634    0.4416   -1.5461 O   0  0  0  0  0  0  0  0  0  0  0  0
    0.0980   -0.7863   -0.8369 C   0  0  0  0  0  0  0  0  0  0  0  0
    0.7144   -0.0038    0.2760 C   0  0  0  0  0  0  0  0  0  0  0  0
    1.9279   -0.0295    0.8496 C   0  0  0  0  0  0  0  0  0  0  0  0
    0.7325   -0.4232    1.5673 O   0  0  0  0  0  0  0  0  0  0  0  0
   -1.7390    0.5432    1.0908 H   0  0  0  0  0  0  0  0  0  0  0  0
   -2.3508    1.0225   -0.5898 H   0  0  0  0  0  0  0  0  0  0  0  0
   -0.0106    2.0624   -0.1698 H   0  0  0  0  0  0  0  0  0  0  0  0
    0.5988   -1.6029   -1.2839 H   0  0  0  0  0  0  0  0  0  0  0  0
    2.4489    0.8724    1.2726 H   0  0  0  0  0  0  0  0  0  0  0  0
    2.6767   -0.8654    0.7126 H   0  0  0  0  0  0  0  0  0  0  0  0
  1  2  2  0
  2  3  1  0
  3  4  1  0
  4  5  1  0
  5  6  1  0
  6  7  1  0
  7  8  1  0
  8  9  1  0
  6  2  1  0
  9  7  1  0
  7  4  1  0
  3 10  1  0
  3 11  1  0
  4 12  1  0
  6 13  1  0
  8 14  1  0
  8 15  1  0
M  END
