
     RDKit          3D

 17 19  0  0  0  0  0  0  0  0999 V2000
   -2.4458   -1.2151   -1.0218 O   0  0  0  0  0  0  0  0  0  0  0  0
   -1.5259   -0.6391   -0.5166 C   0  0  0  0  0  0  0  0  0  0  0  0
   -1.6258    0.5612    0.3673 C   0  0  0  0  0  0  0  0  0  0  0  0
   -0.1631    0.6747    0.7166 C   0  0  0  0  0  0  0  0  0  0  0  0
    0.5077    0.5298   -0.6339 C   0  0  0  0  0  0  0  0  0  0  0  0
    1.9180    0.2211   -0.2777 C   0  0  0  0  0  0  0  0  0  0  0  0
    1.7095   -0.5773    0.8773 O   0  0  0  0  0  0  0  0  0  0  0  0
    0.3544   -0.7583    0.8781 C   0  0  0  0  0  0  0  0  0  0  0  0
   -0.0909   -0.8808   -0.5761 C   0  0  0  0  0  0  0  0  0  0  0  0
   -1.8751    1.4326   -0.2752 H   0  0  0  0  0  0  0  0  0  0  0  0
   -2.2844    0.4222    1.2217 H   0  0  0  0  0  0  0  0  0  0  0  0
    0.1754    1.4114    1.3957 H   0  0  0  0  0  0  0  0  0  0  0  0
    0.2416    1.1593   -1.4295 H   0  0  0  0  0  0  0  0  0  0  0  0
    2.3411   -0.4248   -1.0829 H   0  0  0  0  0  0  0  0  0  0  0  0
    2.5473    1.0869   -0.0630 H   0  0  0  0  0  0  0  0  0  0  0  0
   -0.1264   -1.3730    1.5995 H   0  0  0  0  0  0  0  0  0  0  0  0
    0.3424   -1.6308   -1.1794 H   0  0  0  0  0  0  0  0  0  0  0  0
  1  2  2  0
  2  3  1  0
  3  4  1  0
  4  5  1  0
  5  6  1  0
  6  7  1  0
  7  8  1  0
  8  9  1  0
  9  2  1  0
  8  4  1  0
  9  5  1  0
  3 10  1  0
  3 11  1  0
  4 12  1  0
  5 13  1  0
  6 14  1  0
  6 15  1  0
  8 16  1  0
  9 17  1  0
M  END
