
     RDKit          3D

 15 17  0  0  0  0  0  0  0  0999 V2000
    0.6785   -2.1776    1.1346 O   0  0  0  0  0  0  0  0  0  0  0  0
    0.3187   -1.2934    0.3945 C   0  0  0  0  0  0  0  0  0  0  0  0
   -0.9821   -0.9770   -0.2652 C   0  0  0  0  0  0  0  0  0  0  0  0
   -1.6447    0.2503    0.1819 C   0  0  0  0  0  0  0  0  0  0  0  0
   -1.4644    0.6479    1.4979 O   0  0  0  0  0  0  0  0  0  0  0  0
   -0.4236    0.3916   -0.7101 C   0  0  0  0  0  0  0  0  0  0  0  0
    0.8887   -0.1075   -0.2432 C   0  0  0  0  0  0  0  0  0  0  0  0
    2.0414    0.5750    0.0805 C   0  0  0  0  0  0  0  0  0  0  0  0
    1.9125   -0.2007   -1.1457 O   0  0  0  0  0  0  0  0  0  0  0  0
   -1.3615   -1.6495   -1.0368 H   0  0  0  0  0  0  0  0  0  0  0  0
   -2.6136    0.5160   -0.2761 H   0  0  0  0  0  0  0  0  0  0  0  0
   -1.8043    1.5816    1.5759 H   0  0  0  0  0  0  0  0  0  0  0  0
   -0.5849    0.6590   -1.7697 H   0  0  0  0  0  0  0  0  0  0  0  0
    2.2128    1.6406   -0.1491 H   0  0  0  0  0  0  0  0  0  0  0  0
    2.8265    0.1436    0.7306 H   0  0  0  0  0  0  0  0  0  0  0  0
  1  2  2  0
  2  3  1  0
  3  4  1  0
  4  5  1  0
  4  6  1  0
  6  7  1  0
  7  8  1  0
  8  9  1  0
  7  2  1  0
  6  3  1  0
  9  7  1  0
  3 10  1  0
  4 11  1  0
  5 12  1  0
  6 13  1  0
  8 14  1  0
  8 15  1  0
M  END
