
     RDKit          3D

 15 16  0  0  0  0  0  0  0  0999 V2000
   -1.3079   -2.0253   -1.2377 O   0  0  0  0  0  0  0  0  0  0  0  0
   -1.2691   -1.2161   -0.2891 C   0  0  0  0  0  0  0  0  0  0  0  0
   -2.1731   -0.8697    0.6970 O   0  0  0  0  0  0  0  0  0  0  0  0
   -1.5422    0.4106    0.7493 C   0  0  0  0  0  0  0  0  0  0  0  0
   -0.3279   -0.2750    0.2496 C   0  0  0  0  0  0  0  0  0  0  0  0
    0.6361   -0.6597    1.1109 O   0  0  0  0  0  0  0  0  0  0  0  0
    1.5746   -0.4537    0.0804 C   0  0  0  0  0  0  0  0  0  0  0  0
    0.5973    0.4513   -0.6422 C   0  0  0  0  0  0  0  0  0  0  0  0
    0.8047    1.7994   -0.2735 O   0  0  0  0  0  0  0  0  0  0  0  0
   -1.9816    1.0442   -0.0742 H   0  0  0  0  0  0  0  0  0  0  0  0
   -1.5175    0.8714    1.7369 H   0  0  0  0  0  0  0  0  0  0  0  0
    2.5024    0.0349    0.4002 H   0  0  0  0  0  0  0  0  0  0  0  0
    1.7749   -1.4253   -0.4199 H   0  0  0  0  0  0  0  0  0  0  0  0
    0.4805    0.2775   -1.7106 H   0  0  0  0  0  0  0  0  0  0  0  0
    1.7486    2.0356   -0.3771 H   0  0  0  0  0  0  0  0  0  0  0  0
  1  2  2  0
  2  3  1  0
  3  4  1  0
  4  5  1  0
  5  6  1  0
  6  7  1  0
  7  8  1  0
  8  9  1  0
  5  2  1  0
  8  5  1  0
  4 10  1  0
  4 11  1  0
  7 12  1  0
  7 13  1  0
  8 14  1  0
  9 15  1  0
M  END
