
     RDKit          3D

 19 20  0  0  0  0  0  0  0  0999 V2000
   -3.1632   -0.0839    1.2771 O   0  0  0  0  0  0  0  0  0  0  0  0
   -2.2293   -0.1123    0.5342 C   0  0  0  0  0  0  0  0  0  0  0  0
   -1.6233    1.0433   -0.1483 C   0  0  0  0  0  0  0  0  0  0  0  0
   -0.1873    0.6462   -0.1787 C   0  0  0  0  0  0  0  0  0  0  0  0
   -0.0717   -0.6725   -0.0373 C   0  0  0  0  0  0  0  0  0  0  0  0
    1.3508   -1.0950   -0.0642 C   0  0  0  0  0  0  0  0  0  0  0  0
    2.1315    0.1744    0.1966 C   0  0  0  0  0  0  0  0  0  0  0  0
    1.1775    1.2291   -0.3144 C   0  0  0  0  0  0  0  0  0  0  0  0
   -1.4408   -1.2751    0.1013 C   0  0  0  0  0  0  0  0  0  0  0  0
   -2.0560    1.0878   -1.1757 H   0  0  0  0  0  0  0  0  0  0  0  0
   -1.7844    2.0004    0.3807 H   0  0  0  0  0  0  0  0  0  0  0  0
    1.5716   -1.5218   -1.0654 H   0  0  0  0  0  0  0  0  0  0  0  0
    1.6077   -1.8215    0.7194 H   0  0  0  0  0  0  0  0  0  0  0  0
    2.2267    0.2772    1.3065 H   0  0  0  0  0  0  0  0  0  0  0  0
    3.0899    0.2196   -0.3221 H   0  0  0  0  0  0  0  0  0  0  0  0
    1.3239    2.1423    0.2697 H   0  0  0  0  0  0  0  0  0  0  0  0
    1.3500    1.4553   -1.3926 H   0  0  0  0  0  0  0  0  0  0  0  0
   -1.4460   -2.1115    0.8207 H   0  0  0  0  0  0  0  0  0  0  0  0
   -1.8276   -1.5819   -0.9075 H   0  0  0  0  0  0  0  0  0  0  0  0
  1  2  2  0
  2  3  1  0
  3  4  1  0
  4  5  2  0
  5  6  1  0
  6  7  1  0
  7  8  1  0
  5  9  1  0
  9  2  1  0
  8  4  1  0
  3 10  1  0
  3 11  1  0
  6 12  1  0
  6 13  1  0
  7 14  1  0
  7 15  1  0
  8 16  1  0
  8 17  1  0
  9 18  1  0
  9 19  1  0
M  END
