
     RDKit          3D

 17 17  0  0  0  0  0  0  0  0999 V2000
    0.4046    0.4958   -2.4835 O   0  0  0  0  0  0  0  0  0  0  0  0
    0.2668    0.1157   -1.3482 C   0  0  0  0  0  0  0  0  0  0  0  0
    1.3280   -0.3514   -0.4332 C   0  0  0  0  0  0  0  0  0  0  0  0
    2.3250    0.5851   -0.2170 O   0  0  0  0  0  0  0  0  0  0  0  0
    0.6460   -0.5923    0.9097 C   0  0  0  0  0  0  0  0  0  0  0  0
   -0.5696    0.3116    0.8099 C   0  0  0  0  0  0  0  0  0  0  0  0
   -1.5469   -0.0389    1.7331 O   0  0  0  0  0  0  0  0  0  0  0  0
   -1.0136    0.0324   -0.6119 C   0  0  0  0  0  0  0  0  0  0  0  0
   -1.9477    0.9561   -1.0572 O   0  0  0  0  0  0  0  0  0  0  0  0
    1.7364   -1.3421   -0.7553 H   0  0  0  0  0  0  0  0  0  0  0  0
    3.1796    0.1699   -0.5232 H   0  0  0  0  0  0  0  0  0  0  0  0
    1.2965   -0.2984    1.7524 H   0  0  0  0  0  0  0  0  0  0  0  0
    0.3054   -1.6473    0.9612 H   0  0  0  0  0  0  0  0  0  0  0  0
   -0.2410    1.3706    0.9289 H   0  0  0  0  0  0  0  0  0  0  0  0
   -1.9425    0.7859    2.1351 H   0  0  0  0  0  0  0  0  0  0  0  0
   -1.4222   -1.0101   -0.6045 H   0  0  0  0  0  0  0  0  0  0  0  0
   -2.8048    0.4575   -1.1963 H   0  0  0  0  0  0  0  0  0  0  0  0
  1  2  2  0
  2  3  1  0
  3  4  1  0
  3  5  1  0
  5  6  1  0
  6  7  1  0
  6  8  1  0
  8  9  1  0
  8  2  1  0
  3 10  1  0
  4 11  1  0
  5 12  1  0
  5 13  1  0
  6 14  1  0
  7 15  1  0
  8 16  1  0
  9 17  1  0
M  END
