
     RDKit          3D

 19 20  0  0  0  0  0  0  0  0999 V2000
   -0.3828    2.0976    1.5225 O   0  0  0  0  0  0  0  0  0  0  0  0
   -0.1843    1.2770    0.6691 C   0  0  0  0  0  0  0  0  0  0  0  0
    1.2005    1.1753    0.0844 C   0  0  0  0  0  0  0  0  0  0  0  0
    1.6187   -0.1801   -0.3254 C   0  0  0  0  0  0  0  0  0  0  0  0
    0.5103   -1.1903   -0.5523 C   0  0  0  0  0  0  0  0  0  0  0  0
   -0.4548   -1.0173    0.5306 C   0  0  0  0  0  0  0  0  0  0  0  0
   -1.8434   -0.7670    0.5965 C   0  0  0  0  0  0  0  0  0  0  0  0
   -1.1334    0.3396    0.1081 C   0  0  0  0  0  0  0  0  0  0  0  0
   -1.2426    0.5662   -1.2911 O   0  0  0  0  0  0  0  0  0  0  0  0
    1.9579    1.6196    0.7641 H   0  0  0  0  0  0  0  0  0  0  0  0
    1.1609    1.8156   -0.8452 H   0  0  0  0  0  0  0  0  0  0  0  0
    2.2813   -0.1048   -1.2162 H   0  0  0  0  0  0  0  0  0  0  0  0
    2.2429   -0.6132    0.5123 H   0  0  0  0  0  0  0  0  0  0  0  0
    0.9825   -2.1754   -0.6436 H   0  0  0  0  0  0  0  0  0  0  0  0
    0.0945   -0.9513   -1.5724 H   0  0  0  0  0  0  0  0  0  0  0  0
    0.0812   -1.0201    1.5287 H   0  0  0  0  0  0  0  0  0  0  0  0
   -2.3461   -0.6965    1.5964 H   0  0  0  0  0  0  0  0  0  0  0  0
   -2.5132   -1.3468   -0.0922 H   0  0  0  0  0  0  0  0  0  0  0  0
   -2.0302    1.1719   -1.3744 H   0  0  0  0  0  0  0  0  0  0  0  0
  1  2  2  0
  2  3  1  0
  3  4  1  0
  4  5  1  0
  5  6  1  0
  6  7  1  0
  7  8  1  0
  8  9  1  0
  8  2  1  0
  8  6  1  0
  3 10  1  0
  3 11  1  0
  4 12  1  0
  4 13  1  0
  5 14  1  0
  5 15  1  0
  6 16  1  0
  7 17  1  0
  7 18  1  0
  9 19  1  0
M  END
