
     RDKit          3D

 19 20  0  0  0  0  0  0  0  0999 V2000
    1.1263    2.4447   -0.4440 O   0  0  0  0  0  0  0  0  0  0  0  0
    0.7017    1.3342   -0.2491 C   0  0  0  0  0  0  0  0  0  0  0  0
    1.4180    0.2283    0.4178 C   0  0  0  0  0  0  0  0  0  0  0  0
    2.7983    0.3165    0.2438 O   0  0  0  0  0  0  0  0  0  0  0  0
    0.8588   -0.9822   -0.2936 C   0  0  0  0  0  0  0  0  0  0  0  0
   -0.5346   -0.6628   -0.7163 C   0  0  0  0  0  0  0  0  0  0  0  0
   -1.6106   -0.7776    0.3102 C   0  0  0  0  0  0  0  0  0  0  0  0
   -1.5512    0.6938    0.5475 C   0  0  0  0  0  0  0  0  0  0  0  0
   -0.6286    0.8384   -0.6357 C   0  0  0  0  0  0  0  0  0  0  0  0
    1.1558    0.1322    1.4955 H   0  0  0  0  0  0  0  0  0  0  0  0
    3.2230   -0.4752    0.6155 H   0  0  0  0  0  0  0  0  0  0  0  0
    0.9645   -1.9067    0.2798 H   0  0  0  0  0  0  0  0  0  0  0  0
    1.4705   -1.0894   -1.2369 H   0  0  0  0  0  0  0  0  0  0  0  0
   -0.7807   -1.0923   -1.7137 H   0  0  0  0  0  0  0  0  0  0  0  0
   -2.5854   -1.0704   -0.1779 H   0  0  0  0  0  0  0  0  0  0  0  0
   -1.4111   -1.4183    1.1841 H   0  0  0  0  0  0  0  0  0  0  0  0
   -2.4810    1.2446    0.4168 H   0  0  0  0  0  0  0  0  0  0  0  0
   -1.0594    0.9896    1.5090 H   0  0  0  0  0  0  0  0  0  0  0  0
   -1.0742    1.2525   -1.5527 H   0  0  0  0  0  0  0  0  0  0  0  0
  1  2  2  0
  2  3  1  0
  3  4  1  0
  3  5  1  0
  5  6  1  0
  6  7  1  0
  7  8  1  0
  8  9  1  0
  9  2  1  0
  9  6  1  0
  3 10  1  0
  4 11  1  0
  5 12  1  0
  5 13  1  0
  6 14  1  0
  7 15  1  0
  7 16  1  0
  8 17  1  0
  8 18  1  0
  9 19  1  0
M  END
