
     RDKit          3D

 17 18  0  0  0  0  0  0  0  0999 V2000
    2.8717    1.6079    1.2921 O   0  0  0  0  0  0  0  0  0  0  0  0
    1.9932    0.8302    0.7744 C   0  0  0  0  0  0  0  0  0  0  0  0
    2.2284   -0.4419    0.1092 C   0  0  0  0  0  0  0  0  0  0  0  0
    1.0791   -0.9446   -0.2885 C   0  0  0  0  0  0  0  0  0  0  0  0
    0.0312   -0.0284    0.0954 C   0  0  0  0  0  0  0  0  0  0  0  0
   -0.8180    0.3994   -1.0903 C   0  0  0  0  0  0  0  0  0  0  0  0
   -1.9895    0.4586   -0.1122 C   0  0  0  0  0  0  0  0  0  0  0  0
   -1.2192   -0.5899    0.7032 C   0  0  0  0  0  0  0  0  0  0  0  0
    0.6334    1.0307    0.7358 O   0  0  0  0  0  0  0  0  0  0  0  0
    3.2386   -0.8561   -0.0061 H   0  0  0  0  0  0  0  0  0  0  0  0
    1.0561   -1.9052   -0.8126 H   0  0  0  0  0  0  0  0  0  0  0  0
   -0.4714    1.3798   -1.4526 H   0  0  0  0  0  0  0  0  0  0  0  0
   -0.8684   -0.3964   -1.8354 H   0  0  0  0  0  0  0  0  0  0  0  0
   -2.0427    1.4469    0.3560 H   0  0  0  0  0  0  0  0  0  0  0  0
   -2.9321    0.1001   -0.5359 H   0  0  0  0  0  0  0  0  0  0  0  0
   -1.3441   -0.4921    1.7831 H   0  0  0  0  0  0  0  0  0  0  0  0
   -1.4464   -1.5990    0.2842 H   0  0  0  0  0  0  0  0  0  0  0  0
  1  2  2  0
  2  3  1  0
  3  4  2  0
  4  5  1  0
  5  6  1  0
  6  7  1  0
  7  8  1  0
  5  9  1  0
  9  2  1  0
  8  5  1  0
  3 10  1  0
  4 11  1  0
  6 12  1  0
  6 13  1  0
  7 14  1  0
  7 15  1  0
  8 16  1  0
  8 17  1  0
M  END
