
     RDKit          3D

 17 18  0  0  0  0  0  0  0  0999 V2000
   -2.4790    1.0013   -0.7848 O   0  0  0  0  0  0  0  0  0  0  0  0
   -1.4523    0.4689   -0.4660 C   0  0  0  0  0  0  0  0  0  0  0  0
   -1.3231   -0.8557    0.1835 C   0  0  0  0  0  0  0  0  0  0  0  0
    0.1126   -1.2685    0.0282 C   0  0  0  0  0  0  0  0  0  0  0  0
    0.8890   -1.2313    1.1707 O   0  0  0  0  0  0  0  0  0  0  0  0
    1.6572   -0.1644    0.7173 C   0  0  0  0  0  0  0  0  0  0  0  0
    0.8632   -0.0985   -0.5458 C   0  0  0  0  0  0  0  0  0  0  0  0
   -0.1045    1.0460   -0.6658 C   0  0  0  0  0  0  0  0  0  0  0  0
    0.1651    2.0310    0.3060 O   0  0  0  0  0  0  0  0  0  0  0  0
   -1.6580   -0.7853    1.2320 H   0  0  0  0  0  0  0  0  0  0  0  0
   -1.9573   -1.5969   -0.3716 H   0  0  0  0  0  0  0  0  0  0  0  0
    0.2722   -2.2389   -0.4996 H   0  0  0  0  0  0  0  0  0  0  0  0
    2.7099   -0.3652    0.5175 H   0  0  0  0  0  0  0  0  0  0  0  0
    1.5262    0.7002    1.4099 H   0  0  0  0  0  0  0  0  0  0  0  0
    1.3908   -0.3741   -1.4824 H   0  0  0  0  0  0  0  0  0  0  0  0
   -0.0007    1.5639   -1.6428 H   0  0  0  0  0  0  0  0  0  0  0  0
   -0.6113    2.1677    0.8938 H   0  0  0  0  0  0  0  0  0  0  0  0
  1  2  2  0
  2  3  1  0
  3  4  1  0
  4  5  1  0
  5  6  1  0
  6  7  1  0
  7  8  1  0
  8  9  1  0
  8  2  1  0
  7  4  1  0
  3 10  1  0
  3 11  1  0
  4 12  1  0
  6 13  1  0
  6 14  1  0
  7 15  1  0
  8 16  1  0
  9 17  1  0
M  END
