
     RDKit          3D

 17 18  0  0  0  0  0  0  0  0999 V2000
   -1.8220   -2.5323   -0.5183 O   0  0  0  0  0  0  0  0  0  0  0  0
   -1.3349   -1.4500   -0.1742 C   0  0  0  0  0  0  0  0  0  0  0  0
   -1.9084   -0.3715    0.6569 C   0  0  0  0  0  0  0  0  0  0  0  0
   -1.2854    0.7609    0.3996 C   0  0  0  0  0  0  0  0  0  0  0  0
   -0.2470    0.5489   -0.6176 C   0  0  0  0  0  0  0  0  0  0  0  0
    1.0913    1.0981   -0.2617 C   0  0  0  0  0  0  0  0  0  0  0  0
    1.7000    0.0204    0.5787 C   0  0  0  0  0  0  0  0  0  0  0  0
    0.9261   -1.1059    0.4843 O   0  0  0  0  0  0  0  0  0  0  0  0
    0.0290   -0.9568   -0.5436 C   0  0  0  0  0  0  0  0  0  0  0  0
   -2.7244   -0.5862    1.3490 H   0  0  0  0  0  0  0  0  0  0  0  0
   -1.5070    1.7039    0.8681 H   0  0  0  0  0  0  0  0  0  0  0  0
   -0.5975    0.8295   -1.6312 H   0  0  0  0  0  0  0  0  0  0  0  0
    1.6915    1.1523   -1.2102 H   0  0  0  0  0  0  0  0  0  0  0  0
    1.0685    2.0525    0.2729 H   0  0  0  0  0  0  0  0  0  0  0  0
    2.7344   -0.2593    0.2449 H   0  0  0  0  0  0  0  0  0  0  0  0
    1.8211    0.4046    1.6191 H   0  0  0  0  0  0  0  0  0  0  0  0
    0.3648   -1.3091   -1.5167 H   0  0  0  0  0  0  0  0  0  0  0  0
  1  2  2  0
  2  3  1  0
  3  4  2  0
  4  5  1  0
  5  6  1  0
  6  7  1  0
  7  8  1  0
  8  9  1  0
  9  2  1  0
  9  5  1  0
  3 10  1  0
  4 11  1  0
  5 12  1  0
  6 13  1  0
  6 14  1  0
  7 15  1  0
  7 16  1  0
  9 17  1  0
M  END
