
     RDKit          3D

 15 16  0  0  0  0  0  0  0  0999 V2000
    1.3540    2.4896    0.4194 O   0  0  0  0  0  0  0  0  0  0  0  0
    0.8831    1.3265    0.2922 C   0  0  0  0  0  0  0  0  0  0  0  0
   -0.3016    0.7378    1.0471 C   0  0  0  0  0  0  0  0  0  0  0  0
   -0.7636   -0.1942   -0.0204 C   0  0  0  0  0  0  0  0  0  0  0  0
   -1.0457    0.6129   -1.1638 O   0  0  0  0  0  0  0  0  0  0  0  0
   -0.5957   -1.5516   -0.2905 C   0  0  0  0  0  0  0  0  0  0  0  0
    0.6422   -0.9341   -0.0697 C   0  0  0  0  0  0  0  0  0  0  0  0
    1.3153    0.2342   -0.5841 C   0  0  0  0  0  0  0  0  0  0  0  0
    2.0988    0.3681   -1.5464 O   0  0  0  0  0  0  0  0  0  0  0  0
   -1.0293    1.5130    1.3019 H   0  0  0  0  0  0  0  0  0  0  0  0
    0.1452    0.2412    1.9198 H   0  0  0  0  0  0  0  0  0  0  0  0
   -1.9971    0.5802   -1.3776 H   0  0  0  0  0  0  0  0  0  0  0  0
   -0.8070   -1.9548   -1.3239 H   0  0  0  0  0  0  0  0  0  0  0  0
   -0.9959   -2.3043    0.4472 H   0  0  0  0  0  0  0  0  0  0  0  0
    1.0973   -1.1645    0.9486 H   0  0  0  0  0  0  0  0  0  0  0  0
  1  2  2  0
  2  3  1  0
  3  4  1  0
  4  5  1  0
  4  6  1  0
  6  7  1  0
  7  8  1  0
  8  9  2  0
  8  2  1  0
  7  4  1  0
  3 10  1  0
  3 11  1  0
  5 12  1  0
  6 13  1  0
  6 14  1  0
  7 15  1  0
M  END
