
     RDKit          3D

 14 15  0  0  0  0  0  0  0  0999 V2000
   -1.4485   -1.9838    0.0956 O   0  0  0  0  0  0  0  0  0  0  0  0
   -0.8718   -0.9439    0.1547 C   0  0  0  0  0  0  0  0  0  0  0  0
   -1.3390    0.3780   -0.3304 C   0  0  0  0  0  0  0  0  0  0  0  0
   -0.1194    1.2256    0.0301 C   0  0  0  0  0  0  0  0  0  0  0  0
    0.9060    0.8822   -0.8276 O   0  0  0  0  0  0  0  0  0  0  0  0
    1.4593   -0.3255   -0.3632 C   0  0  0  0  0  0  0  0  0  0  0  0
    0.4667   -0.6872    0.7276 C   0  0  0  0  0  0  0  0  0  0  0  0
    0.2450    0.6113    1.2557 O   0  0  0  0  0  0  0  0  0  0  0  0
   -2.2293    0.7513    0.1862 H   0  0  0  0  0  0  0  0  0  0  0  0
   -1.4828    0.3807   -1.4428 H   0  0  0  0  0  0  0  0  0  0  0  0
   -0.3273    2.2774    0.1254 H   0  0  0  0  0  0  0  0  0  0  0  0
    1.5045   -1.0858   -1.1634 H   0  0  0  0  0  0  0  0  0  0  0  0
    2.4171   -0.0872    0.1019 H   0  0  0  0  0  0  0  0  0  0  0  0
    0.8197   -1.3932    1.4502 H   0  0  0  0  0  0  0  0  0  0  0  0
  1  2  2  0
  2  3  1  0
  3  4  1  0
  4  5  1  0
  5  6  1  0
  6  7  1  0
  7  8  1  0
  7  2  1  0
  8  4  1  0
  3  9  1  0
  3 10  1  0
  4 11  1  0
  6 12  1  0
  6 13  1  0
  7 14  1  0
M  END
