
     RDKit          3D

 17 18  0  0  0  0  0  0  0  0999 V2000
   -1.3657    2.4971    0.2505 O   0  0  0  0  0  0  0  0  0  0  0  0
   -1.2324    1.2694    0.0954 C   0  0  0  0  0  0  0  0  0  0  0  0
   -1.9501    0.2990    0.7607 O   0  0  0  0  0  0  0  0  0  0  0  0
   -1.3517   -0.9605    0.6909 C   0  0  0  0  0  0  0  0  0  0  0  0
   -0.3956   -0.8608   -0.4585 C   0  0  0  0  0  0  0  0  0  0  0  0
    1.0287   -0.8141    0.0500 C   0  0  0  0  0  0  0  0  0  0  0  0
    1.1405    0.5901   -0.4513 C   0  0  0  0  0  0  0  0  0  0  0  0
    1.5722    1.5404    0.4564 O   0  0  0  0  0  0  0  0  0  0  0  0
   -0.2983    0.6093   -0.8135 C   0  0  0  0  0  0  0  0  0  0  0  0
   -0.8268   -1.1293    1.6668 H   0  0  0  0  0  0  0  0  0  0  0  0
   -2.1427   -1.7295    0.5295 H   0  0  0  0  0  0  0  0  0  0  0  0
   -0.5687   -1.5075   -1.3184 H   0  0  0  0  0  0  0  0  0  0  0  0
    1.1291   -0.8932    1.1565 H   0  0  0  0  0  0  0  0  0  0  0  0
    1.6740   -1.5719   -0.4352 H   0  0  0  0  0  0  0  0  0  0  0  0
    1.8010    0.6153   -1.3620 H   0  0  0  0  0  0  0  0  0  0  0  0
    2.2611    1.2145    1.0764 H   0  0  0  0  0  0  0  0  0  0  0  0
   -0.4746    0.8318   -1.8943 H   0  0  0  0  0  0  0  0  0  0  0  0
  1  2  2  0
  2  3  1  0
  3  4  1  0
  4  5  1  0
  5  6  1  0
  6  7  1  0
  7  8  1  0
  7  9  1  0
  9  2  1  0
  9  5  1  0
  4 10  1  0
  4 11  1  0
  5 12  1  0
  6 13  1  0
  6 14  1  0
  7 15  1  0
  8 16  1  0
  9 17  1  0
M  END
