
     RDKit          3D

 19 20  0  0  0  0  0  0  0  0999 V2000
    2.2682   -1.4593   -1.4662 O   0  0  0  0  0  0  0  0  0  0  0  0
    1.8322   -0.7530   -0.5210 C   0  0  0  0  0  0  0  0  0  0  0  0
    2.5056   -0.3235    0.6409 O   0  0  0  0  0  0  0  0  0  0  0  0
    1.7035    0.8622    0.5504 C   0  0  0  0  0  0  0  0  0  0  0  0
    0.6525   -0.0490   -0.0452 C   0  0  0  0  0  0  0  0  0  0  0  0
   -0.2000   -0.7461    0.9731 C   0  0  0  0  0  0  0  0  0  0  0  0
   -1.6239   -0.5694    0.5507 C   0  0  0  0  0  0  0  0  0  0  0  0
   -1.6468    0.2422   -0.7038 C   0  0  0  0  0  0  0  0  0  0  0  0
   -0.2232    0.6237   -1.0289 C   0  0  0  0  0  0  0  0  0  0  0  0
    1.3662    1.2656    1.5120 H   0  0  0  0  0  0  0  0  0  0  0  0
    2.0802    1.5934   -0.1808 H   0  0  0  0  0  0  0  0  0  0  0  0
    0.0976   -1.8020    1.1293 H   0  0  0  0  0  0  0  0  0  0  0  0
   -0.0147   -0.2358    1.9587 H   0  0  0  0  0  0  0  0  0  0  0  0
   -2.1956   -0.0011    1.3317 H   0  0  0  0  0  0  0  0  0  0  0  0
   -2.0842   -1.5718    0.4510 H   0  0  0  0  0  0  0  0  0  0  0  0
   -2.0638   -0.3551   -1.5316 H   0  0  0  0  0  0  0  0  0  0  0  0
   -2.3086    1.1446   -0.6120 H   0  0  0  0  0  0  0  0  0  0  0  0
    0.0011    0.4066   -2.0907 H   0  0  0  0  0  0  0  0  0  0  0  0
   -0.1464    1.7280   -0.9176 H   0  0  0  0  0  0  0  0  0  0  0  0
  1  2  2  0
  2  3  1  0
  3  4  1  0
  4  5  1  0
  5  6  1  0
  6  7  1  0
  7  8  1  0
  8  9  1  0
  5  2  1  0
  9  5  1  0
  4 10  1  0
  4 11  1  0
  6 12  1  0
  6 13  1  0
  7 14  1  0
  7 15  1  0
  8 16  1  0
  8 17  1  0
  9 18  1  0
  9 19  1  0
M  END
