
     RDKit          3D

 19 19  0  0  0  0  0  0  0  0999 V2000
    2.6598   -0.6263   -0.0232 O   0  0  0  0  0  0  0  0  0  0  0  0
    1.5032   -0.3772    0.3461 C   0  0  0  0  0  0  0  0  0  0  0  0
    1.3035    1.0457    0.7472 C   0  0  0  0  0  0  0  0  0  0  0  0
    0.4431    1.6604   -0.3264 C   0  0  0  0  0  0  0  0  0  0  0  0
   -0.7009    1.1536   -0.7427 C   0  0  0  0  0  0  0  0  0  0  0  0
   -1.4172   -0.0734   -0.3086 C   0  0  0  0  0  0  0  0  0  0  0  0
   -1.5712    0.0098    1.0780 O   0  0  0  0  0  0  0  0  0  0  0  0
   -0.5711   -1.2707   -0.6867 C   0  0  0  0  0  0  0  0  0  0  0  0
    0.5569   -1.4932    0.3255 C   0  0  0  0  0  0  0  0  0  0  0  0
    2.2353    1.5832    0.8985 H   0  0  0  0  0  0  0  0  0  0  0  0
    0.7127    1.0558    1.6852 H   0  0  0  0  0  0  0  0  0  0  0  0
    0.8118    2.5804   -0.7701 H   0  0  0  0  0  0  0  0  0  0  0  0
   -1.1883    1.7224   -1.5192 H   0  0  0  0  0  0  0  0  0  0  0  0
   -2.4040   -0.1537   -0.7574 H   0  0  0  0  0  0  0  0  0  0  0  0
   -2.3903    0.5360    1.2428 H   0  0  0  0  0  0  0  0  0  0  0  0
   -0.0540   -0.9928   -1.6445 H   0  0  0  0  0  0  0  0  0  0  0  0
   -1.1473   -2.1814   -0.8337 H   0  0  0  0  0  0  0  0  0  0  0  0
    1.0797   -2.4184   -0.0299 H   0  0  0  0  0  0  0  0  0  0  0  0
    0.1382   -1.7601    1.3192 H   0  0  0  0  0  0  0  0  0  0  0  0
  1  2  2  0
  2  3  1  0
  3  4  1  0
  4  5  2  0
  5  6  1  0
  6  7  1  0
  6  8  1  0
  8  9  1  0
  9  2  1  0
  3 10  1  0
  3 11  1  0
  4 12  1  0
  5 13  1  0
  6 14  1  0
  7 15  1  0
  8 16  1  0
  8 17  1  0
  9 18  1  0
  9 19  1  0
M  END
