
     RDKit          3D

 17 19  0  0  0  0  0  0  0  0999 V2000
   -2.2069   -0.8325    1.3220 O   0  0  0  0  0  0  0  0  0  0  0  0
   -1.2916   -0.4178    0.6464 C   0  0  0  0  0  0  0  0  0  0  0  0
   -0.1142    0.4307    1.0286 C   0  0  0  0  0  0  0  0  0  0  0  0
   -0.2178    1.5015   -0.0363 C   0  0  0  0  0  0  0  0  0  0  0  0
   -0.2930    0.5820   -1.2648 C   0  0  0  0  0  0  0  0  0  0  0  0
   -1.0229   -0.6177   -0.8285 C   0  0  0  0  0  0  0  0  0  0  0  0
    0.4358   -0.6674   -0.9144 C   0  0  0  0  0  0  0  0  0  0  0  0
    1.0110   -0.4175    0.4860 C   0  0  0  0  0  0  0  0  0  0  0  0
    1.1991   -1.5903    1.1758 O   0  0  0  0  0  0  0  0  0  0  0  0
   -0.0599    0.7415    2.0315 H   0  0  0  0  0  0  0  0  0  0  0  0
    0.6515    2.1601   -0.0825 H   0  0  0  0  0  0  0  0  0  0  0  0
   -1.1349    2.0974    0.0393 H   0  0  0  0  0  0  0  0  0  0  0  0
   -0.3134    1.0068   -2.2550 H   0  0  0  0  0  0  0  0  0  0  0  0
   -1.7168   -1.1865   -1.4271 H   0  0  0  0  0  0  0  0  0  0  0  0
    1.0226   -1.1633   -1.6643 H   0  0  0  0  0  0  0  0  0  0  0  0
    1.9184    0.2163    0.4151 H   0  0  0  0  0  0  0  0  0  0  0  0
    2.1329   -1.8431    1.3283 H   0  0  0  0  0  0  0  0  0  0  0  0
  1  2  2  0
  2  3  1  0
  3  4  1  0
  4  5  1  0
  5  6  1  0
  6  7  1  0
  7  8  1  0
  8  9  1  0
  6  2  1  0
  8  3  1  0
  7  5  1  0
  3 10  1  0
  4 11  1  0
  4 12  1  0
  5 13  1  0
  6 14  1  0
  7 15  1  0
  8 16  1  0
  9 17  1  0
M  END
