
     RDKit          3D

 17 17  0  0  0  0  0  0  0  0999 V2000
   -2.0732   -2.2168    0.2720 O   0  0  0  0  0  0  0  0  0  0  0  0
   -1.2539   -1.2754    0.1701 C   0  0  0  0  0  0  0  0  0  0  0  0
   -1.8162    0.0183   -0.2739 C   0  0  0  0  0  0  0  0  0  0  0  0
   -1.0674    1.1634    0.2947 C   0  0  0  0  0  0  0  0  0  0  0  0
    0.2091    1.4923    0.2940 C   0  0  0  0  0  0  0  0  0  0  0  0
    1.4880    0.9043   -0.2550 C   0  0  0  0  0  0  0  0  0  0  0  0
    1.8873   -0.1677    0.5051 O   0  0  0  0  0  0  0  0  0  0  0  0
    1.3707   -1.3799    0.0967 C   0  0  0  0  0  0  0  0  0  0  0  0
    0.0591   -1.6193    0.4975 O   0  0  0  0  0  0  0  0  0  0  0  0
   -1.8116    0.0579   -1.3753 H   0  0  0  0  0  0  0  0  0  0  0  0
   -2.8684    0.0645    0.0471 H   0  0  0  0  0  0  0  0  0  0  0  0
   -1.6665    1.8876    0.8200 H   0  0  0  0  0  0  0  0  0  0  0  0
    0.3596    2.4315    0.8320 H   0  0  0  0  0  0  0  0  0  0  0  0
    1.3734    0.6769   -1.3336 H   0  0  0  0  0  0  0  0  0  0  0  0
    2.2627    1.6946   -0.1709 H   0  0  0  0  0  0  0  0  0  0  0  0
    2.0088   -2.1756    0.5846 H   0  0  0  0  0  0  0  0  0  0  0  0
    1.5386   -1.5565   -1.0050 H   0  0  0  0  0  0  0  0  0  0  0  0
  1  2  2  0
  2  3  1  0
  3  4  1  0
  4  5  2  3
  5  6  1  0
  6  7  1  0
  7  8  1  0
  8  9  1  0
  9  2  1  0
  3 10  1  0
  3 11  1  0
  4 12  1  0
  5 13  1  0
  6 14  1  0
  6 15  1  0
  8 16  1  0
  8 17  1  0
M  END
