
     RDKit          3D

 21 22  0  0  0  0  0  0  0  0999 V2000
    3.0398    1.1598    0.8213 O   0  0  0  0  0  0  0  0  0  0  0  0
    2.0242    0.6147    0.4245 C   0  0  0  0  0  0  0  0  0  0  0  0
    1.9184   -0.7051   -0.2553 C   0  0  0  0  0  0  0  0  0  0  0  0
    0.7301   -0.4874   -1.1639 C   0  0  0  0  0  0  0  0  0  0  0  0
   -0.2208    0.1375   -0.1610 C   0  0  0  0  0  0  0  0  0  0  0  0
   -1.5464    0.5480   -0.6651 C   0  0  0  0  0  0  0  0  0  0  0  0
   -2.1751   -0.0939    0.5737 C   0  0  0  0  0  0  0  0  0  0  0  0
   -0.8800   -0.9038    0.7073 C   0  0  0  0  0  0  0  0  0  0  0  0
    0.6310    1.1417    0.5246 C   0  0  0  0  0  0  0  0  0  0  0  0
    1.6301   -1.4555    0.5229 H   0  0  0  0  0  0  0  0  0  0  0  0
    2.8158   -1.0302   -0.7549 H   0  0  0  0  0  0  0  0  0  0  0  0
    0.9824    0.3023   -1.8944 H   0  0  0  0  0  0  0  0  0  0  0  0
    0.3470   -1.4001   -1.6210 H   0  0  0  0  0  0  0  0  0  0  0  0
   -1.8949    0.0944   -1.6191 H   0  0  0  0  0  0  0  0  0  0  0  0
   -1.6522    1.6643   -0.6431 H   0  0  0  0  0  0  0  0  0  0  0  0
   -3.0436   -0.7292    0.3763 H   0  0  0  0  0  0  0  0  0  0  0  0
   -2.2386    0.5909    1.4341 H   0  0  0  0  0  0  0  0  0  0  0  0
   -0.9231   -1.8787    0.1760 H   0  0  0  0  0  0  0  0  0  0  0  0
   -0.4979   -1.0038    1.7190 H   0  0  0  0  0  0  0  0  0  0  0  0
    0.3504    1.3479    1.5766 H   0  0  0  0  0  0  0  0  0  0  0  0
    0.6034    2.0862   -0.0783 H   0  0  0  0  0  0  0  0  0  0  0  0
  1  2  2  0
  2  3  1  0
  3  4  1  0
  4  5  1  0
  5  6  1  0
  6  7  1  0
  7  8  1  0
  5  9  1  0
  9  2  1  0
  8  5  1  0
  3 10  1  0
  3 11  1  0
  4 12  1  0
  4 13  1  0
  6 14  1  0
  6 15  1  0
  7 16  1  0
  7 17  1  0
  8 18  1  0
  8 19  1  0
  9 20  1  0
  9 21  1  0
M  END
