
     RDKit          3D

 17 19  0  0  0  0  0  0  0  0999 V2000
   -1.1553    1.4653    1.8047 O   0  0  0  0  0  0  0  0  0  0  0  0
   -0.9543    0.7566    0.8514 C   0  0  0  0  0  0  0  0  0  0  0  0
   -0.2112    1.1022   -0.4086 C   0  0  0  0  0  0  0  0  0  0  0  0
    1.2374    0.8328   -0.1393 C   0  0  0  0  0  0  0  0  0  0  0  0
    1.1539   -0.5893    0.4405 C   0  0  0  0  0  0  0  0  0  0  0  0
   -0.0884   -1.1749   -0.1501 C   0  0  0  0  0  0  0  0  0  0  0  0
   -1.3238   -0.6514    0.5342 C   0  0  0  0  0  0  0  0  0  0  0  0
   -1.8830   -0.4974   -0.7339 O   0  0  0  0  0  0  0  0  0  0  0  0
   -0.6145   -0.1599   -1.1621 C   0  0  0  0  0  0  0  0  0  0  0  0
   -0.4759    2.0200   -0.8643 H   0  0  0  0  0  0  0  0  0  0  0  0
    1.7798    0.7314   -1.1077 H   0  0  0  0  0  0  0  0  0  0  0  0
    1.7103    1.5110    0.5705 H   0  0  0  0  0  0  0  0  0  0  0  0
    2.0636   -1.1672    0.2129 H   0  0  0  0  0  0  0  0  0  0  0  0
    0.9955   -0.4698    1.5288 H   0  0  0  0  0  0  0  0  0  0  0  0
   -0.0838   -2.2058   -0.4614 H   0  0  0  0  0  0  0  0  0  0  0  0
   -1.8200   -1.2390    1.2604 H   0  0  0  0  0  0  0  0  0  0  0  0
   -0.3301   -0.2645   -2.1760 H   0  0  0  0  0  0  0  0  0  0  0  0
  1  2  2  0
  2  3  1  0
  3  4  1  0
  4  5  1  0
  5  6  1  0
  6  7  1  0
  7  8  1  0
  8  9  1  0
  7  2  1  0
  9  3  1  0
  9  6  1  0
  3 10  1  0
  4 11  1  0
  4 12  1  0
  5 13  1  0
  5 14  1  0
  6 15  1  0
  7 16  1  0
  9 17  1  0
M  END
