
     RDKit          3D

 17 19  0  0  0  0  0  0  0  0999 V2000
   -0.5457    1.6260    1.5496 O   0  0  0  0  0  0  0  0  0  0  0  0
   -0.9532    0.9198    0.6515 C   0  0  0  0  0  0  0  0  0  0  0  0
   -2.2929    0.4316    0.2710 C   0  0  0  0  0  0  0  0  0  0  0  0
   -1.6184   -0.4730   -0.7372 C   0  0  0  0  0  0  0  0  0  0  0  0
   -0.9149    0.1758   -1.7119 O   0  0  0  0  0  0  0  0  0  0  0  0
   -0.3293    0.2251   -0.4651 C   0  0  0  0  0  0  0  0  0  0  0  0
    0.9541   -0.5236   -0.3192 C   0  0  0  0  0  0  0  0  0  0  0  0
    2.1288    0.3470    0.1394 C   0  0  0  0  0  0  0  0  0  0  0  0
    1.5404   -0.6665    1.0566 C   0  0  0  0  0  0  0  0  0  0  0  0
   -2.8523    1.2238   -0.2936 H   0  0  0  0  0  0  0  0  0  0  0  0
   -2.8902   -0.0560    1.0411 H   0  0  0  0  0  0  0  0  0  0  0  0
   -1.6111   -1.5521   -0.6021 H   0  0  0  0  0  0  0  0  0  0  0  0
    1.1725   -1.3836   -0.9849 H   0  0  0  0  0  0  0  0  0  0  0  0
    3.0910    0.0949   -0.3582 H   0  0  0  0  0  0  0  0  0  0  0  0
    1.9714    1.4187    0.2886 H   0  0  0  0  0  0  0  0  0  0  0  0
    2.1369   -1.5645    1.3180 H   0  0  0  0  0  0  0  0  0  0  0  0
    1.0129   -0.2432    1.9369 H   0  0  0  0  0  0  0  0  0  0  0  0
  1  2  2  0
  2  3  1  0
  3  4  1  0
  4  5  1  0
  5  6  1  0
  6  7  1  0
  7  8  1  0
  8  9  1  0
  6  2  1  0
  9  7  1  0
  6  4  1  0
  3 10  1  0
  3 11  1  0
  4 12  1  0
  7 13  1  0
  8 14  1  0
  8 15  1  0
  9 16  1  0
  9 17  1  0
M  END
