
     RDKit          3D

 15 16  0  0  0  0  0  0  0  0999 V2000
   -1.2350   -2.2058   -0.6691 O   0  0  0  0  0  0  0  0  0  0  0  0
   -1.1186   -1.0742   -0.3399 C   0  0  0  0  0  0  0  0  0  0  0  0
   -0.9670   -0.1981    0.7869 C   0  0  0  0  0  0  0  0  0  0  0  0
   -1.8747    0.6497    0.1381 O   0  0  0  0  0  0  0  0  0  0  0  0
   -1.0490    0.2569   -0.9072 C   0  0  0  0  0  0  0  0  0  0  0  0
    0.0872    0.5386    0.0202 C   0  0  0  0  0  0  0  0  0  0  0  0
    0.2223    1.8617    0.3841 O   0  0  0  0  0  0  0  0  0  0  0  0
    1.3624   -0.1986   -0.2381 C   0  0  0  0  0  0  0  0  0  0  0  0
    2.1643   -0.1983    0.9168 O   0  0  0  0  0  0  0  0  0  0  0  0
   -0.9711   -0.3903    1.7759 H   0  0  0  0  0  0  0  0  0  0  0  0
   -1.1367    0.5428   -1.8699 H   0  0  0  0  0  0  0  0  0  0  0  0
   -0.6181    2.3725    0.1806 H   0  0  0  0  0  0  0  0  0  0  0  0
    1.9369    0.3404   -1.0260 H   0  0  0  0  0  0  0  0  0  0  0  0
    1.1180   -1.2359   -0.5444 H   0  0  0  0  0  0  0  0  0  0  0  0
    2.0792   -1.0615    1.3919 H   0  0  0  0  0  0  0  0  0  0  0  0
  1  2  2  0
  2  3  1  0
  3  4  1  0
  4  5  1  0
  5  6  1  0
  6  7  1  0
  6  8  1  0
  8  9  1  0
  5  2  1  0
  6  3  1  0
  3 10  1  0
  5 11  1  0
  7 12  1  0
  8 13  1  0
  8 14  1  0
  9 15  1  0
M  END
