
     RDKit          3D

 16 17  0  0  0  0  0  0  0  0999 V2000
    1.3256    2.2922   -0.8191 O   0  0  0  0  0  0  0  0  0  0  0  0
    0.9108    1.1905   -0.5081 C   0  0  0  0  0  0  0  0  0  0  0  0
    1.5739    0.1556    0.2940 C   0  0  0  0  0  0  0  0  0  0  0  0
    0.6091   -0.9746    0.4640 C   0  0  0  0  0  0  0  0  0  0  0  0
   -0.5996   -0.6697   -0.3845 C   0  0  0  0  0  0  0  0  0  0  0  0
   -1.7318   -0.0801    0.4282 C   0  0  0  0  0  0  0  0  0  0  0  0
   -1.4265    1.1777   -0.0754 O   0  0  0  0  0  0  0  0  0  0  0  0
   -0.4336    0.7140   -0.9379 C   0  0  0  0  0  0  0  0  0  0  0  0
    1.8059    0.6186    1.2977 H   0  0  0  0  0  0  0  0  0  0  0  0
    2.5155   -0.2171   -0.1101 H   0  0  0  0  0  0  0  0  0  0  0  0
    0.2759   -1.0453    1.5186 H   0  0  0  0  0  0  0  0  0  0  0  0
    1.0438   -1.9663    0.2091 H   0  0  0  0  0  0  0  0  0  0  0  0
   -0.8993   -1.4542   -1.0971 H   0  0  0  0  0  0  0  0  0  0  0  0
   -1.5556   -0.1361    1.5327 H   0  0  0  0  0  0  0  0  0  0  0  0
   -2.7255   -0.4764    0.1752 H   0  0  0  0  0  0  0  0  0  0  0  0
   -0.6886    0.8711   -1.9873 H   0  0  0  0  0  0  0  0  0  0  0  0
  1  2  2  0
  2  3  1  0
  3  4  1  0
  4  5  1  0
  5  6  1  0
  6  7  1  0
  7  8  1  0
  8  2  1  0
  8  5  1  0
  3  9  1  0
  3 10  1  0
  4 11  1  0
  4 12  1  0
  5 13  1  0
  6 14  1  0
  6 15  1  0
  8 16  1  0
M  END
