
     RDKit          3D

 17 19  0  0  0  0  0  0  0  0999 V2000
    2.4271    1.6420    0.8916 O   0  0  0  0  0  0  0  0  0  0  0  0
    1.3896    1.0914    0.4592 C   0  0  0  0  0  0  0  0  0  0  0  0
    0.2093    1.8045    0.5092 O   0  0  0  0  0  0  0  0  0  0  0  0
   -0.8810    1.4274   -0.2659 C   0  0  0  0  0  0  0  0  0  0  0  0
   -0.9599   -0.0392   -0.5028 C   0  0  0  0  0  0  0  0  0  0  0  0
   -0.9295   -0.8656    0.7483 C   0  0  0  0  0  0  0  0  0  0  0  0
    0.4985   -1.2440    0.4644 C   0  0  0  0  0  0  0  0  0  0  0  0
    1.4610   -0.2634   -0.0744 C   0  0  0  0  0  0  0  0  0  0  0  0
    0.3278   -0.6783   -0.9201 C   0  0  0  0  0  0  0  0  0  0  0  0
   -0.8536    1.9954   -1.2114 H   0  0  0  0  0  0  0  0  0  0  0  0
   -1.8079    1.7421    0.2593 H   0  0  0  0  0  0  0  0  0  0  0  0
   -1.7750   -0.2936   -1.2107 H   0  0  0  0  0  0  0  0  0  0  0  0
   -1.1053   -0.3212    1.6853 H   0  0  0  0  0  0  0  0  0  0  0  0
   -1.6559   -1.7241    0.6883 H   0  0  0  0  0  0  0  0  0  0  0  0
    0.8030   -2.2778    0.6114 H   0  0  0  0  0  0  0  0  0  0  0  0
    2.4479   -0.6549   -0.3534 H   0  0  0  0  0  0  0  0  0  0  0  0
    0.4039   -1.3407   -1.7783 H   0  0  0  0  0  0  0  0  0  0  0  0
  1  2  2  0
  2  3  1  0
  3  4  1  0
  4  5  1  0
  5  6  1  0
  6  7  1  0
  7  8  1  0
  8  9  1  0
  8  2  1  0
  9  5  1  0
  9  7  1  0
  4 10  1  0
  4 11  1  0
  5 12  1  0
  6 13  1  0
  6 14  1  0
  7 15  1  0
  8 16  1  0
  9 17  1  0
M  END
