
     RDKit          3D

 19 20  0  0  0  0  0  0  0  0999 V2000
    1.7082    2.5713    0.4231 O   0  0  0  0  0  0  0  0  0  0  0  0
    1.3000    1.4070    0.4953 C   0  0  0  0  0  0  0  0  0  0  0  0
    1.9208    0.0577    0.4441 C   0  0  0  0  0  0  0  0  0  0  0  0
    0.5612   -0.5359    0.6211 C   0  0  0  0  0  0  0  0  0  0  0  0
    0.0747   -1.3644   -0.5572 C   0  0  0  0  0  0  0  0  0  0  0  0
   -1.4069   -1.2750   -0.5405 C   0  0  0  0  0  0  0  0  0  0  0  0
   -1.9533   -0.0703   -0.5017 C   0  0  0  0  0  0  0  0  0  0  0  0
   -1.0032    1.0764   -0.4787 C   0  0  0  0  0  0  0  0  0  0  0  0
   -0.0418    0.8269    0.6718 C   0  0  0  0  0  0  0  0  0  0  0  0
    2.5417   -0.1453    1.3653 H   0  0  0  0  0  0  0  0  0  0  0  0
    2.4432   -0.1767   -0.5109 H   0  0  0  0  0  0  0  0  0  0  0  0
    0.4253   -1.1387    1.5473 H   0  0  0  0  0  0  0  0  0  0  0  0
    0.5063   -1.0055   -1.5162 H   0  0  0  0  0  0  0  0  0  0  0  0
    0.4442   -2.3991   -0.4000 H   0  0  0  0  0  0  0  0  0  0  0  0
   -2.0310   -2.1513   -0.5591 H   0  0  0  0  0  0  0  0  0  0  0  0
   -3.0198    0.1217   -0.4861 H   0  0  0  0  0  0  0  0  0  0  0  0
   -1.5318    2.0403   -0.2540 H   0  0  0  0  0  0  0  0  0  0  0  0
   -0.4216    1.1589   -1.4245 H   0  0  0  0  0  0  0  0  0  0  0  0
   -0.5162    1.0022    1.6609 H   0  0  0  0  0  0  0  0  0  0  0  0
  1  2  2  0
  2  3  1  0
  3  4  1  0
  4  5  1  0
  5  6  1  0
  6  7  2  0
  7  8  1  0
  8  9  1  0
  9  2  1  0
  9  4  1  0
  3 10  1  0
  3 11  1  0
  4 12  1  0
  5 13  1  0
  5 14  1  0
  6 15  1  0
  7 16  1  0
  8 17  1  0
  8 18  1  0
  9 19  1  0
M  END
