
     RDKit          3D

 15 16  0  0  0  0  0  0  0  0999 V2000
    2.6109   -1.1544    0.1312 O   0  0  0  0  0  0  0  0  0  0  0  0
    1.4286   -0.9233   -0.2275 C   0  0  0  0  0  0  0  0  0  0  0  0
    0.3995   -1.8081   -0.5250 O   0  0  0  0  0  0  0  0  0  0  0  0
   -0.8271   -1.1408   -0.6535 C   0  0  0  0  0  0  0  0  0  0  0  0
   -0.5585    0.1795    0.0473 C   0  0  0  0  0  0  0  0  0  0  0  0
   -1.0668    0.4757    1.3416 C   0  0  0  0  0  0  0  0  0  0  0  0
   -1.5082    1.1555    0.0753 O   0  0  0  0  0  0  0  0  0  0  0  0
    0.8412    0.4389   -0.4227 C   0  0  0  0  0  0  0  0  0  0  0  0
    1.5056    1.4119    0.2662 O   0  0  0  0  0  0  0  0  0  0  0  0
   -1.0212   -0.9161   -1.7388 H   0  0  0  0  0  0  0  0  0  0  0  0
   -1.6693   -1.6528   -0.1807 H   0  0  0  0  0  0  0  0  0  0  0  0
   -1.9473   -0.0825    1.7238 H   0  0  0  0  0  0  0  0  0  0  0  0
   -0.5605    1.1740    2.0167 H   0  0  0  0  0  0  0  0  0  0  0  0
    0.8195    0.6198   -1.5328 H   0  0  0  0  0  0  0  0  0  0  0  0
    1.5537    2.2227   -0.3210 H   0  0  0  0  0  0  0  0  0  0  0  0
  1  2  2  0
  2  3  1  0
  3  4  1  0
  4  5  1  0
  5  6  1  0
  6  7  1  0
  5  8  1  0
  8  9  1  0
  8  2  1  0
  7  5  1  0
  4 10  1  0
  4 11  1  0
  6 12  1  0
  6 13  1  0
  8 14  1  0
  9 15  1  0
M  END
