
     RDKit          3D

 15 17  0  0  0  0  0  0  0  0999 V2000
   -0.9620   -0.9788    2.0657 O   0  0  0  0  0  0  0  0  0  0  0  0
   -0.8247   -0.6563    0.9149 C   0  0  0  0  0  0  0  0  0  0  0  0
   -1.8661    0.0270    0.0746 C   0  0  0  0  0  0  0  0  0  0  0  0
   -1.1109    0.9152   -0.6482 O   0  0  0  0  0  0  0  0  0  0  0  0
    0.0864    0.3492   -0.9733 C   0  0  0  0  0  0  0  0  0  0  0  0
    1.3034    1.0181   -0.3228 C   0  0  0  0  0  0  0  0  0  0  0  0
    2.4874    0.3663   -0.5213 O   0  0  0  0  0  0  0  0  0  0  0  0
    1.5967   -0.1277    0.4064 C   0  0  0  0  0  0  0  0  0  0  0  0
    0.3329   -0.8063   -0.0151 C   0  0  0  0  0  0  0  0  0  0  0  0
   -2.3564   -0.7614   -0.5652 H   0  0  0  0  0  0  0  0  0  0  0  0
   -2.6056    0.5631    0.6951 H   0  0  0  0  0  0  0  0  0  0  0  0
    0.2642    0.1118   -2.0425 H   0  0  0  0  0  0  0  0  0  0  0  0
    1.2271    2.0490    0.0081 H   0  0  0  0  0  0  0  0  0  0  0  0
    1.9899   -0.2825    1.4102 H   0  0  0  0  0  0  0  0  0  0  0  0
    0.4377   -1.7868   -0.4866 H   0  0  0  0  0  0  0  0  0  0  0  0
  1  2  2  0
  2  3  1  0
  3  4  1  0
  4  5  1  0
  5  6  1  0
  6  7  1  0
  7  8  1  0
  8  9  1  0
  9  2  1  0
  9  5  1  0
  8  6  1  0
  3 10  1  0
  3 11  1  0
  5 12  1  0
  6 13  1  0
  8 14  1  0
  9 15  1  0
M  END
