
     RDKit          3D

 17 19  0  0  0  0  0  0  0  0999 V2000
    0.2244    2.6235   -0.3371 O   0  0  0  0  0  0  0  0  0  0  0  0
    0.0126    1.4659   -0.1835 C   0  0  0  0  0  0  0  0  0  0  0  0
   -1.0090    0.6469   -0.8578 C   0  0  0  0  0  0  0  0  0  0  0  0
   -1.5378   -0.1602    0.3431 C   0  0  0  0  0  0  0  0  0  0  0  0
   -0.1870   -0.6715    0.7853 C   0  0  0  0  0  0  0  0  0  0  0  0
    0.4029   -1.0540   -0.5675 C   0  0  0  0  0  0  0  0  0  0  0  0
    1.6601   -0.3265   -0.1086 C   0  0  0  0  0  0  0  0  0  0  0  0
    0.7175    0.5375    0.7253 C   0  0  0  0  0  0  0  0  0  0  0  0
   -0.3179   -0.3635   -1.5253 O   0  0  0  0  0  0  0  0  0  0  0  0
   -1.7612    1.1467   -1.4125 H   0  0  0  0  0  0  0  0  0  0  0  0
   -2.0396    0.4708    1.0700 H   0  0  0  0  0  0  0  0  0  0  0  0
   -2.1294   -0.9935   -0.0604 H   0  0  0  0  0  0  0  0  0  0  0  0
   -0.1087   -1.3567    1.5906 H   0  0  0  0  0  0  0  0  0  0  0  0
    0.5204   -2.1285   -0.7308 H   0  0  0  0  0  0  0  0  0  0  0  0
    2.1694    0.1970   -0.9280 H   0  0  0  0  0  0  0  0  0  0  0  0
    2.2756   -0.9546    0.5447 H   0  0  0  0  0  0  0  0  0  0  0  0
    1.1075    0.9208    1.6527 H   0  0  0  0  0  0  0  0  0  0  0  0
  1  2  2  0
  2  3  1  0
  3  4  1  0
  4  5  1  0
  5  6  1  0
  6  7  1  0
  7  8  1  0
  6  9  1  0
  8  2  1  0
  9  3  1  0
  8  5  1  0
  3 10  1  0
  4 11  1  0
  4 12  1  0
  5 13  1  0
  6 14  1  0
  7 15  1  0
  7 16  1  0
  8 17  1  0
M  END
