
     RDKit          3D

 17 19  0  0  0  0  0  0  0  0999 V2000
   -2.8548   -0.0903   -1.0956 O   0  0  0  0  0  0  0  0  0  0  0  0
   -1.8572    0.5684   -0.7159 C   0  0  0  0  0  0  0  0  0  0  0  0
   -1.0443    1.5718   -1.2222 O   0  0  0  0  0  0  0  0  0  0  0  0
   -0.0133    1.2310   -0.3090 C   0  0  0  0  0  0  0  0  0  0  0  0
   -1.0571    0.5554    0.5346 C   0  0  0  0  0  0  0  0  0  0  0  0
   -0.5610   -0.8166    0.8672 C   0  0  0  0  0  0  0  0  0  0  0  0
    0.6521   -1.0757    0.0415 C   0  0  0  0  0  0  0  0  0  0  0  0
    1.9082   -0.3376    0.1787 C   0  0  0  0  0  0  0  0  0  0  0  0
    0.9189    0.1660   -0.7784 C   0  0  0  0  0  0  0  0  0  0  0  0
    0.4681    2.0957    0.1914 H   0  0  0  0  0  0  0  0  0  0  0  0
   -1.5216    1.1383    1.3263 H   0  0  0  0  0  0  0  0  0  0  0  0
   -0.3572   -0.9729    1.9384 H   0  0  0  0  0  0  0  0  0  0  0  0
   -1.3593   -1.5371    0.5903 H   0  0  0  0  0  0  0  0  0  0  0  0
    0.6698   -2.0151   -0.5435 H   0  0  0  0  0  0  0  0  0  0  0  0
    2.1347    0.3296    1.0425 H   0  0  0  0  0  0  0  0  0  0  0  0
    2.8417   -0.8634   -0.1703 H   0  0  0  0  0  0  0  0  0  0  0  0
    1.0323    0.0527   -1.8760 H   0  0  0  0  0  0  0  0  0  0  0  0
  1  2  2  0
  2  3  1  0
  3  4  1  0
  4  5  1  0
  5  6  1  0
  6  7  1  0
  7  8  1  0
  8  9  1  0
  5  2  1  0
  9  7  1  0
  9  4  1  0
  4 10  1  0
  5 11  1  0
  6 12  1  0
  6 13  1  0
  7 14  1  0
  8 15  1  0
  8 16  1  0
  9 17  1  0
M  END
