
     RDKit          3D

 17 18  0  0  0  0  0  0  0  0999 V2000
    1.7032   -2.1856    0.7420 O   0  0  0  0  0  0  0  0  0  0  0  0
    1.2997   -1.0626    0.3631 C   0  0  0  0  0  0  0  0  0  0  0  0
    2.0139    0.1873    0.5403 C   0  0  0  0  0  0  0  0  0  0  0  0
    1.3916    1.1506   -0.1110 C   0  0  0  0  0  0  0  0  0  0  0  0
    0.1795    0.6754   -0.8102 C   0  0  0  0  0  0  0  0  0  0  0  0
   -0.9595    1.3590   -0.4435 O   0  0  0  0  0  0  0  0  0  0  0  0
   -1.9481    0.4271   -0.1545 C   0  0  0  0  0  0  0  0  0  0  0  0
   -1.1406   -0.6289    0.6140 C   0  0  0  0  0  0  0  0  0  0  0  0
    0.0507   -0.7415   -0.3288 C   0  0  0  0  0  0  0  0  0  0  0  0
    2.9442    0.3014    1.1375 H   0  0  0  0  0  0  0  0  0  0  0  0
    1.7604    2.1763   -0.1116 H   0  0  0  0  0  0  0  0  0  0  0  0
    0.3487    0.7447   -1.9077 H   0  0  0  0  0  0  0  0  0  0  0  0
   -2.7399    0.8589    0.4528 H   0  0  0  0  0  0  0  0  0  0  0  0
   -2.2976   -0.0477   -1.0922 H   0  0  0  0  0  0  0  0  0  0  0  0
   -0.7532   -0.2073    1.5586 H   0  0  0  0  0  0  0  0  0  0  0  0
   -1.6879   -1.5654    0.7150 H   0  0  0  0  0  0  0  0  0  0  0  0
   -0.1650   -1.4418   -1.1639 H   0  0  0  0  0  0  0  0  0  0  0  0
  1  2  2  0
  2  3  1  0
  3  4  2  0
  4  5  1  0
  5  6  1  0
  6  7  1  0
  7  8  1  0
  8  9  1  0
  9  2  1  0
  9  5  1  0
  3 10  1  0
  4 11  1  0
  5 12  1  0
  7 13  1  0
  7 14  1  0
  8 15  1  0
  8 16  1  0
  9 17  1  0
M  END
