
     RDKit          3D

 13 14  0  0  0  0  0  0  0  0999 V2000
   -2.6928    1.4509   -0.2850 O   0  0  0  0  0  0  0  0  0  0  0  0
   -1.6425    0.7264   -0.2037 C   0  0  0  0  0  0  0  0  0  0  0  0
   -1.5638   -0.7199   -0.2884 C   0  0  0  0  0  0  0  0  0  0  0  0
   -0.3248   -1.1368   -0.1638 C   0  0  0  0  0  0  0  0  0  0  0  0
    0.5807    0.0121    0.0220 C   0  0  0  0  0  0  0  0  0  0  0  0
    1.9436   -0.0861    0.1545 C   0  0  0  0  0  0  0  0  0  0  0  0
    1.2597   -0.0137    1.3695 O   0  0  0  0  0  0  0  0  0  0  0  0
   -0.2795    1.1850   -0.0069 C   0  0  0  0  0  0  0  0  0  0  0  0
   -0.0001    2.4167    0.1077 O   0  0  0  0  0  0  0  0  0  0  0  0
   -2.4231   -1.3757   -0.4364 H   0  0  0  0  0  0  0  0  0  0  0  0
    0.0488   -2.1739   -0.1857 H   0  0  0  0  0  0  0  0  0  0  0  0
    2.6363    0.7724   -0.0808 H   0  0  0  0  0  0  0  0  0  0  0  0
    2.4575   -1.0574   -0.0030 H   0  0  0  0  0  0  0  0  0  0  0  0
  1  2  2  0
  2  3  1  0
  3  4  2  0
  4  5  1  0
  5  6  1  0
  6  7  1  0
  5  8  1  0
  8  9  2  0
  8  2  1  0
  7  5  1  0
  3 10  1  0
  4 11  1  0
  6 12  1  0
  6 13  1  0
M  END
