
     RDKit          3D

 19 20  0  0  0  0  0  0  0  0999 V2000
   -2.0806   -1.0025    1.4891 O   0  0  0  0  0  0  0  0  0  0  0  0
   -1.5564   -0.3434    0.6073 C   0  0  0  0  0  0  0  0  0  0  0  0
   -1.3981    1.1158    0.3928 C   0  0  0  0  0  0  0  0  0  0  0  0
   -0.5937    0.8242   -0.8467 C   0  0  0  0  0  0  0  0  0  0  0  0
    0.7141    1.1986   -0.8492 O   0  0  0  0  0  0  0  0  0  0  0  0
    1.4955    0.7594    0.1632 C   0  0  0  0  0  0  0  0  0  0  0  0
    1.2301   -0.6407    0.6291 C   0  0  0  0  0  0  0  0  0  0  0  0
    0.4829   -1.3511   -0.4989 C   0  0  0  0  0  0  0  0  0  0  0  0
   -0.8329   -0.6474   -0.6599 C   0  0  0  0  0  0  0  0  0  0  0  0
   -0.8830    1.6635    1.1854 H   0  0  0  0  0  0  0  0  0  0  0  0
   -2.3746    1.6114    0.1178 H   0  0  0  0  0  0  0  0  0  0  0  0
   -1.0900    1.1579   -1.7923 H   0  0  0  0  0  0  0  0  0  0  0  0
    1.5167    1.4449    1.0600 H   0  0  0  0  0  0  0  0  0  0  0  0
    2.5664    0.7732   -0.2003 H   0  0  0  0  0  0  0  0  0  0  0  0
    2.1714   -1.2249    0.7779 H   0  0  0  0  0  0  0  0  0  0  0  0
    0.6663   -0.6431    1.5654 H   0  0  0  0  0  0  0  0  0  0  0  0
    0.3983   -2.4238   -0.3435 H   0  0  0  0  0  0  0  0  0  0  0  0
    1.0985   -1.1514   -1.4193 H   0  0  0  0  0  0  0  0  0  0  0  0
   -1.5310   -1.1207   -1.3777 H   0  0  0  0  0  0  0  0  0  0  0  0
  1  2  2  0
  2  3  1  0
  3  4  1  0
  4  5  1  0
  5  6  1  0
  6  7  1  0
  7  8  1  0
  8  9  1  0
  9  2  1  0
  9  4  1  0
  3 10  1  0
  3 11  1  0
  4 12  1  0
  6 13  1  0
  6 14  1  0
  7 15  1  0
  7 16  1  0
  8 17  1  0
  8 18  1  0
  9 19  1  0
M  END
