
     RDKit          3D

 15 15  0  0  0  0  0  0  0  0999 V2000
   -0.5463   -1.7711    1.8900 O   0  0  0  0  0  0  0  0  0  0  0  0
   -0.1958   -1.2142    0.7927 C   0  0  0  0  0  0  0  0  0  0  0  0
   -1.2619   -0.6709   -0.0497 C   0  0  0  0  0  0  0  0  0  0  0  0
   -1.0233    0.6838   -0.6154 C   0  0  0  0  0  0  0  0  0  0  0  0
    0.0334    1.4470    0.0975 C   0  0  0  0  0  0  0  0  0  0  0  0
   -0.3288    2.4453    0.7597 O   0  0  0  0  0  0  0  0  0  0  0  0
    1.3990    1.1191    0.0730 O   0  0  0  0  0  0  0  0  0  0  0  0
    1.9381   -0.1802   -0.0607 C   0  0  0  0  0  0  0  0  0  0  0  0
    1.1637   -1.1838    0.5156 O   0  0  0  0  0  0  0  0  0  0  0  0
   -1.4508   -1.3636   -0.9184 H   0  0  0  0  0  0  0  0  0  0  0  0
   -2.1905   -0.6015    0.5886 H   0  0  0  0  0  0  0  0  0  0  0  0
   -1.9729    1.2835   -0.6581 H   0  0  0  0  0  0  0  0  0  0  0  0
   -0.6763    0.6224   -1.6885 H   0  0  0  0  0  0  0  0  0  0  0  0
    2.9566   -0.2368    0.4239 H   0  0  0  0  0  0  0  0  0  0  0  0
    2.1557   -0.3789   -1.1503 H   0  0  0  0  0  0  0  0  0  0  0  0
  1  2  2  0
  2  3  1  0
  3  4  1  0
  4  5  1  0
  5  6  2  0
  5  7  1  0
  7  8  1  0
  8  9  1  0
  9  2  1  0
  3 10  1  0
  3 11  1  0
  4 12  1  0
  4 13  1  0
  8 14  1  0
  8 15  1  0
M  END
