
     RDKit          3D

 19 20  0  0  0  0  0  0  0  0999 V2000
   -0.9428    0.0791    2.5347 O   0  0  0  0  0  0  0  0  0  0  0  0
   -0.9104    0.0130    1.3315 C   0  0  0  0  0  0  0  0  0  0  0  0
   -0.7707   -1.0759    0.3544 C   0  0  0  0  0  0  0  0  0  0  0  0
    0.6412   -1.1953   -0.1813 C   0  0  0  0  0  0  0  0  0  0  0  0
    1.2607    0.1200   -0.5162 C   0  0  0  0  0  0  0  0  0  0  0  0
    2.5299    0.2594    0.0942 O   0  0  0  0  0  0  0  0  0  0  0  0
    0.4046    1.3096   -0.2411 C   0  0  0  0  0  0  0  0  0  0  0  0
   -0.9905    0.9588    0.2109 C   0  0  0  0  0  0  0  0  0  0  0  0
   -1.5275   -0.1982   -0.6277 C   0  0  0  0  0  0  0  0  0  0  0  0
   -1.2069   -2.0372    0.5865 H   0  0  0  0  0  0  0  0  0  0  0  0
    0.5535   -1.8638   -1.0894 H   0  0  0  0  0  0  0  0  0  0  0  0
    1.2616   -1.7963    0.5361 H   0  0  0  0  0  0  0  0  0  0  0  0
    1.4924    0.1158   -1.6223 H   0  0  0  0  0  0  0  0  0  0  0  0
    2.4778    0.1031    1.0703 H   0  0  0  0  0  0  0  0  0  0  0  0
    0.8550    1.9559    0.5453 H   0  0  0  0  0  0  0  0  0  0  0  0
    0.2863    1.9728   -1.1426 H   0  0  0  0  0  0  0  0  0  0  0  0
   -1.6407    1.8177    0.2972 H   0  0  0  0  0  0  0  0  0  0  0  0
   -1.1612   -0.2281   -1.6652 H   0  0  0  0  0  0  0  0  0  0  0  0
   -2.6123   -0.3104   -0.4754 H   0  0  0  0  0  0  0  0  0  0  0  0
  1  2  2  0
  2  3  1  0
  3  4  1  0
  4  5  1  0
  5  6  1  0
  5  7  1  0
  7  8  1  0
  8  9  1  0
  8  2  1  0
  9  3  1  0
  3 10  1  0
  4 11  1  0
  4 12  1  0
  5 13  1  0
  6 14  1  0
  7 15  1  0
  7 16  1  0
  8 17  1  0
  9 18  1  0
  9 19  1  0
M  END
