
     RDKit          3D

 17 17  0  0  0  0  0  0  0  0999 V2000
   -2.2860    1.9384   -0.3263 O   0  0  0  0  0  0  0  0  0  0  0  0
   -1.4005    1.0606   -0.2890 C   0  0  0  0  0  0  0  0  0  0  0  0
    0.0368    1.2600   -0.4191 C   0  0  0  0  0  0  0  0  0  0  0  0
    0.6857    0.2598    0.1520 C   0  0  0  0  0  0  0  0  0  0  0  0
    2.1607    0.0853    0.2365 C   0  0  0  0  0  0  0  0  0  0  0  0
    2.5023   -1.1173   -0.4068 O   0  0  0  0  0  0  0  0  0  0  0  0
   -0.3033   -0.6773    0.7148 C   0  0  0  0  0  0  0  0  0  0  0  0
   -1.5393   -0.4059   -0.1067 C   0  0  0  0  0  0  0  0  0  0  0  0
   -2.7095   -0.7545    0.5501 O   0  0  0  0  0  0  0  0  0  0  0  0
    0.5096    2.1205   -0.9206 H   0  0  0  0  0  0  0  0  0  0  0  0
    2.4802    0.0510    1.2956 H   0  0  0  0  0  0  0  0  0  0  0  0
    2.6974    0.9058   -0.2918 H   0  0  0  0  0  0  0  0  0  0  0  0
    2.6028   -0.9623   -1.3944 H   0  0  0  0  0  0  0  0  0  0  0  0
   -0.5493   -0.3654    1.7618 H   0  0  0  0  0  0  0  0  0  0  0  0
    0.0206   -1.7307    0.6699 H   0  0  0  0  0  0  0  0  0  0  0  0
   -1.4722   -0.8698   -1.1178 H   0  0  0  0  0  0  0  0  0  0  0  0
   -3.4358   -0.7982   -0.1081 H   0  0  0  0  0  0  0  0  0  0  0  0
  1  2  2  0
  2  3  1  0
  3  4  2  0
  4  5  1  0
  5  6  1  0
  4  7  1  0
  7  8  1  0
  8  9  1  0
  8  2  1  0
  3 10  1  0
  5 11  1  0
  5 12  1  0
  6 13  1  0
  7 14  1  0
  7 15  1  0
  8 16  1  0
  9 17  1  0
M  END
