
     RDKit          3D

 17 18  0  0  0  0  0  0  0  0999 V2000
    1.9150   -1.7507    1.1901 O   0  0  0  0  0  0  0  0  0  0  0  0
    1.2264   -1.1256    0.3459 C   0  0  0  0  0  0  0  0  0  0  0  0
    1.7997    0.1768   -0.0689 C   0  0  0  0  0  0  0  0  0  0  0  0
    0.7555    1.2446   -0.1426 C   0  0  0  0  0  0  0  0  0  0  0  0
   -0.0935    0.9642   -1.1640 O   0  0  0  0  0  0  0  0  0  0  0  0
   -1.2464    0.3114   -0.8774 C   0  0  0  0  0  0  0  0  0  0  0  0
   -1.7409   -0.0200    0.4589 C   0  0  0  0  0  0  0  0  0  0  0  0
   -1.1706   -1.0840   -0.4624 C   0  0  0  0  0  0  0  0  0  0  0  0
    0.0430   -1.6399   -0.1313 O   0  0  0  0  0  0  0  0  0  0  0  0
    2.6698    0.4669    0.5669 H   0  0  0  0  0  0  0  0  0  0  0  0
    2.1838    0.0301   -1.1167 H   0  0  0  0  0  0  0  0  0  0  0  0
    1.3021    2.1961   -0.4207 H   0  0  0  0  0  0  0  0  0  0  0  0
    0.2872    1.4750    0.8303 H   0  0  0  0  0  0  0  0  0  0  0  0
   -2.0643    0.5448   -1.6278 H   0  0  0  0  0  0  0  0  0  0  0  0
   -1.1567    0.1528    1.3824 H   0  0  0  0  0  0  0  0  0  0  0  0
   -2.8160   -0.1203    0.6435 H   0  0  0  0  0  0  0  0  0  0  0  0
   -1.8940   -1.8222   -0.9045 H   0  0  0  0  0  0  0  0  0  0  0  0
  1  2  2  0
  2  3  1  0
  3  4  1  0
  4  5  1  0
  5  6  1  0
  6  7  1  0
  7  8  1  0
  8  9  1  0
  9  2  1  0
  8  6  1  0
  3 10  1  0
  3 11  1  0
  4 12  1  0
  4 13  1  0
  6 14  1  0
  7 15  1  0
  7 16  1  0
  8 17  1  0
M  END
