
     RDKit          3D

 17 18  0  0  0  0  0  0  0  0999 V2000
   -0.2845    2.0807   -0.2365 O   0  0  0  0  0  0  0  0  0  0  0  0
   -0.4256    0.9323    0.0629 C   0  0  0  0  0  0  0  0  0  0  0  0
   -1.6918    0.4648    0.6391 C   0  0  0  0  0  0  0  0  0  0  0  0
   -1.7963   -0.9121    0.3399 O   0  0  0  0  0  0  0  0  0  0  0  0
   -1.2480   -1.0951   -0.9230 C   0  0  0  0  0  0  0  0  0  0  0  0
    0.1462   -1.0722   -0.9124 O   0  0  0  0  0  0  0  0  0  0  0  0
    0.6447   -0.0427   -0.1300 C   0  0  0  0  0  0  0  0  0  0  0  0
    2.0084    0.4840   -0.2771 C   0  0  0  0  0  0  0  0  0  0  0  0
    1.6527   -0.3785    0.8858 C   0  0  0  0  0  0  0  0  0  0  0  0
   -2.5654    0.9347    0.1176 H   0  0  0  0  0  0  0  0  0  0  0  0
   -1.7229    0.6394    1.7317 H   0  0  0  0  0  0  0  0  0  0  0  0
   -1.6106   -0.2855   -1.5957 H   0  0  0  0  0  0  0  0  0  0  0  0
   -1.5785   -2.0636   -1.3039 H   0  0  0  0  0  0  0  0  0  0  0  0
    2.6160    0.1188   -1.1013 H   0  0  0  0  0  0  0  0  0  0  0  0
    2.1723    1.5701   -0.0503 H   0  0  0  0  0  0  0  0  0  0  0  0
    2.0660   -1.4068    0.8347 H   0  0  0  0  0  0  0  0  0  0  0  0
    1.6173    0.0316    1.9184 H   0  0  0  0  0  0  0  0  0  0  0  0
  1  2  2  0
  2  3  1  0
  3  4  1  0
  4  5  1  0
  5  6  1  0
  6  7  1  0
  7  8  1  0
  8  9  1  0
  7  2  1  0
  9  7  1  0
  3 10  1  0
  3 11  1  0
  5 12  1  0
  5 13  1  0
  8 14  1  0
  8 15  1  0
  9 16  1  0
  9 17  1  0
M  END
