
     RDKit          3D

 17 19  0  0  0  0  0  0  0  0999 V2000
    0.9405    2.1676   -1.4902 O   0  0  0  0  0  0  0  0  0  0  0  0
    0.5786    1.2158   -0.8400 C   0  0  0  0  0  0  0  0  0  0  0  0
    1.2405   -0.1072   -0.7293 C   0  0  0  0  0  0  0  0  0  0  0  0
    0.5855   -0.8118    0.4382 C   0  0  0  0  0  0  0  0  0  0  0  0
    1.2829   -1.7606    1.1500 O   0  0  0  0  0  0  0  0  0  0  0  0
   -0.8838   -0.8843    0.3983 C   0  0  0  0  0  0  0  0  0  0  0  0
   -1.6150    0.0994   -0.4734 C   0  0  0  0  0  0  0  0  0  0  0  0
   -0.6338    1.1700    0.0047 C   0  0  0  0  0  0  0  0  0  0  0  0
   -0.2269    0.2207    1.0876 C   0  0  0  0  0  0  0  0  0  0  0  0
    1.0336   -0.6639   -1.6866 H   0  0  0  0  0  0  0  0  0  0  0  0
    2.3283   -0.0340   -0.5258 H   0  0  0  0  0  0  0  0  0  0  0  0
    2.2495   -1.7577    0.9954 H   0  0  0  0  0  0  0  0  0  0  0  0
   -1.4560   -1.6047    1.0157 H   0  0  0  0  0  0  0  0  0  0  0  0
   -2.6594    0.3064   -0.2222 H   0  0  0  0  0  0  0  0  0  0  0  0
   -1.4228   -0.1216   -1.5614 H   0  0  0  0  0  0  0  0  0  0  0  0
   -1.0782    2.1158    0.3029 H   0  0  0  0  0  0  0  0  0  0  0  0
   -0.2637    0.4500    2.1361 H   0  0  0  0  0  0  0  0  0  0  0  0
  1  2  2  0
  2  3  1  0
  3  4  1  0
  4  5  1  0
  4  6  1  0
  6  7  1  0
  7  8  1  0
  8  9  1  0
  8  2  1  0
  9  4  1  0
  9  6  1  0
  3 10  1  0
  3 11  1  0
  5 12  1  0
  6 13  1  0
  7 14  1  0
  7 15  1  0
  8 16  1  0
  9 17  1  0
M  END
