
     RDKit          3D

 14 16  0  0  0  0  0  0  0  0999 V2000
    2.4881   -1.2163    0.9754 O   0  0  0  0  0  0  0  0  0  0  0  0
    1.4619   -0.5650    0.7382 C   0  0  0  0  0  0  0  0  0  0  0  0
    0.4049   -0.3140    1.6215 O   0  0  0  0  0  0  0  0  0  0  0  0
   -0.6471    0.3295    0.9315 C   0  0  0  0  0  0  0  0  0  0  0  0
   -1.2498   -0.6232   -0.0729 C   0  0  0  0  0  0  0  0  0  0  0  0
   -0.2388   -0.1138   -1.0810 C   0  0  0  0  0  0  0  0  0  0  0  0
    1.1379    0.1001   -0.5711 C   0  0  0  0  0  0  0  0  0  0  0  0
    0.0528    1.0104   -0.1909 C   0  0  0  0  0  0  0  0  0  0  0  0
   -1.3295    0.9255    1.5251 H   0  0  0  0  0  0  0  0  0  0  0  0
   -1.1899   -1.6907    0.1682 H   0  0  0  0  0  0  0  0  0  0  0  0
   -2.2999   -0.3251   -0.2879 H   0  0  0  0  0  0  0  0  0  0  0  0
   -0.5127   -0.0301   -2.1316 H   0  0  0  0  0  0  0  0  0  0  0  0
    1.9445    0.4605   -1.2060 H   0  0  0  0  0  0  0  0  0  0  0  0
   -0.0223    2.0523   -0.4185 H   0  0  0  0  0  0  0  0  0  0  0  0
  1  2  2  0
  2  3  1  0
  3  4  1  0
  4  5  1  0
  5  6  1  0
  6  7  1  0
  7  8  1  0
  7  2  1  0
  8  4  1  0
  8  6  1  0
  4  9  1  0
  5 10  1  0
  5 11  1  0
  6 12  1  0
  7 13  1  0
  8 14  1  0
M  END
