
     RDKit          3D

 19 20  0  0  0  0  0  0  0  0999 V2000
    1.4171    1.2379    1.7818 O   0  0  0  0  0  0  0  0  0  0  0  0
    1.1571    0.7649    0.7027 C   0  0  0  0  0  0  0  0  0  0  0  0
    1.5304   -0.6074    0.2683 C   0  0  0  0  0  0  0  0  0  0  0  0
    0.3379   -1.2392   -0.4003 C   0  0  0  0  0  0  0  0  0  0  0  0
   -0.8999   -1.2118    0.4357 C   0  0  0  0  0  0  0  0  0  0  0  0
   -1.4887    0.1507    0.2204 C   0  0  0  0  0  0  0  0  0  0  0  0
   -0.6413    0.6872   -0.9104 C   0  0  0  0  0  0  0  0  0  0  0  0
    0.4034    1.5964   -0.2946 C   0  0  0  0  0  0  0  0  0  0  0  0
   -0.0011   -0.4017   -1.4857 O   0  0  0  0  0  0  0  0  0  0  0  0
    1.9580   -1.2195    1.0770 H   0  0  0  0  0  0  0  0  0  0  0  0
    2.3047   -0.4716   -0.5400 H   0  0  0  0  0  0  0  0  0  0  0  0
    0.5309   -2.2702   -0.7252 H   0  0  0  0  0  0  0  0  0  0  0  0
   -0.7657   -1.4940    1.4750 H   0  0  0  0  0  0  0  0  0  0  0  0
   -1.6194   -1.9516   -0.0141 H   0  0  0  0  0  0  0  0  0  0  0  0
   -1.4624    0.7961    1.1213 H   0  0  0  0  0  0  0  0  0  0  0  0
   -2.5565    0.1092   -0.1003 H   0  0  0  0  0  0  0  0  0  0  0  0
   -1.2460    1.1731   -1.6794 H   0  0  0  0  0  0  0  0  0  0  0  0
    1.0928    1.8889   -1.1347 H   0  0  0  0  0  0  0  0  0  0  0  0
   -0.0513    2.4627    0.2025 H   0  0  0  0  0  0  0  0  0  0  0  0
  1  2  2  0
  2  3  1  0
  3  4  1  0
  4  5  1  0
  5  6  1  0
  6  7  1  0
  7  8  1  0
  7  9  1  0
  8  2  1  0
  9  4  1  0
  3 10  1  0
  3 11  1  0
  4 12  1  0
  5 13  1  0
  5 14  1  0
  6 15  1  0
  6 16  1  0
  7 17  1  0
  8 18  1  0
  8 19  1  0
M  END
