
     RDKit          3D

 16 18  0  0  0  0  0  0  0  0999 V2000
    2.5982    0.6667    1.0709 O   0  0  0  0  0  0  0  0  0  0  0  0
    1.5481    0.3260    0.5694 C   0  0  0  0  0  0  0  0  0  0  0  0
    0.9057   -1.0179    0.6003 C   0  0  0  0  0  0  0  0  0  0  0  0
   -0.2427   -0.9534   -0.3808 C   0  0  0  0  0  0  0  0  0  0  0  0
   -1.4326   -0.2794    0.3125 C   0  0  0  0  0  0  0  0  0  0  0  0
   -0.8071    1.0433   -0.0034 C   0  0  0  0  0  0  0  0  0  0  0  0
    0.6488    1.2081   -0.2094 C   0  0  0  0  0  0  0  0  0  0  0  0
   -0.0312    0.3011   -1.1301 C   0  0  0  0  0  0  0  0  0  0  0  0
    1.6113   -1.8390    0.3913 H   0  0  0  0  0  0  0  0  0  0  0  0
    0.4835   -1.1285    1.6352 H   0  0  0  0  0  0  0  0  0  0  0  0
   -0.4835   -1.8664   -0.9168 H   0  0  0  0  0  0  0  0  0  0  0  0
   -1.5551   -0.5369    1.3691 H   0  0  0  0  0  0  0  0  0  0  0  0
   -2.3378   -0.4691   -0.3271 H   0  0  0  0  0  0  0  0  0  0  0  0
   -1.4901    1.8420   -0.3111 H   0  0  0  0  0  0  0  0  0  0  0  0
    0.9839    2.1836   -0.5574 H   0  0  0  0  0  0  0  0  0  0  0  0
   -0.3994    0.5199   -2.1126 H   0  0  0  0  0  0  0  0  0  0  0  0
  1  2  2  0
  2  3  1  0
  3  4  1  0
  4  5  1  0
  5  6  1  0
  6  7  1  0
  7  8  1  0
  7  2  1  0
  8  4  1  0
  8  6  1  0
  3  9  1  0
  3 10  1  0
  4 11  1  0
  5 12  1  0
  5 13  1  0
  6 14  1  0
  7 15  1  0
  8 16  1  0
M  END
