
     RDKit          3D

 19 20  0  0  0  0  0  0  0  0999 V2000
    0.8016    2.4319    0.6897 O   0  0  0  0  0  0  0  0  0  0  0  0
    0.5233    1.4223    0.0222 C   0  0  0  0  0  0  0  0  0  0  0  0
    1.7167    0.5570   -0.1475 C   0  0  0  0  0  0  0  0  0  0  0  0
    1.1991   -0.8554   -0.3570 C   0  0  0  0  0  0  0  0  0  0  0  0
    0.1708   -1.0864    0.7322 C   0  0  0  0  0  0  0  0  0  0  0  0
   -1.1780   -1.0591    0.1147 C   0  0  0  0  0  0  0  0  0  0  0  0
   -1.6293    0.2426   -0.3961 C   0  0  0  0  0  0  0  0  0  0  0  0
   -1.8183    1.2054    0.7146 O   0  0  0  0  0  0  0  0  0  0  0  0
   -0.8678    1.3770   -0.3952 C   0  0  0  0  0  0  0  0  0  0  0  0
    2.3968    0.8898   -0.9376 H   0  0  0  0  0  0  0  0  0  0  0  0
    2.2357    0.5343    0.8497 H   0  0  0  0  0  0  0  0  0  0  0  0
    0.7273   -0.8586   -1.3676 H   0  0  0  0  0  0  0  0  0  0  0  0
    2.0018   -1.6011   -0.3581 H   0  0  0  0  0  0  0  0  0  0  0  0
    0.3367   -2.0585    1.2421 H   0  0  0  0  0  0  0  0  0  0  0  0
    0.2081   -0.3155    1.5286 H   0  0  0  0  0  0  0  0  0  0  0  0
   -1.1755   -1.7942   -0.7372 H   0  0  0  0  0  0  0  0  0  0  0  0
   -1.9080   -1.4855    0.8463 H   0  0  0  0  0  0  0  0  0  0  0  0
   -2.5436    0.1834   -1.0578 H   0  0  0  0  0  0  0  0  0  0  0  0
   -1.1973    2.2707   -0.9860 H   0  0  0  0  0  0  0  0  0  0  0  0
  1  2  2  0
  2  3  1  0
  3  4  1  0
  4  5  1  0
  5  6  1  0
  6  7  1  0
  7  8  1  0
  8  9  1  0
  9  2  1  0
  9  7  1  0
  3 10  1  0
  3 11  1  0
  4 12  1  0
  4 13  1  0
  5 14  1  0
  5 15  1  0
  6 16  1  0
  6 17  1  0
  7 18  1  0
  9 19  1  0
M  END
