
     RDKit          3D

 15 17  0  0  0  0  0  0  0  0999 V2000
    1.9165    1.2167    1.2338 O   0  0  0  0  0  0  0  0  0  0  0  0
    1.1901    0.5198    0.5594 C   0  0  0  0  0  0  0  0  0  0  0  0
    1.1850   -0.9002    0.1340 C   0  0  0  0  0  0  0  0  0  0  0  0
   -0.1596   -1.5478    0.0665 C   0  0  0  0  0  0  0  0  0  0  0  0
   -1.0755   -0.9818    0.9698 O   0  0  0  0  0  0  0  0  0  0  0  0
   -1.3248    0.3099    0.5796 C   0  0  0  0  0  0  0  0  0  0  0  0
   -0.0602    0.7427   -0.1785 C   0  0  0  0  0  0  0  0  0  0  0  0
   -0.1809    1.8770   -0.9215 O   0  0  0  0  0  0  0  0  0  0  0  0
    0.2187   -0.5423   -0.9101 C   0  0  0  0  0  0  0  0  0  0  0  0
    2.0998   -1.4094   -0.1588 H   0  0  0  0  0  0  0  0  0  0  0  0
   -0.2904   -2.5841   -0.2587 H   0  0  0  0  0  0  0  0  0  0  0  0
   -1.5464    1.0045    1.3825 H   0  0  0  0  0  0  0  0  0  0  0  0
   -2.1275    0.2677   -0.2135 H   0  0  0  0  0  0  0  0  0  0  0  0
   -0.1795    2.6538   -0.3229 H   0  0  0  0  0  0  0  0  0  0  0  0
    0.3347   -0.6262   -1.9617 H   0  0  0  0  0  0  0  0  0  0  0  0
  1  2  2  0
  2  3  1  0
  3  4  1  0
  4  5  1  0
  5  6  1  0
  6  7  1  0
  7  8  1  0
  7  9  1  0
  7  2  1  0
  9  3  1  0
  9  4  1  0
  3 10  1  0
  4 11  1  0
  6 12  1  0
  6 13  1  0
  8 14  1  0
  9 15  1  0
M  END
