
     RDKit          3D

 17 17  0  0  0  0  0  0  0  0999 V2000
    1.8126    2.2401    1.6046 O   0  0  0  0  0  0  0  0  0  0  0  0
    1.3997    1.3401    0.8329 C   0  0  0  0  0  0  0  0  0  0  0  0
   -0.0060    0.9873    0.6890 C   0  0  0  0  0  0  0  0  0  0  0  0
   -0.4035    0.0390   -0.1318 C   0  0  0  0  0  0  0  0  0  0  0  0
   -1.8629   -0.2635   -0.2194 C   0  0  0  0  0  0  0  0  0  0  0  0
   -2.5337    0.5847    0.6489 O   0  0  0  0  0  0  0  0  0  0  0  0
    0.5856   -0.6922   -0.9604 C   0  0  0  0  0  0  0  0  0  0  0  0
    1.8784   -0.7987   -0.1986 C   0  0  0  0  0  0  0  0  0  0  0  0
    2.2741    0.5757    0.0211 O   0  0  0  0  0  0  0  0  0  0  0  0
   -0.7244    1.5506    1.2990 H   0  0  0  0  0  0  0  0  0  0  0  0
   -2.0687   -1.3164    0.1066 H   0  0  0  0  0  0  0  0  0  0  0  0
   -2.2400   -0.1776   -1.2443 H   0  0  0  0  0  0  0  0  0  0  0  0
   -3.4736    0.2876    0.7401 H   0  0  0  0  0  0  0  0  0  0  0  0
    0.1977   -1.6743   -1.2926 H   0  0  0  0  0  0  0  0  0  0  0  0
    0.8170   -0.0598   -1.8673 H   0  0  0  0  0  0  0  0  0  0  0  0
    1.6871   -1.3165    0.7453 H   0  0  0  0  0  0  0  0  0  0  0  0
    2.6606   -1.3063   -0.7729 H   0  0  0  0  0  0  0  0  0  0  0  0
  1  2  2  0
  2  3  1  0
  3  4  2  0
  4  5  1  0
  5  6  1  0
  4  7  1  0
  7  8  1  0
  8  9  1  0
  9  2  1  0
  3 10  1  0
  5 11  1  0
  5 12  1  0
  6 13  1  0
  7 14  1  0
  7 15  1  0
  8 16  1  0
  8 17  1  0
M  END
