
     RDKit          3D

 16 17  0  0  0  0  0  0  0  0999 V2000
    2.2862   -1.7725   -1.1617 O   0  0  0  0  0  0  0  0  0  0  0  0
    1.8750   -0.7496   -0.5581 C   0  0  0  0  0  0  0  0  0  0  0  0
    2.3542    0.5457   -0.4725 O   0  0  0  0  0  0  0  0  0  0  0  0
    1.3553    0.9043    0.4743 C   0  0  0  0  0  0  0  0  0  0  0  0
    0.7347   -0.4385    0.3149 C   0  0  0  0  0  0  0  0  0  0  0  0
   -0.5696   -0.5410   -0.3740 C   0  0  0  0  0  0  0  0  0  0  0  0
   -1.7739   -0.2127    0.5470 C   0  0  0  0  0  0  0  0  0  0  0  0
   -1.4454    0.5799   -0.6891 C   0  0  0  0  0  0  0  0  0  0  0  0
    0.7617    1.7831    0.2444 H   0  0  0  0  0  0  0  0  0  0  0  0
    1.7942    1.0141    1.5086 H   0  0  0  0  0  0  0  0  0  0  0  0
    0.7365   -1.0695    1.2501 H   0  0  0  0  0  0  0  0  0  0  0  0
   -0.6902   -1.4661   -0.9984 H   0  0  0  0  0  0  0  0  0  0  0  0
   -1.5662    0.3122    1.4856 H   0  0  0  0  0  0  0  0  0  0  0  0
   -2.5745   -0.9457    0.5378 H   0  0  0  0  0  0  0  0  0  0  0  0
   -1.0833    1.6091   -0.6064 H   0  0  0  0  0  0  0  0  0  0  0  0
   -2.1947    0.4471   -1.5025 H   0  0  0  0  0  0  0  0  0  0  0  0
  1  2  2  0
  2  3  1  0
  3  4  1  0
  4  5  1  0
  5  6  1  0
  6  7  1  0
  7  8  1  0
  5  2  1  0
  8  6  1  0
  4  9  1  0
  4 10  1  0
  5 11  1  0
  6 12  1  0
  7 13  1  0
  7 14  1  0
  8 15  1  0
  8 16  1  0
M  END
