
     RDKit          3D

 15 16  0  0  0  0  0  0  0  0999 V2000
    2.0133   -1.7903    1.0317 O   0  0  0  0  0  0  0  0  0  0  0  0
    1.1742   -0.8894    0.7706 C   0  0  0  0  0  0  0  0  0  0  0  0
    1.3501    0.0570   -0.3787 C   0  0  0  0  0  0  0  0  0  0  0  0
   -0.0394    0.3206   -0.9202 C   0  0  0  0  0  0  0  0  0  0  0  0
   -0.7682    1.1423    0.1501 C   0  0  0  0  0  0  0  0  0  0  0  0
   -1.1012   -0.1791    0.7813 C   0  0  0  0  0  0  0  0  0  0  0  0
    0.0136   -0.6957    1.5257 O   0  0  0  0  0  0  0  0  0  0  0  0
   -0.9808   -0.7824   -0.5874 C   0  0  0  0  0  0  0  0  0  0  0  0
   -1.4649   -1.7513   -1.1320 O   0  0  0  0  0  0  0  0  0  0  0  0
    1.7241    1.0023    0.0698 H   0  0  0  0  0  0  0  0  0  0  0  0
    2.0549   -0.3018   -1.1246 H   0  0  0  0  0  0  0  0  0  0  0  0
   -0.0936    0.7295   -1.9245 H   0  0  0  0  0  0  0  0  0  0  0  0
   -0.1291    1.8104    0.7287 H   0  0  0  0  0  0  0  0  0  0  0  0
   -1.6834    1.6105   -0.2508 H   0  0  0  0  0  0  0  0  0  0  0  0
   -2.0697   -0.2825    1.2604 H   0  0  0  0  0  0  0  0  0  0  0  0
  1  2  2  0
  2  3  1  0
  3  4  1  0
  4  5  1  0
  5  6  1  0
  6  7  1  0
  6  8  1  0
  8  9  2  0
  7  2  1  0
  8  4  1  0
  3 10  1  0
  3 11  1  0
  4 12  1  0
  5 13  1  0
  5 14  1  0
  6 15  1  0
M  END
