
     RDKit          3D

 13 13  0  0  0  0  0  0  0  0999 V2000
   -0.5511    2.3314    0.4231 O   0  0  0  0  0  0  0  0  0  0  0  0
   -0.1736    1.2110    0.0103 C   0  0  0  0  0  0  0  0  0  0  0  0
   -1.0903    0.1671   -0.5196 C   0  0  0  0  0  0  0  0  0  0  0  0
   -0.8334   -1.0887    0.3176 C   0  0  0  0  0  0  0  0  0  0  0  0
    0.5226   -1.4608    0.2379 O   0  0  0  0  0  0  0  0  0  0  0  0
    1.5607   -0.5764    0.1446 C   0  0  0  0  0  0  0  0  0  0  0  0
    2.7755   -0.8719    0.1536 O   0  0  0  0  0  0  0  0  0  0  0  0
    1.2375    0.8450    0.0229 C   0  0  0  0  0  0  0  0  0  0  0  0
    2.1189    1.7363   -0.0685 O   0  0  0  0  0  0  0  0  0  0  0  0
   -0.8530   -0.0183   -1.5974 H   0  0  0  0  0  0  0  0  0  0  0  0
   -2.1459    0.4624   -0.3952 H   0  0  0  0  0  0  0  0  0  0  0  0
   -1.1410   -0.8069    1.3573 H   0  0  0  0  0  0  0  0  0  0  0  0
   -1.4271   -1.9299   -0.0865 H   0  0  0  0  0  0  0  0  0  0  0  0
  1  2  2  0
  2  3  1  0
  3  4  1  0
  4  5  1  0
  5  6  1  0
  6  7  2  0
  6  8  1  0
  8  9  2  0
  8  2  1  0
  3 10  1  0
  3 11  1  0
  4 12  1  0
  4 13  1  0
M  END
