
     RDKit          3D

 17 18  0  0  0  0  0  0  0  0999 V2000
   -1.9242    1.9988    0.8837 O   0  0  0  0  0  0  0  0  0  0  0  0
   -1.2404    1.1584    0.2648 C   0  0  0  0  0  0  0  0  0  0  0  0
   -1.7020   -0.2547    0.0850 C   0  0  0  0  0  0  0  0  0  0  0  0
   -0.4966   -1.1210    0.4648 C   0  0  0  0  0  0  0  0  0  0  0  0
    0.6792   -0.8859   -0.4111 C   0  0  0  0  0  0  0  0  0  0  0  0
    1.8516   -0.1426    0.2067 C   0  0  0  0  0  0  0  0  0  0  0  0
    0.9735    0.4893   -0.7867 C   0  0  0  0  0  0  0  0  0  0  0  0
    0.0461    1.5188   -0.3138 C   0  0  0  0  0  0  0  0  0  0  0  0
    0.3871    2.7235   -0.4193 O   0  0  0  0  0  0  0  0  0  0  0  0
   -2.5202   -0.5051    0.7756 H   0  0  0  0  0  0  0  0  0  0  0  0
   -1.9451   -0.4901   -0.9549 H   0  0  0  0  0  0  0  0  0  0  0  0
   -0.2850   -0.9667    1.5497 H   0  0  0  0  0  0  0  0  0  0  0  0
   -0.7822   -2.1984    0.3760 H   0  0  0  0  0  0  0  0  0  0  0  0
    0.9368   -1.6720   -1.1736 H   0  0  0  0  0  0  0  0  0  0  0  0
    1.7640    0.1801    1.2737 H   0  0  0  0  0  0  0  0  0  0  0  0
    2.8529   -0.5395   -0.0284 H   0  0  0  0  0  0  0  0  0  0  0  0
    1.4044    0.7071   -1.7924 H   0  0  0  0  0  0  0  0  0  0  0  0
  1  2  2  0
  2  3  1  0
  3  4  1  0
  4  5  1  0
  5  6  1  0
  6  7  1  0
  7  8  1  0
  8  9  2  0
  8  2  1  0
  7  5  1  0
  3 10  1  0
  3 11  1  0
  4 12  1  0
  4 13  1  0
  5 14  1  0
  6 15  1  0
  6 16  1  0
  7 17  1  0
M  END
