
     RDKit          3D

 17 18  0  0  0  0  0  0  0  0999 V2000
   -2.5248   -1.2615    1.3540 O   0  0  0  0  0  0  0  0  0  0  0  0
   -1.6325   -0.9428    0.6303 C   0  0  0  0  0  0  0  0  0  0  0  0
   -1.4204   -0.4649   -0.7990 C   0  0  0  0  0  0  0  0  0  0  0  0
   -0.6197    0.5889   -0.0155 C   0  0  0  0  0  0  0  0  0  0  0  0
   -1.5883    1.2593    0.7920 O   0  0  0  0  0  0  0  0  0  0  0  0
    0.6296    0.4103    0.6240 C   0  0  0  0  0  0  0  0  0  0  0  0
    1.8875    0.5513   -0.2516 C   0  0  0  0  0  0  0  0  0  0  0  0
    1.8058   -0.4180   -1.2624 O   0  0  0  0  0  0  0  0  0  0  0  0
   -0.1297   -0.7887    0.6084 C   0  0  0  0  0  0  0  0  0  0  0  0
   -0.8272   -1.1464   -1.4042 H   0  0  0  0  0  0  0  0  0  0  0  0
   -2.3342   -0.0579   -1.2467 H   0  0  0  0  0  0  0  0  0  0  0  0
   -1.4232    2.2132    0.7756 H   0  0  0  0  0  0  0  0  0  0  0  0
    0.8423    0.8655    1.6390 H   0  0  0  0  0  0  0  0  0  0  0  0
    2.8056    0.3688    0.3419 H   0  0  0  0  0  0  0  0  0  0  0  0
    1.9707    1.5770   -0.6636 H   0  0  0  0  0  0  0  0  0  0  0  0
    2.3333   -1.2154   -0.9526 H   0  0  0  0  0  0  0  0  0  0  0  0
    0.2253   -1.5389   -0.1695 H   0  0  0  0  0  0  0  0  0  0  0  0
  1  2  2  0
  2  3  1  0
  3  4  1  0
  4  5  1  0
  4  6  1  0
  6  7  1  0
  7  8  1  0
  6  9  1  0
  9  2  1  0
  9  4  1  0
  3 10  1  0
  3 11  1  0
  5 12  1  0
  6 13  1  0
  7 14  1  0
  7 15  1  0
  8 16  1  0
  9 17  1  0
M  END
