
     RDKit          3D

 15 17  0  0  0  0  0  0  0  0999 V2000
    0.2976    2.4584    1.4771 O   0  0  0  0  0  0  0  0  0  0  0  0
    0.5233    1.4790    0.7319 C   0  0  0  0  0  0  0  0  0  0  0  0
    1.7492    0.8409    0.6548 O   0  0  0  0  0  0  0  0  0  0  0  0
    1.4886   -0.4889    0.1888 C   0  0  0  0  0  0  0  0  0  0  0  0
    0.3655   -0.3193   -0.7839 C   0  0  0  0  0  0  0  0  0  0  0  0
   -0.8024   -1.2128   -0.4787 C   0  0  0  0  0  0  0  0  0  0  0  0
   -1.0759   -1.3516    0.8725 O   0  0  0  0  0  0  0  0  0  0  0  0
   -1.4114   -0.1122    0.3930 C   0  0  0  0  0  0  0  0  0  0  0  0
   -0.4169    0.8291   -0.1754 C   0  0  0  0  0  0  0  0  0  0  0  0
    1.0982   -1.0297    1.0987 H   0  0  0  0  0  0  0  0  0  0  0  0
    2.3868   -0.9603   -0.2179 H   0  0  0  0  0  0  0  0  0  0  0  0
    0.6414   -0.2031   -1.8403 H   0  0  0  0  0  0  0  0  0  0  0  0
   -1.4711   -1.5812   -1.2478 H   0  0  0  0  0  0  0  0  0  0  0  0
   -2.4920    0.1307    0.2416 H   0  0  0  0  0  0  0  0  0  0  0  0
   -0.8808    1.5211   -0.9145 H   0  0  0  0  0  0  0  0  0  0  0  0
  1  2  2  0
  2  3  1  0
  3  4  1  0
  4  5  1  0
  5  6  1  0
  6  7  1  0
  7  8  1  0
  8  9  1  0
  9  2  1  0
  9  5  1  0
  8  6  1  0
  4 10  1  0
  4 11  1  0
  5 12  1  0
  6 13  1  0
  8 14  1  0
  9 15  1  0
M  END
