
     RDKit          3D

 19 19  0  0  0  0  0  0  0  0999 V2000
   -2.0868    2.0645    0.5763 O   0  0  0  0  0  0  0  0  0  0  0  0
   -1.6642    0.9439    0.3656 C   0  0  0  0  0  0  0  0  0  0  0  0
   -2.0913   -0.4453    0.6216 C   0  0  0  0  0  0  0  0  0  0  0  0
   -1.0330   -0.9470   -0.3452 C   0  0  0  0  0  0  0  0  0  0  0  0
   -0.4219    0.4115   -0.3011 C   0  0  0  0  0  0  0  0  0  0  0  0
   -0.2331    1.0326   -1.5498 O   0  0  0  0  0  0  0  0  0  0  0  0
    0.7351    0.6111    0.6262 C   0  0  0  0  0  0  0  0  0  0  0  0
    2.0421    0.1143    0.0658 C   0  0  0  0  0  0  0  0  0  0  0  0
    2.0294   -1.2355   -0.2220 O   0  0  0  0  0  0  0  0  0  0  0  0
   -1.9225   -0.8194    1.6607 H   0  0  0  0  0  0  0  0  0  0  0  0
   -3.1246   -0.6559    0.2477 H   0  0  0  0  0  0  0  0  0  0  0  0
   -1.4838   -1.1395   -1.3630 H   0  0  0  0  0  0  0  0  0  0  0  0
   -0.4505   -1.7821    0.0491 H   0  0  0  0  0  0  0  0  0  0  0  0
    0.2918    0.4298   -2.1381 H   0  0  0  0  0  0  0  0  0  0  0  0
    0.5458    0.1369    1.5882 H   0  0  0  0  0  0  0  0  0  0  0  0
    0.8486    1.7224    0.7534 H   0  0  0  0  0  0  0  0  0  0  0  0
    2.3177    0.7329   -0.8130 H   0  0  0  0  0  0  0  0  0  0  0  0
    2.8200    0.2833    0.8384 H   0  0  0  0  0  0  0  0  0  0  0  0
    2.8813   -1.4586   -0.6608 H   0  0  0  0  0  0  0  0  0  0  0  0
  1  2  2  0
  2  3  1  0
  3  4  1  0
  4  5  1  0
  5  6  1  0
  5  7  1  0
  7  8  1  0
  8  9  1  0
  5  2  1  0
  3 10  1  0
  3 11  1  0
  4 12  1  0
  4 13  1  0
  6 14  1  0
  7 15  1  0
  7 16  1  0
  8 17  1  0
  8 18  1  0
  9 19  1  0
M  END
