
     RDKit          3D

 17 18  0  0  0  0  0  0  0  0999 V2000
    0.1342    3.0345   -0.3918 O   0  0  0  0  0  0  0  0  0  0  0  0
    0.3149    1.8272   -0.0728 C   0  0  0  0  0  0  0  0  0  0  0  0
    1.1726    1.3308    0.9181 O   0  0  0  0  0  0  0  0  0  0  0  0
    1.6670    0.0517    0.5001 C   0  0  0  0  0  0  0  0  0  0  0  0
    0.6763   -0.4228   -0.5299 C   0  0  0  0  0  0  0  0  0  0  0  0
   -0.0309   -1.6041    0.0427 C   0  0  0  0  0  0  0  0  0  0  0  0
   -1.2454   -1.2755    0.4011 C   0  0  0  0  0  0  0  0  0  0  0  0
   -1.5224    0.1593    0.1223 C   0  0  0  0  0  0  0  0  0  0  0  0
   -0.3468    0.6596   -0.6824 C   0  0  0  0  0  0  0  0  0  0  0  0
    2.6219    0.2117    0.0046 H   0  0  0  0  0  0  0  0  0  0  0  0
    1.7164   -0.5986    1.3851 H   0  0  0  0  0  0  0  0  0  0  0  0
    1.1263   -0.6235   -1.5122 H   0  0  0  0  0  0  0  0  0  0  0  0
    0.4493   -2.5729    0.1233 H   0  0  0  0  0  0  0  0  0  0  0  0
   -1.9790   -1.9382    0.8457 H   0  0  0  0  0  0  0  0  0  0  0  0
   -1.6678    0.7220    1.0656 H   0  0  0  0  0  0  0  0  0  0  0  0
   -2.4658    0.2162   -0.4838 H   0  0  0  0  0  0  0  0  0  0  0  0
   -0.6208    0.8227   -1.7355 H   0  0  0  0  0  0  0  0  0  0  0  0
  1  2  2  0
  2  3  1  0
  3  4  1  0
  4  5  1  0
  5  6  1  0
  6  7  2  0
  7  8  1  0
  8  9  1  0
  9  2  1  0
  9  5  1  0
  4 10  1  0
  4 11  1  0
  5 12  1  0
  6 13  1  0
  7 14  1  0
  8 15  1  0
  8 16  1  0
  9 17  1  0
M  END
