
     RDKit          3D

 17 18  0  0  0  0  0  0  0  0999 V2000
   -2.9191    0.9758    0.2360 O   0  0  0  0  0  0  0  0  0  0  0  0
   -1.8812    0.4032    0.0539 C   0  0  0  0  0  0  0  0  0  0  0  0
   -1.6171   -0.6775   -0.9112 C   0  0  0  0  0  0  0  0  0  0  0  0
   -0.2533   -0.5793   -1.1640 O   0  0  0  0  0  0  0  0  0  0  0  0
    0.3685   -0.0859   -0.0430 C   0  0  0  0  0  0  0  0  0  0  0  0
    1.4772   -0.8669    0.5856 C   0  0  0  0  0  0  0  0  0  0  0  0
    2.4912   -1.0023   -0.3908 O   0  0  0  0  0  0  0  0  0  0  0  0
    0.4666    1.4314    0.0808 C   0  0  0  0  0  0  0  0  0  0  0  0
   -0.6189    0.6642    0.7733 C   0  0  0  0  0  0  0  0  0  0  0  0
   -2.1706   -0.5603   -1.8639 H   0  0  0  0  0  0  0  0  0  0  0  0
   -1.7840   -1.6839   -0.4598 H   0  0  0  0  0  0  0  0  0  0  0  0
    1.1375   -1.8684    0.9321 H   0  0  0  0  0  0  0  0  0  0  0  0
    1.9217   -0.3410    1.4259 H   0  0  0  0  0  0  0  0  0  0  0  0
    2.4629   -0.2264   -1.0308 H   0  0  0  0  0  0  0  0  0  0  0  0
    1.2758    1.8104    0.7312 H   0  0  0  0  0  0  0  0  0  0  0  0
    0.2296    2.0089   -0.8325 H   0  0  0  0  0  0  0  0  0  0  0  0
   -0.5867    0.5980    1.8771 H   0  0  0  0  0  0  0  0  0  0  0  0
  1  2  2  0
  2  3  1  0
  3  4  1  0
  4  5  1  0
  5  6  1  0
  6  7  1  0
  5  8  1  0
  8  9  1  0
  9  2  1  0
  9  5  1  0
  3 10  1  0
  3 11  1  0
  6 12  1  0
  6 13  1  0
  7 14  1  0
  8 15  1  0
  8 16  1  0
  9 17  1  0
M  END
