
     RDKit          3D

 15 17  0  0  0  0  0  0  0  0999 V2000
    2.7680    0.1632    0.1321 O   0  0  0  0  0  0  0  0  0  0  0  0
    1.6145    0.0616    0.0919 C   0  0  0  0  0  0  0  0  0  0  0  0
    0.6179   -0.9599    0.5231 C   0  0  0  0  0  0  0  0  0  0  0  0
    0.0301   -0.1295    1.5193 O   0  0  0  0  0  0  0  0  0  0  0  0
   -0.4481    0.8671    0.6259 C   0  0  0  0  0  0  0  0  0  0  0  0
   -1.4529   -0.0599   -0.0774 C   0  0  0  0  0  0  0  0  0  0  0  0
   -0.3057   -0.9126   -0.6585 C   0  0  0  0  0  0  0  0  0  0  0  0
    0.1841    0.1223   -1.5018 O   0  0  0  0  0  0  0  0  0  0  0  0
    0.5915    0.9975   -0.4558 C   0  0  0  0  0  0  0  0  0  0  0  0
    0.9788   -1.8853    0.8531 H   0  0  0  0  0  0  0  0  0  0  0  0
   -0.8427    1.7324    1.0604 H   0  0  0  0  0  0  0  0  0  0  0  0
   -2.0579   -0.6162    0.6302 H   0  0  0  0  0  0  0  0  0  0  0  0
   -1.9892    0.4714   -0.8664 H   0  0  0  0  0  0  0  0  0  0  0  0
   -0.5918   -1.8023   -1.1293 H   0  0  0  0  0  0  0  0  0  0  0  0
    0.9033    1.9502   -0.7469 H   0  0  0  0  0  0  0  0  0  0  0  0
  1  2  2  0
  2  3  1  0
  3  4  1  0
  4  5  1  0
  5  6  1  0
  6  7  1  0
  7  8  1  0
  8  9  1  0
  9  2  1  0
  7  3  1  0
  9  5  1  0
  3 10  1  0
  5 11  1  0
  6 12  1  0
  6 13  1  0
  7 14  1  0
  9 15  1  0
M  END
