
     RDKit          3D

 13 14  0  0  0  0  0  0  0  0999 V2000
    2.3208    0.2851   -0.8778 O   0  0  0  0  0  0  0  0  0  0  0  0
    1.2767    0.0822   -0.3409 C   0  0  0  0  0  0  0  0  0  0  0  0
    0.6049   -1.1406    0.2532 C   0  0  0  0  0  0  0  0  0  0  0  0
   -0.5229   -0.5973   -0.5886 C   0  0  0  0  0  0  0  0  0  0  0  0
   -1.3058    0.5734   -0.4102 C   0  0  0  0  0  0  0  0  0  0  0  0
    0.0238    0.7227    0.1024 C   0  0  0  0  0  0  0  0  0  0  0  0
    0.0276    0.6892    1.5244 O   0  0  0  0  0  0  0  0  0  0  0  0
    0.4903   -1.1518    1.3265 H   0  0  0  0  0  0  0  0  0  0  0  0
    1.0035   -2.0948   -0.1037 H   0  0  0  0  0  0  0  0  0  0  0  0
   -0.1783   -0.7140   -1.6699 H   0  0  0  0  0  0  0  0  0  0  0  0
   -2.2247    0.4535    0.2416 H   0  0  0  0  0  0  0  0  0  0  0  0
   -1.5796    1.2731   -1.2580 H   0  0  0  0  0  0  0  0  0  0  0  0
    0.0637    1.6194    1.8009 H   0  0  0  0  0  0  0  0  0  0  0  0
  1  2  2  0
  2  3  1  0
  3  4  1  0
  4  5  1  0
  5  6  1  0
  6  7  1  0
  6  2  1  0
  6  4  1  0
  3  8  1  0
  3  9  1  0
  4 10  1  0
  5 11  1  0
  5 12  1  0
  7 13  1  0
M  END
