
     RDKit          3D

 19 20  0  0  0  0  0  0  0  0999 V2000
    3.5118    0.7494   -0.0054 O   0  0  0  0  0  0  0  0  0  0  0  0
    2.2957    0.5345    0.1622 C   0  0  0  0  0  0  0  0  0  0  0  0
    1.1983    1.4681    0.3928 C   0  0  0  0  0  0  0  0  0  0  0  0
    0.0592    0.9171    0.0401 C   0  0  0  0  0  0  0  0  0  0  0  0
   -1.4060    1.0984   -0.0658 C   0  0  0  0  0  0  0  0  0  0  0  0
   -1.9849   -0.2938   -0.0914 C   0  0  0  0  0  0  0  0  0  0  0  0
   -0.8421   -1.2818   -0.0314 C   0  0  0  0  0  0  0  0  0  0  0  0
    0.3380   -0.4686   -0.4831 C   0  0  0  0  0  0  0  0  0  0  0  0
    1.6367   -0.8001    0.1672 C   0  0  0  0  0  0  0  0  0  0  0  0
    1.3730    2.4755    0.8058 H   0  0  0  0  0  0  0  0  0  0  0  0
   -1.8115    1.6660    0.8022 H   0  0  0  0  0  0  0  0  0  0  0  0
   -1.6059    1.6618   -0.9973 H   0  0  0  0  0  0  0  0  0  0  0  0
   -2.5221   -0.4540   -1.0543 H   0  0  0  0  0  0  0  0  0  0  0  0
   -2.6459   -0.4329    0.7672 H   0  0  0  0  0  0  0  0  0  0  0  0
   -0.7298   -1.6466    0.9967 H   0  0  0  0  0  0  0  0  0  0  0  0
   -0.9928   -2.1271   -0.7337 H   0  0  0  0  0  0  0  0  0  0  0  0
    0.4281   -0.4278   -1.5731 H   0  0  0  0  0  0  0  0  0  0  0  0
    1.4731   -1.0642    1.2456 H   0  0  0  0  0  0  0  0  0  0  0  0
    2.2271   -1.5738   -0.3444 H   0  0  0  0  0  0  0  0  0  0  0  0
  1  2  2  0
  2  3  1  0
  3  4  2  0
  4  5  1  0
  5  6  1  0
  6  7  1  0
  7  8  1  0
  8  9  1  0
  9  2  1  0
  8  4  1  0
  3 10  1  0
  5 11  1  0
  5 12  1  0
  6 13  1  0
  6 14  1  0
  7 15  1  0
  7 16  1  0
  8 17  1  0
  9 18  1  0
  9 19  1  0
M  END
