
     RDKit          3D

 19 20  0  0  0  0  0  0  0  0999 V2000
    0.3105    2.0040   -1.4088 O   0  0  0  0  0  0  0  0  0  0  0  0
    0.1019    1.3012   -0.4372 C   0  0  0  0  0  0  0  0  0  0  0  0
    1.2928    1.2067    0.4675 C   0  0  0  0  0  0  0  0  0  0  0  0
    1.8114   -0.2192    0.2353 C   0  0  0  0  0  0  0  0  0  0  0  0
    0.7801   -1.0634    0.6450 O   0  0  0  0  0  0  0  0  0  0  0  0
   -0.0141   -1.4874   -0.4261 C   0  0  0  0  0  0  0  0  0  0  0  0
   -1.3217   -0.7470   -0.4838 C   0  0  0  0  0  0  0  0  0  0  0  0
   -1.6766   -0.0431    0.8439 C   0  0  0  0  0  0  0  0  0  0  0  0
   -1.2391    0.7089   -0.3583 C   0  0  0  0  0  0  0  0  0  0  0  0
    2.0364    1.9656    0.2347 H   0  0  0  0  0  0  0  0  0  0  0  0
    0.9267    1.2935    1.5288 H   0  0  0  0  0  0  0  0  0  0  0  0
    1.8961   -0.3374   -0.8742 H   0  0  0  0  0  0  0  0  0  0  0  0
    2.7622   -0.4029    0.7296 H   0  0  0  0  0  0  0  0  0  0  0  0
    0.5392   -1.4436   -1.3859 H   0  0  0  0  0  0  0  0  0  0  0  0
   -0.2692   -2.5604   -0.1831 H   0  0  0  0  0  0  0  0  0  0  0  0
   -2.1306   -1.2455   -1.0298 H   0  0  0  0  0  0  0  0  0  0  0  0
   -1.0239   -0.1994    1.7057 H   0  0  0  0  0  0  0  0  0  0  0  0
   -2.7614   -0.0232    1.0852 H   0  0  0  0  0  0  0  0  0  0  0  0
   -2.0207    1.2926   -0.8886 H   0  0  0  0  0  0  0  0  0  0  0  0
  1  2  2  0
  2  3  1  0
  3  4  1  0
  4  5  1  0
  5  6  1  0
  6  7  1  0
  7  8  1  0
  8  9  1  0
  9  2  1  0
  9  7  1  0
  3 10  1  0
  3 11  1  0
  4 12  1  0
  4 13  1  0
  6 14  1  0
  6 15  1  0
  7 16  1  0
  8 17  1  0
  8 18  1  0
  9 19  1  0
M  END
