
     RDKit          3D

 19 19  0  0  0  0  0  0  0  0999 V2000
   -3.1446   -0.3732    1.1823 O   0  0  0  0  0  0  0  0  0  0  0  0
   -2.1268   -0.0184    0.6640 C   0  0  0  0  0  0  0  0  0  0  0  0
   -1.8657    1.2930    0.0295 C   0  0  0  0  0  0  0  0  0  0  0  0
   -0.4954    1.2747   -0.3250 O   0  0  0  0  0  0  0  0  0  0  0  0
   -0.2580   -0.0427   -0.6416 C   0  0  0  0  0  0  0  0  0  0  0  0
    1.1243   -0.3717   -1.0071 C   0  0  0  0  0  0  0  0  0  0  0  0
    2.1843   -0.1163    0.0031 C   0  0  0  0  0  0  0  0  0  0  0  0
    2.0032   -0.8250    1.1829 O   0  0  0  0  0  0  0  0  0  0  0  0
   -0.8620   -0.7777    0.5132 C   0  0  0  0  0  0  0  0  0  0  0  0
   -2.4268    1.4730   -0.8870 H   0  0  0  0  0  0  0  0  0  0  0  0
   -2.0679    2.1410    0.7311 H   0  0  0  0  0  0  0  0  0  0  0  0
   -0.9235   -0.2606   -1.5268 H   0  0  0  0  0  0  0  0  0  0  0  0
    1.3794    0.2352   -1.9198 H   0  0  0  0  0  0  0  0  0  0  0  0
    1.1998   -1.4328   -1.3379 H   0  0  0  0  0  0  0  0  0  0  0  0
    2.3394    0.9814    0.1989 H   0  0  0  0  0  0  0  0  0  0  0  0
    3.1582   -0.4498   -0.4550 H   0  0  0  0  0  0  0  0  0  0  0  0
    2.1188   -0.1883    1.9259 H   0  0  0  0  0  0  0  0  0  0  0  0
   -0.2999   -0.7088    1.4561 H   0  0  0  0  0  0  0  0  0  0  0  0
   -1.0370   -1.8329    0.2130 H   0  0  0  0  0  0  0  0  0  0  0  0
  1  2  2  0
  2  3  1  0
  3  4  1  0
  4  5  1  0
  5  6  1  0
  6  7  1  0
  7  8  1  0
  5  9  1  0
  9  2  1  0
  3 10  1  0
  3 11  1  0
  5 12  1  0
  6 13  1  0
  6 14  1  0
  7 15  1  0
  7 16  1  0
  8 17  1  0
  9 18  1  0
  9 19  1  0
M  END
