
     RDKit          3D

 18 18  0  0  0  0  0  0  0  0999 V2000
   -1.7636   -2.1604   -0.6067 O   0  0  0  0  0  0  0  0  0  0  0  0
   -1.0608   -1.2095   -0.3227 C   0  0  0  0  0  0  0  0  0  0  0  0
   -1.6393    0.1413   -0.4197 C   0  0  0  0  0  0  0  0  0  0  0  0
   -0.8418    1.2118    0.2120 C   0  0  0  0  0  0  0  0  0  0  0  0
    0.6284    1.0815    0.1798 C   0  0  0  0  0  0  0  0  0  0  0  0
    1.2175   -0.2454   -0.0241 C   0  0  0  0  0  0  0  0  0  0  0  0
    2.2771   -0.4837    0.8822 O   0  0  0  0  0  0  0  0  0  0  0  0
    0.3128   -1.4225    0.0994 C   0  0  0  0  0  0  0  0  0  0  0  0
   -2.6606    0.0836    0.0610 H   0  0  0  0  0  0  0  0  0  0  0  0
   -1.8510    0.3369   -1.4962 H   0  0  0  0  0  0  0  0  0  0  0  0
   -1.1254    2.1797   -0.2986 H   0  0  0  0  0  0  0  0  0  0  0  0
   -1.2351    1.3607    1.2627 H   0  0  0  0  0  0  0  0  0  0  0  0
    1.0147    1.4966    1.1598 H   0  0  0  0  0  0  0  0  0  0  0  0
    1.0781    1.7931   -0.5779 H   0  0  0  0  0  0  0  0  0  0  0  0
    1.7163   -0.3201   -1.0360 H   0  0  0  0  0  0  0  0  0  0  0  0
    2.9068    0.2504    0.7996 H   0  0  0  0  0  0  0  0  0  0  0  0
    0.3038   -1.8071    1.1602 H   0  0  0  0  0  0  0  0  0  0  0  0
    0.7222   -2.2869   -0.4934 H   0  0  0  0  0  0  0  0  0  0  0  0
  1  2  2  0
  2  3  1  0
  3  4  1  0
  4  5  1  0
  5  6  1  0
  6  7  1  0
  6  8  1  0
  8  2  1  0
  3  9  1  0
  3 10  1  0
  4 11  1  0
  4 12  1  0
  5 13  1  0
  5 14  1  0
  6 15  1  0
  7 16  1  0
  8 17  1  0
  8 18  1  0
M  END
