
     RDKit          3D

 17 18  0  0  0  0  0  0  0  0999 V2000
   -0.6297    1.9627   -1.4583 O   0  0  0  0  0  0  0  0  0  0  0  0
    0.0513    1.1197   -0.8225 C   0  0  0  0  0  0  0  0  0  0  0  0
    1.4408    1.1645   -0.7686 O   0  0  0  0  0  0  0  0  0  0  0  0
    2.2456    0.2091   -0.1526 C   0  0  0  0  0  0  0  0  0  0  0  0
    1.6133   -0.8884    0.3326 O   0  0  0  0  0  0  0  0  0  0  0  0
    0.3847   -1.1720   -0.1815 C   0  0  0  0  0  0  0  0  0  0  0  0
   -0.5539   -0.0075   -0.0655 C   0  0  0  0  0  0  0  0  0  0  0  0
   -1.2419    0.3456    1.1775 C   0  0  0  0  0  0  0  0  0  0  0  0
   -2.0039   -0.2108    0.0105 C   0  0  0  0  0  0  0  0  0  0  0  0
    3.0482   -0.0676   -0.8977 H   0  0  0  0  0  0  0  0  0  0  0  0
    2.7722    0.7102    0.7128 H   0  0  0  0  0  0  0  0  0  0  0  0
   -0.0334   -2.0441    0.3596 H   0  0  0  0  0  0  0  0  0  0  0  0
    0.4436   -1.4300   -1.2721 H   0  0  0  0  0  0  0  0  0  0  0  0
   -1.0593   -0.2479    2.0799 H   0  0  0  0  0  0  0  0  0  0  0  0
   -1.4680    1.4370    1.3592 H   0  0  0  0  0  0  0  0  0  0  0  0
   -2.3231   -1.2837    0.1611 H   0  0  0  0  0  0  0  0  0  0  0  0
   -2.6865    0.4032   -0.5745 H   0  0  0  0  0  0  0  0  0  0  0  0
  1  2  2  0
  2  3  1  0
  3  4  1  0
  4  5  1  0
  5  6  1  0
  6  7  1  0
  7  8  1  0
  8  9  1  0
  7  2  1  0
  9  7  1  0
  4 10  1  0
  4 11  1  0
  6 12  1  0
  6 13  1  0
  8 14  1  0
  8 15  1  0
  9 16  1  0
  9 17  1  0
M  END
