
     RDKit          3D

 16 16  0  0  0  0  0  0  0  0999 V2000
   -1.5884    1.9681   -0.6347 O   0  0  0  0  0  0  0  0  0  0  0  0
   -0.9170    1.0673   -0.2307 C   0  0  0  0  0  0  0  0  0  0  0  0
    0.4202    1.1875    0.3659 C   0  0  0  0  0  0  0  0  0  0  0  0
    1.1378    0.0222   -0.3144 C   0  0  0  0  0  0  0  0  0  0  0  0
    2.1802   -0.4256    0.4580 O   0  0  0  0  0  0  0  0  0  0  0  0
    0.0848   -1.0037   -0.5875 C   0  0  0  0  0  0  0  0  0  0  0  0
   -1.2561   -0.3619   -0.2300 C   0  0  0  0  0  0  0  0  0  0  0  0
   -1.7011   -0.8169    1.0087 O   0  0  0  0  0  0  0  0  0  0  0  0
    0.4248    1.0744    1.4655 H   0  0  0  0  0  0  0  0  0  0  0  0
    0.9204    2.1512    0.1486 H   0  0  0  0  0  0  0  0  0  0  0  0
    1.5735    0.4499   -1.2484 H   0  0  0  0  0  0  0  0  0  0  0  0
    1.9975   -1.3641    0.7088 H   0  0  0  0  0  0  0  0  0  0  0  0
    0.2252   -1.9189    0.0149 H   0  0  0  0  0  0  0  0  0  0  0  0
    0.0574   -1.2300   -1.6844 H   0  0  0  0  0  0  0  0  0  0  0  0
   -2.0281   -0.6348   -0.9749 H   0  0  0  0  0  0  0  0  0  0  0  0
   -1.5312   -0.1648    1.7347 H   0  0  0  0  0  0  0  0  0  0  0  0
  1  2  2  0
  2  3  1  0
  3  4  1  0
  4  5  1  0
  4  6  1  0
  6  7  1  0
  7  8  1  0
  7  2  1  0
  3  9  1  0
  3 10  1  0
  4 11  1  0
  5 12  1  0
  6 13  1  0
  6 14  1  0
  7 15  1  0
  8 16  1  0
M  END
