
     RDKit          3D

 17 18  0  0  0  0  0  0  0  0999 V2000
   -0.1740    2.1859    0.6691 O   0  0  0  0  0  0  0  0  0  0  0  0
   -0.5329    1.0418    0.3889 C   0  0  0  0  0  0  0  0  0  0  0  0
   -1.6914    0.1830    0.8392 C   0  0  0  0  0  0  0  0  0  0  0  0
   -1.5000   -0.5810   -0.4806 C   0  0  0  0  0  0  0  0  0  0  0  0
   -0.1110   -0.0610   -0.4515 C   0  0  0  0  0  0  0  0  0  0  0  0
    1.0754   -0.8499   -0.1782 C   0  0  0  0  0  0  0  0  0  0  0  0
    2.1193   -0.3870    0.6276 O   0  0  0  0  0  0  0  0  0  0  0  0
    0.8541   -0.0800   -1.4992 C   0  0  0  0  0  0  0  0  0  0  0  0
    1.6706    1.0140   -1.7360 O   0  0  0  0  0  0  0  0  0  0  0  0
   -2.6467    0.7271    0.9094 H   0  0  0  0  0  0  0  0  0  0  0  0
   -1.4408   -0.4828    1.6909 H   0  0  0  0  0  0  0  0  0  0  0  0
   -1.6084   -1.6596   -0.4081 H   0  0  0  0  0  0  0  0  0  0  0  0
   -2.1968   -0.1335   -1.2267 H   0  0  0  0  0  0  0  0  0  0  0  0
    1.0257   -1.9526   -0.2185 H   0  0  0  0  0  0  0  0  0  0  0  0
    2.7404    0.2007    0.1670 H   0  0  0  0  0  0  0  0  0  0  0  0
    0.7145   -0.7543   -2.3751 H   0  0  0  0  0  0  0  0  0  0  0  0
    1.7020    1.5892   -0.9220 H   0  0  0  0  0  0  0  0  0  0  0  0
  1  2  2  0
  2  3  1  0
  3  4  1  0
  4  5  1  0
  5  6  1  0
  6  7  1  0
  6  8  1  0
  8  9  1  0
  5  2  1  0
  8  5  1  0
  3 10  1  0
  3 11  1  0
  4 12  1  0
  4 13  1  0
  6 14  1  0
  7 15  1  0
  8 16  1  0
  9 17  1  0
M  END
