
     RDKit          3D

 15 16  0  0  0  0  0  0  0  0999 V2000
   -0.2827    2.1114    1.2951 O   0  0  0  0  0  0  0  0  0  0  0  0
   -0.4436    1.0298    0.6747 C   0  0  0  0  0  0  0  0  0  0  0  0
   -1.6556    0.5471    0.0223 C   0  0  0  0  0  0  0  0  0  0  0  0
   -1.4157   -0.5630   -0.6470 C   0  0  0  0  0  0  0  0  0  0  0  0
   -0.0158   -0.9736   -0.5346 C   0  0  0  0  0  0  0  0  0  0  0  0
    0.8265   -0.4844   -1.5406 O   0  0  0  0  0  0  0  0  0  0  0  0
    1.5088    0.3254   -0.6397 C   0  0  0  0  0  0  0  0  0  0  0  0
    0.5662   -0.0231    0.4552 C   0  0  0  0  0  0  0  0  0  0  0  0
    1.1005   -0.5982    1.5873 O   0  0  0  0  0  0  0  0  0  0  0  0
   -2.6403    1.0249    0.0683 H   0  0  0  0  0  0  0  0  0  0  0  0
   -2.1678   -1.1099   -1.2158 H   0  0  0  0  0  0  0  0  0  0  0  0
    0.1943   -2.0379   -0.3722 H   0  0  0  0  0  0  0  0  0  0  0  0
    1.4731    1.3893   -0.9692 H   0  0  0  0  0  0  0  0  0  0  0  0
    2.5632    0.0430   -0.4489 H   0  0  0  0  0  0  0  0  0  0  0  0
    0.3891   -0.6808    2.2649 H   0  0  0  0  0  0  0  0  0  0  0  0
  1  2  2  0
  2  3  1  0
  3  4  2  0
  4  5  1  0
  5  6  1  0
  6  7  1  0
  7  8  1  0
  8  9  1  0
  8  2  1  0
  8  5  1  0
  3 10  1  0
  4 11  1  0
  5 12  1  0
  7 13  1  0
  7 14  1  0
  9 15  1  0
M  END
