
     RDKit          3D

 15 15  0  0  0  0  0  0  0  0999 V2000
    0.9605   -2.5540   -0.3278 O   0  0  0  0  0  0  0  0  0  0  0  0
    0.7290   -1.3832    0.0330 C   0  0  0  0  0  0  0  0  0  0  0  0
    1.7491   -0.3542    0.0316 C   0  0  0  0  0  0  0  0  0  0  0  0
    1.4175    0.9414    0.0224 C   0  0  0  0  0  0  0  0  0  0  0  0
    0.0032    1.3060    0.0135 C   0  0  0  0  0  0  0  0  0  0  0  0
   -0.3948    2.4731    0.2519 O   0  0  0  0  0  0  0  0  0  0  0  0
   -0.9993    0.2510   -0.2898 C   0  0  0  0  0  0  0  0  0  0  0  0
   -2.2862    0.6850   -0.0017 O   0  0  0  0  0  0  0  0  0  0  0  0
   -0.6222   -0.9901    0.4855 C   0  0  0  0  0  0  0  0  0  0  0  0
    2.8124   -0.6344    0.0383 H   0  0  0  0  0  0  0  0  0  0  0  0
    2.1686    1.7028    0.0213 H   0  0  0  0  0  0  0  0  0  0  0  0
   -0.8973    0.0059   -1.3773 H   0  0  0  0  0  0  0  0  0  0  0  0
   -2.6560    1.0394   -0.8678 H   0  0  0  0  0  0  0  0  0  0  0  0
   -1.3661   -1.7978    0.3940 H   0  0  0  0  0  0  0  0  0  0  0  0
   -0.6184   -0.6910    1.5730 H   0  0  0  0  0  0  0  0  0  0  0  0
  1  2  2  0
  2  3  1  0
  3  4  2  0
  4  5  1  0
  5  6  2  0
  5  7  1  0
  7  8  1  0
  7  9  1  0
  9  2  1  0
  3 10  1  0
  4 11  1  0
  7 12  1  0
  8 13  1  0
  9 14  1  0
  9 15  1  0
M  END
