
     RDKit          3D

 21 22  0  0  0  0  0  0  0  0999 V2000
   -1.7355   -1.8254    1.6065 O   0  0  0  0  0  0  0  0  0  0  0  0
   -1.7475   -0.9396    0.7914 C   0  0  0  0  0  0  0  0  0  0  0  0
   -1.7450   -0.8881   -0.6984 C   0  0  0  0  0  0  0  0  0  0  0  0
   -1.2642    0.5301   -0.5781 C   0  0  0  0  0  0  0  0  0  0  0  0
    0.1816    0.7821   -0.6640 C   0  0  0  0  0  0  0  0  0  0  0  0
    1.0591    0.1298    0.3398 C   0  0  0  0  0  0  0  0  0  0  0  0
    2.5448    0.4668    0.1483 C   0  0  0  0  0  0  0  0  0  0  0  0
    2.0381   -0.9210   -0.0090 C   0  0  0  0  0  0  0  0  0  0  0  0
   -1.7704    0.5323    0.8406 C   0  0  0  0  0  0  0  0  0  0  0  0
   -2.7965   -0.9101   -1.0554 H   0  0  0  0  0  0  0  0  0  0  0  0
   -1.0603   -1.5975   -1.1951 H   0  0  0  0  0  0  0  0  0  0  0  0
   -1.8186    1.2090   -1.2747 H   0  0  0  0  0  0  0  0  0  0  0  0
    0.3339    1.8964   -0.5382 H   0  0  0  0  0  0  0  0  0  0  0  0
    0.5565    0.5884   -1.7091 H   0  0  0  0  0  0  0  0  0  0  0  0
    0.7516    0.2251    1.4009 H   0  0  0  0  0  0  0  0  0  0  0  0
    2.8588    0.9594   -0.7859 H   0  0  0  0  0  0  0  0  0  0  0  0
    3.1425    0.7678    1.0223 H   0  0  0  0  0  0  0  0  0  0  0  0
    2.3151   -1.6147    0.8094 H   0  0  0  0  0  0  0  0  0  0  0  0
    2.0428   -1.3808   -1.0096 H   0  0  0  0  0  0  0  0  0  0  0  0
   -1.1108    0.9939    1.5953 H   0  0  0  0  0  0  0  0  0  0  0  0
   -2.7761    0.9963    0.9177 H   0  0  0  0  0  0  0  0  0  0  0  0
  1  2  2  0
  2  3  1  0
  3  4  1  0
  4  5  1  0
  5  6  1  0
  6  7  1  0
  7  8  1  0
  4  9  1  0
  9  2  1  0
  8  6  1  0
  3 10  1  0
  3 11  1  0
  4 12  1  0
  5 13  1  0
  5 14  1  0
  6 15  1  0
  7 16  1  0
  7 17  1  0
  8 18  1  0
  8 19  1  0
  9 20  1  0
  9 21  1  0
M  END
