
     RDKit          3D

 17 19  0  0  0  0  0  0  0  0999 V2000
   -2.0626   -0.3821    2.1061 O   0  0  0  0  0  0  0  0  0  0  0  0
   -1.4474   -0.3554    1.1170 C   0  0  0  0  0  0  0  0  0  0  0  0
   -1.8010    0.5710   -0.0855 C   0  0  0  0  0  0  0  0  0  0  0  0
   -0.3856    0.9477   -0.2186 C   0  0  0  0  0  0  0  0  0  0  0  0
    0.7756    1.4497   -0.3558 C   0  0  0  0  0  0  0  0  0  0  0  0
    1.8621    0.3980   -0.2273 C   0  0  0  0  0  0  0  0  0  0  0  0
    1.0785   -0.8030    0.2879 C   0  0  0  0  0  0  0  0  0  0  0  0
   -0.2510   -1.1012    0.6933 C   0  0  0  0  0  0  0  0  0  0  0  0
   -0.0162   -0.5986   -0.6468 C   0  0  0  0  0  0  0  0  0  0  0  0
   -2.4416    1.3872    0.2843 H   0  0  0  0  0  0  0  0  0  0  0  0
   -2.2053   -0.0442   -0.8676 H   0  0  0  0  0  0  0  0  0  0  0  0
    0.9998    2.4818   -0.5391 H   0  0  0  0  0  0  0  0  0  0  0  0
    2.6835    0.7034    0.4113 H   0  0  0  0  0  0  0  0  0  0  0  0
    2.1731    0.1593   -1.2611 H   0  0  0  0  0  0  0  0  0  0  0  0
    1.7521   -1.7136    0.1567 H   0  0  0  0  0  0  0  0  0  0  0  0
   -0.4674   -2.2320    0.7473 H   0  0  0  0  0  0  0  0  0  0  0  0
   -0.2467   -0.8682   -1.6020 H   0  0  0  0  0  0  0  0  0  0  0  0
  1  2  2  0
  2  3  1  0
  3  4  1  0
  4  5  2  0
  5  6  1  0
  6  7  1  0
  7  8  1  0
  8  9  1  0
  8  2  1  0
  9  4  1  0
  9  7  1  0
  3 10  1  0
  3 11  1  0
  5 12  1  0
  6 13  1  0
  6 14  1  0
  7 15  1  0
  8 16  1  0
  9 17  1  0
M  END
