
     RDKit          3D

 15 16  0  0  0  0  0  0  0  0999 V2000
    0.2518    2.8554   -0.4377 O   0  0  0  0  0  0  0  0  0  0  0  0
    0.4986    1.6943   -0.0888 C   0  0  0  0  0  0  0  0  0  0  0  0
    1.7799    1.1342   -0.1158 O   0  0  0  0  0  0  0  0  0  0  0  0
    1.7018   -0.2584   -0.3168 C   0  0  0  0  0  0  0  0  0  0  0  0
    0.3100   -0.6216    0.0356 C   0  0  0  0  0  0  0  0  0  0  0  0
   -0.4619   -1.0131   -1.0803 O   0  0  0  0  0  0  0  0  0  0  0  0
   -1.7382   -0.7581   -0.5252 C   0  0  0  0  0  0  0  0  0  0  0  0
   -1.6251    0.6244   -0.3024 O   0  0  0  0  0  0  0  0  0  0  0  0
   -0.4183    0.6683    0.4102 C   0  0  0  0  0  0  0  0  0  0  0  0
    2.3870   -0.7530    0.4274 H   0  0  0  0  0  0  0  0  0  0  0  0
    2.0099   -0.5860   -1.3131 H   0  0  0  0  0  0  0  0  0  0  0  0
    0.1947   -1.3920    0.8043 H   0  0  0  0  0  0  0  0  0  0  0  0
   -1.7834   -1.2236    0.4848 H   0  0  0  0  0  0  0  0  0  0  0  0
   -2.5483   -1.0283   -1.1898 H   0  0  0  0  0  0  0  0  0  0  0  0
   -0.5584    0.6575    1.4895 H   0  0  0  0  0  0  0  0  0  0  0  0
  1  2  2  0
  2  3  1  0
  3  4  1  0
  4  5  1  0
  5  6  1  0
  6  7  1  0
  7  8  1  0
  8  9  1  0
  9  2  1  0
  9  5  1  0
  4 10  1  0
  4 11  1  0
  5 12  1  0
  7 13  1  0
  7 14  1  0
  9 15  1  0
M  END
