
     RDKit          3D

 16 17  0  0  0  0  0  0  0  0999 V2000
    1.4995    0.0963   -2.0750 O   0  0  0  0  0  0  0  0  0  0  0  0
    0.9448    0.0132   -1.0222 C   0  0  0  0  0  0  0  0  0  0  0  0
    1.6822   -0.1199    0.2407 C   0  0  0  0  0  0  0  0  0  0  0  0
    0.8578   -0.2190    1.3514 O   0  0  0  0  0  0  0  0  0  0  0  0
   -0.4685   -0.0432    1.1160 C   0  0  0  0  0  0  0  0  0  0  0  0
   -0.8201    1.0737    0.1595 C   0  0  0  0  0  0  0  0  0  0  0  0
   -0.5326    0.0417   -0.9509 C   0  0  0  0  0  0  0  0  0  0  0  0
   -1.0452   -0.9801    0.0498 C   0  0  0  0  0  0  0  0  0  0  0  0
    2.3798   -0.9815    0.1461 H   0  0  0  0  0  0  0  0  0  0  0  0
    2.3558    0.7656    0.4400 H   0  0  0  0  0  0  0  0  0  0  0  0
   -1.0403   -0.0558    2.0600 H   0  0  0  0  0  0  0  0  0  0  0  0
   -1.8841    1.2943    0.1581 H   0  0  0  0  0  0  0  0  0  0  0  0
   -0.1189    1.9099    0.1251 H   0  0  0  0  0  0  0  0  0  0  0  0
   -1.0937    0.1707   -1.8607 H   0  0  0  0  0  0  0  0  0  0  0  0
   -0.5841   -1.9680    0.0045 H   0  0  0  0  0  0  0  0  0  0  0  0
   -2.1324   -0.9979    0.0577 H   0  0  0  0  0  0  0  0  0  0  0  0
  1  2  2  0
  2  3  1  0
  3  4  1  0
  4  5  1  0
  5  6  1  0
  6  7  1  0
  7  8  1  0
  7  2  1  0
  8  5  1  0
  3  9  1  0
  3 10  1  0
  5 11  1  0
  6 12  1  0
  6 13  1  0
  7 14  1  0
  8 15  1  0
  8 16  1  0
M  END
