
     RDKit          3D

 19 19  0  0  0  0  0  0  0  0999 V2000
    0.5685   -2.3920   -1.0258 O   0  0  0  0  0  0  0  0  0  0  0  0
    0.4454   -1.4709   -0.2523 C   0  0  0  0  0  0  0  0  0  0  0  0
    1.7305   -0.8132    0.1001 C   0  0  0  0  0  0  0  0  0  0  0  0
    1.5858    0.6307   -0.3064 C   0  0  0  0  0  0  0  0  0  0  0  0
    0.6288    1.5076   -0.0131 C   0  0  0  0  0  0  0  0  0  0  0  0
   -0.6410    1.4881    0.7828 C   0  0  0  0  0  0  0  0  0  0  0  0
   -1.7258    1.0781    0.0715 O   0  0  0  0  0  0  0  0  0  0  0  0
   -1.6002   -0.1019   -0.6025 C   0  0  0  0  0  0  0  0  0  0  0  0
   -0.9570   -1.2102    0.1657 C   0  0  0  0  0  0  0  0  0  0  0  0
    2.5988   -1.2811   -0.3489 H   0  0  0  0  0  0  0  0  0  0  0  0
    1.7828   -0.7840    1.2276 H   0  0  0  0  0  0  0  0  0  0  0  0
    2.3874    1.0041   -0.9331 H   0  0  0  0  0  0  0  0  0  0  0  0
    0.8138    2.4974   -0.4684 H   0  0  0  0  0  0  0  0  0  0  0  0
   -0.5304    0.8937    1.7051 H   0  0  0  0  0  0  0  0  0  0  0  0
   -0.8203    2.5406    1.1135 H   0  0  0  0  0  0  0  0  0  0  0  0
   -2.6437   -0.4412   -0.8741 H   0  0  0  0  0  0  0  0  0  0  0  0
   -1.1094    0.0757   -1.6008 H   0  0  0  0  0  0  0  0  0  0  0  0
   -1.0044   -1.0394    1.2579 H   0  0  0  0  0  0  0  0  0  0  0  0
   -1.5096   -2.1822    0.0013 H   0  0  0  0  0  0  0  0  0  0  0  0
  1  2  2  0
  2  3  1  0
  3  4  1  0
  4  5  2  3
  5  6  1  0
  6  7  1  0
  7  8  1  0
  8  9  1  0
  9  2  1  0
  3 10  1  0
  3 11  1  0
  4 12  1  0
  5 13  1  0
  6 14  1  0
  6 15  1  0
  8 16  1  0
  8 17  1  0
  9 18  1  0
  9 19  1  0
M  END
