
     RDKit          3D

 19 19  0  0  0  0  0  0  0  0999 V2000
   -2.7088    2.1319   -0.6506 O   0  0  0  0  0  0  0  0  0  0  0  0
   -1.9650    1.2332   -0.1874 C   0  0  0  0  0  0  0  0  0  0  0  0
   -0.6278    1.3381    0.3763 C   0  0  0  0  0  0  0  0  0  0  0  0
   -0.0246    0.1702    0.3925 C   0  0  0  0  0  0  0  0  0  0  0  0
    1.3545   -0.1412    0.8922 C   0  0  0  0  0  0  0  0  0  0  0  0
    2.1794   -0.7096   -0.2378 C   0  0  0  0  0  0  0  0  0  0  0  0
    2.2973    0.1685   -1.3001 O   0  0  0  0  0  0  0  0  0  0  0  0
   -0.9367   -0.8400   -0.1827 C   0  0  0  0  0  0  0  0  0  0  0  0
   -2.3025   -0.2026   -0.1092 C   0  0  0  0  0  0  0  0  0  0  0  0
   -0.1619    2.2528    0.7446 H   0  0  0  0  0  0  0  0  0  0  0  0
    1.8656    0.7315    1.2953 H   0  0  0  0  0  0  0  0  0  0  0  0
    1.2872   -0.9105    1.6846 H   0  0  0  0  0  0  0  0  0  0  0  0
    3.2047   -0.8992    0.1607 H   0  0  0  0  0  0  0  0  0  0  0  0
    1.7898   -1.6979   -0.5644 H   0  0  0  0  0  0  0  0  0  0  0  0
    2.1686    1.1242   -1.0112 H   0  0  0  0  0  0  0  0  0  0  0  0
   -0.7320   -1.0352   -1.2550 H   0  0  0  0  0  0  0  0  0  0  0  0
   -0.9210   -1.7804    0.4026 H   0  0  0  0  0  0  0  0  0  0  0  0
   -2.9312   -0.4538   -0.9988 H   0  0  0  0  0  0  0  0  0  0  0  0
   -2.8355   -0.4802    0.8214 H   0  0  0  0  0  0  0  0  0  0  0  0
  1  2  2  0
  2  3  1  0
  3  4  2  0
  4  5  1  0
  5  6  1  0
  6  7  1  0
  4  8  1  0
  8  9  1  0
  9  2  1  0
  3 10  1  0
  5 11  1  0
  5 12  1  0
  6 13  1  0
  6 14  1  0
  7 15  1  0
  8 16  1  0
  8 17  1  0
  9 18  1  0
  9 19  1  0
M  END
