
     RDKit          3D

 13 14  0  0  0  0  0  0  0  0999 V2000
   -1.7930    0.9455   -1.7191 O   0  0  0  0  0  0  0  0  0  0  0  0
   -1.0205    0.4499   -0.9438 C   0  0  0  0  0  0  0  0  0  0  0  0
   -0.1386   -0.6719   -0.7036 C   0  0  0  0  0  0  0  0  0  0  0  0
   -0.6887   -0.6821    0.7017 C   0  0  0  0  0  0  0  0  0  0  0  0
   -0.4799    0.7714    0.3744 C   0  0  0  0  0  0  0  0  0  0  0  0
    0.8491    0.3403   -0.1721 C   0  0  0  0  0  0  0  0  0  0  0  0
    1.6640   -0.2024    0.7998 O   0  0  0  0  0  0  0  0  0  0  0  0
    0.0747   -1.4710   -1.2657 H   0  0  0  0  0  0  0  0  0  0  0  0
   -1.7460   -0.9168    0.7923 H   0  0  0  0  0  0  0  0  0  0  0  0
    0.0191   -1.1417    1.3986 H   0  0  0  0  0  0  0  0  0  0  0  0
   -0.6724    1.5547    0.9659 H   0  0  0  0  0  0  0  0  0  0  0  0
    1.3075    0.9710   -0.9310 H   0  0  0  0  0  0  0  0  0  0  0  0
    2.6246    0.0531    0.7028 H   0  0  0  0  0  0  0  0  0  0  0  0
  1  2  2  0
  2  3  1  0
  3  4  1  0
  4  5  1  0
  5  6  1  0
  6  7  1  0
  5  2  1  0
  6  3  1  0
  3  8  1  0
  4  9  1  0
  4 10  1  0
  5 11  1  0
  6 12  1  0
  7 13  1  0
M  END
