
     RDKit          3D

 17 18  0  0  0  0  0  0  0  0999 V2000
   -1.7151    2.5382   -0.6592 O   0  0  0  0  0  0  0  0  0  0  0  0
   -1.2680    1.4392   -0.4023 C   0  0  0  0  0  0  0  0  0  0  0  0
   -1.5006    0.2991    0.5144 C   0  0  0  0  0  0  0  0  0  0  0  0
   -0.6557   -0.5520   -0.4240 C   0  0  0  0  0  0  0  0  0  0  0  0
    0.3584   -1.4258    0.2478 C   0  0  0  0  0  0  0  0  0  0  0  0
    1.5931   -1.1483   -0.3844 O   0  0  0  0  0  0  0  0  0  0  0  0
    1.8943    0.1692    0.0092 C   0  0  0  0  0  0  0  0  0  0  0  0
    1.1005    1.1003   -0.5808 O   0  0  0  0  0  0  0  0  0  0  0  0
   -0.1161    0.6919   -1.0190 C   0  0  0  0  0  0  0  0  0  0  0  0
   -2.5512   -0.0709    0.5529 H   0  0  0  0  0  0  0  0  0  0  0  0
   -1.0108    0.4764    1.4750 H   0  0  0  0  0  0  0  0  0  0  0  0
   -1.2467   -1.1333   -1.1579 H   0  0  0  0  0  0  0  0  0  0  0  0
    0.1038   -2.4867    0.1914 H   0  0  0  0  0  0  0  0  0  0  0  0
    0.4873   -1.1469    1.3168 H   0  0  0  0  0  0  0  0  0  0  0  0
    1.7289    0.1978    1.1054 H   0  0  0  0  0  0  0  0  0  0  0  0
    2.9668    0.3373   -0.2156 H   0  0  0  0  0  0  0  0  0  0  0  0
   -0.1690    0.7146   -2.1391 H   0  0  0  0  0  0  0  0  0  0  0  0
  1  2  2  0
  2  3  1  0
  3  4  1  0
  4  5  1  0
  5  6  1  0
  6  7  1  0
  7  8  1  0
  8  9  1  0
  9  2  1  0
  9  4  1  0
  3 10  1  0
  3 11  1  0
  4 12  1  0
  5 13  1  0
  5 14  1  0
  7 15  1  0
  7 16  1  0
  9 17  1  0
M  END
