
     RDKit          3D

 17 18  0  0  0  0  0  0  0  0999 V2000
   -0.1980    2.0431    1.1321 O   0  0  0  0  0  0  0  0  0  0  0  0
    0.4100    1.1117    0.5649 C   0  0  0  0  0  0  0  0  0  0  0  0
    1.8462    0.9107    0.5894 C   0  0  0  0  0  0  0  0  0  0  0  0
    2.1534   -0.1730   -0.0807 C   0  0  0  0  0  0  0  0  0  0  0  0
    0.9503   -0.8368   -0.6412 C   0  0  0  0  0  0  0  0  0  0  0  0
   -0.1976    0.0472   -0.2299 C   0  0  0  0  0  0  0  0  0  0  0  0
   -1.3085   -0.7280    0.4104 C   0  0  0  0  0  0  0  0  0  0  0  0
   -2.1142    0.3024   -0.3084 C   0  0  0  0  0  0  0  0  0  0  0  0
   -1.0595    0.4328   -1.2387 O   0  0  0  0  0  0  0  0  0  0  0  0
    2.6128    1.5362    1.0781 H   0  0  0  0  0  0  0  0  0  0  0  0
    3.1710   -0.5602   -0.2222 H   0  0  0  0  0  0  0  0  0  0  0  0
    1.0108   -0.9649   -1.7291 H   0  0  0  0  0  0  0  0  0  0  0  0
    0.8701   -1.8332   -0.1347 H   0  0  0  0  0  0  0  0  0  0  0  0
   -1.3490   -0.7376    1.5035 H   0  0  0  0  0  0  0  0  0  0  0  0
   -1.4457   -1.7263   -0.0762 H   0  0  0  0  0  0  0  0  0  0  0  0
   -2.3054    1.2480    0.1913 H   0  0  0  0  0  0  0  0  0  0  0  0
   -3.0466   -0.0721   -0.8087 H   0  0  0  0  0  0  0  0  0  0  0  0
  1  2  2  0
  2  3  1  0
  3  4  2  0
  4  5  1  0
  5  6  1  0
  6  7  1  0
  7  8  1  0
  8  9  1  0
  6  2  1  0
  9  6  1  0
  3 10  1  0
  4 11  1  0
  5 12  1  0
  5 13  1  0
  7 14  1  0
  7 15  1  0
  8 16  1  0
  8 17  1  0
M  END
