
     RDKit          3D

 17 19  0  0  0  0  0  0  0  0999 V2000
    2.6883   -0.4882   -0.1846 O   0  0  0  0  0  0  0  0  0  0  0  0
    1.5550   -0.2289    0.1221 C   0  0  0  0  0  0  0  0  0  0  0  0
    0.6214   -1.2270    0.7584 C   0  0  0  0  0  0  0  0  0  0  0  0
   -0.5501   -1.3653   -0.1775 C   0  0  0  0  0  0  0  0  0  0  0  0
   -1.2039   -0.0416   -0.3544 C   0  0  0  0  0  0  0  0  0  0  0  0
   -0.9601    1.1260    0.4828 C   0  0  0  0  0  0  0  0  0  0  0  0
    0.2355    1.4876    1.0190 O   0  0  0  0  0  0  0  0  0  0  0  0
    0.9652    1.1320   -0.1064 C   0  0  0  0  0  0  0  0  0  0  0  0
   -0.3064    1.0164   -0.8646 C   0  0  0  0  0  0  0  0  0  0  0  0
    0.2399   -0.7409    1.6885 H   0  0  0  0  0  0  0  0  0  0  0  0
    1.1323   -2.1820    0.9678 H   0  0  0  0  0  0  0  0  0  0  0  0
   -0.1853   -1.7061   -1.1697 H   0  0  0  0  0  0  0  0  0  0  0  0
   -1.3212   -2.0727    0.2226 H   0  0  0  0  0  0  0  0  0  0  0  0
   -2.1973   -0.0880   -0.8591 H   0  0  0  0  0  0  0  0  0  0  0  0
   -1.7881    1.8398    0.6536 H   0  0  0  0  0  0  0  0  0  0  0  0
    1.6529    1.8726   -0.5098 H   0  0  0  0  0  0  0  0  0  0  0  0
   -0.5779    1.6661   -1.6887 H   0  0  0  0  0  0  0  0  0  0  0  0
  1  2  2  0
  2  3  1  0
  3  4  1  0
  4  5  1  0
  5  6  1  0
  6  7  1  0
  7  8  1  0
  8  9  1  0
  8  2  1  0
  9  5  1  0
  9  6  1  0
  3 10  1  0
  3 11  1  0
  4 12  1  0
  4 13  1  0
  5 14  1  0
  6 15  1  0
  8 16  1  0
  9 17  1  0
M  END
