
     RDKit          3D

 19 19  0  0  0  0  0  0  0  0999 V2000
    0.9389    2.2058    0.0078 O   0  0  0  0  0  0  0  0  0  0  0  0
    0.1649    1.2821   -0.3668 C   0  0  0  0  0  0  0  0  0  0  0  0
   -1.1828    1.4533   -0.5930 O   0  0  0  0  0  0  0  0  0  0  0  0
   -2.1781    0.5793   -0.0376 C   0  0  0  0  0  0  0  0  0  0  0  0
   -1.4149   -0.5292    0.6502 C   0  0  0  0  0  0  0  0  0  0  0  0
   -0.4027   -1.0598   -0.3690 C   0  0  0  0  0  0  0  0  0  0  0  0
    0.7190   -0.0801   -0.5830 C   0  0  0  0  0  0  0  0  0  0  0  0
    1.9162   -0.3419    0.2778 C   0  0  0  0  0  0  0  0  0  0  0  0
    2.8870    0.6038   -0.0487 O   0  0  0  0  0  0  0  0  0  0  0  0
   -2.7370    0.1417   -0.8897 H   0  0  0  0  0  0  0  0  0  0  0  0
   -2.8327    1.1271    0.6553 H   0  0  0  0  0  0  0  0  0  0  0  0
   -2.1407   -1.3410    0.8333 H   0  0  0  0  0  0  0  0  0  0  0  0
   -0.8680   -0.1895    1.5289 H   0  0  0  0  0  0  0  0  0  0  0  0
   -0.9872   -1.1504   -1.3177 H   0  0  0  0  0  0  0  0  0  0  0  0
   -0.0624   -2.0718   -0.1162 H   0  0  0  0  0  0  0  0  0  0  0  0
    1.0546   -0.1205   -1.6415 H   0  0  0  0  0  0  0  0  0  0  0  0
    1.7092   -0.3951    1.3453 H   0  0  0  0  0  0  0  0  0  0  0  0
    2.3328   -1.3323   -0.0314 H   0  0  0  0  0  0  0  0  0  0  0  0
    3.0838    1.2185    0.6959 H   0  0  0  0  0  0  0  0  0  0  0  0
  1  2  2  0
  2  3  1  0
  3  4  1  0
  4  5  1  0
  5  6  1  0
  6  7  1  0
  7  8  1  0
  8  9  1  0
  7  2  1  0
  4 10  1  0
  4 11  1  0
  5 12  1  0
  5 13  1  0
  6 14  1  0
  6 15  1  0
  7 16  1  0
  8 17  1  0
  8 18  1  0
  9 19  1  0
M  END
