
     RDKit          3D

 17 18  0  0  0  0  0  0  0  0999 V2000
   -2.8904   -0.6395    1.7964 O   0  0  0  0  0  0  0  0  0  0  0  0
   -2.0386   -0.2137    0.9854 C   0  0  0  0  0  0  0  0  0  0  0  0
   -0.6605   -0.6925    0.7624 C   0  0  0  0  0  0  0  0  0  0  0  0
   -0.0190    0.5150    0.1051 C   0  0  0  0  0  0  0  0  0  0  0  0
    1.1917    0.1515   -0.7109 C   0  0  0  0  0  0  0  0  0  0  0  0
    2.3065   -0.4816   -0.0558 C   0  0  0  0  0  0  0  0  0  0  0  0
    1.4211   -1.1556   -1.0733 O   0  0  0  0  0  0  0  0  0  0  0  0
   -1.1560    1.0455   -0.7232 C   0  0  0  0  0  0  0  0  0  0  0  0
   -2.2772    0.8403    0.1184 O   0  0  0  0  0  0  0  0  0  0  0  0
   -0.1499   -1.0152    1.6652 H   0  0  0  0  0  0  0  0  0  0  0  0
   -0.7157   -1.4964   -0.0201 H   0  0  0  0  0  0  0  0  0  0  0  0
    0.2827    1.2292    0.9127 H   0  0  0  0  0  0  0  0  0  0  0  0
    1.4270    0.9282   -1.4966 H   0  0  0  0  0  0  0  0  0  0  0  0
    3.3277   -0.4194   -0.4605 H   0  0  0  0  0  0  0  0  0  0  0  0
    2.1984   -1.0700    0.8630 H   0  0  0  0  0  0  0  0  0  0  0  0
   -1.2089    0.3925   -1.6333 H   0  0  0  0  0  0  0  0  0  0  0  0
   -1.0388    2.0817   -1.0348 H   0  0  0  0  0  0  0  0  0  0  0  0
  1  2  2  0
  2  3  1  0
  3  4  1  0
  4  5  1  0
  5  6  1  0
  6  7  1  0
  4  8  1  0
  8  9  1  0
  9  2  1  0
  7  5  1  0
  3 10  1  0
  3 11  1  0
  4 12  1  0
  5 13  1  0
  6 14  1  0
  6 15  1  0
  8 16  1  0
  8 17  1  0
M  END
