
     RDKit          3D

 11 12  0  0  0  0  0  0  0  0999 V2000
   -2.3632   -0.9684   -0.2363 O   0  0  0  0  0  0  0  0  0  0  0  0
   -1.3594   -0.3499   -0.0904 C   0  0  0  0  0  0  0  0  0  0  0  0
   -0.2963   -0.0931    0.8688 C   0  0  0  0  0  0  0  0  0  0  0  0
   -0.3745    1.2273    0.4848 O   0  0  0  0  0  0  0  0  0  0  0  0
   -0.4771    0.5794   -0.7413 C   0  0  0  0  0  0  0  0  0  0  0  0
    0.6680   -0.2626   -0.2678 C   0  0  0  0  0  0  0  0  0  0  0  0
    1.8822    0.3781   -0.1506 O   0  0  0  0  0  0  0  0  0  0  0  0
   -0.1894   -0.4581    1.8012 H   0  0  0  0  0  0  0  0  0  0  0  0
   -0.5518    1.0357   -1.6387 H   0  0  0  0  0  0  0  0  0  0  0  0
    0.6952   -1.2811   -0.7173 H   0  0  0  0  0  0  0  0  0  0  0  0
    2.3662    0.1928    0.6875 H   0  0  0  0  0  0  0  0  0  0  0  0
  1  2  2  0
  2  3  1  0
  3  4  1  0
  4  5  1  0
  5  6  1  0
  6  7  1  0
  5  2  1  0
  6  3  1  0
  3  8  1  0
  5  9  1  0
  6 10  1  0
  7 11  1  0
M  END
