
     RDKit          3D

 17 17  0  0  0  0  0  0  0  0999 V2000
    1.8687    2.0902   -0.1263 O   0  0  0  0  0  0  0  0  0  0  0  0
    1.0398    1.1732    0.1315 C   0  0  0  0  0  0  0  0  0  0  0  0
    1.4694   -0.1985    0.5106 C   0  0  0  0  0  0  0  0  0  0  0  0
    0.6181   -1.2676   -0.1133 C   0  0  0  0  0  0  0  0  0  0  0  0
   -0.5177   -0.7088   -0.9413 C   0  0  0  0  0  0  0  0  0  0  0  0
   -1.2998    0.3277   -0.1238 C   0  0  0  0  0  0  0  0  0  0  0  0
   -1.6343   -0.2178    1.1127 O   0  0  0  0  0  0  0  0  0  0  0  0
   -0.3727    1.4561    0.0585 C   0  0  0  0  0  0  0  0  0  0  0  0
   -0.7968    2.6173    0.1465 O   0  0  0  0  0  0  0  0  0  0  0  0
    1.4008   -0.3150    1.6110 H   0  0  0  0  0  0  0  0  0  0  0  0
    2.5202   -0.3473    0.1486 H   0  0  0  0  0  0  0  0  0  0  0  0
    1.2177   -1.9102   -0.8231 H   0  0  0  0  0  0  0  0  0  0  0  0
    0.2087   -1.9899    0.6514 H   0  0  0  0  0  0  0  0  0  0  0  0
   -1.1658   -1.5018   -1.3035 H   0  0  0  0  0  0  0  0  0  0  0  0
   -0.0457   -0.1557   -1.8041 H   0  0  0  0  0  0  0  0  0  0  0  0
   -2.2193    0.5843   -0.6773 H   0  0  0  0  0  0  0  0  0  0  0  0
   -2.2914    0.3637    1.5420 H   0  0  0  0  0  0  0  0  0  0  0  0
  1  2  2  0
  2  3  1  0
  3  4  1  0
  4  5  1  0
  5  6  1  0
  6  7  1  0
  6  8  1  0
  8  9  2  0
  8  2  1  0
  3 10  1  0
  3 11  1  0
  4 12  1  0
  4 13  1  0
  5 14  1  0
  5 15  1  0
  6 16  1  0
  7 17  1  0
M  END
