
     RDKit          3D

 17 19  0  0  0  0  0  0  0  0999 V2000
    2.2565    1.4213    0.5918 O   0  0  0  0  0  0  0  0  0  0  0  0
    1.3561    0.7436    0.1887 C   0  0  0  0  0  0  0  0  0  0  0  0
    1.3154   -0.7394    0.3516 C   0  0  0  0  0  0  0  0  0  0  0  0
   -0.0403   -1.2903    0.1834 C   0  0  0  0  0  0  0  0  0  0  0  0
   -1.1903   -0.4379    0.3381 C   0  0  0  0  0  0  0  0  0  0  0  0
   -0.9835    1.0229    0.4774 C   0  0  0  0  0  0  0  0  0  0  0  0
    0.1487    1.2737   -0.5314 C   0  0  0  0  0  0  0  0  0  0  0  0
   -0.1163    0.3914   -1.5568 O   0  0  0  0  0  0  0  0  0  0  0  0
   -0.6846   -0.7382   -1.0260 C   0  0  0  0  0  0  0  0  0  0  0  0
    1.9499   -1.1293   -0.5001 H   0  0  0  0  0  0  0  0  0  0  0  0
    1.8103   -1.0734    1.2839 H   0  0  0  0  0  0  0  0  0  0  0  0
   -0.1544   -2.3673    0.3949 H   0  0  0  0  0  0  0  0  0  0  0  0
   -2.1518   -0.8591    0.6191 H   0  0  0  0  0  0  0  0  0  0  0  0
   -1.8808    1.6072    0.1997 H   0  0  0  0  0  0  0  0  0  0  0  0
   -0.6381    1.2747    1.4999 H   0  0  0  0  0  0  0  0  0  0  0  0
    0.2344    2.3102   -0.8190 H   0  0  0  0  0  0  0  0  0  0  0  0
   -1.2312   -1.4101   -1.6953 H   0  0  0  0  0  0  0  0  0  0  0  0
  1  2  2  0
  2  3  1  0
  3  4  1  0
  4  5  1  0
  5  6  1  0
  6  7  1  0
  7  8  1  0
  8  9  1  0
  7  2  1  0
  9  4  1  0
  9  5  1  0
  3 10  1  0
  3 11  1  0
  4 12  1  0
  5 13  1  0
  6 14  1  0
  6 15  1  0
  7 16  1  0
  9 17  1  0
M  END
