
     RDKit          3D

 15 17  0  0  0  0  0  0  0  0999 V2000
    2.7688    0.9797   -0.7010 O   0  0  0  0  0  0  0  0  0  0  0  0
    1.7335    0.3069   -0.5072 C   0  0  0  0  0  0  0  0  0  0  0  0
    1.2451   -0.8428   -1.1357 O   0  0  0  0  0  0  0  0  0  0  0  0
    0.0153   -1.0690   -0.4659 C   0  0  0  0  0  0  0  0  0  0  0  0
    0.4826   -0.8973    0.9951 C   0  0  0  0  0  0  0  0  0  0  0  0
    0.6663    0.5543    0.5065 C   0  0  0  0  0  0  0  0  0  0  0  0
   -0.5448    0.2856   -0.2854 C   0  0  0  0  0  0  0  0  0  0  0  0
   -1.6680    0.9146   -0.6165 C   0  0  0  0  0  0  0  0  0  0  0  0
   -1.7262    0.2213    0.6202 O   0  0  0  0  0  0  0  0  0  0  0  0
   -0.5692   -1.9150   -0.6944 H   0  0  0  0  0  0  0  0  0  0  0  0
   -0.3401   -0.9211    1.7098 H   0  0  0  0  0  0  0  0  0  0  0  0
    1.4087   -1.4136    1.2362 H   0  0  0  0  0  0  0  0  0  0  0  0
    0.7650    1.3129    1.2190 H   0  0  0  0  0  0  0  0  0  0  0  0
   -2.4193    0.4685   -1.3339 H   0  0  0  0  0  0  0  0  0  0  0  0
   -1.8176    2.0151   -0.5468 H   0  0  0  0  0  0  0  0  0  0  0  0
  1  2  2  0
  2  3  1  0
  3  4  1  0
  4  5  1  0
  5  6  1  0
  6  7  1  0
  7  8  1  0
  8  9  1  0
  6  2  1  0
  9  7  1  0
  7  4  1  0
  4 10  1  0
  5 11  1  0
  5 12  1  0
  6 13  1  0
  8 14  1  0
  8 15  1  0
M  END
