
     RDKit          3D

 17 18  0  0  0  0  0  0  0  0999 V2000
   -2.5027   -1.4844    0.7966 O   0  0  0  0  0  0  0  0  0  0  0  0
   -1.7014   -0.7339    0.3079 C   0  0  0  0  0  0  0  0  0  0  0  0
   -1.9161    0.3293   -0.6948 C   0  0  0  0  0  0  0  0  0  0  0  0
   -0.7731    1.1061   -0.7331 O   0  0  0  0  0  0  0  0  0  0  0  0
    0.0183    0.7940    0.3319 C   0  0  0  0  0  0  0  0  0  0  0  0
    1.4840    0.7814    0.0715 C   0  0  0  0  0  0  0  0  0  0  0  0
    1.7493   -0.6271   -0.3651 C   0  0  0  0  0  0  0  0  0  0  0  0
    0.5239   -1.2933   -0.3502 O   0  0  0  0  0  0  0  0  0  0  0  0
   -0.2561   -0.6927    0.6032 C   0  0  0  0  0  0  0  0  0  0  0  0
   -2.8057    0.9510   -0.4987 H   0  0  0  0  0  0  0  0  0  0  0  0
   -1.9885   -0.1857   -1.6917 H   0  0  0  0  0  0  0  0  0  0  0  0
   -0.2276    1.3713    1.2474 H   0  0  0  0  0  0  0  0  0  0  0  0
    1.8337    1.5410   -0.6472 H   0  0  0  0  0  0  0  0  0  0  0  0
    1.9923    0.9040    1.0732 H   0  0  0  0  0  0  0  0  0  0  0  0
    2.1519   -0.6149   -1.4099 H   0  0  0  0  0  0  0  0  0  0  0  0
    2.4240   -1.1855    0.3193 H   0  0  0  0  0  0  0  0  0  0  0  0
   -0.0062   -0.9606    1.6397 H   0  0  0  0  0  0  0  0  0  0  0  0
  1  2  2  0
  2  3  1  0
  3  4  1  0
  4  5  1  0
  5  6  1  0
  6  7  1  0
  7  8  1  0
  8  9  1  0
  9  2  1  0
  9  5  1  0
  3 10  1  0
  3 11  1  0
  5 12  1  0
  6 13  1  0
  6 14  1  0
  7 15  1  0
  7 16  1  0
  9 17  1  0
M  END
