
     RDKit          3D

 19 20  0  0  0  0  0  0  0  0999 V2000
    2.1212    0.6642   -2.0749 O   0  0  0  0  0  0  0  0  0  0  0  0
    1.4275    0.1022   -1.2097 C   0  0  0  0  0  0  0  0  0  0  0  0
    0.8029   -1.1218   -1.3539 O   0  0  0  0  0  0  0  0  0  0  0  0
    0.0479   -1.4096   -0.1634 C   0  0  0  0  0  0  0  0  0  0  0  0
   -1.3142   -0.7497   -0.2342 C   0  0  0  0  0  0  0  0  0  0  0  0
   -1.3520    0.5766    0.4766 C   0  0  0  0  0  0  0  0  0  0  0  0
   -0.1638    1.3987    0.0510 C   0  0  0  0  0  0  0  0  0  0  0  0
    1.1294    0.6230    0.1426 C   0  0  0  0  0  0  0  0  0  0  0  0
    0.9057   -0.7070    0.8800 C   0  0  0  0  0  0  0  0  0  0  0  0
    0.0049   -2.4861   -0.0392 H   0  0  0  0  0  0  0  0  0  0  0  0
   -1.5316   -0.5898   -1.3116 H   0  0  0  0  0  0  0  0  0  0  0  0
   -2.1133   -1.3847    0.1952 H   0  0  0  0  0  0  0  0  0  0  0  0
   -1.4303    0.4791    1.5696 H   0  0  0  0  0  0  0  0  0  0  0  0
   -2.2615    1.1233    0.1144 H   0  0  0  0  0  0  0  0  0  0  0  0
   -0.3569    1.7109   -1.0113 H   0  0  0  0  0  0  0  0  0  0  0  0
   -0.1017    2.3487    0.6315 H   0  0  0  0  0  0  0  0  0  0  0  0
    1.9232    1.2117    0.5864 H   0  0  0  0  0  0  0  0  0  0  0  0
    1.8669   -1.2173    0.9226 H   0  0  0  0  0  0  0  0  0  0  0  0
    0.3958   -0.5725    1.8281 H   0  0  0  0  0  0  0  0  0  0  0  0
  1  2  2  0
  2  3  1  0
  3  4  1  0
  4  5  1  0
  5  6  1  0
  6  7  1  0
  7  8  1  0
  8  9  1  0
  8  2  1  0
  9  4  1  0
  4 10  1  0
  5 11  1  0
  5 12  1  0
  6 13  1  0
  6 14  1  0
  7 15  1  0
  7 16  1  0
  8 17  1  0
  9 18  1  0
  9 19  1  0
M  END
