
     RDKit          3D

 17 17  0  0  0  0  0  0  0  0999 V2000
    0.8946   -1.7511    1.0711 O   0  0  0  0  0  0  0  0  0  0  0  0
    0.5029   -1.1084    0.1139 C   0  0  0  0  0  0  0  0  0  0  0  0
   -0.8627   -1.4682   -0.3421 C   0  0  0  0  0  0  0  0  0  0  0  0
   -1.8112   -0.3925    0.0472 C   0  0  0  0  0  0  0  0  0  0  0  0
   -1.5255    0.8759    0.2376 C   0  0  0  0  0  0  0  0  0  0  0  0
   -0.3273    1.6659    0.1609 C   0  0  0  0  0  0  0  0  0  0  0  0
    0.8892    1.2556   -0.1238 C   0  0  0  0  0  0  0  0  0  0  0  0
    1.4157   -0.0876   -0.4459 C   0  0  0  0  0  0  0  0  0  0  0  0
    2.6798   -0.1896    0.1236 O   0  0  0  0  0  0  0  0  0  0  0  0
   -1.1978   -2.4201    0.1203 H   0  0  0  0  0  0  0  0  0  0  0  0
   -0.9008   -1.6175   -1.4561 H   0  0  0  0  0  0  0  0  0  0  0  0
   -2.8512   -0.7014    0.1865 H   0  0  0  0  0  0  0  0  0  0  0  0
   -2.4083    1.4613    0.5196 H   0  0  0  0  0  0  0  0  0  0  0  0
   -0.3686    2.7391    0.3514 H   0  0  0  0  0  0  0  0  0  0  0  0
    1.6562    2.0197   -0.1288 H   0  0  0  0  0  0  0  0  0  0  0  0
    1.5326   -0.2556   -1.5340 H   0  0  0  0  0  0  0  0  0  0  0  0
    2.6825   -0.0255    1.0986 H   0  0  0  0  0  0  0  0  0  0  0  0
  1  2  2  0
  2  3  1  0
  3  4  1  0
  4  5  2  0
  5  6  1  0
  6  7  2  0
  7  8  1  0
  8  9  1  0
  8  2  1  0
  3 10  1  0
  3 11  1  0
  4 12  1  0
  5 13  1  0
  6 14  1  0
  7 15  1  0
  8 16  1  0
  9 17  1  0
M  END
