
     RDKit          3D

 16 16  0  0  0  0  0  0  0  0999 V2000
   -0.5036   -0.8957    2.1029 O   0  0  0  0  0  0  0  0  0  0  0  0
   -0.6791   -0.5863    0.9554 C   0  0  0  0  0  0  0  0  0  0  0  0
   -1.9692   -0.2482    0.3256 C   0  0  0  0  0  0  0  0  0  0  0  0
   -1.5474    0.6373   -0.7808 C   0  0  0  0  0  0  0  0  0  0  0  0
   -0.2487    0.5185   -1.0203 C   0  0  0  0  0  0  0  0  0  0  0  0
    0.3514   -0.4725   -0.0891 C   0  0  0  0  0  0  0  0  0  0  0  0
    1.6813   -0.0007    0.4500 C   0  0  0  0  0  0  0  0  0  0  0  0
    2.5574    0.0612   -0.6398 O   0  0  0  0  0  0  0  0  0  0  0  0
   -2.3883   -1.1743   -0.1249 H   0  0  0  0  0  0  0  0  0  0  0  0
   -2.6882    0.2345    1.0203 H   0  0  0  0  0  0  0  0  0  0  0  0
   -2.2052    1.2899   -1.3189 H   0  0  0  0  0  0  0  0  0  0  0  0
    0.3617    1.0408   -1.7763 H   0  0  0  0  0  0  0  0  0  0  0  0
    0.4147   -1.4319   -0.6134 H   0  0  0  0  0  0  0  0  0  0  0  0
    2.0704   -0.7522    1.1645 H   0  0  0  0  0  0  0  0  0  0  0  0
    1.5686    1.0083    0.8961 H   0  0  0  0  0  0  0  0  0  0  0  0
    3.2242    0.7715   -0.5512 H   0  0  0  0  0  0  0  0  0  0  0  0
  1  2  2  0
  2  3  1  0
  3  4  1  0
  4  5  2  0
  5  6  1  0
  6  7  1  0
  7  8  1  0
  6  2  1  0
  3  9  1  0
  3 10  1  0
  4 11  1  0
  5 12  1  0
  6 13  1  0
  7 14  1  0
  7 15  1  0
  8 16  1  0
M  END
