
     RDKit          3D

 16 17  0  0  0  0  0  0  0  0999 V2000
   -0.8633    1.4395    2.1776 O   0  0  0  0  0  0  0  0  0  0  0  0
   -0.7703    0.8180    1.1391 C   0  0  0  0  0  0  0  0  0  0  0  0
   -1.5510   -0.3198    0.6146 C   0  0  0  0  0  0  0  0  0  0  0  0
   -0.6907   -0.9783   -0.4214 C   0  0  0  0  0  0  0  0  0  0  0  0
    0.4326   -0.0542   -0.7488 C   0  0  0  0  0  0  0  0  0  0  0  0
    1.4941    0.2835    0.2056 C   0  0  0  0  0  0  0  0  0  0  0  0
    1.6872   -0.4816    1.3774 O   0  0  0  0  0  0  0  0  0  0  0  0
    0.2546    1.1273    0.1057 C   0  0  0  0  0  0  0  0  0  0  0  0
   -2.4993    0.0949    0.2003 H   0  0  0  0  0  0  0  0  0  0  0  0
   -1.7946   -1.0820    1.3821 H   0  0  0  0  0  0  0  0  0  0  0  0
   -1.3321   -1.0969   -1.3403 H   0  0  0  0  0  0  0  0  0  0  0  0
   -0.3615   -1.9935   -0.1418 H   0  0  0  0  0  0  0  0  0  0  0  0
    0.6692    0.0712   -1.8449 H   0  0  0  0  0  0  0  0  0  0  0  0
    2.4019    0.7656   -0.1968 H   0  0  0  0  0  0  0  0  0  0  0  0
    2.6372   -0.7310    1.4596 H   0  0  0  0  0  0  0  0  0  0  0  0
    0.2863    2.1373   -0.3231 H   0  0  0  0  0  0  0  0  0  0  0  0
  1  2  2  0
  2  3  1  0
  3  4  1  0
  4  5  1  0
  5  6  1  0
  6  7  1  0
  6  8  1  0
  8  2  1  0
  8  5  1  0
  3  9  1  0
  3 10  1  0
  4 11  1  0
  4 12  1  0
  5 13  1  0
  6 14  1  0
  7 15  1  0
  8 16  1  0
M  END
