
     RDKit          3D

 17 18  0  0  0  0  0  0  0  0999 V2000
   -3.2994   -0.2444    0.2796 O   0  0  0  0  0  0  0  0  0  0  0  0
   -2.0925   -0.2063    0.1427 C   0  0  0  0  0  0  0  0  0  0  0  0
   -1.1262   -1.1369   -0.4753 C   0  0  0  0  0  0  0  0  0  0  0  0
   -0.0524   -0.5338    0.4075 C   0  0  0  0  0  0  0  0  0  0  0  0
    1.2217   -0.3906   -0.3542 C   0  0  0  0  0  0  0  0  0  0  0  0
    2.4204    0.1507    0.2095 C   0  0  0  0  0  0  0  0  0  0  0  0
    1.5232    0.9587   -0.6952 O   0  0  0  0  0  0  0  0  0  0  0  0
   -0.9392    0.6883    0.4660 C   0  0  0  0  0  0  0  0  0  0  0  0
   -0.6899    1.6118   -0.5516 O   0  0  0  0  0  0  0  0  0  0  0  0
   -1.2472   -2.1956   -0.2393 H   0  0  0  0  0  0  0  0  0  0  0  0
   -0.9645   -0.8833   -1.5445 H   0  0  0  0  0  0  0  0  0  0  0  0
    0.0208   -1.0185    1.4059 H   0  0  0  0  0  0  0  0  0  0  0  0
    1.3465   -1.0794   -1.2417 H   0  0  0  0  0  0  0  0  0  0  0  0
    2.4750    0.6070    1.2108 H   0  0  0  0  0  0  0  0  0  0  0  0
    3.3730    0.0353   -0.3277 H   0  0  0  0  0  0  0  0  0  0  0  0
   -1.0846    1.1211    1.4682 H   0  0  0  0  0  0  0  0  0  0  0  0
   -0.8846    2.5159   -0.1609 H   0  0  0  0  0  0  0  0  0  0  0  0
  1  2  2  0
  2  3  1  0
  3  4  1  0
  4  5  1  0
  5  6  1  0
  6  7  1  0
  4  8  1  0
  8  9  1  0
  8  2  1  0
  7  5  1  0
  3 10  1  0
  3 11  1  0
  4 12  1  0
  5 13  1  0
  6 14  1  0
  6 15  1  0
  8 16  1  0
  9 17  1  0
M  END
