
     RDKit          3D

 15 16  0  0  0  0  0  0  0  0999 V2000
    0.1124   -1.5668   -1.9218 O   0  0  0  0  0  0  0  0  0  0  0  0
    0.1794   -0.8914   -0.9517 C   0  0  0  0  0  0  0  0  0  0  0  0
    1.1112   -0.9121    0.2190 C   0  0  0  0  0  0  0  0  0  0  0  0
    1.4808    0.5493    0.2356 C   0  0  0  0  0  0  0  0  0  0  0  0
    0.4983    1.2621   -0.3142 C   0  0  0  0  0  0  0  0  0  0  0  0
   -0.6231    0.2814   -0.4481 C   0  0  0  0  0  0  0  0  0  0  0  0
   -1.6719    0.6369   -1.1605 O   0  0  0  0  0  0  0  0  0  0  0  0
   -0.8533   -0.2295    0.9601 C   0  0  0  0  0  0  0  0  0  0  0  0
    0.2051   -1.0920    1.2563 O   0  0  0  0  0  0  0  0  0  0  0  0
    1.9246   -1.5878    0.1587 H   0  0  0  0  0  0  0  0  0  0  0  0
    2.3946    0.9928    0.6253 H   0  0  0  0  0  0  0  0  0  0  0  0
    0.4287    2.2878   -0.6214 H   0  0  0  0  0  0  0  0  0  0  0  0
   -2.5630    0.3699   -0.7939 H   0  0  0  0  0  0  0  0  0  0  0  0
   -1.8366   -0.7192    1.0802 H   0  0  0  0  0  0  0  0  0  0  0  0
   -0.7873    0.6186    1.6764 H   0  0  0  0  0  0  0  0  0  0  0  0
  1  2  2  0
  2  3  1  0
  3  4  1  0
  4  5  2  0
  5  6  1  0
  6  7  1  0
  6  8  1  0
  8  9  1  0
  6  2  1  0
  9  3  1  0
  3 10  1  0
  4 11  1  0
  5 12  1  0
  7 13  1  0
  8 14  1  0
  8 15  1  0
M  END
