
     RDKit          3D

 17 18  0  0  0  0  0  0  0  0999 V2000
   -0.7320    3.0563   -0.3131 O   0  0  0  0  0  0  0  0  0  0  0  0
   -0.8512    1.8336   -0.0527 C   0  0  0  0  0  0  0  0  0  0  0  0
   -1.9867    1.0947   -0.2417 O   0  0  0  0  0  0  0  0  0  0  0  0
   -1.7047   -0.2935   -0.0330 C   0  0  0  0  0  0  0  0  0  0  0  0
   -0.4047   -0.3749    0.6955 C   0  0  0  0  0  0  0  0  0  0  0  0
    0.5998   -1.2937    0.0303 C   0  0  0  0  0  0  0  0  0  0  0  0
    1.8351   -0.3857    0.0438 C   0  0  0  0  0  0  0  0  0  0  0  0
    1.2727    0.8103   -0.4100 O   0  0  0  0  0  0  0  0  0  0  0  0
    0.2202    0.9900    0.5029 C   0  0  0  0  0  0  0  0  0  0  0  0
   -1.7305   -0.8624   -0.9730 H   0  0  0  0  0  0  0  0  0  0  0  0
   -2.5009   -0.6559    0.6618 H   0  0  0  0  0  0  0  0  0  0  0  0
   -0.5100   -0.5985    1.7738 H   0  0  0  0  0  0  0  0  0  0  0  0
    0.7635   -2.2169    0.5940 H   0  0  0  0  0  0  0  0  0  0  0  0
    0.3344   -1.4672   -1.0280 H   0  0  0  0  0  0  0  0  0  0  0  0
    2.1023   -0.2479    1.0922 H   0  0  0  0  0  0  0  0  0  0  0  0
    2.6242   -0.7643   -0.6030 H   0  0  0  0  0  0  0  0  0  0  0  0
    0.6685    1.3760    1.4278 H   0  0  0  0  0  0  0  0  0  0  0  0
  1  2  2  0
  2  3  1  0
  3  4  1  0
  4  5  1  0
  5  6  1  0
  6  7  1  0
  7  8  1  0
  8  9  1  0
  9  2  1  0
  9  5  1  0
  4 10  1  0
  4 11  1  0
  5 12  1  0
  6 13  1  0
  6 14  1  0
  7 15  1  0
  7 16  1  0
  9 17  1  0
M  END
