
     RDKit          3D

 19 20  0  0  0  0  0  0  0  0999 V2000
   -1.7888    2.2212    0.3035 O   0  0  0  0  0  0  0  0  0  0  0  0
   -1.1038    1.2341    0.0974 C   0  0  0  0  0  0  0  0  0  0  0  0
   -1.7336   -0.1007   -0.0147 C   0  0  0  0  0  0  0  0  0  0  0  0
   -0.8466   -1.0854   -0.6988 C   0  0  0  0  0  0  0  0  0  0  0  0
    0.5644   -1.0782   -0.2161 C   0  0  0  0  0  0  0  0  0  0  0  0
    0.8981   -0.7926    1.2068 C   0  0  0  0  0  0  0  0  0  0  0  0
    1.1573    0.1959    0.1234 C   0  0  0  0  0  0  0  0  0  0  0  0
    2.5186    0.3750   -0.2118 O   0  0  0  0  0  0  0  0  0  0  0  0
    0.3424    1.4220   -0.0320 C   0  0  0  0  0  0  0  0  0  0  0  0
   -2.6684   -0.0127   -0.6391 H   0  0  0  0  0  0  0  0  0  0  0  0
   -2.0326   -0.5131    0.9716 H   0  0  0  0  0  0  0  0  0  0  0  0
   -0.8326   -0.8138   -1.7914 H   0  0  0  0  0  0  0  0  0  0  0  0
   -1.2510   -2.1114   -0.5585 H   0  0  0  0  0  0  0  0  0  0  0  0
    1.2074   -1.8369   -0.7317 H   0  0  0  0  0  0  0  0  0  0  0  0
    1.7582   -1.3258    1.6381 H   0  0  0  0  0  0  0  0  0  0  0  0
    0.0792   -0.6284    1.9411 H   0  0  0  0  0  0  0  0  0  0  0  0
    2.4918    0.8096   -1.1228 H   0  0  0  0  0  0  0  0  0  0  0  0
    0.6552    2.1550    0.7603 H   0  0  0  0  0  0  0  0  0  0  0  0
    0.5849    1.8860   -1.0253 H   0  0  0  0  0  0  0  0  0  0  0  0
  1  2  2  0
  2  3  1  0
  3  4  1  0
  4  5  1  0
  5  6  1  0
  6  7  1  0
  7  8  1  0
  7  9  1  0
  9  2  1  0
  7  5  1  0
  3 10  1  0
  3 11  1  0
  4 12  1  0
  4 13  1  0
  5 14  1  0
  6 15  1  0
  6 16  1  0
  8 17  1  0
  9 18  1  0
  9 19  1  0
M  END
