
     RDKit          3D

 19 20  0  0  0  0  0  0  0  0999 V2000
   -1.3432   -2.4748    0.3281 O   0  0  0  0  0  0  0  0  0  0  0  0
   -0.9995   -1.3035    0.4356 C   0  0  0  0  0  0  0  0  0  0  0  0
   -1.8880   -0.2121   -0.1019 C   0  0  0  0  0  0  0  0  0  0  0  0
   -0.9958    0.6090   -1.0243 C   0  0  0  0  0  0  0  0  0  0  0  0
    0.0626    1.2426   -0.1290 C   0  0  0  0  0  0  0  0  0  0  0  0
    1.0056    0.1031    0.2387 C   0  0  0  0  0  0  0  0  0  0  0  0
    2.2368   -0.0237   -0.3779 C   0  0  0  0  0  0  0  0  0  0  0  0
    2.2180    0.5418    0.8935 O   0  0  0  0  0  0  0  0  0  0  0  0
    0.2626   -0.8743    1.0744 C   0  0  0  0  0  0  0  0  0  0  0  0
   -2.2068    0.4778    0.7031 H   0  0  0  0  0  0  0  0  0  0  0  0
   -2.7458   -0.6130   -0.6457 H   0  0  0  0  0  0  0  0  0  0  0  0
   -0.4880   -0.1155   -1.6870 H   0  0  0  0  0  0  0  0  0  0  0  0
   -1.5220    1.4093   -1.5344 H   0  0  0  0  0  0  0  0  0  0  0  0
   -0.3654    1.6203    0.8111 H   0  0  0  0  0  0  0  0  0  0  0  0
    0.5715    2.0219   -0.7107 H   0  0  0  0  0  0  0  0  0  0  0  0
    2.7726   -1.0108   -0.4822 H   0  0  0  0  0  0  0  0  0  0  0  0
    2.5519    0.6810   -1.1753 H   0  0  0  0  0  0  0  0  0  0  0  0
   -0.0295   -0.3455    2.0277 H   0  0  0  0  0  0  0  0  0  0  0  0
    0.9027   -1.7335    1.3560 H   0  0  0  0  0  0  0  0  0  0  0  0
  1  2  2  0
  2  3  1  0
  3  4  1  0
  4  5  1  0
  5  6  1  0
  6  7  1  0
  7  8  1  0
  6  9  1  0
  9  2  1  0
  8  6  1  0
  3 10  1  0
  3 11  1  0
  4 12  1  0
  4 13  1  0
  5 14  1  0
  5 15  1  0
  7 16  1  0
  7 17  1  0
  9 18  1  0
  9 19  1  0
M  END
