
     RDKit          3D

 14 15  0  0  0  0  0  0  0  0999 V2000
   -0.9939    2.1247    0.7147 O   0  0  0  0  0  0  0  0  0  0  0  0
   -0.5206    1.0994    0.3704 C   0  0  0  0  0  0  0  0  0  0  0  0
   -0.1573    0.3299   -0.7924 C   0  0  0  0  0  0  0  0  0  0  0  0
    1.0997   -0.0480   -0.0598 C   0  0  0  0  0  0  0  0  0  0  0  0
    2.0612    0.9141    0.0721 O   0  0  0  0  0  0  0  0  0  0  0  0
    0.0279   -0.1084    0.9805 C   0  0  0  0  0  0  0  0  0  0  0  0
   -0.7689   -0.8451   -0.0705 C   0  0  0  0  0  0  0  0  0  0  0  0
   -2.1273   -0.8073    0.0624 O   0  0  0  0  0  0  0  0  0  0  0  0
   -0.2499    0.5378   -1.7692 H   0  0  0  0  0  0  0  0  0  0  0  0
    1.4338   -1.0724   -0.3242 H   0  0  0  0  0  0  0  0  0  0  0  0
    2.9599    0.4896   -0.0700 H   0  0  0  0  0  0  0  0  0  0  0  0
    0.1066   -0.3493    1.9453 H   0  0  0  0  0  0  0  0  0  0  0  0
   -0.2847   -1.7866   -0.3176 H   0  0  0  0  0  0  0  0  0  0  0  0
   -2.5864   -0.4785   -0.7417 H   0  0  0  0  0  0  0  0  0  0  0  0
  1  2  2  0
  2  3  1  0
  3  4  1  0
  4  5  1  0
  4  6  1  0
  6  7  1  0
  7  8  1  0
  6  2  1  0
  7  3  1  0
  3  9  1  0
  4 10  1  0
  5 11  1  0
  6 12  1  0
  7 13  1  0
  8 14  1  0
M  END
