
     RDKit          3D

 15 16  0  0  0  0  0  0  0  0999 V2000
   -1.6078   -1.5844   -1.5384 O   0  0  0  0  0  0  0  0  0  0  0  0
   -1.2675   -0.8636   -0.5758 C   0  0  0  0  0  0  0  0  0  0  0  0
   -1.8164    0.3840   -0.3089 O   0  0  0  0  0  0  0  0  0  0  0  0
   -1.0072    0.8976    0.7627 C   0  0  0  0  0  0  0  0  0  0  0  0
    0.3624    1.1560    0.2332 C   0  0  0  0  0  0  0  0  0  0  0  0
    0.9739   -0.2534    0.2358 C   0  0  0  0  0  0  0  0  0  0  0  0
    1.5937   -0.5493   -0.9546 O   0  0  0  0  0  0  0  0  0  0  0  0
   -0.2658   -1.0791    0.4933 C   0  0  0  0  0  0  0  0  0  0  0  0
   -0.8579   -0.2931    1.5163 O   0  0  0  0  0  0  0  0  0  0  0  0
   -1.4750    1.6960    1.3101 H   0  0  0  0  0  0  0  0  0  0  0  0
    0.2882    1.5073   -0.8039 H   0  0  0  0  0  0  0  0  0  0  0  0
    0.9620    1.8609    0.8197 H   0  0  0  0  0  0  0  0  0  0  0  0
    1.6192   -0.3330    1.1188 H   0  0  0  0  0  0  0  0  0  0  0  0
    2.5926   -0.4480   -0.8479 H   0  0  0  0  0  0  0  0  0  0  0  0
   -0.0945   -2.0979    0.7774 H   0  0  0  0  0  0  0  0  0  0  0  0
  1  2  2  0
  2  3  1  0
  3  4  1  0
  4  5  1  0
  5  6  1  0
  6  7  1  0
  6  8  1  0
  8  9  1  0
  8  2  1  0
  9  4  1  0
  4 10  1  0
  5 11  1  0
  5 12  1  0
  6 13  1  0
  7 14  1  0
  8 15  1  0
M  END
