
     RDKit          3D

 17 18  0  0  0  0  0  0  0  0999 V2000
    0.1932   -1.7732    2.0285 O   0  0  0  0  0  0  0  0  0  0  0  0
    0.2977   -0.9017    1.2136 C   0  0  0  0  0  0  0  0  0  0  0  0
    1.3485   -0.7758    0.1837 C   0  0  0  0  0  0  0  0  0  0  0  0
    2.2371    0.2076    0.5992 O   0  0  0  0  0  0  0  0  0  0  0  0
    0.5386   -0.3178   -1.0209 C   0  0  0  0  0  0  0  0  0  0  0  0
   -0.3515    0.7226   -0.3964 C   0  0  0  0  0  0  0  0  0  0  0  0
   -1.8208    0.4573   -0.6292 C   0  0  0  0  0  0  0  0  0  0  0  0
   -1.8987   -0.0070    0.6836 O   0  0  0  0  0  0  0  0  0  0  0  0
   -0.6009    0.2675    1.0357 C   0  0  0  0  0  0  0  0  0  0  0  0
    1.8613   -1.7175   -0.0465 H   0  0  0  0  0  0  0  0  0  0  0  0
    1.8740    1.1189    0.4599 H   0  0  0  0  0  0  0  0  0  0  0  0
   -0.0732   -1.2052   -1.3385 H   0  0  0  0  0  0  0  0  0  0  0  0
    1.1712    0.0707   -1.8253 H   0  0  0  0  0  0  0  0  0  0  0  0
   -0.0208    1.7618   -0.5094 H   0  0  0  0  0  0  0  0  0  0  0  0
   -1.9593   -0.3563   -1.3857 H   0  0  0  0  0  0  0  0  0  0  0  0
   -2.3474    1.3844   -0.8444 H   0  0  0  0  0  0  0  0  0  0  0  0
   -0.4488    1.0637    1.7922 H   0  0  0  0  0  0  0  0  0  0  0  0
  1  2  2  0
  2  3  1  0
  3  4  1  0
  3  5  1  0
  5  6  1  0
  6  7  1  0
  7  8  1  0
  8  9  1  0
  9  2  1  0
  9  6  1  0
  3 10  1  0
  4 11  1  0
  5 12  1  0
  5 13  1  0
  6 14  1  0
  7 15  1  0
  7 16  1  0
  9 17  1  0
M  END
