
     RDKit          3D

 15 17  0  0  0  0  0  0  0  0999 V2000
    2.2169    1.9381   -0.3657 O   0  0  0  0  0  0  0  0  0  0  0  0
    1.4137    0.9772   -0.2942 C   0  0  0  0  0  0  0  0  0  0  0  0
    1.5730   -0.4413   -0.6211 C   0  0  0  0  0  0  0  0  0  0  0  0
    2.5489   -1.0891   -1.0653 O   0  0  0  0  0  0  0  0  0  0  0  0
    0.2130   -0.9624   -0.2782 C   0  0  0  0  0  0  0  0  0  0  0  0
   -0.1428   -0.2456    0.9841 C   0  0  0  0  0  0  0  0  0  0  0  0
   -1.5623   -0.2816    0.4923 C   0  0  0  0  0  0  0  0  0  0  0  0
   -0.7565    0.0820   -0.7294 C   0  0  0  0  0  0  0  0  0  0  0  0
   -0.0002    1.0107    0.1671 C   0  0  0  0  0  0  0  0  0  0  0  0
    0.0085   -1.9938   -0.4018 H   0  0  0  0  0  0  0  0  0  0  0  0
    0.1890   -0.4093    1.9113 H   0  0  0  0  0  0  0  0  0  0  0  0
   -2.2128    0.5411    0.8140 H   0  0  0  0  0  0  0  0  0  0  0  0
   -1.9585   -1.2999    0.5354 H   0  0  0  0  0  0  0  0  0  0  0  0
   -1.1032    0.2540   -1.6514 H   0  0  0  0  0  0  0  0  0  0  0  0
   -0.4265    1.9199    0.5030 H   0  0  0  0  0  0  0  0  0  0  0  0
  1  2  2  0
  2  3  1  0
  3  4  2  0
  3  5  1  0
  5  6  1  0
  6  7  1  0
  7  8  1  0
  8  9  1  0
  9  2  1  0
  8  5  1  0
  9  6  1  0
  5 10  1  0
  6 11  1  0
  7 12  1  0
  7 13  1  0
  8 14  1  0
  9 15  1  0
M  END
