
     RDKit          3D

 17 19  0  0  0  0  0  0  0  0999 V2000
    1.7358    2.7867   -0.3142 O   0  0  0  0  0  0  0  0  0  0  0  0
    1.1255    1.7024   -0.1026 C   0  0  0  0  0  0  0  0  0  0  0  0
   -0.2642    1.5619   -0.1785 O   0  0  0  0  0  0  0  0  0  0  0  0
   -0.6650    0.2694    0.1481 C   0  0  0  0  0  0  0  0  0  0  0  0
   -1.9562   -0.0631    0.7546 C   0  0  0  0  0  0  0  0  0  0  0  0
   -1.6758   -0.4707   -0.6688 C   0  0  0  0  0  0  0  0  0  0  0  0
    0.5610   -0.4962    0.5087 C   0  0  0  0  0  0  0  0  0  0  0  0
    1.4986   -0.7818   -0.6264 C   0  0  0  0  0  0  0  0  0  0  0  0
    1.7264    0.3828    0.2607 C   0  0  0  0  0  0  0  0  0  0  0  0
   -1.9409   -0.8233    1.5616 H   0  0  0  0  0  0  0  0  0  0  0  0
   -2.7875    0.6529    0.8544 H   0  0  0  0  0  0  0  0  0  0  0  0
   -2.2040   -0.0069   -1.5036 H   0  0  0  0  0  0  0  0  0  0  0  0
   -1.5197   -1.5740   -0.8099 H   0  0  0  0  0  0  0  0  0  0  0  0
    0.5084   -1.2143    1.3283 H   0  0  0  0  0  0  0  0  0  0  0  0
    2.1397   -1.6575   -0.4963 H   0  0  0  0  0  0  0  0  0  0  0  0
    1.1282   -0.6614   -1.6697 H   0  0  0  0  0  0  0  0  0  0  0  0
    2.5897    0.3930    0.9537 H   0  0  0  0  0  0  0  0  0  0  0  0
  1  2  2  0
  2  3  1  0
  3  4  1  0
  4  5  1  0
  5  6  1  0
  4  7  1  0
  7  8  1  0
  8  9  1  0
  9  2  1  0
  6  4  1  0
  9  7  1  0
  5 10  1  0
  5 11  1  0
  6 12  1  0
  6 13  1  0
  7 14  1  0
  8 15  1  0
  8 16  1  0
  9 17  1  0
M  END
