
     RDKit          3D

 17 18  0  0  0  0  0  0  0  0999 V2000
    2.6763   -0.4648   -0.9840 O   0  0  0  0  0  0  0  0  0  0  0  0
    1.5483   -0.4131   -0.5340 C   0  0  0  0  0  0  0  0  0  0  0  0
    0.3969   -1.3525   -0.6510 C   0  0  0  0  0  0  0  0  0  0  0  0
   -0.2135   -0.6923    0.5574 C   0  0  0  0  0  0  0  0  0  0  0  0
   -1.5486   -0.0626    0.3985 C   0  0  0  0  0  0  0  0  0  0  0  0
   -1.3367    1.0879   -0.4808 C   0  0  0  0  0  0  0  0  0  0  0  0
   -0.0660    1.3995   -0.5551 C   0  0  0  0  0  0  0  0  0  0  0  0
    0.7235    0.4687    0.2851 C   0  0  0  0  0  0  0  0  0  0  0  0
    1.2801    1.0771    1.3721 O   0  0  0  0  0  0  0  0  0  0  0  0
    0.7419   -2.4051   -0.4508 H   0  0  0  0  0  0  0  0  0  0  0  0
   -0.1694   -1.2910   -1.5872 H   0  0  0  0  0  0  0  0  0  0  0  0
   -0.0092   -1.2207    1.4975 H   0  0  0  0  0  0  0  0  0  0  0  0
   -2.2934   -0.7442   -0.0592 H   0  0  0  0  0  0  0  0  0  0  0  0
   -1.8910    0.2343    1.4300 H   0  0  0  0  0  0  0  0  0  0  0  0
   -2.0905    1.6767   -1.0471 H   0  0  0  0  0  0  0  0  0  0  0  0
    0.4278    2.2029   -1.1221 H   0  0  0  0  0  0  0  0  0  0  0  0
    1.8234    0.4989    1.9306 H   0  0  0  0  0  0  0  0  0  0  0  0
  1  2  2  0
  2  3  1  0
  3  4  1  0
  4  5  1  0
  5  6  1  0
  6  7  2  0
  7  8  1  0
  8  9  1  0
  8  2  1  0
  8  4  1  0
  3 10  1  0
  3 11  1  0
  4 12  1  0
  5 13  1  0
  5 14  1  0
  6 15  1  0
  7 16  1  0
  9 17  1  0
M  END
