
     RDKit          3D

 17 19  0  0  0  0  0  0  0  0999 V2000
    2.7468    0.9105   -1.2819 O   0  0  0  0  0  0  0  0  0  0  0  0
    1.6918    0.7480   -0.5972 C   0  0  0  0  0  0  0  0  0  0  0  0
    1.5206   -0.3770    0.3476 C   0  0  0  0  0  0  0  0  0  0  0  0
    0.0387   -0.4613    0.5312 C   0  0  0  0  0  0  0  0  0  0  0  0
   -0.7688   -1.1243   -0.5335 C   0  0  0  0  0  0  0  0  0  0  0  0
   -1.5470    0.1376   -0.8379 C   0  0  0  0  0  0  0  0  0  0  0  0
   -0.5259    0.8860    0.0260 C   0  0  0  0  0  0  0  0  0  0  0  0
   -0.5624    0.5322    1.4560 C   0  0  0  0  0  0  0  0  0  0  0  0
    0.5397    1.5362   -0.5823 O   0  0  0  0  0  0  0  0  0  0  0  0
    1.9871   -0.0525    1.3162 H   0  0  0  0  0  0  0  0  0  0  0  0
    1.9378   -1.3252   -0.0199 H   0  0  0  0  0  0  0  0  0  0  0  0
   -0.1482   -1.3876   -1.4401 H   0  0  0  0  0  0  0  0  0  0  0  0
   -1.3733   -1.9911   -0.2084 H   0  0  0  0  0  0  0  0  0  0  0  0
   -2.5455    0.1833   -0.3159 H   0  0  0  0  0  0  0  0  0  0  0  0
   -1.5393    0.4804   -1.8712 H   0  0  0  0  0  0  0  0  0  0  0  0
   -1.5624    0.2660    1.8599 H   0  0  0  0  0  0  0  0  0  0  0  0
    0.1104    1.0387    2.1515 H   0  0  0  0  0  0  0  0  0  0  0  0
  1  2  2  0
  2  3  1  0
  3  4  1  0
  4  5  1  0
  5  6  1  0
  6  7  1  0
  7  8  1  0
  7  9  1  0
  9  2  1  0
  7  4  1  0
  8  4  1  0
  3 10  1  0
  3 11  1  0
  5 12  1  0
  5 13  1  0
  6 14  1  0
  6 15  1  0
  8 16  1  0
  8 17  1  0
M  END
