
     RDKit          3D

 17 17  0  0  0  0  0  0  0  0999 V2000
    0.6723   -2.3929    0.4540 O   0  0  0  0  0  0  0  0  0  0  0  0
   -0.1642   -1.4584    0.3533 C   0  0  0  0  0  0  0  0  0  0  0  0
   -1.5301   -1.4871    0.1263 O   0  0  0  0  0  0  0  0  0  0  0  0
   -2.0150   -0.1799   -0.1636 C   0  0  0  0  0  0  0  0  0  0  0  0
   -0.7384    0.5708   -0.5702 C   0  0  0  0  0  0  0  0  0  0  0  0
    0.1958   -0.0207    0.4709 C   0  0  0  0  0  0  0  0  0  0  0  0
   -0.1733    0.4065    1.7297 O   0  0  0  0  0  0  0  0  0  0  0  0
    1.6402    0.2448    0.1461 C   0  0  0  0  0  0  0  0  0  0  0  0
    1.8714   -0.2346   -1.1451 O   0  0  0  0  0  0  0  0  0  0  0  0
   -2.7685   -0.1729   -0.9481 H   0  0  0  0  0  0  0  0  0  0  0  0
   -2.3570    0.3151    0.7817 H   0  0  0  0  0  0  0  0  0  0  0  0
   -0.4443    0.2112   -1.5640 H   0  0  0  0  0  0  0  0  0  0  0  0
   -0.8503    1.6513   -0.4833 H   0  0  0  0  0  0  0  0  0  0  0  0
   -0.0820    1.3708    1.8567 H   0  0  0  0  0  0  0  0  0  0  0  0
    2.2474   -0.3326    0.8774 H   0  0  0  0  0  0  0  0  0  0  0  0
    1.8130    1.3221    0.2386 H   0  0  0  0  0  0  0  0  0  0  0  0
    2.6829    0.1867   -1.5469 H   0  0  0  0  0  0  0  0  0  0  0  0
  1  2  2  0
  2  3  1  0
  3  4  1  0
  4  5  1  0
  5  6  1  0
  6  7  1  0
  6  8  1  0
  8  9  1  0
  6  2  1  0
  4 10  1  0
  4 11  1  0
  5 12  1  0
  5 13  1  0
  7 14  1  0
  8 15  1  0
  8 16  1  0
  9 17  1  0
M  END
