
     RDKit          3D

 15 17  0  0  0  0  0  0  0  0999 V2000
    2.7736   -0.9323    1.2185 O   0  0  0  0  0  0  0  0  0  0  0  0
    1.7325   -0.5647    0.6587 C   0  0  0  0  0  0  0  0  0  0  0  0
    0.4543   -0.5892    1.1966 O   0  0  0  0  0  0  0  0  0  0  0  0
   -0.3720    0.1590    0.2801 C   0  0  0  0  0  0  0  0  0  0  0  0
   -1.2408   -0.6551   -0.5663 C   0  0  0  0  0  0  0  0  0  0  0  0
   -1.7736    0.3699    0.4819 C   0  0  0  0  0  0  0  0  0  0  0  0
    0.6375    1.1308   -0.2066 C   0  0  0  0  0  0  0  0  0  0  0  0
    1.4980    1.1684   -1.1872 O   0  0  0  0  0  0  0  0  0  0  0  0
    1.5882   -0.0260   -0.6750 C   0  0  0  0  0  0  0  0  0  0  0  0
   -1.4503   -0.4288   -1.6256 H   0  0  0  0  0  0  0  0  0  0  0  0
   -1.4698   -1.7222   -0.3156 H   0  0  0  0  0  0  0  0  0  0  0  0
   -2.2431    1.2589    0.0175 H   0  0  0  0  0  0  0  0  0  0  0  0
   -2.2583   -0.0792    1.3737 H   0  0  0  0  0  0  0  0  0  0  0  0
    1.0285    1.7175    0.6889 H   0  0  0  0  0  0  0  0  0  0  0  0
    1.0954   -0.8073   -1.3396 H   0  0  0  0  0  0  0  0  0  0  0  0
  1  2  2  0
  2  3  1  0
  3  4  1  0
  4  5  1  0
  5  6  1  0
  4  7  1  0
  7  8  1  0
  8  9  1  0
  9  2  1  0
  6  4  1  0
  9  7  1  0
  5 10  1  0
  5 11  1  0
  6 12  1  0
  6 13  1  0
  7 14  1  0
  9 15  1  0
M  END
