
     RDKit          3D

 17 17  0  0  0  0  0  0  0  0999 V2000
   -2.7374   -1.7938    0.1634 O   0  0  0  0  0  0  0  0  0  0  0  0
   -1.8645   -0.9652   -0.2054 C   0  0  0  0  0  0  0  0  0  0  0  0
   -0.4391   -1.3080   -0.0222 C   0  0  0  0  0  0  0  0  0  0  0  0
    0.4475   -0.1418    0.1072 C   0  0  0  0  0  0  0  0  0  0  0  0
    1.8853   -0.4070    0.4123 C   0  0  0  0  0  0  0  0  0  0  0  0
    2.5477    0.7914    0.4945 O   0  0  0  0  0  0  0  0  0  0  0  0
   -0.0024    1.0884   -0.0390 C   0  0  0  0  0  0  0  0  0  0  0  0
   -1.4164    1.3928   -0.3409 C   0  0  0  0  0  0  0  0  0  0  0  0
   -2.1437    0.2636   -0.7795 O   0  0  0  0  0  0  0  0  0  0  0  0
   -0.3211   -1.9630    0.8874 H   0  0  0  0  0  0  0  0  0  0  0  0
   -0.0719   -1.9398   -0.8681 H   0  0  0  0  0  0  0  0  0  0  0  0
    2.3100   -1.0305   -0.4256 H   0  0  0  0  0  0  0  0  0  0  0  0
    1.9360   -1.0110    1.3597 H   0  0  0  0  0  0  0  0  0  0  0  0
    2.6034    1.1184    1.4291 H   0  0  0  0  0  0  0  0  0  0  0  0
    0.6981    1.9028    0.0678 H   0  0  0  0  0  0  0  0  0  0  0  0
   -1.5225    2.2261   -1.0695 H   0  0  0  0  0  0  0  0  0  0  0  0
   -1.9090    1.7766    0.6008 H   0  0  0  0  0  0  0  0  0  0  0  0
  1  2  2  0
  2  3  1  0
  3  4  1  0
  4  5  1  0
  5  6  1  0
  4  7  2  0
  7  8  1  0
  8  9  1  0
  9  2  1  0
  3 10  1  0
  3 11  1  0
  5 12  1  0
  5 13  1  0
  6 14  1  0
  7 15  1  0
  8 16  1  0
  8 17  1  0
M  END
