
     RDKit          3D

 19 20  0  0  0  0  0  0  0  0999 V2000
    0.7997    2.6790    0.2296 O   0  0  0  0  0  0  0  0  0  0  0  0
    0.4587    1.5055    0.2197 C   0  0  0  0  0  0  0  0  0  0  0  0
   -0.9861    1.2173    0.0865 C   0  0  0  0  0  0  0  0  0  0  0  0
   -1.2384   -0.2435   -0.2659 C   0  0  0  0  0  0  0  0  0  0  0  0
   -2.5675   -0.5276    0.0317 O   0  0  0  0  0  0  0  0  0  0  0  0
   -0.3707   -1.0846    0.5990 C   0  0  0  0  0  0  0  0  0  0  0  0
    1.0971   -0.9020    0.3725 C   0  0  0  0  0  0  0  0  0  0  0  0
    1.6512   -0.3892   -0.8945 C   0  0  0  0  0  0  0  0  0  0  0  0
    1.5235    0.5053    0.3416 C   0  0  0  0  0  0  0  0  0  0  0  0
   -1.5071    1.4808    1.0388 H   0  0  0  0  0  0  0  0  0  0  0  0
   -1.4745    1.8062   -0.7171 H   0  0  0  0  0  0  0  0  0  0  0  0
   -1.0237   -0.3898   -1.3310 H   0  0  0  0  0  0  0  0  0  0  0  0
   -3.0277   -0.9376   -0.7509 H   0  0  0  0  0  0  0  0  0  0  0  0
   -0.5879   -0.8951    1.6699 H   0  0  0  0  0  0  0  0  0  0  0  0
   -0.6121   -2.1496    0.4043 H   0  0  0  0  0  0  0  0  0  0  0  0
    1.7336   -1.5972    0.9558 H   0  0  0  0  0  0  0  0  0  0  0  0
    2.6978   -0.6417   -1.1296 H   0  0  0  0  0  0  0  0  0  0  0  0
    0.9973   -0.2242   -1.7481 H   0  0  0  0  0  0  0  0  0  0  0  0
    2.4368    0.7879    0.8877 H   0  0  0  0  0  0  0  0  0  0  0  0
  1  2  2  0
  2  3  1  0
  3  4  1  0
  4  5  1  0
  4  6  1  0
  6  7  1  0
  7  8  1  0
  8  9  1  0
  9  2  1  0
  9  7  1  0
  3 10  1  0
  3 11  1  0
  4 12  1  0
  5 13  1  0
  6 14  1  0
  6 15  1  0
  7 16  1  0
  8 17  1  0
  8 18  1  0
  9 19  1  0
M  END
