
     RDKit          3D

 13 13  0  0  0  0  0  0  0  0999 V2000
   -2.1672   -0.4909    1.8475 O   0  0  0  0  0  0  0  0  0  0  0  0
   -1.4752   -0.5293    0.7968 C   0  0  0  0  0  0  0  0  0  0  0  0
   -0.2664   -1.1913    0.5687 O   0  0  0  0  0  0  0  0  0  0  0  0
    0.3530   -0.5814   -0.5481 C   0  0  0  0  0  0  0  0  0  0  0  0
    1.1054    0.6502   -0.0490 C   0  0  0  0  0  0  0  0  0  0  0  0
    2.0537    0.2276    0.8790 O   0  0  0  0  0  0  0  0  0  0  0  0
   -0.7671   -0.1827   -1.3202 O   0  0  0  0  0  0  0  0  0  0  0  0
   -1.8021    0.1371   -0.4576 C   0  0  0  0  0  0  0  0  0  0  0  0
   -2.8314    0.8376   -0.6328 O   0  0  0  0  0  0  0  0  0  0  0  0
    1.0250   -1.2615   -1.0860 H   0  0  0  0  0  0  0  0  0  0  0  0
    1.5479    1.2178   -0.8893 H   0  0  0  0  0  0  0  0  0  0  0  0
    0.3798    1.3269    0.4466 H   0  0  0  0  0  0  0  0  0  0  0  0
    2.8446   -0.1598    0.4445 H   0  0  0  0  0  0  0  0  0  0  0  0
  1  2  2  0
  2  3  1  0
  3  4  1  0
  4  5  1  0
  5  6  1  0
  4  7  1  0
  7  8  1  0
  8  9  2  0
  8  2  1  0
  4 10  1  0
  5 11  1  0
  5 12  1  0
  6 13  1  0
M  END
