
     RDKit          3D

 13 14  0  0  0  0  0  0  0  0999 V2000
    1.1063    2.0570    1.0139 O   0  0  0  0  0  0  0  0  0  0  0  0
    0.6854    0.9360    0.6341 C   0  0  0  0  0  0  0  0  0  0  0  0
    1.4772   -0.0741   -0.1114 C   0  0  0  0  0  0  0  0  0  0  0  0
    2.6593   -0.0418   -0.4721 O   0  0  0  0  0  0  0  0  0  0  0  0
    0.4664   -1.1671   -0.3230 C   0  0  0  0  0  0  0  0  0  0  0  0
   -0.5015   -0.7643   -1.2218 O   0  0  0  0  0  0  0  0  0  0  0  0
   -1.2630    0.2203   -0.5879 C   0  0  0  0  0  0  0  0  0  0  0  0
   -0.6283    0.2775    0.7781 C   0  0  0  0  0  0  0  0  0  0  0  0
   -0.2240   -1.0742    0.9104 O   0  0  0  0  0  0  0  0  0  0  0  0
    0.8967   -2.1326   -0.5046 H   0  0  0  0  0  0  0  0  0  0  0  0
   -1.0986    1.1954   -1.1348 H   0  0  0  0  0  0  0  0  0  0  0  0
   -2.3236   -0.0586   -0.5554 H   0  0  0  0  0  0  0  0  0  0  0  0
   -1.2523    0.6265    1.5746 H   0  0  0  0  0  0  0  0  0  0  0  0
  1  2  2  0
  2  3  1  0
  3  4  2  0
  3  5  1  0
  5  6  1  0
  6  7  1  0
  7  8  1  0
  8  9  1  0
  8  2  1  0
  9  5  1  0
  5 10  1  0
  7 11  1  0
  7 12  1  0
  8 13  1  0
M  END
