
     RDKit          3D

 17 17  0  0  0  0  0  0  0  0999 V2000
    0.4892    2.2398   -1.2582 O   0  0  0  0  0  0  0  0  0  0  0  0
    0.5595    1.2196   -0.5940 C   0  0  0  0  0  0  0  0  0  0  0  0
    1.6088    0.1705   -0.4336 C   0  0  0  0  0  0  0  0  0  0  0  0
    2.3366    0.4303    0.7263 O   0  0  0  0  0  0  0  0  0  0  0  0
    0.4501   -0.8086   -0.1918 C   0  0  0  0  0  0  0  0  0  0  0  0
   -0.1537   -1.1751   -1.3716 O   0  0  0  0  0  0  0  0  0  0  0  0
   -0.2482    0.4354    0.3774 C   0  0  0  0  0  0  0  0  0  0  0  0
   -1.7204    0.4216    0.1320 C   0  0  0  0  0  0  0  0  0  0  0  0
   -2.3112   -0.3559    1.1329 O   0  0  0  0  0  0  0  0  0  0  0  0
    2.1830   -0.0755   -1.3247 H   0  0  0  0  0  0  0  0  0  0  0  0
    1.9246    0.0461    1.5335 H   0  0  0  0  0  0  0  0  0  0  0  0
    0.6632   -1.5877    0.5368 H   0  0  0  0  0  0  0  0  0  0  0  0
    0.0115   -2.1351   -1.6171 H   0  0  0  0  0  0  0  0  0  0  0  0
   -0.0292    0.6303    1.4386 H   0  0  0  0  0  0  0  0  0  0  0  0
   -2.1153    1.4670    0.2805 H   0  0  0  0  0  0  0  0  0  0  0  0
   -2.0167    0.0819   -0.8695 H   0  0  0  0  0  0  0  0  0  0  0  0
   -1.6317   -1.0047    1.5024 H   0  0  0  0  0  0  0  0  0  0  0  0
  1  2  2  0
  2  3  1  0
  3  4  1  0
  3  5  1  0
  5  6  1  0
  5  7  1  0
  7  8  1  0
  8  9  1  0
  7  2  1  0
  3 10  1  0
  4 11  1  0
  5 12  1  0
  6 13  1  0
  7 14  1  0
  8 15  1  0
  8 16  1  0
  9 17  1  0
M  END
