
     RDKit          3D

 17 19  0  0  0  0  0  0  0  0999 V2000
   -0.2683    2.7343   -0.5286 O   0  0  0  0  0  0  0  0  0  0  0  0
   -0.4892    1.5435   -0.3959 C   0  0  0  0  0  0  0  0  0  0  0  0
   -0.1924    0.2718   -1.1406 C   0  0  0  0  0  0  0  0  0  0  0  0
    1.1056   -0.3035   -0.6084 C   0  0  0  0  0  0  0  0  0  0  0  0
    1.9896    0.7578   -0.3617 O   0  0  0  0  0  0  0  0  0  0  0  0
    0.7702   -0.9963    0.6906 C   0  0  0  0  0  0  0  0  0  0  0  0
   -0.6571   -0.5965    0.9891 C   0  0  0  0  0  0  0  0  0  0  0  0
   -1.1915    0.7203    0.6101 C   0  0  0  0  0  0  0  0  0  0  0  0
   -1.2369   -0.3993   -0.3358 C   0  0  0  0  0  0  0  0  0  0  0  0
   -0.2994    0.3195   -2.2199 H   0  0  0  0  0  0  0  0  0  0  0  0
    1.5273   -1.0080   -1.3642 H   0  0  0  0  0  0  0  0  0  0  0  0
    2.1368    0.8324    0.6252 H   0  0  0  0  0  0  0  0  0  0  0  0
    1.4716   -0.7685    1.4944 H   0  0  0  0  0  0  0  0  0  0  0  0
    0.7366   -2.0994    0.4513 H   0  0  0  0  0  0  0  0  0  0  0  0
   -1.1568   -1.1821    1.7544 H   0  0  0  0  0  0  0  0  0  0  0  0
   -2.1229    1.0383    1.0700 H   0  0  0  0  0  0  0  0  0  0  0  0
   -2.1232   -0.8641   -0.7300 H   0  0  0  0  0  0  0  0  0  0  0  0
  1  2  2  0
  2  3  1  0
  3  4  1  0
  4  5  1  0
  4  6  1  0
  6  7  1  0
  7  8  1  0
  8  9  1  0
  8  2  1  0
  9  3  1  0
  9  7  1  0
  3 10  1  0
  4 11  1  0
  5 12  1  0
  6 13  1  0
  6 14  1  0
  7 15  1  0
  8 16  1  0
  9 17  1  0
M  END
