
     RDKit          3D

 17 18  0  0  0  0  0  0  0  0999 V2000
    3.0113    0.7007   -0.6075 O   0  0  0  0  0  0  0  0  0  0  0  0
    1.8974    0.4009   -0.3373 C   0  0  0  0  0  0  0  0  0  0  0  0
    0.6294    0.8916   -0.9393 C   0  0  0  0  0  0  0  0  0  0  0  0
   -0.2636   -0.0922   -0.1668 C   0  0  0  0  0  0  0  0  0  0  0  0
   -1.6715   -0.1421   -0.5051 C   0  0  0  0  0  0  0  0  0  0  0  0
   -2.3500   -0.8971    0.4511 O   0  0  0  0  0  0  0  0  0  0  0  0
    0.1738    0.1680    1.2434 C   0  0  0  0  0  0  0  0  0  0  0  0
    1.3829   -0.5481    0.6735 C   0  0  0  0  0  0  0  0  0  0  0  0
    0.4675   -1.2792   -0.0840 O   0  0  0  0  0  0  0  0  0  0  0  0
    0.3526    1.8922   -0.5875 H   0  0  0  0  0  0  0  0  0  0  0  0
    0.5634    0.7341   -2.0159 H   0  0  0  0  0  0  0  0  0  0  0  0
   -1.7986   -0.6796   -1.4840 H   0  0  0  0  0  0  0  0  0  0  0  0
   -2.0770    0.8714   -0.6092 H   0  0  0  0  0  0  0  0  0  0  0  0
   -2.3669   -1.8464    0.2038 H   0  0  0  0  0  0  0  0  0  0  0  0
   -0.3352   -0.3774    2.0404 H   0  0  0  0  0  0  0  0  0  0  0  0
    0.3404    1.2538    1.3967 H   0  0  0  0  0  0  0  0  0  0  0  0
    2.0440   -1.0505    1.3278 H   0  0  0  0  0  0  0  0  0  0  0  0
  1  2  2  0
  2  3  1  0
  3  4  1  0
  4  5  1  0
  5  6  1  0
  4  7  1  0
  7  8  1  0
  8  9  1  0
  8  2  1  0
  9  4  1  0
  3 10  1  0
  3 11  1  0
  5 12  1  0
  5 13  1  0
  6 14  1  0
  7 15  1  0
  7 16  1  0
  8 17  1  0
M  END
