
     RDKit          3D

 17 18  0  0  0  0  0  0  0  0999 V2000
   -2.0542    1.2176    1.7893 O   0  0  0  0  0  0  0  0  0  0  0  0
   -1.5502    0.5785    0.9109 C   0  0  0  0  0  0  0  0  0  0  0  0
   -1.5464   -0.8092    0.3369 C   0  0  0  0  0  0  0  0  0  0  0  0
   -0.1339   -1.2137    0.5198 C   0  0  0  0  0  0  0  0  0  0  0  0
    0.5327   -0.0784    0.1876 C   0  0  0  0  0  0  0  0  0  0  0  0
    1.9967    0.1845    0.2163 C   0  0  0  0  0  0  0  0  0  0  0  0
    2.4839    0.5190   -1.0521 O   0  0  0  0  0  0  0  0  0  0  0  0
   -0.5571    0.8181   -0.2052 C   0  0  0  0  0  0  0  0  0  0  0  0
   -1.4856   -0.0819   -1.0133 C   0  0  0  0  0  0  0  0  0  0  0  0
   -2.3422   -1.4578    0.5314 H   0  0  0  0  0  0  0  0  0  0  0  0
    0.2780   -2.1658    0.8365 H   0  0  0  0  0  0  0  0  0  0  0  0
    2.5752   -0.6785    0.5782 H   0  0  0  0  0  0  0  0  0  0  0  0
    2.1922    1.0981    0.8514 H   0  0  0  0  0  0  0  0  0  0  0  0
    3.4856    0.5250   -0.9554 H   0  0  0  0  0  0  0  0  0  0  0  0
   -0.3938    1.8061   -0.5215 H   0  0  0  0  0  0  0  0  0  0  0  0
   -2.4602    0.3830   -1.1924 H   0  0  0  0  0  0  0  0  0  0  0  0
   -1.0207   -0.6446   -1.8184 H   0  0  0  0  0  0  0  0  0  0  0  0
  1  2  2  0
  2  3  1  0
  3  4  1  0
  4  5  2  0
  5  6  1  0
  6  7  1  0
  5  8  1  0
  8  9  1  0
  8  2  1  0
  9  3  1  0
  3 10  1  0
  4 11  1  0
  6 12  1  0
  6 13  1  0
  7 14  1  0
  8 15  1  0
  9 16  1  0
  9 17  1  0
M  END
