
     RDKit          3D

 19 20  0  0  0  0  0  0  0  0999 V2000
    0.9988   -1.5284    1.5695 O   0  0  0  0  0  0  0  0  0  0  0  0
    1.1230   -0.7749    0.6484 C   0  0  0  0  0  0  0  0  0  0  0  0
    2.3888   -0.2973   -0.0225 C   0  0  0  0  0  0  0  0  0  0  0  0
    1.9819    1.1039   -0.3973 C   0  0  0  0  0  0  0  0  0  0  0  0
    0.6309    1.2282   -0.1791 O   0  0  0  0  0  0  0  0  0  0  0  0
    0.0797   -0.0447   -0.1590 C   0  0  0  0  0  0  0  0  0  0  0  0
   -1.2581   -0.1110    0.4772 C   0  0  0  0  0  0  0  0  0  0  0  0
   -2.3677    0.5773   -0.2344 C   0  0  0  0  0  0  0  0  0  0  0  0
   -2.3420   -0.9104   -0.1920 C   0  0  0  0  0  0  0  0  0  0  0  0
    3.2558   -0.3577    0.6260 H   0  0  0  0  0  0  0  0  0  0  0  0
    2.4683   -0.9085   -0.9571 H   0  0  0  0  0  0  0  0  0  0  0  0
    2.3151    1.3971   -1.4045 H   0  0  0  0  0  0  0  0  0  0  0  0
    2.4961    1.7949    0.3184 H   0  0  0  0  0  0  0  0  0  0  0  0
    0.1035   -0.4519   -1.1827 H   0  0  0  0  0  0  0  0  0  0  0  0
   -1.2914   -0.0817    1.5884 H   0  0  0  0  0  0  0  0  0  0  0  0
   -3.1332    1.0911    0.3769 H   0  0  0  0  0  0  0  0  0  0  0  0
   -2.1751    1.1063   -1.2076 H   0  0  0  0  0  0  0  0  0  0  0  0
   -3.1201   -1.3954    0.4446 H   0  0  0  0  0  0  0  0  0  0  0  0
   -2.1542   -1.4367   -1.1332 H   0  0  0  0  0  0  0  0  0  0  0  0
  1  2  2  0
  2  3  1  0
  3  4  1  0
  4  5  1  0
  5  6  1  0
  6  7  1  0
  7  8  1  0
  8  9  1  0
  6  2  1  0
  9  7  1  0
  3 10  1  0
  3 11  1  0
  4 12  1  0
  4 13  1  0
  6 14  1  0
  7 15  1  0
  8 16  1  0
  8 17  1  0
  9 18  1  0
  9 19  1  0
M  END
