
     RDKit          3D

 15 17  0  0  0  0  0  0  0  0999 V2000
    1.0424    2.5256   -0.0113 O   0  0  0  0  0  0  0  0  0  0  0  0
    0.7435    1.3155   -0.1228 C   0  0  0  0  0  0  0  0  0  0  0  0
    1.7643    0.2880    0.0116 C   0  0  0  0  0  0  0  0  0  0  0  0
    1.3015   -0.9553    0.1767 C   0  0  0  0  0  0  0  0  0  0  0  0
   -0.1371   -1.2759    0.2213 C   0  0  0  0  0  0  0  0  0  0  0  0
   -0.8090   -0.7574    1.3458 O   0  0  0  0  0  0  0  0  0  0  0  0
   -1.4299    0.2402    0.6089 C   0  0  0  0  0  0  0  0  0  0  0  0
   -0.6830    1.0259   -0.3931 C   0  0  0  0  0  0  0  0  0  0  0  0
   -0.9912   -0.3898   -0.6274 C   0  0  0  0  0  0  0  0  0  0  0  0
    2.8182    0.5290   -0.0217 H   0  0  0  0  0  0  0  0  0  0  0  0
    2.0279   -1.7389    0.2793 H   0  0  0  0  0  0  0  0  0  0  0  0
   -0.3257   -2.3487    0.0615 H   0  0  0  0  0  0  0  0  0  0  0  0
   -2.4409    0.5536    0.8508 H   0  0  0  0  0  0  0  0  0  0  0  0
   -1.2503    1.7610   -0.9674 H   0  0  0  0  0  0  0  0  0  0  0  0
   -1.6304   -0.7729   -1.4123 H   0  0  0  0  0  0  0  0  0  0  0  0
  1  2  2  0
  2  3  1  0
  3  4  2  0
  4  5  1  0
  5  6  1  0
  6  7  1  0
  7  8  1  0
  8  9  1  0
  8  2  1  0
  9  5  1  0
  9  7  1  0
  3 10  1  0
  4 11  1  0
  5 12  1  0
  7 13  1  0
  8 14  1  0
  9 15  1  0
M  END
