
     RDKit          3D

 19 21  0  0  0  0  0  0  0  0999 V2000
    2.5911   -1.5532    1.1306 O   0  0  0  0  0  0  0  0  0  0  0  0
    2.0283   -0.6111    0.6045 C   0  0  0  0  0  0  0  0  0  0  0  0
    1.9206    0.8586    0.7956 C   0  0  0  0  0  0  0  0  0  0  0  0
    0.8253    0.9436   -0.2192 C   0  0  0  0  0  0  0  0  0  0  0  0
    1.1304   -0.5096   -0.5523 C   0  0  0  0  0  0  0  0  0  0  0  0
   -0.2237   -0.0505   -0.3116 C   0  0  0  0  0  0  0  0  0  0  0  0
   -1.3151    0.0352   -1.2868 C   0  0  0  0  0  0  0  0  0  0  0  0
   -2.2946   -0.2397   -0.1349 C   0  0  0  0  0  0  0  0  0  0  0  0
   -1.0998   -0.4967    0.7941 C   0  0  0  0  0  0  0  0  0  0  0  0
    1.6844    1.1634    1.8231 H   0  0  0  0  0  0  0  0  0  0  0  0
    2.8890    1.3271    0.4747 H   0  0  0  0  0  0  0  0  0  0  0  0
    1.0348    1.6293   -1.0663 H   0  0  0  0  0  0  0  0  0  0  0  0
    1.4796   -0.7655   -1.5668 H   0  0  0  0  0  0  0  0  0  0  0  0
   -1.2930   -0.7959   -2.0255 H   0  0  0  0  0  0  0  0  0  0  0  0
   -1.5063    1.0049   -1.7906 H   0  0  0  0  0  0  0  0  0  0  0  0
   -2.8866   -1.1400   -0.3175 H   0  0  0  0  0  0  0  0  0  0  0  0
   -2.8756    0.6520    0.1034 H   0  0  0  0  0  0  0  0  0  0  0  0
   -0.9823   -1.5559    1.0267 H   0  0  0  0  0  0  0  0  0  0  0  0
   -1.1063    0.1039    1.7124 H   0  0  0  0  0  0  0  0  0  0  0  0
  1  2  2  0
  2  3  1  0
  3  4  1  0
  4  5  1  0
  5  6  1  0
  6  7  1  0
  7  8  1  0
  8  9  1  0
  5  2  1  0
  9  6  1  0
  6  4  1  0
  3 10  1  0
  3 11  1  0
  4 12  1  0
  5 13  1  0
  7 14  1  0
  7 15  1  0
  8 16  1  0
  8 17  1  0
  9 18  1  0
  9 19  1  0
M  END
