
     RDKit          3D

 17 18  0  0  0  0  0  0  0  0999 V2000
   -0.8480    0.5488   -2.3970 O   0  0  0  0  0  0  0  0  0  0  0  0
   -0.8523    0.2611   -1.2179 C   0  0  0  0  0  0  0  0  0  0  0  0
   -0.8363   -1.0256   -0.4820 C   0  0  0  0  0  0  0  0  0  0  0  0
    0.5518   -1.5068   -0.2456 C   0  0  0  0  0  0  0  0  0  0  0  0
    1.6007   -0.7646    0.0947 C   0  0  0  0  0  0  0  0  0  0  0  0
    1.5893    0.6985    0.3711 C   0  0  0  0  0  0  0  0  0  0  0  0
    0.5441    1.5045    0.3110 C   0  0  0  0  0  0  0  0  0  0  0  0
   -0.8761    1.0999    0.0133 C   0  0  0  0  0  0  0  0  0  0  0  0
   -1.2149   -0.1885    0.7450 C   0  0  0  0  0  0  0  0  0  0  0  0
   -1.5579   -1.7750   -0.7767 H   0  0  0  0  0  0  0  0  0  0  0  0
    0.6690   -2.5666   -0.3746 H   0  0  0  0  0  0  0  0  0  0  0  0
    2.5572   -1.2611    0.1817 H   0  0  0  0  0  0  0  0  0  0  0  0
    2.5307    1.1409    0.6478 H   0  0  0  0  0  0  0  0  0  0  0  0
    0.6611    2.5589    0.4827 H   0  0  0  0  0  0  0  0  0  0  0  0
   -1.6033    1.8975    0.0596 H   0  0  0  0  0  0  0  0  0  0  0  0
   -2.2987   -0.1973    0.9694 H   0  0  0  0  0  0  0  0  0  0  0  0
   -0.6164   -0.4246    1.6174 H   0  0  0  0  0  0  0  0  0  0  0  0
  1  2  2  0
  2  3  1  0
  3  4  1  0
  4  5  2  0
  5  6  1  0
  6  7  2  0
  7  8  1  0
  8  9  1  0
  8  2  1  0
  9  3  1  0
  3 10  1  0
  4 11  1  0
  5 12  1  0
  6 13  1  0
  7 14  1  0
  8 15  1  0
  9 16  1  0
  9 17  1  0
M  END
