
     RDKit          3D

 19 20  0  0  0  0  0  0  0  0999 V2000
   -0.9215   -0.4864    2.3116 O   0  0  0  0  0  0  0  0  0  0  0  0
   -1.1166    0.0070    1.2158 C   0  0  0  0  0  0  0  0  0  0  0  0
   -2.2859    0.6875    0.5423 C   0  0  0  0  0  0  0  0  0  0  0  0
   -1.7265    0.1105   -0.7652 C   0  0  0  0  0  0  0  0  0  0  0  0
   -0.3874    0.2396   -0.0651 C   0  0  0  0  0  0  0  0  0  0  0  0
    0.6447   -0.7649   -0.4247 C   0  0  0  0  0  0  0  0  0  0  0  0
    1.7688   -0.9496    0.5197 C   0  0  0  0  0  0  0  0  0  0  0  0
    2.0266   -0.1905   -0.8109 C   0  0  0  0  0  0  0  0  0  0  0  0
    2.1730    1.1738   -0.7455 O   0  0  0  0  0  0  0  0  0  0  0  0
   -2.1544    1.7924    0.5007 H   0  0  0  0  0  0  0  0  0  0  0  0
   -3.2651    0.3128    0.8293 H   0  0  0  0  0  0  0  0  0  0  0  0
   -1.8516    0.7724   -1.6348 H   0  0  0  0  0  0  0  0  0  0  0  0
   -2.0461   -0.9403   -0.8906 H   0  0  0  0  0  0  0  0  0  0  0  0
   -0.0310    1.2967   -0.0790 H   0  0  0  0  0  0  0  0  0  0  0  0
    0.2839   -1.5916   -1.0722 H   0  0  0  0  0  0  0  0  0  0  0  0
    2.2784   -1.9245    0.5834 H   0  0  0  0  0  0  0  0  0  0  0  0
    1.8054   -0.2952    1.3978 H   0  0  0  0  0  0  0  0  0  0  0  0
    2.5910   -0.7594   -1.5916 H   0  0  0  0  0  0  0  0  0  0  0  0
    2.2143    1.5099    0.1791 H   0  0  0  0  0  0  0  0  0  0  0  0
  1  2  2  0
  2  3  1  0
  3  4  1  0
  4  5  1  0
  5  6  1  0
  6  7  1  0
  7  8  1  0
  8  9  1  0
  5  2  1  0
  8  6  1  0
  3 10  1  0
  3 11  1  0
  4 12  1  0
  4 13  1  0
  5 14  1  0
  6 15  1  0
  7 16  1  0
  7 17  1  0
  8 18  1  0
  9 19  1  0
M  END
