
     RDKit          3D

 17 18  0  0  0  0  0  0  0  0999 V2000
    0.7719   -1.0129    2.0754 O   0  0  0  0  0  0  0  0  0  0  0  0
    0.7396   -0.7176    0.9106 C   0  0  0  0  0  0  0  0  0  0  0  0
    1.7170   -0.7371   -0.2048 C   0  0  0  0  0  0  0  0  0  0  0  0
    0.9530    0.4939   -0.7199 C   0  0  0  0  0  0  0  0  0  0  0  0
    1.3012    1.6228    0.0287 O   0  0  0  0  0  0  0  0  0  0  0  0
   -0.2100   -0.1957   -0.0568 C   0  0  0  0  0  0  0  0  0  0  0  0
   -1.3509    0.6076    0.3631 C   0  0  0  0  0  0  0  0  0  0  0  0
   -2.0995   -0.4648   -0.3841 C   0  0  0  0  0  0  0  0  0  0  0  0
   -0.9283   -1.0720   -0.8208 O   0  0  0  0  0  0  0  0  0  0  0  0
    2.7581   -0.5576    0.0459 H   0  0  0  0  0  0  0  0  0  0  0  0
    1.6018   -1.6063   -0.9025 H   0  0  0  0  0  0  0  0  0  0  0  0
    0.9263    0.6052   -1.7941 H   0  0  0  0  0  0  0  0  0  0  0  0
    2.1594    1.9746   -0.2864 H   0  0  0  0  0  0  0  0  0  0  0  0
   -1.3781    1.6088   -0.1563 H   0  0  0  0  0  0  0  0  0  0  0  0
   -1.5939    0.7121    1.4288 H   0  0  0  0  0  0  0  0  0  0  0  0
   -2.6620   -1.1646    0.2660 H   0  0  0  0  0  0  0  0  0  0  0  0
   -2.7056   -0.0965   -1.2493 H   0  0  0  0  0  0  0  0  0  0  0  0
  1  2  2  0
  2  3  1  0
  3  4  1  0
  4  5  1  0
  4  6  1  0
  6  7  1  0
  7  8  1  0
  8  9  1  0
  6  2  1  0
  9  6  1  0
  3 10  1  0
  3 11  1  0
  4 12  1  0
  5 13  1  0
  7 14  1  0
  7 15  1  0
  8 16  1  0
  8 17  1  0
M  END
