
     RDKit          3D

 19 21  0  0  0  0  0  0  0  0999 V2000
   -2.2886    0.9003   -1.5022 O   0  0  0  0  0  0  0  0  0  0  0  0
   -1.4672    0.5665   -0.6642 C   0  0  0  0  0  0  0  0  0  0  0  0
   -0.4142    1.5474   -0.3259 C   0  0  0  0  0  0  0  0  0  0  0  0
    0.7737    0.9095    0.3290 C   0  0  0  0  0  0  0  0  0  0  0  0
    1.5235    0.0707   -0.6803 C   0  0  0  0  0  0  0  0  0  0  0  0
    0.9816   -1.1844   -0.1000 C   0  0  0  0  0  0  0  0  0  0  0  0
   -0.3407   -1.3339    0.4991 C   0  0  0  0  0  0  0  0  0  0  0  0
   -1.5958   -0.7652   -0.0724 C   0  0  0  0  0  0  0  0  0  0  0  0
    0.5077   -0.3123    1.1031 C   0  0  0  0  0  0  0  0  0  0  0  0
   -0.0477    1.9630   -1.3109 H   0  0  0  0  0  0  0  0  0  0  0  0
   -0.8352    2.3951    0.2205 H   0  0  0  0  0  0  0  0  0  0  0  0
    1.4044    1.6255    0.9009 H   0  0  0  0  0  0  0  0  0  0  0  0
    1.2732    0.2855   -1.7387 H   0  0  0  0  0  0  0  0  0  0  0  0
    2.6148    0.2077   -0.5265 H   0  0  0  0  0  0  0  0  0  0  0  0
    1.7512   -1.9524    0.1315 H   0  0  0  0  0  0  0  0  0  0  0  0
   -0.5043   -2.2397    1.1247 H   0  0  0  0  0  0  0  0  0  0  0  0
   -2.0478   -1.4849   -0.8155 H   0  0  0  0  0  0  0  0  0  0  0  0
   -2.3617   -0.7017    0.7423 H   0  0  0  0  0  0  0  0  0  0  0  0
    1.0732   -0.4966    2.0304 H   0  0  0  0  0  0  0  0  0  0  0  0
  1  2  2  0
  2  3  1  0
  3  4  1  0
  4  5  1  0
  5  6  1  0
  6  7  1  0
  7  8  1  0
  7  9  1  0
  8  2  1  0
  9  4  1  0
  9  6  1  0
  3 10  1  0
  3 11  1  0
  4 12  1  0
  5 13  1  0
  5 14  1  0
  6 15  1  0
  7 16  1  0
  8 17  1  0
  8 18  1  0
  9 19  1  0
M  END
