
     RDKit          3D

 15 17  0  0  0  0  0  0  0  0999 V2000
    1.0645   -1.1834    1.8864 O   0  0  0  0  0  0  0  0  0  0  0  0
    0.9008   -0.6050    0.8436 C   0  0  0  0  0  0  0  0  0  0  0  0
    1.8184   -0.1851   -0.2829 C   0  0  0  0  0  0  0  0  0  0  0  0
    1.8337    1.1327   -0.6676 O   0  0  0  0  0  0  0  0  0  0  0  0
    0.7781    0.3070   -1.0199 C   0  0  0  0  0  0  0  0  0  0  0  0
   -0.1774   -0.0038    0.0837 C   0  0  0  0  0  0  0  0  0  0  0  0
   -0.9916    1.0665    0.6562 C   0  0  0  0  0  0  0  0  0  0  0  0
   -2.1485    0.3488    0.2669 O   0  0  0  0  0  0  0  0  0  0  0  0
   -1.3981   -0.7525   -0.2083 C   0  0  0  0  0  0  0  0  0  0  0  0
    2.7148   -0.7573   -0.4782 H   0  0  0  0  0  0  0  0  0  0  0  0
    0.5538    0.0771   -2.0632 H   0  0  0  0  0  0  0  0  0  0  0  0
   -0.8644    2.0308    0.1153 H   0  0  0  0  0  0  0  0  0  0  0  0
   -0.8977    1.1481    1.7729 H   0  0  0  0  0  0  0  0  0  0  0  0
   -1.6332   -1.6574    0.3777 H   0  0  0  0  0  0  0  0  0  0  0  0
   -1.5531   -0.9664   -1.2825 H   0  0  0  0  0  0  0  0  0  0  0  0
  1  2  2  0
  2  3  1  0
  3  4  1  0
  4  5  1  0
  5  6  1  0
  6  7  1  0
  7  8  1  0
  8  9  1  0
  6  2  1  0
  5  3  1  0
  9  6  1  0
  3 10  1  0
  5 11  1  0
  7 12  1  0
  7 13  1  0
  9 14  1  0
  9 15  1  0
M  END
