
     RDKit          3D

 14 16  0  0  0  0  0  0  0  0999 V2000
   -1.9451    1.3274    1.3324 O   0  0  0  0  0  0  0  0  0  0  0  0
   -1.2402    0.5989    0.6628 C   0  0  0  0  0  0  0  0  0  0  0  0
   -0.4880    0.7922   -0.6109 C   0  0  0  0  0  0  0  0  0  0  0  0
    0.9137    1.1514   -0.2844 C   0  0  0  0  0  0  0  0  0  0  0  0
    1.5586    0.1045    0.1979 C   0  0  0  0  0  0  0  0  0  0  0  0
    0.6213   -1.0822    0.2389 C   0  0  0  0  0  0  0  0  0  0  0  0
   -0.7523   -0.7847    0.7059 C   0  0  0  0  0  0  0  0  0  0  0  0
   -0.4210   -0.6954   -0.7236 C   0  0  0  0  0  0  0  0  0  0  0  0
   -0.9810    1.3473   -1.3945 H   0  0  0  0  0  0  0  0  0  0  0  0
    1.3273    2.1253   -0.4259 H   0  0  0  0  0  0  0  0  0  0  0  0
    2.5903    0.0688    0.5203 H   0  0  0  0  0  0  0  0  0  0  0  0
    1.0180   -2.0879    0.1591 H   0  0  0  0  0  0  0  0  0  0  0  0
   -1.3745   -1.5871    1.1398 H   0  0  0  0  0  0  0  0  0  0  0  0
   -0.8272   -1.2785   -1.5177 H   0  0  0  0  0  0  0  0  0  0  0  0
  1  2  2  0
  2  3  1  0
  3  4  1  0
  4  5  2  0
  5  6  1  0
  6  7  1  0
  7  8  1  0
  7  2  1  0
  8  3  1  0
  8  6  1  0
  3  9  1  0
  4 10  1  0
  5 11  1  0
  6 12  1  0
  7 13  1  0
  8 14  1  0
M  END
