
     RDKit          3D

 17 18  0  0  0  0  0  0  0  0999 V2000
    1.4966   -0.4542   -2.1398 O   0  0  0  0  0  0  0  0  0  0  0  0
    0.9313   -0.2081   -1.1018 C   0  0  0  0  0  0  0  0  0  0  0  0
    1.7007   -0.1093    0.1511 C   0  0  0  0  0  0  0  0  0  0  0  0
    0.7259    0.0971    1.2617 C   0  0  0  0  0  0  0  0  0  0  0  0
    1.1949    0.2667    2.3885 O   0  0  0  0  0  0  0  0  0  0  0  0
   -0.7107    0.0891    0.9707 C   0  0  0  0  0  0  0  0  0  0  0  0
   -1.1026   -0.9692   -0.0543 C   0  0  0  0  0  0  0  0  0  0  0  0
   -0.5201   -0.0089   -1.0959 C   0  0  0  0  0  0  0  0  0  0  0  0
   -0.9424    1.1102   -0.1542 C   0  0  0  0  0  0  0  0  0  0  0  0
    2.4619    0.7129    0.1232 H   0  0  0  0  0  0  0  0  0  0  0  0
    2.2926   -1.0339    0.3746 H   0  0  0  0  0  0  0  0  0  0  0  0
   -1.3825    0.1796    1.8204 H   0  0  0  0  0  0  0  0  0  0  0  0
   -2.2087   -0.9718   -0.1434 H   0  0  0  0  0  0  0  0  0  0  0  0
   -0.5984   -1.9245    0.0295 H   0  0  0  0  0  0  0  0  0  0  0  0
   -1.0487   -0.0371   -2.0492 H   0  0  0  0  0  0  0  0  0  0  0  0
   -0.2765    1.9701   -0.1197 H   0  0  0  0  0  0  0  0  0  0  0  0
   -2.0133    1.2914   -0.2616 H   0  0  0  0  0  0  0  0  0  0  0  0
  1  2  2  0
  2  3  1  0
  3  4  1  0
  4  5  2  0
  4  6  1  0
  6  7  1  0
  7  8  1  0
  8  9  1  0
  8  2  1  0
  9  6  1  0
  3 10  1  0
  3 11  1  0
  6 12  1  0
  7 13  1  0
  7 14  1  0
  8 15  1  0
  9 16  1  0
  9 17  1  0
M  END
