
     RDKit          3D

 16 16  0  0  0  0  0  0  0  0999 V2000
   -0.8371    2.5913   -0.5478 O   0  0  0  0  0  0  0  0  0  0  0  0
   -0.7855    1.3946   -0.1602 C   0  0  0  0  0  0  0  0  0  0  0  0
   -0.9384    0.1458   -0.9907 C   0  0  0  0  0  0  0  0  0  0  0  0
   -0.1772   -0.8308   -0.0881 C   0  0  0  0  0  0  0  0  0  0  0  0
    1.2867   -0.5238   -0.2695 C   0  0  0  0  0  0  0  0  0  0  0  0
    1.5394    0.7972    0.1017 O   0  0  0  0  0  0  0  0  0  0  0  0
   -0.6842   -0.3863    1.2667 C   0  0  0  0  0  0  0  0  0  0  0  0
   -0.5664    1.0140    1.1744 O   0  0  0  0  0  0  0  0  0  0  0  0
   -0.4847    0.2391   -1.9721 H   0  0  0  0  0  0  0  0  0  0  0  0
   -1.9834   -0.1565   -0.9588 H   0  0  0  0  0  0  0  0  0  0  0  0
   -0.4066   -1.8614   -0.3335 H   0  0  0  0  0  0  0  0  0  0  0  0
    1.9560   -1.1910    0.2773 H   0  0  0  0  0  0  0  0  0  0  0  0
    1.5049   -0.6426   -1.3564 H   0  0  0  0  0  0  0  0  0  0  0  0
    2.4683    0.8576    0.4546 H   0  0  0  0  0  0  0  0  0  0  0  0
   -1.7723   -0.6268    1.2978 H   0  0  0  0  0  0  0  0  0  0  0  0
   -0.1193   -0.8203    2.1044 H   0  0  0  0  0  0  0  0  0  0  0  0
  1  2  2  0
  2  3  1  0
  3  4  1  0
  4  5  1  0
  5  6  1  0
  4  7  1  0
  7  8  1  0
  8  2  1  0
  3  9  1  0
  3 10  1  0
  4 11  1  0
  5 12  1  0
  5 13  1  0
  6 14  1  0
  7 15  1  0
  7 16  1  0
M  END
