
     RDKit          3D

 17 17  0  0  0  0  0  0  0  0999 V2000
    0.3171   -2.1767   -0.5978 O   0  0  0  0  0  0  0  0  0  0  0  0
    0.8570   -1.1102   -0.2505 C   0  0  0  0  0  0  0  0  0  0  0  0
    2.0091   -1.0918    0.5604 O   0  0  0  0  0  0  0  0  0  0  0  0
    2.1919    0.2680    0.9122 C   0  0  0  0  0  0  0  0  0  0  0  0
    0.9646    0.9012    0.6913 O   0  0  0  0  0  0  0  0  0  0  0  0
    0.5590    0.2939   -0.5037 C   0  0  0  0  0  0  0  0  0  0  0  0
   -0.8726    0.5900   -0.8237 C   0  0  0  0  0  0  0  0  0  0  0  0
   -1.8272    0.2059    0.2622 C   0  0  0  0  0  0  0  0  0  0  0  0
   -1.8116   -1.1353    0.5765 O   0  0  0  0  0  0  0  0  0  0  0  0
    2.5020    0.3584    1.9814 H   0  0  0  0  0  0  0  0  0  0  0  0
    2.9252    0.7777    0.2502 H   0  0  0  0  0  0  0  0  0  0  0  0
    1.1976    0.7298   -1.2980 H   0  0  0  0  0  0  0  0  0  0  0  0
   -0.9569    1.6881   -0.9696 H   0  0  0  0  0  0  0  0  0  0  0  0
   -1.1605    0.0844   -1.7411 H   0  0  0  0  0  0  0  0  0  0  0  0
   -2.8546    0.4438   -0.1026 H   0  0  0  0  0  0  0  0  0  0  0  0
   -1.7010    0.8085    1.1920 H   0  0  0  0  0  0  0  0  0  0  0  0
   -2.3391   -1.6357   -0.1159 H   0  0  0  0  0  0  0  0  0  0  0  0
  1  2  2  0
  2  3  1  0
  3  4  1  0
  4  5  1  0
  5  6  1  0
  6  7  1  0
  7  8  1  0
  8  9  1  0
  6  2  1  0
  4 10  1  0
  4 11  1  0
  6 12  1  0
  7 13  1  0
  7 14  1  0
  8 15  1  0
  8 16  1  0
  9 17  1  0
M  END
