
     RDKit          3D

 19 20  0  0  0  0  0  0  0  0999 V2000
    0.2666    2.4884    0.5624 O   0  0  0  0  0  0  0  0  0  0  0  0
    0.2236    1.2822    0.5454 C   0  0  0  0  0  0  0  0  0  0  0  0
    1.4633    0.5259    0.7481 C   0  0  0  0  0  0  0  0  0  0  0  0
    1.6524   -0.4373   -0.3790 C   0  0  0  0  0  0  0  0  0  0  0  0
    0.7199   -1.3319   -0.6294 O   0  0  0  0  0  0  0  0  0  0  0  0
   -0.5840   -1.1140   -0.5913 C   0  0  0  0  0  0  0  0  0  0  0  0
   -1.1847   -0.7607    0.7498 C   0  0  0  0  0  0  0  0  0  0  0  0
   -1.1262    0.6849    0.3133 C   0  0  0  0  0  0  0  0  0  0  0  0
   -1.1169    0.1676   -1.1258 C   0  0  0  0  0  0  0  0  0  0  0  0
    1.4718   -0.0250    1.7234 H   0  0  0  0  0  0  0  0  0  0  0  0
    2.3128    1.2380    0.7173 H   0  0  0  0  0  0  0  0  0  0  0  0
    1.9130    0.1781   -1.2884 H   0  0  0  0  0  0  0  0  0  0  0  0
    2.6220   -0.9753   -0.1445 H   0  0  0  0  0  0  0  0  0  0  0  0
   -1.1584   -1.9754   -1.0076 H   0  0  0  0  0  0  0  0  0  0  0  0
   -2.2464   -1.0759    0.8716 H   0  0  0  0  0  0  0  0  0  0  0  0
   -0.5558   -1.0122    1.6227 H   0  0  0  0  0  0  0  0  0  0  0  0
   -1.9785    1.3112    0.5794 H   0  0  0  0  0  0  0  0  0  0  0  0
   -0.4975    0.7351   -1.8201 H   0  0  0  0  0  0  0  0  0  0  0  0
   -2.1971    0.0962   -1.4473 H   0  0  0  0  0  0  0  0  0  0  0  0
  1  2  2  0
  2  3  1  0
  3  4  1  0
  4  5  1  0
  5  6  1  0
  6  7  1  0
  7  8  1  0
  8  9  1  0
  8  2  1  0
  9  6  1  0
  3 10  1  0
  3 11  1  0
  4 12  1  0
  4 13  1  0
  6 14  1  0
  7 15  1  0
  7 16  1  0
  8 17  1  0
  9 18  1  0
  9 19  1  0
M  END
