
     RDKit          3D

 15 16  0  0  0  0  0  0  0  0999 V2000
    3.0906    1.0248   -1.0135 O   0  0  0  0  0  0  0  0  0  0  0  0
    2.0073    0.4756   -0.6236 C   0  0  0  0  0  0  0  0  0  0  0  0
    1.8829   -0.4789    0.4697 C   0  0  0  0  0  0  0  0  0  0  0  0
    0.6223   -0.8449    0.6021 C   0  0  0  0  0  0  0  0  0  0  0  0
   -0.1523   -0.1448   -0.4045 C   0  0  0  0  0  0  0  0  0  0  0  0
   -1.4777   -0.5545   -0.8662 C   0  0  0  0  0  0  0  0  0  0  0  0
   -1.4128    0.6171    0.0360 C   0  0  0  0  0  0  0  0  0  0  0  0
   -1.6634    0.5100    1.3837 O   0  0  0  0  0  0  0  0  0  0  0  0
    0.7307    0.6380   -1.1163 O   0  0  0  0  0  0  0  0  0  0  0  0
    2.7427   -0.8094    1.0616 H   0  0  0  0  0  0  0  0  0  0  0  0
    0.2733   -1.5408    1.3380 H   0  0  0  0  0  0  0  0  0  0  0  0
   -1.8990   -1.4807   -0.3965 H   0  0  0  0  0  0  0  0  0  0  0  0
   -1.7509   -0.4319   -1.9313 H   0  0  0  0  0  0  0  0  0  0  0  0
   -1.5739    1.6468   -0.3646 H   0  0  0  0  0  0  0  0  0  0  0  0
   -1.4197    1.3736    1.8254 H   0  0  0  0  0  0  0  0  0  0  0  0
  1  2  2  0
  2  3  1  0
  3  4  2  0
  4  5  1  0
  5  6  1  0
  6  7  1  0
  7  8  1  0
  5  9  1  0
  9  2  1  0
  7  5  1  0
  3 10  1  0
  4 11  1  0
  6 12  1  0
  6 13  1  0
  7 14  1  0
  8 15  1  0
M  END
