
     RDKit          3D

 17 19  0  0  0  0  0  0  0  0999 V2000
    2.4063    1.4466    0.0229 O   0  0  0  0  0  0  0  0  0  0  0  0
    1.4658    0.7011    0.1737 C   0  0  0  0  0  0  0  0  0  0  0  0
    1.5329   -0.7385    0.5453 C   0  0  0  0  0  0  0  0  0  0  0  0
    0.1161   -1.1668    0.1667 C   0  0  0  0  0  0  0  0  0  0  0  0
    0.0160   -0.8759   -1.2162 O   0  0  0  0  0  0  0  0  0  0  0  0
   -0.5209    0.3871   -1.2206 C   0  0  0  0  0  0  0  0  0  0  0  0
   -1.7559    0.1820   -0.3354 C   0  0  0  0  0  0  0  0  0  0  0  0
   -0.6817   -0.0374    0.7269 C   0  0  0  0  0  0  0  0  0  0  0  0
    0.0636    1.0859    0.0152 C   0  0  0  0  0  0  0  0  0  0  0  0
    2.2495   -1.3082   -0.0772 H   0  0  0  0  0  0  0  0  0  0  0  0
    1.7106   -0.8832    1.6333 H   0  0  0  0  0  0  0  0  0  0  0  0
   -0.1514   -2.1603    0.4401 H   0  0  0  0  0  0  0  0  0  0  0  0
   -0.6300    0.9513   -2.1045 H   0  0  0  0  0  0  0  0  0  0  0  0
   -2.2713   -0.7842   -0.5209 H   0  0  0  0  0  0  0  0  0  0  0  0
   -2.3723    1.0618   -0.1837 H   0  0  0  0  0  0  0  0  0  0  0  0
   -0.9208    0.0520    1.7392 H   0  0  0  0  0  0  0  0  0  0  0  0
   -0.2565    2.0867    0.1953 H   0  0  0  0  0  0  0  0  0  0  0  0
  1  2  2  0
  2  3  1  0
  3  4  1  0
  4  5  1  0
  5  6  1  0
  6  7  1  0
  7  8  1  0
  8  9  1  0
  9  2  1  0
  8  4  1  0
  9  6  1  0
  3 10  1  0
  3 11  1  0
  4 12  1  0
  6 13  1  0
  7 14  1  0
  7 15  1  0
  8 16  1  0
  9 17  1  0
M  END
