
     RDKit          3D

 17 18  0  0  0  0  0  0  0  0999 V2000
   -3.6134   -0.3058    0.2247 O   0  0  0  0  0  0  0  0  0  0  0  0
   -2.3844   -0.1079    0.2702 C   0  0  0  0  0  0  0  0  0  0  0  0
   -1.4729    0.0784   -0.8982 C   0  0  0  0  0  0  0  0  0  0  0  0
   -0.4062    0.8419   -0.1777 C   0  0  0  0  0  0  0  0  0  0  0  0
    0.7760    0.5057    0.4826 C   0  0  0  0  0  0  0  0  0  0  0  0
    1.8763   -0.1356   -0.3757 C   0  0  0  0  0  0  0  0  0  0  0  0
    2.9363   -0.3848    0.4602 O   0  0  0  0  0  0  0  0  0  0  0  0
   -0.2946   -0.2656    0.9527 C   0  0  0  0  0  0  0  0  0  0  0  0
   -1.5909   -0.0164    1.4102 O   0  0  0  0  0  0  0  0  0  0  0  0
   -1.9151    0.7163   -1.6824 H   0  0  0  0  0  0  0  0  0  0  0  0
   -1.1227   -0.8966   -1.2347 H   0  0  0  0  0  0  0  0  0  0  0  0
   -0.8885    1.8156    0.1585 H   0  0  0  0  0  0  0  0  0  0  0  0
    1.2455    1.2469    1.1884 H   0  0  0  0  0  0  0  0  0  0  0  0
    2.2308    0.5824   -1.1555 H   0  0  0  0  0  0  0  0  0  0  0  0
    1.5199   -1.0913   -0.8136 H   0  0  0  0  0  0  0  0  0  0  0  0
    3.3861   -1.2458    0.3003 H   0  0  0  0  0  0  0  0  0  0  0  0
   -0.2822   -1.3373    0.5760 H   0  0  0  0  0  0  0  0  0  0  0  0
  1  2  2  0
  2  3  1  0
  3  4  1  0
  4  5  1  0
  5  6  1  0
  6  7  1  0
  5  8  1  0
  8  9  1  0
  9  2  1  0
  8  4  1  0
  3 10  1  0
  3 11  1  0
  4 12  1  0
  5 13  1  0
  6 14  1  0
  6 15  1  0
  7 16  1  0
  8 17  1  0
M  END
