
     RDKit          3D

 12 14  0  0  0  0  0  0  0  0999 V2000
   -0.5345    1.9612    1.1570 O   0  0  0  0  0  0  0  0  0  0  0  0
   -0.5993    0.8738    0.6644 C   0  0  0  0  0  0  0  0  0  0  0  0
   -1.5003   -0.2781    0.4068 C   0  0  0  0  0  0  0  0  0  0  0  0
   -2.0256   -0.6958   -0.7259 O   0  0  0  0  0  0  0  0  0  0  0  0
   -0.8022   -0.1930   -0.9852 C   0  0  0  0  0  0  0  0  0  0  0  0
    0.3484   -0.0301   -0.0633 C   0  0  0  0  0  0  0  0  0  0  0  0
    1.6676   -0.0619   -0.1360 C   0  0  0  0  0  0  0  0  0  0  0  0
    0.8763   -1.1385    0.5292 O   0  0  0  0  0  0  0  0  0  0  0  0
   -1.0938   -1.1490    1.0191 H   0  0  0  0  0  0  0  0  0  0  0  0
   -0.9443    0.7847   -1.5515 H   0  0  0  0  0  0  0  0  0  0  0  0
    2.2698   -0.4345   -0.9842 H   0  0  0  0  0  0  0  0  0  0  0  0
    2.3379    0.3613    0.6697 H   0  0  0  0  0  0  0  0  0  0  0  0
  1  2  2  0
  2  3  1  0
  3  4  1  0
  4  5  1  0
  5  6  1  0
  6  7  1  0
  7  8  1  0
  6  2  1  0
  5  3  1  0
  8  6  1  0
  3  9  1  0
  5 10  1  0
  7 11  1  0
  7 12  1  0
M  END
