
     RDKit          3D

 17 19  0  0  0  0  0  0  0  0999 V2000
    3.1966   -0.6540    0.6616 O   0  0  0  0  0  0  0  0  0  0  0  0
    2.1141   -0.2064    0.2199 C   0  0  0  0  0  0  0  0  0  0  0  0
    1.9001    0.7331   -0.8188 O   0  0  0  0  0  0  0  0  0  0  0  0
    0.4811    0.7161   -0.9223 C   0  0  0  0  0  0  0  0  0  0  0  0
    0.0707   -0.7245   -0.7211 C   0  0  0  0  0  0  0  0  0  0  0  0
   -1.3740   -0.7071   -0.3384 C   0  0  0  0  0  0  0  0  0  0  0  0
   -1.3833    0.5752    0.5193 C   0  0  0  0  0  0  0  0  0  0  0  0
    0.0931    0.8406    0.5513 C   0  0  0  0  0  0  0  0  0  0  0  0
    0.7534   -0.5155    0.6389 C   0  0  0  0  0  0  0  0  0  0  0  0
   -0.0082    1.3202   -1.6313 H   0  0  0  0  0  0  0  0  0  0  0  0
    0.4635   -1.4761   -1.3565 H   0  0  0  0  0  0  0  0  0  0  0  0
   -2.0709   -0.6251   -1.1762 H   0  0  0  0  0  0  0  0  0  0  0  0
   -1.5687   -1.5314    0.3527 H   0  0  0  0  0  0  0  0  0  0  0  0
   -1.7943    0.3844    1.5194 H   0  0  0  0  0  0  0  0  0  0  0  0
   -1.8848    1.3906   -0.0246 H   0  0  0  0  0  0  0  0  0  0  0  0
    0.4874    1.6542    1.1050 H   0  0  0  0  0  0  0  0  0  0  0  0
    0.5241   -1.1742    1.4209 H   0  0  0  0  0  0  0  0  0  0  0  0
  1  2  2  0
  2  3  1  0
  3  4  1  0
  4  5  1  0
  5  6  1  0
  6  7  1  0
  7  8  1  0
  8  9  1  0
  9  2  1  0
  8  4  1  0
  9  5  1  0
  4 10  1  0
  5 11  1  0
  6 12  1  0
  6 13  1  0
  7 14  1  0
  7 15  1  0
  8 16  1  0
  9 17  1  0
M  END
