
     RDKit          3D

 15 17  0  0  0  0  0  0  0  0999 V2000
    0.7620    2.3380   -0.5799 O   0  0  0  0  0  0  0  0  0  0  0  0
    0.3510    1.2823   -0.2426 C   0  0  0  0  0  0  0  0  0  0  0  0
   -0.2168    0.1144   -1.0250 C   0  0  0  0  0  0  0  0  0  0  0  0
   -1.4797   -0.0503   -0.2018 C   0  0  0  0  0  0  0  0  0  0  0  0
   -1.1863    0.3905    1.0880 O   0  0  0  0  0  0  0  0  0  0  0  0
    0.2080    0.6261    1.1162 C   0  0  0  0  0  0  0  0  0  0  0  0
    0.9879   -0.6236    0.8517 C   0  0  0  0  0  0  0  0  0  0  0  0
    1.9926   -0.5910   -0.1447 O   0  0  0  0  0  0  0  0  0  0  0  0
    0.7321   -0.9693   -0.6141 C   0  0  0  0  0  0  0  0  0  0  0  0
   -0.3468    0.2995   -2.0623 H   0  0  0  0  0  0  0  0  0  0  0  0
   -1.6868   -1.1355   -0.1365 H   0  0  0  0  0  0  0  0  0  0  0  0
   -2.3355    0.4984   -0.6552 H   0  0  0  0  0  0  0  0  0  0  0  0
    0.5288    1.2439    1.9265 H   0  0  0  0  0  0  0  0  0  0  0  0
    1.1019   -1.4127    1.5867 H   0  0  0  0  0  0  0  0  0  0  0  0
    0.5876   -2.0105   -0.9069 H   0  0  0  0  0  0  0  0  0  0  0  0
  1  2  2  0
  2  3  1  0
  3  4  1  0
  4  5  1  0
  5  6  1  0
  6  7  1  0
  7  8  1  0
  8  9  1  0
  6  2  1  0
  9  7  1  0
  9  3  1  0
  3 10  1  0
  4 11  1  0
  4 12  1  0
  6 13  1  0
  7 14  1  0
  9 15  1  0
M  END
