
     RDKit          3D

 19 19  0  0  0  0  0  0  0  0999 V2000
   -1.5547    2.2428    1.0571 O   0  0  0  0  0  0  0  0  0  0  0  0
   -0.9918    1.3615    0.3292 C   0  0  0  0  0  0  0  0  0  0  0  0
    0.3365    1.7428   -0.0729 C   0  0  0  0  0  0  0  0  0  0  0  0
    1.5034    1.1539   -0.2958 C   0  0  0  0  0  0  0  0  0  0  0  0
    1.9850   -0.2445   -0.2245 C   0  0  0  0  0  0  0  0  0  0  0  0
    0.9719   -1.2439   -0.6086 C   0  0  0  0  0  0  0  0  0  0  0  0
   -0.2575   -1.5772   -0.2686 C   0  0  0  0  0  0  0  0  0  0  0  0
   -1.1897   -1.0009    0.7492 C   0  0  0  0  0  0  0  0  0  0  0  0
   -1.8660    0.1831    0.0981 C   0  0  0  0  0  0  0  0  0  0  0  0
    0.4005    2.8305   -0.2420 H   0  0  0  0  0  0  0  0  0  0  0  0
    2.2795    1.8774   -0.6015 H   0  0  0  0  0  0  0  0  0  0  0  0
    2.3188   -0.5116    0.8178 H   0  0  0  0  0  0  0  0  0  0  0  0
    2.8815   -0.3125   -0.8624 H   0  0  0  0  0  0  0  0  0  0  0  0
    1.3319   -1.8921   -1.3918 H   0  0  0  0  0  0  0  0  0  0  0  0
   -0.7157   -2.3973   -0.7795 H   0  0  0  0  0  0  0  0  0  0  0  0
   -1.9721   -1.7598    1.0309 H   0  0  0  0  0  0  0  0  0  0  0  0
   -0.6002   -0.7309    1.6432 H   0  0  0  0  0  0  0  0  0  0  0  0
   -2.8432    0.3174    0.6048 H   0  0  0  0  0  0  0  0  0  0  0  0
   -2.0183   -0.0386   -0.9828 H   0  0  0  0  0  0  0  0  0  0  0  0
  1  2  2  0
  2  3  1  0
  3  4  2  3
  4  5  1  0
  5  6  1  0
  6  7  2  3
  7  8  1  0
  8  9  1  0
  9  2  1  0
  3 10  1  0
  4 11  1  0
  5 12  1  0
  5 13  1  0
  6 14  1  0
  7 15  1  0
  8 16  1  0
  8 17  1  0
  9 18  1  0
  9 19  1  0
M  END
