
     RDKit          3D

 17 18  0  0  0  0  0  0  0  0999 V2000
    0.1523   -2.0611   -1.6123 O   0  0  0  0  0  0  0  0  0  0  0  0
    0.0116   -1.2242   -0.7656 C   0  0  0  0  0  0  0  0  0  0  0  0
   -0.5944   -1.4262    0.5740 C   0  0  0  0  0  0  0  0  0  0  0  0
   -0.4339   -0.0416    1.2255 C   0  0  0  0  0  0  0  0  0  0  0  0
    0.8975    0.2282    1.4180 O   0  0  0  0  0  0  0  0  0  0  0  0
    1.5051    0.3916    0.1749 C   0  0  0  0  0  0  0  0  0  0  0  0
    0.3982    0.1963   -0.8369 C   0  0  0  0  0  0  0  0  0  0  0  0
   -0.7568    0.8069   -0.0200 C   0  0  0  0  0  0  0  0  0  0  0  0
   -0.5698    2.1324    0.2299 O   0  0  0  0  0  0  0  0  0  0  0  0
   -1.6909   -1.6017    0.5280 H   0  0  0  0  0  0  0  0  0  0  0  0
   -0.0716   -2.1982    1.1675 H   0  0  0  0  0  0  0  0  0  0  0  0
   -1.0847    0.1387    2.0504 H   0  0  0  0  0  0  0  0  0  0  0  0
    2.2230   -0.4599    0.0073 H   0  0  0  0  0  0  0  0  0  0  0  0
    2.0488    1.3293    0.0638 H   0  0  0  0  0  0  0  0  0  0  0  0
    0.5390    0.6282   -1.7912 H   0  0  0  0  0  0  0  0  0  0  0  0
   -1.7291    0.5071   -0.3931 H   0  0  0  0  0  0  0  0  0  0  0  0
   -0.8444    2.6540   -0.5387 H   0  0  0  0  0  0  0  0  0  0  0  0
  1  2  2  0
  2  3  1  0
  3  4  1  0
  4  5  1  0
  5  6  1  0
  6  7  1  0
  7  8  1  0
  8  9  1  0
  7  2  1  0
  8  4  1  0
  3 10  1  0
  3 11  1  0
  4 12  1  0
  6 13  1  0
  6 14  1  0
  7 15  1  0
  8 16  1  0
  9 17  1  0
M  END
