
     RDKit          3D

 17 18  0  0  0  0  0  0  0  0999 V2000
    2.7681    0.2919    0.5026 O   0  0  0  0  0  0  0  0  0  0  0  0
    1.5811    0.1177    0.3922 C   0  0  0  0  0  0  0  0  0  0  0  0
    0.5608    1.1858    0.6996 C   0  0  0  0  0  0  0  0  0  0  0  0
   -0.4437    1.1630   -0.4191 C   0  0  0  0  0  0  0  0  0  0  0  0
   -0.7266   -0.2136   -0.9402 C   0  0  0  0  0  0  0  0  0  0  0  0
   -1.2273   -1.0472    0.2285 C   0  0  0  0  0  0  0  0  0  0  0  0
   -0.0558   -1.5110    0.7835 O   0  0  0  0  0  0  0  0  0  0  0  0
    0.9854   -1.1914   -0.0665 C   0  0  0  0  0  0  0  0  0  0  0  0
    0.4049   -0.9075   -1.3176 O   0  0  0  0  0  0  0  0  0  0  0  0
    0.0939    0.8759    1.6788 H   0  0  0  0  0  0  0  0  0  0  0  0
    1.0332    2.1761    0.7968 H   0  0  0  0  0  0  0  0  0  0  0  0
   -0.1875    1.8960   -1.2061 H   0  0  0  0  0  0  0  0  0  0  0  0
   -1.4118    1.5393    0.0249 H   0  0  0  0  0  0  0  0  0  0  0  0
   -1.4277   -0.1516   -1.7656 H   0  0  0  0  0  0  0  0  0  0  0  0
   -1.8129   -0.3876    0.9085 H   0  0  0  0  0  0  0  0  0  0  0  0
   -1.8690   -1.8476   -0.1799 H   0  0  0  0  0  0  0  0  0  0  0  0
    1.7348   -1.9881   -0.1202 H   0  0  0  0  0  0  0  0  0  0  0  0
  1  2  2  0
  2  3  1  0
  3  4  1  0
  4  5  1  0
  5  6  1  0
  6  7  1  0
  7  8  1  0
  8  9  1  0
  8  2  1  0
  9  5  1  0
  3 10  1  0
  3 11  1  0
  4 12  1  0
  4 13  1  0
  5 14  1  0
  6 15  1  0
  6 16  1  0
  8 17  1  0
M  END
