
     RDKit          3D

 19 20  0  0  0  0  0  0  0  0999 V2000
   -1.2986    2.1205    0.3073 O   0  0  0  0  0  0  0  0  0  0  0  0
   -1.3782    0.9038    0.2340 C   0  0  0  0  0  0  0  0  0  0  0  0
   -2.2878   -0.0725   -0.3783 C   0  0  0  0  0  0  0  0  0  0  0  0
   -1.6166   -1.1734    0.4211 C   0  0  0  0  0  0  0  0  0  0  0  0
   -0.5256   -0.1996    0.7729 C   0  0  0  0  0  0  0  0  0  0  0  0
    0.7298   -0.3131   -0.0549 C   0  0  0  0  0  0  0  0  0  0  0  0
    1.4966    0.9954    0.0054 C   0  0  0  0  0  0  0  0  0  0  0  0
    2.6323    0.0160    0.0000 C   0  0  0  0  0  0  0  0  0  0  0  0
    1.8056   -0.8909    0.6594 O   0  0  0  0  0  0  0  0  0  0  0  0
   -3.3592    0.0486   -0.1090 H   0  0  0  0  0  0  0  0  0  0  0  0
   -2.1844   -0.2026   -1.4931 H   0  0  0  0  0  0  0  0  0  0  0  0
   -2.2121   -1.4342    1.3018 H   0  0  0  0  0  0  0  0  0  0  0  0
   -1.3222   -2.0586   -0.1403 H   0  0  0  0  0  0  0  0  0  0  0  0
   -0.2737   -0.1075    1.8409 H   0  0  0  0  0  0  0  0  0  0  0  0
    0.6107   -0.7122   -1.0647 H   0  0  0  0  0  0  0  0  0  0  0  0
    1.3578    1.4725    0.9717 H   0  0  0  0  0  0  0  0  0  0  0  0
    1.3951    1.6283   -0.8965 H   0  0  0  0  0  0  0  0  0  0  0  0
    2.8980   -0.3583   -1.0299 H   0  0  0  0  0  0  0  0  0  0  0  0
    3.5325    0.3379    0.5770 H   0  0  0  0  0  0  0  0  0  0  0  0
  1  2  2  0
  2  3  1  0
  3  4  1  0
  4  5  1  0
  5  6  1  0
  6  7  1  0
  7  8  1  0
  8  9  1  0
  5  2  1  0
  9  6  1  0
  3 10  1  0
  3 11  1  0
  4 12  1  0
  4 13  1  0
  5 14  1  0
  6 15  1  0
  7 16  1  0
  7 17  1  0
  8 18  1  0
  8 19  1  0
M  END
