
     RDKit          3D

 17 18  0  0  0  0  0  0  0  0999 V2000
   -1.8284    2.0236    0.3476 O   0  0  0  0  0  0  0  0  0  0  0  0
   -1.2656    1.0229    0.0141 C   0  0  0  0  0  0  0  0  0  0  0  0
   -1.3110   -0.4225    0.3517 C   0  0  0  0  0  0  0  0  0  0  0  0
   -2.4179   -1.0087   -0.2504 O   0  0  0  0  0  0  0  0  0  0  0  0
   -0.0217   -0.6569   -0.4092 C   0  0  0  0  0  0  0  0  0  0  0  0
    1.2323   -0.6035    0.3939 C   0  0  0  0  0  0  0  0  0  0  0  0
    1.7129    0.7979    0.2362 C   0  0  0  0  0  0  0  0  0  0  0  0
    0.9356    1.4545   -0.6621 O   0  0  0  0  0  0  0  0  0  0  0  0
   -0.1704    0.7193   -0.9695 C   0  0  0  0  0  0  0  0  0  0  0  0
   -1.2047   -0.6079    1.4307 H   0  0  0  0  0  0  0  0  0  0  0  0
   -2.7170   -1.8356    0.1798 H   0  0  0  0  0  0  0  0  0  0  0  0
   -0.0610   -1.4980   -1.1348 H   0  0  0  0  0  0  0  0  0  0  0  0
    1.9913   -1.3093   -0.0455 H   0  0  0  0  0  0  0  0  0  0  0  0
    1.0934   -0.9178    1.4559 H   0  0  0  0  0  0  0  0  0  0  0  0
    2.7725    0.8221   -0.1434 H   0  0  0  0  0  0  0  0  0  0  0  0
    1.7509    1.2910    1.2340 H   0  0  0  0  0  0  0  0  0  0  0  0
   -0.4913    0.7286   -2.0289 H   0  0  0  0  0  0  0  0  0  0  0  0
  1  2  2  0
  2  3  1  0
  3  4  1  0
  3  5  1  0
  5  6  1  0
  6  7  1  0
  7  8  1  0
  8  9  1  0
  9  2  1  0
  9  5  1  0
  3 10  1  0
  4 11  1  0
  5 12  1  0
  6 13  1  0
  6 14  1  0
  7 15  1  0
  7 16  1  0
  9 17  1  0
M  END
