
     RDKit          3D

 17 18  0  0  0  0  0  0  0  0999 V2000
    1.8745   -1.5563   -1.1246 O   0  0  0  0  0  0  0  0  0  0  0  0
    1.1788   -0.8583   -0.4356 C   0  0  0  0  0  0  0  0  0  0  0  0
    1.2806    0.5809   -0.0544 C   0  0  0  0  0  0  0  0  0  0  0  0
    2.5101    0.8002    0.5749 O   0  0  0  0  0  0  0  0  0  0  0  0
    0.0997    0.4694    0.8701 C   0  0  0  0  0  0  0  0  0  0  0  0
   -1.1204    1.1693    0.4235 C   0  0  0  0  0  0  0  0  0  0  0  0
   -1.8666    0.3833   -0.3342 C   0  0  0  0  0  0  0  0  0  0  0  0
   -1.2702   -0.9484   -0.5110 C   0  0  0  0  0  0  0  0  0  0  0  0
   -0.0566   -0.9333    0.3771 C   0  0  0  0  0  0  0  0  0  0  0  0
    1.0918    1.2935   -0.8649 H   0  0  0  0  0  0  0  0  0  0  0  0
    3.2017    0.5922   -0.1304 H   0  0  0  0  0  0  0  0  0  0  0  0
    0.2980    0.6115    1.9413 H   0  0  0  0  0  0  0  0  0  0  0  0
   -1.3610    2.1995    0.6916 H   0  0  0  0  0  0  0  0  0  0  0  0
   -2.8079    0.6925   -0.7708 H   0  0  0  0  0  0  0  0  0  0  0  0
   -1.0195   -1.0735   -1.5812 H   0  0  0  0  0  0  0  0  0  0  0  0
   -1.9920   -1.7415   -0.2539 H   0  0  0  0  0  0  0  0  0  0  0  0
   -0.0409   -1.6810    1.1825 H   0  0  0  0  0  0  0  0  0  0  0  0
  1  2  2  0
  2  3  1  0
  3  4  1  0
  3  5  1  0
  5  6  1  0
  6  7  2  0
  7  8  1  0
  8  9  1  0
  9  2  1  0
  9  5  1  0
  3 10  1  0
  4 11  1  0
  5 12  1  0
  6 13  1  0
  7 14  1  0
  8 15  1  0
  8 16  1  0
  9 17  1  0
M  END
