
     RDKit          3D

 17 18  0  0  0  0  0  0  0  0999 V2000
   -1.7836    0.9581    1.5269 O   0  0  0  0  0  0  0  0  0  0  0  0
   -1.1565    0.4899    0.6028 C   0  0  0  0  0  0  0  0  0  0  0  0
   -1.5235   -0.7546   -0.1127 C   0  0  0  0  0  0  0  0  0  0  0  0
   -0.2158   -1.2984   -0.6123 C   0  0  0  0  0  0  0  0  0  0  0  0
    0.5770   -0.0401   -0.8742 C   0  0  0  0  0  0  0  0  0  0  0  0
    1.4109    0.4083    0.2992 C   0  0  0  0  0  0  0  0  0  0  0  0
    1.4556   -0.3660    1.4425 O   0  0  0  0  0  0  0  0  0  0  0  0
    0.0594    1.0305    0.0094 C   0  0  0  0  0  0  0  0  0  0  0  0
    0.1090    2.3660   -0.3976 O   0  0  0  0  0  0  0  0  0  0  0  0
   -2.0223   -1.4929    0.5386 H   0  0  0  0  0  0  0  0  0  0  0  0
   -2.1351   -0.4588   -0.9852 H   0  0  0  0  0  0  0  0  0  0  0  0
   -0.3363   -1.9315   -1.5017 H   0  0  0  0  0  0  0  0  0  0  0  0
    0.2424   -1.8966    0.2270 H   0  0  0  0  0  0  0  0  0  0  0  0
    0.8535    0.2507   -1.8872 H   0  0  0  0  0  0  0  0  0  0  0  0
    2.2999    1.0009    0.0719 H   0  0  0  0  0  0  0  0  0  0  0  0
    1.9498   -1.2051    1.2495 H   0  0  0  0  0  0  0  0  0  0  0  0
    0.2155    2.9394    0.4031 H   0  0  0  0  0  0  0  0  0  0  0  0
  1  2  2  0
  2  3  1  0
  3  4  1  0
  4  5  1  0
  5  6  1  0
  6  7  1  0
  6  8  1  0
  8  9  1  0
  8  2  1  0
  8  5  1  0
  3 10  1  0
  3 11  1  0
  4 12  1  0
  4 13  1  0
  5 14  1  0
  6 15  1  0
  7 16  1  0
  9 17  1  0
M  END
