
     RDKit          3D

 17 19  0  0  0  0  0  0  0  0999 V2000
   -1.5480    1.2570   -1.9935 O   0  0  0  0  0  0  0  0  0  0  0  0
   -1.3622    0.6001   -0.9950 C   0  0  0  0  0  0  0  0  0  0  0  0
   -2.2322    0.0712    0.0849 C   0  0  0  0  0  0  0  0  0  0  0  0
   -1.1175   -0.9410    0.3946 C   0  0  0  0  0  0  0  0  0  0  0  0
   -0.2210   -0.0080   -0.3328 C   0  0  0  0  0  0  0  0  0  0  0  0
    0.8880    0.7046    0.2421 C   0  0  0  0  0  0  0  0  0  0  0  0
    2.3549    0.2475    0.2109 C   0  0  0  0  0  0  0  0  0  0  0  0
    2.1400    0.3725   -1.1881 O   0  0  0  0  0  0  0  0  0  0  0  0
    1.0184   -0.3935   -0.8905 C   0  0  0  0  0  0  0  0  0  0  0  0
   -2.3759    0.7926    0.9271 H   0  0  0  0  0  0  0  0  0  0  0  0
   -3.1581   -0.3697   -0.2892 H   0  0  0  0  0  0  0  0  0  0  0  0
   -0.8971   -1.0689    1.4546 H   0  0  0  0  0  0  0  0  0  0  0  0
   -1.2845   -1.8784   -0.1750 H   0  0  0  0  0  0  0  0  0  0  0  0
    0.8987    1.7704   -0.1562 H   0  0  0  0  0  0  0  0  0  0  0  0
    3.0495    1.0058    0.5866 H   0  0  0  0  0  0  0  0  0  0  0  0
    2.4626   -0.7628    0.5895 H   0  0  0  0  0  0  0  0  0  0  0  0
    1.3845   -1.3994   -0.5098 H   0  0  0  0  0  0  0  0  0  0  0  0
  1  2  2  0
  2  3  1  0
  3  4  1  0
  4  5  1  0
  5  6  1  0
  6  7  1  0
  7  8  1  0
  8  9  1  0
  5  2  1  0
  9  6  1  0
  9  5  1  0
  3 10  1  0
  3 11  1  0
  4 12  1  0
  4 13  1  0
  6 14  1  0
  7 15  1  0
  7 16  1  0
  9 17  1  0
M  END
