
     RDKit          3D

 19 20  0  0  0  0  0  0  0  0999 V2000
    3.3315   -0.3591    0.8269 O   0  0  0  0  0  0  0  0  0  0  0  0
    2.1624   -0.1968    0.5662 C   0  0  0  0  0  0  0  0  0  0  0  0
    1.6996    0.5765   -0.6532 C   0  0  0  0  0  0  0  0  0  0  0  0
    0.3234    0.0333   -0.7534 C   0  0  0  0  0  0  0  0  0  0  0  0
   -0.9392    0.4434   -0.3005 C   0  0  0  0  0  0  0  0  0  0  0  0
   -2.1048   -0.5476   -0.2973 C   0  0  0  0  0  0  0  0  0  0  0  0
   -3.2582    0.0535    0.1854 O   0  0  0  0  0  0  0  0  0  0  0  0
   -0.0245    0.3747    0.7544 C   0  0  0  0  0  0  0  0  0  0  0  0
    0.9223   -0.6505    1.2750 C   0  0  0  0  0  0  0  0  0  0  0  0
    1.6545    1.6487   -0.3547 H   0  0  0  0  0  0  0  0  0  0  0  0
    2.3481    0.3935   -1.5156 H   0  0  0  0  0  0  0  0  0  0  0  0
    0.4023   -1.0747   -0.9885 H   0  0  0  0  0  0  0  0  0  0  0  0
   -1.3115    1.4458   -0.6613 H   0  0  0  0  0  0  0  0  0  0  0  0
   -2.3178   -0.9133   -1.3198 H   0  0  0  0  0  0  0  0  0  0  0  0
   -1.8555   -1.3880    0.3933 H   0  0  0  0  0  0  0  0  0  0  0  0
   -3.1254    1.0320    0.0950 H   0  0  0  0  0  0  0  0  0  0  0  0
    0.3581    1.3803    1.1219 H   0  0  0  0  0  0  0  0  0  0  0  0
    1.0296   -0.5725    2.3678 H   0  0  0  0  0  0  0  0  0  0  0  0
    0.7052   -1.6791    0.9447 H   0  0  0  0  0  0  0  0  0  0  0  0
  1  2  2  0
  2  3  1  0
  3  4  1  0
  4  5  1  0
  5  6  1  0
  6  7  1  0
  5  8  1  0
  8  9  1  0
  9  2  1  0
  8  4  1  0
  3 10  1  0
  3 11  1  0
  4 12  1  0
  5 13  1  0
  6 14  1  0
  6 15  1  0
  7 16  1  0
  8 17  1  0
  9 18  1  0
  9 19  1  0
M  END
