
     RDKit          3D

 21 21  0  0  0  0  0  0  0  0999 V2000
    2.3968    2.1340   -0.0434 O   0  0  0  0  0  0  0  0  0  0  0  0
    1.4499    1.2838   -0.0969 C   0  0  0  0  0  0  0  0  0  0  0  0
    0.1802    1.8967   -0.4639 C   0  0  0  0  0  0  0  0  0  0  0  0
   -1.0720    1.5179   -0.2685 C   0  0  0  0  0  0  0  0  0  0  0  0
   -1.7414    0.3772    0.3679 C   0  0  0  0  0  0  0  0  0  0  0  0
   -1.3828   -0.9523   -0.1936 C   0  0  0  0  0  0  0  0  0  0  0  0
   -0.1784   -1.4988    0.5087 C   0  0  0  0  0  0  0  0  0  0  0  0
    1.0217   -1.1619   -0.3529 C   0  0  0  0  0  0  0  0  0  0  0  0
    1.8496   -0.0792    0.2156 C   0  0  0  0  0  0  0  0  0  0  0  0
    0.2836    2.8482   -1.0012 H   0  0  0  0  0  0  0  0  0  0  0  0
   -1.7559    2.2598   -0.6996 H   0  0  0  0  0  0  0  0  0  0  0  0
   -2.8382    0.5101    0.2587 H   0  0  0  0  0  0  0  0  0  0  0  0
   -1.5671    0.3493    1.4831 H   0  0  0  0  0  0  0  0  0  0  0  0
   -1.2287   -0.8337   -1.2893 H   0  0  0  0  0  0  0  0  0  0  0  0
   -2.2380   -1.6385   -0.0604 H   0  0  0  0  0  0  0  0  0  0  0  0
   -0.0024   -0.9836    1.4950 H   0  0  0  0  0  0  0  0  0  0  0  0
   -0.2573   -2.5920    0.7138 H   0  0  0  0  0  0  0  0  0  0  0  0
    1.6055   -2.0981   -0.4827 H   0  0  0  0  0  0  0  0  0  0  0  0
    0.7183   -0.8623   -1.3912 H   0  0  0  0  0  0  0  0  0  0  0  0
    1.8268   -0.1853    1.3415 H   0  0  0  0  0  0  0  0  0  0  0  0
    2.9299   -0.2913   -0.0406 H   0  0  0  0  0  0  0  0  0  0  0  0
  1  2  2  0
  2  3  1  0
  3  4  2  3
  4  5  1  0
  5  6  1  0
  6  7  1  0
  7  8  1  0
  8  9  1  0
  9  2  1  0
  3 10  1  0
  4 11  1  0
  5 12  1  0
  5 13  1  0
  6 14  1  0
  6 15  1  0
  7 16  1  0
  7 17  1  0
  8 18  1  0
  8 19  1  0
  9 20  1  0
  9 21  1  0
M  END
