
     RDKit          3D

 17 17  0  0  0  0  0  0  0  0999 V2000
   -2.9713   -0.6837   -1.2708 O   0  0  0  0  0  0  0  0  0  0  0  0
   -1.9913   -0.1791   -0.6602 C   0  0  0  0  0  0  0  0  0  0  0  0
   -1.0879   -0.7984    0.3200 C   0  0  0  0  0  0  0  0  0  0  0  0
    0.0924    0.1468    0.4080 C   0  0  0  0  0  0  0  0  0  0  0  0
    0.2380    0.6921    1.6817 O   0  0  0  0  0  0  0  0  0  0  0  0
    1.3366   -0.6827    0.1459 C   0  0  0  0  0  0  0  0  0  0  0  0
    2.4965    0.0923    0.1990 O   0  0  0  0  0  0  0  0  0  0  0  0
   -0.1382    1.1876   -0.6493 C   0  0  0  0  0  0  0  0  0  0  0  0
   -1.5560    1.1342   -0.8079 O   0  0  0  0  0  0  0  0  0  0  0  0
   -1.5518   -0.9615    1.3118 H   0  0  0  0  0  0  0  0  0  0  0  0
   -0.7974   -1.8067   -0.0506 H   0  0  0  0  0  0  0  0  0  0  0  0
   -0.1163    1.6024    1.7652 H   0  0  0  0  0  0  0  0  0  0  0  0
    1.2200   -1.2107   -0.8225 H   0  0  0  0  0  0  0  0  0  0  0  0
    1.3502   -1.4593    0.9653 H   0  0  0  0  0  0  0  0  0  0  0  0
    3.0460   -0.1973   -0.5965 H   0  0  0  0  0  0  0  0  0  0  0  0
    0.3277    0.9155   -1.5929 H   0  0  0  0  0  0  0  0  0  0  0  0
    0.1027    2.2082   -0.3460 H   0  0  0  0  0  0  0  0  0  0  0  0
  1  2  2  0
  2  3  1  0
  3  4  1  0
  4  5  1  0
  4  6  1  0
  6  7  1  0
  4  8  1  0
  8  9  1  0
  9  2  1  0
  3 10  1  0
  3 11  1  0
  5 12  1  0
  6 13  1  0
  6 14  1  0
  7 15  1  0
  8 16  1  0
  8 17  1  0
M  END
