
     RDKit          3D

 17 18  0  0  0  0  0  0  0  0999 V2000
   -1.8311   -0.1960   -1.9024 O   0  0  0  0  0  0  0  0  0  0  0  0
   -1.1289   -0.2071   -0.9668 C   0  0  0  0  0  0  0  0  0  0  0  0
   -0.9602    0.8023    0.1002 C   0  0  0  0  0  0  0  0  0  0  0  0
   -1.0026   -0.1383    1.2922 C   0  0  0  0  0  0  0  0  0  0  0  0
   -0.7300   -1.4296    0.7975 O   0  0  0  0  0  0  0  0  0  0  0  0
   -0.1498   -1.1955   -0.4716 C   0  0  0  0  0  0  0  0  0  0  0  0
    1.0521   -0.3292   -0.1734 C   0  0  0  0  0  0  0  0  0  0  0  0
    2.0625   -0.4632   -1.1046 O   0  0  0  0  0  0  0  0  0  0  0  0
    0.5072    1.1045   -0.1251 C   0  0  0  0  0  0  0  0  0  0  0  0
   -1.6256    1.6247    0.1172 H   0  0  0  0  0  0  0  0  0  0  0  0
   -1.9809   -0.1222    1.7967 H   0  0  0  0  0  0  0  0  0  0  0  0
   -0.1819    0.1164    1.9718 H   0  0  0  0  0  0  0  0  0  0  0  0
    0.0131   -2.0651   -1.0541 H   0  0  0  0  0  0  0  0  0  0  0  0
    1.4461   -0.5298    0.8433 H   0  0  0  0  0  0  0  0  0  0  0  0
    2.9060   -0.1728   -0.6556 H   0  0  0  0  0  0  0  0  0  0  0  0
    0.6418    1.5096   -1.1376 H   0  0  0  0  0  0  0  0  0  0  0  0
    0.9621    1.6913    0.6723 H   0  0  0  0  0  0  0  0  0  0  0  0
  1  2  2  0
  2  3  1  0
  3  4  1  0
  4  5  1  0
  5  6  1  0
  6  7  1  0
  7  8  1  0
  7  9  1  0
  6  2  1  0
  9  3  1  0
  3 10  1  0
  4 11  1  0
  4 12  1  0
  6 13  1  0
  7 14  1  0
  8 15  1  0
  9 16  1  0
  9 17  1  0
M  END
