
     RDKit          3D

 17 18  0  0  0  0  0  0  0  0999 V2000
    0.2383   -2.8154   -0.0253 O   0  0  0  0  0  0  0  0  0  0  0  0
    0.1711   -1.6004    0.0847 C   0  0  0  0  0  0  0  0  0  0  0  0
   -1.0523   -0.8663    0.5058 C   0  0  0  0  0  0  0  0  0  0  0  0
   -0.9356    0.5318   -0.0067 C   0  0  0  0  0  0  0  0  0  0  0  0
   -2.0139    0.9975   -0.7850 O   0  0  0  0  0  0  0  0  0  0  0  0
   -0.0468    1.5367    0.5798 C   0  0  0  0  0  0  0  0  0  0  0  0
    0.4101    0.6242   -0.5854 C   0  0  0  0  0  0  0  0  0  0  0  0
    1.2138   -0.5647   -0.1514 C   0  0  0  0  0  0  0  0  0  0  0  0
    2.1661   -0.9619   -1.0665 O   0  0  0  0  0  0  0  0  0  0  0  0
   -1.9149   -1.3745    0.0238 H   0  0  0  0  0  0  0  0  0  0  0  0
   -1.1936   -0.9277    1.6048 H   0  0  0  0  0  0  0  0  0  0  0  0
   -2.6663    1.3771   -0.1276 H   0  0  0  0  0  0  0  0  0  0  0  0
   -0.1940    2.5789    0.2946 H   0  0  0  0  0  0  0  0  0  0  0  0
    0.4932    1.4022    1.5344 H   0  0  0  0  0  0  0  0  0  0  0  0
    0.5848    1.1050   -1.5542 H   0  0  0  0  0  0  0  0  0  0  0  0
    1.6844   -0.3463    0.8525 H   0  0  0  0  0  0  0  0  0  0  0  0
    3.0555   -0.6964   -0.6980 H   0  0  0  0  0  0  0  0  0  0  0  0
  1  2  2  0
  2  3  1  0
  3  4  1  0
  4  5  1  0
  4  6  1  0
  6  7  1  0
  7  8  1  0
  8  9  1  0
  8  2  1  0
  7  4  1  0
  3 10  1  0
  3 11  1  0
  5 12  1  0
  6 13  1  0
  6 14  1  0
  7 15  1  0
  8 16  1  0
  9 17  1  0
M  END
