
     RDKit          3D

 17 18  0  0  0  0  0  0  0  0999 V2000
    0.1039   -1.6064   -2.1174 O   0  0  0  0  0  0  0  0  0  0  0  0
   -0.2581   -0.9065   -1.1845 C   0  0  0  0  0  0  0  0  0  0  0  0
   -1.4841   -0.9877   -0.3089 C   0  0  0  0  0  0  0  0  0  0  0  0
   -0.9503    0.1975    0.4408 C   0  0  0  0  0  0  0  0  0  0  0  0
   -0.8798    0.2060    1.8057 O   0  0  0  0  0  0  0  0  0  0  0  0
   -0.7336    1.4260   -0.3241 C   0  0  0  0  0  0  0  0  0  0  0  0
    0.2120    0.2758   -0.4481 C   0  0  0  0  0  0  0  0  0  0  0  0
    1.6188    0.3788    0.0303 C   0  0  0  0  0  0  0  0  0  0  0  0
    1.9835   -0.6277    0.9080 O   0  0  0  0  0  0  0  0  0  0  0  0
   -2.4246   -0.7582   -0.8426 H   0  0  0  0  0  0  0  0  0  0  0  0
   -1.5304   -1.9400    0.2116 H   0  0  0  0  0  0  0  0  0  0  0  0
   -0.8061   -0.6568    2.2424 H   0  0  0  0  0  0  0  0  0  0  0  0
   -1.4000    1.5697   -1.2233 H   0  0  0  0  0  0  0  0  0  0  0  0
   -0.4344    2.3267    0.2328 H   0  0  0  0  0  0  0  0  0  0  0  0
    2.2871    0.3990   -0.8655 H   0  0  0  0  0  0  0  0  0  0  0  0
    1.7379    1.4009    0.4900 H   0  0  0  0  0  0  0  0  0  0  0  0
    2.9584   -0.6973    0.9528 H   0  0  0  0  0  0  0  0  0  0  0  0
  1  2  2  0
  2  3  1  0
  3  4  1  0
  4  5  1  0
  4  6  1  0
  6  7  1  0
  7  8  1  0
  8  9  1  0
  7  2  1  0
  7  4  1  0
  3 10  1  0
  3 11  1  0
  5 12  1  0
  6 13  1  0
  6 14  1  0
  8 15  1  0
  8 16  1  0
  9 17  1  0
M  END
