
     RDKit          3D

 13 14  0  0  0  0  0  0  0  0999 V2000
   -2.0938    2.2875   -0.2183 O   0  0  0  0  0  0  0  0  0  0  0  0
   -1.5434    1.1397   -0.1128 C   0  0  0  0  0  0  0  0  0  0  0  0
   -2.1537   -0.0859   -0.0100 O   0  0  0  0  0  0  0  0  0  0  0  0
   -1.2011   -1.1043    0.0875 C   0  0  0  0  0  0  0  0  0  0  0  0
    0.0985   -0.4307    0.0390 C   0  0  0  0  0  0  0  0  0  0  0  0
    1.4637   -0.6255    0.0675 C   0  0  0  0  0  0  0  0  0  0  0  0
    2.0284    0.6265   -0.0379 C   0  0  0  0  0  0  0  0  0  0  0  0
    1.0660    1.5027   -0.1230 O   0  0  0  0  0  0  0  0  0  0  0  0
   -0.1039    0.9192   -0.0814 C   0  0  0  0  0  0  0  0  0  0  0  0
   -1.2602   -1.8228   -0.7652 H   0  0  0  0  0  0  0  0  0  0  0  0
   -1.3821   -1.6448    1.0448 H   0  0  0  0  0  0  0  0  0  0  0  0
    1.9767   -1.5878    0.1565 H   0  0  0  0  0  0  0  0  0  0  0  0
    3.1049    0.8262   -0.0466 H   0  0  0  0  0  0  0  0  0  0  0  0
  1  2  2  0
  2  3  1  0
  3  4  1  0
  4  5  1  0
  5  6  1  0
  6  7  2  0
  7  8  1  0
  8  9  1  0
  9  2  1  0
  9  5  2  0
  4 10  1  0
  4 11  1  0
  6 12  1  0
  7 13  1  0
M  END
