
     RDKit          3D

 17 18  0  0  0  0  0  0  0  0999 V2000
   -1.8452    1.9247    0.7534 O   0  0  0  0  0  0  0  0  0  0  0  0
   -1.0952    1.0031    0.4780 C   0  0  0  0  0  0  0  0  0  0  0  0
   -1.6061   -0.1570   -0.2859 C   0  0  0  0  0  0  0  0  0  0  0  0
   -0.7546   -1.3576   -0.2410 C   0  0  0  0  0  0  0  0  0  0  0  0
    0.3423   -1.3716    0.5150 O   0  0  0  0  0  0  0  0  0  0  0  0
    0.9818   -0.2914    0.9156 C   0  0  0  0  0  0  0  0  0  0  0  0
    1.9305    0.3290   -0.0944 C   0  0  0  0  0  0  0  0  0  0  0  0
    1.2111    1.5154   -0.0613 O   0  0  0  0  0  0  0  0  0  0  0  0
    0.3118    1.0226    0.8921 C   0  0  0  0  0  0  0  0  0  0  0  0
   -1.7844    0.2074   -1.3363 H   0  0  0  0  0  0  0  0  0  0  0  0
   -2.6402   -0.3487    0.1120 H   0  0  0  0  0  0  0  0  0  0  0  0
   -0.4656   -1.6227   -1.3028 H   0  0  0  0  0  0  0  0  0  0  0  0
   -1.4019   -2.2346    0.0644 H   0  0  0  0  0  0  0  0  0  0  0  0
    1.5591   -0.4589    1.8729 H   0  0  0  0  0  0  0  0  0  0  0  0
    2.9780    0.3893    0.2092 H   0  0  0  0  0  0  0  0  0  0  0  0
    1.8370   -0.1517   -1.0914 H   0  0  0  0  0  0  0  0  0  0  0  0
    0.4415    1.6027    1.8278 H   0  0  0  0  0  0  0  0  0  0  0  0
  1  2  2  0
  2  3  1  0
  3  4  1  0
  4  5  1  0
  5  6  1  0
  6  7  1  0
  7  8  1  0
  8  9  1  0
  9  2  1  0
  9  6  1  0
  3 10  1  0
  3 11  1  0
  4 12  1  0
  4 13  1  0
  6 14  1  0
  7 15  1  0
  7 16  1  0
  9 17  1  0
M  END
