
     RDKit          3D

 13 14  0  0  0  0  0  0  0  0999 V2000
   -0.1226   -2.0469   -1.4142 O   0  0  0  0  0  0  0  0  0  0  0  0
   -0.0642   -1.1149   -0.6880 C   0  0  0  0  0  0  0  0  0  0  0  0
   -1.0073   -0.1483   -0.0931 C   0  0  0  0  0  0  0  0  0  0  0  0
   -0.5038    1.1581   -0.5907 C   0  0  0  0  0  0  0  0  0  0  0  0
    0.8201    1.0295   -0.4533 C   0  0  0  0  0  0  0  0  0  0  0  0
    0.9606   -0.3597    0.0544 C   0  0  0  0  0  0  0  0  0  0  0  0
   -0.1200   -0.3269    1.1517 C   0  0  0  0  0  0  0  0  0  0  0  0
   -2.0319   -0.3457   -0.0112 H   0  0  0  0  0  0  0  0  0  0  0  0
   -1.0837    1.9867   -0.9643 H   0  0  0  0  0  0  0  0  0  0  0  0
    1.6282    1.7236   -0.6463 H   0  0  0  0  0  0  0  0  0  0  0  0
    1.8974   -0.7655    0.2889 H   0  0  0  0  0  0  0  0  0  0  0  0
   -0.0820    0.5308    1.8092 H   0  0  0  0  0  0  0  0  0  0  0  0
   -0.2908   -1.3208    1.5569 H   0  0  0  0  0  0  0  0  0  0  0  0
  1  2  2  0
  2  3  1  0
  3  4  1  0
  4  5  2  0
  5  6  1  0
  6  7  1  0
  6  2  1  0
  7  3  1  0
  3  8  1  0
  4  9  1  0
  5 10  1  0
  6 11  1  0
  7 12  1  0
  7 13  1  0
M  END
