
     RDKit          3D

 17 19  0  0  0  0  0  0  0  0999 V2000
   -1.3458    1.0472    2.0636 O   0  0  0  0  0  0  0  0  0  0  0  0
   -0.9984    0.4622    1.0713 C   0  0  0  0  0  0  0  0  0  0  0  0
   -0.4268   -0.8639    0.7467 C   0  0  0  0  0  0  0  0  0  0  0  0
    1.0668   -0.7066    0.5941 C   0  0  0  0  0  0  0  0  0  0  0  0
    1.4904    0.2606   -0.4415 C   0  0  0  0  0  0  0  0  0  0  0  0
    0.9962    0.2602   -1.7221 O   0  0  0  0  0  0  0  0  0  0  0  0
    0.4132    1.1587   -0.8528 C   0  0  0  0  0  0  0  0  0  0  0  0
   -0.9560    0.7595   -0.3778 C   0  0  0  0  0  0  0  0  0  0  0  0
   -1.1429   -0.7508   -0.5869 C   0  0  0  0  0  0  0  0  0  0  0  0
   -0.7019   -1.7016    1.3783 H   0  0  0  0  0  0  0  0  0  0  0  0
    1.5653   -1.7151    0.5113 H   0  0  0  0  0  0  0  0  0  0  0  0
    1.4317   -0.3119    1.5884 H   0  0  0  0  0  0  0  0  0  0  0  0
    2.5305    0.6256   -0.3478 H   0  0  0  0  0  0  0  0  0  0  0  0
    0.6468    2.2310   -0.9132 H   0  0  0  0  0  0  0  0  0  0  0  0
   -1.7614    1.3762   -0.7787 H   0  0  0  0  0  0  0  0  0  0  0  0
   -0.6049   -1.1377   -1.4532 H   0  0  0  0  0  0  0  0  0  0  0  0
   -2.2028   -0.9936   -0.4798 H   0  0  0  0  0  0  0  0  0  0  0  0
  1  2  2  0
  2  3  1  0
  3  4  1  0
  4  5  1  0
  5  6  1  0
  6  7  1  0
  7  8  1  0
  8  9  1  0
  8  2  1  0
  9  3  1  0
  7  5  1  0
  3 10  1  0
  4 11  1  0
  4 12  1  0
  5 13  1  0
  7 14  1  0
  8 15  1  0
  9 16  1  0
  9 17  1  0
M  END
