
     RDKit          3D

 17 18  0  0  0  0  0  0  0  0999 V2000
    3.3840    0.2216   -0.0342 O   0  0  0  0  0  0  0  0  0  0  0  0
    2.1569    0.3970    0.1398 C   0  0  0  0  0  0  0  0  0  0  0  0
    1.0725    1.3164   -0.3277 C   0  0  0  0  0  0  0  0  0  0  0  0
    0.2246    0.2192    0.1698 C   0  0  0  0  0  0  0  0  0  0  0  0
   -0.3411   -0.7316   -0.8857 C   0  0  0  0  0  0  0  0  0  0  0  0
   -1.3647   -1.4447    0.0020 C   0  0  0  0  0  0  0  0  0  0  0  0
   -1.8438   -0.5290    0.8880 O   0  0  0  0  0  0  0  0  0  0  0  0
   -1.0425    0.5832    0.8943 C   0  0  0  0  0  0  0  0  0  0  0  0
    1.2564   -0.3005    0.9390 O   0  0  0  0  0  0  0  0  0  0  0  0
    1.0752    2.2278    0.2783 H   0  0  0  0  0  0  0  0  0  0  0  0
    1.1192    1.4675   -1.4329 H   0  0  0  0  0  0  0  0  0  0  0  0
   -0.8232   -0.1526   -1.6792 H   0  0  0  0  0  0  0  0  0  0  0  0
    0.4676   -1.3886   -1.2018 H   0  0  0  0  0  0  0  0  0  0  0  0
   -2.1164   -1.9820   -0.5842 H   0  0  0  0  0  0  0  0  0  0  0  0
   -0.7686   -2.2079    0.5692 H   0  0  0  0  0  0  0  0  0  0  0  0
   -0.8932    0.9192    1.9245 H   0  0  0  0  0  0  0  0  0  0  0  0
   -1.5631    1.3853    0.3408 H   0  0  0  0  0  0  0  0  0  0  0  0
  1  2  2  0
  2  3  1  0
  3  4  1  0
  4  5  1  0
  5  6  1  0
  6  7  1  0
  7  8  1  0
  4  9  1  0
  9  2  1  0
  8  4  1  0
  3 10  1  0
  3 11  1  0
  5 12  1  0
  5 13  1  0
  6 14  1  0
  6 15  1  0
  8 16  1  0
  8 17  1  0
M  END
