
     RDKit          3D

 14 15  0  0  0  0  0  0  0  0999 V2000
    0.0340    2.6255    0.4368 O   0  0  0  0  0  0  0  0  0  0  0  0
   -0.2779    1.4304    0.2185 C   0  0  0  0  0  0  0  0  0  0  0  0
   -1.4697    0.8695    0.6414 O   0  0  0  0  0  0  0  0  0  0  0  0
   -1.5420   -0.4873    0.2308 C   0  0  0  0  0  0  0  0  0  0  0  0
   -0.2516   -0.8223   -0.4617 C   0  0  0  0  0  0  0  0  0  0  0  0
    0.7364   -1.3874    0.3102 O   0  0  0  0  0  0  0  0  0  0  0  0
    1.5755   -0.2721    0.3409 C   0  0  0  0  0  0  0  0  0  0  0  0
    0.5637    0.4741   -0.5045 C   0  0  0  0  0  0  0  0  0  0  0  0
   -1.7542   -1.0919    1.1114 H   0  0  0  0  0  0  0  0  0  0  0  0
   -2.3485   -0.5458   -0.5181 H   0  0  0  0  0  0  0  0  0  0  0  0
   -0.3590   -1.2558   -1.4793 H   0  0  0  0  0  0  0  0  0  0  0  0
    2.5416   -0.3947   -0.1895 H   0  0  0  0  0  0  0  0  0  0  0  0
    1.6615    0.1088    1.3780 H   0  0  0  0  0  0  0  0  0  0  0  0
    0.8902    0.7489   -1.5150 H   0  0  0  0  0  0  0  0  0  0  0  0
  1  2  2  0
  2  3  1  0
  3  4  1  0
  4  5  1  0
  5  6  1  0
  6  7  1  0
  7  8  1  0
  8  2  1  0
  8  5  1  0
  4  9  1  0
  4 10  1  0
  5 11  1  0
  7 12  1  0
  7 13  1  0
  8 14  1  0
M  END
