
     RDKit          3D

 17 17  0  0  0  0  0  0  0  0999 V2000
    2.1852    1.8718   -0.0439 O   0  0  0  0  0  0  0  0  0  0  0  0
    1.2913    1.0069   -0.0911 C   0  0  0  0  0  0  0  0  0  0  0  0
    1.7140   -0.3696   -0.4172 C   0  0  0  0  0  0  0  0  0  0  0  0
    0.9225   -1.3008    0.4560 C   0  0  0  0  0  0  0  0  0  0  0  0
   -0.4110   -1.3468    0.4618 C   0  0  0  0  0  0  0  0  0  0  0  0
   -1.4051   -0.5648   -0.3196 C   0  0  0  0  0  0  0  0  0  0  0  0
   -1.3864    0.8908   -0.0061 C   0  0  0  0  0  0  0  0  0  0  0  0
   -0.0563    1.4679    0.1822 C   0  0  0  0  0  0  0  0  0  0  0  0
   -0.0925    2.6361    0.7025 O   0  0  0  0  0  0  0  0  0  0  0  0
    2.7951   -0.5252   -0.2955 H   0  0  0  0  0  0  0  0  0  0  0  0
    1.3775   -0.5910   -1.4681 H   0  0  0  0  0  0  0  0  0  0  0  0
    1.4423   -1.9683    1.1135 H   0  0  0  0  0  0  0  0  0  0  0  0
   -0.7987   -2.0973    1.1728 H   0  0  0  0  0  0  0  0  0  0  0  0
   -1.2690   -0.7204   -1.4281 H   0  0  0  0  0  0  0  0  0  0  0  0
   -2.4134   -0.9612   -0.0732 H   0  0  0  0  0  0  0  0  0  0  0  0
   -2.0019    1.1300    0.9031 H   0  0  0  0  0  0  0  0  0  0  0  0
   -1.8935    1.4419   -0.8491 H   0  0  0  0  0  0  0  0  0  0  0  0
  1  2  2  0
  2  3  1  0
  3  4  1  0
  4  5  2  0
  5  6  1  0
  6  7  1  0
  7  8  1  0
  8  9  2  0
  8  2  1  0
  3 10  1  0
  3 11  1  0
  4 12  1  0
  5 13  1  0
  6 14  1  0
  6 15  1  0
  7 16  1  0
  7 17  1  0
M  END
