
     RDKit          3D

 11 11  0  0  0  0  0  0  0  0999 V2000
    2.5254    1.2280   -0.8115 O   0  0  0  0  0  0  0  0  0  0  0  0
    1.4132    0.7142   -0.4815 C   0  0  0  0  0  0  0  0  0  0  0  0
    1.1035    0.5206    0.7861 O   0  0  0  0  0  0  0  0  0  0  0  0
   -0.0402   -0.0089    1.1533 C   0  0  0  0  0  0  0  0  0  0  0  0
   -0.9731   -0.3874    0.2090 C   0  0  0  0  0  0  0  0  0  0  0  0
   -2.1771   -0.9466    0.6353 O   0  0  0  0  0  0  0  0  0  0  0  0
   -0.6806   -0.2017   -1.0572 O   0  0  0  0  0  0  0  0  0  0  0  0
    0.4743    0.3327   -1.4187 C   0  0  0  0  0  0  0  0  0  0  0  0
    0.7408    0.5046   -2.6359 O   0  0  0  0  0  0  0  0  0  0  0  0
   -0.2875   -0.1645    2.1896 H   0  0  0  0  0  0  0  0  0  0  0  0
   -2.0987   -1.5910    1.4315 H   0  0  0  0  0  0  0  0  0  0  0  0
  1  2  2  0
  2  3  1  0
  3  4  1  0
  4  5  2  0
  5  6  1  0
  5  7  1  0
  7  8  1  0
  8  9  2  0
  8  2  1  0
  4 10  1  0
  6 11  1  0
M  END
