
     RDKit          3D

 19 19  0  0  0  0  0  0  0  0999 V2000
    2.7040    0.0279   -0.7348 O   0  0  0  0  0  0  0  0  0  0  0  0
    1.6733    0.1118   -0.0501 C   0  0  0  0  0  0  0  0  0  0  0  0
    1.1785    1.4693    0.0467 C   0  0  0  0  0  0  0  0  0  0  0  0
   -0.2507    1.6875   -0.1129 C   0  0  0  0  0  0  0  0  0  0  0  0
   -1.4293    1.0850   -0.0115 C   0  0  0  0  0  0  0  0  0  0  0  0
   -1.8613   -0.2616    0.3611 C   0  0  0  0  0  0  0  0  0  0  0  0
   -1.1207   -1.3107   -0.4019 C   0  0  0  0  0  0  0  0  0  0  0  0
    0.1466   -1.6946   -0.3608 C   0  0  0  0  0  0  0  0  0  0  0  0
    1.3419   -1.2794    0.4197 C   0  0  0  0  0  0  0  0  0  0  0  0
    1.4826    1.9461    1.0268 H   0  0  0  0  0  0  0  0  0  0  0  0
    1.7085    2.1121   -0.7185 H   0  0  0  0  0  0  0  0  0  0  0  0
   -0.4375    2.7300   -0.4337 H   0  0  0  0  0  0  0  0  0  0  0  0
   -2.2635    1.7275   -0.2583 H   0  0  0  0  0  0  0  0  0  0  0  0
   -1.7750   -0.4613    1.4624 H   0  0  0  0  0  0  0  0  0  0  0  0
   -2.9470   -0.4067    0.1399 H   0  0  0  0  0  0  0  0  0  0  0  0
   -1.7426   -1.8523   -1.1192 H   0  0  0  0  0  0  0  0  0  0  0  0
    0.3654   -2.4939   -1.0532 H   0  0  0  0  0  0  0  0  0  0  0  0
    1.0690   -1.1558    1.5035 H   0  0  0  0  0  0  0  0  0  0  0  0
    2.1580   -1.9809    0.2947 H   0  0  0  0  0  0  0  0  0  0  0  0
  1  2  2  0
  2  3  1  0
  3  4  1  0
  4  5  2  3
  5  6  1  0
  6  7  1  0
  7  8  2  3
  8  9  1  0
  9  2  1  0
  3 10  1  0
  3 11  1  0
  4 12  1  0
  5 13  1  0
  6 14  1  0
  6 15  1  0
  7 16  1  0
  8 17  1  0
  9 18  1  0
  9 19  1  0
M  END
