
     RDKit          3D

 17 18  0  0  0  0  0  0  0  0999 V2000
    0.9009    1.9573   -1.5354 O   0  0  0  0  0  0  0  0  0  0  0  0
    0.2666    1.3978   -0.5825 C   0  0  0  0  0  0  0  0  0  0  0  0
   -1.0979    1.5021   -0.6827 O   0  0  0  0  0  0  0  0  0  0  0  0
   -2.0160    0.5439   -0.1113 C   0  0  0  0  0  0  0  0  0  0  0  0
   -1.4984   -0.8320   -0.4153 C   0  0  0  0  0  0  0  0  0  0  0  0
   -0.3227   -1.2859   -0.0131 C   0  0  0  0  0  0  0  0  0  0  0  0
    0.7156   -0.6469    0.7700 C   0  0  0  0  0  0  0  0  0  0  0  0
    2.0035   -0.3734    0.0923 C   0  0  0  0  0  0  0  0  0  0  0  0
    1.1131    0.7651    0.4177 C   0  0  0  0  0  0  0  0  0  0  0  0
   -3.0341    0.6987   -0.4656 H   0  0  0  0  0  0  0  0  0  0  0  0
   -2.0097    0.6602    0.9934 H   0  0  0  0  0  0  0  0  0  0  0  0
   -2.0999   -1.5076   -0.9924 H   0  0  0  0  0  0  0  0  0  0  0  0
   -0.0792   -2.3342   -0.3225 H   0  0  0  0  0  0  0  0  0  0  0  0
    0.6741   -0.8260    1.8710 H   0  0  0  0  0  0  0  0  0  0  0  0
    2.0960   -0.6684   -0.9676 H   0  0  0  0  0  0  0  0  0  0  0  0
    2.9163   -0.4784    0.6799 H   0  0  0  0  0  0  0  0  0  0  0  0
    1.4720    1.4277    1.2640 H   0  0  0  0  0  0  0  0  0  0  0  0
  1  2  2  0
  2  3  1  0
  3  4  1  0
  4  5  1  0
  5  6  2  0
  6  7  1  0
  7  8  1  0
  8  9  1  0
  9  2  1  0
  9  7  1  0
  4 10  1  0
  4 11  1  0
  5 12  1  0
  6 13  1  0
  7 14  1  0
  8 15  1  0
  8 16  1  0
  9 17  1  0
M  END
