
     RDKit          3D

 17 18  0  0  0  0  0  0  0  0999 V2000
    0.3959    2.2468    1.1220 O   0  0  0  0  0  0  0  0  0  0  0  0
    0.3172    1.2005    0.5473 C   0  0  0  0  0  0  0  0  0  0  0  0
   -0.6098    0.6396   -0.4742 C   0  0  0  0  0  0  0  0  0  0  0  0
   -1.3060    1.4528   -1.2564 O   0  0  0  0  0  0  0  0  0  0  0  0
   -1.2950   -0.4560    0.3014 C   0  0  0  0  0  0  0  0  0  0  0  0
   -0.0421   -1.0797    0.9525 C   0  0  0  0  0  0  0  0  0  0  0  0
    0.9901   -0.1352    0.4371 C   0  0  0  0  0  0  0  0  0  0  0  0
    2.2689   -0.2453    0.7742 O   0  0  0  0  0  0  0  0  0  0  0  0
    0.6351   -0.0464   -1.0540 C   0  0  0  0  0  0  0  0  0  0  0  0
   -2.1170    1.0232   -1.6000 H   0  0  0  0  0  0  0  0  0  0  0  0
   -1.8150   -1.1827   -0.3259 H   0  0  0  0  0  0  0  0  0  0  0  0
   -1.9110   -0.0292    1.1192 H   0  0  0  0  0  0  0  0  0  0  0  0
   -0.1349   -1.1293    2.0368 H   0  0  0  0  0  0  0  0  0  0  0  0
    0.1030   -2.0781    0.4737 H   0  0  0  0  0  0  0  0  0  0  0  0
    2.8511    0.1583    0.0780 H   0  0  0  0  0  0  0  0  0  0  0  0
    1.2436    0.6746   -1.6120 H   0  0  0  0  0  0  0  0  0  0  0  0
    0.4261   -1.0137   -1.5195 H   0  0  0  0  0  0  0  0  0  0  0  0
  1  2  2  0
  2  3  1  0
  3  4  1  0
  3  5  1  0
  5  6  1  0
  6  7  1  0
  7  8  1  0
  7  9  1  0
  7  2  1  0
  9  3  1  0
  4 10  1  0
  5 11  1  0
  5 12  1  0
  6 13  1  0
  6 14  1  0
  8 15  1  0
  9 16  1  0
  9 17  1  0
M  END
