
     RDKit          3D

 15 17  0  0  0  0  0  0  0  0999 V2000
    1.8053    2.3915   -0.3642 O   0  0  0  0  0  0  0  0  0  0  0  0
    1.0530    1.4860    0.0657 C   0  0  0  0  0  0  0  0  0  0  0  0
    0.0921    1.3949    1.0645 O   0  0  0  0  0  0  0  0  0  0  0  0
   -0.4245    0.2795    0.3907 C   0  0  0  0  0  0  0  0  0  0  0  0
   -1.3565   -0.6687    0.9167 C   0  0  0  0  0  0  0  0  0  0  0  0
   -1.7629    0.2808   -0.2267 C   0  0  0  0  0  0  0  0  0  0  0  0
    0.8362    0.0832   -0.2920 C   0  0  0  0  0  0  0  0  0  0  0  0
    1.7641   -0.8939   -0.4173 C   0  0  0  0  0  0  0  0  0  0  0  0
    0.9893   -0.3839   -1.5650 O   0  0  0  0  0  0  0  0  0  0  0  0
   -1.9601   -0.5143    1.8219 H   0  0  0  0  0  0  0  0  0  0  0  0
   -1.2789   -1.7515    0.6119 H   0  0  0  0  0  0  0  0  0  0  0  0
   -1.8030   -0.1702   -1.2577 H   0  0  0  0  0  0  0  0  0  0  0  0
   -2.4059    1.1345    0.0143 H   0  0  0  0  0  0  0  0  0  0  0  0
    1.5869   -1.9780   -0.2239 H   0  0  0  0  0  0  0  0  0  0  0  0
    2.8649   -0.6900   -0.5390 H   0  0  0  0  0  0  0  0  0  0  0  0
  1  2  2  0
  2  3  1  0
  3  4  1  0
  4  5  1  0
  5  6  1  0
  4  7  1  0
  7  8  1  0
  8  9  1  0
  7  2  1  0
  6  4  1  0
  9  7  1  0
  5 10  1  0
  5 11  1  0
  6 12  1  0
  6 13  1  0
  8 14  1  0
  8 15  1  0
M  END
