
     RDKit          3D

 13 13  0  0  0  0  0  0  0  0999 V2000
    1.0757    2.3264    0.3719 O   0  0  0  0  0  0  0  0  0  0  0  0
    0.5191    1.2704   -0.0348 C   0  0  0  0  0  0  0  0  0  0  0  0
   -0.5928    1.1575   -0.8927 O   0  0  0  0  0  0  0  0  0  0  0  0
   -1.4521    0.1302   -0.3837 C   0  0  0  0  0  0  0  0  0  0  0  0
   -0.5213   -0.7943    0.3230 C   0  0  0  0  0  0  0  0  0  0  0  0
    0.8685   -0.1497    0.2677 C   0  0  0  0  0  0  0  0  0  0  0  0
    1.6191   -0.6567   -0.7757 O   0  0  0  0  0  0  0  0  0  0  0  0
   -2.0678   -0.3285   -1.1530 H   0  0  0  0  0  0  0  0  0  0  0  0
   -2.1192    0.6136    0.3838 H   0  0  0  0  0  0  0  0  0  0  0  0
   -0.5070   -1.7552   -0.2049 H   0  0  0  0  0  0  0  0  0  0  0  0
   -0.8106   -0.9129    1.4076 H   0  0  0  0  0  0  0  0  0  0  0  0
    1.3861   -0.2235    1.2395 H   0  0  0  0  0  0  0  0  0  0  0  0
    2.6024   -0.6774   -0.5486 H   0  0  0  0  0  0  0  0  0  0  0  0
  1  2  2  0
  2  3  1  0
  3  4  1  0
  4  5  1  0
  5  6  1  0
  6  7  1  0
  6  2  1  0
  4  8  1  0
  4  9  1  0
  5 10  1  0
  5 11  1  0
  6 12  1  0
  7 13  1  0
M  END
