
     RDKit          3D

 17 18  0  0  0  0  0  0  0  0999 V2000
    0.1606   -2.5880    0.5622 O   0  0  0  0  0  0  0  0  0  0  0  0
   -0.0913   -1.4795    0.1826 C   0  0  0  0  0  0  0  0  0  0  0  0
   -1.4368   -0.8209    0.2386 C   0  0  0  0  0  0  0  0  0  0  0  0
   -1.2142    0.6109   -0.1611 C   0  0  0  0  0  0  0  0  0  0  0  0
   -1.3568    1.4958    0.9158 O   0  0  0  0  0  0  0  0  0  0  0  0
    0.2116    0.7284   -0.6365 C   0  0  0  0  0  0  0  0  0  0  0  0
    1.2390    0.6351    0.4651 C   0  0  0  0  0  0  0  0  0  0  0  0
    0.8870   -0.5470   -0.4170 C   0  0  0  0  0  0  0  0  0  0  0  0
    1.8210   -1.0083   -1.3327 O   0  0  0  0  0  0  0  0  0  0  0  0
   -1.8831   -0.9162    1.2429 H   0  0  0  0  0  0  0  0  0  0  0  0
   -2.0490   -1.2886   -0.5634 H   0  0  0  0  0  0  0  0  0  0  0  0
   -1.9047    0.9365   -0.9635 H   0  0  0  0  0  0  0  0  0  0  0  0
   -0.6294    2.1909    0.9057 H   0  0  0  0  0  0  0  0  0  0  0  0
    0.4393    1.4402   -1.4275 H   0  0  0  0  0  0  0  0  0  0  0  0
    0.8750    0.6241    1.5316 H   0  0  0  0  0  0  0  0  0  0  0  0
    2.2449    1.0265    0.3289 H   0  0  0  0  0  0  0  0  0  0  0  0
    2.6868   -1.0399   -0.8718 H   0  0  0  0  0  0  0  0  0  0  0  0
  1  2  2  0
  2  3  1  0
  3  4  1  0
  4  5  1  0
  4  6  1  0
  6  7  1  0
  7  8  1  0
  8  9  1  0
  8  2  1  0
  8  6  1  0
  3 10  1  0
  3 11  1  0
  4 12  1  0
  5 13  1  0
  6 14  1  0
  7 15  1  0
  7 16  1  0
  9 17  1  0
M  END
