
     RDKit          3D

 15 17  0  0  0  0  0  0  0  0999 V2000
    1.6190    2.0616   -0.9178 O   0  0  0  0  0  0  0  0  0  0  0  0
    1.0383    1.1095   -0.4193 C   0  0  0  0  0  0  0  0  0  0  0  0
    1.2907   -0.3694   -0.5035 C   0  0  0  0  0  0  0  0  0  0  0  0
    0.1240   -1.2976   -0.4988 C   0  0  0  0  0  0  0  0  0  0  0  0
   -1.2176   -0.7463   -0.8390 C   0  0  0  0  0  0  0  0  0  0  0  0
   -1.3502    0.4545   -0.3020 C   0  0  0  0  0  0  0  0  0  0  0  0
   -0.1059    0.8216    0.4518 C   0  0  0  0  0  0  0  0  0  0  0  0
   -0.2906    1.6221    1.5474 O   0  0  0  0  0  0  0  0  0  0  0  0
    0.4889   -0.5353    0.6986 C   0  0  0  0  0  0  0  0  0  0  0  0
    2.2879   -0.7742   -0.5880 H   0  0  0  0  0  0  0  0  0  0  0  0
    0.3372   -2.3449   -0.6672 H   0  0  0  0  0  0  0  0  0  0  0  0
   -1.9543   -1.2572   -1.4306 H   0  0  0  0  0  0  0  0  0  0  0  0
   -2.2505    1.0509   -0.4184 H   0  0  0  0  0  0  0  0  0  0  0  0
   -0.7983    1.1112    2.2353 H   0  0  0  0  0  0  0  0  0  0  0  0
    0.7814   -0.9065    1.6515 H   0  0  0  0  0  0  0  0  0  0  0  0
  1  2  2  0
  2  3  1  0
  3  4  1  0
  4  5  1  0
  5  6  2  0
  6  7  1  0
  7  8  1  0
  7  9  1  0
  7  2  1  0
  9  3  1  0
  9  4  1  0
  3 10  1  0
  4 11  1  0
  5 12  1  0
  6 13  1  0
  8 14  1  0
  9 15  1  0
M  END
