
     RDKit          3D

 17 18  0  0  0  0  0  0  0  0999 V2000
    0.0784   -1.9472    0.8694 O   0  0  0  0  0  0  0  0  0  0  0  0
    0.5300   -0.9760    0.3263 C   0  0  0  0  0  0  0  0  0  0  0  0
    1.8981   -0.6327   -0.1601 C   0  0  0  0  0  0  0  0  0  0  0  0
    1.9289    0.8239    0.1413 C   0  0  0  0  0  0  0  0  0  0  0  0
    0.6984    1.3115    0.2229 C   0  0  0  0  0  0  0  0  0  0  0  0
   -0.2607    0.2254   -0.0166 C   0  0  0  0  0  0  0  0  0  0  0  0
   -1.6130    0.3347    0.5575 C   0  0  0  0  0  0  0  0  0  0  0  0
   -1.9064   -0.4712   -0.6879 C   0  0  0  0  0  0  0  0  0  0  0  0
   -0.8101    0.1508   -1.2849 O   0  0  0  0  0  0  0  0  0  0  0  0
    1.8743   -0.7794   -1.2661 H   0  0  0  0  0  0  0  0  0  0  0  0
    2.6875   -1.2034    0.3399 H   0  0  0  0  0  0  0  0  0  0  0  0
    2.8355    1.3933    0.2730 H   0  0  0  0  0  0  0  0  0  0  0  0
    0.4775    2.3625    0.4367 H   0  0  0  0  0  0  0  0  0  0  0  0
   -2.0178    1.3611    0.4818 H   0  0  0  0  0  0  0  0  0  0  0  0
   -1.8151   -0.1630    1.5138 H   0  0  0  0  0  0  0  0  0  0  0  0
   -1.7222   -1.5636   -0.5592 H   0  0  0  0  0  0  0  0  0  0  0  0
   -2.8635   -0.2268   -1.1878 H   0  0  0  0  0  0  0  0  0  0  0  0
  1  2  2  0
  2  3  1  0
  3  4  1  0
  4  5  2  0
  5  6  1  0
  6  7  1  0
  7  8  1  0
  8  9  1  0
  6  2  1  0
  9  6  1  0
  3 10  1  0
  3 11  1  0
  4 12  1  0
  5 13  1  0
  7 14  1  0
  7 15  1  0
  8 16  1  0
  8 17  1  0
M  END
