
     RDKit          3D

 18 18  0  0  0  0  0  0  0  0999 V2000
   -2.7000    1.6385    0.2227 O   0  0  0  0  0  0  0  0  0  0  0  0
   -1.7946    0.8578    0.1796 C   0  0  0  0  0  0  0  0  0  0  0  0
   -1.7408   -0.4594    0.8806 C   0  0  0  0  0  0  0  0  0  0  0  0
   -0.3284   -0.9712    0.6832 C   0  0  0  0  0  0  0  0  0  0  0  0
    0.4282    0.3035    0.4392 C   0  0  0  0  0  0  0  0  0  0  0  0
    1.7669    0.0898   -0.2088 C   0  0  0  0  0  0  0  0  0  0  0  0
    2.5932   -0.7112    0.5765 O   0  0  0  0  0  0  0  0  0  0  0  0
   -0.4936    0.9791   -0.5707 C   0  0  0  0  0  0  0  0  0  0  0  0
   -2.4966   -1.1120    0.4230 H   0  0  0  0  0  0  0  0  0  0  0  0
   -1.9414   -0.3789    1.9602 H   0  0  0  0  0  0  0  0  0  0  0  0
    0.0544   -1.4873    1.5842 H   0  0  0  0  0  0  0  0  0  0  0  0
   -0.3474   -1.6412   -0.1984 H   0  0  0  0  0  0  0  0  0  0  0  0
    0.4862    0.8631    1.3716 H   0  0  0  0  0  0  0  0  0  0  0  0
    1.7072   -0.2626   -1.2347 H   0  0  0  0  0  0  0  0  0  0  0  0
    2.2651    1.0980   -0.2359 H   0  0  0  0  0  0  0  0  0  0  0  0
    3.2729   -1.1337   -0.0131 H   0  0  0  0  0  0  0  0  0  0  0  0
   -0.2241    2.0100   -0.7774 H   0  0  0  0  0  0  0  0  0  0  0  0
   -0.5072    0.3176   -1.4663 H   0  0  0  0  0  0  0  0  0  0  0  0
  1  2  2  0
  2  3  1  0
  3  4  1  0
  4  5  1  0
  5  6  1  0
  6  7  1  0
  5  8  1  0
  8  2  1  0
  3  9  1  0
  3 10  1  0
  4 11  1  0
  4 12  1  0
  5 13  1  0
  6 14  1  0
  6 15  1  0
  7 16  1  0
  8 17  1  0
  8 18  1  0
M  END
