
     RDKit          3D

 16 18  0  0  0  0  0  0  0  0999 V2000
   -0.8310   -0.5777    2.4729 O   0  0  0  0  0  0  0  0  0  0  0  0
   -0.4739   -0.3199    1.3533 C   0  0  0  0  0  0  0  0  0  0  0  0
    0.4108   -1.0231    0.3978 C   0  0  0  0  0  0  0  0  0  0  0  0
    1.3721    0.1054    0.0462 C   0  0  0  0  0  0  0  0  0  0  0  0
    0.3550    1.2112   -0.1816 C   0  0  0  0  0  0  0  0  0  0  0  0
   -0.7855    0.5063   -0.8381 C   0  0  0  0  0  0  0  0  0  0  0  0
   -0.4594   -0.9882   -0.8354 C   0  0  0  0  0  0  0  0  0  0  0  0
   -0.8754    0.8949    0.5734 C   0  0  0  0  0  0  0  0  0  0  0  0
    0.8339   -1.9412    0.6818 H   0  0  0  0  0  0  0  0  0  0  0  0
    2.0872    0.3243    0.8335 H   0  0  0  0  0  0  0  0  0  0  0  0
    1.7994   -0.1393   -0.9347 H   0  0  0  0  0  0  0  0  0  0  0  0
    0.6708    2.2107   -0.4527 H   0  0  0  0  0  0  0  0  0  0  0  0
   -1.3315    0.9464   -1.6558 H   0  0  0  0  0  0  0  0  0  0  0  0
    0.1412   -1.2440   -1.7234 H   0  0  0  0  0  0  0  0  0  0  0  0
   -1.3758   -1.5997   -0.7283 H   0  0  0  0  0  0  0  0  0  0  0  0
   -1.5380    1.6338    0.9911 H   0  0  0  0  0  0  0  0  0  0  0  0
  1  2  2  0
  2  3  1  0
  3  4  1  0
  4  5  1  0
  5  6  1  0
  6  7  1  0
  6  8  1  0
  8  2  1  0
  7  3  1  0
  8  5  1  0
  3  9  1  0
  4 10  1  0
  4 11  1  0
  5 12  1  0
  6 13  1  0
  7 14  1  0
  7 15  1  0
  8 16  1  0
M  END
