
     RDKit          3D

 14 15  0  0  0  0  0  0  0  0999 V2000
    2.7649   -0.8375    0.6417 O   0  0  0  0  0  0  0  0  0  0  0  0
    1.6400   -0.3051    0.4422 C   0  0  0  0  0  0  0  0  0  0  0  0
    1.3426    1.0489    0.5409 O   0  0  0  0  0  0  0  0  0  0  0  0
    0.2073    1.3433   -0.2872 C   0  0  0  0  0  0  0  0  0  0  0  0
   -0.4597    0.0182   -0.5446 C   0  0  0  0  0  0  0  0  0  0  0  0
   -1.4210   -0.3243    0.5457 C   0  0  0  0  0  0  0  0  0  0  0  0
   -0.5102   -1.2535    1.0507 O   0  0  0  0  0  0  0  0  0  0  0  0
    0.4245   -1.0480    0.0621 C   0  0  0  0  0  0  0  0  0  0  0  0
    0.6000    1.7442   -1.2553 H   0  0  0  0  0  0  0  0  0  0  0  0
   -0.4603    2.0418    0.2169 H   0  0  0  0  0  0  0  0  0  0  0  0
   -0.7426   -0.2074   -1.5719 H   0  0  0  0  0  0  0  0  0  0  0  0
   -2.3344   -0.7881    0.1256 H   0  0  0  0  0  0  0  0  0  0  0  0
   -1.6405    0.4965    1.2684 H   0  0  0  0  0  0  0  0  0  0  0  0
    0.5895   -1.9291   -0.6072 H   0  0  0  0  0  0  0  0  0  0  0  0
  1  2  2  0
  2  3  1  0
  3  4  1  0
  4  5  1  0
  5  6  1  0
  6  7  1  0
  7  8  1  0
  8  2  1  0
  8  5  1  0
  4  9  1  0
  4 10  1  0
  5 11  1  0
  6 12  1  0
  6 13  1  0
  8 14  1  0
M  END
