
     RDKit          3D

 15 16  0  0  0  0  0  0  0  0999 V2000
    0.4537    2.4557    0.4178 O   0  0  0  0  0  0  0  0  0  0  0  0
    0.6081    1.3117    0.0756 C   0  0  0  0  0  0  0  0  0  0  0  0
    1.4705    0.6273   -0.9179 C   0  0  0  0  0  0  0  0  0  0  0  0
    0.8397   -0.1996   -1.8631 O   0  0  0  0  0  0  0  0  0  0  0  0
    1.0678   -0.6062   -0.5421 C   0  0  0  0  0  0  0  0  0  0  0  0
    0.0481   -0.0120    0.4361 C   0  0  0  0  0  0  0  0  0  0  0  0
    0.2475   -0.4222    1.7314 O   0  0  0  0  0  0  0  0  0  0  0  0
   -1.3372   -0.2744   -0.1207 C   0  0  0  0  0  0  0  0  0  0  0  0
   -2.2522    0.4066    0.6799 O   0  0  0  0  0  0  0  0  0  0  0  0
    2.3870    1.0921   -1.2840 H   0  0  0  0  0  0  0  0  0  0  0  0
    1.5102   -1.5731   -0.3398 H   0  0  0  0  0  0  0  0  0  0  0  0
    0.5728   -1.3550    1.7179 H   0  0  0  0  0  0  0  0  0  0  0  0
   -1.5162   -1.3655   -0.1493 H   0  0  0  0  0  0  0  0  0  0  0  0
   -1.4288    0.1577   -1.1369 H   0  0  0  0  0  0  0  0  0  0  0  0
   -2.6710   -0.2430    1.2951 H   0  0  0  0  0  0  0  0  0  0  0  0
  1  2  2  0
  2  3  1  0
  3  4  1  0
  4  5  1  0
  5  6  1  0
  6  7  1  0
  6  8  1  0
  8  9  1  0
  6  2  1  0
  5  3  1  0
  3 10  1  0
  5 11  1  0
  7 12  1  0
  8 13  1  0
  8 14  1  0
  9 15  1  0
M  END
