
     RDKit          3D

 17 19  0  0  0  0  0  0  0  0999 V2000
    1.7620   -1.9613   -0.6817 O   0  0  0  0  0  0  0  0  0  0  0  0
    1.1076   -0.9954   -0.3539 C   0  0  0  0  0  0  0  0  0  0  0  0
    1.7818    0.2534    0.0326 C   0  0  0  0  0  0  0  0  0  0  0  0
    1.1641    1.4101   -0.3062 O   0  0  0  0  0  0  0  0  0  0  0  0
   -0.1886    1.4489   -0.3609 C   0  0  0  0  0  0  0  0  0  0  0  0
   -1.1087    0.7698    0.5437 C   0  0  0  0  0  0  0  0  0  0  0  0
   -0.8973   -0.6237    1.0352 C   0  0  0  0  0  0  0  0  0  0  0  0
   -0.3595   -1.0387   -0.3318 C   0  0  0  0  0  0  0  0  0  0  0  0
   -0.8810    0.2526   -0.8702 C   0  0  0  0  0  0  0  0  0  0  0  0
    2.0156    0.1622    1.1278 H   0  0  0  0  0  0  0  0  0  0  0  0
    2.7842    0.2453   -0.4904 H   0  0  0  0  0  0  0  0  0  0  0  0
   -0.5733    2.4122   -0.8077 H   0  0  0  0  0  0  0  0  0  0  0  0
   -2.0777    1.2556    0.7860 H   0  0  0  0  0  0  0  0  0  0  0  0
   -0.1388   -0.7770    1.8183 H   0  0  0  0  0  0  0  0  0  0  0  0
   -1.8539   -1.1599    1.2053 H   0  0  0  0  0  0  0  0  0  0  0  0
   -0.8323   -1.9252   -0.7692 H   0  0  0  0  0  0  0  0  0  0  0  0
   -1.7041    0.2711   -1.5770 H   0  0  0  0  0  0  0  0  0  0  0  0
  1  2  2  0
  2  3  1  0
  3  4  1  0
  4  5  1  0
  5  6  1  0
  6  7  1  0
  7  8  1  0
  8  9  1  0
  8  2  1  0
  9  5  1  0
  9  6  1  0
  3 10  1  0
  3 11  1  0
  5 12  1  0
  6 13  1  0
  7 14  1  0
  7 15  1  0
  8 16  1  0
  9 17  1  0
M  END
