
     RDKit          3D

 15 16  0  0  0  0  0  0  0  0999 V2000
   -0.3889    2.1626    1.2370 O   0  0  0  0  0  0  0  0  0  0  0  0
   -0.1768    1.2565    0.4660 C   0  0  0  0  0  0  0  0  0  0  0  0
    1.1330    0.8540   -0.0881 C   0  0  0  0  0  0  0  0  0  0  0  0
    1.5294   -0.4098    0.5744 C   0  0  0  0  0  0  0  0  0  0  0  0
    0.6981   -1.3375    0.0927 C   0  0  0  0  0  0  0  0  0  0  0  0
   -0.1844   -0.6126   -0.8615 C   0  0  0  0  0  0  0  0  0  0  0  0
    0.7269    0.3575   -1.3519 O   0  0  0  0  0  0  0  0  0  0  0  0
   -1.1507    0.3050   -0.1352 C   0  0  0  0  0  0  0  0  0  0  0  0
   -1.9319   -0.3410    0.7841 O   0  0  0  0  0  0  0  0  0  0  0  0
    1.8832    1.6159   -0.1413 H   0  0  0  0  0  0  0  0  0  0  0  0
    2.3229   -0.5547    1.2957 H   0  0  0  0  0  0  0  0  0  0  0  0
    0.6821   -2.3793    0.3485 H   0  0  0  0  0  0  0  0  0  0  0  0
   -0.6257   -1.2184   -1.6349 H   0  0  0  0  0  0  0  0  0  0  0  0
   -1.7109    0.8550   -0.9105 H   0  0  0  0  0  0  0  0  0  0  0  0
   -2.8062   -0.5532    0.3250 H   0  0  0  0  0  0  0  0  0  0  0  0
  1  2  2  0
  2  3  1  0
  3  4  1  0
  4  5  2  0
  5  6  1  0
  6  7  1  0
  6  8  1  0
  8  9  1  0
  8  2  1  0
  7  3  1  0
  3 10  1  0
  4 11  1  0
  5 12  1  0
  6 13  1  0
  8 14  1  0
  9 15  1  0
M  END
