
     RDKit          3D

 19 19  0  0  0  0  0  0  0  0999 V2000
    3.2433    0.2547   -0.6650 O   0  0  0  0  0  0  0  0  0  0  0  0
    2.0805    0.1574   -0.3237 C   0  0  0  0  0  0  0  0  0  0  0  0
    1.4363    1.0662    0.6488 C   0  0  0  0  0  0  0  0  0  0  0  0
   -0.0434    1.0932    0.5001 C   0  0  0  0  0  0  0  0  0  0  0  0
   -0.6462   -0.0559    0.2193 C   0  0  0  0  0  0  0  0  0  0  0  0
   -2.1136   -0.1142    0.0559 C   0  0  0  0  0  0  0  0  0  0  0  0
   -2.6946    1.1277    0.2313 O   0  0  0  0  0  0  0  0  0  0  0  0
    0.1854   -1.2821    0.0713 C   0  0  0  0  0  0  0  0  0  0  0  0
    1.2724   -0.9339   -0.9196 C   0  0  0  0  0  0  0  0  0  0  0  0
    1.6598    0.6537    1.6697 H   0  0  0  0  0  0  0  0  0  0  0  0
    1.8539    2.0911    0.6247 H   0  0  0  0  0  0  0  0  0  0  0  0
   -0.6063    2.0310    0.6195 H   0  0  0  0  0  0  0  0  0  0  0  0
   -2.5887   -0.8373    0.7709 H   0  0  0  0  0  0  0  0  0  0  0  0
   -2.4059   -0.4823   -0.9592 H   0  0  0  0  0  0  0  0  0  0  0  0
   -3.5235    1.1838   -0.2926 H   0  0  0  0  0  0  0  0  0  0  0  0
    0.6837   -1.5216    1.0365 H   0  0  0  0  0  0  0  0  0  0  0  0
   -0.4317   -2.1384   -0.2655 H   0  0  0  0  0  0  0  0  0  0  0  0
    1.8819   -1.8097   -1.2092 H   0  0  0  0  0  0  0  0  0  0  0  0
    0.7567   -0.4833   -1.8131 H   0  0  0  0  0  0  0  0  0  0  0  0
  1  2  2  0
  2  3  1  0
  3  4  1  0
  4  5  2  0
  5  6  1  0
  6  7  1  0
  5  8  1  0
  8  9  1  0
  9  2  1  0
  3 10  1  0
  3 11  1  0
  4 12  1  0
  6 13  1  0
  6 14  1  0
  7 15  1  0
  8 16  1  0
  8 17  1  0
  9 18  1  0
  9 19  1  0
M  END
