
     RDKit          3D

 17 18  0  0  0  0  0  0  0  0999 V2000
   -0.2627    2.4555   -0.9175 O   0  0  0  0  0  0  0  0  0  0  0  0
    0.1462    1.2489   -0.8081 C   0  0  0  0  0  0  0  0  0  0  0  0
    1.0613    0.6160   -1.6580 O   0  0  0  0  0  0  0  0  0  0  0  0
    1.5688   -0.5535   -1.0405 C   0  0  0  0  0  0  0  0  0  0  0  0
    1.0438   -0.5201    0.3985 C   0  0  0  0  0  0  0  0  0  0  0  0
   -0.2187    0.2457    0.1957 C   0  0  0  0  0  0  0  0  0  0  0  0
   -1.0291    0.6376    1.3456 C   0  0  0  0  0  0  0  0  0  0  0  0
   -2.1863    0.4177    0.5616 O   0  0  0  0  0  0  0  0  0  0  0  0
   -1.4443   -0.5322   -0.1600 C   0  0  0  0  0  0  0  0  0  0  0  0
    1.0981   -1.4723   -1.4966 H   0  0  0  0  0  0  0  0  0  0  0  0
    2.6531   -0.6343   -1.0875 H   0  0  0  0  0  0  0  0  0  0  0  0
    0.9332   -1.5118    0.8237 H   0  0  0  0  0  0  0  0  0  0  0  0
    1.7472    0.0798    0.9915 H   0  0  0  0  0  0  0  0  0  0  0  0
   -0.9927    1.6991    1.6946 H   0  0  0  0  0  0  0  0  0  0  0  0
   -1.0218   -0.1045    2.1549 H   0  0  0  0  0  0  0  0  0  0  0  0
   -1.4850   -1.5592    0.2534 H   0  0  0  0  0  0  0  0  0  0  0  0
   -1.6110   -0.5123   -1.2513 H   0  0  0  0  0  0  0  0  0  0  0  0
  1  2  2  0
  2  3  1  0
  3  4  1  0
  4  5  1  0
  5  6  1  0
  6  7  1  0
  7  8  1  0
  8  9  1  0
  6  2  1  0
  9  6  1  0
  4 10  1  0
  4 11  1  0
  5 12  1  0
  5 13  1  0
  7 14  1  0
  7 15  1  0
  9 16  1  0
  9 17  1  0
M  END
