
     RDKit          3D

 19 20  0  0  0  0  0  0  0  0999 V2000
    2.0133    1.9368   -0.3072 O   0  0  0  0  0  0  0  0  0  0  0  0
    1.3408    0.9722   -0.1028 C   0  0  0  0  0  0  0  0  0  0  0  0
    1.8643   -0.3877   -0.3094 C   0  0  0  0  0  0  0  0  0  0  0  0
    0.8443   -1.2528   -0.5791 O   0  0  0  0  0  0  0  0  0  0  0  0
   -0.2620   -1.2067    0.2190 C   0  0  0  0  0  0  0  0  0  0  0  0
   -1.4081   -0.6705   -0.6219 C   0  0  0  0  0  0  0  0  0  0  0  0
   -1.0646    0.7844   -0.7089 C   0  0  0  0  0  0  0  0  0  0  0  0
   -0.0509    1.1072    0.3679 C   0  0  0  0  0  0  0  0  0  0  0  0
   -0.2486   -0.1201    1.2771 C   0  0  0  0  0  0  0  0  0  0  0  0
    2.5510   -0.4119   -1.2060 H   0  0  0  0  0  0  0  0  0  0  0  0
    2.4077   -0.7644    0.5820 H   0  0  0  0  0  0  0  0  0  0  0  0
   -0.5528   -2.1910    0.6463 H   0  0  0  0  0  0  0  0  0  0  0  0
   -2.3729   -0.8548   -0.0763 H   0  0  0  0  0  0  0  0  0  0  0  0
   -1.4322   -1.1844   -1.5994 H   0  0  0  0  0  0  0  0  0  0  0  0
   -0.6563    1.0637   -1.7031 H   0  0  0  0  0  0  0  0  0  0  0  0
   -1.9765    1.3785   -0.4731 H   0  0  0  0  0  0  0  0  0  0  0  0
   -0.2630    2.0385    0.8998 H   0  0  0  0  0  0  0  0  0  0  0  0
    0.5363   -0.2233    2.0122 H   0  0  0  0  0  0  0  0  0  0  0  0
   -1.2698   -0.0137    1.6827 H   0  0  0  0  0  0  0  0  0  0  0  0
  1  2  2  0
  2  3  1  0
  3  4  1  0
  4  5  1  0
  5  6  1  0
  6  7  1  0
  7  8  1  0
  8  9  1  0
  8  2  1  0
  9  5  1  0
  3 10  1  0
  3 11  1  0
  5 12  1  0
  6 13  1  0
  6 14  1  0
  7 15  1  0
  7 16  1  0
  8 17  1  0
  9 18  1  0
  9 19  1  0
M  END
