
     RDKit          3D

  9  9  0  0  0  0  0  0  0  0999 V2000
    1.8906    1.4427    0.3732 O   0  0  0  0  0  0  0  0  0  0  0  0
    0.8882    0.7091    0.1876 C   0  0  0  0  0  0  0  0  0  0  0  0
   -0.4264    1.1035    0.2500 O   0  0  0  0  0  0  0  0  0  0  0  0
   -1.2463   -0.0257   -0.0500 C   0  0  0  0  0  0  0  0  0  0  0  0
   -0.3615   -1.1280   -0.2518 O   0  0  0  0  0  0  0  0  0  0  0  0
    0.9487   -0.7052   -0.1301 C   0  0  0  0  0  0  0  0  0  0  0  0
    2.0126   -1.3487   -0.2538 O   0  0  0  0  0  0  0  0  0  0  0  0
   -1.8679   -0.2246    0.8359 H   0  0  0  0  0  0  0  0  0  0  0  0
   -1.8381    0.1769   -0.9611 H   0  0  0  0  0  0  0  0  0  0  0  0
  1  2  2  0
  2  3  1  0
  3  4  1  0
  4  5  1  0
  5  6  1  0
  6  7  2  0
  6  2  1  0
  4  8  1  0
  4  9  1  0
M  END
