
     RDKit          3D

 14 14  0  0  0  0  0  0  0  0999 V2000
   -0.1838    2.1690   -0.8444 O   0  0  0  0  0  0  0  0  0  0  0  0
   -0.2135    1.1250   -0.2133 C   0  0  0  0  0  0  0  0  0  0  0  0
    1.0219    0.5917    0.4274 C   0  0  0  0  0  0  0  0  0  0  0  0
    1.3406   -0.7294   -0.2400 C   0  0  0  0  0  0  0  0  0  0  0  0
    0.2269   -1.5739   -0.0635 O   0  0  0  0  0  0  0  0  0  0  0  0
   -1.0688   -1.1147    0.0606 C   0  0  0  0  0  0  0  0  0  0  0  0
   -2.0070   -1.9329    0.2665 O   0  0  0  0  0  0  0  0  0  0  0  0
   -1.4519    0.3155   -0.0332 C   0  0  0  0  0  0  0  0  0  0  0  0
    0.8347    0.3512    1.5096 H   0  0  0  0  0  0  0  0  0  0  0  0
    1.8422    1.3343    0.3093 H   0  0  0  0  0  0  0  0  0  0  0  0
    2.2779   -1.1674    0.1072 H   0  0  0  0  0  0  0  0  0  0  0  0
    1.4414   -0.5691   -1.3440 H   0  0  0  0  0  0  0  0  0  0  0  0
   -1.9219    0.6852    0.9232 H   0  0  0  0  0  0  0  0  0  0  0  0
   -2.1388    0.5153   -0.8653 H   0  0  0  0  0  0  0  0  0  0  0  0
  1  2  2  0
  2  3  1  0
  3  4  1  0
  4  5  1  0
  5  6  1  0
  6  7  2  0
  6  8  1  0
  8  2  1  0
  3  9  1  0
  3 10  1  0
  4 11  1  0
  4 12  1  0
  8 13  1  0
  8 14  1  0
M  END
