
     RDKit          3D

 15 17  0  0  0  0  0  0  0  0999 V2000
    2.4186   -1.0408   -0.7862 O   0  0  0  0  0  0  0  0  0  0  0  0
    1.3714   -0.6135   -0.3773 C   0  0  0  0  0  0  0  0  0  0  0  0
    0.9635    0.8428   -0.4698 C   0  0  0  0  0  0  0  0  0  0  0  0
   -0.4392    0.6945    0.0709 C   0  0  0  0  0  0  0  0  0  0  0  0
   -1.2544    1.7597    0.0665 O   0  0  0  0  0  0  0  0  0  0  0  0
   -0.9615   -0.6366   -0.3607 C   0  0  0  0  0  0  0  0  0  0  0  0
   -1.5782   -0.7184    0.8877 O   0  0  0  0  0  0  0  0  0  0  0  0
   -0.3396   -0.2075    1.2234 C   0  0  0  0  0  0  0  0  0  0  0  0
    0.2320   -1.2384    0.2804 C   0  0  0  0  0  0  0  0  0  0  0  0
    0.9565    1.2002   -1.5007 H   0  0  0  0  0  0  0  0  0  0  0  0
    1.6247    1.4037    0.2132 H   0  0  0  0  0  0  0  0  0  0  0  0
   -1.8583    1.7093   -0.7369 H   0  0  0  0  0  0  0  0  0  0  0  0
   -1.3860   -0.8707   -1.2454 H   0  0  0  0  0  0  0  0  0  0  0  0
    0.0040   -0.0250    2.1578 H   0  0  0  0  0  0  0  0  0  0  0  0
    0.2464   -2.2592    0.5772 H   0  0  0  0  0  0  0  0  0  0  0  0
  1  2  2  0
  2  3  1  0
  3  4  1  0
  4  5  1  0
  4  6  1  0
  6  7  1  0
  7  8  1  0
  8  9  1  0
  9  2  1  0
  8  4  1  0
  9  6  1  0
  3 10  1  0
  3 11  1  0
  5 12  1  0
  6 13  1  0
  8 14  1  0
  9 15  1  0
M  END
