
     RDKit          3D

 17 19  0  0  0  0  0  0  0  0999 V2000
    0.4923    1.6799    1.8782 O   0  0  0  0  0  0  0  0  0  0  0  0
    0.2444    1.0156    0.8996 C   0  0  0  0  0  0  0  0  0  0  0  0
   -1.0237    0.9970    0.1752 C   0  0  0  0  0  0  0  0  0  0  0  0
   -1.9143   -0.1666    0.1234 C   0  0  0  0  0  0  0  0  0  0  0  0
   -0.8783   -0.0213   -0.9287 C   0  0  0  0  0  0  0  0  0  0  0  0
    0.4630   -0.6707   -0.7938 C   0  0  0  0  0  0  0  0  0  0  0  0
    0.8654   -1.3702    0.4502 C   0  0  0  0  0  0  0  0  0  0  0  0
    1.1819    0.0898    0.2448 C   0  0  0  0  0  0  0  0  0  0  0  0
    2.5052    0.4790    0.0544 O   0  0  0  0  0  0  0  0  0  0  0  0
   -1.4655    1.9861   -0.0672 H   0  0  0  0  0  0  0  0  0  0  0  0
   -1.8270   -1.0240    0.8240 H   0  0  0  0  0  0  0  0  0  0  0  0
   -2.9550    0.0010   -0.2126 H   0  0  0  0  0  0  0  0  0  0  0  0
   -1.1189    0.3758   -1.9321 H   0  0  0  0  0  0  0  0  0  0  0  0
    1.0392   -0.9035   -1.7176 H   0  0  0  0  0  0  0  0  0  0  0  0
    0.1234   -1.6742    1.2150 H   0  0  0  0  0  0  0  0  0  0  0  0
    1.7301   -2.0354    0.3880 H   0  0  0  0  0  0  0  0  0  0  0  0
    2.5377    1.2419   -0.6007 H   0  0  0  0  0  0  0  0  0  0  0  0
  1  2  2  0
  2  3  1  0
  3  4  1  0
  4  5  1  0
  5  6  1  0
  6  7  1  0
  7  8  1  0
  8  9  1  0
  8  2  1  0
  5  3  1  0
  8  6  1  0
  3 10  1  0
  4 11  1  0
  4 12  1  0
  5 13  1  0
  6 14  1  0
  7 15  1  0
  7 16  1  0
  9 17  1  0
M  END
