
     RDKit          3D

 19 20  0  0  0  0  0  0  0  0999 V2000
   -3.0322    0.9419   -0.9195 O   0  0  0  0  0  0  0  0  0  0  0  0
   -1.9600    0.4193   -0.6967 C   0  0  0  0  0  0  0  0  0  0  0  0
   -1.8400   -0.9733   -0.1491 C   0  0  0  0  0  0  0  0  0  0  0  0
   -0.4646   -1.0559    0.4084 C   0  0  0  0  0  0  0  0  0  0  0  0
    0.3223    0.1106   -0.0923 C   0  0  0  0  0  0  0  0  0  0  0  0
   -0.5776    0.9873   -0.8959 C   0  0  0  0  0  0  0  0  0  0  0  0
    1.2827    0.8056    0.8059 C   0  0  0  0  0  0  0  0  0  0  0  0
    1.7499   -0.0561   -0.3433 C   0  0  0  0  0  0  0  0  0  0  0  0
    2.3968    0.5805   -1.4169 O   0  0  0  0  0  0  0  0  0  0  0  0
   -2.0033   -1.6800   -1.0107 H   0  0  0  0  0  0  0  0  0  0  0  0
   -2.6016   -1.1943    0.6056 H   0  0  0  0  0  0  0  0  0  0  0  0
   -0.4125   -1.1540    1.4978 H   0  0  0  0  0  0  0  0  0  0  0  0
    0.0279   -1.9818   -0.0135 H   0  0  0  0  0  0  0  0  0  0  0  0
   -0.6193    2.0053   -0.4524 H   0  0  0  0  0  0  0  0  0  0  0  0
   -0.3539    1.0323   -1.9597 H   0  0  0  0  0  0  0  0  0  0  0  0
    1.4943    1.8804    0.7108 H   0  0  0  0  0  0  0  0  0  0  0  0
    1.3186    0.4168    1.8386 H   0  0  0  0  0  0  0  0  0  0  0  0
    2.1951   -1.0315    0.0165 H   0  0  0  0  0  0  0  0  0  0  0  0
    3.0774   -0.0531   -1.7596 H   0  0  0  0  0  0  0  0  0  0  0  0
  1  2  2  0
  2  3  1  0
  3  4  1  0
  4  5  1  0
  5  6  1  0
  5  7  1  0
  7  8  1  0
  8  9  1  0
  6  2  1  0
  8  5  1  0
  3 10  1  0
  3 11  1  0
  4 12  1  0
  4 13  1  0
  6 14  1  0
  6 15  1  0
  7 16  1  0
  7 17  1  0
  8 18  1  0
  9 19  1  0
M  END
