
     RDKit          3D

 19 20  0  0  0  0  0  0  0  0999 V2000
    0.1672   -1.1080    2.2870 O   0  0  0  0  0  0  0  0  0  0  0  0
    0.1262   -0.6009    1.2156 C   0  0  0  0  0  0  0  0  0  0  0  0
    0.7854   -1.0966   -0.0277 C   0  0  0  0  0  0  0  0  0  0  0  0
    1.5791    0.1606   -0.3843 C   0  0  0  0  0  0  0  0  0  0  0  0
    0.6794    1.3119    0.0672 C   0  0  0  0  0  0  0  0  0  0  0  0
   -0.5223    0.6210    0.6668 C   0  0  0  0  0  0  0  0  0  0  0  0
   -1.2547    1.3407    1.5289 O   0  0  0  0  0  0  0  0  0  0  0  0
   -1.2790    0.0110   -0.4981 C   0  0  0  0  0  0  0  0  0  0  0  0
   -0.4308   -1.1872   -0.9281 C   0  0  0  0  0  0  0  0  0  0  0  0
    1.3655   -1.9871    0.0724 H   0  0  0  0  0  0  0  0  0  0  0  0
    1.7450    0.1878   -1.4803 H   0  0  0  0  0  0  0  0  0  0  0  0
    2.5031    0.1803    0.2093 H   0  0  0  0  0  0  0  0  0  0  0  0
    0.3090    1.8856   -0.8109 H   0  0  0  0  0  0  0  0  0  0  0  0
    1.1825    1.9984    0.7474 H   0  0  0  0  0  0  0  0  0  0  0  0
   -2.2173    1.0532    1.4973 H   0  0  0  0  0  0  0  0  0  0  0  0
   -2.3044   -0.2620   -0.2562 H   0  0  0  0  0  0  0  0  0  0  0  0
   -1.2382    0.7578   -1.3271 H   0  0  0  0  0  0  0  0  0  0  0  0
   -0.9987   -2.0832   -0.5907 H   0  0  0  0  0  0  0  0  0  0  0  0
   -0.1971   -1.1833   -1.9886 H   0  0  0  0  0  0  0  0  0  0  0  0
  1  2  2  0
  2  3  1  0
  3  4  1  0
  4  5  1  0
  5  6  1  0
  6  7  1  0
  6  8  1  0
  8  9  1  0
  6  2  1  0
  9  3  1  0
  3 10  1  0
  4 11  1  0
  4 12  1  0
  5 13  1  0
  5 14  1  0
  7 15  1  0
  8 16  1  0
  8 17  1  0
  9 18  1  0
  9 19  1  0
M  END
