
     RDKit          3D

 11 12  0  0  0  0  0  0  0  0999 V2000
    2.7645    0.4135   -0.7433 O   0  0  0  0  0  0  0  0  0  0  0  0
    1.6315   -0.0097   -0.4033 C   0  0  0  0  0  0  0  0  0  0  0  0
    1.2531   -1.2269    0.1442 O   0  0  0  0  0  0  0  0  0  0  0  0
    0.0745   -0.5906    0.5945 C   0  0  0  0  0  0  0  0  0  0  0  0
   -0.9248   -0.2889   -0.4551 C   0  0  0  0  0  0  0  0  0  0  0  0
   -2.1330    0.2351    0.0219 O   0  0  0  0  0  0  0  0  0  0  0  0
    0.2879    0.5647   -0.4342 C   0  0  0  0  0  0  0  0  0  0  0  0
   -0.0137   -0.2511    1.6249 H   0  0  0  0  0  0  0  0  0  0  0  0
   -1.0519   -1.0986   -1.2183 H   0  0  0  0  0  0  0  0  0  0  0  0
   -1.9977    0.6567    0.9038 H   0  0  0  0  0  0  0  0  0  0  0  0
    0.1095    1.5958   -0.0352 H   0  0  0  0  0  0  0  0  0  0  0  0
  1  2  2  0
  2  3  1  0
  3  4  1  0
  4  5  1  0
  5  6  1  0
  5  7  1  0
  7  2  1  0
  7  4  1  0
  4  8  1  0
  5  9  1  0
  6 10  1  0
  7 11  1  0
M  END
