
     RDKit          3D

 17 17  0  0  0  0  0  0  0  0999 V2000
    0.7408   -2.1836   -1.0114 O   0  0  0  0  0  0  0  0  0  0  0  0
    0.4536   -1.0459   -0.7712 C   0  0  0  0  0  0  0  0  0  0  0  0
   -0.9555   -0.6363   -0.7016 C   0  0  0  0  0  0  0  0  0  0  0  0
   -1.1333    0.1090    0.6276 C   0  0  0  0  0  0  0  0  0  0  0  0
   -2.4691    0.4347    0.8055 O   0  0  0  0  0  0  0  0  0  0  0  0
   -0.2575    1.3103    0.5595 C   0  0  0  0  0  0  0  0  0  0  0  0
    0.9425    1.2116    0.0196 C   0  0  0  0  0  0  0  0  0  0  0  0
    1.5046   -0.0455   -0.5433 C   0  0  0  0  0  0  0  0  0  0  0  0
    2.5461   -0.5356    0.2464 O   0  0  0  0  0  0  0  0  0  0  0  0
   -1.6601   -1.4818   -0.7801 H   0  0  0  0  0  0  0  0  0  0  0  0
   -1.1623    0.1434   -1.4868 H   0  0  0  0  0  0  0  0  0  0  0  0
   -0.7367   -0.5499    1.4345 H   0  0  0  0  0  0  0  0  0  0  0  0
   -2.9397   -0.3941    1.0819 H   0  0  0  0  0  0  0  0  0  0  0  0
   -0.6270    2.2687    0.9633 H   0  0  0  0  0  0  0  0  0  0  0  0
    1.5747    2.0950   -0.0254 H   0  0  0  0  0  0  0  0  0  0  0  0
    1.9601    0.1915   -1.5344 H   0  0  0  0  0  0  0  0  0  0  0  0
    2.2187   -0.8915    1.1158 H   0  0  0  0  0  0  0  0  0  0  0  0
  1  2  2  0
  2  3  1  0
  3  4  1  0
  4  5  1  0
  4  6  1  0
  6  7  2  0
  7  8  1  0
  8  9  1  0
  8  2  1  0
  3 10  1  0
  3 11  1  0
  4 12  1  0
  5 13  1  0
  6 14  1  0
  7 15  1  0
  8 16  1  0
  9 17  1  0
M  END
