
     RDKit          3D

 15 15  0  0  0  0  0  0  0  0999 V2000
    2.0348    1.9400    0.3585 O   0  0  0  0  0  0  0  0  0  0  0  0
    1.3157    0.9256    0.0595 C   0  0  0  0  0  0  0  0  0  0  0  0
   -0.0993    1.1162   -0.2482 C   0  0  0  0  0  0  0  0  0  0  0  0
   -0.9773   -0.0572   -0.0322 C   0  0  0  0  0  0  0  0  0  0  0  0
   -1.6169   -0.4650   -1.2259 O   0  0  0  0  0  0  0  0  0  0  0  0
   -0.3420   -1.2371    0.6127 C   0  0  0  0  0  0  0  0  0  0  0  0
    0.9960   -1.4575    0.2082 O   0  0  0  0  0  0  0  0  0  0  0  0
    1.8890   -0.4120    0.0225 C   0  0  0  0  0  0  0  0  0  0  0  0
    3.1195   -0.5636   -0.1683 O   0  0  0  0  0  0  0  0  0  0  0  0
   -0.1972    1.4227   -1.3249 H   0  0  0  0  0  0  0  0  0  0  0  0
   -0.4473    2.0290    0.3195 H   0  0  0  0  0  0  0  0  0  0  0  0
   -1.8206    0.2729    0.6441 H   0  0  0  0  0  0  0  0  0  0  0  0
   -2.5479   -0.1950   -1.2661 H   0  0  0  0  0  0  0  0  0  0  0  0
   -0.3909   -1.1769    1.7228 H   0  0  0  0  0  0  0  0  0  0  0  0
   -0.9156   -2.1422    0.3176 H   0  0  0  0  0  0  0  0  0  0  0  0
  1  2  2  0
  2  3  1  0
  3  4  1  0
  4  5  1  0
  4  6  1  0
  6  7  1  0
  7  8  1  0
  8  9  2  0
  8  2  1  0
  3 10  1  0
  3 11  1  0
  4 12  1  0
  5 13  1  0
  6 14  1  0
  6 15  1  0
M  END
