
     RDKit          3D

 14 16  0  0  0  0  0  0  0  0999 V2000
    2.7474   -0.0387    1.2831 O   0  0  0  0  0  0  0  0  0  0  0  0
    1.7180   -0.2005    0.5828 C   0  0  0  0  0  0  0  0  0  0  0  0
    1.5526   -0.9527   -0.6034 O   0  0  0  0  0  0  0  0  0  0  0  0
    0.1976   -0.6456   -0.9450 C   0  0  0  0  0  0  0  0  0  0  0  0
   -0.5500   -0.7373    0.3444 C   0  0  0  0  0  0  0  0  0  0  0  0
   -1.4263    0.3701   -0.1663 C   0  0  0  0  0  0  0  0  0  0  0  0
   -0.0445    0.7816   -0.5790 C   0  0  0  0  0  0  0  0  0  0  0  0
    0.3847    0.3469    0.7945 C   0  0  0  0  0  0  0  0  0  0  0  0
   -0.2035   -1.0563   -1.8384 H   0  0  0  0  0  0  0  0  0  0  0  0
   -0.8270   -1.5547    0.8491 H   0  0  0  0  0  0  0  0  0  0  0  0
   -2.1381    0.1219   -0.9524 H   0  0  0  0  0  0  0  0  0  0  0  0
   -1.7918    1.0158    0.6615 H   0  0  0  0  0  0  0  0  0  0  0  0
    0.2320    1.6080   -1.0690 H   0  0  0  0  0  0  0  0  0  0  0  0
    0.1489    0.9414    1.6383 H   0  0  0  0  0  0  0  0  0  0  0  0
  1  2  2  0
  2  3  1  0
  3  4  1  0
  4  5  1  0
  5  6  1  0
  6  7  1  0
  7  8  1  0
  8  2  1  0
  7  4  1  0
  8  5  1  0
  4  9  1  0
  5 10  1  0
  6 11  1  0
  6 12  1  0
  7 13  1  0
  8 14  1  0
M  END
