
     RDKit          3D

 14 15  0  0  0  0  0  0  0  0999 V2000
   -0.2909    0.5597    2.4721 O   0  0  0  0  0  0  0  0  0  0  0  0
   -0.2370    0.1809    1.3217 C   0  0  0  0  0  0  0  0  0  0  0  0
   -0.9395   -0.7080    0.3545 C   0  0  0  0  0  0  0  0  0  0  0  0
   -1.3706    0.2709   -0.6797 C   0  0  0  0  0  0  0  0  0  0  0  0
   -0.2770    1.0364   -0.8103 C   0  0  0  0  0  0  0  0  0  0  0  0
    0.6637    0.4394    0.1465 C   0  0  0  0  0  0  0  0  0  0  0  0
    1.8789    0.9050    0.3387 O   0  0  0  0  0  0  0  0  0  0  0  0
    0.4637   -1.0505   -0.1527 C   0  0  0  0  0  0  0  0  0  0  0  0
   -1.5706   -1.4718    0.6821 H   0  0  0  0  0  0  0  0  0  0  0  0
   -2.3240    0.3507   -1.1992 H   0  0  0  0  0  0  0  0  0  0  0  0
   -0.0645    1.8886   -1.4346 H   0  0  0  0  0  0  0  0  0  0  0  0
    2.5215    0.5862   -0.3195 H   0  0  0  0  0  0  0  0  0  0  0  0
    1.0332   -1.7177    0.5127 H   0  0  0  0  0  0  0  0  0  0  0  0
    0.5131   -1.2698   -1.2322 H   0  0  0  0  0  0  0  0  0  0  0  0
  1  2  2  0
  2  3  1  0
  3  4  1  0
  4  5  2  0
  5  6  1  0
  6  7  1  0
  6  8  1  0
  6  2  1  0
  8  3  1  0
  3  9  1  0
  4 10  1  0
  5 11  1  0
  7 12  1  0
  8 13  1  0
  8 14  1  0
M  END
