
     RDKit          3D

 17 18  0  0  0  0  0  0  0  0999 V2000
    2.3144   -1.8943   -0.2541 O   0  0  0  0  0  0  0  0  0  0  0  0
    1.3072   -1.1617   -0.2449 C   0  0  0  0  0  0  0  0  0  0  0  0
    1.5274    0.2958   -0.3154 C   0  0  0  0  0  0  0  0  0  0  0  0
    0.5546    0.9278    0.6891 C   0  0  0  0  0  0  0  0  0  0  0  0
   -0.6858    1.2454   -0.0753 C   0  0  0  0  0  0  0  0  0  0  0  0
   -1.9376    1.0964    0.4882 O   0  0  0  0  0  0  0  0  0  0  0  0
   -1.4355    0.0940   -0.4669 C   0  0  0  0  0  0  0  0  0  0  0  0
   -1.1803   -1.1985    0.2131 C   0  0  0  0  0  0  0  0  0  0  0  0
    0.0718   -1.7925   -0.1689 O   0  0  0  0  0  0  0  0  0  0  0  0
    2.5529    0.6127   -0.1520 H   0  0  0  0  0  0  0  0  0  0  0  0
    1.2616    0.6130   -1.3651 H   0  0  0  0  0  0  0  0  0  0  0  0
    0.3919    0.2287    1.5350 H   0  0  0  0  0  0  0  0  0  0  0  0
    1.0527    1.8195    1.1149 H   0  0  0  0  0  0  0  0  0  0  0  0
   -0.5857    2.0903   -0.7827 H   0  0  0  0  0  0  0  0  0  0  0  0
   -1.9797    0.1023   -1.4288 H   0  0  0  0  0  0  0  0  0  0  0  0
   -1.9996   -1.9111   -0.0995 H   0  0  0  0  0  0  0  0  0  0  0  0
   -1.2302   -1.1678    1.3131 H   0  0  0  0  0  0  0  0  0  0  0  0
  1  2  2  0
  2  3  1  0
  3  4  1  0
  4  5  1  0
  5  6  1  0
  6  7  1  0
  7  8  1  0
  8  9  1  0
  9  2  1  0
  7  5  1  0
  3 10  1  0
  3 11  1  0
  4 12  1  0
  4 13  1  0
  5 14  1  0
  7 15  1  0
  8 16  1  0
  8 17  1  0
M  END
