
     RDKit          3D

 17 17  0  0  0  0  0  0  0  0999 V2000
    2.4892    1.3700   -0.2417 O   0  0  0  0  0  0  0  0  0  0  0  0
    1.4062    0.8689    0.1859 C   0  0  0  0  0  0  0  0  0  0  0  0
    0.2513    1.7528    0.0590 C   0  0  0  0  0  0  0  0  0  0  0  0
   -1.0606    1.6434   -0.0745 C   0  0  0  0  0  0  0  0  0  0  0  0
   -1.8861    0.4194   -0.1477 C   0  0  0  0  0  0  0  0  0  0  0  0
   -1.6441   -0.8721   -0.3211 C   0  0  0  0  0  0  0  0  0  0  0  0
   -0.3928   -1.6068   -0.5159 C   0  0  0  0  0  0  0  0  0  0  0  0
    0.8648   -1.4896   -0.1296 C   0  0  0  0  0  0  0  0  0  0  0  0
    1.5764   -0.5037    0.7153 C   0  0  0  0  0  0  0  0  0  0  0  0
    0.5562    2.8049    0.0784 H   0  0  0  0  0  0  0  0  0  0  0  0
   -1.5947    2.5623   -0.1376 H   0  0  0  0  0  0  0  0  0  0  0  0
   -2.9342    0.6250   -0.0331 H   0  0  0  0  0  0  0  0  0  0  0  0
   -2.5107   -1.5174   -0.3237 H   0  0  0  0  0  0  0  0  0  0  0  0
   -0.5278   -2.4862   -1.1440 H   0  0  0  0  0  0  0  0  0  0  0  0
    1.5224   -2.2899   -0.5142 H   0  0  0  0  0  0  0  0  0  0  0  0
    1.2240   -0.5471    1.7836 H   0  0  0  0  0  0  0  0  0  0  0  0
    2.6605   -0.7339    0.7608 H   0  0  0  0  0  0  0  0  0  0  0  0
  1  2  2  0
  2  3  1  0
  3  4  2  3
  4  5  1  0
  5  6  2  3
  6  7  1  0
  7  8  2  3
  8  9  1  0
  9  2  1  0
  3 10  1  0
  4 11  1  0
  5 12  1  0
  6 13  1  0
  7 14  1  0
  8 15  1  0
  9 16  1  0
  9 17  1  0
M  END
