
     RDKit          3D

 17 18  0  0  0  0  0  0  0  0999 V2000
   -1.0260    1.5850   -2.1369 O   0  0  0  0  0  0  0  0  0  0  0  0
   -0.6955    0.8789   -1.2449 C   0  0  0  0  0  0  0  0  0  0  0  0
   -1.3775    0.6237    0.0483 C   0  0  0  0  0  0  0  0  0  0  0  0
   -0.2573   -0.1481    0.7251 C   0  0  0  0  0  0  0  0  0  0  0  0
   -0.3600   -0.5217    1.9867 O   0  0  0  0  0  0  0  0  0  0  0  0
    0.0352   -1.1930   -0.3527 C   0  0  0  0  0  0  0  0  0  0  0  0
    0.4978    0.0320   -1.1399 C   0  0  0  0  0  0  0  0  0  0  0  0
    1.0264    0.5084    0.2246 C   0  0  0  0  0  0  0  0  0  0  0  0
    2.1563   -0.1880    0.5524 O   0  0  0  0  0  0  0  0  0  0  0  0
   -2.1869   -0.1124   -0.1425 H   0  0  0  0  0  0  0  0  0  0  0  0
   -1.6783    1.5095    0.5879 H   0  0  0  0  0  0  0  0  0  0  0  0
   -0.9718   -1.2693    2.1114 H   0  0  0  0  0  0  0  0  0  0  0  0
    0.8918   -1.8376   -0.1597 H   0  0  0  0  0  0  0  0  0  0  0  0
   -0.8789   -1.6411   -0.7341 H   0  0  0  0  0  0  0  0  0  0  0  0
    1.1813   -0.0881   -1.9239 H   0  0  0  0  0  0  0  0  0  0  0  0
    1.0337    1.5938    0.3067 H   0  0  0  0  0  0  0  0  0  0  0  0
    2.6096    0.2680    1.2916 H   0  0  0  0  0  0  0  0  0  0  0  0
  1  2  2  0
  2  3  1  0
  3  4  1  0
  4  5  1  0
  4  6  1  0
  6  7  1  0
  7  8  1  0
  8  9  1  0
  7  2  1  0
  8  4  1  0
  3 10  1  0
  3 11  1  0
  5 12  1  0
  6 13  1  0
  6 14  1  0
  7 15  1  0
  8 16  1  0
  9 17  1  0
M  END
