
     RDKit          3D

 19 20  0  0  0  0  0  0  0  0999 V2000
   -0.6243   -0.5486   -2.5178 O   0  0  0  0  0  0  0  0  0  0  0  0
   -0.6785   -0.4881   -1.3044 C   0  0  0  0  0  0  0  0  0  0  0  0
   -1.3318    0.4475   -0.3606 C   0  0  0  0  0  0  0  0  0  0  0  0
   -0.2960    1.4863    0.0169 C   0  0  0  0  0  0  0  0  0  0  0  0
    1.0565    0.8889    0.2278 C   0  0  0  0  0  0  0  0  0  0  0  0
    1.0348   -0.5930    0.4970 C   0  0  0  0  0  0  0  0  0  0  0  0
    2.2160   -1.2234    0.2099 O   0  0  0  0  0  0  0  0  0  0  0  0
   -0.1725   -1.2412   -0.1521 C   0  0  0  0  0  0  0  0  0  0  0  0
   -1.3700   -0.6910    0.6381 C   0  0  0  0  0  0  0  0  0  0  0  0
   -2.2877    0.8705   -0.6514 H   0  0  0  0  0  0  0  0  0  0  0  0
   -0.6203    2.0935    0.8663 H   0  0  0  0  0  0  0  0  0  0  0  0
   -0.2143    2.1670   -0.8811 H   0  0  0  0  0  0  0  0  0  0  0  0
    1.7622    1.0626   -0.6176 H   0  0  0  0  0  0  0  0  0  0  0  0
    1.5406    1.3893    1.1158 H   0  0  0  0  0  0  0  0  0  0  0  0
    0.8672   -0.7083    1.6093 H   0  0  0  0  0  0  0  0  0  0  0  0
    2.6156   -0.8460   -0.6069 H   0  0  0  0  0  0  0  0  0  0  0  0
   -0.1329   -2.3230   -0.2363 H   0  0  0  0  0  0  0  0  0  0  0  0
   -1.1287   -0.4118    1.6706 H   0  0  0  0  0  0  0  0  0  0  0  0
   -2.2360   -1.3312    0.4765 H   0  0  0  0  0  0  0  0  0  0  0  0
  1  2  2  0
  2  3  1  0
  3  4  1  0
  4  5  1  0
  5  6  1  0
  6  7  1  0
  6  8  1  0
  8  9  1  0
  8  2  1  0
  9  3  1  0
  3 10  1  0
  4 11  1  0
  4 12  1  0
  5 13  1  0
  5 14  1  0
  6 15  1  0
  7 16  1  0
  8 17  1  0
  9 18  1  0
  9 19  1  0
M  END
