
     RDKit          3D

 16 17  0  0  0  0  0  0  0  0999 V2000
   -0.8337   -2.4246    0.7790 O   0  0  0  0  0  0  0  0  0  0  0  0
   -0.8727   -1.3448    0.2121 C   0  0  0  0  0  0  0  0  0  0  0  0
   -1.7779   -0.2060   -0.0107 C   0  0  0  0  0  0  0  0  0  0  0  0
   -0.6518    0.6069   -0.6228 C   0  0  0  0  0  0  0  0  0  0  0  0
   -0.1446    1.4901    0.2756 O   0  0  0  0  0  0  0  0  0  0  0  0
    1.1327    1.1528    0.6102 C   0  0  0  0  0  0  0  0  0  0  0  0
    1.3998   -0.2502    0.1449 C   0  0  0  0  0  0  0  0  0  0  0  0
    0.1580   -0.6449   -0.6138 C   0  0  0  0  0  0  0  0  0  0  0  0
   -2.2013    0.2290    0.9303 H   0  0  0  0  0  0  0  0  0  0  0  0
   -2.5980   -0.3529   -0.7362 H   0  0  0  0  0  0  0  0  0  0  0  0
   -0.8582    0.9827   -1.6443 H   0  0  0  0  0  0  0  0  0  0  0  0
    1.8225    1.8923    0.1466 H   0  0  0  0  0  0  0  0  0  0  0  0
    1.2878    1.2476    1.7106 H   0  0  0  0  0  0  0  0  0  0  0  0
    2.2481   -0.3033   -0.5920 H   0  0  0  0  0  0  0  0  0  0  0  0
    1.5591   -0.9457    0.9977 H   0  0  0  0  0  0  0  0  0  0  0  0
    0.3301   -1.1290   -1.5871 H   0  0  0  0  0  0  0  0  0  0  0  0
  1  2  2  0
  2  3  1  0
  3  4  1  0
  4  5  1  0
  5  6  1  0
  6  7  1  0
  7  8  1  0
  8  2  1  0
  8  4  1  0
  3  9  1  0
  3 10  1  0
  4 11  1  0
  6 12  1  0
  6 13  1  0
  7 14  1  0
  7 15  1  0
  8 16  1  0
M  END
