
     RDKit          3D

 17 18  0  0  0  0  0  0  0  0999 V2000
    2.6674   -1.0446   -0.3709 O   0  0  0  0  0  0  0  0  0  0  0  0
    1.6647   -0.5078    0.0039 C   0  0  0  0  0  0  0  0  0  0  0  0
    1.3836    0.9593   -0.1566 C   0  0  0  0  0  0  0  0  0  0  0  0
    0.3273    1.0994   -0.9895 O   0  0  0  0  0  0  0  0  0  0  0  0
   -0.7289    0.2958   -0.8657 C   0  0  0  0  0  0  0  0  0  0  0  0
   -1.7549    0.8738    0.1108 C   0  0  0  0  0  0  0  0  0  0  0  0
   -1.6911   -0.2769    0.8605 O   0  0  0  0  0  0  0  0  0  0  0  0
   -0.7223   -0.8594    0.0090 C   0  0  0  0  0  0  0  0  0  0  0  0
    0.5360   -1.2297    0.6936 C   0  0  0  0  0  0  0  0  0  0  0  0
    2.2740    1.4498   -0.5942 H   0  0  0  0  0  0  0  0  0  0  0  0
    1.1538    1.3738    0.8595 H   0  0  0  0  0  0  0  0  0  0  0  0
   -1.1998    0.0677   -1.8671 H   0  0  0  0  0  0  0  0  0  0  0  0
   -1.3588    1.7319    0.7117 H   0  0  0  0  0  0  0  0  0  0  0  0
   -2.7063    1.1306   -0.3588 H   0  0  0  0  0  0  0  0  0  0  0  0
   -1.2044   -1.7851   -0.4262 H   0  0  0  0  0  0  0  0  0  0  0  0
    0.5695   -0.9586    1.7687 H   0  0  0  0  0  0  0  0  0  0  0  0
    0.7903   -2.3200    0.6115 H   0  0  0  0  0  0  0  0  0  0  0  0
  1  2  2  0
  2  3  1  0
  3  4  1  0
  4  5  1  0
  5  6  1  0
  6  7  1  0
  7  8  1  0
  8  9  1  0
  9  2  1  0
  8  5  1  0
  3 10  1  0
  3 11  1  0
  5 12  1  0
  6 13  1  0
  6 14  1  0
  8 15  1  0
  9 16  1  0
  9 17  1  0
M  END
