
     RDKit          3D

 13 14  0  0  0  0  0  0  0  0999 V2000
    0.6635    2.1015    1.3958 O   0  0  0  0  0  0  0  0  0  0  0  0
    0.8549    1.1854    0.5654 C   0  0  0  0  0  0  0  0  0  0  0  0
    1.9017    0.8121   -0.2624 O   0  0  0  0  0  0  0  0  0  0  0  0
    1.3431   -0.4934   -0.4830 C   0  0  0  0  0  0  0  0  0  0  0  0
    0.0937    0.0708    0.0572 C   0  0  0  0  0  0  0  0  0  0  0  0
   -1.1737    0.1655   -0.6633 C   0  0  0  0  0  0  0  0  0  0  0  0
   -0.9951   -0.6241    0.6749 C   0  0  0  0  0  0  0  0  0  0  0  0
    1.3686   -0.8311   -1.5266 H   0  0  0  0  0  0  0  0  0  0  0  0
    1.8355   -1.1879    0.2561 H   0  0  0  0  0  0  0  0  0  0  0  0
   -1.7218    1.1340   -0.5735 H   0  0  0  0  0  0  0  0  0  0  0  0
   -1.4504   -0.4224   -1.5335 H   0  0  0  0  0  0  0  0  0  0  0  0
   -1.1547   -1.7192    0.5679 H   0  0  0  0  0  0  0  0  0  0  0  0
   -1.5652   -0.1912    1.5249 H   0  0  0  0  0  0  0  0  0  0  0  0
  1  2  2  0
  2  3  1  0
  3  4  1  0
  4  5  1  0
  5  6  1  0
  6  7  1  0
  5  2  1  0
  7  5  1  0
  4  8  1  0
  4  9  1  0
  6 10  1  0
  6 11  1  0
  7 12  1  0
  7 13  1  0
M  END
