
     RDKit          3D

 16 17  0  0  0  0  0  0  0  0999 V2000
    2.5607   -0.9199   -1.1341 O   0  0  0  0  0  0  0  0  0  0  0  0
    1.6169   -0.3338   -0.5869 C   0  0  0  0  0  0  0  0  0  0  0  0
    1.0876   -0.7667    0.7064 C   0  0  0  0  0  0  0  0  0  0  0  0
   -0.3426   -0.4368    0.9286 C   0  0  0  0  0  0  0  0  0  0  0  0
   -1.3868   -0.6936   -0.0904 C   0  0  0  0  0  0  0  0  0  0  0  0
   -0.9114    0.6878    0.2347 C   0  0  0  0  0  0  0  0  0  0  0  0
   -0.1423    1.3580   -0.8317 C   0  0  0  0  0  0  0  0  0  0  0  0
    1.0451    0.7579   -1.2094 O   0  0  0  0  0  0  0  0  0  0  0  0
    1.2526   -1.8678    0.8082 H   0  0  0  0  0  0  0  0  0  0  0  0
    1.7037   -0.2686    1.5072 H   0  0  0  0  0  0  0  0  0  0  0  0
   -0.6864   -0.6288    1.9814 H   0  0  0  0  0  0  0  0  0  0  0  0
   -1.0451   -1.1839   -1.0270 H   0  0  0  0  0  0  0  0  0  0  0  0
   -2.4276   -0.8983    0.1787 H   0  0  0  0  0  0  0  0  0  0  0  0
   -1.6028    1.3619    0.8066 H   0  0  0  0  0  0  0  0  0  0  0  0
   -0.7976    1.4158   -1.7502 H   0  0  0  0  0  0  0  0  0  0  0  0
    0.0758    2.4170   -0.5220 H   0  0  0  0  0  0  0  0  0  0  0  0
  1  2  2  0
  2  3  1  0
  3  4  1  0
  4  5  1  0
  5  6  1  0
  6  7  1  0
  7  8  1  0
  8  2  1  0
  6  4  1  0
  3  9  1  0
  3 10  1  0
  4 11  1  0
  5 12  1  0
  5 13  1  0
  6 14  1  0
  7 15  1  0
  7 16  1  0
M  END
