
     RDKit          3D

 16 17  0  0  0  0  0  0  0  0999 V2000
    0.5868   -1.5662    1.8000 O   0  0  0  0  0  0  0  0  0  0  0  0
    0.5817   -0.7790    0.8986 C   0  0  0  0  0  0  0  0  0  0  0  0
    1.6049    0.0380    0.2140 C   0  0  0  0  0  0  0  0  0  0  0  0
    0.9233   -0.3715   -1.0655 C   0  0  0  0  0  0  0  0  0  0  0  0
   -0.1976   -0.0715   -0.1002 C   0  0  0  0  0  0  0  0  0  0  0  0
   -1.5394   -0.1224   -0.3727 C   0  0  0  0  0  0  0  0  0  0  0  0
   -2.3166    0.2603    0.7375 O   0  0  0  0  0  0  0  0  0  0  0  0
    0.5962    1.1562    0.2712 C   0  0  0  0  0  0  0  0  0  0  0  0
    2.5842    0.0884    0.3968 H   0  0  0  0  0  0  0  0  0  0  0  0
    1.0331    0.3083   -1.9141 H   0  0  0  0  0  0  0  0  0  0  0  0
    1.0764   -1.4441   -1.2465 H   0  0  0  0  0  0  0  0  0  0  0  0
   -1.8895   -1.0994   -0.7416 H   0  0  0  0  0  0  0  0  0  0  0  0
   -1.8389    0.6122   -1.1779 H   0  0  0  0  0  0  0  0  0  0  0  0
   -2.2491   -0.4015    1.4680 H   0  0  0  0  0  0  0  0  0  0  0  0
    0.6800    1.9374   -0.4750 H   0  0  0  0  0  0  0  0  0  0  0  0
    0.3644    1.4547    1.3074 H   0  0  0  0  0  0  0  0  0  0  0  0
  1  2  2  0
  2  3  1  0
  3  4  1  0
  4  5  1  0
  5  6  1  0
  6  7  1  0
  5  8  1  0
  5  2  1  0
  8  3  1  0
  3  9  1  0
  4 10  1  0
  4 11  1  0
  6 12  1  0
  6 13  1  0
  7 14  1  0
  8 15  1  0
  8 16  1  0
M  END
