
     RDKit          3D

 15 16  0  0  0  0  0  0  0  0999 V2000
   -2.6101    1.2016   -0.4301 O   0  0  0  0  0  0  0  0  0  0  0  0
   -1.4965    0.6937   -0.2178 C   0  0  0  0  0  0  0  0  0  0  0  0
   -1.0250   -0.6797   -0.5633 C   0  0  0  0  0  0  0  0  0  0  0  0
   -0.0347   -0.8529    0.5432 C   0  0  0  0  0  0  0  0  0  0  0  0
    1.3472   -0.6811    0.6821 C   0  0  0  0  0  0  0  0  0  0  0  0
    0.7690    0.4465    0.1053 C   0  0  0  0  0  0  0  0  0  0  0  0
    0.9733    0.5684   -1.3027 O   0  0  0  0  0  0  0  0  0  0  0  0
   -0.3556    1.3267    0.4335 C   0  0  0  0  0  0  0  0  0  0  0  0
   -0.3656    2.3647    1.1009 O   0  0  0  0  0  0  0  0  0  0  0  0
   -1.8305   -1.4195   -0.5852 H   0  0  0  0  0  0  0  0  0  0  0  0
   -0.5166   -0.6840   -1.5459 H   0  0  0  0  0  0  0  0  0  0  0  0
   -0.6239   -0.7451    1.5110 H   0  0  0  0  0  0  0  0  0  0  0  0
    2.0277   -1.3445    0.0727 H   0  0  0  0  0  0  0  0  0  0  0  0
    1.8018   -0.5969    1.7107 H   0  0  0  0  0  0  0  0  0  0  0  0
    1.9396    0.4021   -1.5143 H   0  0  0  0  0  0  0  0  0  0  0  0
  1  2  2  0
  2  3  1  0
  3  4  1  0
  4  5  1  0
  5  6  1  0
  6  7  1  0
  6  8  1  0
  8  9  2  0
  8  2  1  0
  6  4  1  0
  3 10  1  0
  3 11  1  0
  4 12  1  0
  5 13  1  0
  5 14  1  0
  7 15  1  0
M  END
