
     RDKit          3D

 19 20  0  0  0  0  0  0  0  0999 V2000
   -0.9534    2.4775    0.7944 O   0  0  0  0  0  0  0  0  0  0  0  0
   -0.6251    1.3637    0.4919 C   0  0  0  0  0  0  0  0  0  0  0  0
   -1.6167    0.3687    0.0245 C   0  0  0  0  0  0  0  0  0  0  0  0
   -1.1116   -1.0303   -0.0829 C   0  0  0  0  0  0  0  0  0  0  0  0
    0.3485   -1.1731   -0.4389 C   0  0  0  0  0  0  0  0  0  0  0  0
    1.0563   -1.6892    0.6722 O   0  0  0  0  0  0  0  0  0  0  0  0
    0.8654    0.1467   -0.8034 C   0  0  0  0  0  0  0  0  0  0  0  0
    1.8592    1.0155   -0.2906 C   0  0  0  0  0  0  0  0  0  0  0  0
    0.7391    0.9210    0.5611 C   0  0  0  0  0  0  0  0  0  0  0  0
   -2.1617    0.7114   -0.8991 H   0  0  0  0  0  0  0  0  0  0  0  0
   -2.4207    0.3628    0.8215 H   0  0  0  0  0  0  0  0  0  0  0  0
   -1.3149   -1.6449    0.8184 H   0  0  0  0  0  0  0  0  0  0  0  0
   -1.6732   -1.5199   -0.9186 H   0  0  0  0  0  0  0  0  0  0  0  0
    0.5241   -1.8934   -1.2617 H   0  0  0  0  0  0  0  0  0  0  0  0
    0.4243   -1.8151    1.4431 H   0  0  0  0  0  0  0  0  0  0  0  0
    0.2694    0.5657   -1.6707 H   0  0  0  0  0  0  0  0  0  0  0  0
    2.8326    0.5615    0.0457 H   0  0  0  0  0  0  0  0  0  0  0  0
    2.0744    1.9772   -0.8053 H   0  0  0  0  0  0  0  0  0  0  0  0
    0.8838    0.2942    1.4980 H   0  0  0  0  0  0  0  0  0  0  0  0
  1  2  2  0
  2  3  1  0
  3  4  1  0
  4  5  1  0
  5  6  1  0
  5  7  1  0
  7  8  1  0
  8  9  1  0
  9  2  1  0
  9  7  1  0
  3 10  1  0
  3 11  1  0
  4 12  1  0
  4 13  1  0
  5 14  1  0
  6 15  1  0
  7 16  1  0
  8 17  1  0
  8 18  1  0
  9 19  1  0
M  END
