
     RDKit          3D

 15 16  0  0  0  0  0  0  0  0999 V2000
   -2.0412    2.0698    0.1732 O   0  0  0  0  0  0  0  0  0  0  0  0
   -1.6680    0.9380    0.2438 C   0  0  0  0  0  0  0  0  0  0  0  0
   -1.8782   -0.4228   -0.2822 C   0  0  0  0  0  0  0  0  0  0  0  0
   -0.5764   -0.7576   -0.9665 C   0  0  0  0  0  0  0  0  0  0  0  0
    0.2963   -0.2734   -0.0590 C   0  0  0  0  0  0  0  0  0  0  0  0
    1.7650   -0.2035   -0.0612 C   0  0  0  0  0  0  0  0  0  0  0  0
    2.2542    1.1024    0.0287 O   0  0  0  0  0  0  0  0  0  0  0  0
   -0.6521    0.1986    1.0054 C   0  0  0  0  0  0  0  0  0  0  0  0
   -1.5860   -0.8567    1.0254 O   0  0  0  0  0  0  0  0  0  0  0  0
   -2.7809   -0.7104   -0.7336 H   0  0  0  0  0  0  0  0  0  0  0  0
   -0.3998   -1.2451   -1.9116 H   0  0  0  0  0  0  0  0  0  0  0  0
    2.1204   -0.7216    0.8613 H   0  0  0  0  0  0  0  0  0  0  0  0
    2.2193   -0.7293   -0.9065 H   0  0  0  0  0  0  0  0  0  0  0  0
    3.1938    1.0528   -0.3334 H   0  0  0  0  0  0  0  0  0  0  0  0
   -0.2664    0.5589    1.9161 H   0  0  0  0  0  0  0  0  0  0  0  0
  1  2  2  0
  2  3  1  0
  3  4  1  0
  4  5  2  0
  5  6  1  0
  6  7  1  0
  5  8  1  0
  8  9  1  0
  8  2  1  0
  9  3  1  0
  3 10  1  0
  4 11  1  0
  6 12  1  0
  6 13  1  0
  7 14  1  0
  8 15  1  0
M  END
