
     RDKit          3D

 15 16  0  0  0  0  0  0  0  0999 V2000
   -0.9594   -0.9942    2.1130 O   0  0  0  0  0  0  0  0  0  0  0  0
   -0.7284   -0.6507    0.9838 C   0  0  0  0  0  0  0  0  0  0  0  0
   -1.4690    0.2977    0.1179 C   0  0  0  0  0  0  0  0  0  0  0  0
   -0.4621    0.4187   -1.0269 C   0  0  0  0  0  0  0  0  0  0  0  0
   -0.0643   -0.9269   -1.1552 O   0  0  0  0  0  0  0  0  0  0  0  0
    0.4098   -1.1269    0.1669 C   0  0  0  0  0  0  0  0  0  0  0  0
    1.4776   -0.0614    0.2190 C   0  0  0  0  0  0  0  0  0  0  0  0
    0.7472    1.0560   -0.4955 C   0  0  0  0  0  0  0  0  0  0  0  0
    1.1439    2.2127   -0.5695 O   0  0  0  0  0  0  0  0  0  0  0  0
   -2.4088   -0.1675   -0.2141 H   0  0  0  0  0  0  0  0  0  0  0  0
   -1.6239    1.2918    0.5994 H   0  0  0  0  0  0  0  0  0  0  0  0
   -0.8764    0.8401   -1.9264 H   0  0  0  0  0  0  0  0  0  0  0  0
    0.7422   -2.1281    0.3581 H   0  0  0  0  0  0  0  0  0  0  0  0
    1.7229    0.2201    1.2486 H   0  0  0  0  0  0  0  0  0  0  0  0
    2.3486   -0.2814   -0.4190 H   0  0  0  0  0  0  0  0  0  0  0  0
  1  2  2  0
  2  3  1  0
  3  4  1  0
  4  5  1  0
  5  6  1  0
  6  7  1  0
  7  8  1  0
  8  9  2  0
  6  2  1  0
  8  4  1  0
  3 10  1  0
  3 11  1  0
  4 12  1  0
  6 13  1  0
  7 14  1  0
  7 15  1  0
M  END
