
     RDKit          3D

 10 10  0  0  0  0  0  0  0  0999 V2000
    2.7002   -0.3084   -0.2239 O   0  0  0  0  0  0  0  0  0  0  0  0
    1.4861   -0.1876    0.0451 C   0  0  0  0  0  0  0  0  0  0  0  0
    0.5356   -1.1958   -0.0082 O   0  0  0  0  0  0  0  0  0  0  0  0
   -0.7639   -0.6570    0.0823 C   0  0  0  0  0  0  0  0  0  0  0  0
   -0.5034    0.8226   -0.0366 C   0  0  0  0  0  0  0  0  0  0  0  0
    0.8193    0.9559    0.4507 O   0  0  0  0  0  0  0  0  0  0  0  0
   -1.2136   -0.9443    1.0532 H   0  0  0  0  0  0  0  0  0  0  0  0
   -1.3654   -1.0066   -0.7837 H   0  0  0  0  0  0  0  0  0  0  0  0
   -0.4737    1.0858   -1.1125 H   0  0  0  0  0  0  0  0  0  0  0  0
   -1.2212    1.4354    0.5334 H   0  0  0  0  0  0  0  0  0  0  0  0
  1  2  2  0
  2  3  1  0
  3  4  1  0
  4  5  1  0
  5  6  1  0
  6  2  1  0
  4  7  1  0
  4  8  1  0
  5  9  1  0
  5 10  1  0
M  END
