
     RDKit          3D

 16 17  0  0  0  0  0  0  0  0999 V2000
    0.4623    2.2692   -1.0792 O   0  0  0  0  0  0  0  0  0  0  0  0
    0.3605    1.2103   -0.5215 C   0  0  0  0  0  0  0  0  0  0  0  0
    1.5049    0.3248   -0.0560 C   0  0  0  0  0  0  0  0  0  0  0  0
    0.6912   -0.8507    0.3862 C   0  0  0  0  0  0  0  0  0  0  0  0
   -0.4328   -0.9717   -0.6501 C   0  0  0  0  0  0  0  0  0  0  0  0
   -0.8082    0.4086   -0.0986 C   0  0  0  0  0  0  0  0  0  0  0  0
   -2.0428    0.8502   -0.2699 O   0  0  0  0  0  0  0  0  0  0  0  0
   -0.3830   -0.1671    1.2370 C   0  0  0  0  0  0  0  0  0  0  0  0
    1.9268    0.8233    0.8229 H   0  0  0  0  0  0  0  0  0  0  0  0
    2.1978    0.1150   -0.8667 H   0  0  0  0  0  0  0  0  0  0  0  0
    1.1370   -1.7325    0.7498 H   0  0  0  0  0  0  0  0  0  0  0  0
   -1.1723   -1.7167   -0.3471 H   0  0  0  0  0  0  0  0  0  0  0  0
   -0.1000   -0.9792   -1.6812 H   0  0  0  0  0  0  0  0  0  0  0  0
   -2.2986    0.7953   -1.2292 H   0  0  0  0  0  0  0  0  0  0  0  0
    0.0110    0.5602    1.9614 H   0  0  0  0  0  0  0  0  0  0  0  0
   -1.0536   -0.9390    1.6424 H   0  0  0  0  0  0  0  0  0  0  0  0
  1  2  2  0
  2  3  1  0
  3  4  1  0
  4  5  1  0
  5  6  1  0
  6  7  1  0
  6  8  1  0
  6  2  1  0
  8  4  1  0
  3  9  1  0
  3 10  1  0
  4 11  1  0
  5 12  1  0
  5 13  1  0
  7 14  1  0
  8 15  1  0
  8 16  1  0
M  END
