
     RDKit          3D

 19 20  0  0  0  0  0  0  0  0999 V2000
    1.7650    1.8878   -0.9294 O   0  0  0  0  0  0  0  0  0  0  0  0
    1.1172    1.0120   -0.4296 C   0  0  0  0  0  0  0  0  0  0  0  0
    1.5935   -0.3687   -0.1491 C   0  0  0  0  0  0  0  0  0  0  0  0
    0.3796   -1.1654    0.3018 C   0  0  0  0  0  0  0  0  0  0  0  0
   -0.1285   -0.4757    1.5202 C   0  0  0  0  0  0  0  0  0  0  0  0
   -0.4989    0.7843    1.3556 C   0  0  0  0  0  0  0  0  0  0  0  0
   -0.3057    1.3122   -0.0436 C   0  0  0  0  0  0  0  0  0  0  0  0
   -1.1580    0.4047   -0.9310 C   0  0  0  0  0  0  0  0  0  0  0  0
   -0.7540   -1.0190   -0.7276 C   0  0  0  0  0  0  0  0  0  0  0  0
    2.2517   -0.2922    0.7590 H   0  0  0  0  0  0  0  0  0  0  0  0
    2.1307   -0.8280   -0.9775 H   0  0  0  0  0  0  0  0  0  0  0  0
    0.5730   -2.2260    0.4340 H   0  0  0  0  0  0  0  0  0  0  0  0
   -0.1683   -1.0195    2.4468 H   0  0  0  0  0  0  0  0  0  0  0  0
   -0.9077    1.4050    2.1388 H   0  0  0  0  0  0  0  0  0  0  0  0
   -0.5612    2.3644   -0.1383 H   0  0  0  0  0  0  0  0  0  0  0  0
   -0.9531    0.7162   -1.9944 H   0  0  0  0  0  0  0  0  0  0  0  0
   -2.2196    0.6147   -0.7344 H   0  0  0  0  0  0  0  0  0  0  0  0
   -1.6291   -1.5429   -0.2449 H   0  0  0  0  0  0  0  0  0  0  0  0
   -0.5268   -1.5640   -1.6563 H   0  0  0  0  0  0  0  0  0  0  0  0
  1  2  2  0
  2  3  1  0
  3  4  1  0
  4  5  1  0
  5  6  2  0
  6  7  1  0
  7  8  1  0
  8  9  1  0
  7  2  1  0
  9  4  1  0
  3 10  1  0
  3 11  1  0
  4 12  1  0
  5 13  1  0
  6 14  1  0
  7 15  1  0
  8 16  1  0
  8 17  1  0
  9 18  1  0
  9 19  1  0
M  END
