
     RDKit          3D

 13 14  0  0  0  0  0  0  0  0999 V2000
    1.8976    1.8941   -0.4991 O   0  0  0  0  0  0  0  0  0  0  0  0
    0.9204    1.1490   -0.3318 C   0  0  0  0  0  0  0  0  0  0  0  0
   -0.3453    1.5843    0.0103 O   0  0  0  0  0  0  0  0  0  0  0  0
   -1.3289    0.5366    0.1283 C   0  0  0  0  0  0  0  0  0  0  0  0
   -0.6760   -0.7988    0.0796 C   0  0  0  0  0  0  0  0  0  0  0  0
    0.0065   -0.9094   -1.1188 O   0  0  0  0  0  0  0  0  0  0  0  0
    1.1004   -0.3060   -0.5052 C   0  0  0  0  0  0  0  0  0  0  0  0
    0.6207   -0.9165    0.7656 C   0  0  0  0  0  0  0  0  0  0  0  0
    1.0576   -1.3096    1.8205 O   0  0  0  0  0  0  0  0  0  0  0  0
   -1.9619    0.7131    1.0163 H   0  0  0  0  0  0  0  0  0  0  0  0
   -1.9604    0.6433   -0.7805 H   0  0  0  0  0  0  0  0  0  0  0  0
   -1.3720   -1.6197    0.3171 H   0  0  0  0  0  0  0  0  0  0  0  0
    2.0414   -0.6604   -0.9023 H   0  0  0  0  0  0  0  0  0  0  0  0
  1  2  2  0
  2  3  1  0
  3  4  1  0
  4  5  1  0
  5  6  1  0
  6  7  1  0
  7  8  1  0
  8  9  2  0
  7  2  1  0
  8  5  1  0
  4 10  1  0
  4 11  1  0
  5 12  1  0
  7 13  1  0
M  END
