
     RDKit          3D

 11 12  0  0  0  0  0  0  0  0999 V2000
   -1.7771   -0.8807    1.6766 O   0  0  0  0  0  0  0  0  0  0  0  0
   -1.2476   -0.2398    0.7321 C   0  0  0  0  0  0  0  0  0  0  0  0
   -1.7173    0.6080   -0.2912 O   0  0  0  0  0  0  0  0  0  0  0  0
   -0.4091    1.0774   -0.6494 C   0  0  0  0  0  0  0  0  0  0  0  0
    0.0942   -0.0463    0.2186 C   0  0  0  0  0  0  0  0  0  0  0  0
    1.1149   -0.8839   -0.0833 C   0  0  0  0  0  0  0  0  0  0  0  0
    1.2007    0.0830    0.9950 O   0  0  0  0  0  0  0  0  0  0  0  0
   -0.1509    2.0566   -0.2343 H   0  0  0  0  0  0  0  0  0  0  0  0
   -0.1379    0.8824   -1.7018 H   0  0  0  0  0  0  0  0  0  0  0  0
    1.8394   -0.7018   -0.9228 H   0  0  0  0  0  0  0  0  0  0  0  0
    1.1908   -1.9550    0.2606 H   0  0  0  0  0  0  0  0  0  0  0  0
  1  2  2  0
  2  3  1  0
  3  4  1  0
  4  5  1  0
  5  6  1  0
  6  7  1  0
  5  2  1  0
  7  5  1  0
  4  8  1  0
  4  9  1  0
  6 10  1  0
  6 11  1  0
M  END
