
     RDKit          3D

 17 18  0  0  0  0  0  0  0  0999 V2000
   -1.4145    2.1684   -0.9394 O   0  0  0  0  0  0  0  0  0  0  0  0
   -1.0343    1.2021   -0.3183 C   0  0  0  0  0  0  0  0  0  0  0  0
   -1.5264   -0.1907   -0.4666 C   0  0  0  0  0  0  0  0  0  0  0  0
   -0.5920   -0.9055    0.5064 C   0  0  0  0  0  0  0  0  0  0  0  0
    0.6288   -1.3271   -0.2654 C   0  0  0  0  0  0  0  0  0  0  0  0
    1.6894   -0.2887   -0.0785 C   0  0  0  0  0  0  0  0  0  0  0  0
    1.3718    0.9841    0.1391 C   0  0  0  0  0  0  0  0  0  0  0  0
    0.0046    1.2201    0.7194 C   0  0  0  0  0  0  0  0  0  0  0  0
   -0.2974    0.0688    1.4588 O   0  0  0  0  0  0  0  0  0  0  0  0
   -2.5749   -0.2737   -0.1012 H   0  0  0  0  0  0  0  0  0  0  0  0
   -1.3938   -0.5787   -1.4864 H   0  0  0  0  0  0  0  0  0  0  0  0
   -1.0753   -1.7692    0.9846 H   0  0  0  0  0  0  0  0  0  0  0  0
    1.0290   -2.3044    0.0721 H   0  0  0  0  0  0  0  0  0  0  0  0
    0.4302   -1.3841   -1.3547 H   0  0  0  0  0  0  0  0  0  0  0  0
    2.7527   -0.5505   -0.1163 H   0  0  0  0  0  0  0  0  0  0  0  0
    2.0455    1.8064   -0.0830 H   0  0  0  0  0  0  0  0  0  0  0  0
   -0.0432    2.1226    1.3293 H   0  0  0  0  0  0  0  0  0  0  0  0
  1  2  2  0
  2  3  1  0
  3  4  1  0
  4  5  1  0
  5  6  1  0
  6  7  2  0
  7  8  1  0
  8  9  1  0
  8  2  1  0
  9  4  1  0
  3 10  1  0
  3 11  1  0
  4 12  1  0
  5 13  1  0
  5 14  1  0
  6 15  1  0
  7 16  1  0
  8 17  1  0
M  END
