
     RDKit          3D

 13 13  0  0  0  0  0  0  0  0999 V2000
    2.4443    0.2635    0.2621 O   0  0  0  0  0  0  0  0  0  0  0  0
    1.2584    0.1234    0.0877 C   0  0  0  0  0  0  0  0  0  0  0  0
    0.2175    1.1740    0.1264 C   0  0  0  0  0  0  0  0  0  0  0  0
   -1.1033    0.4730   -0.1104 C   0  0  0  0  0  0  0  0  0  0  0  0
   -0.7908   -0.9148    0.2973 C   0  0  0  0  0  0  0  0  0  0  0  0
   -1.4466   -1.7276    0.9040 O   0  0  0  0  0  0  0  0  0  0  0  0
    0.5800   -1.1580   -0.2083 C   0  0  0  0  0  0  0  0  0  0  0  0
    0.1781    1.7260    1.0803 H   0  0  0  0  0  0  0  0  0  0  0  0
    0.3394    1.9222   -0.6808 H   0  0  0  0  0  0  0  0  0  0  0  0
   -1.9272    0.9078    0.4825 H   0  0  0  0  0  0  0  0  0  0  0  0
   -1.3235    0.4802   -1.1967 H   0  0  0  0  0  0  0  0  0  0  0  0
    0.5085   -1.2430   -1.3105 H   0  0  0  0  0  0  0  0  0  0  0  0
    1.0651   -2.0268    0.2661 H   0  0  0  0  0  0  0  0  0  0  0  0
  1  2  2  0
  2  3  1  0
  3  4  1  0
  4  5  1  0
  5  6  2  0
  5  7  1  0
  7  2  1  0
  3  8  1  0
  3  9  1  0
  4 10  1  0
  4 11  1  0
  7 12  1  0
  7 13  1  0
M  END
