
     RDKit          3D

 17 18  0  0  0  0  0  0  0  0999 V2000
    1.0397    2.4241   -1.0109 O   0  0  0  0  0  0  0  0  0  0  0  0
    0.3656    1.4865   -0.5900 C   0  0  0  0  0  0  0  0  0  0  0  0
   -0.9992    1.5955   -0.4443 O   0  0  0  0  0  0  0  0  0  0  0  0
   -1.7335    0.4275   -0.0331 C   0  0  0  0  0  0  0  0  0  0  0  0
   -0.7951   -0.6006    0.4903 C   0  0  0  0  0  0  0  0  0  0  0  0
    0.4254   -0.0891    1.1827 C   0  0  0  0  0  0  0  0  0  0  0  0
    0.9819    0.2100   -0.2240 C   0  0  0  0  0  0  0  0  0  0  0  0
    2.3334    0.0781   -0.3512 O   0  0  0  0  0  0  0  0  0  0  0  0
    0.1422   -0.9820   -0.6652 C   0  0  0  0  0  0  0  0  0  0  0  0
   -2.1715    0.0308   -0.9889 H   0  0  0  0  0  0  0  0  0  0  0  0
   -2.5672    0.6755    0.6214 H   0  0  0  0  0  0  0  0  0  0  0  0
   -1.2661   -1.4873    0.9500 H   0  0  0  0  0  0  0  0  0  0  0  0
    0.3199    0.8316    1.7797 H   0  0  0  0  0  0  0  0  0  0  0  0
    1.0105   -0.8984    1.6133 H   0  0  0  0  0  0  0  0  0  0  0  0
    2.5546   -0.8911   -0.2689 H   0  0  0  0  0  0  0  0  0  0  0  0
    0.6591   -1.9067   -0.4018 H   0  0  0  0  0  0  0  0  0  0  0  0
   -0.2996   -0.9045   -1.6592 H   0  0  0  0  0  0  0  0  0  0  0  0
  1  2  2  0
  2  3  1  0
  3  4  1  0
  4  5  1  0
  5  6  1  0
  6  7  1  0
  7  8  1  0
  7  9  1  0
  7  2  1  0
  9  5  1  0
  4 10  1  0
  4 11  1  0
  5 12  1  0
  6 13  1  0
  6 14  1  0
  8 15  1  0
  9 16  1  0
  9 17  1  0
M  END
