
     RDKit          3D

 14 15  0  0  0  0  0  0  0  0999 V2000
    0.3724    2.7261    0.3196 O   0  0  0  0  0  0  0  0  0  0  0  0
   -0.0065    1.5501    0.1976 C   0  0  0  0  0  0  0  0  0  0  0  0
   -1.0662    0.9587    0.8607 O   0  0  0  0  0  0  0  0  0  0  0  0
   -1.3359   -0.4274    0.5671 C   0  0  0  0  0  0  0  0  0  0  0  0
   -0.2487   -0.9637   -0.2935 C   0  0  0  0  0  0  0  0  0  0  0  0
    1.1359   -0.5400    0.0987 C   0  0  0  0  0  0  0  0  0  0  0  0
    0.7221    0.6615   -0.7405 C   0  0  0  0  0  0  0  0  0  0  0  0
   -0.1568   -0.1757   -1.4381 O   0  0  0  0  0  0  0  0  0  0  0  0
   -1.4729   -0.9917    1.5097 H   0  0  0  0  0  0  0  0  0  0  0  0
   -2.2855   -0.4699   -0.0078 H   0  0  0  0  0  0  0  0  0  0  0  0
   -0.3825   -2.0321   -0.5319 H   0  0  0  0  0  0  0  0  0  0  0  0
    1.2863   -0.3116    1.1762 H   0  0  0  0  0  0  0  0  0  0  0  0
    1.9230   -1.1058   -0.3887 H   0  0  0  0  0  0  0  0  0  0  0  0
    1.5152    1.1214   -1.3290 H   0  0  0  0  0  0  0  0  0  0  0  0
  1  2  2  0
  2  3  1  0
  3  4  1  0
  4  5  1  0
  5  6  1  0
  6  7  1  0
  7  8  1  0
  7  2  1  0
  8  5  1  0
  4  9  1  0
  4 10  1  0
  5 11  1  0
  6 12  1  0
  6 13  1  0
  7 14  1  0
M  END
