
     RDKit          3D

 15 16  0  0  0  0  0  0  0  0999 V2000
   -0.8047   -2.0545   -1.1825 O   0  0  0  0  0  0  0  0  0  0  0  0
   -0.6503   -0.9192   -0.7958 C   0  0  0  0  0  0  0  0  0  0  0  0
   -1.7148   -0.2042   -0.0104 C   0  0  0  0  0  0  0  0  0  0  0  0
   -0.8735    0.4911    1.0049 C   0  0  0  0  0  0  0  0  0  0  0  0
   -1.0905    0.5937    2.1986 O   0  0  0  0  0  0  0  0  0  0  0  0
    0.2744    1.0182    0.2131 C   0  0  0  0  0  0  0  0  0  0  0  0
    1.4973    0.1920    0.1212 C   0  0  0  0  0  0  0  0  0  0  0  0
    1.6655   -0.8487    1.0067 O   0  0  0  0  0  0  0  0  0  0  0  0
    0.4661    0.0292   -0.9334 C   0  0  0  0  0  0  0  0  0  0  0  0
   -2.4453   -0.8929    0.4292 H   0  0  0  0  0  0  0  0  0  0  0  0
   -2.2255    0.5268   -0.6807 H   0  0  0  0  0  0  0  0  0  0  0  0
    0.2356    2.0674   -0.1299 H   0  0  0  0  0  0  0  0  0  0  0  0
    2.4120    0.7408   -0.2038 H   0  0  0  0  0  0  0  0  0  0  0  0
    2.6182   -1.1574    0.9127 H   0  0  0  0  0  0  0  0  0  0  0  0
    0.6354    0.4176   -1.9500 H   0  0  0  0  0  0  0  0  0  0  0  0
  1  2  2  0
  2  3  1  0
  3  4  1  0
  4  5  2  0
  4  6  1  0
  6  7  1  0
  7  8  1  0
  7  9  1  0
  9  2  1  0
  9  6  1  0
  3 10  1  0
  3 11  1  0
  6 12  1  0
  7 13  1  0
  8 14  1  0
  9 15  1  0
M  END
