
     RDKit          3D

 15 16  0  0  0  0  0  0  0  0999 V2000
    2.7870   -0.7322    0.6376 O   0  0  0  0  0  0  0  0  0  0  0  0
    1.6177   -0.5425    0.2713 C   0  0  0  0  0  0  0  0  0  0  0  0
    1.0945    0.8546    0.2141 C   0  0  0  0  0  0  0  0  0  0  0  0
   -0.2249    0.9092   -0.5196 C   0  0  0  0  0  0  0  0  0  0  0  0
   -1.3731    0.6154    0.3967 C   0  0  0  0  0  0  0  0  0  0  0  0
   -1.4145   -0.7075    0.4506 C   0  0  0  0  0  0  0  0  0  0  0  0
   -0.5207   -1.2390   -0.6078 C   0  0  0  0  0  0  0  0  0  0  0  0
    0.7579   -1.5775   -0.0936 O   0  0  0  0  0  0  0  0  0  0  0  0
   -0.3114   -0.1205   -1.4403 O   0  0  0  0  0  0  0  0  0  0  0  0
    1.8255    1.4491   -0.3483 H   0  0  0  0  0  0  0  0  0  0  0  0
    1.0479    1.2362    1.2383 H   0  0  0  0  0  0  0  0  0  0  0  0
   -0.3420    1.8606   -1.0437 H   0  0  0  0  0  0  0  0  0  0  0  0
   -1.9944    1.3617    0.8780 H   0  0  0  0  0  0  0  0  0  0  0  0
   -1.9952   -1.2931    1.1415 H   0  0  0  0  0  0  0  0  0  0  0  0
   -0.9543   -2.0745   -1.1748 H   0  0  0  0  0  0  0  0  0  0  0  0
  1  2  2  0
  2  3  1  0
  3  4  1  0
  4  5  1  0
  5  6  2  0
  6  7  1  0
  7  8  1  0
  7  9  1  0
  8  2  1  0
  9  4  1  0
  3 10  1  0
  3 11  1  0
  4 12  1  0
  5 13  1  0
  6 14  1  0
  7 15  1  0
M  END
