
     RDKit          3D

 17 18  0  0  0  0  0  0  0  0999 V2000
    3.3076    1.2600   -0.7325 O   0  0  0  0  0  0  0  0  0  0  0  0
    2.3089    0.5407   -0.4678 C   0  0  0  0  0  0  0  0  0  0  0  0
    2.2276   -0.2656    0.6601 O   0  0  0  0  0  0  0  0  0  0  0  0
    0.9703   -0.9526    0.6127 C   0  0  0  0  0  0  0  0  0  0  0  0
    0.1708   -0.0534   -0.2750 C   0  0  0  0  0  0  0  0  0  0  0  0
   -0.5798    1.0496    0.3955 C   0  0  0  0  0  0  0  0  0  0  0  0
   -1.8448    0.2008    0.2374 C   0  0  0  0  0  0  0  0  0  0  0  0
   -1.0824   -0.6391   -0.7978 C   0  0  0  0  0  0  0  0  0  0  0  0
    1.1206    0.3976   -1.2072 O   0  0  0  0  0  0  0  0  0  0  0  0
    1.1900   -1.9107    0.0663 H   0  0  0  0  0  0  0  0  0  0  0  0
    0.5493   -1.1082    1.6055 H   0  0  0  0  0  0  0  0  0  0  0  0
   -0.6348    2.0153   -0.1647 H   0  0  0  0  0  0  0  0  0  0  0  0
   -0.3486    1.2373    1.4514 H   0  0  0  0  0  0  0  0  0  0  0  0
   -2.0957   -0.3738    1.1666 H   0  0  0  0  0  0  0  0  0  0  0  0
   -2.7055    0.7543   -0.1870 H   0  0  0  0  0  0  0  0  0  0  0  0
   -1.1902   -1.7210   -0.5290 H   0  0  0  0  0  0  0  0  0  0  0  0
   -1.3636   -0.4312   -1.8342 H   0  0  0  0  0  0  0  0  0  0  0  0
  1  2  2  0
  2  3  1  0
  3  4  1  0
  4  5  1  0
  5  6  1  0
  6  7  1  0
  7  8  1  0
  5  9  1  0
  9  2  1  0
  8  5  1  0
  4 10  1  0
  4 11  1  0
  6 12  1  0
  6 13  1  0
  7 14  1  0
  7 15  1  0
  8 16  1  0
  8 17  1  0
M  END
