
     RDKit          3D

 17 18  0  0  0  0  0  0  0  0999 V2000
   -1.4668    1.8963    1.3188 O   0  0  0  0  0  0  0  0  0  0  0  0
   -1.3165    0.9264    0.6246 C   0  0  0  0  0  0  0  0  0  0  0  0
   -1.6690   -0.4802    0.6106 C   0  0  0  0  0  0  0  0  0  0  0  0
   -0.6813   -0.8173   -0.4545 C   0  0  0  0  0  0  0  0  0  0  0  0
   -0.6266    0.7147   -0.6707 C   0  0  0  0  0  0  0  0  0  0  0  0
    0.5832   -0.1358   -0.6943 C   0  0  0  0  0  0  0  0  0  0  0  0
    1.1493   -0.2474   -1.9691 O   0  0  0  0  0  0  0  0  0  0  0  0
    1.6548    0.0098    0.3582 C   0  0  0  0  0  0  0  0  0  0  0  0
    1.1559    0.1237    1.6321 O   0  0  0  0  0  0  0  0  0  0  0  0
   -2.7292   -0.6184    0.2775 H   0  0  0  0  0  0  0  0  0  0  0  0
   -1.5288   -1.0649    1.5391 H   0  0  0  0  0  0  0  0  0  0  0  0
   -1.0813   -1.4408   -1.2757 H   0  0  0  0  0  0  0  0  0  0  0  0
   -1.1179    1.0185   -1.6024 H   0  0  0  0  0  0  0  0  0  0  0  0
    1.4513    0.6208   -2.3252 H   0  0  0  0  0  0  0  0  0  0  0  0
    2.2926   -0.9141    0.3138 H   0  0  0  0  0  0  0  0  0  0  0  0
    2.2846    0.8867    0.0461 H   0  0  0  0  0  0  0  0  0  0  0  0
    1.6453   -0.4781    2.2710 H   0  0  0  0  0  0  0  0  0  0  0  0
  1  2  2  0
  2  3  1  0
  3  4  1  0
  4  5  1  0
  5  6  1  0
  6  7  1  0
  6  8  1  0
  8  9  1  0
  5  2  1  0
  6  4  1  0
  3 10  1  0
  3 11  1  0
  4 12  1  0
  5 13  1  0
  7 14  1  0
  8 15  1  0
  8 16  1  0
  9 17  1  0
M  END
