
     RDKit          3D

 12 14  0  0  0  0  0  0  0  0999 V2000
    2.1540   -0.8298   -0.9925 O   0  0  0  0  0  0  0  0  0  0  0  0
    1.2777   -0.3160   -0.3304 C   0  0  0  0  0  0  0  0  0  0  0  0
    0.3338   -0.7165    0.7557 C   0  0  0  0  0  0  0  0  0  0  0  0
    0.4923    0.6032    1.2364 O   0  0  0  0  0  0  0  0  0  0  0  0
    0.5709    0.9571   -0.1317 C   0  0  0  0  0  0  0  0  0  0  0  0
   -0.8510    0.7013   -0.5672 C   0  0  0  0  0  0  0  0  0  0  0  0
   -1.0459   -0.4309   -1.3064 O   0  0  0  0  0  0  0  0  0  0  0  0
   -0.9897   -0.7074    0.0448 C   0  0  0  0  0  0  0  0  0  0  0  0
    0.5963   -1.5172    1.3975 H   0  0  0  0  0  0  0  0  0  0  0  0
    1.0368    1.8826   -0.3741 H   0  0  0  0  0  0  0  0  0  0  0  0
   -1.6609    1.3597   -0.2586 H   0  0  0  0  0  0  0  0  0  0  0  0
   -1.9143   -0.9863    0.5265 H   0  0  0  0  0  0  0  0  0  0  0  0
  1  2  2  0
  2  3  1  0
  3  4  1  0
  4  5  1  0
  5  6  1  0
  6  7  1  0
  7  8  1  0
  5  2  1  0
  8  6  1  0
  8  3  1  0
  3  9  1  0
  5 10  1  0
  6 11  1  0
  8 12  1  0
M  END
