
     RDKit          3D

 17 17  0  0  0  0  0  0  0  0999 V2000
   -1.6028    2.4297    1.0219 O   0  0  0  0  0  0  0  0  0  0  0  0
   -0.6977    1.5889    0.9245 C   0  0  0  0  0  0  0  0  0  0  0  0
    0.6715    1.6892    0.8024 O   0  0  0  0  0  0  0  0  0  0  0  0
    0.6563    0.5118    0.0630 C   0  0  0  0  0  0  0  0  0  0  0  0
    1.7924   -0.4422    0.2866 C   0  0  0  0  0  0  0  0  0  0  0  0
    2.9729    0.2245   -0.0407 O   0  0  0  0  0  0  0  0  0  0  0  0
   -0.5709    0.1435    0.8865 C   0  0  0  0  0  0  0  0  0  0  0  0
   -1.5428   -0.6124    0.0181 C   0  0  0  0  0  0  0  0  0  0  0  0
   -2.8613   -0.4071    0.4020 O   0  0  0  0  0  0  0  0  0  0  0  0
    0.4266    0.5872   -1.0128 H   0  0  0  0  0  0  0  0  0  0  0  0
    1.6366   -1.3064   -0.3928 H   0  0  0  0  0  0  0  0  0  0  0  0
    1.8219   -0.8581    1.3214 H   0  0  0  0  0  0  0  0  0  0  0  0
    3.7638   -0.1309    0.3988 H   0  0  0  0  0  0  0  0  0  0  0  0
   -0.3176   -0.3394    1.8485 H   0  0  0  0  0  0  0  0  0  0  0  0
   -1.3314   -1.6991    0.1973 H   0  0  0  0  0  0  0  0  0  0  0  0
   -1.3696   -0.4464   -1.0627 H   0  0  0  0  0  0  0  0  0  0  0  0
   -3.4478   -0.9328   -0.1687 H   0  0  0  0  0  0  0  0  0  0  0  0
  1  2  2  0
  2  3  1  0
  3  4  1  0
  4  5  1  0
  5  6  1  0
  4  7  1  0
  7  8  1  0
  8  9  1  0
  7  2  1  0
  4 10  1  0
  5 11  1  0
  5 12  1  0
  6 13  1  0
  7 14  1  0
  8 15  1  0
  8 16  1  0
  9 17  1  0
M  END
