
     RDKit          3D

 17 18  0  0  0  0  0  0  0  0999 V2000
   -2.3100    1.6124    1.3483 O   0  0  0  0  0  0  0  0  0  0  0  0
   -1.5820    0.8017    0.7327 C   0  0  0  0  0  0  0  0  0  0  0  0
   -0.3931    1.2903    0.0531 C   0  0  0  0  0  0  0  0  0  0  0  0
    0.5981    0.2671   -0.3438 C   0  0  0  0  0  0  0  0  0  0  0  0
    0.2699   -1.1382   -0.0601 C   0  0  0  0  0  0  0  0  0  0  0  0
   -1.1633   -1.4979   -0.0063 C   0  0  0  0  0  0  0  0  0  0  0  0
   -1.9287   -0.5319    0.7167 O   0  0  0  0  0  0  0  0  0  0  0  0
    2.0643    0.6205   -0.3465 C   0  0  0  0  0  0  0  0  0  0  0  0
    1.3299    0.6103   -1.5122 O   0  0  0  0  0  0  0  0  0  0  0  0
   -0.7378    1.8574   -0.8592 H   0  0  0  0  0  0  0  0  0  0  0  0
    0.0828    2.0906    0.6932 H   0  0  0  0  0  0  0  0  0  0  0  0
    0.7429   -1.4223    0.9250 H   0  0  0  0  0  0  0  0  0  0  0  0
    0.7562   -1.7875   -0.8450 H   0  0  0  0  0  0  0  0  0  0  0  0
   -1.2579   -2.4439    0.6020 H   0  0  0  0  0  0  0  0  0  0  0  0
   -1.6129   -1.7168   -0.9861 H   0  0  0  0  0  0  0  0  0  0  0  0
    2.7887   -0.2098   -0.2217 H   0  0  0  0  0  0  0  0  0  0  0  0
    2.3530    1.5980    0.1097 H   0  0  0  0  0  0  0  0  0  0  0  0
  1  2  2  0
  2  3  1  0
  3  4  1  0
  4  5  1  0
  5  6  1  0
  6  7  1  0
  4  8  1  0
  8  9  1  0
  7  2  1  0
  9  4  1  0
  3 10  1  0
  3 11  1  0
  5 12  1  0
  5 13  1  0
  6 14  1  0
  6 15  1  0
  8 16  1  0
  8 17  1  0
M  END
