
     RDKit          3D

 17 18  0  0  0  0  0  0  0  0999 V2000
   -1.9983   -1.8063   -0.6512 O   0  0  0  0  0  0  0  0  0  0  0  0
   -1.4076   -0.8341   -0.2428 C   0  0  0  0  0  0  0  0  0  0  0  0
   -1.7040    0.0380    0.9240 C   0  0  0  0  0  0  0  0  0  0  0  0
   -1.0722    1.2285    0.7217 O   0  0  0  0  0  0  0  0  0  0  0  0
   -0.1931    1.1394   -0.3162 C   0  0  0  0  0  0  0  0  0  0  0  0
    1.2633    0.9391    0.0335 C   0  0  0  0  0  0  0  0  0  0  0  0
    1.0157   -0.5484    0.0069 C   0  0  0  0  0  0  0  0  0  0  0  0
    1.9359   -1.2956   -0.6976 O   0  0  0  0  0  0  0  0  0  0  0  0
   -0.1991   -0.2692   -0.8437 C   0  0  0  0  0  0  0  0  0  0  0  0
   -1.2996   -0.4017    1.8767 H   0  0  0  0  0  0  0  0  0  0  0  0
   -2.8025    0.1153    1.0938 H   0  0  0  0  0  0  0  0  0  0  0  0
   -0.3907    1.8546   -1.1353 H   0  0  0  0  0  0  0  0  0  0  0  0
    1.9032    1.3052   -0.8196 H   0  0  0  0  0  0  0  0  0  0  0  0
    1.5645    1.3516    1.0262 H   0  0  0  0  0  0  0  0  0  0  0  0
    0.7662   -0.9113    1.0244 H   0  0  0  0  0  0  0  0  0  0  0  0
    2.6853   -1.5628   -0.0806 H   0  0  0  0  0  0  0  0  0  0  0  0
   -0.0672   -0.3425   -1.9201 H   0  0  0  0  0  0  0  0  0  0  0  0
  1  2  2  0
  2  3  1  0
  3  4  1  0
  4  5  1  0
  5  6  1  0
  6  7  1  0
  7  8  1  0
  7  9  1  0
  9  2  1  0
  9  5  1  0
  3 10  1  0
  3 11  1  0
  5 12  1  0
  6 13  1  0
  6 14  1  0
  7 15  1  0
  8 16  1  0
  9 17  1  0
M  END
