
     RDKit          3D

 12 12  0  0  0  0  0  0  0  0999 V2000
   -0.3831    2.1500    0.6757 O   0  0  0  0  0  0  0  0  0  0  0  0
   -0.2498    1.0503    0.2281 C   0  0  0  0  0  0  0  0  0  0  0  0
    1.0115    0.4040   -0.1766 C   0  0  0  0  0  0  0  0  0  0  0  0
    0.6299   -1.0476    0.0278 C   0  0  0  0  0  0  0  0  0  0  0  0
   -0.6822   -1.0925   -0.4977 O   0  0  0  0  0  0  0  0  0  0  0  0
   -1.3066    0.0586   -0.0346 C   0  0  0  0  0  0  0  0  0  0  0  0
    1.2353    0.5518   -1.2643 H   0  0  0  0  0  0  0  0  0  0  0  0
    1.8710    0.7052    0.4528 H   0  0  0  0  0  0  0  0  0  0  0  0
    1.2819   -1.7444   -0.5021 H   0  0  0  0  0  0  0  0  0  0  0  0
    0.5129   -1.2655    1.1065 H   0  0  0  0  0  0  0  0  0  0  0  0
   -1.9356   -0.1715    0.8369 H   0  0  0  0  0  0  0  0  0  0  0  0
   -1.9852    0.4018   -0.8525 H   0  0  0  0  0  0  0  0  0  0  0  0
  1  2  2  0
  2  3  1  0
  3  4  1  0
  4  5  1  0
  5  6  1  0
  6  2  1  0
  3  7  1  0
  3  8  1  0
  4  9  1  0
  4 10  1  0
  6 11  1  0
  6 12  1  0
M  END
