
     RDKit          3D

 13 14  0  0  0  0  0  0  0  0999 V2000
    2.4997    1.6580   -0.1910 O   0  0  0  0  0  0  0  0  0  0  0  0
    1.5438    0.8387   -0.2362 C   0  0  0  0  0  0  0  0  0  0  0  0
    0.3197    1.2132   -0.7773 O   0  0  0  0  0  0  0  0  0  0  0  0
   -0.8489    0.4670   -0.6718 C   0  0  0  0  0  0  0  0  0  0  0  0
   -1.3933    0.0847    0.6821 C   0  0  0  0  0  0  0  0  0  0  0  0
   -0.7248   -0.9168   -0.2363 C   0  0  0  0  0  0  0  0  0  0  0  0
    0.5420   -1.3450    0.1660 O   0  0  0  0  0  0  0  0  0  0  0  0
    1.6528   -0.5238    0.2630 C   0  0  0  0  0  0  0  0  0  0  0  0
    2.7158   -0.9401    0.7637 O   0  0  0  0  0  0  0  0  0  0  0  0
   -1.6376    0.7407   -1.3992 H   0  0  0  0  0  0  0  0  0  0  0  0
   -0.8667    0.4798    1.5530 H   0  0  0  0  0  0  0  0  0  0  0  0
   -2.4686   -0.0740    0.8168 H   0  0  0  0  0  0  0  0  0  0  0  0
   -1.3339   -1.6823   -0.7328 H   0  0  0  0  0  0  0  0  0  0  0  0
  1  2  2  0
  2  3  1  0
  3  4  1  0
  4  5  1  0
  5  6  1  0
  6  7  1  0
  7  8  1  0
  8  9  2  0
  8  2  1  0
  6  4  1  0
  4 10  1  0
  5 11  1  0
  5 12  1  0
  6 13  1  0
M  END
