
     RDKit          3D

 15 15  0  0  0  0  0  0  0  0999 V2000
    2.7964    0.0318    0.3940 O   0  0  0  0  0  0  0  0  0  0  0  0
    1.9371    0.8433    0.2030 C   0  0  0  0  0  0  0  0  0  0  0  0
    1.6290    2.2392    0.5567 C   0  0  0  0  0  0  0  0  0  0  0  0
    0.2731    1.9256    0.4649 O   0  0  0  0  0  0  0  0  0  0  0  0
    0.6518    0.9635   -0.5006 C   0  0  0  0  0  0  0  0  0  0  0  0
   -0.2317   -0.1742   -0.4291 C   0  0  0  0  0  0  0  0  0  0  0  0
   -0.9910   -1.1177   -0.3674 C   0  0  0  0  0  0  0  0  0  0  0  0
   -1.9248   -2.2404   -0.2832 C   0  0  0  0  0  0  0  0  0  0  0  0
   -2.6559   -2.1701    0.9150 O   0  0  0  0  0  0  0  0  0  0  0  0
    1.9610    2.5787    1.5523 H   0  0  0  0  0  0  0  0  0  0  0  0
    1.8764    2.9536   -0.2791 H   0  0  0  0  0  0  0  0  0  0  0  0
    0.6905    1.4866   -1.4844 H   0  0  0  0  0  0  0  0  0  0  0  0
   -2.5716   -2.3206   -1.1599 H   0  0  0  0  0  0  0  0  0  0  0  0
   -1.3535   -3.2125   -0.2250 H   0  0  0  0  0  0  0  0  0  0  0  0
   -2.0869   -1.7867    1.6301 H   0  0  0  0  0  0  0  0  0  0  0  0
  1  2  2  0
  2  3  1  0
  3  4  1  0
  4  5  1  0
  5  6  1  0
  6  7  3  0
  7  8  1  0
  8  9  1  0
  5  2  1  0
  3 10  1  0
  3 11  1  0
  5 12  1  0
  8 13  1  0
  8 14  1  0
  9 15  1  0
M  END
