
     RDKit          3D

 16 16  0  0  0  0  0  0  0  0999 V2000
    1.3382    1.9367    0.5110 O   0  0  0  0  0  0  0  0  0  0  0  0
    0.5300    1.1175    0.1116 C   0  0  0  0  0  0  0  0  0  0  0  0
   -0.9317    1.3577    0.1244 C   0  0  0  0  0  0  0  0  0  0  0  0
   -1.6670    0.2676    0.5232 O   0  0  0  0  0  0  0  0  0  0  0  0
   -1.2908   -0.9191   -0.0501 C   0  0  0  0  0  0  0  0  0  0  0  0
    0.1587   -1.2528    0.3082 C   0  0  0  0  0  0  0  0  0  0  0  0
    0.9991   -0.1988   -0.4217 C   0  0  0  0  0  0  0  0  0  0  0  0
    2.3461   -0.3992   -0.2544 O   0  0  0  0  0  0  0  0  0  0  0  0
   -1.1500    2.1856    0.8568 H   0  0  0  0  0  0  0  0  0  0  0  0
   -1.2404    1.7393   -0.8769 H   0  0  0  0  0  0  0  0  0  0  0  0
   -1.3865   -0.9533   -1.1426 H   0  0  0  0  0  0  0  0  0  0  0  0
   -1.9285   -1.7212    0.3825 H   0  0  0  0  0  0  0  0  0  0  0  0
    0.4372   -2.2681    0.0405 H   0  0  0  0  0  0  0  0  0  0  0  0
    0.2542   -1.0390    1.4087 H   0  0  0  0  0  0  0  0  0  0  0  0
    0.6909   -0.2857   -1.5039 H   0  0  0  0  0  0  0  0  0  0  0  0
    2.8404    0.4326   -0.0173 H   0  0  0  0  0  0  0  0  0  0  0  0
  1  2  2  0
  2  3  1  0
  3  4  1  0
  4  5  1  0
  5  6  1  0
  6  7  1  0
  7  8  1  0
  7  2  1  0
  3  9  1  0
  3 10  1  0
  5 11  1  0
  5 12  1  0
  6 13  1  0
  6 14  1  0
  7 15  1  0
  8 16  1  0
M  END
