
     RDKit          3D

 15 16  0  0  0  0  0  0  0  0999 V2000
    2.2077   -1.5583   -0.0320 O   0  0  0  0  0  0  0  0  0  0  0  0
    1.3907   -0.6739   -0.0540 C   0  0  0  0  0  0  0  0  0  0  0  0
    1.5841    0.7662    0.3323 C   0  0  0  0  0  0  0  0  0  0  0  0
    0.2949    1.2383    0.5527 O   0  0  0  0  0  0  0  0  0  0  0  0
   -0.4374    0.7053   -0.4701 C   0  0  0  0  0  0  0  0  0  0  0  0
   -1.7678    0.1878    0.0375 C   0  0  0  0  0  0  0  0  0  0  0  0
   -1.0041   -0.9351    0.6409 C   0  0  0  0  0  0  0  0  0  0  0  0
   -1.0992   -1.6776    1.5945 O   0  0  0  0  0  0  0  0  0  0  0  0
   -0.0272   -0.7596   -0.4666 C   0  0  0  0  0  0  0  0  0  0  0  0
    2.2098    0.7850    1.2415 H   0  0  0  0  0  0  0  0  0  0  0  0
    2.0036    1.3593   -0.5030 H   0  0  0  0  0  0  0  0  0  0  0  0
   -0.4510    1.2008   -1.4331 H   0  0  0  0  0  0  0  0  0  0  0  0
   -2.2368    0.8878    0.7259 H   0  0  0  0  0  0  0  0  0  0  0  0
   -2.4267   -0.2154   -0.7743 H   0  0  0  0  0  0  0  0  0  0  0  0
   -0.2404   -1.3104   -1.3922 H   0  0  0  0  0  0  0  0  0  0  0  0
  1  2  2  0
  2  3  1  0
  3  4  1  0
  4  5  1  0
  5  6  1  0
  6  7  1  0
  7  8  2  0
  7  9  1  0
  9  2  1  0
  9  5  1  0
  3 10  1  0
  3 11  1  0
  5 12  1  0
  6 13  1  0
  6 14  1  0
  9 15  1  0
M  END
