
     RDKit          3D

 17 18  0  0  0  0  0  0  0  0999 V2000
    1.5330    2.5149   -0.4734 O   0  0  0  0  0  0  0  0  0  0  0  0
    1.2584    1.3180   -0.2421 C   0  0  0  0  0  0  0  0  0  0  0  0
    2.0383    0.2488   -0.6487 O   0  0  0  0  0  0  0  0  0  0  0  0
    1.4127   -0.9710   -0.2971 C   0  0  0  0  0  0  0  0  0  0  0  0
    0.4613   -0.6064    0.7827 C   0  0  0  0  0  0  0  0  0  0  0  0
   -0.7108   -1.2993    0.8073 O   0  0  0  0  0  0  0  0  0  0  0  0
   -1.6338   -0.6862    0.0032 C   0  0  0  0  0  0  0  0  0  0  0  0
   -1.1317    0.6603   -0.3837 C   0  0  0  0  0  0  0  0  0  0  0  0
    0.0858    0.8345    0.4866 C   0  0  0  0  0  0  0  0  0  0  0  0
    2.1811   -1.6926    0.0220 H   0  0  0  0  0  0  0  0  0  0  0  0
    0.8847   -1.3151   -1.2343 H   0  0  0  0  0  0  0  0  0  0  0  0
    1.0087   -0.5835    1.7464 H   0  0  0  0  0  0  0  0  0  0  0  0
   -2.5995   -0.6481    0.5727 H   0  0  0  0  0  0  0  0  0  0  0  0
   -1.8340   -1.2792   -0.9104 H   0  0  0  0  0  0  0  0  0  0  0  0
   -1.9008    1.4132   -0.1500 H   0  0  0  0  0  0  0  0  0  0  0  0
   -0.8906    0.6911   -1.4680 H   0  0  0  0  0  0  0  0  0  0  0  0
   -0.1630    1.4005    1.3868 H   0  0  0  0  0  0  0  0  0  0  0  0
  1  2  2  0
  2  3  1  0
  3  4  1  0
  4  5  1  0
  5  6  1  0
  6  7  1  0
  7  8  1  0
  8  9  1  0
  9  2  1  0
  9  5  1  0
  4 10  1  0
  4 11  1  0
  5 12  1  0
  7 13  1  0
  7 14  1  0
  8 15  1  0
  8 16  1  0
  9 17  1  0
M  END
