
     RDKit          3D

 19 19  0  0  0  0  0  0  0  0999 V2000
   -0.0806    3.0176   -0.0658 O   0  0  0  0  0  0  0  0  0  0  0  0
   -0.1682    1.7650   -0.1478 C   0  0  0  0  0  0  0  0  0  0  0  0
   -1.4843    1.1991   -0.0370 C   0  0  0  0  0  0  0  0  0  0  0  0
   -1.8031   -0.0852   -0.0726 C   0  0  0  0  0  0  0  0  0  0  0  0
   -1.0532   -1.3299   -0.2210 C   0  0  0  0  0  0  0  0  0  0  0  0
    0.4041   -1.2152   -0.3561 C   0  0  0  0  0  0  0  0  0  0  0  0
    1.0747   -0.1931    0.4838 C   0  0  0  0  0  0  0  0  0  0  0  0
    2.3454   -0.5589    0.9053 O   0  0  0  0  0  0  0  0  0  0  0  0
    1.1426    1.0953   -0.3489 C   0  0  0  0  0  0  0  0  0  0  0  0
   -2.3204    1.9030    0.0913 H   0  0  0  0  0  0  0  0  0  0  0  0
   -2.8711   -0.2405    0.0338 H   0  0  0  0  0  0  0  0  0  0  0  0
   -1.4572   -1.8461   -1.1410 H   0  0  0  0  0  0  0  0  0  0  0  0
   -1.2847   -1.9817    0.6685 H   0  0  0  0  0  0  0  0  0  0  0  0
    0.6745   -1.0437   -1.4171 H   0  0  0  0  0  0  0  0  0  0  0  0
    0.8636   -2.2159   -0.1014 H   0  0  0  0  0  0  0  0  0  0  0  0
    0.4537   -0.0165    1.4033 H   0  0  0  0  0  0  0  0  0  0  0  0
    2.3918   -0.7909    1.8587 H   0  0  0  0  0  0  0  0  0  0  0  0
    1.9966    1.7141   -0.0910 H   0  0  0  0  0  0  0  0  0  0  0  0
    1.1757    0.8236   -1.4448 H   0  0  0  0  0  0  0  0  0  0  0  0
  1  2  2  0
  2  3  1  0
  3  4  2  0
  4  5  1  0
  5  6  1  0
  6  7  1  0
  7  8  1  0
  7  9  1  0
  9  2  1  0
  3 10  1  0
  4 11  1  0
  5 12  1  0
  5 13  1  0
  6 14  1  0
  6 15  1  0
  7 16  1  0
  8 17  1  0
  9 18  1  0
  9 19  1  0
M  END
