
     RDKit          3D

 13 13  0  0  0  0  0  0  0  0999 V2000
    0.4582    2.2619   -0.5749 O   0  0  0  0  0  0  0  0  0  0  0  0
    0.1824    1.1009   -0.3595 C   0  0  0  0  0  0  0  0  0  0  0  0
   -1.0619    0.3977    0.0626 C   0  0  0  0  0  0  0  0  0  0  0  0
   -1.6512   -0.3250   -0.9858 O   0  0  0  0  0  0  0  0  0  0  0  0
   -0.1278   -0.5582    0.8187 C   0  0  0  0  0  0  0  0  0  0  0  0
    0.8037   -0.2518   -0.3638 C   0  0  0  0  0  0  0  0  0  0  0  0
    2.1361   -0.3183   -0.0843 O   0  0  0  0  0  0  0  0  0  0  0  0
   -1.7420    0.9597    0.6984 H   0  0  0  0  0  0  0  0  0  0  0  0
   -1.6889   -1.2980   -0.7639 H   0  0  0  0  0  0  0  0  0  0  0  0
   -0.5129   -1.5756    0.8486 H   0  0  0  0  0  0  0  0  0  0  0  0
    0.2061   -0.0935    1.7492 H   0  0  0  0  0  0  0  0  0  0  0  0
    0.4320   -0.8067   -1.2494 H   0  0  0  0  0  0  0  0  0  0  0  0
    2.5660    0.5070    0.2040 H   0  0  0  0  0  0  0  0  0  0  0  0
  1  2  2  0
  2  3  1  0
  3  4  1  0
  3  5  1  0
  5  6  1  0
  6  7  1  0
  6  2  1  0
  3  8  1  0
  4  9  1  0
  5 10  1  0
  5 11  1  0
  6 12  1  0
  7 13  1  0
M  END
