
     RDKit          3D

 15 17  0  0  0  0  0  0  0  0999 V2000
    3.4682   -1.0099   -0.6996 O   0  0  0  0  0  0  0  0  0  0  0  0
    2.3148   -0.5698   -0.5188 C   0  0  0  0  0  0  0  0  0  0  0  0
    1.1756   -1.3555   -0.7249 O   0  0  0  0  0  0  0  0  0  0  0  0
    0.0728   -0.5193   -1.0657 C   0  0  0  0  0  0  0  0  0  0  0  0
   -1.0959   -0.6312   -0.1363 C   0  0  0  0  0  0  0  0  0  0  0  0
   -1.8828    0.5276    0.2820 C   0  0  0  0  0  0  0  0  0  0  0  0
   -0.4462    0.5353    0.6692 C   0  0  0  0  0  0  0  0  0  0  0  0
    0.5119    0.8039   -0.4679 C   0  0  0  0  0  0  0  0  0  0  0  0
    1.8548    0.6597   -0.1144 O   0  0  0  0  0  0  0  0  0  0  0  0
   -0.1448   -0.4628   -2.1353 H   0  0  0  0  0  0  0  0  0  0  0  0
   -1.2545   -1.5764    0.4174 H   0  0  0  0  0  0  0  0  0  0  0  0
   -2.1416    1.3060   -0.4921 H   0  0  0  0  0  0  0  0  0  0  0  0
   -2.5891    0.4057    1.1056 H   0  0  0  0  0  0  0  0  0  0  0  0
   -0.0899    0.2448    1.6538 H   0  0  0  0  0  0  0  0  0  0  0  0
    0.2467    1.6419   -1.1270 H   0  0  0  0  0  0  0  0  0  0  0  0
  1  2  2  0
  2  3  1  0
  3  4  1  0
  4  5  1  0
  5  6  1  0
  6  7  1  0
  7  8  1  0
  8  9  1  0
  9  2  1  0
  8  4  1  0
  7  5  1  0
  4 10  1  0
  5 11  1  0
  6 12  1  0
  6 13  1  0
  7 14  1  0
  8 15  1  0
M  END
