
     RDKit          3D

 15 16  0  0  0  0  0  0  0  0999 V2000
    0.7663   -1.7449    1.9930 O   0  0  0  0  0  0  0  0  0  0  0  0
    0.7116   -0.8852    1.0739 C   0  0  0  0  0  0  0  0  0  0  0  0
    1.6598   -0.6278   -0.0091 C   0  0  0  0  0  0  0  0  0  0  0  0
    1.1765    0.3066   -0.8143 C   0  0  0  0  0  0  0  0  0  0  0  0
   -0.1462    0.7710   -0.3522 C   0  0  0  0  0  0  0  0  0  0  0  0
   -0.3381    2.1501   -0.3508 O   0  0  0  0  0  0  0  0  0  0  0  0
   -1.3205   -0.1118   -0.3070 C   0  0  0  0  0  0  0  0  0  0  0  0
   -1.2871   -1.4091   -0.7879 O   0  0  0  0  0  0  0  0  0  0  0  0
   -0.3971    0.0769    0.9225 C   0  0  0  0  0  0  0  0  0  0  0  0
    2.6119   -1.1597   -0.0900 H   0  0  0  0  0  0  0  0  0  0  0  0
    1.6586    0.7038   -1.7041 H   0  0  0  0  0  0  0  0  0  0  0  0
   -0.5028    2.4839    0.5662 H   0  0  0  0  0  0  0  0  0  0  0  0
   -2.3011    0.3827   -0.2002 H   0  0  0  0  0  0  0  0  0  0  0  0
   -1.4586   -1.4908   -1.7451 H   0  0  0  0  0  0  0  0  0  0  0  0
   -0.8333    0.5543    1.8052 H   0  0  0  0  0  0  0  0  0  0  0  0
  1  2  2  0
  2  3  1  0
  3  4  2  0
  4  5  1  0
  5  6  1  0
  5  7  1  0
  7  8  1  0
  7  9  1  0
  9  2  1  0
  9  5  1  0
  3 10  1  0
  4 11  1  0
  6 12  1  0
  7 13  1  0
  8 14  1  0
  9 15  1  0
M  END
