
     RDKit          3D

 17 17  0  0  0  0  0  0  0  0999 V2000
    1.0446   -2.0153   -0.8693 O   0  0  0  0  0  0  0  0  0  0  0  0
    0.1904   -1.1861   -0.5336 C   0  0  0  0  0  0  0  0  0  0  0  0
   -1.1843   -1.4367   -0.7200 O   0  0  0  0  0  0  0  0  0  0  0  0
   -2.1079   -0.6063   -0.0374 C   0  0  0  0  0  0  0  0  0  0  0  0
   -1.6404    0.8039    0.1149 C   0  0  0  0  0  0  0  0  0  0  0  0
   -0.3925    1.0461   -0.4510 O   0  0  0  0  0  0  0  0  0  0  0  0
    0.5094    0.1313    0.0870 C   0  0  0  0  0  0  0  0  0  0  0  0
    1.9349    0.5519   -0.1653 C   0  0  0  0  0  0  0  0  0  0  0  0
    2.8024   -0.3684    0.3762 O   0  0  0  0  0  0  0  0  0  0  0  0
   -2.2585   -1.0726    0.9800 H   0  0  0  0  0  0  0  0  0  0  0  0
   -3.0834   -0.6978   -0.5555 H   0  0  0  0  0  0  0  0  0  0  0  0
   -2.4068    1.4823   -0.3340 H   0  0  0  0  0  0  0  0  0  0  0  0
   -1.5172    1.0489    1.2059 H   0  0  0  0  0  0  0  0  0  0  0  0
    0.2973    0.0143    1.1746 H   0  0  0  0  0  0  0  0  0  0  0  0
    2.0670    0.7022   -1.2434 H   0  0  0  0  0  0  0  0  0  0  0  0
    2.0726    1.5278    0.3459 H   0  0  0  0  0  0  0  0  0  0  0  0
    3.6724    0.0746    0.6251 H   0  0  0  0  0  0  0  0  0  0  0  0
  1  2  2  0
  2  3  1  0
  3  4  1  0
  4  5  1  0
  5  6  1  0
  6  7  1  0
  7  8  1  0
  8  9  1  0
  7  2  1  0
  4 10  1  0
  4 11  1  0
  5 12  1  0
  5 13  1  0
  7 14  1  0
  8 15  1  0
  8 16  1  0
  9 17  1  0
M  END
