
     RDKit          3D

 17 19  0  0  0  0  0  0  0  0999 V2000
   -2.2446   -0.9213   -1.1641 O   0  0  0  0  0  0  0  0  0  0  0  0
   -1.2857   -0.5091   -0.5678 C   0  0  0  0  0  0  0  0  0  0  0  0
    0.0207   -1.1963   -0.4658 C   0  0  0  0  0  0  0  0  0  0  0  0
    0.9923   -0.3620   -1.2516 C   0  0  0  0  0  0  0  0  0  0  0  0
    1.0407    0.9189   -0.9102 C   0  0  0  0  0  0  0  0  0  0  0  0
    0.1326    1.4043    0.1410 C   0  0  0  0  0  0  0  0  0  0  0  0
   -0.1139    0.4450    1.2383 C   0  0  0  0  0  0  0  0  0  0  0  0
    0.3658   -0.9545    0.9903 C   0  0  0  0  0  0  0  0  0  0  0  0
   -1.1823    0.7386    0.1812 C   0  0  0  0  0  0  0  0  0  0  0  0
    0.0159   -2.2419   -0.7556 H   0  0  0  0  0  0  0  0  0  0  0  0
    1.6077   -0.7695   -2.0370 H   0  0  0  0  0  0  0  0  0  0  0  0
    1.7190    1.6229   -1.3707 H   0  0  0  0  0  0  0  0  0  0  0  0
    0.1335    2.4761    0.4120 H   0  0  0  0  0  0  0  0  0  0  0  0
   -0.3099    0.8079    2.2514 H   0  0  0  0  0  0  0  0  0  0  0  0
    1.4409   -1.0921    1.1920 H   0  0  0  0  0  0  0  0  0  0  0  0
   -0.2741   -1.6476    1.5845 H   0  0  0  0  0  0  0  0  0  0  0  0
   -2.0586    1.2806    0.5323 H   0  0  0  0  0  0  0  0  0  0  0  0
  1  2  2  0
  2  3  1  0
  3  4  1  0
  4  5  2  0
  5  6  1  0
  6  7  1  0
  7  8  1  0
  7  9  1  0
  9  2  1  0
  8  3  1  0
  9  6  1  0
  3 10  1  0
  4 11  1  0
  5 12  1  0
  6 13  1  0
  7 14  1  0
  8 15  1  0
  8 16  1  0
  9 17  1  0
M  END
