
     RDKit          3D

 14 14  0  0  0  0  0  0  0  0999 V2000
   -1.3719   -2.1024   -0.5537 O   0  0  0  0  0  0  0  0  0  0  0  0
   -0.5490   -1.1724   -0.4113 C   0  0  0  0  0  0  0  0  0  0  0  0
    0.8006   -1.4615   -0.4028 O   0  0  0  0  0  0  0  0  0  0  0  0
    1.7073   -0.4296   -0.1505 C   0  0  0  0  0  0  0  0  0  0  0  0
    1.2492    0.5587    0.6644 O   0  0  0  0  0  0  0  0  0  0  0  0
    0.0531    1.1144    0.3531 C   0  0  0  0  0  0  0  0  0  0  0  0
   -0.9663    0.2308   -0.2511 C   0  0  0  0  0  0  0  0  0  0  0  0
   -2.1586    0.2580    0.4774 O   0  0  0  0  0  0  0  0  0  0  0  0
    2.0754   -0.0167   -1.1050 H   0  0  0  0  0  0  0  0  0  0  0  0
    2.5975   -0.9017    0.3549 H   0  0  0  0  0  0  0  0  0  0  0  0
   -0.3694    1.5687    1.2979 H   0  0  0  0  0  0  0  0  0  0  0  0
    0.2255    1.9945   -0.3165 H   0  0  0  0  0  0  0  0  0  0  0  0
   -1.2534    0.5930   -1.2826 H   0  0  0  0  0  0  0  0  0  0  0  0
   -2.0400   -0.2338    1.3258 H   0  0  0  0  0  0  0  0  0  0  0  0
  1  2  2  0
  2  3  1  0
  3  4  1  0
  4  5  1  0
  5  6  1  0
  6  7  1  0
  7  8  1  0
  7  2  1  0
  4  9  1  0
  4 10  1  0
  6 11  1  0
  6 12  1  0
  7 13  1  0
  8 14  1  0
M  END
