
     RDKit          3D

 19 20  0  0  0  0  0  0  0  0999 V2000
    1.4183    2.2722   -0.2871 O   0  0  0  0  0  0  0  0  0  0  0  0
    1.3312    1.0773   -0.1291 C   0  0  0  0  0  0  0  0  0  0  0  0
    2.2271    0.1142    0.5656 C   0  0  0  0  0  0  0  0  0  0  0  0
    2.0240   -1.1179    0.0138 O   0  0  0  0  0  0  0  0  0  0  0  0
    0.9612   -1.0930   -0.8354 C   0  0  0  0  0  0  0  0  0  0  0  0
    0.2097    0.2005   -0.6343 C   0  0  0  0  0  0  0  0  0  0  0  0
   -0.7872    0.1050    0.4927 C   0  0  0  0  0  0  0  0  0  0  0  0
   -2.0288   -0.6888    0.3409 C   0  0  0  0  0  0  0  0  0  0  0  0
   -2.1120    0.7762    0.1782 C   0  0  0  0  0  0  0  0  0  0  0  0
    1.8522    0.0675    1.6290 H   0  0  0  0  0  0  0  0  0  0  0  0
    3.2852    0.4162    0.5206 H   0  0  0  0  0  0  0  0  0  0  0  0
    1.3549   -1.0500   -1.8906 H   0  0  0  0  0  0  0  0  0  0  0  0
    0.3296   -1.9864   -0.7675 H   0  0  0  0  0  0  0  0  0  0  0  0
   -0.2245    0.6000   -1.5602 H   0  0  0  0  0  0  0  0  0  0  0  0
   -0.4025    0.1774    1.5357 H   0  0  0  0  0  0  0  0  0  0  0  0
   -2.4993   -1.1445    1.2301 H   0  0  0  0  0  0  0  0  0  0  0  0
   -2.1564   -1.3177   -0.5702 H   0  0  0  0  0  0  0  0  0  0  0  0
   -2.4769    1.4357    0.9909 H   0  0  0  0  0  0  0  0  0  0  0  0
   -2.3056    1.1560   -0.8231 H   0  0  0  0  0  0  0  0  0  0  0  0
  1  2  2  0
  2  3  1  0
  3  4  1  0
  4  5  1  0
  5  6  1  0
  6  7  1  0
  7  8  1  0
  8  9  1  0
  6  2  1  0
  9  7  1  0
  3 10  1  0
  3 11  1  0
  5 12  1  0
  5 13  1  0
  6 14  1  0
  7 15  1  0
  8 16  1  0
  8 17  1  0
  9 18  1  0
  9 19  1  0
M  END
