
     RDKit          3D

 19 19  0  0  0  0  0  0  0  0999 V2000
    0.3634   -1.7823    1.3856 O   0  0  0  0  0  0  0  0  0  0  0  0
    0.2579   -1.0967    0.4015 C   0  0  0  0  0  0  0  0  0  0  0  0
    1.5180   -0.5828   -0.1535 C   0  0  0  0  0  0  0  0  0  0  0  0
    1.7613    0.8674    0.1647 C   0  0  0  0  0  0  0  0  0  0  0  0
    0.6050    1.5433    0.5323 O   0  0  0  0  0  0  0  0  0  0  0  0
   -0.4114    1.4231   -0.3942 C   0  0  0  0  0  0  0  0  0  0  0  0
   -1.4867    0.5580    0.2604 C   0  0  0  0  0  0  0  0  0  0  0  0
   -1.1152   -0.8847   -0.0854 C   0  0  0  0  0  0  0  0  0  0  0  0
   -2.0248   -1.7863    0.4564 O   0  0  0  0  0  0  0  0  0  0  0  0
    1.4584   -0.6888   -1.2633 H   0  0  0  0  0  0  0  0  0  0  0  0
    2.3618   -1.1895    0.2228 H   0  0  0  0  0  0  0  0  0  0  0  0
    2.4709    0.9774    1.0292 H   0  0  0  0  0  0  0  0  0  0  0  0
    2.2763    1.3378   -0.6995 H   0  0  0  0  0  0  0  0  0  0  0  0
   -0.8870    2.4406   -0.5110 H   0  0  0  0  0  0  0  0  0  0  0  0
   -0.0954    1.0307   -1.3701 H   0  0  0  0  0  0  0  0  0  0  0  0
   -2.4935    0.8101   -0.0733 H   0  0  0  0  0  0  0  0  0  0  0  0
   -1.4057    0.6176    1.3801 H   0  0  0  0  0  0  0  0  0  0  0  0
   -1.1872   -0.9844   -1.1966 H   0  0  0  0  0  0  0  0  0  0  0  0
   -1.9659   -2.6104   -0.0860 H   0  0  0  0  0  0  0  0  0  0  0  0
  1  2  2  0
  2  3  1  0
  3  4  1  0
  4  5  1  0
  5  6  1  0
  6  7  1  0
  7  8  1  0
  8  9  1  0
  8  2  1  0
  3 10  1  0
  3 11  1  0
  4 12  1  0
  4 13  1  0
  6 14  1  0
  6 15  1  0
  7 16  1  0
  7 17  1  0
  8 18  1  0
  9 19  1  0
M  END
