
     RDKit          3D

 15 17  0  0  0  0  0  0  0  0999 V2000
    3.0369   -0.7524    0.3973 O   0  0  0  0  0  0  0  0  0  0  0  0
    1.8843   -0.2646    0.4302 C   0  0  0  0  0  0  0  0  0  0  0  0
    1.3839    0.7977    1.2204 O   0  0  0  0  0  0  0  0  0  0  0  0
    0.0308    0.8408    0.8223 C   0  0  0  0  0  0  0  0  0  0  0  0
   -0.3801   -0.6293    0.6942 C   0  0  0  0  0  0  0  0  0  0  0  0
   -1.6112   -0.4951   -0.1268 C   0  0  0  0  0  0  0  0  0  0  0  0
   -1.2407    0.3889   -1.0567 C   0  0  0  0  0  0  0  0  0  0  0  0
    0.1268    0.7349   -0.6805 C   0  0  0  0  0  0  0  0  0  0  0  0
    0.7052   -0.6484   -0.3415 C   0  0  0  0  0  0  0  0  0  0  0  0
   -0.6469    1.5163    1.2678 H   0  0  0  0  0  0  0  0  0  0  0  0
   -0.3509   -1.2448    1.5436 H   0  0  0  0  0  0  0  0  0  0  0  0
   -2.5472   -1.0115    0.0365 H   0  0  0  0  0  0  0  0  0  0  0  0
   -1.8454    0.7397   -1.8806 H   0  0  0  0  0  0  0  0  0  0  0  0
    0.7242    1.4035   -1.2286 H   0  0  0  0  0  0  0  0  0  0  0  0
    0.7303   -1.3756   -1.0976 H   0  0  0  0  0  0  0  0  0  0  0  0
  1  2  2  0
  2  3  1  0
  3  4  1  0
  4  5  1  0
  5  6  1  0
  6  7  2  0
  7  8  1  0
  8  9  1  0
  9  2  1  0
  8  4  1  0
  9  5  1  0
  4 10  1  0
  5 11  1  0
  6 12  1  0
  7 13  1  0
  8 14  1  0
  9 15  1  0
M  END
