
     RDKit          3D

 15 16  0  0  0  0  0  0  0  0999 V2000
    3.0055    0.9462    0.1641 O   0  0  0  0  0  0  0  0  0  0  0  0
    1.8111    0.6094    0.0050 C   0  0  0  0  0  0  0  0  0  0  0  0
    0.9513    1.5102   -0.6260 O   0  0  0  0  0  0  0  0  0  0  0  0
   -0.4230    1.3123   -0.5603 C   0  0  0  0  0  0  0  0  0  0  0  0
   -0.8725   -0.0998   -0.6290 C   0  0  0  0  0  0  0  0  0  0  0  0
   -1.2670   -0.7309    0.6779 C   0  0  0  0  0  0  0  0  0  0  0  0
   -0.0057   -1.1215   -0.0520 C   0  0  0  0  0  0  0  0  0  0  0  0
    1.2978   -0.6751    0.4515 C   0  0  0  0  0  0  0  0  0  0  0  0
    1.9721   -1.3725    1.2519 O   0  0  0  0  0  0  0  0  0  0  0  0
   -0.7961    1.7737    0.3771 H   0  0  0  0  0  0  0  0  0  0  0  0
   -0.8966    1.9209   -1.3856 H   0  0  0  0  0  0  0  0  0  0  0  0
   -1.5005   -0.3733   -1.5069 H   0  0  0  0  0  0  0  0  0  0  0  0
   -2.1030   -1.4350    0.7295 H   0  0  0  0  0  0  0  0  0  0  0  0
   -1.1360   -0.1352    1.6139 H   0  0  0  0  0  0  0  0  0  0  0  0
   -0.0374   -2.1294   -0.5111 H   0  0  0  0  0  0  0  0  0  0  0  0
  1  2  2  0
  2  3  1  0
  3  4  1  0
  4  5  1  0
  5  6  1  0
  6  7  1  0
  7  8  1  0
  8  9  2  0
  8  2  1  0
  7  5  1  0
  4 10  1  0
  4 11  1  0
  5 12  1  0
  6 13  1  0
  6 14  1  0
  7 15  1  0
M  END
