
     RDKit          3D

 17 19  0  0  0  0  0  0  0  0999 V2000
    3.3491   -0.7535   -0.4023 O   0  0  0  0  0  0  0  0  0  0  0  0
    2.1448   -0.5206   -0.1064 C   0  0  0  0  0  0  0  0  0  0  0  0
    1.5412    0.7616    0.3085 C   0  0  0  0  0  0  0  0  0  0  0  0
    0.2346    0.3568    0.9503 C   0  0  0  0  0  0  0  0  0  0  0  0
   -0.9803    0.8099    0.2071 C   0  0  0  0  0  0  0  0  0  0  0  0
   -2.2527    0.0572    0.2401 C   0  0  0  0  0  0  0  0  0  0  0  0
   -1.0707   -0.5408   -0.4305 C   0  0  0  0  0  0  0  0  0  0  0  0
   -0.0030   -1.0693    0.4939 C   0  0  0  0  0  0  0  0  0  0  0  0
    1.1617   -1.5096   -0.1345 O   0  0  0  0  0  0  0  0  0  0  0  0
    1.3058    1.4140   -0.5618 H   0  0  0  0  0  0  0  0  0  0  0  0
    2.2173    1.2514    1.0115 H   0  0  0  0  0  0  0  0  0  0  0  0
    0.2489    0.4965    2.0371 H   0  0  0  0  0  0  0  0  0  0  0  0
   -0.8996    1.6925   -0.4523 H   0  0  0  0  0  0  0  0  0  0  0  0
   -3.0445    0.4163   -0.4275 H   0  0  0  0  0  0  0  0  0  0  0  0
   -2.6212   -0.4606    1.1358 H   0  0  0  0  0  0  0  0  0  0  0  0
   -1.0012   -0.6810   -1.5091 H   0  0  0  0  0  0  0  0  0  0  0  0
   -0.3304   -1.7211    1.3064 H   0  0  0  0  0  0  0  0  0  0  0  0
  1  2  2  0
  2  3  1  0
  3  4  1  0
  4  5  1  0
  5  6  1  0
  6  7  1  0
  7  8  1  0
  8  9  1  0
  9  2  1  0
  8  4  1  0
  7  5  1  0
  3 10  1  0
  3 11  1  0
  4 12  1  0
  5 13  1  0
  6 14  1  0
  6 15  1  0
  7 16  1  0
  8 17  1  0
M  END
