
     RDKit          3D

 17 17  0  0  0  0  0  0  0  0999 V2000
    1.0235    2.0358    1.8808 O   0  0  0  0  0  0  0  0  0  0  0  0
    1.3063    1.1654    0.9830 C   0  0  0  0  0  0  0  0  0  0  0  0
    2.5271    0.8898    0.4240 O   0  0  0  0  0  0  0  0  0  0  0  0
    2.3651   -0.1340   -0.5118 C   0  0  0  0  0  0  0  0  0  0  0  0
    0.9331   -0.4563   -0.4710 C   0  0  0  0  0  0  0  0  0  0  0  0
    0.2994    0.2972    0.4006 C   0  0  0  0  0  0  0  0  0  0  0  0
   -1.1584    0.2875    0.7454 C   0  0  0  0  0  0  0  0  0  0  0  0
   -1.9013   -0.7501   -0.0625 C   0  0  0  0  0  0  0  0  0  0  0  0
   -1.8104   -0.5304   -1.4233 O   0  0  0  0  0  0  0  0  0  0  0  0
    3.0074   -1.0239   -0.3013 H   0  0  0  0  0  0  0  0  0  0  0  0
    2.6478    0.3133   -1.5104 H   0  0  0  0  0  0  0  0  0  0  0  0
    0.4770   -1.2253   -1.0928 H   0  0  0  0  0  0  0  0  0  0  0  0
   -1.3268    0.0612    1.8182 H   0  0  0  0  0  0  0  0  0  0  0  0
   -1.5815    1.2729    0.4674 H   0  0  0  0  0  0  0  0  0  0  0  0
   -2.9726   -0.7151    0.2225 H   0  0  0  0  0  0  0  0  0  0  0  0
   -1.5148   -1.7740    0.1375 H   0  0  0  0  0  0  0  0  0  0  0  0
   -2.3210    0.2861   -1.7064 H   0  0  0  0  0  0  0  0  0  0  0  0
  1  2  2  0
  2  3  1  0
  3  4  1  0
  4  5  1  0
  5  6  2  0
  6  7  1  0
  7  8  1  0
  8  9  1  0
  6  2  1  0
  4 10  1  0
  4 11  1  0
  5 12  1  0
  7 13  1  0
  7 14  1  0
  8 15  1  0
  8 16  1  0
  9 17  1  0
M  END
