
     RDKit          3D

 17 18  0  0  0  0  0  0  0  0999 V2000
    2.9763    1.1236   -0.0445 O   0  0  0  0  0  0  0  0  0  0  0  0
    1.7566    0.8416    0.0381 C   0  0  0  0  0  0  0  0  0  0  0  0
    1.2924   -0.5623    0.0256 C   0  0  0  0  0  0  0  0  0  0  0  0
   -0.0454   -0.5964   -0.6640 C   0  0  0  0  0  0  0  0  0  0  0  0
   -0.9832   -1.5930    0.0303 C   0  0  0  0  0  0  0  0  0  0  0  0
   -1.0638   -0.6170    1.0537 O   0  0  0  0  0  0  0  0  0  0  0  0
   -1.0462    0.3128    0.0050 C   0  0  0  0  0  0  0  0  0  0  0  0
   -0.5464    1.6662    0.3165 C   0  0  0  0  0  0  0  0  0  0  0  0
    0.8418    1.8444    0.1413 O   0  0  0  0  0  0  0  0  0  0  0  0
    1.1705   -0.9398    1.0647 H   0  0  0  0  0  0  0  0  0  0  0  0
    1.9775   -1.2479   -0.4958 H   0  0  0  0  0  0  0  0  0  0  0  0
   -0.0534   -0.6309   -1.7467 H   0  0  0  0  0  0  0  0  0  0  0  0
   -1.9412   -1.7170   -0.4886 H   0  0  0  0  0  0  0  0  0  0  0  0
   -0.4525   -2.5033    0.3049 H   0  0  0  0  0  0  0  0  0  0  0  0
   -2.0222    0.2419   -0.5304 H   0  0  0  0  0  0  0  0  0  0  0  0
   -1.0462    2.3945   -0.3608 H   0  0  0  0  0  0  0  0  0  0  0  0
   -0.8148    1.9827    1.3506 H   0  0  0  0  0  0  0  0  0  0  0  0
  1  2  2  0
  2  3  1  0
  3  4  1  0
  4  5  1  0
  5  6  1  0
  6  7  1  0
  7  8  1  0
  8  9  1  0
  9  2  1  0
  7  4  1  0
  3 10  1  0
  3 11  1  0
  4 12  1  0
  5 13  1  0
  5 14  1  0
  7 15  1  0
  8 16  1  0
  8 17  1  0
M  END
