
     RDKit          3D

 17 18  0  0  0  0  0  0  0  0999 V2000
    0.0255    1.9767    1.3576 O   0  0  0  0  0  0  0  0  0  0  0  0
    0.2538    1.1615    0.4837 C   0  0  0  0  0  0  0  0  0  0  0  0
    1.6655    0.8740    0.1500 C   0  0  0  0  0  0  0  0  0  0  0  0
    1.7687   -0.4607   -0.1962 O   0  0  0  0  0  0  0  0  0  0  0  0
    0.8329   -1.2669    0.4074 C   0  0  0  0  0  0  0  0  0  0  0  0
   -0.5935   -0.7599    0.3511 C   0  0  0  0  0  0  0  0  0  0  0  0
   -1.2228   -0.6878   -0.8711 C   0  0  0  0  0  0  0  0  0  0  0  0
   -0.8419    0.5130   -0.1870 C   0  0  0  0  0  0  0  0  0  0  0  0
   -1.5316    1.4520   -0.8050 O   0  0  0  0  0  0  0  0  0  0  0  0
    2.3734    1.1580    0.9512 H   0  0  0  0  0  0  0  0  0  0  0  0
    1.9215    1.4658   -0.7612 H   0  0  0  0  0  0  0  0  0  0  0  0
    1.1491   -1.5430    1.4440 H   0  0  0  0  0  0  0  0  0  0  0  0
    0.8609   -2.2475   -0.1553 H   0  0  0  0  0  0  0  0  0  0  0  0
   -1.1591   -1.0483    1.2898 H   0  0  0  0  0  0  0  0  0  0  0  0
   -0.7024   -0.9926   -1.8282 H   0  0  0  0  0  0  0  0  0  0  0  0
   -2.2953   -0.9772   -0.9153 H   0  0  0  0  0  0  0  0  0  0  0  0
   -2.5045    1.3829   -0.7155 H   0  0  0  0  0  0  0  0  0  0  0  0
  1  2  2  0
  2  3  1  0
  3  4  1  0
  4  5  1  0
  5  6  1  0
  6  7  1  0
  7  8  1  0
  8  9  1  0
  8  2  1  0
  8  6  1  0
  3 10  1  0
  3 11  1  0
  5 12  1  0
  5 13  1  0
  6 14  1  0
  7 15  1  0
  7 16  1  0
  9 17  1  0
M  END
