
     RDKit          3D

 19 20  0  0  0  0  0  0  0  0999 V2000
    0.7024    0.8781   -2.4133 O   0  0  0  0  0  0  0  0  0  0  0  0
    0.4791    0.5842   -1.2810 C   0  0  0  0  0  0  0  0  0  0  0  0
    1.5341    0.6079   -0.2515 C   0  0  0  0  0  0  0  0  0  0  0  0
    0.8057    0.1728    1.0345 C   0  0  0  0  0  0  0  0  0  0  0  0
    0.3327   -1.2485    0.7422 C   0  0  0  0  0  0  0  0  0  0  0  0
   -0.8491   -1.2069   -0.1969 C   0  0  0  0  0  0  0  0  0  0  0  0
   -0.8691    0.1786   -0.8417 C   0  0  0  0  0  0  0  0  0  0  0  0
   -1.2027    1.1198    0.3231 C   0  0  0  0  0  0  0  0  0  0  0  0
   -0.2460    1.0225    1.2949 O   0  0  0  0  0  0  0  0  0  0  0  0
    2.3052   -0.1872   -0.4416 H   0  0  0  0  0  0  0  0  0  0  0  0
    2.0285    1.5781   -0.1263 H   0  0  0  0  0  0  0  0  0  0  0  0
    1.4831    0.2016    1.9083 H   0  0  0  0  0  0  0  0  0  0  0  0
    0.1142   -1.8028    1.6750 H   0  0  0  0  0  0  0  0  0  0  0  0
    1.1628   -1.7406    0.1930 H   0  0  0  0  0  0  0  0  0  0  0  0
   -0.8304   -2.0078   -0.9529 H   0  0  0  0  0  0  0  0  0  0  0  0
   -1.7815   -1.2749    0.4002 H   0  0  0  0  0  0  0  0  0  0  0  0
   -1.6299    0.1750   -1.6120 H   0  0  0  0  0  0  0  0  0  0  0  0
   -1.3151    2.1411   -0.1104 H   0  0  0  0  0  0  0  0  0  0  0  0
   -2.2238    0.8091    0.6565 H   0  0  0  0  0  0  0  0  0  0  0  0
  1  2  2  0
  2  3  1  0
  3  4  1  0
  4  5  1  0
  5  6  1  0
  6  7  1  0
  7  8  1  0
  8  9  1  0
  7  2  1  0
  9  4  1  0
  3 10  1  0
  3 11  1  0
  4 12  1  0
  5 13  1  0
  5 14  1  0
  6 15  1  0
  6 16  1  0
  7 17  1  0
  8 18  1  0
  8 19  1  0
M  END
