
     RDKit          3D

 17 18  0  0  0  0  0  0  0  0999 V2000
   -0.7847   -1.1397    1.6574 O   0  0  0  0  0  0  0  0  0  0  0  0
   -1.0851   -0.5993    0.6278 C   0  0  0  0  0  0  0  0  0  0  0  0
   -2.3882   -0.2554   -0.0152 C   0  0  0  0  0  0  0  0  0  0  0  0
   -1.6129    0.5542   -1.0160 C   0  0  0  0  0  0  0  0  0  0  0  0
   -0.7773   -0.1886   -1.8041 O   0  0  0  0  0  0  0  0  0  0  0  0
   -0.3550   -0.0056   -0.5149 C   0  0  0  0  0  0  0  0  0  0  0  0
    0.8849    0.7826   -0.3177 C   0  0  0  0  0  0  0  0  0  0  0  0
    1.9838   -0.0264    0.3481 C   0  0  0  0  0  0  0  0  0  0  0  0
    2.2857   -1.1216   -0.4524 O   0  0  0  0  0  0  0  0  0  0  0  0
   -2.7942   -1.1689   -0.5215 H   0  0  0  0  0  0  0  0  0  0  0  0
   -3.1041    0.2690    0.6062 H   0  0  0  0  0  0  0  0  0  0  0  0
   -1.7019    1.6341   -1.0823 H   0  0  0  0  0  0  0  0  0  0  0  0
    0.6814    1.7102    0.2524 H   0  0  0  0  0  0  0  0  0  0  0  0
    1.2792    1.0805   -1.3072 H   0  0  0  0  0  0  0  0  0  0  0  0
    1.6961   -0.3799    1.3500 H   0  0  0  0  0  0  0  0  0  0  0  0
    2.8835    0.5885    0.4596 H   0  0  0  0  0  0  0  0  0  0  0  0
    2.9090   -1.7335    0.0109 H   0  0  0  0  0  0  0  0  0  0  0  0
  1  2  2  0
  2  3  1  0
  3  4  1  0
  4  5  1  0
  5  6  1  0
  6  7  1  0
  7  8  1  0
  8  9  1  0
  6  2  1  0
  6  4  1  0
  3 10  1  0
  3 11  1  0
  4 12  1  0
  7 13  1  0
  7 14  1  0
  8 15  1  0
  8 16  1  0
  9 17  1  0
M  END
