
     RDKit          3D

 17 18  0  0  0  0  0  0  0  0999 V2000
   -1.1180    0.4915    2.2287 O   0  0  0  0  0  0  0  0  0  0  0  0
   -0.7932    0.2625    1.1219 C   0  0  0  0  0  0  0  0  0  0  0  0
   -0.3548    1.1865    0.0505 C   0  0  0  0  0  0  0  0  0  0  0  0
    1.1608    0.9361   -0.0373 C   0  0  0  0  0  0  0  0  0  0  0  0
    1.4882   -0.4993   -0.0713 C   0  0  0  0  0  0  0  0  0  0  0  0
    0.5953   -1.4086    0.3506 O   0  0  0  0  0  0  0  0  0  0  0  0
   -0.7179   -1.0515    0.4337 C   0  0  0  0  0  0  0  0  0  0  0  0
   -1.3071   -0.6251   -0.9014 C   0  0  0  0  0  0  0  0  0  0  0  0
   -0.8549    0.6473   -1.1378 O   0  0  0  0  0  0  0  0  0  0  0  0
   -0.5942    2.2286    0.2103 H   0  0  0  0  0  0  0  0  0  0  0  0
    1.5733    1.4763    0.8550 H   0  0  0  0  0  0  0  0  0  0  0  0
    1.5600    1.4956   -0.9227 H   0  0  0  0  0  0  0  0  0  0  0  0
    1.7748   -0.7629   -1.1347 H   0  0  0  0  0  0  0  0  0  0  0  0
    2.4597   -0.6398    0.4906 H   0  0  0  0  0  0  0  0  0  0  0  0
   -1.3157   -1.8385    0.8921 H   0  0  0  0  0  0  0  0  0  0  0  0
   -1.1413   -1.3440   -1.7004 H   0  0  0  0  0  0  0  0  0  0  0  0
   -2.4149   -0.5547   -0.7277 H   0  0  0  0  0  0  0  0  0  0  0  0
  1  2  2  0
  2  3  1  0
  3  4  1  0
  4  5  1  0
  5  6  1  0
  6  7  1  0
  7  8  1  0
  8  9  1  0
  7  2  1  0
  9  3  1  0
  3 10  1  0
  4 11  1  0
  4 12  1  0
  5 13  1  0
  5 14  1  0
  7 15  1  0
  8 16  1  0
  8 17  1  0
M  END
