
     RDKit          3D

 15 15  0  0  0  0  0  0  0  0999 V2000
    1.8735    2.0727   -0.1196 O   0  0  0  0  0  0  0  0  0  0  0  0
    0.8777    1.3366   -0.1824 C   0  0  0  0  0  0  0  0  0  0  0  0
    1.0185   -0.0425   -0.6731 C   0  0  0  0  0  0  0  0  0  0  0  0
    0.2799   -0.9037    0.3647 C   0  0  0  0  0  0  0  0  0  0  0  0
    0.4679   -2.2500    0.1045 O   0  0  0  0  0  0  0  0  0  0  0  0
   -1.1293   -0.4791    0.2688 C   0  0  0  0  0  0  0  0  0  0  0  0
   -1.9776   -1.3118    0.0847 O   0  0  0  0  0  0  0  0  0  0  0  0
   -1.4811    0.9448    0.3980 C   0  0  0  0  0  0  0  0  0  0  0  0
   -0.3559    1.7998    0.2029 O   0  0  0  0  0  0  0  0  0  0  0  0
    0.4880   -0.1385   -1.6434 H   0  0  0  0  0  0  0  0  0  0  0  0
    2.0689   -0.3698   -0.7809 H   0  0  0  0  0  0  0  0  0  0  0  0
    0.7040   -0.6986    1.3760 H   0  0  0  0  0  0  0  0  0  0  0  0
    1.3152   -2.4263   -0.4029 H   0  0  0  0  0  0  0  0  0  0  0  0
   -1.9333    1.1910    1.3966 H   0  0  0  0  0  0  0  0  0  0  0  0
   -2.2163    1.2753   -0.3938 H   0  0  0  0  0  0  0  0  0  0  0  0
  1  2  2  0
  2  3  1  0
  3  4  1  0
  4  5  1  0
  4  6  1  0
  6  7  2  0
  6  8  1  0
  8  9  1  0
  9  2  1  0
  3 10  1  0
  3 11  1  0
  4 12  1  0
  5 13  1  0
  8 14  1  0
  8 15  1  0
M  END
