
     RDKit          3D

 14 15  0  0  0  0  0  0  0  0999 V2000
   -1.2365    1.8623   -1.0954 O   0  0  0  0  0  0  0  0  0  0  0  0
   -0.6618    1.0836   -0.3267 C   0  0  0  0  0  0  0  0  0  0  0  0
   -1.4149   -0.1073    0.1729 C   0  0  0  0  0  0  0  0  0  0  0  0
   -0.6275   -1.2779   -0.2704 C   0  0  0  0  0  0  0  0  0  0  0  0
    0.6851   -1.2113   -0.2004 C   0  0  0  0  0  0  0  0  0  0  0  0
    1.4311   -0.0367    0.2953 C   0  0  0  0  0  0  0  0  0  0  0  0
    1.7835    0.8590   -0.6798 O   0  0  0  0  0  0  0  0  0  0  0  0
    0.7167    1.2749    0.1141 C   0  0  0  0  0  0  0  0  0  0  0  0
   -2.4588   -0.1186   -0.1693 H   0  0  0  0  0  0  0  0  0  0  0  0
   -1.3815   -0.0927    1.2973 H   0  0  0  0  0  0  0  0  0  0  0  0
   -1.1080   -2.1556   -0.6380 H   0  0  0  0  0  0  0  0  0  0  0  0
    1.2851   -2.0743   -0.5267 H   0  0  0  0  0  0  0  0  0  0  0  0
    1.9939   -0.1179    1.2417 H   0  0  0  0  0  0  0  0  0  0  0  0
    0.9937    2.1123    0.7854 H   0  0  0  0  0  0  0  0  0  0  0  0
  1  2  2  0
  2  3  1  0
  3  4  1  0
  4  5  2  0
  5  6  1  0
  6  7  1  0
  7  8  1  0
  8  2  1  0
  8  6  1  0
  3  9  1  0
  3 10  1  0
  4 11  1  0
  5 12  1  0
  6 13  1  0
  8 14  1  0
M  END
