
     RDKit          3D

 15 15  0  0  0  0  0  0  0  0999 V2000
   -1.3303   -1.6928    1.0259 O   0  0  0  0  0  0  0  0  0  0  0  0
   -0.8586   -0.9005    0.2453 C   0  0  0  0  0  0  0  0  0  0  0  0
    0.3401   -1.3139   -0.5095 C   0  0  0  0  0  0  0  0  0  0  0  0
    1.5298   -0.9229   -0.0105 O   0  0  0  0  0  0  0  0  0  0  0  0
    1.7192    0.3495    0.3743 C   0  0  0  0  0  0  0  0  0  0  0  0
    0.8779    1.3232   -0.2173 O   0  0  0  0  0  0  0  0  0  0  0  0
   -0.5021    1.4603   -0.2109 C   0  0  0  0  0  0  0  0  0  0  0  0
   -0.9409    2.5935   -0.5133 O   0  0  0  0  0  0  0  0  0  0  0  0
   -1.5331    0.4457    0.1060 C   0  0  0  0  0  0  0  0  0  0  0  0
    0.2865   -1.0108   -1.5941 H   0  0  0  0  0  0  0  0  0  0  0  0
    0.3258   -2.4375   -0.5392 H   0  0  0  0  0  0  0  0  0  0  0  0
    2.7694    0.6567    0.0884 H   0  0  0  0  0  0  0  0  0  0  0  0
    1.7098    0.4273    1.5009 H   0  0  0  0  0  0  0  0  0  0  0  0
   -2.1275    0.6858    0.9950 H   0  0  0  0  0  0  0  0  0  0  0  0
   -2.2662    0.3366   -0.7409 H   0  0  0  0  0  0  0  0  0  0  0  0
  1  2  2  0
  2  3  1  0
  3  4  1  0
  4  5  1  0
  5  6  1  0
  6  7  1  0
  7  8  2  0
  7  9  1  0
  9  2  1  0
  3 10  1  0
  3 11  1  0
  5 12  1  0
  5 13  1  0
  9 14  1  0
  9 15  1  0
M  END
