
     RDKit          3D

 15 17  0  0  0  0  0  0  0  0999 V2000
   -1.7085    1.2814   -1.4738 O   0  0  0  0  0  0  0  0  0  0  0  0
   -1.1147    0.5309   -0.7548 C   0  0  0  0  0  0  0  0  0  0  0  0
   -1.6197   -0.0907    0.4826 C   0  0  0  0  0  0  0  0  0  0  0  0
   -0.5057   -0.1770    1.2905 O   0  0  0  0  0  0  0  0  0  0  0  0
    0.6237   -0.2770    0.5210 C   0  0  0  0  0  0  0  0  0  0  0  0
    1.4802    0.9540    0.2879 C   0  0  0  0  0  0  0  0  0  0  0  0
    1.3142    0.9190   -1.0702 O   0  0  0  0  0  0  0  0  0  0  0  0
    0.2596    0.0301   -0.9048 C   0  0  0  0  0  0  0  0  0  0  0  0
    0.6380   -1.3514   -0.5669 C   0  0  0  0  0  0  0  0  0  0  0  0
   -2.4262    0.4954    0.9662 H   0  0  0  0  0  0  0  0  0  0  0  0
   -2.0560   -1.1022    0.3117 H   0  0  0  0  0  0  0  0  0  0  0  0
    1.0367    1.8023    0.8347 H   0  0  0  0  0  0  0  0  0  0  0  0
    2.5378    0.8304    0.6181 H   0  0  0  0  0  0  0  0  0  0  0  0
   -0.0883   -2.1602   -0.4141 H   0  0  0  0  0  0  0  0  0  0  0  0
    1.6289   -1.6848   -0.9062 H   0  0  0  0  0  0  0  0  0  0  0  0
  1  2  2  0
  2  3  1  0
  3  4  1  0
  4  5  1  0
  5  6  1  0
  6  7  1  0
  7  8  1  0
  8  9  1  0
  8  2  1  0
  8  5  1  0
  9  5  1  0
  3 10  1  0
  3 11  1  0
  6 12  1  0
  6 13  1  0
  9 14  1  0
  9 15  1  0
M  END
