
     RDKit          3D

 17 18  0  0  0  0  0  0  0  0999 V2000
    2.3570    1.6290   -0.6409 O   0  0  0  0  0  0  0  0  0  0  0  0
    1.3940    0.9106   -0.2789 C   0  0  0  0  0  0  0  0  0  0  0  0
    0.0590    1.5568    0.0385 C   0  0  0  0  0  0  0  0  0  0  0  0
   -0.6711    0.4647    0.7010 C   0  0  0  0  0  0  0  0  0  0  0  0
   -1.8631   -0.2283    0.3845 C   0  0  0  0  0  0  0  0  0  0  0  0
   -0.7688   -0.6162   -0.4282 C   0  0  0  0  0  0  0  0  0  0  0  0
    0.4025   -1.4856   -0.1715 C   0  0  0  0  0  0  0  0  0  0  0  0
    1.5788   -0.5332   -0.1707 C   0  0  0  0  0  0  0  0  0  0  0  0
    2.7151   -1.0529   -0.0724 O   0  0  0  0  0  0  0  0  0  0  0  0
    0.1902    2.4745    0.6145 H   0  0  0  0  0  0  0  0  0  0  0  0
   -0.4240    1.7705   -0.9513 H   0  0  0  0  0  0  0  0  0  0  0  0
   -0.1360    0.1464    1.6468 H   0  0  0  0  0  0  0  0  0  0  0  0
   -2.7063    0.3315   -0.0938 H   0  0  0  0  0  0  0  0  0  0  0  0
   -2.2747   -0.9575    1.1226 H   0  0  0  0  0  0  0  0  0  0  0  0
   -0.7594   -0.2379   -1.4932 H   0  0  0  0  0  0  0  0  0  0  0  0
    0.6204   -2.1952   -1.0065 H   0  0  0  0  0  0  0  0  0  0  0  0
    0.2864   -1.9771    0.7996 H   0  0  0  0  0  0  0  0  0  0  0  0
  1  2  2  0
  2  3  1  0
  3  4  1  0
  4  5  1  0
  5  6  1  0
  6  7  1  0
  7  8  1  0
  8  9  2  0
  8  2  1  0
  6  4  1  0
  3 10  1  0
  3 11  1  0
  4 12  1  0
  5 13  1  0
  5 14  1  0
  6 15  1  0
  7 16  1  0
  7 17  1  0
M  END
