
     RDKit          3D

 15 16  0  0  0  0  0  0  0  0999 V2000
   -0.0116    2.5679   -0.5059 O   0  0  0  0  0  0  0  0  0  0  0  0
    0.0283    1.3425   -0.3887 C   0  0  0  0  0  0  0  0  0  0  0  0
    1.0734    0.3443   -0.6278 C   0  0  0  0  0  0  0  0  0  0  0  0
    2.2964    0.5436   -0.0429 O   0  0  0  0  0  0  0  0  0  0  0  0
    0.2101   -0.6427    0.1395 C   0  0  0  0  0  0  0  0  0  0  0  0
    0.5219   -0.9876    1.4183 O   0  0  0  0  0  0  0  0  0  0  0  0
   -1.0457   -0.9983   -0.5386 C   0  0  0  0  0  0  0  0  0  0  0  0
   -0.9738    0.3591    0.0471 C   0  0  0  0  0  0  0  0  0  0  0  0
   -1.7091    0.5800    1.1920 O   0  0  0  0  0  0  0  0  0  0  0  0
    1.1186    0.0644   -1.7174 H   0  0  0  0  0  0  0  0  0  0  0  0
    2.8906   -0.1961   -0.3209 H   0  0  0  0  0  0  0  0  0  0  0  0
    0.9098   -0.2650    1.9690 H   0  0  0  0  0  0  0  0  0  0  0  0
   -1.6833   -1.7387   -0.0282 H   0  0  0  0  0  0  0  0  0  0  0  0
   -1.0131   -1.1337   -1.6514 H   0  0  0  0  0  0  0  0  0  0  0  0
   -2.6124    0.1603    1.0561 H   0  0  0  0  0  0  0  0  0  0  0  0
  1  2  2  0
  2  3  1  0
  3  4  1  0
  3  5  1  0
  5  6  1  0
  5  7  1  0
  7  8  1  0
  8  9  1  0
  8  2  1  0
  8  5  1  0
  3 10  1  0
  4 11  1  0
  6 12  1  0
  7 13  1  0
  7 14  1  0
  9 15  1  0
M  END
