
     RDKit          3D

 19 19  0  0  0  0  0  0  0  0999 V2000
   -0.0578   -1.5757   -1.1842 O   0  0  0  0  0  0  0  0  0  0  0  0
    0.1467   -1.2351   -0.0275 C   0  0  0  0  0  0  0  0  0  0  0  0
    1.5761   -0.7580    0.0777 C   0  0  0  0  0  0  0  0  0  0  0  0
    1.6035    0.5360   -0.7437 C   0  0  0  0  0  0  0  0  0  0  0  0
    0.6062    1.4305   -0.1026 C   0  0  0  0  0  0  0  0  0  0  0  0
   -0.6965    1.4545    0.1246 C   0  0  0  0  0  0  0  0  0  0  0  0
   -1.7872    0.5158   -0.1966 C   0  0  0  0  0  0  0  0  0  0  0  0
   -1.9881   -0.4627    0.7380 O   0  0  0  0  0  0  0  0  0  0  0  0
   -0.9946   -1.3820    0.8698 C   0  0  0  0  0  0  0  0  0  0  0  0
    2.2889   -1.4951   -0.2820 H   0  0  0  0  0  0  0  0  0  0  0  0
    1.7980   -0.4350    1.1294 H   0  0  0  0  0  0  0  0  0  0  0  0
    2.5926    0.9956   -0.7613 H   0  0  0  0  0  0  0  0  0  0  0  0
    1.2377    0.2551   -1.7633 H   0  0  0  0  0  0  0  0  0  0  0  0
    1.0767    2.3185    0.2937 H   0  0  0  0  0  0  0  0  0  0  0  0
   -0.9812    2.3575    0.6530 H   0  0  0  0  0  0  0  0  0  0  0  0
   -1.6634    0.1221   -1.2387 H   0  0  0  0  0  0  0  0  0  0  0  0
   -2.7327    1.1250   -0.2439 H   0  0  0  0  0  0  0  0  0  0  0  0
   -0.6198   -1.3479    1.9191 H   0  0  0  0  0  0  0  0  0  0  0  0
   -1.4050   -2.4191    0.7386 H   0  0  0  0  0  0  0  0  0  0  0  0
  1  2  2  0
  2  3  1  0
  3  4  1  0
  4  5  1  0
  5  6  2  3
  6  7  1  0
  7  8  1  0
  8  9  1  0
  9  2  1  0
  3 10  1  0
  3 11  1  0
  4 12  1  0
  4 13  1  0
  5 14  1  0
  6 15  1  0
  7 16  1  0
  7 17  1  0
  9 18  1  0
  9 19  1  0
M  END
