
     RDKit          3D

 19 20  0  0  0  0  0  0  0  0999 V2000
    0.6332    1.8551   -1.5629 O   0  0  0  0  0  0  0  0  0  0  0  0
    0.3464    1.2693   -0.5374 C   0  0  0  0  0  0  0  0  0  0  0  0
   -1.0263    1.3248    0.0700 C   0  0  0  0  0  0  0  0  0  0  0  0
   -1.5780   -0.0311    0.2549 C   0  0  0  0  0  0  0  0  0  0  0  0
   -0.6385   -1.1126    0.5608 C   0  0  0  0  0  0  0  0  0  0  0  0
    0.0996   -1.6790   -0.6731 C   0  0  0  0  0  0  0  0  0  0  0  0
    0.7762   -0.9360    0.4180 C   0  0  0  0  0  0  0  0  0  0  0  0
    1.3145    0.4374    0.2268 C   0  0  0  0  0  0  0  0  0  0  0  0
    2.5450    0.4896   -0.3990 O   0  0  0  0  0  0  0  0  0  0  0  0
   -1.7088    1.9148   -0.5982 H   0  0  0  0  0  0  0  0  0  0  0  0
   -1.0260    1.8548    1.0380 H   0  0  0  0  0  0  0  0  0  0  0  0
   -2.1430   -0.3040   -0.6857 H   0  0  0  0  0  0  0  0  0  0  0  0
   -2.3922    0.0316    1.0357 H   0  0  0  0  0  0  0  0  0  0  0  0
   -1.0158   -1.8829    1.2882 H   0  0  0  0  0  0  0  0  0  0  0  0
   -0.1049   -1.2298   -1.6480 H   0  0  0  0  0  0  0  0  0  0  0  0
    0.1871   -2.7949   -0.7153 H   0  0  0  0  0  0  0  0  0  0  0  0
    1.4419   -1.5854    1.0611 H   0  0  0  0  0  0  0  0  0  0  0  0
    1.4479    0.9378    1.2294 H   0  0  0  0  0  0  0  0  0  0  0  0
    2.8419    1.4406   -0.3634 H   0  0  0  0  0  0  0  0  0  0  0  0
  1  2  2  0
  2  3  1  0
  3  4  1  0
  4  5  1  0
  5  6  1  0
  6  7  1  0
  7  8  1  0
  8  9  1  0
  8  2  1  0
  7  5  1  0
  3 10  1  0
  3 11  1  0
  4 12  1  0
  4 13  1  0
  5 14  1  0
  6 15  1  0
  6 16  1  0
  7 17  1  0
  8 18  1  0
  9 19  1  0
M  END
