
     RDKit          3D

 15 16  0  0  0  0  0  0  0  0999 V2000
    2.8322   -1.1048   -0.1395 O   0  0  0  0  0  0  0  0  0  0  0  0
    1.6655   -0.6900   -0.0801 C   0  0  0  0  0  0  0  0  0  0  0  0
    0.7197   -1.3731    0.7189 O   0  0  0  0  0  0  0  0  0  0  0  0
   -0.5528   -0.7732    0.7956 C   0  0  0  0  0  0  0  0  0  0  0  0
   -1.0970   -0.4897   -0.5885 C   0  0  0  0  0  0  0  0  0  0  0  0
   -0.2672    0.7860   -0.5654 C   0  0  0  0  0  0  0  0  0  0  0  0
   -0.4401    0.7417    0.9613 C   0  0  0  0  0  0  0  0  0  0  0  0
    1.1658    0.4800   -0.7855 C   0  0  0  0  0  0  0  0  0  0  0  0
    1.8246    1.2221   -1.5360 O   0  0  0  0  0  0  0  0  0  0  0  0
   -1.2814   -1.2601    1.4506 H   0  0  0  0  0  0  0  0  0  0  0  0
   -2.1626   -0.2436   -0.5376 H   0  0  0  0  0  0  0  0  0  0  0  0
   -0.7901   -1.2225   -1.3672 H   0  0  0  0  0  0  0  0  0  0  0  0
   -0.6837    1.6505   -1.0596 H   0  0  0  0  0  0  0  0  0  0  0  0
    0.4550    1.0676    1.5103 H   0  0  0  0  0  0  0  0  0  0  0  0
   -1.3880    1.2092    1.2226 H   0  0  0  0  0  0  0  0  0  0  0  0
  1  2  2  0
  2  3  1  0
  3  4  1  0
  4  5  1  0
  5  6  1  0
  6  7  1  0
  6  8  1  0
  8  9  2  0
  8  2  1  0
  7  4  1  0
  4 10  1  0
  5 11  1  0
  5 12  1  0
  6 13  1  0
  7 14  1  0
  7 15  1  0
M  END
