
     RDKit          3D

 13 14  0  0  0  0  0  0  0  0999 V2000
   -2.4620    0.4857    1.1239 O   0  0  0  0  0  0  0  0  0  0  0  0
   -1.4004    0.1695    0.6495 C   0  0  0  0  0  0  0  0  0  0  0  0
   -0.8267   -0.9500   -0.1406 C   0  0  0  0  0  0  0  0  0  0  0  0
    0.5427   -0.3164   -0.1033 C   0  0  0  0  0  0  0  0  0  0  0  0
    1.6314   -1.0144    0.3479 O   0  0  0  0  0  0  0  0  0  0  0  0
    0.6268    1.0481   -0.6616 C   0  0  0  0  0  0  0  0  0  0  0  0
   -0.0676    0.8070    0.6363 C   0  0  0  0  0  0  0  0  0  0  0  0
   -1.1904   -0.9476   -1.2031 H   0  0  0  0  0  0  0  0  0  0  0  0
   -0.9074   -1.8901    0.3961 H   0  0  0  0  0  0  0  0  0  0  0  0
    2.0976   -1.4327   -0.4277 H   0  0  0  0  0  0  0  0  0  0  0  0
    1.5306    1.6668   -0.5998 H   0  0  0  0  0  0  0  0  0  0  0  0
    0.0287    1.2134   -1.5915 H   0  0  0  0  0  0  0  0  0  0  0  0
    0.3966    1.1607    1.5739 H   0  0  0  0  0  0  0  0  0  0  0  0
  1  2  2  0
  2  3  1  0
  3  4  1  0
  4  5  1  0
  4  6  1  0
  6  7  1  0
  7  2  1  0
  7  4  1  0
  3  8  1  0
  3  9  1  0
  5 10  1  0
  6 11  1  0
  6 12  1  0
  7 13  1  0
M  END
