
     RDKit          3D

 15 15  0  0  0  0  0  0  0  0999 V2000
   -1.3366   -1.7841    1.6288 O   0  0  0  0  0  0  0  0  0  0  0  0
   -0.6631   -1.0832    0.8301 C   0  0  0  0  0  0  0  0  0  0  0  0
   -1.3653   -0.4905   -0.3377 C   0  0  0  0  0  0  0  0  0  0  0  0
   -1.1049    0.9917   -0.3651 C   0  0  0  0  0  0  0  0  0  0  0  0
    0.2086    1.3307   -0.6963 O   0  0  0  0  0  0  0  0  0  0  0  0
    1.4525    0.8769   -0.3350 C   0  0  0  0  0  0  0  0  0  0  0  0
    2.3935    1.6751   -0.5831 O   0  0  0  0  0  0  0  0  0  0  0  0
    1.7533   -0.4238    0.2962 C   0  0  0  0  0  0  0  0  0  0  0  0
    0.6966   -0.9094    1.0938 O   0  0  0  0  0  0  0  0  0  0  0  0
   -2.4512   -0.6244   -0.1512 H   0  0  0  0  0  0  0  0  0  0  0  0
   -1.0743   -0.9609   -1.2934 H   0  0  0  0  0  0  0  0  0  0  0  0
   -1.4493    1.4277    0.5886 H   0  0  0  0  0  0  0  0  0  0  0  0
   -1.7613    1.4228   -1.1751 H   0  0  0  0  0  0  0  0  0  0  0  0
    2.0792   -1.1554   -0.4807 H   0  0  0  0  0  0  0  0  0  0  0  0
    2.6223   -0.2931    0.9800 H   0  0  0  0  0  0  0  0  0  0  0  0
  1  2  2  0
  2  3  1  0
  3  4  1  0
  4  5  1  0
  5  6  1  0
  6  7  2  0
  6  8  1  0
  8  9  1  0
  9  2  1  0
  3 10  1  0
  3 11  1  0
  4 12  1  0
  4 13  1  0
  8 14  1  0
  8 15  1  0
M  END
