
     RDKit          3D

 17 18  0  0  0  0  0  0  0  0999 V2000
    0.2947    2.3447   -0.5501 O   0  0  0  0  0  0  0  0  0  0  0  0
    0.2628    1.2150   -0.1470 C   0  0  0  0  0  0  0  0  0  0  0  0
    1.5239    0.5007    0.1186 C   0  0  0  0  0  0  0  0  0  0  0  0
    1.3763   -0.9133   -0.3778 C   0  0  0  0  0  0  0  0  0  0  0  0
    0.2367   -1.1510   -1.0862 O   0  0  0  0  0  0  0  0  0  0  0  0
   -0.9426   -0.8437   -0.4733 C   0  0  0  0  0  0  0  0  0  0  0  0
   -1.0965   -0.6621    0.9792 C   0  0  0  0  0  0  0  0  0  0  0  0
   -1.0121    0.5244    0.0887 C   0  0  0  0  0  0  0  0  0  0  0  0
   -2.1610    1.2972   -0.0489 O   0  0  0  0  0  0  0  0  0  0  0  0
    2.4081    1.0238   -0.3363 H   0  0  0  0  0  0  0  0  0  0  0  0
    1.6986    0.5403    1.2325 H   0  0  0  0  0  0  0  0  0  0  0  0
    2.2448   -1.1181   -1.0395 H   0  0  0  0  0  0  0  0  0  0  0  0
    1.5060   -1.5859    0.5073 H   0  0  0  0  0  0  0  0  0  0  0  0
   -1.8404   -1.1804   -1.0360 H   0  0  0  0  0  0  0  0  0  0  0  0
   -2.0833   -0.8656    1.4341 H   0  0  0  0  0  0  0  0  0  0  0  0
   -0.2490   -0.9495    1.6265 H   0  0  0  0  0  0  0  0  0  0  0  0
   -2.1669    1.8235   -0.8918 H   0  0  0  0  0  0  0  0  0  0  0  0
  1  2  2  0
  2  3  1  0
  3  4  1  0
  4  5  1  0
  5  6  1  0
  6  7  1  0
  7  8  1  0
  8  9  1  0
  8  2  1  0
  8  6  1  0
  3 10  1  0
  3 11  1  0
  4 12  1  0
  4 13  1  0
  6 14  1  0
  7 15  1  0
  7 16  1  0
  9 17  1  0
M  END
