
     RDKit          3D

 15 15  0  0  0  0  0  0  0  0999 V2000
   -3.0700    1.0407   -0.1831 O   0  0  0  0  0  0  0  0  0  0  0  0
   -1.9112    0.5422   -0.1013 C   0  0  0  0  0  0  0  0  0  0  0  0
   -1.5913   -0.9074   -0.1270 C   0  0  0  0  0  0  0  0  0  0  0  0
   -0.1388   -0.9661   -0.0037 C   0  0  0  0  0  0  0  0  0  0  0  0
    0.4231    0.2091    0.0881 C   0  0  0  0  0  0  0  0  0  0  0  0
    1.8736    0.5635    0.2264 C   0  0  0  0  0  0  0  0  0  0  0  0
    2.6694   -0.5820    0.2530 O   0  0  0  0  0  0  0  0  0  0  0  0
   -0.6265    1.2053    0.0341 C   0  0  0  0  0  0  0  0  0  0  0  0
   -0.4859    2.4624    0.0925 O   0  0  0  0  0  0  0  0  0  0  0  0
   -2.1390   -1.3688    0.7156 H   0  0  0  0  0  0  0  0  0  0  0  0
   -1.9869   -1.3671   -1.0541 H   0  0  0  0  0  0  0  0  0  0  0  0
    0.4248   -1.9080    0.0103 H   0  0  0  0  0  0  0  0  0  0  0  0
    2.1837    1.1479   -0.6507 H   0  0  0  0  0  0  0  0  0  0  0  0
    1.9880    1.1355    1.1652 H   0  0  0  0  0  0  0  0  0  0  0  0
    2.3871   -1.2071   -0.4652 H   0  0  0  0  0  0  0  0  0  0  0  0
  1  2  2  0
  2  3  1  0
  3  4  1  0
  4  5  2  0
  5  6  1  0
  6  7  1  0
  5  8  1  0
  8  9  2  0
  8  2  1  0
  3 10  1  0
  3 11  1  0
  4 12  1  0
  6 13  1  0
  6 14  1  0
  7 15  1  0
M  END
