
     RDKit          3D

 21 22  0  0  0  0  0  0  0  0999 V2000
    1.8079    1.3560   -1.7340 O   0  0  0  0  0  0  0  0  0  0  0  0
    1.7160    0.5824   -0.7799 C   0  0  0  0  0  0  0  0  0  0  0  0
    2.5005    0.2849    0.4548 C   0  0  0  0  0  0  0  0  0  0  0  0
    1.7040   -0.9961    0.5799 C   0  0  0  0  0  0  0  0  0  0  0  0
    0.7051   -0.4666   -0.4248 C   0  0  0  0  0  0  0  0  0  0  0  0
   -0.4551    0.1821    0.2747 C   0  0  0  0  0  0  0  0  0  0  0  0
   -1.5633   -0.7521    0.6979 C   0  0  0  0  0  0  0  0  0  0  0  0
   -2.5168    0.4099    0.3818 C   0  0  0  0  0  0  0  0  0  0  0  0
   -1.4606    0.8460   -0.6448 C   0  0  0  0  0  0  0  0  0  0  0  0
    3.5892    0.1458    0.2978 H   0  0  0  0  0  0  0  0  0  0  0  0
    2.2921    0.9349    1.3110 H   0  0  0  0  0  0  0  0  0  0  0  0
    1.2397   -1.1800    1.5594 H   0  0  0  0  0  0  0  0  0  0  0  0
    2.3088   -1.8622    0.2324 H   0  0  0  0  0  0  0  0  0  0  0  0
    0.4689   -1.1755   -1.2213 H   0  0  0  0  0  0  0  0  0  0  0  0
   -0.1071    0.8260    1.0955 H   0  0  0  0  0  0  0  0  0  0  0  0
   -1.5271   -1.0410    1.7453 H   0  0  0  0  0  0  0  0  0  0  0  0
   -1.7729   -1.5631   -0.0214 H   0  0  0  0  0  0  0  0  0  0  0  0
   -2.5458    1.1492    1.2063 H   0  0  0  0  0  0  0  0  0  0  0  0
   -3.4627    0.0835   -0.0384 H   0  0  0  0  0  0  0  0  0  0  0  0
   -1.3597    1.9444   -0.7327 H   0  0  0  0  0  0  0  0  0  0  0  0
   -1.5610    0.2915   -1.6005 H   0  0  0  0  0  0  0  0  0  0  0  0
  1  2  2  0
  2  3  1  0
  3  4  1  0
  4  5  1  0
  5  6  1  0
  6  7  1  0
  7  8  1  0
  8  9  1  0
  5  2  1  0
  9  6  1  0
  3 10  1  0
  3 11  1  0
  4 12  1  0
  4 13  1  0
  5 14  1  0
  6 15  1  0
  7 16  1  0
  7 17  1  0
  8 18  1  0
  8 19  1  0
  9 20  1  0
  9 21  1  0
M  END
