
     RDKit          3D

 19 20  0  0  0  0  0  0  0  0999 V2000
   -0.8672   -0.6942    2.3208 O   0  0  0  0  0  0  0  0  0  0  0  0
   -0.7299   -0.3205    1.2112 C   0  0  0  0  0  0  0  0  0  0  0  0
   -0.4424    1.0422    0.7206 C   0  0  0  0  0  0  0  0  0  0  0  0
   -1.2650    1.0271   -0.5514 C   0  0  0  0  0  0  0  0  0  0  0  0
   -1.6784   -0.1988   -0.8379 C   0  0  0  0  0  0  0  0  0  0  0  0
   -0.8040   -1.1073   -0.0379 C   0  0  0  0  0  0  0  0  0  0  0  0
    0.5450   -1.0743   -0.7179 C   0  0  0  0  0  0  0  0  0  0  0  0
    1.5691   -0.3065    0.0889 C   0  0  0  0  0  0  0  0  0  0  0  0
    1.0354    1.0724    0.3759 C   0  0  0  0  0  0  0  0  0  0  0  0
   -0.7101    1.8541    1.3876 H   0  0  0  0  0  0  0  0  0  0  0  0
   -1.4522    1.9256   -1.1016 H   0  0  0  0  0  0  0  0  0  0  0  0
   -2.4679   -0.5192   -1.4974 H   0  0  0  0  0  0  0  0  0  0  0  0
   -1.2161   -2.1084    0.0841 H   0  0  0  0  0  0  0  0  0  0  0  0
    0.9433   -2.1129   -0.8969 H   0  0  0  0  0  0  0  0  0  0  0  0
    0.5170   -0.6056   -1.7234 H   0  0  0  0  0  0  0  0  0  0  0  0
    2.4583   -0.1756   -0.5959 H   0  0  0  0  0  0  0  0  0  0  0  0
    1.8344   -0.8691    0.9938 H   0  0  0  0  0  0  0  0  0  0  0  0
    1.5588    1.4428    1.2821 H   0  0  0  0  0  0  0  0  0  0  0  0
    1.1718    1.7282   -0.5045 H   0  0  0  0  0  0  0  0  0  0  0  0
  1  2  2  0
  2  3  1  0
  3  4  1  0
  4  5  2  0
  5  6  1  0
  6  7  1  0
  7  8  1  0
  8  9  1  0
  6  2  1  0
  9  3  1  0
  3 10  1  0
  4 11  1  0
  5 12  1  0
  6 13  1  0
  7 14  1  0
  7 15  1  0
  8 16  1  0
  8 17  1  0
  9 18  1  0
  9 19  1  0
M  END
