
     RDKit          3D

 17 18  0  0  0  0  0  0  0  0999 V2000
   -1.2729    1.7257    1.4859 O   0  0  0  0  0  0  0  0  0  0  0  0
   -1.5793    0.8683    0.6252 C   0  0  0  0  0  0  0  0  0  0  0  0
   -2.7831    0.2174    0.3899 O   0  0  0  0  0  0  0  0  0  0  0  0
   -1.9908   -0.9323    0.0620 C   0  0  0  0  0  0  0  0  0  0  0  0
   -1.0223    0.1097   -0.4926 C   0  0  0  0  0  0  0  0  0  0  0  0
    0.4153   -0.2641   -0.4342 C   0  0  0  0  0  0  0  0  0  0  0  0
    1.4134    0.8448   -0.3466 C   0  0  0  0  0  0  0  0  0  0  0  0
    2.1667   -0.2780    0.3793 C   0  0  0  0  0  0  0  0  0  0  0  0
    0.8929   -0.7678    0.7495 O   0  0  0  0  0  0  0  0  0  0  0  0
   -2.4295   -1.6038   -0.6758 H   0  0  0  0  0  0  0  0  0  0  0  0
   -1.6520   -1.3897    1.0131 H   0  0  0  0  0  0  0  0  0  0  0  0
   -1.3818    0.4908   -1.4612 H   0  0  0  0  0  0  0  0  0  0  0  0
    0.6763   -0.9453   -1.2721 H   0  0  0  0  0  0  0  0  0  0  0  0
    1.8929    1.1673   -1.2848 H   0  0  0  0  0  0  0  0  0  0  0  0
    1.2134    1.6411    0.3890 H   0  0  0  0  0  0  0  0  0  0  0  0
    2.6843   -0.9386   -0.3602 H   0  0  0  0  0  0  0  0  0  0  0  0
    2.7565    0.0546    1.2336 H   0  0  0  0  0  0  0  0  0  0  0  0
  1  2  2  0
  2  3  1  0
  3  4  1  0
  4  5  1  0
  5  6  1  0
  6  7  1  0
  7  8  1  0
  8  9  1  0
  5  2  1  0
  9  6  1  0
  4 10  1  0
  4 11  1  0
  5 12  1  0
  6 13  1  0
  7 14  1  0
  7 15  1  0
  8 16  1  0
  8 17  1  0
M  END
