
     RDKit          3D

 17 18  0  0  0  0  0  0  0  0999 V2000
    0.6657   -2.2586   -0.9295 O   0  0  0  0  0  0  0  0  0  0  0  0
    0.2229   -1.2222   -0.5356 C   0  0  0  0  0  0  0  0  0  0  0  0
   -1.1099   -0.6191   -0.9208 C   0  0  0  0  0  0  0  0  0  0  0  0
   -1.2494    0.6061   -0.0307 C   0  0  0  0  0  0  0  0  0  0  0  0
   -0.4959    0.0898    1.2108 C   0  0  0  0  0  0  0  0  0  0  0  0
    0.7857   -0.2092    0.4184 C   0  0  0  0  0  0  0  0  0  0  0  0
    1.8303   -0.5953    1.1427 O   0  0  0  0  0  0  0  0  0  0  0  0
    0.8988    1.0800   -0.3479 C   0  0  0  0  0  0  0  0  0  0  0  0
   -0.3844    1.6200   -0.4375 O   0  0  0  0  0  0  0  0  0  0  0  0
   -1.9406   -1.3040   -0.6259 H   0  0  0  0  0  0  0  0  0  0  0  0
   -1.1423   -0.3751   -1.9853 H   0  0  0  0  0  0  0  0  0  0  0  0
   -2.2529    0.9101    0.1754 H   0  0  0  0  0  0  0  0  0  0  0  0
   -0.3545    0.8552    1.9575 H   0  0  0  0  0  0  0  0  0  0  0  0
   -0.9935   -0.8247    1.5183 H   0  0  0  0  0  0  0  0  0  0  0  0
    2.6725   -0.4090    0.7056 H   0  0  0  0  0  0  0  0  0  0  0  0
    1.6282    1.7865    0.0746 H   0  0  0  0  0  0  0  0  0  0  0  0
    1.2193    0.8696   -1.3903 H   0  0  0  0  0  0  0  0  0  0  0  0
  1  2  2  0
  2  3  1  0
  3  4  1  0
  4  5  1  0
  5  6  1  0
  6  7  1  0
  6  8  1  0
  8  9  1  0
  6  2  1  0
  9  4  1  0
  3 10  1  0
  3 11  1  0
  4 12  1  0
  5 13  1  0
  5 14  1  0
  7 15  1  0
  8 16  1  0
  8 17  1  0
M  END
