
     RDKit          3D

 15 17  0  0  0  0  0  0  0  0999 V2000
    2.9226    0.4978    0.5888 O   0  0  0  0  0  0  0  0  0  0  0  0
    1.8563   -0.0363    0.1867 C   0  0  0  0  0  0  0  0  0  0  0  0
    1.5623   -0.3881   -1.1322 O   0  0  0  0  0  0  0  0  0  0  0  0
    0.1872   -0.7674   -1.0937 C   0  0  0  0  0  0  0  0  0  0  0  0
    0.1654   -1.4773    0.1313 O   0  0  0  0  0  0  0  0  0  0  0  0
    0.6494   -0.4335    0.9557 C   0  0  0  0  0  0  0  0  0  0  0  0
   -0.4087    0.6103    0.7431 C   0  0  0  0  0  0  0  0  0  0  0  0
   -1.7274    0.2899    0.1734 C   0  0  0  0  0  0  0  0  0  0  0  0
   -0.6168    0.4524   -0.7930 C   0  0  0  0  0  0  0  0  0  0  0  0
   -0.1308   -1.3590   -1.9363 H   0  0  0  0  0  0  0  0  0  0  0  0
    0.8275   -0.7303    1.9726 H   0  0  0  0  0  0  0  0  0  0  0  0
   -0.2115    1.6098    1.1279 H   0  0  0  0  0  0  0  0  0  0  0  0
   -2.4795    1.0779    0.1879 H   0  0  0  0  0  0  0  0  0  0  0  0
   -2.1556   -0.7464    0.2245 H   0  0  0  0  0  0  0  0  0  0  0  0
   -0.4405    1.4002   -1.3367 H   0  0  0  0  0  0  0  0  0  0  0  0
  1  2  2  0
  2  3  1  0
  3  4  1  0
  4  5  1  0
  5  6  1  0
  6  7  1  0
  7  8  1  0
  8  9  1  0
  6  2  1  0
  9  7  1  0
  9  4  1  0
  4 10  1  0
  6 11  1  0
  7 12  1  0
  8 13  1  0
  8 14  1  0
  9 15  1  0
M  END
