
     RDKit          3D

 17 18  0  0  0  0  0  0  0  0999 V2000
    1.8194    1.3579   -1.0239 O   0  0  0  0  0  0  0  0  0  0  0  0
    1.0299    0.7787   -0.2952 C   0  0  0  0  0  0  0  0  0  0  0  0
    1.6184   -0.3195    0.5266 C   0  0  0  0  0  0  0  0  0  0  0  0
    0.6459   -1.2813    0.7980 O   0  0  0  0  0  0  0  0  0  0  0  0
   -0.1538   -1.3577   -0.3622 C   0  0  0  0  0  0  0  0  0  0  0  0
   -1.3050   -0.4033   -0.2916 C   0  0  0  0  0  0  0  0  0  0  0  0
   -1.1442    0.6589    0.7625 C   0  0  0  0  0  0  0  0  0  0  0  0
   -0.3738    1.2984   -0.3821 C   0  0  0  0  0  0  0  0  0  0  0  0
   -1.1416    0.5650   -1.2818 O   0  0  0  0  0  0  0  0  0  0  0  0
    2.4309   -0.7835   -0.0607 H   0  0  0  0  0  0  0  0  0  0  0  0
    1.9690    0.1323    1.4713 H   0  0  0  0  0  0  0  0  0  0  0  0
   -0.5032   -2.4235   -0.4636 H   0  0  0  0  0  0  0  0  0  0  0  0
    0.4690   -1.1694   -1.2573 H   0  0  0  0  0  0  0  0  0  0  0  0
   -2.2886   -0.9244   -0.2983 H   0  0  0  0  0  0  0  0  0  0  0  0
   -2.0922    1.1587    1.0018 H   0  0  0  0  0  0  0  0  0  0  0  0
   -0.5231    0.3218    1.6100 H   0  0  0  0  0  0  0  0  0  0  0  0
   -0.4570    2.3910   -0.4535 H   0  0  0  0  0  0  0  0  0  0  0  0
  1  2  2  0
  2  3  1  0
  3  4  1  0
  4  5  1  0
  5  6  1  0
  6  7  1  0
  7  8  1  0
  8  9  1  0
  8  2  1  0
  9  6  1  0
  3 10  1  0
  3 11  1  0
  5 12  1  0
  5 13  1  0
  6 14  1  0
  7 15  1  0
  7 16  1  0
  8 17  1  0
M  END
