
     RDKit          3D

 17 18  0  0  0  0  0  0  0  0999 V2000
    1.2603    2.5178    0.0171 O   0  0  0  0  0  0  0  0  0  0  0  0
    0.8952    1.3202   -0.0088 C   0  0  0  0  0  0  0  0  0  0  0  0
    1.4322    0.1532    0.6843 C   0  0  0  0  0  0  0  0  0  0  0  0
    2.4131    0.1384    1.4662 O   0  0  0  0  0  0  0  0  0  0  0  0
    0.5796   -0.9881    0.2685 C   0  0  0  0  0  0  0  0  0  0  0  0
   -0.7723   -0.7896    0.8946 C   0  0  0  0  0  0  0  0  0  0  0  0
   -1.3316    0.4152    0.1463 C   0  0  0  0  0  0  0  0  0  0  0  0
   -0.2457    0.8143   -0.8133 C   0  0  0  0  0  0  0  0  0  0  0  0
    0.3035   -0.5746   -1.1878 C   0  0  0  0  0  0  0  0  0  0  0  0
    1.0153   -1.9585    0.3663 H   0  0  0  0  0  0  0  0  0  0  0  0
   -1.4260   -1.6665    0.8350 H   0  0  0  0  0  0  0  0  0  0  0  0
   -0.6205   -0.4513    1.9597 H   0  0  0  0  0  0  0  0  0  0  0  0
   -1.5779    1.2516    0.8231 H   0  0  0  0  0  0  0  0  0  0  0  0
   -2.2223    0.1176   -0.4608 H   0  0  0  0  0  0  0  0  0  0  0  0
   -0.5330    1.4079   -1.6497 H   0  0  0  0  0  0  0  0  0  0  0  0
    1.2720   -0.5118   -1.6771 H   0  0  0  0  0  0  0  0  0  0  0  0
   -0.4419   -1.1959   -1.6636 H   0  0  0  0  0  0  0  0  0  0  0  0
  1  2  2  0
  2  3  1  0
  3  4  2  0
  3  5  1  0
  5  6  1  0
  6  7  1  0
  7  8  1  0
  8  9  1  0
  8  2  1  0
  9  5  1  0
  5 10  1  0
  6 11  1  0
  6 12  1  0
  7 13  1  0
  7 14  1  0
  8 15  1  0
  9 16  1  0
  9 17  1  0
M  END
