
     RDKit          3D

 11 11  0  0  0  0  0  0  0  0999 V2000
    1.9492    1.6638   -0.2217 O   0  0  0  0  0  0  0  0  0  0  0  0
    1.0292    0.8010   -0.1160 C   0  0  0  0  0  0  0  0  0  0  0  0
    1.1473   -0.6396   -0.0158 C   0  0  0  0  0  0  0  0  0  0  0  0
   -0.0476   -1.1714    0.0782 C   0  0  0  0  0  0  0  0  0  0  0  0
   -1.1078   -0.1547    0.0524 C   0  0  0  0  0  0  0  0  0  0  0  0
   -0.3844    1.1221   -0.0746 C   0  0  0  0  0  0  0  0  0  0  0  0
   -0.8965    2.3004   -0.1375 O   0  0  0  0  0  0  0  0  0  0  0  0
    2.0888   -1.2088   -0.0173 H   0  0  0  0  0  0  0  0  0  0  0  0
   -0.2982   -2.2463    0.1686 H   0  0  0  0  0  0  0  0  0  0  0  0
   -1.8405   -0.3149   -0.7695 H   0  0  0  0  0  0  0  0  0  0  0  0
   -1.6393   -0.1515    1.0531 H   0  0  0  0  0  0  0  0  0  0  0  0
  1  2  2  0
  2  3  1  0
  3  4  2  0
  4  5  1  0
  5  6  1  0
  6  7  2  0
  6  2  1  0
  3  8  1  0
  4  9  1  0
  5 10  1  0
  5 11  1  0
M  END
