
     RDKit          3D

 15 16  0  0  0  0  0  0  0  0999 V2000
    0.3104    2.2329    0.2718 O   0  0  0  0  0  0  0  0  0  0  0  0
   -0.3277    1.1722    0.2061 C   0  0  0  0  0  0  0  0  0  0  0  0
   -1.7281    0.9315   -0.0995 C   0  0  0  0  0  0  0  0  0  0  0  0
   -1.9832   -0.3648   -0.0458 C   0  0  0  0  0  0  0  0  0  0  0  0
   -0.7582   -1.0863    0.3030 C   0  0  0  0  0  0  0  0  0  0  0  0
   -0.1783   -0.7671    1.6143 O   0  0  0  0  0  0  0  0  0  0  0  0
    0.2579   -0.1681    0.4455 C   0  0  0  0  0  0  0  0  0  0  0  0
    1.6706   -0.3133   -0.0180 C   0  0  0  0  0  0  0  0  0  0  0  0
    1.7646    0.4141   -1.2229 O   0  0  0  0  0  0  0  0  0  0  0  0
   -2.4164    1.7475   -0.3314 H   0  0  0  0  0  0  0  0  0  0  0  0
   -2.9458   -0.7912   -0.2331 H   0  0  0  0  0  0  0  0  0  0  0  0
   -0.7275   -2.1790    0.1839 H   0  0  0  0  0  0  0  0  0  0  0  0
    2.4213    0.0606    0.7165 H   0  0  0  0  0  0  0  0  0  0  0  0
    1.9450   -1.3527   -0.2807 H   0  0  0  0  0  0  0  0  0  0  0  0
    2.6954    0.4638   -1.5096 H   0  0  0  0  0  0  0  0  0  0  0  0
  1  2  2  0
  2  3  1  0
  3  4  2  0
  4  5  1  0
  5  6  1  0
  6  7  1  0
  7  8  1  0
  8  9  1  0
  7  2  1  0
  7  5  1  0
  3 10  1  0
  4 11  1  0
  5 12  1  0
  8 13  1  0
  8 14  1  0
  9 15  1  0
M  END
