
     RDKit          3D

 19 20  0  0  0  0  0  0  0  0999 V2000
   -1.6798   -1.8642    1.3592 O   0  0  0  0  0  0  0  0  0  0  0  0
   -1.1357   -1.2755    0.4651 C   0  0  0  0  0  0  0  0  0  0  0  0
    0.1847   -1.5593   -0.1528 C   0  0  0  0  0  0  0  0  0  0  0  0
    0.6687   -0.1651   -0.4961 C   0  0  0  0  0  0  0  0  0  0  0  0
    1.5544    0.2973    0.6206 C   0  0  0  0  0  0  0  0  0  0  0  0
    2.0686    1.5677    0.4319 O   0  0  0  0  0  0  0  0  0  0  0  0
   -0.5067    0.6849   -0.7638 C   0  0  0  0  0  0  0  0  0  0  0  0
   -1.3562    1.2888    0.2601 C   0  0  0  0  0  0  0  0  0  0  0  0
   -1.6701   -0.0891   -0.2561 C   0  0  0  0  0  0  0  0  0  0  0  0
    0.1259   -2.1957   -1.0405 H   0  0  0  0  0  0  0  0  0  0  0  0
    0.8382   -2.0252    0.5992 H   0  0  0  0  0  0  0  0  0  0  0  0
    1.3056   -0.2693   -1.4035 H   0  0  0  0  0  0  0  0  0  0  0  0
    1.0411    0.2072    1.5940 H   0  0  0  0  0  0  0  0  0  0  0  0
    2.4287   -0.4156    0.6497 H   0  0  0  0  0  0  0  0  0  0  0  0
    2.4637    1.6400   -0.4626 H   0  0  0  0  0  0  0  0  0  0  0  0
   -0.6161    1.0593   -1.8086 H   0  0  0  0  0  0  0  0  0  0  0  0
   -1.0828    1.3195    1.3338 H   0  0  0  0  0  0  0  0  0  0  0  0
   -2.0731    2.0597   -0.0596 H   0  0  0  0  0  0  0  0  0  0  0  0
   -2.5591   -0.2654   -0.8701 H   0  0  0  0  0  0  0  0  0  0  0  0
  1  2  2  0
  2  3  1  0
  3  4  1  0
  4  5  1  0
  5  6  1  0
  4  7  1  0
  7  8  1  0
  8  9  1  0
  9  2  1  0
  9  7  1  0
  3 10  1  0
  3 11  1  0
  4 12  1  0
  5 13  1  0
  5 14  1  0
  6 15  1  0
  7 16  1  0
  8 17  1  0
  8 18  1  0
  9 19  1  0
M  END
