
     RDKit          3D

 15 17  0  0  0  0  0  0  0  0999 V2000
    2.6986    0.3978   -1.1771 O   0  0  0  0  0  0  0  0  0  0  0  0
    1.6900    0.1850   -0.5761 C   0  0  0  0  0  0  0  0  0  0  0  0
    0.9481   -1.0370   -0.1717 C   0  0  0  0  0  0  0  0  0  0  0  0
   -0.0700   -1.2642   -1.0906 O   0  0  0  0  0  0  0  0  0  0  0  0
   -1.2255   -0.6816   -0.6419 C   0  0  0  0  0  0  0  0  0  0  0  0
   -0.7426    0.4665    0.2431 C   0  0  0  0  0  0  0  0  0  0  0  0
   -1.6601    1.2720    0.8489 O   0  0  0  0  0  0  0  0  0  0  0  0
    0.6335    0.9783    0.0894 C   0  0  0  0  0  0  0  0  0  0  0  0
    0.3599   -0.2107    0.9265 C   0  0  0  0  0  0  0  0  0  0  0  0
    1.5459   -1.9035    0.1079 H   0  0  0  0  0  0  0  0  0  0  0  0
   -1.7096   -1.4134    0.0648 H   0  0  0  0  0  0  0  0  0  0  0  0
   -1.8942   -0.3442   -1.4275 H   0  0  0  0  0  0  0  0  0  0  0  0
   -1.9951    1.9722    0.2284 H   0  0  0  0  0  0  0  0  0  0  0  0
    0.8761    1.9008    0.6141 H   0  0  0  0  0  0  0  0  0  0  0  0
    0.5450   -0.3181    1.9618 H   0  0  0  0  0  0  0  0  0  0  0  0
  1  2  2  0
  2  3  1  0
  3  4  1  0
  4  5  1  0
  5  6  1  0
  6  7  1  0
  6  8  1  0
  8  9  1  0
  8  2  1  0
  9  3  1  0
  9  6  1  0
  3 10  1  0
  5 11  1  0
  5 12  1  0
  7 13  1  0
  8 14  1  0
  9 15  1  0
M  END
