
     RDKit          3D

 17 18  0  0  0  0  0  0  0  0999 V2000
   -0.4378    2.0709   -1.4070 O   0  0  0  0  0  0  0  0  0  0  0  0
   -0.5417    1.0524   -0.7741 C   0  0  0  0  0  0  0  0  0  0  0  0
   -1.7502    0.5430   -0.0822 C   0  0  0  0  0  0  0  0  0  0  0  0
   -1.5789   -0.9331    0.1032 C   0  0  0  0  0  0  0  0  0  0  0  0
   -1.0503   -1.7197   -0.9040 O   0  0  0  0  0  0  0  0  0  0  0  0
   -0.1164   -1.1558   -0.0181 C   0  0  0  0  0  0  0  0  0  0  0  0
    0.5236    0.0744   -0.5444 C   0  0  0  0  0  0  0  0  0  0  0  0
    1.6514    0.5868    0.3178 C   0  0  0  0  0  0  0  0  0  0  0  0
    2.5746   -0.4587    0.4382 O   0  0  0  0  0  0  0  0  0  0  0  0
   -1.7522    1.0093    0.9425 H   0  0  0  0  0  0  0  0  0  0  0  0
   -2.6636    0.8453   -0.5892 H   0  0  0  0  0  0  0  0  0  0  0  0
   -2.1753   -1.4186    0.8875 H   0  0  0  0  0  0  0  0  0  0  0  0
    0.3432   -1.7876    0.7505 H   0  0  0  0  0  0  0  0  0  0  0  0
    0.9799   -0.1732   -1.5380 H   0  0  0  0  0  0  0  0  0  0  0  0
    1.3127    0.9676    1.2984 H   0  0  0  0  0  0  0  0  0  0  0  0
    2.1987    1.4152   -0.1766 H   0  0  0  0  0  0  0  0  0  0  0  0
    2.4822   -0.9181    1.2955 H   0  0  0  0  0  0  0  0  0  0  0  0
  1  2  2  0
  2  3  1  0
  3  4  1  0
  4  5  1  0
  5  6  1  0
  6  7  1  0
  7  8  1  0
  8  9  1  0
  7  2  1  0
  6  4  1  0
  3 10  1  0
  3 11  1  0
  4 12  1  0
  6 13  1  0
  7 14  1  0
  8 15  1  0
  8 16  1  0
  9 17  1  0
M  END
