
     RDKit          3D

 19 21  0  0  0  0  0  0  0  0999 V2000
   -2.2296   -0.1514    1.7792 O   0  0  0  0  0  0  0  0  0  0  0  0
   -1.5209   -0.2400    0.8090 C   0  0  0  0  0  0  0  0  0  0  0  0
   -1.2653    0.5944   -0.3873 C   0  0  0  0  0  0  0  0  0  0  0  0
   -0.0450    1.4442   -0.1082 C   0  0  0  0  0  0  0  0  0  0  0  0
    1.0623    0.6970    0.5564 C   0  0  0  0  0  0  0  0  0  0  0  0
    1.8792   -0.2999   -0.2116 C   0  0  0  0  0  0  0  0  0  0  0  0
    0.8389   -0.7448    0.7242 C   0  0  0  0  0  0  0  0  0  0  0  0
   -0.5295   -1.2069    0.2752 C   0  0  0  0  0  0  0  0  0  0  0  0
   -0.8991   -0.6892   -1.0918 C   0  0  0  0  0  0  0  0  0  0  0  0
   -2.0880    1.1719   -0.7894 H   0  0  0  0  0  0  0  0  0  0  0  0
    0.3101    1.8827   -1.0810 H   0  0  0  0  0  0  0  0  0  0  0  0
   -0.3860    2.2606    0.5631 H   0  0  0  0  0  0  0  0  0  0  0  0
    1.6578    1.2967    1.2774 H   0  0  0  0  0  0  0  0  0  0  0  0
    1.7796   -0.2451   -1.2907 H   0  0  0  0  0  0  0  0  0  0  0  0
    2.9380   -0.4847    0.1149 H   0  0  0  0  0  0  0  0  0  0  0  0
    1.1459   -1.1803    1.6906 H   0  0  0  0  0  0  0  0  0  0  0  0
   -0.7047   -2.2576    0.4726 H   0  0  0  0  0  0  0  0  0  0  0  0
   -0.1343   -0.6518   -1.8512 H   0  0  0  0  0  0  0  0  0  0  0  0
   -1.8095   -1.1957   -1.4513 H   0  0  0  0  0  0  0  0  0  0  0  0
  1  2  2  0
  2  3  1  0
  3  4  1  0
  4  5  1  0
  5  6  1  0
  6  7  1  0
  7  8  1  0
  8  9  1  0
  8  2  1  0
  9  3  1  0
  7  5  1  0
  3 10  1  0
  4 11  1  0
  4 12  1  0
  5 13  1  0
  6 14  1  0
  6 15  1  0
  7 16  1  0
  8 17  1  0
  9 18  1  0
  9 19  1  0
M  END
