
     RDKit          3D

 17 18  0  0  0  0  0  0  0  0999 V2000
    0.5873    2.2829   -1.4769 O   0  0  0  0  0  0  0  0  0  0  0  0
    0.1749    1.4020   -0.6794 C   0  0  0  0  0  0  0  0  0  0  0  0
   -1.1673    1.0406   -0.8029 O   0  0  0  0  0  0  0  0  0  0  0  0
   -1.9131    0.1996    0.0665 C   0  0  0  0  0  0  0  0  0  0  0  0
   -1.2504   -1.1443    0.1925 C   0  0  0  0  0  0  0  0  0  0  0  0
   -0.0187   -1.1189    0.8468 O   0  0  0  0  0  0  0  0  0  0  0  0
    0.9466   -0.7088    0.0050 C   0  0  0  0  0  0  0  0  0  0  0  0
    2.1914   -0.0465    0.2005 C   0  0  0  0  0  0  0  0  0  0  0  0
    1.0920    0.8299    0.2940 C   0  0  0  0  0  0  0  0  0  0  0  0
   -1.9083    0.6437    1.1053 H   0  0  0  0  0  0  0  0  0  0  0  0
   -2.9358    0.0622   -0.2751 H   0  0  0  0  0  0  0  0  0  0  0  0
   -1.0377   -1.4868   -0.8599 H   0  0  0  0  0  0  0  0  0  0  0  0
   -1.9368   -1.9002    0.6234 H   0  0  0  0  0  0  0  0  0  0  0  0
    0.7199   -0.9934   -1.0669 H   0  0  0  0  0  0  0  0  0  0  0  0
    2.9028    0.0434   -0.6493 H   0  0  0  0  0  0  0  0  0  0  0  0
    2.7774   -0.2583    1.1418 H   0  0  0  0  0  0  0  0  0  0  0  0
    0.7757    1.1531    1.3346 H   0  0  0  0  0  0  0  0  0  0  0  0
  1  2  2  0
  2  3  1  0
  3  4  1  0
  4  5  1  0
  5  6  1  0
  6  7  1  0
  7  8  1  0
  8  9  1  0
  9  2  1  0
  9  7  1  0
  4 10  1  0
  4 11  1  0
  5 12  1  0
  5 13  1  0
  7 14  1  0
  8 15  1  0
  8 16  1  0
  9 17  1  0
M  END
