
     RDKit          3D

 15 17  0  0  0  0  0  0  0  0999 V2000
    0.1424    2.8568    0.0541 O   0  0  0  0  0  0  0  0  0  0  0  0
   -0.0270    1.6464    0.0122 C   0  0  0  0  0  0  0  0  0  0  0  0
   -1.3118    0.8659   -0.1416 C   0  0  0  0  0  0  0  0  0  0  0  0
   -0.5550   -0.3608    0.2667 C   0  0  0  0  0  0  0  0  0  0  0  0
   -0.8571   -1.6843    0.1433 C   0  0  0  0  0  0  0  0  0  0  0  0
   -0.8447   -1.0381    1.4209 O   0  0  0  0  0  0  0  0  0  0  0  0
    0.6856    0.3960    0.0646 C   0  0  0  0  0  0  0  0  0  0  0  0
    1.9792    0.0129    0.0053 C   0  0  0  0  0  0  0  0  0  0  0  0
    1.2929    0.0670   -1.2539 O   0  0  0  0  0  0  0  0  0  0  0  0
   -1.5593    0.8523   -1.2406 H   0  0  0  0  0  0  0  0  0  0  0  0
   -2.1273    1.1975    0.5023 H   0  0  0  0  0  0  0  0  0  0  0  0
   -0.0890   -2.4743   -0.0175 H   0  0  0  0  0  0  0  0  0  0  0  0
   -1.8750   -2.0564   -0.1781 H   0  0  0  0  0  0  0  0  0  0  0  0
    2.8373    0.7272    0.0290 H   0  0  0  0  0  0  0  0  0  0  0  0
    2.3087   -1.0080    0.3332 H   0  0  0  0  0  0  0  0  0  0  0  0
  1  2  2  0
  2  3  1  0
  3  4  1  0
  4  5  1  0
  5  6  1  0
  4  7  1  0
  7  8  1  0
  8  9  1  0
  7  2  1  0
  6  4  1  0
  9  7  1  0
  3 10  1  0
  3 11  1  0
  5 12  1  0
  5 13  1  0
  8 14  1  0
  8 15  1  0
M  END
