
     RDKit          3D

 17 18  0  0  0  0  0  0  0  0999 V2000
    0.5576   -1.8038    1.6818 O   0  0  0  0  0  0  0  0  0  0  0  0
    0.0603   -0.8835    1.0730 C   0  0  0  0  0  0  0  0  0  0  0  0
    0.4374    0.4206    0.4846 C   0  0  0  0  0  0  0  0  0  0  0  0
    1.7585    0.4459   -0.2409 C   0  0  0  0  0  0  0  0  0  0  0  0
    1.8124   -0.4304   -1.2994 O   0  0  0  0  0  0  0  0  0  0  0  0
   -0.7836    0.4840   -0.3596 C   0  0  0  0  0  0  0  0  0  0  0  0
   -1.4832    1.6821   -0.3495 O   0  0  0  0  0  0  0  0  0  0  0  0
   -1.4926   -0.6925   -0.8740 C   0  0  0  0  0  0  0  0  0  0  0  0
   -1.3201   -0.6351    0.5926 C   0  0  0  0  0  0  0  0  0  0  0  0
    0.4216    1.1998    1.2762 H   0  0  0  0  0  0  0  0  0  0  0  0
    2.0247    1.4863   -0.5040 H   0  0  0  0  0  0  0  0  0  0  0  0
    2.5454    0.1215    0.5033 H   0  0  0  0  0  0  0  0  0  0  0  0
    2.1991   -1.2961   -1.0035 H   0  0  0  0  0  0  0  0  0  0  0  0
   -1.1672    2.2716    0.3986 H   0  0  0  0  0  0  0  0  0  0  0  0
   -0.9554   -1.5234   -1.4065 H   0  0  0  0  0  0  0  0  0  0  0  0
   -2.5123   -0.5569   -1.2496 H   0  0  0  0  0  0  0  0  0  0  0  0
   -2.1028   -0.2900    1.2768 H   0  0  0  0  0  0  0  0  0  0  0  0
  1  2  2  0
  2  3  1  0
  3  4  1  0
  4  5  1  0
  3  6  1  0
  6  7  1  0
  6  8  1  0
  8  9  1  0
  9  2  1  0
  9  6  1  0
  3 10  1  0
  4 11  1  0
  4 12  1  0
  5 13  1  0
  7 14  1  0
  8 15  1  0
  8 16  1  0
  9 17  1  0
M  END
