
     RDKit          3D

 19 20  0  0  0  0  0  0  0  0999 V2000
    0.6917    2.4286   -0.2203 O   0  0  0  0  0  0  0  0  0  0  0  0
    0.2196    1.3310   -0.2355 C   0  0  0  0  0  0  0  0  0  0  0  0
   -1.2093    1.0323   -0.6032 C   0  0  0  0  0  0  0  0  0  0  0  0
   -1.7168    0.1207    0.5236 C   0  0  0  0  0  0  0  0  0  0  0  0
   -1.0683   -1.2185    0.3117 C   0  0  0  0  0  0  0  0  0  0  0  0
    0.3241   -1.1308   -0.2402 C   0  0  0  0  0  0  0  0  0  0  0  0
    1.0369    0.1404    0.1196 C   0  0  0  0  0  0  0  0  0  0  0  0
    2.4868    0.2551   -0.0679 C   0  0  0  0  0  0  0  0  0  0  0  0
    1.8185    0.1679    1.2697 O   0  0  0  0  0  0  0  0  0  0  0  0
   -1.1705    0.4304   -1.5222 H   0  0  0  0  0  0  0  0  0  0  0  0
   -1.7761    1.9596   -0.6728 H   0  0  0  0  0  0  0  0  0  0  0  0
   -1.3442    0.5833    1.4593 H   0  0  0  0  0  0  0  0  0  0  0  0
   -2.8072    0.0986    0.4419 H   0  0  0  0  0  0  0  0  0  0  0  0
   -1.6912   -1.8191   -0.4053 H   0  0  0  0  0  0  0  0  0  0  0  0
   -1.0911   -1.7441    1.3015 H   0  0  0  0  0  0  0  0  0  0  0  0
    0.3366   -1.3474   -1.3316 H   0  0  0  0  0  0  0  0  0  0  0  0
    0.9083   -1.9678    0.2394 H   0  0  0  0  0  0  0  0  0  0  0  0
    3.1315   -0.6100   -0.2592 H   0  0  0  0  0  0  0  0  0  0  0  0
    2.9205    1.2896   -0.1085 H   0  0  0  0  0  0  0  0  0  0  0  0
  1  2  2  0
  2  3  1  0
  3  4  1  0
  4  5  1  0
  5  6  1  0
  6  7  1  0
  7  8  1  0
  8  9  1  0
  7  2  1  0
  9  7  1  0
  3 10  1  0
  3 11  1  0
  4 12  1  0
  4 13  1  0
  5 14  1  0
  5 15  1  0
  6 16  1  0
  6 17  1  0
  8 18  1  0
  8 19  1  0
M  END
