
     RDKit          3D

 17 19  0  0  0  0  0  0  0  0999 V2000
    2.6652    0.1262    0.9407 O   0  0  0  0  0  0  0  0  0  0  0  0
    1.6139    0.0079    0.3875 C   0  0  0  0  0  0  0  0  0  0  0  0
    1.3603    0.0293   -1.0797 C   0  0  0  0  0  0  0  0  0  0  0  0
   -0.1475   -0.1380   -1.0216 C   0  0  0  0  0  0  0  0  0  0  0  0
   -0.4120   -1.1534    0.0472 C   0  0  0  0  0  0  0  0  0  0  0  0
   -1.6622   -0.3754    0.3499 C   0  0  0  0  0  0  0  0  0  0  0  0
   -0.6264    0.6898    0.1359 C   0  0  0  0  0  0  0  0  0  0  0  0
   -0.7555    1.9323    0.2064 O   0  0  0  0  0  0  0  0  0  0  0  0
    0.2887   -0.1889    0.9602 C   0  0  0  0  0  0  0  0  0  0  0  0
    1.8329   -0.8657   -1.5586 H   0  0  0  0  0  0  0  0  0  0  0  0
    1.6437    0.9764   -1.5559 H   0  0  0  0  0  0  0  0  0  0  0  0
   -0.7024   -0.1558   -1.9331 H   0  0  0  0  0  0  0  0  0  0  0  0
   -0.3035   -2.1454    0.0016 H   0  0  0  0  0  0  0  0  0  0  0  0
   -1.9410   -0.4254    1.4232 H   0  0  0  0  0  0  0  0  0  0  0  0
   -2.4711   -0.4238   -0.3793 H   0  0  0  0  0  0  0  0  0  0  0  0
   -0.5184    2.3575    1.0643 H   0  0  0  0  0  0  0  0  0  0  0  0
    0.1354   -0.2476    2.0113 H   0  0  0  0  0  0  0  0  0  0  0  0
  1  2  2  0
  2  3  1  0
  3  4  1  0
  4  5  1  0
  5  6  1  0
  6  7  1  0
  7  8  1  0
  7  9  1  0
  9  2  1  0
  7  4  1  0
  9  5  1  0
  3 10  1  0
  3 11  1  0
  4 12  1  0
  5 13  1  0
  6 14  1  0
  6 15  1  0
  8 16  1  0
  9 17  1  0
M  END
