
     RDKit          3D

 19 19  0  0  0  0  0  0  0  0999 V2000
    1.0589    2.0684   -0.1317 O   0  0  0  0  0  0  0  0  0  0  0  0
    0.2851    1.0919   -0.2709 C   0  0  0  0  0  0  0  0  0  0  0  0
   -1.1327    1.2147   -0.6994 C   0  0  0  0  0  0  0  0  0  0  0  0
   -1.9441    0.3702    0.2903 C   0  0  0  0  0  0  0  0  0  0  0  0
   -1.5404   -1.0778    0.1069 C   0  0  0  0  0  0  0  0  0  0  0  0
   -0.0822   -1.2424    0.1713 C   0  0  0  0  0  0  0  0  0  0  0  0
    0.7929   -0.2593    0.0011 C   0  0  0  0  0  0  0  0  0  0  0  0
    2.2555   -0.4658    0.0736 C   0  0  0  0  0  0  0  0  0  0  0  0
    2.8434    0.2911    1.0675 O   0  0  0  0  0  0  0  0  0  0  0  0
   -1.1859    0.7326   -1.7121 H   0  0  0  0  0  0  0  0  0  0  0  0
   -1.4766    2.2516   -0.7320 H   0  0  0  0  0  0  0  0  0  0  0  0
   -1.6081    0.6742    1.3024 H   0  0  0  0  0  0  0  0  0  0  0  0
   -3.0158    0.5045    0.1507 H   0  0  0  0  0  0  0  0  0  0  0  0
   -1.9780   -1.6670    0.9571 H   0  0  0  0  0  0  0  0  0  0  0  0
   -1.9702   -1.5197   -0.8179 H   0  0  0  0  0  0  0  0  0  0  0  0
    0.3152   -2.2405    0.3727 H   0  0  0  0  0  0  0  0  0  0  0  0
    2.6606   -0.2152   -0.9462 H   0  0  0  0  0  0  0  0  0  0  0  0
    2.4216   -1.5629    0.1988 H   0  0  0  0  0  0  0  0  0  0  0  0
    3.3007    1.0513    0.6176 H   0  0  0  0  0  0  0  0  0  0  0  0
  1  2  2  0
  2  3  1  0
  3  4  1  0
  4  5  1  0
  5  6  1  0
  6  7  2  0
  7  8  1  0
  8  9  1  0
  7  2  1  0
  3 10  1  0
  3 11  1  0
  4 12  1  0
  4 13  1  0
  5 14  1  0
  5 15  1  0
  6 16  1  0
  8 17  1  0
  8 18  1  0
  9 19  1  0
M  END
