
     RDKit          3D

 16 16  0  0  0  0  0  0  0  0999 V2000
    2.2241    1.7890    0.5663 O   0  0  0  0  0  0  0  0  0  0  0  0
    1.1674    1.1199    0.2962 C   0  0  0  0  0  0  0  0  0  0  0  0
    1.4413   -0.2810    0.0100 C   0  0  0  0  0  0  0  0  0  0  0  0
    0.3341   -1.2318    0.0206 C   0  0  0  0  0  0  0  0  0  0  0  0
   -1.0064   -0.8388   -0.4215 C   0  0  0  0  0  0  0  0  0  0  0  0
   -1.1284    0.3893   -1.0414 O   0  0  0  0  0  0  0  0  0  0  0  0
   -1.2696    1.3412   -0.0080 C   0  0  0  0  0  0  0  0  0  0  0  0
   -0.0048    1.8807    0.3367 O   0  0  0  0  0  0  0  0  0  0  0  0
    2.2120   -0.6065    0.7676 H   0  0  0  0  0  0  0  0  0  0  0  0
    2.0100   -0.3198   -0.9624 H   0  0  0  0  0  0  0  0  0  0  0  0
    0.2458   -1.6774    1.0585 H   0  0  0  0  0  0  0  0  0  0  0  0
    0.6462   -2.1296   -0.5982 H   0  0  0  0  0  0  0  0  0  0  0  0
   -1.4775   -1.5847   -1.1228 H   0  0  0  0  0  0  0  0  0  0  0  0
   -1.7428   -0.8185    0.4352 H   0  0  0  0  0  0  0  0  0  0  0  0
   -1.6511    0.8490    0.9283 H   0  0  0  0  0  0  0  0  0  0  0  0
   -2.0003    2.1189   -0.2650 H   0  0  0  0  0  0  0  0  0  0  0  0
  1  2  2  0
  2  3  1  0
  3  4  1  0
  4  5  1  0
  5  6  1  0
  6  7  1  0
  7  8  1  0
  8  2  1  0
  3  9  1  0
  3 10  1  0
  4 11  1  0
  4 12  1  0
  5 13  1  0
  5 14  1  0
  7 15  1  0
  7 16  1  0
M  END
