
     RDKit          3D

 19 19  0  0  0  0  0  0  0  0999 V2000
   -2.5622   -1.8983   -0.3060 O   0  0  0  0  0  0  0  0  0  0  0  0
   -1.5738   -1.2083    0.0363 C   0  0  0  0  0  0  0  0  0  0  0  0
   -1.8863    0.2178    0.2923 C   0  0  0  0  0  0  0  0  0  0  0  0
   -0.8956    1.0184   -0.5642 C   0  0  0  0  0  0  0  0  0  0  0  0
    0.4417    1.0568    0.0919 C   0  0  0  0  0  0  0  0  0  0  0  0
    1.3298   -0.0917   -0.2474 C   0  0  0  0  0  0  0  0  0  0  0  0
    2.6222    0.2166    0.2280 O   0  0  0  0  0  0  0  0  0  0  0  0
    0.9525   -1.3826    0.4132 C   0  0  0  0  0  0  0  0  0  0  0  0
   -0.3547   -1.8040    0.1380 O   0  0  0  0  0  0  0  0  0  0  0  0
   -1.6436    0.4985    1.3497 H   0  0  0  0  0  0  0  0  0  0  0  0
   -2.9268    0.4752    0.0534 H   0  0  0  0  0  0  0  0  0  0  0  0
   -1.3001    2.0540   -0.5976 H   0  0  0  0  0  0  0  0  0  0  0  0
   -0.8674    0.6350   -1.6000 H   0  0  0  0  0  0  0  0  0  0  0  0
    0.9581    1.9909   -0.2494 H   0  0  0  0  0  0  0  0  0  0  0  0
    0.3325    1.1281    1.1841 H   0  0  0  0  0  0  0  0  0  0  0  0
    1.4379   -0.2314   -1.3367 H   0  0  0  0  0  0  0  0  0  0  0  0
    3.1075    0.8050   -0.3762 H   0  0  0  0  0  0  0  0  0  0  0  0
    1.1868   -1.3184    1.4931 H   0  0  0  0  0  0  0  0  0  0  0  0
    1.6417   -2.1617   -0.0027 H   0  0  0  0  0  0  0  0  0  0  0  0
  1  2  2  0
  2  3  1  0
  3  4  1  0
  4  5  1  0
  5  6  1  0
  6  7  1  0
  6  8  1  0
  8  9  1  0
  9  2  1  0
  3 10  1  0
  3 11  1  0
  4 12  1  0
  4 13  1  0
  5 14  1  0
  5 15  1  0
  6 16  1  0
  7 17  1  0
  8 18  1  0
  8 19  1  0
M  END
