
     RDKit          3D

 15 17  0  0  0  0  0  0  0  0999 V2000
    3.0976   -0.2031   -0.3054 O   0  0  0  0  0  0  0  0  0  0  0  0
    1.9045   -0.1116   -0.1269 C   0  0  0  0  0  0  0  0  0  0  0  0
    1.2372    1.1007    0.4138 C   0  0  0  0  0  0  0  0  0  0  0  0
   -0.0526    0.9461    0.3272 C   0  0  0  0  0  0  0  0  0  0  0  0
   -1.5002    0.9725    0.3261 C   0  0  0  0  0  0  0  0  0  0  0  0
   -1.8316   -0.3467    0.2411 C   0  0  0  0  0  0  0  0  0  0  0  0
   -0.5560   -1.1672    0.1975 C   0  0  0  0  0  0  0  0  0  0  0  0
    0.7573   -1.0982   -0.3631 C   0  0  0  0  0  0  0  0  0  0  0  0
   -0.0654   -0.1557   -0.8318 C   0  0  0  0  0  0  0  0  0  0  0  0
    1.6281    2.0111    0.8295 H   0  0  0  0  0  0  0  0  0  0  0  0
   -2.0348    1.8812    0.4197 H   0  0  0  0  0  0  0  0  0  0  0  0
   -2.8400   -0.6466    0.2135 H   0  0  0  0  0  0  0  0  0  0  0  0
   -0.3335   -1.2024    1.2786 H   0  0  0  0  0  0  0  0  0  0  0  0
    1.1254   -1.9982   -0.8932 H   0  0  0  0  0  0  0  0  0  0  0  0
   -0.5360    0.0180   -1.7267 H   0  0  0  0  0  0  0  0  0  0  0  0
  1  2  2  0
  2  3  1  0
  3  4  2  0
  4  5  1  0
  5  6  2  0
  6  7  1  0
  7  8  1  0
  8  9  1  0
  8  2  1  0
  9  4  1  0
  9  7  1  0
  3 10  1  0
  5 11  1  0
  6 12  1  0
  7 13  1  0
  8 14  1  0
  9 15  1  0
M  END
