
     RDKit          3D

 17 18  0  0  0  0  0  0  0  0999 V2000
    2.8349    1.3489    0.1667 O   0  0  0  0  0  0  0  0  0  0  0  0
    1.8900    0.5423   -0.0173 C   0  0  0  0  0  0  0  0  0  0  0  0
    1.7147   -0.8205    0.4864 C   0  0  0  0  0  0  0  0  0  0  0  0
    0.4490   -1.1787    0.4270 C   0  0  0  0  0  0  0  0  0  0  0  0
   -0.3164   -0.0903   -0.1176 C   0  0  0  0  0  0  0  0  0  0  0  0
   -1.1978    0.5593    0.9186 C   0  0  0  0  0  0  0  0  0  0  0  0
   -2.0830    0.8505   -0.0999 O   0  0  0  0  0  0  0  0  0  0  0  0
   -1.6481   -0.3385   -0.7259 C   0  0  0  0  0  0  0  0  0  0  0  0
    0.6427    0.7730   -0.8343 C   0  0  0  0  0  0  0  0  0  0  0  0
    2.5868   -1.3884    0.8453 H   0  0  0  0  0  0  0  0  0  0  0  0
    0.0872   -2.1378    0.7438 H   0  0  0  0  0  0  0  0  0  0  0  0
   -0.7684    1.4043    1.4639 H   0  0  0  0  0  0  0  0  0  0  0  0
   -1.6233   -0.2199    1.5872 H   0  0  0  0  0  0  0  0  0  0  0  0
   -2.1568   -1.1874   -0.2611 H   0  0  0  0  0  0  0  0  0  0  0  0
   -1.6267   -0.2905   -1.8187 H   0  0  0  0  0  0  0  0  0  0  0  0
    0.3983    1.8302   -0.9043 H   0  0  0  0  0  0  0  0  0  0  0  0
    0.8170    0.3435   -1.8598 H   0  0  0  0  0  0  0  0  0  0  0  0
  1  2  2  0
  2  3  1  0
  3  4  2  0
  4  5  1  0
  5  6  1  0
  6  7  1  0
  7  8  1  0
  5  9  1  0
  9  2  1  0
  8  5  1  0
  3 10  1  0
  4 11  1  0
  6 12  1  0
  6 13  1  0
  8 14  1  0
  8 15  1  0
  9 16  1  0
  9 17  1  0
M  END
