
     RDKit          3D

 19 21  0  0  0  0  0  0  0  0999 V2000
    0.4343    0.8975   -2.4731 O   0  0  0  0  0  0  0  0  0  0  0  0
    0.6615    0.3300   -1.4068 C   0  0  0  0  0  0  0  0  0  0  0  0
    1.8177   -0.2919   -0.7715 C   0  0  0  0  0  0  0  0  0  0  0  0
    2.1955   -0.0786    0.6334 C   0  0  0  0  0  0  0  0  0  0  0  0
    0.8854   -0.7900    0.3772 C   0  0  0  0  0  0  0  0  0  0  0  0
   -0.1717    0.0159   -0.2531 C   0  0  0  0  0  0  0  0  0  0  0  0
   -1.5065   -0.5766   -0.4725 C   0  0  0  0  0  0  0  0  0  0  0  0
   -2.0127    0.2646    0.7076 C   0  0  0  0  0  0  0  0  0  0  0  0
   -0.7766    1.1392    0.5022 C   0  0  0  0  0  0  0  0  0  0  0  0
    2.3360   -1.0747   -1.3492 H   0  0  0  0  0  0  0  0  0  0  0  0
    2.9821   -0.7501    1.0309 H   0  0  0  0  0  0  0  0  0  0  0  0
    2.0927    0.8712    1.1565 H   0  0  0  0  0  0  0  0  0  0  0  0
    0.8077   -1.8761    0.4956 H   0  0  0  0  0  0  0  0  0  0  0  0
   -1.9969   -0.3187   -1.4224 H   0  0  0  0  0  0  0  0  0  0  0  0
   -1.5530   -1.6488   -0.1873 H   0  0  0  0  0  0  0  0  0  0  0  0
   -1.9175   -0.2723    1.6794 H   0  0  0  0  0  0  0  0  0  0  0  0
   -2.9666    0.7532    0.5091 H   0  0  0  0  0  0  0  0  0  0  0  0
   -1.0526    1.9871   -0.1768 H   0  0  0  0  0  0  0  0  0  0  0  0
   -0.2588    1.4192    1.4208 H   0  0  0  0  0  0  0  0  0  0  0  0
  1  2  2  0
  2  3  1  0
  3  4  1  0
  4  5  1  0
  5  6  1  0
  6  7  1  0
  7  8  1  0
  8  9  1  0
  6  2  1  0
  5  3  1  0
  9  6  1  0
  3 10  1  0
  4 11  1  0
  4 12  1  0
  5 13  1  0
  7 14  1  0
  7 15  1  0
  8 16  1  0
  8 17  1  0
  9 18  1  0
  9 19  1  0
M  END
