
     RDKit          3D

 21 22  0  0  0  0  0  0  0  0999 V2000
   -1.1819    1.3009   -2.0522 O   0  0  0  0  0  0  0  0  0  0  0  0
   -1.0691    0.6885   -1.0269 C   0  0  0  0  0  0  0  0  0  0  0  0
   -1.4689   -0.7240   -0.8225 C   0  0  0  0  0  0  0  0  0  0  0  0
   -0.5250   -1.1285    0.3188 C   0  0  0  0  0  0  0  0  0  0  0  0
    0.8563   -1.1705   -0.2291 C   0  0  0  0  0  0  0  0  0  0  0  0
    1.6936    0.0204    0.0505 C   0  0  0  0  0  0  0  0  0  0  0  0
    0.9787    1.3204    0.0962 C   0  0  0  0  0  0  0  0  0  0  0  0
   -0.5121    1.1961    0.2523 C   0  0  0  0  0  0  0  0  0  0  0  0
   -0.7500    0.0632    1.2582 C   0  0  0  0  0  0  0  0  0  0  0  0
   -1.3482   -1.3595   -1.6925 H   0  0  0  0  0  0  0  0  0  0  0  0
   -2.5021   -0.7128   -0.3989 H   0  0  0  0  0  0  0  0  0  0  0  0
   -0.8375   -2.0719    0.7674 H   0  0  0  0  0  0  0  0  0  0  0  0
    0.8080   -1.3634   -1.3377 H   0  0  0  0  0  0  0  0  0  0  0  0
    1.3649   -2.0861    0.1830 H   0  0  0  0  0  0  0  0  0  0  0  0
    2.3105   -0.1693    0.9768 H   0  0  0  0  0  0  0  0  0  0  0  0
    2.4635    0.0924   -0.7733 H   0  0  0  0  0  0  0  0  0  0  0  0
    1.3436    1.8730    1.0105 H   0  0  0  0  0  0  0  0  0  0  0  0
    1.1770    1.9756   -0.7798 H   0  0  0  0  0  0  0  0  0  0  0  0
   -0.9559    2.1330    0.5823 H   0  0  0  0  0  0  0  0  0  0  0  0
   -1.8074    0.0327    1.5403 H   0  0  0  0  0  0  0  0  0  0  0  0
   -0.0379    0.0898    2.0767 H   0  0  0  0  0  0  0  0  0  0  0  0
  1  2  2  0
  2  3  1  0
  3  4  1  0
  4  5  1  0
  5  6  1  0
  6  7  1  0
  7  8  1  0
  8  9  1  0
  8  2  1  0
  9  4  1  0
  3 10  1  0
  3 11  1  0
  4 12  1  0
  5 13  1  0
  5 14  1  0
  6 15  1  0
  6 16  1  0
  7 17  1  0
  7 18  1  0
  8 19  1  0
  9 20  1  0
  9 21  1  0
M  END
