
     RDKit          3D

 17 18  0  0  0  0  0  0  0  0999 V2000
   -1.8085   -1.7946   -0.5436 O   0  0  0  0  0  0  0  0  0  0  0  0
   -1.2145   -0.8275   -0.0980 C   0  0  0  0  0  0  0  0  0  0  0  0
   -1.4571    0.4815   -0.7951 C   0  0  0  0  0  0  0  0  0  0  0  0
   -0.3811    1.3957   -0.3575 C   0  0  0  0  0  0  0  0  0  0  0  0
   -0.6653    2.5798   -0.2796 O   0  0  0  0  0  0  0  0  0  0  0  0
    0.9809    0.9447   -0.0219 C   0  0  0  0  0  0  0  0  0  0  0  0
    1.5397   -0.3178   -0.5548 C   0  0  0  0  0  0  0  0  0  0  0  0
    1.0294   -0.2656    0.8305 C   0  0  0  0  0  0  0  0  0  0  0  0
   -0.2995   -0.9253    1.0684 C   0  0  0  0  0  0  0  0  0  0  0  0
   -1.3781    0.2788   -1.8755 H   0  0  0  0  0  0  0  0  0  0  0  0
   -2.4756    0.8384   -0.4975 H   0  0  0  0  0  0  0  0  0  0  0  0
    1.7287    1.7380    0.1835 H   0  0  0  0  0  0  0  0  0  0  0  0
    0.9820   -0.9299   -1.3002 H   0  0  0  0  0  0  0  0  0  0  0  0
    2.6374   -0.4080   -0.6824 H   0  0  0  0  0  0  0  0  0  0  0  0
    1.6812   -0.2270    1.7059 H   0  0  0  0  0  0  0  0  0  0  0  0
   -0.7957   -0.5549    1.9896 H   0  0  0  0  0  0  0  0  0  0  0  0
   -0.1041   -2.0062    1.2284 H   0  0  0  0  0  0  0  0  0  0  0  0
  1  2  2  0
  2  3  1  0
  3  4  1  0
  4  5  2  0
  4  6  1  0
  6  7  1  0
  7  8  1  0
  8  9  1  0
  9  2  1  0
  8  6  1  0
  3 10  1  0
  3 11  1  0
  6 12  1  0
  7 13  1  0
  7 14  1  0
  8 15  1  0
  9 16  1  0
  9 17  1  0
M  END
