
     RDKit          3D

 17 18  0  0  0  0  0  0  0  0999 V2000
    0.8764   -2.2728    1.0673 O   0  0  0  0  0  0  0  0  0  0  0  0
    0.4447   -1.2462    0.6638 C   0  0  0  0  0  0  0  0  0  0  0  0
   -0.9082   -0.9929    0.1346 C   0  0  0  0  0  0  0  0  0  0  0  0
   -1.2354    0.3982    0.6339 C   0  0  0  0  0  0  0  0  0  0  0  0
   -0.0093    0.7871   -0.2043 C   0  0  0  0  0  0  0  0  0  0  0  0
    0.1257    2.0312   -0.6144 O   0  0  0  0  0  0  0  0  0  0  0  0
   -0.5287   -0.2797   -1.1753 C   0  0  0  0  0  0  0  0  0  0  0  0
    1.0910    0.0820    0.5568 C   0  0  0  0  0  0  0  0  0  0  0  0
    2.2571    0.0815   -0.1616 O   0  0  0  0  0  0  0  0  0  0  0  0
   -1.6432   -1.7357    0.1028 H   0  0  0  0  0  0  0  0  0  0  0  0
   -2.1209    0.8512    0.1755 H   0  0  0  0  0  0  0  0  0  0  0  0
   -1.0767    0.5305    1.7026 H   0  0  0  0  0  0  0  0  0  0  0  0
   -0.3075    2.2587   -1.4486 H   0  0  0  0  0  0  0  0  0  0  0  0
    0.2539   -0.8807   -1.6542 H   0  0  0  0  0  0  0  0  0  0  0  0
   -1.3842    0.0335   -1.7667 H   0  0  0  0  0  0  0  0  0  0  0  0
    1.1758    0.5949    1.5374 H   0  0  0  0  0  0  0  0  0  0  0  0
    2.9897   -0.2409    0.4501 H   0  0  0  0  0  0  0  0  0  0  0  0
  1  2  2  0
  2  3  1  0
  3  4  1  0
  4  5  1  0
  5  6  1  0
  5  7  1  0
  5  8  1  0
  8  9  1  0
  8  2  1  0
  7  3  1  0
  3 10  1  0
  4 11  1  0
  4 12  1  0
  6 13  1  0
  7 14  1  0
  7 15  1  0
  8 16  1  0
  9 17  1  0
M  END
