
     RDKit          3D

 15 16  0  0  0  0  0  0  0  0999 V2000
    1.5221   -0.1079    2.0105 O   0  0  0  0  0  0  0  0  0  0  0  0
    1.2470   -0.0125    0.8494 C   0  0  0  0  0  0  0  0  0  0  0  0
    2.0649    0.0907   -0.3764 C   0  0  0  0  0  0  0  0  0  0  0  0
    0.9311    0.3358   -1.1700 O   0  0  0  0  0  0  0  0  0  0  0  0
    0.1541    0.0611   -0.0687 C   0  0  0  0  0  0  0  0  0  0  0  0
   -0.9399   -0.9104   -0.0606 C   0  0  0  0  0  0  0  0  0  0  0  0
   -1.2422   -1.5340   -1.2452 O   0  0  0  0  0  0  0  0  0  0  0  0
   -1.1846    0.5497    0.1473 C   0  0  0  0  0  0  0  0  0  0  0  0
   -1.5239    1.0374    1.3879 O   0  0  0  0  0  0  0  0  0  0  0  0
    2.5085   -0.8859   -0.7328 H   0  0  0  0  0  0  0  0  0  0  0  0
    2.8001    0.9036   -0.3424 H   0  0  0  0  0  0  0  0  0  0  0  0
   -1.0430   -1.5799    0.8356 H   0  0  0  0  0  0  0  0  0  0  0  0
   -1.8236   -1.0020   -1.8291 H   0  0  0  0  0  0  0  0  0  0  0  0
   -1.6903    1.0664   -0.7071 H   0  0  0  0  0  0  0  0  0  0  0  0
   -1.7804    1.9879    1.3015 H   0  0  0  0  0  0  0  0  0  0  0  0
  1  2  2  0
  2  3  1  0
  3  4  1  0
  4  5  1  0
  5  6  1  0
  6  7  1  0
  6  8  1  0
  8  9  1  0
  5  2  1  0
  8  5  1  0
  3 10  1  0
  3 11  1  0
  6 12  1  0
  7 13  1  0
  8 14  1  0
  9 15  1  0
M  END
