
     RDKit          3D

 19 20  0  0  0  0  0  0  0  0999 V2000
   -2.7376    1.8373   -0.1446 O   0  0  0  0  0  0  0  0  0  0  0  0
   -1.7492    1.0909    0.0491 C   0  0  0  0  0  0  0  0  0  0  0  0
   -0.4232    1.6614    0.1730 C   0  0  0  0  0  0  0  0  0  0  0  0
    0.6162    0.8990   -0.0900 C   0  0  0  0  0  0  0  0  0  0  0  0
    2.0727    0.6294   -0.2207 C   0  0  0  0  0  0  0  0  0  0  0  0
    1.7727   -0.8286    0.0542 C   0  0  0  0  0  0  0  0  0  0  0  0
    0.3811   -0.5101   -0.5013 C   0  0  0  0  0  0  0  0  0  0  0  0
   -0.7374   -1.1583    0.2801 C   0  0  0  0  0  0  0  0  0  0  0  0
   -2.0057   -0.3716    0.1421 C   0  0  0  0  0  0  0  0  0  0  0  0
   -0.2627    2.6936    0.4747 H   0  0  0  0  0  0  0  0  0  0  0  0
    2.7135    1.1159    0.5360 H   0  0  0  0  0  0  0  0  0  0  0  0
    2.4889    0.8119   -1.2397 H   0  0  0  0  0  0  0  0  0  0  0  0
    2.2890   -1.5601   -0.5615 H   0  0  0  0  0  0  0  0  0  0  0  0
    1.7200   -1.0239    1.1385 H   0  0  0  0  0  0  0  0  0  0  0  0
    0.3197   -0.5970   -1.5921 H   0  0  0  0  0  0  0  0  0  0  0  0
   -0.3845   -1.2555    1.3273 H   0  0  0  0  0  0  0  0  0  0  0  0
   -0.8533   -2.1820   -0.1087 H   0  0  0  0  0  0  0  0  0  0  0  0
   -2.5569   -0.7283   -0.7451 H   0  0  0  0  0  0  0  0  0  0  0  0
   -2.6633   -0.5240    1.0289 H   0  0  0  0  0  0  0  0  0  0  0  0
  1  2  2  0
  2  3  1  0
  3  4  2  0
  4  5  1  0
  5  6  1  0
  6  7  1  0
  7  8  1  0
  8  9  1  0
  9  2  1  0
  7  4  1  0
  3 10  1  0
  5 11  1  0
  5 12  1  0
  6 13  1  0
  6 14  1  0
  7 15  1  0
  8 16  1  0
  8 17  1  0
  9 18  1  0
  9 19  1  0
M  END
