
     RDKit          3D

 17 18  0  0  0  0  0  0  0  0999 V2000
    0.7458   -2.4008    0.6902 O   0  0  0  0  0  0  0  0  0  0  0  0
    0.3982   -1.4003    0.1017 C   0  0  0  0  0  0  0  0  0  0  0  0
   -0.9177   -1.0018   -0.4118 C   0  0  0  0  0  0  0  0  0  0  0  0
   -1.5810    0.0487    0.4838 C   0  0  0  0  0  0  0  0  0  0  0  0
   -0.5366    1.1562    0.4117 C   0  0  0  0  0  0  0  0  0  0  0  0
    0.2936    0.7213   -0.7654 C   0  0  0  0  0  0  0  0  0  0  0  0
   -0.5362   -0.1601   -1.4860 O   0  0  0  0  0  0  0  0  0  0  0  0
    1.3204   -0.2827   -0.2450 C   0  0  0  0  0  0  0  0  0  0  0  0
    1.9480    0.2643    0.8398 O   0  0  0  0  0  0  0  0  0  0  0  0
   -1.5808   -1.7963   -0.7073 H   0  0  0  0  0  0  0  0  0  0  0  0
   -1.7566   -0.3123    1.4952 H   0  0  0  0  0  0  0  0  0  0  0  0
   -2.4633    0.4006   -0.0606 H   0  0  0  0  0  0  0  0  0  0  0  0
   -0.9701    2.1320    0.1837 H   0  0  0  0  0  0  0  0  0  0  0  0
    0.0514    1.1431    1.3582 H   0  0  0  0  0  0  0  0  0  0  0  0
    0.7154    1.5116   -1.3576 H   0  0  0  0  0  0  0  0  0  0  0  0
    1.9921   -0.5476   -1.0815 H   0  0  0  0  0  0  0  0  0  0  0  0
    2.8776    0.5242    0.5508 H   0  0  0  0  0  0  0  0  0  0  0  0
  1  2  2  0
  2  3  1  0
  3  4  1  0
  4  5  1  0
  5  6  1  0
  6  7  1  0
  6  8  1  0
  8  9  1  0
  8  2  1  0
  7  3  1  0
  3 10  1  0
  4 11  1  0
  4 12  1  0
  5 13  1  0
  5 14  1  0
  6 15  1  0
  8 16  1  0
  9 17  1  0
M  END
