
     RDKit          3D

 15 17  0  0  0  0  0  0  0  0999 V2000
   -1.6798    1.1946   -1.6001 O   0  0  0  0  0  0  0  0  0  0  0  0
   -1.0317    0.6704   -0.7301 C   0  0  0  0  0  0  0  0  0  0  0  0
   -0.1866    1.3172    0.2788 C   0  0  0  0  0  0  0  0  0  0  0  0
    1.2281    1.0055   -0.0887 C   0  0  0  0  0  0  0  0  0  0  0  0
    1.5034   -0.2855   -0.2267 C   0  0  0  0  0  0  0  0  0  0  0  0
    0.3789   -1.2355    0.0037 C   0  0  0  0  0  0  0  0  0  0  0  0
   -0.5812   -0.7726    1.0092 C   0  0  0  0  0  0  0  0  0  0  0  0
   -0.4583    0.5379    1.4092 O   0  0  0  0  0  0  0  0  0  0  0  0
   -0.9371   -0.7703   -0.4746 C   0  0  0  0  0  0  0  0  0  0  0  0
   -0.3772    2.3655    0.4646 H   0  0  0  0  0  0  0  0  0  0  0  0
    1.9193    1.8205   -0.2160 H   0  0  0  0  0  0  0  0  0  0  0  0
    2.5142   -0.6211   -0.4976 H   0  0  0  0  0  0  0  0  0  0  0  0
    0.5964   -2.3039   -0.0829 H   0  0  0  0  0  0  0  0  0  0  0  0
   -1.2088   -1.4482    1.6017 H   0  0  0  0  0  0  0  0  0  0  0  0
   -1.6796   -1.4746   -0.8506 H   0  0  0  0  0  0  0  0  0  0  0  0
  1  2  2  0
  2  3  1  0
  3  4  1  0
  4  5  2  0
  5  6  1  0
  6  7  1  0
  7  8  1  0
  7  9  1  0
  9  2  1  0
  8  3  1  0
  9  6  1  0
  3 10  1  0
  4 11  1  0
  5 12  1  0
  6 13  1  0
  7 14  1  0
  9 15  1  0
M  END
