
     RDKit          3D

 21 22  0  0  0  0  0  0  0  0999 V2000
    2.5873    0.9459   -0.6662 O   0  0  0  0  0  0  0  0  0  0  0  0
    1.4930    0.4724   -0.4838 C   0  0  0  0  0  0  0  0  0  0  0  0
    1.3341   -1.0069   -0.3998 C   0  0  0  0  0  0  0  0  0  0  0  0
   -0.0110   -1.2143    0.3125 C   0  0  0  0  0  0  0  0  0  0  0  0
   -1.0960   -0.7812   -0.6603 C   0  0  0  0  0  0  0  0  0  0  0  0
   -0.8095    0.5789   -1.2159 C   0  0  0  0  0  0  0  0  0  0  0  0
    0.2400    1.2642   -0.3292 C   0  0  0  0  0  0  0  0  0  0  0  0
   -0.3160    1.1445    1.0877 C   0  0  0  0  0  0  0  0  0  0  0  0
   -0.1048   -0.2894    1.5178 C   0  0  0  0  0  0  0  0  0  0  0  0
    2.1507   -1.5033    0.1303 H   0  0  0  0  0  0  0  0  0  0  0  0
    1.1968   -1.3751   -1.4333 H   0  0  0  0  0  0  0  0  0  0  0  0
   -0.1329   -2.2378    0.6532 H   0  0  0  0  0  0  0  0  0  0  0  0
   -1.2224   -1.5370   -1.4613 H   0  0  0  0  0  0  0  0  0  0  0  0
   -2.0523   -0.7677   -0.0592 H   0  0  0  0  0  0  0  0  0  0  0  0
   -0.4011    0.5555   -2.2459 H   0  0  0  0  0  0  0  0  0  0  0  0
   -1.7205    1.2106   -1.1346 H   0  0  0  0  0  0  0  0  0  0  0  0
    0.3513    2.3027   -0.6443 H   0  0  0  0  0  0  0  0  0  0  0  0
    0.1010    1.8816    1.7690 H   0  0  0  0  0  0  0  0  0  0  0  0
   -1.4304    1.3128    1.0287 H   0  0  0  0  0  0  0  0  0  0  0  0
   -0.9771   -0.6282    2.1043 H   0  0  0  0  0  0  0  0  0  0  0  0
    0.8197   -0.3281    2.1305 H   0  0  0  0  0  0  0  0  0  0  0  0
  1  2  2  0
  2  3  1  0
  3  4  1  0
  4  5  1  0
  5  6  1  0
  6  7  1  0
  7  8  1  0
  8  9  1  0
  7  2  1  0
  9  4  1  0
  3 10  1  0
  3 11  1  0
  4 12  1  0
  5 13  1  0
  5 14  1  0
  6 15  1  0
  6 16  1  0
  7 17  1  0
  8 18  1  0
  8 19  1  0
  9 20  1  0
  9 21  1  0
M  END
