
     RDKit          3D

 17 18  0  0  0  0  0  0  0  0999 V2000
   -0.5957    2.6858    0.3098 O   0  0  0  0  0  0  0  0  0  0  0  0
   -0.4733    1.5114    0.0136 C   0  0  0  0  0  0  0  0  0  0  0  0
    0.8639    0.9702   -0.2379 C   0  0  0  0  0  0  0  0  0  0  0  0
    1.0764   -0.4207    0.2498 C   0  0  0  0  0  0  0  0  0  0  0  0
    2.0715   -0.9871   -0.5747 O   0  0  0  0  0  0  0  0  0  0  0  0
   -0.1069   -1.2950    0.2847 C   0  0  0  0  0  0  0  0  0  0  0  0
   -1.4310   -0.6776    0.2663 C   0  0  0  0  0  0  0  0  0  0  0  0
   -1.7873   -0.2573   -1.1185 O   0  0  0  0  0  0  0  0  0  0  0  0
   -1.6508    0.6565   -0.0885 C   0  0  0  0  0  0  0  0  0  0  0  0
    1.6650    1.6200    0.1970 H   0  0  0  0  0  0  0  0  0  0  0  0
    1.0455    1.0146   -1.3492 H   0  0  0  0  0  0  0  0  0  0  0  0
    1.5645   -0.3617    1.2676 H   0  0  0  0  0  0  0  0  0  0  0  0
    2.7356   -0.2975   -0.7766 H   0  0  0  0  0  0  0  0  0  0  0  0
   -0.0502   -2.0343   -0.5694 H   0  0  0  0  0  0  0  0  0  0  0  0
   -0.0313   -1.9569    1.1991 H   0  0  0  0  0  0  0  0  0  0  0  0
   -2.2573   -1.2893    0.7284 H   0  0  0  0  0  0  0  0  0  0  0  0
   -2.6387    1.1187    0.1988 H   0  0  0  0  0  0  0  0  0  0  0  0
  1  2  2  0
  2  3  1  0
  3  4  1  0
  4  5  1  0
  4  6  1  0
  6  7  1  0
  7  8  1  0
  8  9  1  0
  9  2  1  0
  9  7  1  0
  3 10  1  0
  3 11  1  0
  4 12  1  0
  5 13  1  0
  6 14  1  0
  6 15  1  0
  7 16  1  0
  9 17  1  0
M  END
