
     RDKit          3D

 19 20  0  0  0  0  0  0  0  0999 V2000
    1.8724   -2.0079    0.3274 O   0  0  0  0  0  0  0  0  0  0  0  0
    1.0788   -1.1065    0.1527 C   0  0  0  0  0  0  0  0  0  0  0  0
    1.5575    0.2596   -0.0500 C   0  0  0  0  0  0  0  0  0  0  0  0
    0.5356    1.3191    0.2894 C   0  0  0  0  0  0  0  0  0  0  0  0
   -0.8557    0.7969    0.0284 C   0  0  0  0  0  0  0  0  0  0  0  0
   -0.9030    0.1036   -1.2998 C   0  0  0  0  0  0  0  0  0  0  0  0
   -0.9657   -1.2648   -1.0703 O   0  0  0  0  0  0  0  0  0  0  0  0
   -0.3590   -1.4735    0.1589 C   0  0  0  0  0  0  0  0  0  0  0  0
   -1.0524   -0.3834    0.9911 C   0  0  0  0  0  0  0  0  0  0  0  0
    1.9192    0.3880   -1.1125 H   0  0  0  0  0  0  0  0  0  0  0  0
    2.4698    0.5046    0.5671 H   0  0  0  0  0  0  0  0  0  0  0  0
    0.5946    1.5888    1.3589 H   0  0  0  0  0  0  0  0  0  0  0  0
    0.6750    2.2277   -0.3136 H   0  0  0  0  0  0  0  0  0  0  0  0
   -1.6246    1.5478    0.1880 H   0  0  0  0  0  0  0  0  0  0  0  0
   -1.7785    0.4510   -1.9025 H   0  0  0  0  0  0  0  0  0  0  0  0
   -0.0031    0.2895   -1.9225 H   0  0  0  0  0  0  0  0  0  0  0  0
   -0.5492   -2.4666    0.5539 H   0  0  0  0  0  0  0  0  0  0  0  0
   -2.1165   -0.5954    1.1337 H   0  0  0  0  0  0  0  0  0  0  0  0
   -0.4951   -0.1785    1.9219 H   0  0  0  0  0  0  0  0  0  0  0  0
  1  2  2  0
  2  3  1  0
  3  4  1  0
  4  5  1  0
  5  6  1  0
  6  7  1  0
  7  8  1  0
  8  9  1  0
  8  2  1  0
  9  5  1  0
  3 10  1  0
  3 11  1  0
  4 12  1  0
  4 13  1  0
  5 14  1  0
  6 15  1  0
  6 16  1  0
  8 17  1  0
  9 18  1  0
  9 19  1  0
M  END
