
     RDKit          3D

 17 18  0  0  0  0  0  0  0  0999 V2000
   -1.5548   -2.9848    0.4781 O   0  0  0  0  0  0  0  0  0  0  0  0
   -0.7631   -2.0310    0.1622 C   0  0  0  0  0  0  0  0  0  0  0  0
    0.6169   -1.9295    0.0632 O   0  0  0  0  0  0  0  0  0  0  0  0
    0.5210   -0.7985   -0.7748 C   0  0  0  0  0  0  0  0  0  0  0  0
    1.4583    0.3149   -0.3838 C   0  0  0  0  0  0  0  0  0  0  0  0
    0.7722    1.6022   -0.2006 C   0  0  0  0  0  0  0  0  0  0  0  0
   -0.3922    1.6214    0.4323 C   0  0  0  0  0  0  0  0  0  0  0  0
   -0.9383    0.3273    0.9225 C   0  0  0  0  0  0  0  0  0  0  0  0
   -0.8640   -0.6273   -0.2388 C   0  0  0  0  0  0  0  0  0  0  0  0
    0.5581   -1.0171   -1.8611 H   0  0  0  0  0  0  0  0  0  0  0  0
    1.9989    0.0070    0.5365 H   0  0  0  0  0  0  0  0  0  0  0  0
    2.2174    0.4239   -1.1871 H   0  0  0  0  0  0  0  0  0  0  0  0
    1.2215    2.5221   -0.5825 H   0  0  0  0  0  0  0  0  0  0  0  0
   -0.9313    2.5536    0.5882 H   0  0  0  0  0  0  0  0  0  0  0  0
   -1.9827    0.4448    1.2717 H   0  0  0  0  0  0  0  0  0  0  0  0
   -0.3689   -0.0561    1.8052 H   0  0  0  0  0  0  0  0  0  0  0  0
   -1.5689   -0.3731   -1.0311 H   0  0  0  0  0  0  0  0  0  0  0  0
  1  2  2  0
  2  3  1  0
  3  4  1  0
  4  5  1  0
  5  6  1  0
  6  7  2  0
  7  8  1  0
  8  9  1  0
  9  2  1  0
  9  4  1  0
  4 10  1  0
  5 11  1  0
  5 12  1  0
  6 13  1  0
  7 14  1  0
  8 15  1  0
  8 16  1  0
  9 17  1  0
M  END
