
     RDKit          3D

 15 18  0  0  0  0  0  0  0  0999 V2000
    2.9372    0.5262   -0.1552 O   0  0  0  0  0  0  0  0  0  0  0  0
    1.6954    0.5814   -0.1048 C   0  0  0  0  0  0  0  0  0  0  0  0
    0.8904    1.3706   -0.9436 O   0  0  0  0  0  0  0  0  0  0  0  0
   -0.4631    0.9663   -0.7762 C   0  0  0  0  0  0  0  0  0  0  0  0
   -0.4553    0.6316    0.6966 C   0  0  0  0  0  0  0  0  0  0  0  0
    0.8457   -0.1538    0.8237 C   0  0  0  0  0  0  0  0  0  0  0  0
    0.0724   -1.2491    0.0597 C   0  0  0  0  0  0  0  0  0  0  0  0
   -0.6487   -0.5235   -1.0276 C   0  0  0  0  0  0  0  0  0  0  0  0
   -1.1433   -0.6088    0.4507 C   0  0  0  0  0  0  0  0  0  0  0  0
   -1.2204    1.6306   -1.1428 H   0  0  0  0  0  0  0  0  0  0  0  0
   -0.6919    1.3586    1.4141 H   0  0  0  0  0  0  0  0  0  0  0  0
    1.1810   -0.4054    1.8036 H   0  0  0  0  0  0  0  0  0  0  0  0
    0.3850   -2.2586    0.0486 H   0  0  0  0  0  0  0  0  0  0  0  0
   -1.2616   -0.9346   -1.7830 H   0  0  0  0  0  0  0  0  0  0  0  0
   -2.1229   -0.9314    0.6364 H   0  0  0  0  0  0  0  0  0  0  0  0
  1  2  2  0
  2  3  1  0
  3  4  1  0
  4  5  1  0
  5  6  1  0
  6  7  1  0
  7  8  1  0
  8  9  1  0
  6  2  1  0
  9  7  1  0
  8  4  1  0
  9  5  1  0
  4 10  1  0
  5 11  1  0
  6 12  1  0
  7 13  1  0
  8 14  1  0
  9 15  1  0
M  END
