
     RDKit          3D

 17 17  0  0  0  0  0  0  0  0999 V2000
   -0.0855   -2.1505   -1.0287 O   0  0  0  0  0  0  0  0  0  0  0  0
   -0.3266   -0.9756   -0.6380 C   0  0  0  0  0  0  0  0  0  0  0  0
    0.6564   -0.0293   -0.1608 C   0  0  0  0  0  0  0  0  0  0  0  0
    2.1646   -0.1461   -0.3334 C   0  0  0  0  0  0  0  0  0  0  0  0
    2.8013    0.9258    0.2405 O   0  0  0  0  0  0  0  0  0  0  0  0
    0.0752    0.9730    0.4579 C   0  0  0  0  0  0  0  0  0  0  0  0
   -1.3907    0.7936    0.4568 C   0  0  0  0  0  0  0  0  0  0  0  0
   -1.6380   -0.2695   -0.5642 C   0  0  0  0  0  0  0  0  0  0  0  0
   -2.5603   -1.2336   -0.1180 O   0  0  0  0  0  0  0  0  0  0  0  0
    2.3322   -0.2470   -1.4102 H   0  0  0  0  0  0  0  0  0  0  0  0
    2.5237   -1.0802    0.1502 H   0  0  0  0  0  0  0  0  0  0  0  0
    2.5598    0.9502    1.2014 H   0  0  0  0  0  0  0  0  0  0  0  0
    0.6120    1.8354    0.9179 H   0  0  0  0  0  0  0  0  0  0  0  0
   -1.9277    1.7402    0.2387 H   0  0  0  0  0  0  0  0  0  0  0  0
   -1.7552    0.4050    1.4468 H   0  0  0  0  0  0  0  0  0  0  0  0
   -1.9333    0.1939   -1.5112 H   0  0  0  0  0  0  0  0  0  0  0  0
   -2.1080   -1.6852    0.6543 H   0  0  0  0  0  0  0  0  0  0  0  0
  1  2  2  0
  2  3  1  0
  3  4  1  0
  4  5  1  0
  3  6  2  0
  6  7  1  0
  7  8  1  0
  8  9  1  0
  8  2  1  0
  4 10  1  0
  4 11  1  0
  5 12  1  0
  6 13  1  0
  7 14  1  0
  7 15  1  0
  8 16  1  0
  9 17  1  0
M  END
