
     RDKit          3D

 17 19  0  0  0  0  0  0  0  0999 V2000
   -2.3068    2.0461   -0.1051 O   0  0  0  0  0  0  0  0  0  0  0  0
   -1.5388    1.1089    0.1947 C   0  0  0  0  0  0  0  0  0  0  0  0
   -1.0578    0.7450    1.4533 O   0  0  0  0  0  0  0  0  0  0  0  0
   -0.2906   -0.4331    1.1520 C   0  0  0  0  0  0  0  0  0  0  0  0
   -1.2205   -1.1564    0.1616 C   0  0  0  0  0  0  0  0  0  0  0  0
   -0.9006    0.0963   -0.6798 C   0  0  0  0  0  0  0  0  0  0  0  0
    0.4412    0.0003   -0.0582 C   0  0  0  0  0  0  0  0  0  0  0  0
    1.4957    0.9785   -0.1079 C   0  0  0  0  0  0  0  0  0  0  0  0
    1.6442   -0.4919   -0.6178 C   0  0  0  0  0  0  0  0  0  0  0  0
    0.1382   -0.9842    1.9325 H   0  0  0  0  0  0  0  0  0  0  0  0
   -2.2531   -1.2312    0.4858 H   0  0  0  0  0  0  0  0  0  0  0  0
   -0.7294   -2.0416   -0.2406 H   0  0  0  0  0  0  0  0  0  0  0  0
   -1.0754    0.0660   -1.7075 H   0  0  0  0  0  0  0  0  0  0  0  0
    2.0399    1.1798    0.8602 H   0  0  0  0  0  0  0  0  0  0  0  0
    1.4753    1.7666   -0.8568 H   0  0  0  0  0  0  0  0  0  0  0  0
    2.4026   -1.1082   -0.1236 H   0  0  0  0  0  0  0  0  0  0  0  0
    1.7359   -0.5406   -1.7428 H   0  0  0  0  0  0  0  0  0  0  0  0
  1  2  2  0
  2  3  1  0
  3  4  1  0
  4  5  1  0
  5  6  1  0
  6  7  1  0
  7  8  1  0
  8  9  1  0
  6  2  1  0
  9  7  1  0
  7  4  1  0
  4 10  1  0
  5 11  1  0
  5 12  1  0
  6 13  1  0
  8 14  1  0
  8 15  1  0
  9 16  1  0
  9 17  1  0
M  END
