
     RDKit          3D

 17 18  0  0  0  0  0  0  0  0999 V2000
   -0.7595   -2.3128    0.6271 O   0  0  0  0  0  0  0  0  0  0  0  0
   -0.5859   -1.2657    0.0505 C   0  0  0  0  0  0  0  0  0  0  0  0
   -1.7794   -0.4032   -0.0284 C   0  0  0  0  0  0  0  0  0  0  0  0
   -1.2949    1.0153    0.0816 C   0  0  0  0  0  0  0  0  0  0  0  0
   -0.0802    1.5229   -0.0380 C   0  0  0  0  0  0  0  0  0  0  0  0
    1.1652    0.8547   -0.3981 C   0  0  0  0  0  0  0  0  0  0  0  0
    1.5477   -0.2531    0.5644 C   0  0  0  0  0  0  0  0  0  0  0  0
    0.7773   -1.0592   -0.4571 C   0  0  0  0  0  0  0  0  0  0  0  0
    0.8979   -0.0697   -1.4089 O   0  0  0  0  0  0  0  0  0  0  0  0
   -2.3231   -0.5629   -0.9791 H   0  0  0  0  0  0  0  0  0  0  0  0
   -2.4593   -0.5550    0.8451 H   0  0  0  0  0  0  0  0  0  0  0  0
   -2.1237    1.6982    0.2967 H   0  0  0  0  0  0  0  0  0  0  0  0
   -0.0163    2.5777    0.1610 H   0  0  0  0  0  0  0  0  0  0  0  0
    2.0374    1.4994   -0.5961 H   0  0  0  0  0  0  0  0  0  0  0  0
    2.6135   -0.5287    0.5392 H   0  0  0  0  0  0  0  0  0  0  0  0
    1.0835   -0.1832    1.5524 H   0  0  0  0  0  0  0  0  0  0  0  0
    1.2998   -1.9747   -0.8122 H   0  0  0  0  0  0  0  0  0  0  0  0
  1  2  2  0
  2  3  1  0
  3  4  1  0
  4  5  2  0
  5  6  1  0
  6  7  1  0
  7  8  1  0
  8  9  1  0
  8  2  1  0
  9  6  1  0
  3 10  1  0
  3 11  1  0
  4 12  1  0
  5 13  1  0
  6 14  1  0
  7 15  1  0
  7 16  1  0
  8 17  1  0
M  END
