
     RDKit          3D

 17 18  0  0  0  0  0  0  0  0999 V2000
   -3.1143   -0.1509   -0.5203 O   0  0  0  0  0  0  0  0  0  0  0  0
   -1.9957   -0.0079   -0.0699 C   0  0  0  0  0  0  0  0  0  0  0  0
   -1.2132    1.2433   -0.0473 C   0  0  0  0  0  0  0  0  0  0  0  0
    0.1772    0.7039   -0.2608 C   0  0  0  0  0  0  0  0  0  0  0  0
    1.3764    0.8266   -0.7896 C   0  0  0  0  0  0  0  0  0  0  0  0
    2.1833   -0.3894   -0.3873 C   0  0  0  0  0  0  0  0  0  0  0  0
    1.1189   -1.3230   -0.2157 O   0  0  0  0  0  0  0  0  0  0  0  0
    0.2175   -0.5855    0.5046 C   0  0  0  0  0  0  0  0  0  0  0  0
   -1.1816   -1.0645    0.5530 C   0  0  0  0  0  0  0  0  0  0  0  0
   -1.2158    1.7745    0.8990 H   0  0  0  0  0  0  0  0  0  0  0  0
   -1.4990    1.9419   -0.8571 H   0  0  0  0  0  0  0  0  0  0  0  0
    1.6855    1.6621   -1.3951 H   0  0  0  0  0  0  0  0  0  0  0  0
    2.6809   -0.2571    0.5702 H   0  0  0  0  0  0  0  0  0  0  0  0
    2.8406   -0.7303   -1.1857 H   0  0  0  0  0  0  0  0  0  0  0  0
    0.6707   -0.4310    1.5125 H   0  0  0  0  0  0  0  0  0  0  0  0
   -1.2772   -2.0466    0.0414 H   0  0  0  0  0  0  0  0  0  0  0  0
   -1.4541   -1.1660    1.6480 H   0  0  0  0  0  0  0  0  0  0  0  0
  1  2  2  0
  2  3  1  0
  3  4  1  0
  4  5  2  0
  5  6  1  0
  6  7  1  0
  7  8  1  0
  8  9  1  0
  9  2  1  0
  8  4  1  0
  3 10  1  0
  3 11  1  0
  5 12  1  0
  6 13  1  0
  6 14  1  0
  8 15  1  0
  9 16  1  0
  9 17  1  0
M  END
