
     RDKit          3D

 15 16  0  0  0  0  0  0  0  0999 V2000
   -1.1117    0.9386    1.9966 O   0  0  0  0  0  0  0  0  0  0  0  0
   -0.6844    0.7331    0.9005 C   0  0  0  0  0  0  0  0  0  0  0  0
   -1.4508    0.3019   -0.3490 C   0  0  0  0  0  0  0  0  0  0  0  0
   -2.7095   -0.1287   -0.0626 O   0  0  0  0  0  0  0  0  0  0  0  0
   -0.5152   -0.7953   -0.7824 C   0  0  0  0  0  0  0  0  0  0  0  0
    0.7034   -0.5543   -0.3512 C   0  0  0  0  0  0  0  0  0  0  0  0
    2.1491   -0.4491    0.0534 C   0  0  0  0  0  0  0  0  0  0  0  0
    1.7571    0.4576    1.1015 O   0  0  0  0  0  0  0  0  0  0  0  0
    0.6840    0.8104    0.3465 C   0  0  0  0  0  0  0  0  0  0  0  0
   -1.3831    1.1481   -1.0275 H   0  0  0  0  0  0  0  0  0  0  0  0
   -2.7830   -1.0763    0.1544 H   0  0  0  0  0  0  0  0  0  0  0  0
   -0.7823   -1.6590   -1.3604 H   0  0  0  0  0  0  0  0  0  0  0  0
    2.7451    0.0180   -0.7255 H   0  0  0  0  0  0  0  0  0  0  0  0
    2.5710   -1.3779    0.4866 H   0  0  0  0  0  0  0  0  0  0  0  0
    0.8103    1.6330   -0.3809 H   0  0  0  0  0  0  0  0  0  0  0  0
  1  2  2  0
  2  3  1  0
  3  4  1  0
  3  5  1  0
  5  6  2  0
  6  7  1  0
  7  8  1  0
  8  9  1  0
  9  2  1  0
  9  6  1  0
  3 10  1  0
  4 11  1  0
  5 12  1  0
  7 13  1  0
  7 14  1  0
  9 15  1  0
M  END
