
     RDKit          3D

 17 18  0  0  0  0  0  0  0  0999 V2000
    1.1926    1.1741   -1.9878 O   0  0  0  0  0  0  0  0  0  0  0  0
    0.4270    0.9128   -1.0756 C   0  0  0  0  0  0  0  0  0  0  0  0
   -1.0276    1.0142   -0.8952 C   0  0  0  0  0  0  0  0  0  0  0  0
   -0.8885    0.2253    0.3835 C   0  0  0  0  0  0  0  0  0  0  0  0
   -1.7291   -0.7722    0.7596 C   0  0  0  0  0  0  0  0  0  0  0  0
   -1.6261    0.5349    1.4924 O   0  0  0  0  0  0  0  0  0  0  0  0
    0.5699    0.3689    0.2932 C   0  0  0  0  0  0  0  0  0  0  0  0
    1.4145   -0.8695    0.4034 C   0  0  0  0  0  0  0  0  0  0  0  0
    2.7059   -0.5502   -0.0654 O   0  0  0  0  0  0  0  0  0  0  0  0
   -1.3960    2.0439   -0.6465 H   0  0  0  0  0  0  0  0  0  0  0  0
   -1.6574    0.4772   -1.6313 H   0  0  0  0  0  0  0  0  0  0  0  0
   -2.7531   -0.9026    0.3416 H   0  0  0  0  0  0  0  0  0  0  0  0
   -1.4769   -1.6118    1.4638 H   0  0  0  0  0  0  0  0  0  0  0  0
    0.9812    1.1582    0.9662 H   0  0  0  0  0  0  0  0  0  0  0  0
    1.5352   -1.1326    1.4621 H   0  0  0  0  0  0  0  0  0  0  0  0
    1.0466   -1.6976   -0.2230 H   0  0  0  0  0  0  0  0  0  0  0  0
    2.6818   -0.3731   -1.0409 H   0  0  0  0  0  0  0  0  0  0  0  0
  1  2  2  0
  2  3  1  0
  3  4  1  0
  4  5  1  0
  5  6  1  0
  4  7  1  0
  7  8  1  0
  8  9  1  0
  7  2  1  0
  6  4  1  0
  3 10  1  0
  3 11  1  0
  5 12  1  0
  5 13  1  0
  7 14  1  0
  8 15  1  0
  8 16  1  0
  9 17  1  0
M  END
