
     RDKit          3D

 15 17  0  0  0  0  0  0  0  0999 V2000
   -1.5239    0.1235   -2.6275 O   0  0  0  0  0  0  0  0  0  0  0  0
   -0.9552    0.0611   -1.5681 C   0  0  0  0  0  0  0  0  0  0  0  0
   -0.3664   -1.0061   -0.7266 C   0  0  0  0  0  0  0  0  0  0  0  0
    0.9736   -1.1738   -0.9998 O   0  0  0  0  0  0  0  0  0  0  0  0
    1.7095   -0.2110   -0.3594 C   0  0  0  0  0  0  0  0  0  0  0  0
    0.7107    0.8091    0.2043 C   0  0  0  0  0  0  0  0  0  0  0  0
   -0.5495    1.0516   -0.5483 C   0  0  0  0  0  0  0  0  0  0  0  0
   -0.4536   -0.0413    0.4176 C   0  0  0  0  0  0  0  0  0  0  0  0
   -1.1592   -0.2193    1.5279 O   0  0  0  0  0  0  0  0  0  0  0  0
   -0.9672   -1.9057   -0.5852 H   0  0  0  0  0  0  0  0  0  0  0  0
    2.1997   -0.6515    0.5570 H   0  0  0  0  0  0  0  0  0  0  0  0
    2.4677    0.2891   -1.0030 H   0  0  0  0  0  0  0  0  0  0  0  0
    1.0276    1.4926    0.9770 H   0  0  0  0  0  0  0  0  0  0  0  0
   -1.0747    1.9852   -0.4058 H   0  0  0  0  0  0  0  0  0  0  0  0
   -2.0390   -0.6033    1.3930 H   0  0  0  0  0  0  0  0  0  0  0  0
  1  2  2  0
  2  3  1  0
  3  4  1  0
  4  5  1  0
  5  6  1  0
  6  7  1  0
  7  8  1  0
  8  9  1  0
  7  2  1  0
  8  3  1  0
  8  6  1  0
  3 10  1  0
  5 11  1  0
  5 12  1  0
  6 13  1  0
  7 14  1  0
  9 15  1  0
M  END
