
     RDKit          3D

 16 16  0  0  0  0  0  0  0  0999 V2000
    2.4694    1.8547    0.4380 O   0  0  0  0  0  0  0  0  0  0  0  0
    1.4664    1.1306    0.2195 C   0  0  0  0  0  0  0  0  0  0  0  0
    1.6686   -0.3223    0.0972 C   0  0  0  0  0  0  0  0  0  0  0  0
    0.8179   -1.2956   -0.1207 C   0  0  0  0  0  0  0  0  0  0  0  0
   -0.6392   -1.1867   -0.3102 C   0  0  0  0  0  0  0  0  0  0  0  0
   -1.2083   -0.0358    0.5074 C   0  0  0  0  0  0  0  0  0  0  0  0
   -1.0004    1.2509   -0.2513 C   0  0  0  0  0  0  0  0  0  0  0  0
    0.2515    1.8078    0.1165 O   0  0  0  0  0  0  0  0  0  0  0  0
    2.7242   -0.6144    0.2124 H   0  0  0  0  0  0  0  0  0  0  0  0
    1.2118   -2.2885   -0.1690 H   0  0  0  0  0  0  0  0  0  0  0  0
   -1.1749   -2.1268   -0.0845 H   0  0  0  0  0  0  0  0  0  0  0  0
   -0.8141   -0.9238   -1.3955 H   0  0  0  0  0  0  0  0  0  0  0  0
   -2.3064   -0.2454    0.6202 H   0  0  0  0  0  0  0  0  0  0  0  0
   -0.6927   -0.0381    1.4878 H   0  0  0  0  0  0  0  0  0  0  0  0
   -1.7861    2.0125   -0.0230 H   0  0  0  0  0  0  0  0  0  0  0  0
   -0.9878    1.0209   -1.3447 H   0  0  0  0  0  0  0  0  0  0  0  0
  1  2  2  0
  2  3  1  0
  3  4  2  0
  4  5  1  0
  5  6  1  0
  6  7  1  0
  7  8  1  0
  8  2  1  0
  3  9  1  0
  4 10  1  0
  5 11  1  0
  5 12  1  0
  6 13  1  0
  6 14  1  0
  7 15  1  0
  7 16  1  0
M  END
