
     RDKit          3D

 17 18  0  0  0  0  0  0  0  0999 V2000
    0.7142    2.4489   -0.1500 O   0  0  0  0  0  0  0  0  0  0  0  0
    0.4845    1.2888    0.0776 C   0  0  0  0  0  0  0  0  0  0  0  0
    1.3704    0.1157   -0.0604 C   0  0  0  0  0  0  0  0  0  0  0  0
    2.4160    0.3044   -0.9283 O   0  0  0  0  0  0  0  0  0  0  0  0
    0.4132   -0.8968   -0.6985 C   0  0  0  0  0  0  0  0  0  0  0  0
   -0.8525   -0.6358    0.0482 C   0  0  0  0  0  0  0  0  0  0  0  0
   -1.2278   -1.5967    0.9556 O   0  0  0  0  0  0  0  0  0  0  0  0
   -1.8553    0.3420   -0.4317 C   0  0  0  0  0  0  0  0  0  0  0  0
   -0.8101    0.7721    0.5716 C   0  0  0  0  0  0  0  0  0  0  0  0
    1.6804   -0.2700    0.9343 H   0  0  0  0  0  0  0  0  0  0  0  0
    3.0090    1.0520   -0.7081 H   0  0  0  0  0  0  0  0  0  0  0  0
    0.3630   -0.6157   -1.7700 H   0  0  0  0  0  0  0  0  0  0  0  0
    0.8270   -1.9015   -0.5628 H   0  0  0  0  0  0  0  0  0  0  0  0
   -0.7724   -2.4748    0.8071 H   0  0  0  0  0  0  0  0  0  0  0  0
   -2.8617    0.2456   -0.0106 H   0  0  0  0  0  0  0  0  0  0  0  0
   -1.7803    0.8449   -1.3987 H   0  0  0  0  0  0  0  0  0  0  0  0
   -1.1177    0.9770    1.6145 H   0  0  0  0  0  0  0  0  0  0  0  0
  1  2  2  0
  2  3  1  0
  3  4  1  0
  3  5  1  0
  5  6  1  0
  6  7  1  0
  6  8  1  0
  8  9  1  0
  9  2  1  0
  9  6  1  0
  3 10  1  0
  4 11  1  0
  5 12  1  0
  5 13  1  0
  7 14  1  0
  8 15  1  0
  8 16  1  0
  9 17  1  0
M  END
