
     RDKit          3D

 13 13  0  0  0  0  0  0  0  0999 V2000
    2.2696    1.1990   -0.9550 O   0  0  0  0  0  0  0  0  0  0  0  0
    1.2475    0.6908   -0.4275 C   0  0  0  0  0  0  0  0  0  0  0  0
    1.2751   -0.6907    0.0753 C   0  0  0  0  0  0  0  0  0  0  0  0
    0.1085   -1.2603    0.3746 O   0  0  0  0  0  0  0  0  0  0  0  0
   -1.0587   -0.6512    0.1890 C   0  0  0  0  0  0  0  0  0  0  0  0
   -1.1028    0.8261    0.1031 C   0  0  0  0  0  0  0  0  0  0  0  0
    0.1050    1.4218   -0.3193 O   0  0  0  0  0  0  0  0  0  0  0  0
    1.8115   -1.3043   -0.7043 H   0  0  0  0  0  0  0  0  0  0  0  0
    1.9416   -0.7088    0.9673 H   0  0  0  0  0  0  0  0  0  0  0  0
   -1.7643   -0.9468    1.0234 H   0  0  0  0  0  0  0  0  0  0  0  0
   -1.5597   -1.0726   -0.7320 H   0  0  0  0  0  0  0  0  0  0  0  0
   -1.3917    1.3396    1.0487 H   0  0  0  0  0  0  0  0  0  0  0  0
   -1.8817    1.1576   -0.6431 H   0  0  0  0  0  0  0  0  0  0  0  0
  1  2  2  0
  2  3  1  0
  3  4  1  0
  4  5  1  0
  5  6  1  0
  6  7  1  0
  7  2  1  0
  3  8  1  0
  3  9  1  0
  5 10  1  0
  5 11  1  0
  6 12  1  0
  6 13  1  0
M  END
