
     RDKit          3D

 13 14  0  0  0  0  0  0  0  0999 V2000
    2.3693    0.3327    1.8000 O   0  0  0  0  0  0  0  0  0  0  0  0
    1.7144    0.1977    0.7118 C   0  0  0  0  0  0  0  0  0  0  0  0
    1.3661   -1.0125    0.1315 O   0  0  0  0  0  0  0  0  0  0  0  0
    0.1525   -0.8131   -0.5255 C   0  0  0  0  0  0  0  0  0  0  0  0
   -1.0533   -0.5870    0.3936 C   0  0  0  0  0  0  0  0  0  0  0  0
   -1.1301    0.8239   -0.0423 C   0  0  0  0  0  0  0  0  0  0  0  0
   -1.9227    1.7130    0.1898 O   0  0  0  0  0  0  0  0  0  0  0  0
    0.1093    0.6382   -0.8222 C   0  0  0  0  0  0  0  0  0  0  0  0
    1.2107    1.1718   -0.1240 O   0  0  0  0  0  0  0  0  0  0  0  0
   -0.0971   -1.5051   -1.3476 H   0  0  0  0  0  0  0  0  0  0  0  0
   -0.7888   -0.7603    1.4528 H   0  0  0  0  0  0  0  0  0  0  0  0
   -1.9636   -1.1400    0.0639 H   0  0  0  0  0  0  0  0  0  0  0  0
    0.0334    0.9406   -1.8818 H   0  0  0  0  0  0  0  0  0  0  0  0
  1  2  2  0
  2  3  1  0
  3  4  1  0
  4  5  1  0
  5  6  1  0
  6  7  2  0
  6  8  1  0
  8  9  1  0
  9  2  1  0
  8  4  1  0
  4 10  1  0
  5 11  1  0
  5 12  1  0
  8 13  1  0
M  END
