
     RDKit          3D

 17 18  0  0  0  0  0  0  0  0999 V2000
   -2.0132    1.6990   -1.3153 O   0  0  0  0  0  0  0  0  0  0  0  0
   -1.7255    0.7982   -0.5752 C   0  0  0  0  0  0  0  0  0  0  0  0
   -0.5909   -0.0927   -0.1868 C   0  0  0  0  0  0  0  0  0  0  0  0
    0.7790    0.4196   -0.5146 C   0  0  0  0  0  0  0  0  0  0  0  0
    1.7376   -0.6737   -0.0160 C   0  0  0  0  0  0  0  0  0  0  0  0
    3.0501   -0.3512   -0.2456 O   0  0  0  0  0  0  0  0  0  0  0  0
   -1.0660    0.2958    1.2033 C   0  0  0  0  0  0  0  0  0  0  0  0
   -2.2183   -0.0021    1.7705 O   0  0  0  0  0  0  0  0  0  0  0  0
   -2.4097   -0.0059    0.4660 C   0  0  0  0  0  0  0  0  0  0  0  0
   -0.8041   -1.1236   -0.4398 H   0  0  0  0  0  0  0  0  0  0  0  0
    0.8719    0.4417   -1.6273 H   0  0  0  0  0  0  0  0  0  0  0  0
    1.0204    1.3743   -0.0497 H   0  0  0  0  0  0  0  0  0  0  0  0
    1.5662   -0.8907    1.0540 H   0  0  0  0  0  0  0  0  0  0  0  0
    1.4828   -1.5788   -0.6210 H   0  0  0  0  0  0  0  0  0  0  0  0
    3.6419   -0.6429    0.5100 H   0  0  0  0  0  0  0  0  0  0  0  0
   -0.8283    1.4020    1.3164 H   0  0  0  0  0  0  0  0  0  0  0  0
   -2.4939   -1.0690    0.0685 H   0  0  0  0  0  0  0  0  0  0  0  0
  1  2  2  0
  2  3  1  0
  3  4  1  0
  4  5  1  0
  5  6  1  0
  3  7  1  0
  7  8  1  0
  8  9  1  0
  9  2  1  0
  9  7  1  0
  3 10  1  0
  4 11  1  0
  4 12  1  0
  5 13  1  0
  5 14  1  0
  6 15  1  0
  7 16  1  0
  9 17  1  0
M  END
