
     RDKit          3D

 17 20  0  0  0  0  0  0  0  0999 V2000
   -1.3248    2.1892    1.1457 O   0  0  0  0  0  0  0  0  0  0  0  0
   -0.9258    1.2490    0.5065 C   0  0  0  0  0  0  0  0  0  0  0  0
   -1.5625   -0.0992    0.5397 C   0  0  0  0  0  0  0  0  0  0  0  0
   -0.5107   -1.1406    0.5427 C   0  0  0  0  0  0  0  0  0  0  0  0
    0.2742   -1.0955   -0.6965 C   0  0  0  0  0  0  0  0  0  0  0  0
    0.8652   -0.7363    0.7038 C   0  0  0  0  0  0  0  0  0  0  0  0
    1.3319    0.5141    0.0946 C   0  0  0  0  0  0  0  0  0  0  0  0
    0.2514    1.3960   -0.3676 C   0  0  0  0  0  0  0  0  0  0  0  0
    0.5619    0.2440   -1.2190 C   0  0  0  0  0  0  0  0  0  0  0  0
   -2.3013   -0.1855    1.3593 H   0  0  0  0  0  0  0  0  0  0  0  0
   -2.1234   -0.1872   -0.4367 H   0  0  0  0  0  0  0  0  0  0  0  0
   -0.7928   -2.1458    0.9033 H   0  0  0  0  0  0  0  0  0  0  0  0
    0.7251   -1.9618   -1.1792 H   0  0  0  0  0  0  0  0  0  0  0  0
    1.5931   -1.4594    1.1147 H   0  0  0  0  0  0  0  0  0  0  0  0
    2.3896    0.6991   -0.0756 H   0  0  0  0  0  0  0  0  0  0  0  0
    0.4621    2.3886   -0.7748 H   0  0  0  0  0  0  0  0  0  0  0  0
    1.0868    0.3311   -2.1608 H   0  0  0  0  0  0  0  0  0  0  0  0
  1  2  2  0
  2  3  1  0
  3  4  1  0
  4  5  1  0
  5  6  1  0
  6  7  1  0
  7  8  1  0
  8  9  1  0
  8  2  1  0
  6  4  1  0
  9  7  1  0
  9  5  1  0
  3 10  1  0
  3 11  1  0
  4 12  1  0
  5 13  1  0
  6 14  1  0
  7 15  1  0
  8 16  1  0
  9 17  1  0
M  END
