
     RDKit          3D

 17 19  0  0  0  0  0  0  0  0999 V2000
    1.9501   -1.7438   -1.3283 O   0  0  0  0  0  0  0  0  0  0  0  0
    1.4059   -0.7389   -0.8016 C   0  0  0  0  0  0  0  0  0  0  0  0
    1.7753    0.6049   -0.9062 O   0  0  0  0  0  0  0  0  0  0  0  0
    0.9158    1.4206   -0.1504 C   0  0  0  0  0  0  0  0  0  0  0  0
   -0.1090    0.5487    0.4951 C   0  0  0  0  0  0  0  0  0  0  0  0
   -1.4328    0.4525   -0.1876 C   0  0  0  0  0  0  0  0  0  0  0  0
   -1.1435   -0.9989   -0.4935 C   0  0  0  0  0  0  0  0  0  0  0  0
    0.2183   -0.8238    0.0632 C   0  0  0  0  0  0  0  0  0  0  0  0
    0.3221   -0.4230    1.5026 C   0  0  0  0  0  0  0  0  0  0  0  0
    1.4700    1.9844    0.6235 H   0  0  0  0  0  0  0  0  0  0  0  0
    0.4617    2.1640   -0.8557 H   0  0  0  0  0  0  0  0  0  0  0  0
   -1.4984    1.0288   -1.1319 H   0  0  0  0  0  0  0  0  0  0  0  0
   -2.3327    0.6406    0.4304 H   0  0  0  0  0  0  0  0  0  0  0  0
   -1.7615   -1.6479    0.1864 H   0  0  0  0  0  0  0  0  0  0  0  0
   -1.1604   -1.2737   -1.5543 H   0  0  0  0  0  0  0  0  0  0  0  0
   -0.4056   -0.9373    2.1613 H   0  0  0  0  0  0  0  0  0  0  0  0
    1.3249   -0.2571    1.9471 H   0  0  0  0  0  0  0  0  0  0  0  0
  1  2  2  0
  2  3  1  0
  3  4  1  0
  4  5  1  0
  5  6  1  0
  6  7  1  0
  7  8  1  0
  8  9  1  0
  8  2  1  0
  8  5  1  0
  9  5  1  0
  4 10  1  0
  4 11  1  0
  6 12  1  0
  6 13  1  0
  7 14  1  0
  7 15  1  0
  9 16  1  0
  9 17  1  0
M  END
