
     RDKit          3D

 19 21  0  0  0  0  0  0  0  0999 V2000
    1.3803    2.3394    0.7120 O   0  0  0  0  0  0  0  0  0  0  0  0
    0.8673    1.3194    0.3471 C   0  0  0  0  0  0  0  0  0  0  0  0
    1.6651    0.0924    0.0578 C   0  0  0  0  0  0  0  0  0  0  0  0
    0.8257   -1.1184   -0.0608 C   0  0  0  0  0  0  0  0  0  0  0  0
   -0.3831   -1.0200   -0.8798 C   0  0  0  0  0  0  0  0  0  0  0  0
   -0.7097    0.3963   -1.2047 C   0  0  0  0  0  0  0  0  0  0  0  0
   -0.6022    1.1394    0.1369 C   0  0  0  0  0  0  0  0  0  0  0  0
   -1.0959    0.0727    1.0614 C   0  0  0  0  0  0  0  0  0  0  0  0
   -0.4458   -1.1666    0.6262 C   0  0  0  0  0  0  0  0  0  0  0  0
    2.3109    0.2611   -0.8531 H   0  0  0  0  0  0  0  0  0  0  0  0
    2.3907   -0.0316    0.8946 H   0  0  0  0  0  0  0  0  0  0  0  0
    1.4108   -2.0780   -0.0820 H   0  0  0  0  0  0  0  0  0  0  0  0
   -0.8043   -1.8590   -1.4506 H   0  0  0  0  0  0  0  0  0  0  0  0
    0.0537    0.8271   -1.8790 H   0  0  0  0  0  0  0  0  0  0  0  0
   -1.6899    0.5665   -1.6391 H   0  0  0  0  0  0  0  0  0  0  0  0
   -1.1644    2.0677    0.1454 H   0  0  0  0  0  0  0  0  0  0  0  0
   -2.2051   -0.0230    0.8749 H   0  0  0  0  0  0  0  0  0  0  0  0
   -1.0053    0.3249    2.1330 H   0  0  0  0  0  0  0  0  0  0  0  0
   -0.7990   -2.1104    1.0599 H   0  0  0  0  0  0  0  0  0  0  0  0
  1  2  2  0
  2  3  1  0
  3  4  1  0
  4  5  1  0
  5  6  1  0
  6  7  1  0
  7  8  1  0
  8  9  1  0
  7  2  1  0
  9  4  1  0
  9  5  1  0
  3 10  1  0
  3 11  1  0
  4 12  1  0
  5 13  1  0
  6 14  1  0
  6 15  1  0
  7 16  1  0
  8 17  1  0
  8 18  1  0
  9 19  1  0
M  END
