
     RDKit          3D

 15 16  0  0  0  0  0  0  0  0999 V2000
   -2.5119    0.7954   -0.7342 O   0  0  0  0  0  0  0  0  0  0  0  0
   -1.3934    0.3829   -0.5335 C   0  0  0  0  0  0  0  0  0  0  0  0
   -0.9598   -1.0222   -0.3494 C   0  0  0  0  0  0  0  0  0  0  0  0
    0.0756   -0.9144    0.7195 C   0  0  0  0  0  0  0  0  0  0  0  0
    1.3753   -1.3499    0.3534 O   0  0  0  0  0  0  0  0  0  0  0  0
    1.9004   -0.0902    0.1649 C   0  0  0  0  0  0  0  0  0  0  0  0
    2.9907    0.3653   -0.2206 O   0  0  0  0  0  0  0  0  0  0  0  0
    0.6223    0.4951    0.6140 C   0  0  0  0  0  0  0  0  0  0  0  0
   -0.1870    1.2084   -0.4254 C   0  0  0  0  0  0  0  0  0  0  0  0
   -0.4961   -1.3515   -1.3191 H   0  0  0  0  0  0  0  0  0  0  0  0
   -1.8084   -1.7008   -0.0773 H   0  0  0  0  0  0  0  0  0  0  0  0
   -0.2252   -1.2067    1.7376 H   0  0  0  0  0  0  0  0  0  0  0  0
    0.6485    0.9732    1.6145 H   0  0  0  0  0  0  0  0  0  0  0  0
    0.3559    1.1535   -1.3976 H   0  0  0  0  0  0  0  0  0  0  0  0
   -0.3869    2.2617   -0.1469 H   0  0  0  0  0  0  0  0  0  0  0  0
  1  2  2  0
  2  3  1  0
  3  4  1  0
  4  5  1  0
  5  6  1  0
  6  7  2  0
  6  8  1  0
  8  9  1  0
  9  2  1  0
  8  4  1  0
  3 10  1  0
  3 11  1  0
  4 12  1  0
  8 13  1  0
  9 14  1  0
  9 15  1  0
M  END
