
     RDKit          3D

 15 17  0  0  0  0  0  0  0  0999 V2000
    0.0273    2.4514   -0.7402 O   0  0  0  0  0  0  0  0  0  0  0  0
   -0.1103    1.3586   -0.2691 C   0  0  0  0  0  0  0  0  0  0  0  0
    0.5369    0.6270    0.8509 C   0  0  0  0  0  0  0  0  0  0  0  0
   -0.5848    0.2115    1.5532 O   0  0  0  0  0  0  0  0  0  0  0  0
   -1.3551   -0.4015    0.5612 C   0  0  0  0  0  0  0  0  0  0  0  0
   -1.0788    0.3314   -0.7397 C   0  0  0  0  0  0  0  0  0  0  0  0
   -0.4740   -0.9745   -0.4534 C   0  0  0  0  0  0  0  0  0  0  0  0
    0.9131   -0.6544    0.1308 C   0  0  0  0  0  0  0  0  0  0  0  0
    1.8223   -0.4143   -0.8940 O   0  0  0  0  0  0  0  0  0  0  0  0
    1.3032    1.1220    1.3803 H   0  0  0  0  0  0  0  0  0  0  0  0
   -2.3898   -0.6570    0.7311 H   0  0  0  0  0  0  0  0  0  0  0  0
   -1.8520    0.5425   -1.4509 H   0  0  0  0  0  0  0  0  0  0  0  0
   -0.6296   -1.8844   -1.0058 H   0  0  0  0  0  0  0  0  0  0  0  0
    1.1908   -1.4679    0.7990 H   0  0  0  0  0  0  0  0  0  0  0  0
    2.6807   -0.1903   -0.4533 H   0  0  0  0  0  0  0  0  0  0  0  0
  1  2  2  0
  2  3  1  0
  3  4  1  0
  4  5  1  0
  5  6  1  0
  6  7  1  0
  7  8  1  0
  8  9  1  0
  6  2  1  0
  8  3  1  0
  7  5  1  0
  3 10  1  0
  5 11  1  0
  6 12  1  0
  7 13  1  0
  8 14  1  0
  9 15  1  0
M  END
