
     RDKit          3D

 21 22  0  0  0  0  0  0  0  0999 V2000
   -1.3574    2.5133   -0.9053 O   0  0  0  0  0  0  0  0  0  0  0  0
   -1.0381    1.4984   -0.2748 C   0  0  0  0  0  0  0  0  0  0  0  0
   -2.1085    0.5000   -0.0437 C   0  0  0  0  0  0  0  0  0  0  0  0
   -1.5220   -0.8753   -0.2640 C   0  0  0  0  0  0  0  0  0  0  0  0
   -0.2562   -0.9937    0.5135 C   0  0  0  0  0  0  0  0  0  0  0  0
    0.8261   -0.0661    0.0695 C   0  0  0  0  0  0  0  0  0  0  0  0
    1.7963   -0.5036   -0.9242 C   0  0  0  0  0  0  0  0  0  0  0  0
    2.1918   -0.4360    0.5273 C   0  0  0  0  0  0  0  0  0  0  0  0
    0.3482    1.3519    0.1929 C   0  0  0  0  0  0  0  0  0  0  0  0
   -2.4795    0.5226    1.0018 H   0  0  0  0  0  0  0  0  0  0  0  0
   -2.9587    0.6559   -0.7027 H   0  0  0  0  0  0  0  0  0  0  0  0
   -1.3770   -1.0603   -1.3462 H   0  0  0  0  0  0  0  0  0  0  0  0
   -2.2423   -1.6143    0.1495 H   0  0  0  0  0  0  0  0  0  0  0  0
   -0.4915   -0.7473    1.5798 H   0  0  0  0  0  0  0  0  0  0  0  0
    0.1341   -2.0326    0.4267 H   0  0  0  0  0  0  0  0  0  0  0  0
    2.3683    0.1798   -1.5747 H   0  0  0  0  0  0  0  0  0  0  0  0
    1.6434   -1.5102   -1.3856 H   0  0  0  0  0  0  0  0  0  0  0  0
    2.3515   -1.4228    1.0515 H   0  0  0  0  0  0  0  0  0  0  0  0
    2.8396    0.3657    0.8960 H   0  0  0  0  0  0  0  0  0  0  0  0
    0.3429    1.5880    1.2946 H   0  0  0  0  0  0  0  0  0  0  0  0
    0.9891    2.0868   -0.2819 H   0  0  0  0  0  0  0  0  0  0  0  0
  1  2  2  0
  2  3  1  0
  3  4  1  0
  4  5  1  0
  5  6  1  0
  6  7  1  0
  7  8  1  0
  6  9  1  0
  9  2  1  0
  8  6  1  0
  3 10  1  0
  3 11  1  0
  4 12  1  0
  4 13  1  0
  5 14  1  0
  5 15  1  0
  7 16  1  0
  7 17  1  0
  8 18  1  0
  8 19  1  0
  9 20  1  0
  9 21  1  0
M  END
