
     RDKit          3D

 15 17  0  0  0  0  0  0  0  0999 V2000
    1.7202    2.2451    0.0018 O   0  0  0  0  0  0  0  0  0  0  0  0
    1.3632    1.0904    0.1301 C   0  0  0  0  0  0  0  0  0  0  0  0
    2.0575   -0.2282   -0.0817 C   0  0  0  0  0  0  0  0  0  0  0  0
    1.4944   -0.9527   -1.1432 O   0  0  0  0  0  0  0  0  0  0  0  0
    0.9514   -0.9379    0.2165 C   0  0  0  0  0  0  0  0  0  0  0  0
    0.1629    0.3042    0.5284 C   0  0  0  0  0  0  0  0  0  0  0  0
   -1.0087    0.4236   -0.4210 C   0  0  0  0  0  0  0  0  0  0  0  0
   -2.2208   -0.3461   -0.0550 C   0  0  0  0  0  0  0  0  0  0  0  0
   -2.1159    1.1547   -0.0771 O   0  0  0  0  0  0  0  0  0  0  0  0
    3.1311   -0.3051    0.0936 H   0  0  0  0  0  0  0  0  0  0  0  0
    0.6568   -1.9234    0.5255 H   0  0  0  0  0  0  0  0  0  0  0  0
   -0.1066    0.3341    1.5841 H   0  0  0  0  0  0  0  0  0  0  0  0
   -0.7440    0.4461   -1.4898 H   0  0  0  0  0  0  0  0  0  0  0  0
   -2.9354   -0.7002   -0.8249 H   0  0  0  0  0  0  0  0  0  0  0  0
   -2.4061   -0.6045    1.0127 H   0  0  0  0  0  0  0  0  0  0  0  0
  1  2  2  0
  2  3  1  0
  3  4  1  0
  4  5  1  0
  5  6  1  0
  6  7  1  0
  7  8  1  0
  8  9  1  0
  6  2  1  0
  9  7  1  0
  5  3  1  0
  3 10  1  0
  5 11  1  0
  6 12  1  0
  7 13  1  0
  8 14  1  0
  8 15  1  0
M  END
