
     RDKit          3D

 17 18  0  0  0  0  0  0  0  0999 V2000
    1.1490   -0.8636    2.2444 O   0  0  0  0  0  0  0  0  0  0  0  0
    0.4478   -0.7750    1.1896 C   0  0  0  0  0  0  0  0  0  0  0  0
   -0.8437   -1.2792    1.1049 O   0  0  0  0  0  0  0  0  0  0  0  0
   -1.7771   -0.5950    0.3150 C   0  0  0  0  0  0  0  0  0  0  0  0
   -1.3651    0.8150   -0.0159 C   0  0  0  0  0  0  0  0  0  0  0  0
    0.0260    0.9077   -0.5854 C   0  0  0  0  0  0  0  0  0  0  0  0
    0.9636   -0.1222   -0.0339 C   0  0  0  0  0  0  0  0  0  0  0  0
    2.2830   -0.3120   -0.4819 C   0  0  0  0  0  0  0  0  0  0  0  0
    1.2750   -1.2028   -1.0328 O   0  0  0  0  0  0  0  0  0  0  0  0
   -2.0929   -1.1487   -0.5885 H   0  0  0  0  0  0  0  0  0  0  0  0
   -2.7108   -0.4982    0.9431 H   0  0  0  0  0  0  0  0  0  0  0  0
   -1.4753    1.5011    0.8456 H   0  0  0  0  0  0  0  0  0  0  0  0
   -2.0638    1.1885   -0.7963 H   0  0  0  0  0  0  0  0  0  0  0  0
    0.4253    1.9060   -0.2974 H   0  0  0  0  0  0  0  0  0  0  0  0
    0.0071    0.9204   -1.7110 H   0  0  0  0  0  0  0  0  0  0  0  0
    3.0313   -0.8375    0.1454 H   0  0  0  0  0  0  0  0  0  0  0  0
    2.7207    0.3953   -1.2447 H   0  0  0  0  0  0  0  0  0  0  0  0
  1  2  2  0
  2  3  1  0
  3  4  1  0
  4  5  1  0
  5  6  1  0
  6  7  1  0
  7  8  1  0
  8  9  1  0
  7  2  1  0
  9  7  1  0
  4 10  1  0
  4 11  1  0
  5 12  1  0
  5 13  1  0
  6 14  1  0
  6 15  1  0
  8 16  1  0
  8 17  1  0
M  END
