
     RDKit          3D

 19 20  0  0  0  0  0  0  0  0999 V2000
   -1.0296   -0.3387   -2.3340 O   0  0  0  0  0  0  0  0  0  0  0  0
   -1.1266   -0.1853   -1.1361 C   0  0  0  0  0  0  0  0  0  0  0  0
   -2.2384   -0.2982   -0.1540 C   0  0  0  0  0  0  0  0  0  0  0  0
   -1.4293    0.6415    0.7522 C   0  0  0  0  0  0  0  0  0  0  0  0
   -0.2629    0.1760   -0.0363 C   0  0  0  0  0  0  0  0  0  0  0  0
    0.6288   -0.8610    0.5559 C   0  0  0  0  0  0  0  0  0  0  0  0
    1.7541   -0.2049   -0.2600 C   0  0  0  0  0  0  0  0  0  0  0  0
    2.9533   -0.0997    0.3955 O   0  0  0  0  0  0  0  0  0  0  0  0
    0.8873    1.0638   -0.2279 C   0  0  0  0  0  0  0  0  0  0  0  0
   -2.2669   -1.3135    0.3402 H   0  0  0  0  0  0  0  0  0  0  0  0
   -3.2087    0.0869   -0.4658 H   0  0  0  0  0  0  0  0  0  0  0  0
   -1.4761    0.3983    1.8164 H   0  0  0  0  0  0  0  0  0  0  0  0
   -1.7043    1.6867    0.4726 H   0  0  0  0  0  0  0  0  0  0  0  0
    0.3555   -1.8726    0.2098 H   0  0  0  0  0  0  0  0  0  0  0  0
    0.8162   -0.7906    1.6464 H   0  0  0  0  0  0  0  0  0  0  0  0
    1.7645   -0.6053   -1.2857 H   0  0  0  0  0  0  0  0  0  0  0  0
    3.5461   -0.8275    0.0243 H   0  0  0  0  0  0  0  0  0  0  0  0
    1.1014    1.6817    0.6926 H   0  0  0  0  0  0  0  0  0  0  0  0
    0.9355    1.6626   -1.1335 H   0  0  0  0  0  0  0  0  0  0  0  0
  1  2  2  0
  2  3  1  0
  3  4  1  0
  4  5  1  0
  5  6  1  0
  6  7  1  0
  7  8  1  0
  7  9  1  0
  5  2  1  0
  9  5  1  0
  3 10  1  0
  3 11  1  0
  4 12  1  0
  4 13  1  0
  6 14  1  0
  6 15  1  0
  7 16  1  0
  8 17  1  0
  9 18  1  0
  9 19  1  0
M  END
