
     RDKit          3D

 17 18  0  0  0  0  0  0  0  0999 V2000
   -0.7030   -0.0958   -2.5377 O   0  0  0  0  0  0  0  0  0  0  0  0
   -0.5905    0.0839   -1.3473 C   0  0  0  0  0  0  0  0  0  0  0  0
   -1.2682    0.8954   -0.3396 C   0  0  0  0  0  0  0  0  0  0  0  0
   -2.0100    0.1347    0.7216 C   0  0  0  0  0  0  0  0  0  0  0  0
   -0.5335    0.2373    0.7604 C   0  0  0  0  0  0  0  0  0  0  0  0
    0.3077   -0.4399   -0.3008 C   0  0  0  0  0  0  0  0  0  0  0  0
    0.3148   -1.8050   -0.1169 O   0  0  0  0  0  0  0  0  0  0  0  0
    1.6868    0.1949   -0.4011 C   0  0  0  0  0  0  0  0  0  0  0  0
    2.4152   -0.0332    0.7532 O   0  0  0  0  0  0  0  0  0  0  0  0
   -1.3643    1.9860   -0.4215 H   0  0  0  0  0  0  0  0  0  0  0  0
   -2.5553    0.7166    1.4674 H   0  0  0  0  0  0  0  0  0  0  0  0
   -2.5256   -0.7697    0.3427 H   0  0  0  0  0  0  0  0  0  0  0  0
   -0.0258    0.8150    1.5259 H   0  0  0  0  0  0  0  0  0  0  0  0
    0.4224   -2.0456    0.8567 H   0  0  0  0  0  0  0  0  0  0  0  0
    2.2337   -0.1695   -1.2807 H   0  0  0  0  0  0  0  0  0  0  0  0
    1.5381    1.2959   -0.4879 H   0  0  0  0  0  0  0  0  0  0  0  0
    2.6574   -1.0011    0.8055 H   0  0  0  0  0  0  0  0  0  0  0  0
  1  2  2  0
  2  3  1  0
  3  4  1  0
  4  5  1  0
  5  6  1  0
  6  7  1  0
  6  8  1  0
  8  9  1  0
  6  2  1  0
  5  3  1  0
  3 10  1  0
  4 11  1  0
  4 12  1  0
  5 13  1  0
  7 14  1  0
  8 15  1  0
  8 16  1  0
  9 17  1  0
M  END
