
     RDKit          3D

 17 18  0  0  0  0  0  0  0  0999 V2000
    2.2395   -1.4008    0.5881 O   0  0  0  0  0  0  0  0  0  0  0  0
    1.4381   -0.6052    0.2025 C   0  0  0  0  0  0  0  0  0  0  0  0
    1.5358    0.8450    0.5417 C   0  0  0  0  0  0  0  0  0  0  0  0
    0.3760    1.5351    0.3619 O   0  0  0  0  0  0  0  0  0  0  0  0
   -0.4735    1.0723   -0.5897 C   0  0  0  0  0  0  0  0  0  0  0  0
   -1.5967    0.3072    0.1060 C   0  0  0  0  0  0  0  0  0  0  0  0
   -1.0032   -1.0774    0.1858 C   0  0  0  0  0  0  0  0  0  0  0  0
    0.2584   -0.9900   -0.6589 C   0  0  0  0  0  0  0  0  0  0  0  0
    0.0242    0.1389   -1.4532 O   0  0  0  0  0  0  0  0  0  0  0  0
    1.8395    0.8816    1.6202 H   0  0  0  0  0  0  0  0  0  0  0  0
    2.3415    1.3531   -0.0577 H   0  0  0  0  0  0  0  0  0  0  0  0
   -0.8648    1.9329   -1.1712 H   0  0  0  0  0  0  0  0  0  0  0  0
   -2.4926    0.3692   -0.5119 H   0  0  0  0  0  0  0  0  0  0  0  0
   -1.7379    0.7367    1.1293 H   0  0  0  0  0  0  0  0  0  0  0  0
   -0.6802   -1.3475    1.2105 H   0  0  0  0  0  0  0  0  0  0  0  0
   -1.6401   -1.8525   -0.2754 H   0  0  0  0  0  0  0  0  0  0  0  0
    0.4360   -1.8987   -1.2281 H   0  0  0  0  0  0  0  0  0  0  0  0
  1  2  2  0
  2  3  1  0
  3  4  1  0
  4  5  1  0
  5  6  1  0
  6  7  1  0
  7  8  1  0
  8  9  1  0
  8  2  1  0
  9  5  1  0
  3 10  1  0
  3 11  1  0
  5 12  1  0
  6 13  1  0
  6 14  1  0
  7 15  1  0
  7 16  1  0
  8 17  1  0
M  END
