
     RDKit          3D

 17 18  0  0  0  0  0  0  0  0999 V2000
   -0.1401   -2.3221    1.2118 O   0  0  0  0  0  0  0  0  0  0  0  0
   -0.3816   -1.2873    0.6560 C   0  0  0  0  0  0  0  0  0  0  0  0
   -0.5870    0.1413    0.9616 C   0  0  0  0  0  0  0  0  0  0  0  0
   -1.6462    0.1018   -0.1485 C   0  0  0  0  0  0  0  0  0  0  0  0
   -0.6205   -0.8693   -0.7550 C   0  0  0  0  0  0  0  0  0  0  0  0
    0.6024   -0.0330   -1.0096 C   0  0  0  0  0  0  0  0  0  0  0  0
    1.7178   -0.8536   -0.8504 O   0  0  0  0  0  0  0  0  0  0  0  0
    0.5121    0.8835    0.2225 C   0  0  0  0  0  0  0  0  0  0  0  0
    1.6896    0.9465    0.9122 O   0  0  0  0  0  0  0  0  0  0  0  0
   -0.8830    0.4607    1.9209 H   0  0  0  0  0  0  0  0  0  0  0  0
   -2.5664   -0.4090    0.1092 H   0  0  0  0  0  0  0  0  0  0  0  0
   -1.6874    1.0766   -0.6324 H   0  0  0  0  0  0  0  0  0  0  0  0
   -0.9588   -1.5718   -1.4615 H   0  0  0  0  0  0  0  0  0  0  0  0
    0.5886    0.5275   -1.9395 H   0  0  0  0  0  0  0  0  0  0  0  0
    2.3017   -0.5679   -0.1061 H   0  0  0  0  0  0  0  0  0  0  0  0
    0.1000    1.8656   -0.0523 H   0  0  0  0  0  0  0  0  0  0  0  0
    1.9587    1.9104    0.9611 H   0  0  0  0  0  0  0  0  0  0  0  0
  1  2  2  0
  2  3  1  0
  3  4  1  0
  4  5  1  0
  5  6  1  0
  6  7  1  0
  6  8  1  0
  8  9  1  0
  5  2  1  0
  8  3  1  0
  3 10  1  0
  4 11  1  0
  4 12  1  0
  5 13  1  0
  6 14  1  0
  7 15  1  0
  8 16  1  0
  9 17  1  0
M  END
