
     RDKit          3D

 17 19  0  0  0  0  0  0  0  0999 V2000
    0.0111   -0.1501    2.4329 O   0  0  0  0  0  0  0  0  0  0  0  0
   -0.2986    0.0858    1.3242 C   0  0  0  0  0  0  0  0  0  0  0  0
   -1.6050    0.4271    0.7325 C   0  0  0  0  0  0  0  0  0  0  0  0
   -1.6169   -0.2873   -0.6018 C   0  0  0  0  0  0  0  0  0  0  0  0
   -0.4854    0.7011   -0.8019 C   0  0  0  0  0  0  0  0  0  0  0  0
   -1.2709    1.5749   -0.0111 O   0  0  0  0  0  0  0  0  0  0  0  0
    0.5532    0.1183    0.1168 C   0  0  0  0  0  0  0  0  0  0  0  0
    1.3540   -1.0134   -0.3320 C   0  0  0  0  0  0  0  0  0  0  0  0
    1.9563    0.3578    0.0863 C   0  0  0  0  0  0  0  0  0  0  0  0
   -2.4821    0.4439    1.3227 H   0  0  0  0  0  0  0  0  0  0  0  0
   -1.2190   -1.3302   -0.5670 H   0  0  0  0  0  0  0  0  0  0  0  0
   -2.5110   -0.1212   -1.1990 H   0  0  0  0  0  0  0  0  0  0  0  0
   -0.2296    1.0083   -1.7828 H   0  0  0  0  0  0  0  0  0  0  0  0
    1.3753   -1.2429   -1.4220 H   0  0  0  0  0  0  0  0  0  0  0  0
    1.5001   -1.8510    0.3616 H   0  0  0  0  0  0  0  0  0  0  0  0
    2.4463    0.9202   -0.7166 H   0  0  0  0  0  0  0  0  0  0  0  0
    2.5223    0.3589    1.0573 H   0  0  0  0  0  0  0  0  0  0  0  0
  1  2  2  0
  2  3  1  0
  3  4  1  0
  4  5  1  0
  5  6  1  0
  5  7  1  0
  7  8  1  0
  8  9  1  0
  7  2  1  0
  6  3  1  0
  9  7  1  0
  3 10  1  0
  4 11  1  0
  4 12  1  0
  5 13  1  0
  8 14  1  0
  8 15  1  0
  9 16  1  0
  9 17  1  0
M  END
