
     RDKit          3D

 17 18  0  0  0  0  0  0  0  0999 V2000
   -0.3355   -1.6431    1.3733 O   0  0  0  0  0  0  0  0  0  0  0  0
    0.3487   -0.9999    0.5550 C   0  0  0  0  0  0  0  0  0  0  0  0
    1.7862   -1.1130    0.3752 C   0  0  0  0  0  0  0  0  0  0  0  0
    2.2630   -0.0255   -0.2043 C   0  0  0  0  0  0  0  0  0  0  0  0
    1.1599    0.9084   -0.4567 C   0  0  0  0  0  0  0  0  0  0  0  0
   -0.0576    0.0243   -0.4373 C   0  0  0  0  0  0  0  0  0  0  0  0
   -1.3081    0.7612   -0.0167 C   0  0  0  0  0  0  0  0  0  0  0  0
   -2.5084   -0.1174    0.1661 C   0  0  0  0  0  0  0  0  0  0  0  0
   -1.8126    0.5121    1.2440 O   0  0  0  0  0  0  0  0  0  0  0  0
    2.4497   -1.9423    0.6515 H   0  0  0  0  0  0  0  0  0  0  0  0
    3.3024    0.1968   -0.4756 H   0  0  0  0  0  0  0  0  0  0  0  0
    1.2648    1.4791   -1.3968 H   0  0  0  0  0  0  0  0  0  0  0  0
    1.0878    1.5774    0.4333 H   0  0  0  0  0  0  0  0  0  0  0  0
   -0.2360   -0.4693   -1.4208 H   0  0  0  0  0  0  0  0  0  0  0  0
   -1.4833    1.7371   -0.5052 H   0  0  0  0  0  0  0  0  0  0  0  0
   -2.4183   -1.2172    0.1263 H   0  0  0  0  0  0  0  0  0  0  0  0
   -3.5028    0.3312   -0.0112 H   0  0  0  0  0  0  0  0  0  0  0  0
  1  2  2  0
  2  3  1  0
  3  4  2  0
  4  5  1  0
  5  6  1  0
  6  7  1  0
  7  8  1  0
  8  9  1  0
  6  2  1  0
  9  7  1  0
  3 10  1  0
  4 11  1  0
  5 12  1  0
  5 13  1  0
  6 14  1  0
  7 15  1  0
  8 16  1  0
  8 17  1  0
M  END
