
     RDKit          3D

 16 16  0  0  0  0  0  0  0  0999 V2000
   -0.9495    2.6879    0.0796 O   0  0  0  0  0  0  0  0  0  0  0  0
   -0.5286    1.5306    0.2210 C   0  0  0  0  0  0  0  0  0  0  0  0
   -1.5524    0.5015    0.4418 C   0  0  0  0  0  0  0  0  0  0  0  0
   -1.1300   -0.6918   -0.4250 C   0  0  0  0  0  0  0  0  0  0  0  0
   -0.1543   -1.4273    0.0747 O   0  0  0  0  0  0  0  0  0  0  0  0
    1.1143   -1.1049    0.1498 C   0  0  0  0  0  0  0  0  0  0  0  0
    1.6393    0.2333   -0.1538 C   0  0  0  0  0  0  0  0  0  0  0  0
    0.8243    1.3362    0.1575 O   0  0  0  0  0  0  0  0  0  0  0  0
   -2.5720    0.8367    0.1788 H   0  0  0  0  0  0  0  0  0  0  0  0
   -1.4925    0.1513    1.5086 H   0  0  0  0  0  0  0  0  0  0  0  0
   -2.0342   -1.2954   -0.6103 H   0  0  0  0  0  0  0  0  0  0  0  0
   -0.8319   -0.2854   -1.4364 H   0  0  0  0  0  0  0  0  0  0  0  0
    1.6822   -1.8329   -0.5118 H   0  0  0  0  0  0  0  0  0  0  0  0
    1.4908   -1.4020    1.1790 H   0  0  0  0  0  0  0  0  0  0  0  0
    2.6004    0.4167    0.3787 H   0  0  0  0  0  0  0  0  0  0  0  0
    1.8939    0.3457   -1.2323 H   0  0  0  0  0  0  0  0  0  0  0  0
  1  2  2  0
  2  3  1  0
  3  4  1  0
  4  5  1  0
  5  6  1  0
  6  7  1  0
  7  8  1  0
  8  2  1  0
  3  9  1  0
  3 10  1  0
  4 11  1  0
  4 12  1  0
  6 13  1  0
  6 14  1  0
  7 15  1  0
  7 16  1  0
M  END
