
     RDKit          3D

 17 18  0  0  0  0  0  0  0  0999 V2000
   -0.2456    1.7222    2.1579 O   0  0  0  0  0  0  0  0  0  0  0  0
   -0.3963    1.1242    1.0432 C   0  0  0  0  0  0  0  0  0  0  0  0
    0.2697    1.4049   -0.1413 O   0  0  0  0  0  0  0  0  0  0  0  0
    0.4806    0.1916   -0.8292 C   0  0  0  0  0  0  0  0  0  0  0  0
    1.8491   -0.3580   -0.4563 C   0  0  0  0  0  0  0  0  0  0  0  0
    1.8348   -0.5586    0.9195 O   0  0  0  0  0  0  0  0  0  0  0  0
   -0.6265   -0.6995   -0.3783 C   0  0  0  0  0  0  0  0  0  0  0  0
   -2.0059   -0.1222   -0.5001 C   0  0  0  0  0  0  0  0  0  0  0  0
   -1.3089    0.0102    0.7795 C   0  0  0  0  0  0  0  0  0  0  0  0
    0.3932    0.4040   -1.9093 H   0  0  0  0  0  0  0  0  0  0  0  0
    2.0743   -1.2922   -0.9713 H   0  0  0  0  0  0  0  0  0  0  0  0
    2.6265    0.4024   -0.6729 H   0  0  0  0  0  0  0  0  0  0  0  0
    2.2095    0.2202    1.3744 H   0  0  0  0  0  0  0  0  0  0  0  0
   -0.5025   -1.7977   -0.3332 H   0  0  0  0  0  0  0  0  0  0  0  0
   -2.8072   -0.8528   -0.6094 H   0  0  0  0  0  0  0  0  0  0  0  0
   -2.1539    0.8199   -1.0911 H   0  0  0  0  0  0  0  0  0  0  0  0
   -1.6908   -0.6186    1.6181 H   0  0  0  0  0  0  0  0  0  0  0  0
  1  2  2  0
  2  3  1  0
  3  4  1  0
  4  5  1  0
  5  6  1  0
  4  7  1  0
  7  8  1  0
  8  9  1  0
  9  2  1  0
  9  7  1  0
  4 10  1  0
  5 11  1  0
  5 12  1  0
  6 13  1  0
  7 14  1  0
  8 15  1  0
  8 16  1  0
  9 17  1  0
M  END
