
     RDKit          3D

 17 17  0  0  0  0  0  0  0  0999 V2000
    1.2544    2.5573   -0.4005 O   0  0  0  0  0  0  0  0  0  0  0  0
    0.6784    1.4813   -0.0878 C   0  0  0  0  0  0  0  0  0  0  0  0
   -0.6748    1.5593    0.4246 C   0  0  0  0  0  0  0  0  0  0  0  0
   -1.4606    0.5245    0.2068 C   0  0  0  0  0  0  0  0  0  0  0  0
   -0.9817   -0.6406   -0.5172 C   0  0  0  0  0  0  0  0  0  0  0  0
   -1.7796   -1.7395   -0.1595 O   0  0  0  0  0  0  0  0  0  0  0  0
    0.4637   -0.9821   -0.3743 C   0  0  0  0  0  0  0  0  0  0  0  0
    1.3824    0.1902   -0.2475 C   0  0  0  0  0  0  0  0  0  0  0  0
    2.3248   -0.0144    0.7633 O   0  0  0  0  0  0  0  0  0  0  0  0
   -1.0340    2.4440    0.9727 H   0  0  0  0  0  0  0  0  0  0  0  0
   -2.4971    0.5350    0.5746 H   0  0  0  0  0  0  0  0  0  0  0  0
   -1.2146   -0.4721   -1.6113 H   0  0  0  0  0  0  0  0  0  0  0  0
   -1.6761   -1.9714    0.7980 H   0  0  0  0  0  0  0  0  0  0  0  0
    0.7452   -1.6409   -1.2277 H   0  0  0  0  0  0  0  0  0  0  0  0
    0.5716   -1.6207    0.5289 H   0  0  0  0  0  0  0  0  0  0  0  0
    1.9674    0.2768   -1.1894 H   0  0  0  0  0  0  0  0  0  0  0  0
    1.9307   -0.4867    1.5462 H   0  0  0  0  0  0  0  0  0  0  0  0
  1  2  2  0
  2  3  1  0
  3  4  2  0
  4  5  1  0
  5  6  1  0
  5  7  1  0
  7  8  1  0
  8  9  1  0
  8  2  1  0
  3 10  1  0
  4 11  1  0
  5 12  1  0
  6 13  1  0
  7 14  1  0
  7 15  1  0
  8 16  1  0
  9 17  1  0
M  END
