
     RDKit          3D

 17 18  0  0  0  0  0  0  0  0999 V2000
   -2.5141   -0.5907   -1.9560 O   0  0  0  0  0  0  0  0  0  0  0  0
   -2.1508   -0.2384   -0.8076 C   0  0  0  0  0  0  0  0  0  0  0  0
   -2.7336   -0.1784    0.4467 O   0  0  0  0  0  0  0  0  0  0  0  0
   -1.6196    0.5763    0.9403 C   0  0  0  0  0  0  0  0  0  0  0  0
   -0.8561    0.2912   -0.3106 C   0  0  0  0  0  0  0  0  0  0  0  0
    0.1604   -0.8131   -0.2450 C   0  0  0  0  0  0  0  0  0  0  0  0
    1.4999   -0.3843    0.2438 C   0  0  0  0  0  0  0  0  0  0  0  0
    2.3178    0.5896   -0.3674 C   0  0  0  0  0  0  0  0  0  0  0  0
    2.6292   -0.8206   -0.6427 O   0  0  0  0  0  0  0  0  0  0  0  0
   -1.2364    0.1756    1.8800 H   0  0  0  0  0  0  0  0  0  0  0  0
   -1.8580    1.6770    1.0195 H   0  0  0  0  0  0  0  0  0  0  0  0
   -0.5331    1.1882   -0.8708 H   0  0  0  0  0  0  0  0  0  0  0  0
   -0.2672   -1.6270    0.3849 H   0  0  0  0  0  0  0  0  0  0  0  0
    0.2337   -1.2402   -1.2839 H   0  0  0  0  0  0  0  0  0  0  0  0
    1.7685   -0.7673    1.2684 H   0  0  0  0  0  0  0  0  0  0  0  0
    1.9975    1.1138   -1.2925 H   0  0  0  0  0  0  0  0  0  0  0  0
    3.1619    1.0482    0.1856 H   0  0  0  0  0  0  0  0  0  0  0  0
  1  2  2  0
  2  3  1  0
  3  4  1  0
  4  5  1  0
  5  6  1  0
  6  7  1  0
  7  8  1  0
  8  9  1  0
  5  2  1  0
  9  7  1  0
  4 10  1  0
  4 11  1  0
  5 12  1  0
  6 13  1  0
  6 14  1  0
  7 15  1  0
  8 16  1  0
  8 17  1  0
M  END
