
     RDKit          3D

 15 16  0  0  0  0  0  0  0  0999 V2000
    1.0066   -2.3480   -0.7355 O   0  0  0  0  0  0  0  0  0  0  0  0
    0.6914   -1.2333   -0.3876 C   0  0  0  0  0  0  0  0  0  0  0  0
    1.5932   -0.2772    0.2838 C   0  0  0  0  0  0  0  0  0  0  0  0
    0.8258    0.9708    0.3575 C   0  0  0  0  0  0  0  0  0  0  0  0
    1.2804    2.0541    0.6706 O   0  0  0  0  0  0  0  0  0  0  0  0
   -0.5942    0.7481   -0.0016 C   0  0  0  0  0  0  0  0  0  0  0  0
   -1.3417    1.7751   -0.5528 O   0  0  0  0  0  0  0  0  0  0  0  0
   -1.3810   -0.3345    0.6991 C   0  0  0  0  0  0  0  0  0  0  0  0
   -0.6487   -0.6255   -0.5696 C   0  0  0  0  0  0  0  0  0  0  0  0
    1.9367   -0.6376    1.2766 H   0  0  0  0  0  0  0  0  0  0  0  0
    2.5078   -0.1922   -0.3609 H   0  0  0  0  0  0  0  0  0  0  0  0
   -1.2707    1.8022   -1.5528 H   0  0  0  0  0  0  0  0  0  0  0  0
   -0.9561   -0.7265    1.6605 H   0  0  0  0  0  0  0  0  0  0  0  0
   -2.4712   -0.2393    0.7316 H   0  0  0  0  0  0  0  0  0  0  0  0
   -1.1782   -0.7362   -1.5191 H   0  0  0  0  0  0  0  0  0  0  0  0
  1  2  2  0
  2  3  1  0
  3  4  1  0
  4  5  2  0
  4  6  1  0
  6  7  1  0
  6  8  1  0
  8  9  1  0
  9  2  1  0
  9  6  1  0
  3 10  1  0
  3 11  1  0
  7 12  1  0
  8 13  1  0
  8 14  1  0
  9 15  1  0
M  END
