
     RDKit          3D

 17 18  0  0  0  0  0  0  0  0999 V2000
    0.3812   -1.6383    1.7123 O   0  0  0  0  0  0  0  0  0  0  0  0
    0.4701   -0.7748    0.8563 C   0  0  0  0  0  0  0  0  0  0  0  0
    1.7100   -0.4652    0.0503 C   0  0  0  0  0  0  0  0  0  0  0  0
    1.4306    0.9334   -0.4029 C   0  0  0  0  0  0  0  0  0  0  0  0
    0.2387    1.3420    0.1856 O   0  0  0  0  0  0  0  0  0  0  0  0
   -0.4839    0.1973    0.3282 C   0  0  0  0  0  0  0  0  0  0  0  0
   -1.8604    0.2192    0.7997 C   0  0  0  0  0  0  0  0  0  0  0  0
   -2.1762   -0.7861   -0.1430 O   0  0  0  0  0  0  0  0  0  0  0  0
   -1.1460   -0.3147   -0.9293 C   0  0  0  0  0  0  0  0  0  0  0  0
    1.6677   -1.1861   -0.8104 H   0  0  0  0  0  0  0  0  0  0  0  0
    2.6206   -0.5951    0.6292 H   0  0  0  0  0  0  0  0  0  0  0  0
    1.2932    1.0043   -1.5114 H   0  0  0  0  0  0  0  0  0  0  0  0
    2.2780    1.6102   -0.1225 H   0  0  0  0  0  0  0  0  0  0  0  0
   -2.0803   -0.1009    1.8370 H   0  0  0  0  0  0  0  0  0  0  0  0
   -2.4105    1.1208    0.5305 H   0  0  0  0  0  0  0  0  0  0  0  0
   -0.5543   -1.1033   -1.4152 H   0  0  0  0  0  0  0  0  0  0  0  0
   -1.3786    0.5373   -1.5945 H   0  0  0  0  0  0  0  0  0  0  0  0
  1  2  2  0
  2  3  1  0
  3  4  1  0
  4  5  1  0
  5  6  1  0
  6  7  1  0
  7  8  1  0
  8  9  1  0
  6  2  1  0
  9  6  1  0
  3 10  1  0
  3 11  1  0
  4 12  1  0
  4 13  1  0
  7 14  1  0
  7 15  1  0
  9 16  1  0
  9 17  1  0
M  END
