
     RDKit          3D

 19 20  0  0  0  0  0  0  0  0999 V2000
   -0.1945    2.9260    0.4144 O   0  0  0  0  0  0  0  0  0  0  0  0
   -0.0191    1.6927    0.2398 C   0  0  0  0  0  0  0  0  0  0  0  0
    1.3388    1.1714    0.3788 C   0  0  0  0  0  0  0  0  0  0  0  0
    1.8148   -0.0634    0.1394 C   0  0  0  0  0  0  0  0  0  0  0  0
    0.9889   -1.2903    0.1468 C   0  0  0  0  0  0  0  0  0  0  0  0
   -0.4320   -1.1138   -0.2213 C   0  0  0  0  0  0  0  0  0  0  0  0
   -1.2679   -0.3799    0.7758 C   0  0  0  0  0  0  0  0  0  0  0  0
   -1.2214    0.8495   -0.0989 C   0  0  0  0  0  0  0  0  0  0  0  0
   -0.7457   -0.0735   -1.2315 C   0  0  0  0  0  0  0  0  0  0  0  0
    2.0845    1.9006    0.7332 H   0  0  0  0  0  0  0  0  0  0  0  0
    2.8652   -0.1666   -0.0714 H   0  0  0  0  0  0  0  0  0  0  0  0
    1.0126   -1.6642    1.2138 H   0  0  0  0  0  0  0  0  0  0  0  0
    1.4848   -2.0628   -0.4441 H   0  0  0  0  0  0  0  0  0  0  0  0
   -0.8584   -2.1039   -0.5603 H   0  0  0  0  0  0  0  0  0  0  0  0
   -0.8734   -0.2708    1.7880 H   0  0  0  0  0  0  0  0  0  0  0  0
   -2.3180   -0.7899    0.7680 H   0  0  0  0  0  0  0  0  0  0  0  0
   -2.1464    1.3816   -0.2775 H   0  0  0  0  0  0  0  0  0  0  0  0
   -1.6176   -0.2880   -1.8835 H   0  0  0  0  0  0  0  0  0  0  0  0
    0.1049    0.3455   -1.8093 H   0  0  0  0  0  0  0  0  0  0  0  0
  1  2  2  0
  2  3  1  0
  3  4  2  0
  4  5  1  0
  5  6  1  0
  6  7  1  0
  7  8  1  0
  8  9  1  0
  8  2  1  0
  9  6  1  0
  3 10  1  0
  4 11  1  0
  5 12  1  0
  5 13  1  0
  6 14  1  0
  7 15  1  0
  7 16  1  0
  8 17  1  0
  9 18  1  0
  9 19  1  0
M  END
