
     RDKit          3D

 17 18  0  0  0  0  0  0  0  0999 V2000
    3.4717    0.6081   -1.1907 O   0  0  0  0  0  0  0  0  0  0  0  0
    2.3346    0.6246   -0.6974 C   0  0  0  0  0  0  0  0  0  0  0  0
    1.7275    0.7196    0.6443 C   0  0  0  0  0  0  0  0  0  0  0  0
    0.6350    0.0146   -0.0448 C   0  0  0  0  0  0  0  0  0  0  0  0
    0.1878   -1.3320    0.1965 C   0  0  0  0  0  0  0  0  0  0  0  0
   -0.7368   -0.1260    0.3927 C   0  0  0  0  0  0  0  0  0  0  0  0
   -1.8957   -0.0064   -0.6017 C   0  0  0  0  0  0  0  0  0  0  0  0
   -3.0816   -0.1905    0.1348 O   0  0  0  0  0  0  0  0  0  0  0  0
    1.0650    0.5562   -1.2324 O   0  0  0  0  0  0  0  0  0  0  0  0
    1.5207    1.7753    0.8873 H   0  0  0  0  0  0  0  0  0  0  0  0
    2.2606    0.1839    1.4531 H   0  0  0  0  0  0  0  0  0  0  0  0
    0.5127   -1.8559    1.1077 H   0  0  0  0  0  0  0  0  0  0  0  0
   -0.0024   -1.9877   -0.6789 H   0  0  0  0  0  0  0  0  0  0  0  0
   -0.9901    0.0959    1.4481 H   0  0  0  0  0  0  0  0  0  0  0  0
   -1.8861    1.0189   -1.0231 H   0  0  0  0  0  0  0  0  0  0  0  0
   -1.8423   -0.7890   -1.3791 H   0  0  0  0  0  0  0  0  0  0  0  0
   -3.2807    0.6905    0.5836 H   0  0  0  0  0  0  0  0  0  0  0  0
  1  2  2  0
  2  3  1  0
  3  4  1  0
  4  5  1  0
  5  6  1  0
  6  7  1  0
  7  8  1  0
  4  9  1  0
  9  2  1  0
  6  4  1  0
  3 10  1  0
  3 11  1  0
  5 12  1  0
  5 13  1  0
  6 14  1  0
  7 15  1  0
  7 16  1  0
  8 17  1  0
M  END
