
     RDKit          3D

 17 19  0  0  0  0  0  0  0  0999 V2000
   -1.1511   -1.8999    1.3705 O   0  0  0  0  0  0  0  0  0  0  0  0
   -0.6735   -1.2357    0.4802 C   0  0  0  0  0  0  0  0  0  0  0  0
   -1.5278   -0.2831   -0.3175 C   0  0  0  0  0  0  0  0  0  0  0  0
   -1.0822    1.1366   -0.0392 C   0  0  0  0  0  0  0  0  0  0  0  0
    0.4344    1.1852   -0.0384 C   0  0  0  0  0  0  0  0  0  0  0  0
    1.0115    0.8571    1.2039 O   0  0  0  0  0  0  0  0  0  0  0  0
    1.6397   -0.2585    0.6939 C   0  0  0  0  0  0  0  0  0  0  0  0
    0.7675   -1.2849    0.0870 C   0  0  0  0  0  0  0  0  0  0  0  0
    1.0658   -0.0180   -0.6336 C   0  0  0  0  0  0  0  0  0  0  0  0
   -2.5752   -0.4038   -0.0440 H   0  0  0  0  0  0  0  0  0  0  0  0
   -1.3033   -0.5164   -1.3853 H   0  0  0  0  0  0  0  0  0  0  0  0
   -1.4120    1.8246   -0.8440 H   0  0  0  0  0  0  0  0  0  0  0  0
   -1.4920    1.4332    0.9630 H   0  0  0  0  0  0  0  0  0  0  0  0
    0.8398    2.1350   -0.4231 H   0  0  0  0  0  0  0  0  0  0  0  0
    2.7053   -0.4527    0.8825 H   0  0  0  0  0  0  0  0  0  0  0  0
    1.1457   -2.1968   -0.3890 H   0  0  0  0  0  0  0  0  0  0  0  0
    1.6074   -0.0218   -1.5667 H   0  0  0  0  0  0  0  0  0  0  0  0
  1  2  2  0
  2  3  1  0
  3  4  1  0
  4  5  1  0
  5  6  1  0
  6  7  1  0
  7  8  1  0
  8  9  1  0
  8  2  1  0
  9  5  1  0
  9  7  1  0
  3 10  1  0
  3 11  1  0
  4 12  1  0
  4 13  1  0
  5 14  1  0
  7 15  1  0
  8 16  1  0
  9 17  1  0
M  END
