
     RDKit          3D

 17 17  0  0  0  0  0  0  0  0999 V2000
    0.1721    2.0781    1.2470 O   0  0  0  0  0  0  0  0  0  0  0  0
   -0.3737    1.1976    0.5418 C   0  0  0  0  0  0  0  0  0  0  0  0
   -1.7893    0.9109    0.4717 C   0  0  0  0  0  0  0  0  0  0  0  0
   -1.9432   -0.2845   -0.0517 C   0  0  0  0  0  0  0  0  0  0  0  0
   -0.6555   -0.9144   -0.3832 C   0  0  0  0  0  0  0  0  0  0  0  0
   -0.6632   -1.4066   -1.6837 O   0  0  0  0  0  0  0  0  0  0  0  0
    0.3292    0.2666   -0.3687 C   0  0  0  0  0  0  0  0  0  0  0  0
    1.6609   -0.1770    0.1833 C   0  0  0  0  0  0  0  0  0  0  0  0
    2.4448    0.9595    0.3627 O   0  0  0  0  0  0  0  0  0  0  0  0
   -2.6199    1.5780    0.8007 H   0  0  0  0  0  0  0  0  0  0  0  0
   -2.9056   -0.7467   -0.2174 H   0  0  0  0  0  0  0  0  0  0  0  0
   -0.3361   -1.6488    0.3599 H   0  0  0  0  0  0  0  0  0  0  0  0
   -0.0009   -2.1147   -1.7918 H   0  0  0  0  0  0  0  0  0  0  0  0
    0.4028    0.7288   -1.3583 H   0  0  0  0  0  0  0  0  0  0  0  0
    2.1369   -0.8295   -0.5660 H   0  0  0  0  0  0  0  0  0  0  0  0
    1.4740   -0.6877    1.1533 H   0  0  0  0  0  0  0  0  0  0  0  0
    2.6666    1.0904    1.3002 H   0  0  0  0  0  0  0  0  0  0  0  0
  1  2  2  0
  2  3  1  0
  3  4  2  0
  4  5  1  0
  5  6  1  0
  5  7  1  0
  7  8  1  0
  8  9  1  0
  7  2  1  0
  3 10  1  0
  4 11  1  0
  5 12  1  0
  6 13  1  0
  7 14  1  0
  8 15  1  0
  8 16  1  0
  9 17  1  0
M  END
