
     RDKit          3D

 17 19  0  0  0  0  0  0  0  0999 V2000
   -2.3577   -1.6060    1.1416 O   0  0  0  0  0  0  0  0  0  0  0  0
   -1.8058   -0.7798    0.4809 C   0  0  0  0  0  0  0  0  0  0  0  0
   -1.7801    0.7250    0.3858 C   0  0  0  0  0  0  0  0  0  0  0  0
   -0.6443    0.6936   -0.5704 C   0  0  0  0  0  0  0  0  0  0  0  0
   -0.8092   -0.7995   -0.6459 C   0  0  0  0  0  0  0  0  0  0  0  0
    0.4770   -0.1994   -0.3506 C   0  0  0  0  0  0  0  0  0  0  0  0
    1.2435   -0.3551    0.8949 C   0  0  0  0  0  0  0  0  0  0  0  0
    2.2983    0.3004   -0.0043 C   0  0  0  0  0  0  0  0  0  0  0  0
    1.6030   -0.2685   -1.0905 O   0  0  0  0  0  0  0  0  0  0  0  0
   -2.7660    1.0323   -0.0710 H   0  0  0  0  0  0  0  0  0  0  0  0
   -1.6084    1.2401    1.3418 H   0  0  0  0  0  0  0  0  0  0  0  0
   -0.7805    1.2369   -1.5132 H   0  0  0  0  0  0  0  0  0  0  0  0
   -1.0831   -1.2853   -1.5891 H   0  0  0  0  0  0  0  0  0  0  0  0
    0.9689    0.2169    1.7791 H   0  0  0  0  0  0  0  0  0  0  0  0
    1.5197   -1.4264    1.0705 H   0  0  0  0  0  0  0  0  0  0  0  0
    3.2732   -0.1294    0.2080 H   0  0  0  0  0  0  0  0  0  0  0  0
    2.2515    1.4042    0.0053 H   0  0  0  0  0  0  0  0  0  0  0  0
  1  2  2  0
  2  3  1  0
  3  4  1  0
  4  5  1  0
  5  6  1  0
  6  7  1  0
  7  8  1  0
  8  9  1  0
  5  2  1  0
  9  6  1  0
  6  4  1  0
  3 10  1  0
  3 11  1  0
  4 12  1  0
  5 13  1  0
  7 14  1  0
  7 15  1  0
  8 16  1  0
  8 17  1  0
M  END
