
     RDKit          3D

 19 20  0  0  0  0  0  0  0  0999 V2000
    2.1850    1.5549   -0.3270 O   0  0  0  0  0  0  0  0  0  0  0  0
    1.3380    0.7416   -0.1181 C   0  0  0  0  0  0  0  0  0  0  0  0
    1.4477   -0.7293   -0.1350 C   0  0  0  0  0  0  0  0  0  0  0  0
    0.1251   -1.2086    0.4427 C   0  0  0  0  0  0  0  0  0  0  0  0
   -0.8792   -1.0720   -0.6493 C   0  0  0  0  0  0  0  0  0  0  0  0
   -1.0276    0.4314   -0.7920 C   0  0  0  0  0  0  0  0  0  0  0  0
   -0.0707    1.0290    0.2190 C   0  0  0  0  0  0  0  0  0  0  0  0
   -0.3493    2.2853    0.6071 O   0  0  0  0  0  0  0  0  0  0  0  0
   -0.2609   -0.0191    1.3373 C   0  0  0  0  0  0  0  0  0  0  0  0
    1.5203   -1.0410   -1.2183 H   0  0  0  0  0  0  0  0  0  0  0  0
    2.3087   -1.1278    0.3979 H   0  0  0  0  0  0  0  0  0  0  0  0
    0.1684   -2.1429    0.9616 H   0  0  0  0  0  0  0  0  0  0  0  0
   -0.4047   -1.4896   -1.5853 H   0  0  0  0  0  0  0  0  0  0  0  0
   -1.8442   -1.5757   -0.4404 H   0  0  0  0  0  0  0  0  0  0  0  0
   -2.0427    0.6900   -0.4899 H   0  0  0  0  0  0  0  0  0  0  0  0
   -0.8069    0.7513   -1.8252 H   0  0  0  0  0  0  0  0  0  0  0  0
   -0.5722    2.8421   -0.1674 H   0  0  0  0  0  0  0  0  0  0  0  0
   -1.3046   -0.0753    1.6550 H   0  0  0  0  0  0  0  0  0  0  0  0
    0.4700    0.1558    2.1274 H   0  0  0  0  0  0  0  0  0  0  0  0
  1  2  2  0
  2  3  1  0
  3  4  1  0
  4  5  1  0
  5  6  1  0
  6  7  1  0
  7  8  1  0
  7  9  1  0
  7  2  1  0
  9  4  1  0
  3 10  1  0
  3 11  1  0
  4 12  1  0
  5 13  1  0
  5 14  1  0
  6 15  1  0
  6 16  1  0
  8 17  1  0
  9 18  1  0
  9 19  1  0
M  END
