
     RDKit          3D

 17 17  0  0  0  0  0  0  0  0999 V2000
    2.2473   -2.0518   -0.0028 O   0  0  0  0  0  0  0  0  0  0  0  0
    1.3431   -1.1893   -0.0712 C   0  0  0  0  0  0  0  0  0  0  0  0
    1.8179    0.2097   -0.0629 C   0  0  0  0  0  0  0  0  0  0  0  0
    0.9663    0.9793    0.6868 O   0  0  0  0  0  0  0  0  0  0  0  0
    0.0257    1.6674   -0.0729 C   0  0  0  0  0  0  0  0  0  0  0  0
   -0.5980    0.7148   -0.8884 O   0  0  0  0  0  0  0  0  0  0  0  0
   -1.5670    0.0710   -0.1618 C   0  0  0  0  0  0  0  0  0  0  0  0
   -1.2046   -1.3122    0.2791 C   0  0  0  0  0  0  0  0  0  0  0  0
    0.0740   -1.7270   -0.1411 O   0  0  0  0  0  0  0  0  0  0  0  0
    1.8926    0.5307   -1.1229 H   0  0  0  0  0  0  0  0  0  0  0  0
    2.8178    0.2318    0.4312 H   0  0  0  0  0  0  0  0  0  0  0  0
    0.4732    2.4951   -0.6543 H   0  0  0  0  0  0  0  0  0  0  0  0
   -0.6933    2.1178    0.6413 H   0  0  0  0  0  0  0  0  0  0  0  0
   -1.8212    0.6675    0.7406 H   0  0  0  0  0  0  0  0  0  0  0  0
   -2.5095    0.0681   -0.7792 H   0  0  0  0  0  0  0  0  0  0  0  0
   -1.3335   -1.4395    1.3778 H   0  0  0  0  0  0  0  0  0  0  0  0
   -1.9307   -2.0332   -0.1994 H   0  0  0  0  0  0  0  0  0  0  0  0
  1  2  2  0
  2  3  1  0
  3  4  1  0
  4  5  1  0
  5  6  1  0
  6  7  1  0
  7  8  1  0
  8  9  1  0
  9  2  1  0
  3 10  1  0
  3 11  1  0
  5 12  1  0
  5 13  1  0
  7 14  1  0
  7 15  1  0
  8 16  1  0
  8 17  1  0
M  END
