
     RDKit          3D

 15 17  0  0  0  0  0  0  0  0999 V2000
   -2.6326   -0.5372    1.2924 O   0  0  0  0  0  0  0  0  0  0  0  0
   -1.4527   -0.4488    0.8656 C   0  0  0  0  0  0  0  0  0  0  0  0
   -0.3143   -1.1477    1.2323 O   0  0  0  0  0  0  0  0  0  0  0  0
    0.5279   -1.3429    0.1088 C   0  0  0  0  0  0  0  0  0  0  0  0
    1.2734   -0.2273   -0.5020 C   0  0  0  0  0  0  0  0  0  0  0  0
    1.2307    1.0680    0.2176 C   0  0  0  0  0  0  0  0  0  0  0  0
   -0.0184    1.4635    0.3808 C   0  0  0  0  0  0  0  0  0  0  0  0
   -0.9734    0.4905   -0.2049 C   0  0  0  0  0  0  0  0  0  0  0  0
   -0.0756   -0.4240   -0.9871 C   0  0  0  0  0  0  0  0  0  0  0  0
    0.6937   -2.3907   -0.1405 H   0  0  0  0  0  0  0  0  0  0  0  0
    2.1720   -0.4704   -1.0690 H   0  0  0  0  0  0  0  0  0  0  0  0
    2.1076    1.6073    0.5581 H   0  0  0  0  0  0  0  0  0  0  0  0
   -0.3543    2.3847    0.8786 H   0  0  0  0  0  0  0  0  0  0  0  0
   -1.7843    0.9376   -0.7719 H   0  0  0  0  0  0  0  0  0  0  0  0
   -0.3998   -0.9627   -1.8590 H   0  0  0  0  0  0  0  0  0  0  0  0
  1  2  2  0
  2  3  1  0
  3  4  1  0
  4  5  1  0
  5  6  1  0
  6  7  2  0
  7  8  1  0
  8  9  1  0
  8  2  1  0
  9  4  1  0
  9  5  1  0
  4 10  1  0
  5 11  1  0
  6 12  1  0
  7 13  1  0
  8 14  1  0
  9 15  1  0
M  END
