
     RDKit          3D

 14 15  0  0  0  0  0  0  0  0999 V2000
    1.5988    2.1822   -0.5141 O   0  0  0  0  0  0  0  0  0  0  0  0
    0.6393    1.4062   -0.3006 C   0  0  0  0  0  0  0  0  0  0  0  0
   -0.7104    1.6223   -0.4053 O   0  0  0  0  0  0  0  0  0  0  0  0
   -1.4572    0.5006    0.0288 C   0  0  0  0  0  0  0  0  0  0  0  0
   -0.5047   -0.6222    0.2524 C   0  0  0  0  0  0  0  0  0  0  0  0
    0.3891   -1.0252   -0.8454 C   0  0  0  0  0  0  0  0  0  0  0  0
    0.8314   -0.0030    0.1413 C   0  0  0  0  0  0  0  0  0  0  0  0
    1.7305   -0.2873    1.1373 O   0  0  0  0  0  0  0  0  0  0  0  0
   -1.9644    0.8088    0.9855 H   0  0  0  0  0  0  0  0  0  0  0  0
   -2.1891    0.2068   -0.7398 H   0  0  0  0  0  0  0  0  0  0  0  0
   -0.7793   -1.3163    1.0670 H   0  0  0  0  0  0  0  0  0  0  0  0
    0.1531   -0.7212   -1.8965 H   0  0  0  0  0  0  0  0  0  0  0  0
    0.9502   -1.9797   -0.8129 H   0  0  0  0  0  0  0  0  0  0  0  0
    1.3129   -0.7720    1.9023 H   0  0  0  0  0  0  0  0  0  0  0  0
  1  2  2  0
  2  3  1  0
  3  4  1  0
  4  5  1  0
  5  6  1  0
  6  7  1  0
  7  8  1  0
  7  2  1  0
  7  5  1  0
  4  9  1  0
  4 10  1  0
  5 11  1  0
  6 12  1  0
  6 13  1  0
  8 14  1  0
M  END
