
     RDKit          3D

 19 19  0  0  0  0  0  0  0  0999 V2000
    0.5905    3.0032   -0.3941 O   0  0  0  0  0  0  0  0  0  0  0  0
    0.4047    1.7787   -0.3070 C   0  0  0  0  0  0  0  0  0  0  0  0
    1.6413    1.0356   -0.0722 C   0  0  0  0  0  0  0  0  0  0  0  0
    1.9711   -0.2459   -0.0028 C   0  0  0  0  0  0  0  0  0  0  0  0
    1.2151   -1.4870   -0.1358 C   0  0  0  0  0  0  0  0  0  0  0  0
   -0.0699   -1.7979   -0.0648 C   0  0  0  0  0  0  0  0  0  0  0  0
   -1.3313   -1.1099    0.1689 C   0  0  0  0  0  0  0  0  0  0  0  0
   -1.2463    0.2912    0.6298 C   0  0  0  0  0  0  0  0  0  0  0  0
   -1.0013    1.3097   -0.4537 C   0  0  0  0  0  0  0  0  0  0  0  0
    2.4962    1.6937    0.0828 H   0  0  0  0  0  0  0  0  0  0  0  0
    3.0427   -0.4018    0.1976 H   0  0  0  0  0  0  0  0  0  0  0  0
    1.8749   -2.3435   -0.3401 H   0  0  0  0  0  0  0  0  0  0  0  0
   -0.2196   -2.8576   -0.2254 H   0  0  0  0  0  0  0  0  0  0  0  0
   -1.9436   -1.1761   -0.7511 H   0  0  0  0  0  0  0  0  0  0  0  0
   -1.9075   -1.6973    0.9420 H   0  0  0  0  0  0  0  0  0  0  0  0
   -2.2420    0.5667    1.0893 H   0  0  0  0  0  0  0  0  0  0  0  0
   -0.5160    0.4221    1.4559 H   0  0  0  0  0  0  0  0  0  0  0  0
   -1.6542    2.2041   -0.3643 H   0  0  0  0  0  0  0  0  0  0  0  0
   -1.1047    0.8118   -1.4548 H   0  0  0  0  0  0  0  0  0  0  0  0
  1  2  2  0
  2  3  1  0
  3  4  2  3
  4  5  1  0
  5  6  2  3
  6  7  1  0
  7  8  1  0
  8  9  1  0
  9  2  1  0
  3 10  1  0
  4 11  1  0
  5 12  1  0
  6 13  1  0
  7 14  1  0
  7 15  1  0
  8 16  1  0
  8 17  1  0
  9 18  1  0
  9 19  1  0
M  END
