
     RDKit          3D

 17 17  0  0  0  0  0  0  0  0999 V2000
   -2.8353    1.1886    0.5971 O   0  0  0  0  0  0  0  0  0  0  0  0
   -1.8265    0.4792    0.3704 C   0  0  0  0  0  0  0  0  0  0  0  0
   -1.6884   -0.9482    0.5453 C   0  0  0  0  0  0  0  0  0  0  0  0
   -0.5103   -1.3479    0.0951 C   0  0  0  0  0  0  0  0  0  0  0  0
    0.2794   -0.2292   -0.4354 C   0  0  0  0  0  0  0  0  0  0  0  0
    0.4671   -0.3052   -1.7915 O   0  0  0  0  0  0  0  0  0  0  0  0
    1.5974   -0.1939    0.3258 C   0  0  0  0  0  0  0  0  0  0  0  0
    2.2797    0.9435   -0.1235 O   0  0  0  0  0  0  0  0  0  0  0  0
   -0.5455    0.9945   -0.1365 C   0  0  0  0  0  0  0  0  0  0  0  0
   -2.4681   -1.5848    0.9918 H   0  0  0  0  0  0  0  0  0  0  0  0
   -0.2068   -2.3937    0.1345 H   0  0  0  0  0  0  0  0  0  0  0  0
   -0.3017    0.0178   -2.2956 H   0  0  0  0  0  0  0  0  0  0  0  0
    2.1414   -1.1198    0.1287 H   0  0  0  0  0  0  0  0  0  0  0  0
    1.4287   -0.0384    1.4091 H   0  0  0  0  0  0  0  0  0  0  0  0
    2.9549    1.2485    0.5304 H   0  0  0  0  0  0  0  0  0  0  0  0
   -0.6646    1.6609   -1.0149 H   0  0  0  0  0  0  0  0  0  0  0  0
   -0.1012    1.6281    0.6691 H   0  0  0  0  0  0  0  0  0  0  0  0
  1  2  2  0
  2  3  1  0
  3  4  2  0
  4  5  1  0
  5  6  1  0
  5  7  1  0
  7  8  1  0
  5  9  1  0
  9  2  1  0
  3 10  1  0
  4 11  1  0
  6 12  1  0
  7 13  1  0
  7 14  1  0
  8 15  1  0
  9 16  1  0
  9 17  1  0
M  END
