
     RDKit          3D

 19 21  0  0  0  0  0  0  0  0999 V2000
    0.9158   -1.7219    2.0926 O   0  0  0  0  0  0  0  0  0  0  0  0
    0.7854   -0.9465    1.1847 C   0  0  0  0  0  0  0  0  0  0  0  0
    1.2838   -1.1421   -0.2366 C   0  0  0  0  0  0  0  0  0  0  0  0
    0.7750    0.1770   -0.8121 C   0  0  0  0  0  0  0  0  0  0  0  0
    1.2396    1.1342    0.2985 C   0  0  0  0  0  0  0  0  0  0  0  0
    0.1430    0.3962    1.0888 C   0  0  0  0  0  0  0  0  0  0  0  0
   -0.5568    0.2957   -0.2024 C   0  0  0  0  0  0  0  0  0  0  0  0
   -1.7460    0.8660   -0.6830 C   0  0  0  0  0  0  0  0  0  0  0  0
   -1.6741   -0.6130   -0.3311 C   0  0  0  0  0  0  0  0  0  0  0  0
    2.3760   -1.1838   -0.2605 H   0  0  0  0  0  0  0  0  0  0  0  0
    0.7686   -1.9774   -0.7091 H   0  0  0  0  0  0  0  0  0  0  0  0
    0.9974    0.4265   -1.8091 H   0  0  0  0  0  0  0  0  0  0  0  0
    0.9470    2.1743    0.1521 H   0  0  0  0  0  0  0  0  0  0  0  0
    2.2537    0.9332    0.6348 H   0  0  0  0  0  0  0  0  0  0  0  0
   -0.2507    0.8608    1.9418 H   0  0  0  0  0  0  0  0  0  0  0  0
   -1.8893    1.0313   -1.7716 H   0  0  0  0  0  0  0  0  0  0  0  0
   -2.3992    1.5252   -0.0442 H   0  0  0  0  0  0  0  0  0  0  0  0
   -1.7380   -1.3658   -1.1317 H   0  0  0  0  0  0  0  0  0  0  0  0
   -2.2312   -0.8700    0.5983 H   0  0  0  0  0  0  0  0  0  0  0  0
  1  2  2  0
  2  3  1  0
  3  4  1  0
  4  5  1  0
  5  6  1  0
  6  7  1  0
  7  8  1  0
  8  9  1  0
  6  2  1  0
  9  7  1  0
  7  4  1  0
  3 10  1  0
  3 11  1  0
  4 12  1  0
  5 13  1  0
  5 14  1  0
  6 15  1  0
  8 16  1  0
  8 17  1  0
  9 18  1  0
  9 19  1  0
M  END
