
     RDKit          3D

 15 17  0  0  0  0  0  0  0  0999 V2000
    1.6089   -0.2000   -2.3051 O   0  0  0  0  0  0  0  0  0  0  0  0
    1.2057    0.2225   -1.1868 C   0  0  0  0  0  0  0  0  0  0  0  0
    1.8821    0.5209   -0.0182 O   0  0  0  0  0  0  0  0  0  0  0  0
    0.6447    0.3882    0.6667 C   0  0  0  0  0  0  0  0  0  0  0  0
    0.2296   -0.9845    1.0565 C   0  0  0  0  0  0  0  0  0  0  0  0
   -0.3432   -1.5941   -0.0586 O   0  0  0  0  0  0  0  0  0  0  0  0
   -1.1046   -0.6077   -0.6860 C   0  0  0  0  0  0  0  0  0  0  0  0
   -0.1277    0.5687   -0.6661 C   0  0  0  0  0  0  0  0  0  0  0  0
   -0.3052    1.4969    0.4668 C   0  0  0  0  0  0  0  0  0  0  0  0
    1.1661   -1.5701    1.2743 H   0  0  0  0  0  0  0  0  0  0  0  0
   -0.4038   -1.0406    1.9539 H   0  0  0  0  0  0  0  0  0  0  0  0
   -2.0311   -0.3749   -0.1401 H   0  0  0  0  0  0  0  0  0  0  0  0
   -1.3049   -0.8710   -1.7320 H   0  0  0  0  0  0  0  0  0  0  0  0
    0.1742    2.5185    0.4315 H   0  0  0  0  0  0  0  0  0  0  0  0
   -1.2909    1.5274    0.9434 H   0  0  0  0  0  0  0  0  0  0  0  0
  1  2  2  0
  2  3  1  0
  3  4  1  0
  4  5  1  0
  5  6  1  0
  6  7  1  0
  7  8  1  0
  8  9  1  0
  8  2  1  0
  8  4  1  0
  9  4  1  0
  5 10  1  0
  5 11  1  0
  7 12  1  0
  7 13  1  0
  9 14  1  0
  9 15  1  0
M  END
