
     RDKit          3D

 19 19  0  0  0  0  0  0  0  0999 V2000
    1.8838    1.8902    0.7790 O   0  0  0  0  0  0  0  0  0  0  0  0
    1.2547    1.0361    0.1795 C   0  0  0  0  0  0  0  0  0  0  0  0
    0.0141    1.5561   -0.4885 C   0  0  0  0  0  0  0  0  0  0  0  0
   -0.6917    0.3638   -1.0769 C   0  0  0  0  0  0  0  0  0  0  0  0
   -1.2535   -0.5642   -0.0381 C   0  0  0  0  0  0  0  0  0  0  0  0
   -1.9264    0.1044    0.9747 O   0  0  0  0  0  0  0  0  0  0  0  0
   -0.1668   -1.4188    0.5846 C   0  0  0  0  0  0  0  0  0  0  0  0
    0.9742   -1.3085   -0.1817 O   0  0  0  0  0  0  0  0  0  0  0  0
    1.8417   -0.3200    0.2367 C   0  0  0  0  0  0  0  0  0  0  0  0
    0.3177    2.2031   -1.3418 H   0  0  0  0  0  0  0  0  0  0  0  0
   -0.6093    2.1097    0.2383 H   0  0  0  0  0  0  0  0  0  0  0  0
   -1.4444    0.6181   -1.8340 H   0  0  0  0  0  0  0  0  0  0  0  0
    0.1035   -0.2238   -1.6242 H   0  0  0  0  0  0  0  0  0  0  0  0
   -1.9459   -1.2679   -0.5886 H   0  0  0  0  0  0  0  0  0  0  0  0
   -2.8322   -0.3162    1.0671 H   0  0  0  0  0  0  0  0  0  0  0  0
    0.0315   -1.1337    1.6385 H   0  0  0  0  0  0  0  0  0  0  0  0
   -0.4925   -2.4963    0.6340 H   0  0  0  0  0  0  0  0  0  0  0  0
    2.7283   -0.3562   -0.4286 H   0  0  0  0  0  0  0  0  0  0  0  0
    2.2131   -0.4759    1.2699 H   0  0  0  0  0  0  0  0  0  0  0  0
  1  2  2  0
  2  3  1  0
  3  4  1  0
  4  5  1  0
  5  6  1  0
  5  7  1  0
  7  8  1  0
  8  9  1  0
  9  2  1  0
  3 10  1  0
  3 11  1  0
  4 12  1  0
  4 13  1  0
  5 14  1  0
  6 15  1  0
  7 16  1  0
  7 17  1  0
  9 18  1  0
  9 19  1  0
M  END
