
     RDKit          3D

 17 19  0  0  0  0  0  0  0  0999 V2000
   -3.0550    0.6105    0.9157 O   0  0  0  0  0  0  0  0  0  0  0  0
   -2.0215    0.2769    0.4105 C   0  0  0  0  0  0  0  0  0  0  0  0
   -1.1387   -0.9366    0.2754 C   0  0  0  0  0  0  0  0  0  0  0  0
   -0.0549   -0.0369   -0.1378 C   0  0  0  0  0  0  0  0  0  0  0  0
   -1.0188    1.0340   -0.4248 C   0  0  0  0  0  0  0  0  0  0  0  0
    0.9237   -0.4509   -1.1533 C   0  0  0  0  0  0  0  0  0  0  0  0
    2.0270   -0.0204   -0.1741 C   0  0  0  0  0  0  0  0  0  0  0  0
    1.9380    1.2391    0.3957 O   0  0  0  0  0  0  0  0  0  0  0  0
    1.0568    0.2390    0.8261 C   0  0  0  0  0  0  0  0  0  0  0  0
   -1.0427   -1.5368    1.1782 H   0  0  0  0  0  0  0  0  0  0  0  0
   -1.5841   -1.5798   -0.5377 H   0  0  0  0  0  0  0  0  0  0  0  0
   -0.7211    2.0181    0.0417 H   0  0  0  0  0  0  0  0  0  0  0  0
   -1.3572    1.1707   -1.4669 H   0  0  0  0  0  0  0  0  0  0  0  0
    1.0229    0.1734   -2.0667 H   0  0  0  0  0  0  0  0  0  0  0  0
    1.0547   -1.5454   -1.3346 H   0  0  0  0  0  0  0  0  0  0  0  0
    2.9496   -0.5883   -0.1271 H   0  0  0  0  0  0  0  0  0  0  0  0
    1.0214   -0.0668    1.8637 H   0  0  0  0  0  0  0  0  0  0  0  0
  1  2  2  0
  2  3  1  0
  3  4  1  0
  4  5  1  0
  4  6  1  0
  6  7  1  0
  7  8  1  0
  8  9  1  0
  5  2  1  0
  9  7  1  0
  9  4  1  0
  3 10  1  0
  3 11  1  0
  5 12  1  0
  5 13  1  0
  6 14  1  0
  6 15  1  0
  7 16  1  0
  9 17  1  0
M  END
