
     RDKit          3D

 17 17  0  0  0  0  0  0  0  0999 V2000
   -1.5732    1.7650    1.2092 O   0  0  0  0  0  0  0  0  0  0  0  0
   -1.0487    1.0513    0.3824 C   0  0  0  0  0  0  0  0  0  0  0  0
   -1.7133   -0.2361    0.0343 C   0  0  0  0  0  0  0  0  0  0  0  0
   -0.6797   -1.2852    0.3237 C   0  0  0  0  0  0  0  0  0  0  0  0
   -1.0155   -2.1902    1.0653 O   0  0  0  0  0  0  0  0  0  0  0  0
    0.6353   -1.1406   -0.3004 C   0  0  0  0  0  0  0  0  0  0  0  0
    1.1907    0.2294   -0.3400 C   0  0  0  0  0  0  0  0  0  0  0  0
    2.1428    0.4666    0.6766 O   0  0  0  0  0  0  0  0  0  0  0  0
    0.2100    1.3449   -0.3238 C   0  0  0  0  0  0  0  0  0  0  0  0
   -2.6452   -0.3975    0.5885 H   0  0  0  0  0  0  0  0  0  0  0  0
   -1.8900   -0.1860   -1.0812 H   0  0  0  0  0  0  0  0  0  0  0  0
    1.3420   -1.8269    0.2505 H   0  0  0  0  0  0  0  0  0  0  0  0
    0.5662   -1.5982   -1.3299 H   0  0  0  0  0  0  0  0  0  0  0  0
    1.7845    0.3288   -1.2972 H   0  0  0  0  0  0  0  0  0  0  0  0
    2.0722   -0.1890    1.4035 H   0  0  0  0  0  0  0  0  0  0  0  0
    0.6893    2.2486    0.1221 H   0  0  0  0  0  0  0  0  0  0  0  0
   -0.0676    1.6152   -1.3836 H   0  0  0  0  0  0  0  0  0  0  0  0
  1  2  2  0
  2  3  1  0
  3  4  1  0
  4  5  2  0
  4  6  1  0
  6  7  1  0
  7  8  1  0
  7  9  1  0
  9  2  1  0
  3 10  1  0
  3 11  1  0
  6 12  1  0
  6 13  1  0
  7 14  1  0
  8 15  1  0
  9 16  1  0
  9 17  1  0
M  END
