
     RDKit          3D

 14 15  0  0  0  0  0  0  0  0999 V2000
    0.4504    2.4765   -0.6813 O   0  0  0  0  0  0  0  0  0  0  0  0
    0.2988    1.2984   -0.4208 C   0  0  0  0  0  0  0  0  0  0  0  0
    1.2597    0.1755   -0.2822 C   0  0  0  0  0  0  0  0  0  0  0  0
    2.3212    0.3739    0.5581 O   0  0  0  0  0  0  0  0  0  0  0  0
    0.1095   -0.6211    0.3440 C   0  0  0  0  0  0  0  0  0  0  0  0
   -0.9718   -0.9305   -0.5872 C   0  0  0  0  0  0  0  0  0  0  0  0
   -0.8844    0.4777   -0.1326 C   0  0  0  0  0  0  0  0  0  0  0  0
   -1.8292    0.9073    0.7907 O   0  0  0  0  0  0  0  0  0  0  0  0
    1.5107   -0.2825   -1.2805 H   0  0  0  0  0  0  0  0  0  0  0  0
    2.5193   -0.4930    1.0065 H   0  0  0  0  0  0  0  0  0  0  0  0
    0.0861   -0.7715    1.4158 H   0  0  0  0  0  0  0  0  0  0  0  0
   -0.6870   -1.2186   -1.6325 H   0  0  0  0  0  0  0  0  0  0  0  0
   -1.8217   -1.5176   -0.2114 H   0  0  0  0  0  0  0  0  0  0  0  0
   -2.3615    0.1254    1.1133 H   0  0  0  0  0  0  0  0  0  0  0  0
  1  2  2  0
  2  3  1  0
  3  4  1  0
  3  5  1  0
  5  6  1  0
  6  7  1  0
  7  8  1  0
  7  2  1  0
  7  5  1  0
  3  9  1  0
  4 10  1  0
  5 11  1  0
  6 12  1  0
  6 13  1  0
  8 14  1  0
M  END
