
     RDKit          3D

 19 19  0  0  0  0  0  0  0  0999 V2000
    3.0550   -0.7682   -0.0810 O   0  0  0  0  0  0  0  0  0  0  0  0
    1.8598   -0.3884   -0.0766 C   0  0  0  0  0  0  0  0  0  0  0  0
    1.5726    1.0190    0.2293 C   0  0  0  0  0  0  0  0  0  0  0  0
    0.4566    1.6991   -0.0236 C   0  0  0  0  0  0  0  0  0  0  0  0
   -0.7479    1.1706   -0.6770 C   0  0  0  0  0  0  0  0  0  0  0  0
   -1.3371   -0.0463   -0.0859 C   0  0  0  0  0  0  0  0  0  0  0  0
   -2.1674    0.3421    0.9935 O   0  0  0  0  0  0  0  0  0  0  0  0
   -0.4538   -1.1146    0.3979 C   0  0  0  0  0  0  0  0  0  0  0  0
    0.7829   -1.3986   -0.3858 C   0  0  0  0  0  0  0  0  0  0  0  0
    2.3743    1.5529    0.7177 H   0  0  0  0  0  0  0  0  0  0  0  0
    0.4643    2.7511    0.2964 H   0  0  0  0  0  0  0  0  0  0  0  0
   -1.5531    1.9652   -0.6805 H   0  0  0  0  0  0  0  0  0  0  0  0
   -0.4920    1.0621   -1.7714 H   0  0  0  0  0  0  0  0  0  0  0  0
   -2.0571   -0.5009   -0.8271 H   0  0  0  0  0  0  0  0  0  0  0  0
   -2.3900   -0.4653    1.5556 H   0  0  0  0  0  0  0  0  0  0  0  0
   -1.0466   -2.0747    0.4302 H   0  0  0  0  0  0  0  0  0  0  0  0
   -0.1383   -0.9619    1.4667 H   0  0  0  0  0  0  0  0  0  0  0  0
    0.6217   -1.4710   -1.4682 H   0  0  0  0  0  0  0  0  0  0  0  0
    1.1961   -2.3722   -0.0101 H   0  0  0  0  0  0  0  0  0  0  0  0
  1  2  2  0
  2  3  1  0
  3  4  2  0
  4  5  1  0
  5  6  1  0
  6  7  1  0
  6  8  1  0
  8  9  1  0
  9  2  1  0
  3 10  1  0
  4 11  1  0
  5 12  1  0
  5 13  1  0
  6 14  1  0
  7 15  1  0
  8 16  1  0
  8 17  1  0
  9 18  1  0
  9 19  1  0
M  END
