
     RDKit          3D

 15 16  0  0  0  0  0  0  0  0999 V2000
   -1.7702   -1.7926    0.3060 O   0  0  0  0  0  0  0  0  0  0  0  0
   -0.9841   -0.8861    0.1549 C   0  0  0  0  0  0  0  0  0  0  0  0
   -1.2099    0.3117   -0.7154 C   0  0  0  0  0  0  0  0  0  0  0  0
    0.1641    0.9561   -0.7079 C   0  0  0  0  0  0  0  0  0  0  0  0
    0.4422    0.8076    0.8016 C   0  0  0  0  0  0  0  0  0  0  0  0
    0.3475   -0.7282    0.7621 C   0  0  0  0  0  0  0  0  0  0  0  0
    1.3517   -0.9830   -0.3061 C   0  0  0  0  0  0  0  0  0  0  0  0
    2.1676   -1.9181   -0.3581 O   0  0  0  0  0  0  0  0  0  0  0  0
    1.1478    0.0742   -1.2158 O   0  0  0  0  0  0  0  0  0  0  0  0
   -1.5761    0.0659   -1.7048 H   0  0  0  0  0  0  0  0  0  0  0  0
   -1.8675    0.9972   -0.1311 H   0  0  0  0  0  0  0  0  0  0  0  0
    0.2108    1.9640   -1.0569 H   0  0  0  0  0  0  0  0  0  0  0  0
    1.4345    1.1531    1.0682 H   0  0  0  0  0  0  0  0  0  0  0  0
   -0.3838    1.1795    1.4059 H   0  0  0  0  0  0  0  0  0  0  0  0
    0.5253   -1.2014    1.6973 H   0  0  0  0  0  0  0  0  0  0  0  0
  1  2  2  0
  2  3  1  0
  3  4  1  0
  4  5  1  0
  5  6  1  0
  6  7  1  0
  7  8  2  0
  7  9  1  0
  6  2  1  0
  9  4  1  0
  3 10  1  0
  3 11  1  0
  4 12  1  0
  5 13  1  0
  5 14  1  0
  6 15  1  0
M  END
