
     RDKit          3D

 15 17  0  0  0  0  0  0  0  0999 V2000
   -3.2499    0.6511    0.5293 O   0  0  0  0  0  0  0  0  0  0  0  0
   -2.1108    0.3073    0.2599 C   0  0  0  0  0  0  0  0  0  0  0  0
   -1.1741   -0.7804    0.7324 C   0  0  0  0  0  0  0  0  0  0  0  0
   -0.1856   -0.2541   -0.2964 C   0  0  0  0  0  0  0  0  0  0  0  0
    1.2698   -0.4195   -0.1022 C   0  0  0  0  0  0  0  0  0  0  0  0
    2.1076    0.4825    0.6667 C   0  0  0  0  0  0  0  0  0  0  0  0
    2.0890    0.4642   -0.7773 O   0  0  0  0  0  0  0  0  0  0  0  0
   -0.6585   -0.3792   -1.6053 O   0  0  0  0  0  0  0  0  0  0  0  0
   -1.0112    0.7270   -0.6481 C   0  0  0  0  0  0  0  0  0  0  0  0
   -1.5682   -1.7542    0.3761 H   0  0  0  0  0  0  0  0  0  0  0  0
   -0.8728   -0.7107    1.7717 H   0  0  0  0  0  0  0  0  0  0  0  0
    1.6293   -1.4848   -0.1874 H   0  0  0  0  0  0  0  0  0  0  0  0
    1.7358    1.4218    1.1147 H   0  0  0  0  0  0  0  0  0  0  0  0
    3.0498    0.0885    1.1154 H   0  0  0  0  0  0  0  0  0  0  0  0
   -1.0502    1.6403   -1.2160 H   0  0  0  0  0  0  0  0  0  0  0  0
  1  2  2  0
  2  3  1  0
  3  4  1  0
  4  5  1  0
  5  6  1  0
  6  7  1  0
  4  8  1  0
  8  9  1  0
  9  2  1  0
  9  4  1  0
  7  5  1  0
  3 10  1  0
  3 11  1  0
  5 12  1  0
  6 13  1  0
  6 14  1  0
  9 15  1  0
M  END
