
     RDKit          3D

 15 16  0  0  0  0  0  0  0  0999 V2000
   -0.2428    2.8041   -0.3806 O   0  0  0  0  0  0  0  0  0  0  0  0
   -0.1001    1.5703   -0.5002 C   0  0  0  0  0  0  0  0  0  0  0  0
    0.1117    0.7849   -1.6264 O   0  0  0  0  0  0  0  0  0  0  0  0
    0.1748   -0.5947   -1.2199 C   0  0  0  0  0  0  0  0  0  0  0  0
    1.3260   -0.8325   -0.4794 O   0  0  0  0  0  0  0  0  0  0  0  0
    1.2462   -0.0239    0.6584 C   0  0  0  0  0  0  0  0  0  0  0  0
   -0.1289    0.6116    0.6210 C   0  0  0  0  0  0  0  0  0  0  0  0
   -0.8723   -0.5339   -0.0895 C   0  0  0  0  0  0  0  0  0  0  0  0
   -0.8417   -1.6963    0.6160 O   0  0  0  0  0  0  0  0  0  0  0  0
   -0.0492   -1.2977   -1.9806 H   0  0  0  0  0  0  0  0  0  0  0  0
    1.4343   -0.5828    1.5932 H   0  0  0  0  0  0  0  0  0  0  0  0
    1.9743    0.8317    0.5692 H   0  0  0  0  0  0  0  0  0  0  0  0
   -0.5456    0.9204    1.5360 H   0  0  0  0  0  0  0  0  0  0  0  0
   -1.8202   -0.2247   -0.5012 H   0  0  0  0  0  0  0  0  0  0  0  0
   -1.6665   -1.7364    1.1838 H   0  0  0  0  0  0  0  0  0  0  0  0
  1  2  2  0
  2  3  1  0
  3  4  1  0
  4  5  1  0
  5  6  1  0
  6  7  1  0
  7  8  1  0
  8  9  1  0
  7  2  1  0
  8  4  1  0
  4 10  1  0
  6 11  1  0
  6 12  1  0
  7 13  1  0
  8 14  1  0
  9 15  1  0
M  END
