
     RDKit          3D

 15 17  0  0  0  0  0  0  0  0999 V2000
   -1.8888   -1.0157    1.5048 O   0  0  0  0  0  0  0  0  0  0  0  0
   -1.1523   -0.8634    0.5595 C   0  0  0  0  0  0  0  0  0  0  0  0
   -1.1566    0.0980   -0.5682 C   0  0  0  0  0  0  0  0  0  0  0  0
   -0.2910    1.2684   -0.1896 C   0  0  0  0  0  0  0  0  0  0  0  0
    1.0615    0.8470    0.2695 C   0  0  0  0  0  0  0  0  0  0  0  0
    1.8374    0.2671   -0.8061 O   0  0  0  0  0  0  0  0  0  0  0  0
    1.2860   -0.5547    0.2597 C   0  0  0  0  0  0  0  0  0  0  0  0
    0.0589   -1.3498   -0.1275 C   0  0  0  0  0  0  0  0  0  0  0  0
   -0.4786   -0.8437   -1.3304 O   0  0  0  0  0  0  0  0  0  0  0  0
   -2.1597    0.3587   -0.8862 H   0  0  0  0  0  0  0  0  0  0  0  0
   -0.8022    1.7809    0.6698 H   0  0  0  0  0  0  0  0  0  0  0  0
   -0.1881    2.0239   -0.9798 H   0  0  0  0  0  0  0  0  0  0  0  0
    1.6443    1.5092    0.9544 H   0  0  0  0  0  0  0  0  0  0  0  0
    2.0899   -1.0941    0.7574 H   0  0  0  0  0  0  0  0  0  0  0  0
    0.1392   -2.4317   -0.0873 H   0  0  0  0  0  0  0  0  0  0  0  0
  1  2  2  0
  2  3  1  0
  3  4  1  0
  4  5  1  0
  5  6  1  0
  6  7  1  0
  7  8  1  0
  8  9  1  0
  8  2  1  0
  9  3  1  0
  7  5  1  0
  3 10  1  0
  4 11  1  0
  4 12  1  0
  5 13  1  0
  7 14  1  0
  8 15  1  0
M  END
