
     RDKit          3D

 15 16  0  0  0  0  0  0  0  0999 V2000
    2.8378    0.8636   -0.6172 O   0  0  0  0  0  0  0  0  0  0  0  0
    1.7874    0.3376   -0.3418 C   0  0  0  0  0  0  0  0  0  0  0  0
    0.9975    0.1321    0.8950 C   0  0  0  0  0  0  0  0  0  0  0  0
   -0.1974   -0.0632    0.0291 C   0  0  0  0  0  0  0  0  0  0  0  0
   -1.4183   -0.7144    0.3724 C   0  0  0  0  0  0  0  0  0  0  0  0
   -1.3514    0.7948   -0.0178 C   0  0  0  0  0  0  0  0  0  0  0  0
    0.7230   -0.3845   -1.0869 C   0  0  0  0  0  0  0  0  0  0  0  0
    0.9128    0.9947    1.5685 H   0  0  0  0  0  0  0  0  0  0  0  0
    1.2944   -0.8239    1.3723 H   0  0  0  0  0  0  0  0  0  0  0  0
   -1.9970   -1.3294   -0.3445 H   0  0  0  0  0  0  0  0  0  0  0  0
   -1.6508   -0.9164    1.4501 H   0  0  0  0  0  0  0  0  0  0  0  0
   -1.5220    1.4914    0.8361 H   0  0  0  0  0  0  0  0  0  0  0  0
   -1.8936    1.0883   -0.9281 H   0  0  0  0  0  0  0  0  0  0  0  0
    1.0015   -1.4803   -1.1037 H   0  0  0  0  0  0  0  0  0  0  0  0
    0.4760    0.0096   -2.0836 H   0  0  0  0  0  0  0  0  0  0  0  0
  1  2  2  0
  2  3  1  0
  3  4  1  0
  4  5  1  0
  5  6  1  0
  4  7  1  0
  7  2  1  0
  6  4  1  0
  3  8  1  0
  3  9  1  0
  5 10  1  0
  5 11  1  0
  6 12  1  0
  6 13  1  0
  7 14  1  0
  7 15  1  0
M  END
