
     RDKit          3D

 19 20  0  0  0  0  0  0  0  0999 V2000
   -2.0716    0.3816   -1.7820 O   0  0  0  0  0  0  0  0  0  0  0  0
   -1.3588    0.2079   -0.8023 C   0  0  0  0  0  0  0  0  0  0  0  0
   -1.0686   -1.1729   -0.2613 C   0  0  0  0  0  0  0  0  0  0  0  0
    0.1028   -0.8728    0.6509 C   0  0  0  0  0  0  0  0  0  0  0  0
   -0.4944    0.3669    1.3439 C   0  0  0  0  0  0  0  0  0  0  0  0
   -0.6476    1.1759    0.0513 C   0  0  0  0  0  0  0  0  0  0  0  0
    0.8004    1.2022   -0.4095 C   0  0  0  0  0  0  0  0  0  0  0  0
    1.2199   -0.2431   -0.1202 C   0  0  0  0  0  0  0  0  0  0  0  0
    1.5236   -0.9123   -1.2942 O   0  0  0  0  0  0  0  0  0  0  0  0
   -0.8516   -1.8908   -1.0426 H   0  0  0  0  0  0  0  0  0  0  0  0
   -1.9241   -1.4188    0.3916 H   0  0  0  0  0  0  0  0  0  0  0  0
    0.3668   -1.6554    1.3333 H   0  0  0  0  0  0  0  0  0  0  0  0
    0.2351    0.7848    2.0220 H   0  0  0  0  0  0  0  0  0  0  0  0
   -1.4646    0.0936    1.7716 H   0  0  0  0  0  0  0  0  0  0  0  0
   -1.1026    2.1337    0.1835 H   0  0  0  0  0  0  0  0  0  0  0  0
    0.8425    1.4372   -1.4796 H   0  0  0  0  0  0  0  0  0  0  0  0
    1.3289    1.9160    0.2374 H   0  0  0  0  0  0  0  0  0  0  0  0
    2.1387   -0.1931    0.4809 H   0  0  0  0  0  0  0  0  0  0  0  0
    2.4251   -1.3407   -1.2747 H   0  0  0  0  0  0  0  0  0  0  0  0
  1  2  2  0
  2  3  1  0
  3  4  1  0
  4  5  1  0
  5  6  1  0
  6  7  1  0
  7  8  1  0
  8  9  1  0
  6  2  1  0
  8  4  1  0
  3 10  1  0
  3 11  1  0
  4 12  1  0
  5 13  1  0
  5 14  1  0
  6 15  1  0
  7 16  1  0
  7 17  1  0
  8 18  1  0
  9 19  1  0
M  END
