
     RDKit          3D

 17 17  0  0  0  0  0  0  0  0999 V2000
   -2.4768    0.2182    1.5301 O   0  0  0  0  0  0  0  0  0  0  0  0
   -1.6301    0.0778    0.7036 C   0  0  0  0  0  0  0  0  0  0  0  0
   -1.6707   -0.8184   -0.4795 C   0  0  0  0  0  0  0  0  0  0  0  0
   -0.2100   -1.1716   -0.5917 C   0  0  0  0  0  0  0  0  0  0  0  0
    0.5474   -0.2928    0.0340 C   0  0  0  0  0  0  0  0  0  0  0  0
    2.0355   -0.4070    0.0792 C   0  0  0  0  0  0  0  0  0  0  0  0
    2.6080    0.7225   -0.5049 O   0  0  0  0  0  0  0  0  0  0  0  0
   -0.3180    0.7452    0.6211 C   0  0  0  0  0  0  0  0  0  0  0  0
   -0.4659    1.7938   -0.3012 O   0  0  0  0  0  0  0  0  0  0  0  0
   -1.9641   -0.2574   -1.3939 H   0  0  0  0  0  0  0  0  0  0  0  0
   -2.2359   -1.7385   -0.3245 H   0  0  0  0  0  0  0  0  0  0  0  0
    0.1127   -2.0548   -1.1351 H   0  0  0  0  0  0  0  0  0  0  0  0
    2.4021   -0.5183    1.1346 H   0  0  0  0  0  0  0  0  0  0  0  0
    2.3869   -1.3046   -0.4632 H   0  0  0  0  0  0  0  0  0  0  0  0
    2.0109    1.4995   -0.4984 H   0  0  0  0  0  0  0  0  0  0  0  0
    0.0495    1.1134    1.6000 H   0  0  0  0  0  0  0  0  0  0  0  0
   -1.1816    2.3930   -0.0103 H   0  0  0  0  0  0  0  0  0  0  0  0
  1  2  2  0
  2  3  1  0
  3  4  1  0
  4  5  2  0
  5  6  1  0
  6  7  1  0
  5  8  1  0
  8  9  1  0
  8  2  1  0
  3 10  1  0
  3 11  1  0
  4 12  1  0
  6 13  1  0
  6 14  1  0
  7 15  1  0
  8 16  1  0
  9 17  1  0
M  END
