
     RDKit          3D

 16 17  0  0  0  0  0  0  0  0999 V2000
   -0.6407   -0.6733    2.3417 O   0  0  0  0  0  0  0  0  0  0  0  0
   -0.4671   -0.2891    1.2159 C   0  0  0  0  0  0  0  0  0  0  0  0
   -0.9473    0.9291    0.4971 C   0  0  0  0  0  0  0  0  0  0  0  0
   -0.2732    0.6664   -0.8295 C   0  0  0  0  0  0  0  0  0  0  0  0
   -0.6043   -0.8205   -1.0137 C   0  0  0  0  0  0  0  0  0  0  0  0
    0.3262   -0.9749    0.1734 C   0  0  0  0  0  0  0  0  0  0  0  0
    1.0966    0.1855   -0.4109 C   0  0  0  0  0  0  0  0  0  0  0  0
    1.6739    0.9228    0.6353 O   0  0  0  0  0  0  0  0  0  0  0  0
   -0.5955    1.8650    0.9758 H   0  0  0  0  0  0  0  0  0  0  0  0
   -2.0291    0.8926    0.3442 H   0  0  0  0  0  0  0  0  0  0  0  0
   -0.3942    1.3182   -1.6419 H   0  0  0  0  0  0  0  0  0  0  0  0
   -1.6330   -1.0647   -0.6783 H   0  0  0  0  0  0  0  0  0  0  0  0
   -0.2633   -1.2436   -1.9513 H   0  0  0  0  0  0  0  0  0  0  0  0
    0.7987   -1.8936    0.3575 H   0  0  0  0  0  0  0  0  0  0  0  0
    1.7928   -0.0632   -1.2052 H   0  0  0  0  0  0  0  0  0  0  0  0
    2.1595    0.2435    1.1900 H   0  0  0  0  0  0  0  0  0  0  0  0
  1  2  2  0
  2  3  1  0
  3  4  1  0
  4  5  1  0
  5  6  1  0
  6  7  1  0
  7  8  1  0
  6  2  1  0
  7  4  1  0
  3  9  1  0
  3 10  1  0
  4 11  1  0
  5 12  1  0
  5 13  1  0
  6 14  1  0
  7 15  1  0
  8 16  1  0
M  END
