
     RDKit          3D

 15 16  0  0  0  0  0  0  0  0999 V2000
   -2.3774    1.2959   -0.3003 O   0  0  0  0  0  0  0  0  0  0  0  0
   -1.3076    0.7855   -0.1306 C   0  0  0  0  0  0  0  0  0  0  0  0
   -0.7593   -0.3207    0.6993 C   0  0  0  0  0  0  0  0  0  0  0  0
   -1.5310   -1.4873    0.6966 O   0  0  0  0  0  0  0  0  0  0  0  0
    0.4341   -0.3466   -0.1463 C   0  0  0  0  0  0  0  0  0  0  0  0
    1.6789   -0.8669   -0.0712 C   0  0  0  0  0  0  0  0  0  0  0  0
    0.6458   -1.3913   -1.0020 O   0  0  0  0  0  0  0  0  0  0  0  0
    0.0582    0.9987   -0.6750 C   0  0  0  0  0  0  0  0  0  0  0  0
    0.7631    2.0046    0.0078 O   0  0  0  0  0  0  0  0  0  0  0  0
   -0.6514    0.0470    1.7506 H   0  0  0  0  0  0  0  0  0  0  0  0
   -2.2542   -1.3733    0.0594 H   0  0  0  0  0  0  0  0  0  0  0  0
    2.5317   -0.4667   -0.6630 H   0  0  0  0  0  0  0  0  0  0  0  0
    1.9878   -1.7181    0.5719 H   0  0  0  0  0  0  0  0  0  0  0  0
    0.1242    1.0706   -1.7785 H   0  0  0  0  0  0  0  0  0  0  0  0
    0.6569    1.7685    0.9814 H   0  0  0  0  0  0  0  0  0  0  0  0
  1  2  2  0
  2  3  1  0
  3  4  1  0
  3  5  1  0
  5  6  1  0
  6  7  1  0
  5  8  1  0
  8  9  1  0
  8  2  1  0
  7  5  1  0
  3 10  1  0
  4 11  1  0
  6 12  1  0
  6 13  1  0
  8 14  1  0
  9 15  1  0
M  END
