
     RDKit          3D

 15 16  0  0  0  0  0  0  0  0999 V2000
   -2.2788    1.4204   -1.4433 O   0  0  0  0  0  0  0  0  0  0  0  0
   -1.5918    0.4981   -0.9414 C   0  0  0  0  0  0  0  0  0  0  0  0
   -0.2372    0.2007   -1.1895 O   0  0  0  0  0  0  0  0  0  0  0  0
    0.3006   -0.4425   -0.0134 C   0  0  0  0  0  0  0  0  0  0  0  0
    1.5539    0.3434    0.3061 C   0  0  0  0  0  0  0  0  0  0  0  0
    2.4742    0.3137   -0.7340 O   0  0  0  0  0  0  0  0  0  0  0  0
   -0.7567   -0.1024    0.9812 C   0  0  0  0  0  0  0  0  0  0  0  0
   -1.8919   -0.6346    1.3263 O   0  0  0  0  0  0  0  0  0  0  0  0
   -1.9191   -0.5532    0.0325 C   0  0  0  0  0  0  0  0  0  0  0  0
    0.4744   -1.5018   -0.1734 H   0  0  0  0  0  0  0  0  0  0  0  0
    1.2133    1.4108    0.4467 H   0  0  0  0  0  0  0  0  0  0  0  0
    2.0390    0.0253    1.2348 H   0  0  0  0  0  0  0  0  0  0  0  0
    3.1096   -0.4230   -0.5769 H   0  0  0  0  0  0  0  0  0  0  0  0
   -0.7277    1.0097    1.2064 H   0  0  0  0  0  0  0  0  0  0  0  0
   -1.7618   -1.5646   -0.4620 H   0  0  0  0  0  0  0  0  0  0  0  0
  1  2  2  0
  2  3  1  0
  3  4  1  0
  4  5  1  0
  5  6  1  0
  4  7  1  0
  7  8  1  0
  8  9  1  0
  9  2  1  0
  9  7  1  0
  4 10  1  0
  5 11  1  0
  5 12  1  0
  6 13  1  0
  7 14  1  0
  9 15  1  0
M  END
