
     RDKit          3D

 17 18  0  0  0  0  0  0  0  0999 V2000
    0.1545   -2.5324   -0.0271 O   0  0  0  0  0  0  0  0  0  0  0  0
    0.0064   -1.3643    0.2186 C   0  0  0  0  0  0  0  0  0  0  0  0
   -1.3180   -0.7381    0.5247 C   0  0  0  0  0  0  0  0  0  0  0  0
   -1.1049    0.6124   -0.1762 C   0  0  0  0  0  0  0  0  0  0  0  0
   -2.1275    1.4844    0.0645 O   0  0  0  0  0  0  0  0  0  0  0  0
    0.2096    1.0138    0.4361 C   0  0  0  0  0  0  0  0  0  0  0  0
    0.9925   -0.2721    0.2908 C   0  0  0  0  0  0  0  0  0  0  0  0
    2.2735   -0.2549   -0.3229 C   0  0  0  0  0  0  0  0  0  0  0  0
    2.1096   -0.4998    1.0489 O   0  0  0  0  0  0  0  0  0  0  0  0
   -1.4221   -0.5689    1.6141 H   0  0  0  0  0  0  0  0  0  0  0  0
   -2.1629   -1.2892    0.1130 H   0  0  0  0  0  0  0  0  0  0  0  0
   -0.9292    0.3811   -1.2352 H   0  0  0  0  0  0  0  0  0  0  0  0
   -2.8991    1.2291   -0.4749 H   0  0  0  0  0  0  0  0  0  0  0  0
    0.1134    1.3170    1.4970 H   0  0  0  0  0  0  0  0  0  0  0  0
    0.6273    1.8263   -0.1935 H   0  0  0  0  0  0  0  0  0  0  0  0
    2.7700    0.7212   -0.5046 H   0  0  0  0  0  0  0  0  0  0  0  0
    2.7069   -1.0654   -0.9471 H   0  0  0  0  0  0  0  0  0  0  0  0
  1  2  2  0
  2  3  1  0
  3  4  1  0
  4  5  1  0
  4  6  1  0
  6  7  1  0
  7  8  1  0
  8  9  1  0
  7  2  1  0
  9  7  1  0
  3 10  1  0
  3 11  1  0
  4 12  1  0
  5 13  1  0
  6 14  1  0
  6 15  1  0
  8 16  1  0
  8 17  1  0
M  END
