
     RDKit          3D

 17 17  0  0  0  0  0  0  0  0999 V2000
   -3.0304    0.8615    0.9963 O   0  0  0  0  0  0  0  0  0  0  0  0
   -2.0873    0.5258    0.3324 C   0  0  0  0  0  0  0  0  0  0  0  0
   -1.6882   -0.7619   -0.2919 C   0  0  0  0  0  0  0  0  0  0  0  0
   -0.3612   -0.1939   -0.7173 C   0  0  0  0  0  0  0  0  0  0  0  0
    0.7571   -0.7781    0.0557 C   0  0  0  0  0  0  0  0  0  0  0  0
    0.5044   -1.6086    0.9058 O   0  0  0  0  0  0  0  0  0  0  0  0
    2.1787   -0.3941   -0.1613 C   0  0  0  0  0  0  0  0  0  0  0  0
    2.2393    0.5629   -1.1722 O   0  0  0  0  0  0  0  0  0  0  0  0
   -0.8424    1.1517   -0.2234 C   0  0  0  0  0  0  0  0  0  0  0  0
   -1.6200   -1.5398    0.5220 H   0  0  0  0  0  0  0  0  0  0  0  0
   -2.3238   -1.0932   -1.1370 H   0  0  0  0  0  0  0  0  0  0  0  0
   -0.2091   -0.2223   -1.8338 H   0  0  0  0  0  0  0  0  0  0  0  0
    2.7059   -1.3428   -0.4671 H   0  0  0  0  0  0  0  0  0  0  0  0
    2.5602   -0.0053    0.8053 H   0  0  0  0  0  0  0  0  0  0  0  0
    2.5687    1.3920   -0.7653 H   0  0  0  0  0  0  0  0  0  0  0  0
   -0.1990    1.6436    0.5102 H   0  0  0  0  0  0  0  0  0  0  0  0
   -1.1528    1.8025   -1.0852 H   0  0  0  0  0  0  0  0  0  0  0  0
  1  2  2  0
  2  3  1  0
  3  4  1  0
  4  5  1  0
  5  6  2  0
  5  7  1  0
  7  8  1  0
  4  9  1  0
  9  2  1  0
  3 10  1  0
  3 11  1  0
  4 12  1  0
  7 13  1  0
  7 14  1  0
  8 15  1  0
  9 16  1  0
  9 17  1  0
M  END
