
     RDKit          3D

 15 16  0  0  0  0  0  0  0  0999 V2000
    2.2606    1.8361   -0.4380 O   0  0  0  0  0  0  0  0  0  0  0  0
    1.3577    0.9737   -0.2608 C   0  0  0  0  0  0  0  0  0  0  0  0
    1.7000   -0.4030    0.2135 C   0  0  0  0  0  0  0  0  0  0  0  0
    0.6257   -1.2589    0.0314 O   0  0  0  0  0  0  0  0  0  0  0  0
   -0.5409   -0.8508    0.6064 C   0  0  0  0  0  0  0  0  0  0  0  0
   -1.7114   -0.7344   -0.3943 C   0  0  0  0  0  0  0  0  0  0  0  0
   -1.0696    0.4477    0.2120 C   0  0  0  0  0  0  0  0  0  0  0  0
   -0.0535    1.2454   -0.4985 C   0  0  0  0  0  0  0  0  0  0  0  0
   -0.3546    2.1668   -1.3156 O   0  0  0  0  0  0  0  0  0  0  0  0
    2.0618   -0.4218    1.2432 H   0  0  0  0  0  0  0  0  0  0  0  0
    2.4838   -0.7664   -0.5175 H   0  0  0  0  0  0  0  0  0  0  0  0
   -0.8320   -1.2337    1.6217 H   0  0  0  0  0  0  0  0  0  0  0  0
   -2.7159   -1.0082   -0.0110 H   0  0  0  0  0  0  0  0  0  0  0  0
   -1.5416   -1.0312   -1.4293 H   0  0  0  0  0  0  0  0  0  0  0  0
   -1.6699    1.0387    0.9368 H   0  0  0  0  0  0  0  0  0  0  0  0
  1  2  2  0
  2  3  1  0
  3  4  1  0
  4  5  1  0
  5  6  1  0
  6  7  1  0
  7  8  1  0
  8  9  2  0
  8  2  1  0
  7  5  1  0
  3 10  1  0
  3 11  1  0
  5 12  1  0
  6 13  1  0
  6 14  1  0
  7 15  1  0
M  END
