
     RDKit          3D

 19 21  0  0  0  0  0  0  0  0999 V2000
    0.6988   -2.4631    1.1778 O   0  0  0  0  0  0  0  0  0  0  0  0
    0.3225   -1.5570    0.4853 C   0  0  0  0  0  0  0  0  0  0  0  0
   -0.8835   -1.3821   -0.4160 C   0  0  0  0  0  0  0  0  0  0  0  0
   -0.6680    0.0683   -0.2693 C   0  0  0  0  0  0  0  0  0  0  0  0
   -1.5607    0.7768    0.7613 C   0  0  0  0  0  0  0  0  0  0  0  0
   -1.4569    1.1599   -0.6765 C   0  0  0  0  0  0  0  0  0  0  0  0
    0.6919   -0.1752    0.0678 C   0  0  0  0  0  0  0  0  0  0  0  0
    1.9010    0.0280   -0.7225 C   0  0  0  0  0  0  0  0  0  0  0  0
    1.7006    0.6244    0.6848 C   0  0  0  0  0  0  0  0  0  0  0  0
   -0.6009   -1.8145   -1.4108 H   0  0  0  0  0  0  0  0  0  0  0  0
   -1.8155   -1.7476    0.0223 H   0  0  0  0  0  0  0  0  0  0  0  0
   -2.4308    0.1818    1.1296 H   0  0  0  0  0  0  0  0  0  0  0  0
   -1.0316    1.3448    1.5513 H   0  0  0  0  0  0  0  0  0  0  0  0
   -2.3922    0.9734   -1.2819 H   0  0  0  0  0  0  0  0  0  0  0  0
   -1.0228    2.1417   -0.8933 H   0  0  0  0  0  0  0  0  0  0  0  0
    2.6478   -0.8110   -0.7867 H   0  0  0  0  0  0  0  0  0  0  0  0
    1.8595    0.7049   -1.5834 H   0  0  0  0  0  0  0  0  0  0  0  0
    2.3948    0.2324    1.4809 H   0  0  0  0  0  0  0  0  0  0  0  0
    1.6461    1.7142    0.6793 H   0  0  0  0  0  0  0  0  0  0  0  0
  1  2  2  0
  2  3  1  0
  3  4  1  0
  4  5  1  0
  5  6  1  0
  4  7  1  0
  7  8  1  0
  8  9  1  0
  7  2  1  0
  6  4  1  0
  9  7  1  0
  3 10  1  0
  3 11  1  0
  5 12  1  0
  5 13  1  0
  6 14  1  0
  6 15  1  0
  8 16  1  0
  8 17  1  0
  9 18  1  0
  9 19  1  0
M  END
