
     RDKit          3D

 15 16  0  0  0  0  0  0  0  0999 V2000
   -1.3646    2.1220   -0.1995 O   0  0  0  0  0  0  0  0  0  0  0  0
   -1.5204    0.9014   -0.0047 C   0  0  0  0  0  0  0  0  0  0  0  0
   -2.5365    0.0815    0.4874 O   0  0  0  0  0  0  0  0  0  0  0  0
   -1.9348   -1.1280    0.0021 C   0  0  0  0  0  0  0  0  0  0  0  0
   -0.7031   -0.2956   -0.1982 C   0  0  0  0  0  0  0  0  0  0  0  0
    0.1136   -0.4642   -1.2815 O   0  0  0  0  0  0  0  0  0  0  0  0
    0.5934   -0.5123    0.0945 C   0  0  0  0  0  0  0  0  0  0  0  0
    1.5577    0.6208    0.4415 C   0  0  0  0  0  0  0  0  0  0  0  0
    2.6876    0.5884   -0.3724 O   0  0  0  0  0  0  0  0  0  0  0  0
   -1.8320   -1.9052    0.7923 H   0  0  0  0  0  0  0  0  0  0  0  0
   -2.3946   -1.5115   -0.9249 H   0  0  0  0  0  0  0  0  0  0  0  0
    1.0338   -1.5100    0.3707 H   0  0  0  0  0  0  0  0  0  0  0  0
    0.9992    1.5765    0.3647 H   0  0  0  0  0  0  0  0  0  0  0  0
    1.8835    0.4195    1.4817 H   0  0  0  0  0  0  0  0  0  0  0  0
    3.4171    1.0166    0.1803 H   0  0  0  0  0  0  0  0  0  0  0  0
  1  2  2  0
  2  3  1  0
  3  4  1  0
  4  5  1  0
  5  6  1  0
  6  7  1  0
  7  8  1  0
  8  9  1  0
  5  2  1  0
  7  5  1  0
  4 10  1  0
  4 11  1  0
  7 12  1  0
  8 13  1  0
  8 14  1  0
  9 15  1  0
M  END
