
     RDKit          3D

 17 18  0  0  0  0  0  0  0  0999 V2000
    1.8881   -0.8969   -1.9463 O   0  0  0  0  0  0  0  0  0  0  0  0
    1.2776   -0.8398   -0.8480 C   0  0  0  0  0  0  0  0  0  0  0  0
    0.6415   -1.7798   -0.0533 O   0  0  0  0  0  0  0  0  0  0  0  0
    0.1860   -0.8214    0.8736 C   0  0  0  0  0  0  0  0  0  0  0  0
   -1.2836   -0.5333    0.6190 C   0  0  0  0  0  0  0  0  0  0  0  0
   -1.2011    0.1250   -0.7648 C   0  0  0  0  0  0  0  0  0  0  0  0
   -0.1076    1.1511   -0.4529 C   0  0  0  0  0  0  0  0  0  0  0  0
    0.9371    0.2145    0.1218 C   0  0  0  0  0  0  0  0  0  0  0  0
    2.0304    0.7823    0.6860 O   0  0  0  0  0  0  0  0  0  0  0  0
    0.4554   -0.9905    1.9275 H   0  0  0  0  0  0  0  0  0  0  0  0
   -1.6638    0.2634    1.2945 H   0  0  0  0  0  0  0  0  0  0  0  0
   -1.9037   -1.4363    0.6004 H   0  0  0  0  0  0  0  0  0  0  0  0
   -0.7698   -0.5818   -1.5047 H   0  0  0  0  0  0  0  0  0  0  0  0
   -2.1370    0.5830   -1.0651 H   0  0  0  0  0  0  0  0  0  0  0  0
    0.2512    1.6588   -1.3555 H   0  0  0  0  0  0  0  0  0  0  0  0
   -0.4636    1.8030    0.3429 H   0  0  0  0  0  0  0  0  0  0  0  0
    1.8628    1.2986    1.5248 H   0  0  0  0  0  0  0  0  0  0  0  0
  1  2  2  0
  2  3  1  0
  3  4  1  0
  4  5  1  0
  5  6  1  0
  6  7  1  0
  7  8  1  0
  8  9  1  0
  8  2  1  0
  8  4  1  0
  4 10  1  0
  5 11  1  0
  5 12  1  0
  6 13  1  0
  6 14  1  0
  7 15  1  0
  7 16  1  0
  9 17  1  0
M  END
