
     RDKit          3D

 15 16  0  0  0  0  0  0  0  0999 V2000
    3.3668   -0.6145   -0.1813 O   0  0  0  0  0  0  0  0  0  0  0  0
    2.1270   -0.4056   -0.1455 C   0  0  0  0  0  0  0  0  0  0  0  0
    1.6116    0.9074    0.2335 C   0  0  0  0  0  0  0  0  0  0  0  0
    0.3024    1.0970    0.2621 C   0  0  0  0  0  0  0  0  0  0  0  0
   -0.7018    0.0802   -0.0611 C   0  0  0  0  0  0  0  0  0  0  0  0
   -0.1453   -1.3218   -0.1010 C   0  0  0  0  0  0  0  0  0  0  0  0
    1.2030   -1.3813   -0.4548 O   0  0  0  0  0  0  0  0  0  0  0  0
   -2.0623    0.2736    0.3153 C   0  0  0  0  0  0  0  0  0  0  0  0
   -1.5782    0.4638   -1.0954 O   0  0  0  0  0  0  0  0  0  0  0  0
    2.2891    1.7276    0.4914 H   0  0  0  0  0  0  0  0  0  0  0  0
   -0.0363    2.0791    0.5466 H   0  0  0  0  0  0  0  0  0  0  0  0
   -0.7846   -1.9020   -0.8262 H   0  0  0  0  0  0  0  0  0  0  0  0
   -0.2860   -1.8178    0.8803 H   0  0  0  0  0  0  0  0  0  0  0  0
   -2.4452    1.2879    0.6265 H   0  0  0  0  0  0  0  0  0  0  0  0
   -2.8602   -0.4736    0.2785 H   0  0  0  0  0  0  0  0  0  0  0  0
  1  2  2  0
  2  3  1  0
  3  4  2  0
  4  5  1  0
  5  6  1  0
  6  7  1  0
  5  8  1  0
  8  9  1  0
  7  2  1  0
  9  5  1  0
  3 10  1  0
  4 11  1  0
  6 12  1  0
  6 13  1  0
  8 14  1  0
  8 15  1  0
M  END
