
     RDKit          3D

 13 14  0  0  0  0  0  0  0  0999 V2000
    2.6731    0.0514   -0.8767 O   0  0  0  0  0  0  0  0  0  0  0  0
    1.4867   -0.0189   -0.4937 C   0  0  0  0  0  0  0  0  0  0  0  0
    0.6256   -1.0483   -0.9295 O   0  0  0  0  0  0  0  0  0  0  0  0
   -0.6494   -0.8313   -0.3516 C   0  0  0  0  0  0  0  0  0  0  0  0
   -0.1965   -0.3073    1.0279 C   0  0  0  0  0  0  0  0  0  0  0  0
    0.6755    0.7997    0.4003 C   0  0  0  0  0  0  0  0  0  0  0  0
   -0.3537    1.4201   -0.3955 O   0  0  0  0  0  0  0  0  0  0  0  0
   -1.2281    0.4418   -0.8298 C   0  0  0  0  0  0  0  0  0  0  0  0
   -2.2718    0.5646   -1.4763 O   0  0  0  0  0  0  0  0  0  0  0  0
   -1.2973   -1.6712   -0.3026 H   0  0  0  0  0  0  0  0  0  0  0  0
   -1.0000    0.1961    1.5565 H   0  0  0  0  0  0  0  0  0  0  0  0
    0.3856   -1.0318    1.5733 H   0  0  0  0  0  0  0  0  0  0  0  0
    1.1502    1.4350    1.0976 H   0  0  0  0  0  0  0  0  0  0  0  0
  1  2  2  0
  2  3  1  0
  3  4  1  0
  4  5  1  0
  5  6  1  0
  6  7  1  0
  7  8  1  0
  8  9  2  0
  6  2  1  0
  8  4  1  0
  4 10  1  0
  5 11  1  0
  5 12  1  0
  6 13  1  0
M  END
