
     RDKit          3D

 17 18  0  0  0  0  0  0  0  0999 V2000
   -2.0224   -2.4149    0.3868 O   0  0  0  0  0  0  0  0  0  0  0  0
   -1.5785   -1.3503   -0.0773 C   0  0  0  0  0  0  0  0  0  0  0  0
   -2.1085   -0.1177   -0.3778 O   0  0  0  0  0  0  0  0  0  0  0  0
   -0.9047    0.4793   -0.8494 C   0  0  0  0  0  0  0  0  0  0  0  0
   -0.2920    1.4778    0.0777 C   0  0  0  0  0  0  0  0  0  0  0  0
    0.8855    0.8365    0.7336 C   0  0  0  0  0  0  0  0  0  0  0  0
    0.7655   -0.6398    0.5097 C   0  0  0  0  0  0  0  0  0  0  0  0
    1.9814   -1.2594    0.2464 O   0  0  0  0  0  0  0  0  0  0  0  0
   -0.2614   -0.8690   -0.5407 C   0  0  0  0  0  0  0  0  0  0  0  0
   -0.9655    0.7394   -1.9089 H   0  0  0  0  0  0  0  0  0  0  0  0
   -1.0639    1.8300    0.8159 H   0  0  0  0  0  0  0  0  0  0  0  0
   -0.0019    2.3966   -0.5105 H   0  0  0  0  0  0  0  0  0  0  0  0
    0.8601    1.0930    1.8227 H   0  0  0  0  0  0  0  0  0  0  0  0
    1.8469    1.1892    0.3071 H   0  0  0  0  0  0  0  0  0  0  0  0
    0.3949   -1.0878    1.4761 H   0  0  0  0  0  0  0  0  0  0  0  0
    2.3712   -0.9913   -0.6181 H   0  0  0  0  0  0  0  0  0  0  0  0
    0.0934   -1.3118   -1.4933 H   0  0  0  0  0  0  0  0  0  0  0  0
  1  2  2  0
  2  3  1  0
  3  4  1  0
  4  5  1  0
  5  6  1  0
  6  7  1  0
  7  8  1  0
  7  9  1  0
  9  2  1  0
  9  4  1  0
  4 10  1  0
  5 11  1  0
  5 12  1  0
  6 13  1  0
  6 14  1  0
  7 15  1  0
  8 16  1  0
  9 17  1  0
M  END
