
     RDKit          3D

 17 17  0  0  0  0  0  0  0  0999 V2000
    1.7865    2.1350    0.6788 O   0  0  0  0  0  0  0  0  0  0  0  0
    1.1145    1.1845    0.1363 C   0  0  0  0  0  0  0  0  0  0  0  0
   -0.1646    1.5478   -0.4435 C   0  0  0  0  0  0  0  0  0  0  0  0
   -1.2679    0.8287   -0.4993 C   0  0  0  0  0  0  0  0  0  0  0  0
   -1.5047   -0.5480    0.0147 C   0  0  0  0  0  0  0  0  0  0  0  0
   -1.7313   -0.5006    1.4103 O   0  0  0  0  0  0  0  0  0  0  0  0
   -0.4070   -1.4633   -0.2933 C   0  0  0  0  0  0  0  0  0  0  0  0
    0.8810   -1.2722   -0.2193 C   0  0  0  0  0  0  0  0  0  0  0  0
    1.7272   -0.1551    0.1707 C   0  0  0  0  0  0  0  0  0  0  0  0
   -0.2007    2.5564   -0.8870 H   0  0  0  0  0  0  0  0  0  0  0  0
   -2.0946    1.3320   -0.9893 H   0  0  0  0  0  0  0  0  0  0  0  0
   -2.4427   -0.9279   -0.4205 H   0  0  0  0  0  0  0  0  0  0  0  0
   -1.2689    0.3168    1.7120 H   0  0  0  0  0  0  0  0  0  0  0  0
   -0.7041   -2.4461   -0.6329 H   0  0  0  0  0  0  0  0  0  0  0  0
    1.4876   -2.1544   -0.5195 H   0  0  0  0  0  0  0  0  0  0  0  0
    2.6740   -0.1431   -0.4441 H   0  0  0  0  0  0  0  0  0  0  0  0
    2.1157   -0.2904    1.2258 H   0  0  0  0  0  0  0  0  0  0  0  0
  1  2  2  0
  2  3  1  0
  3  4  2  0
  4  5  1  0
  5  6  1  0
  5  7  1  0
  7  8  2  0
  8  9  1  0
  9  2  1  0
  3 10  1  0
  4 11  1  0
  5 12  1  0
  6 13  1  0
  7 14  1  0
  8 15  1  0
  9 16  1  0
  9 17  1  0
M  END
