
     RDKit          3D

 19 20  0  0  0  0  0  0  0  0999 V2000
    0.5624   -2.3994   -0.0563 O   0  0  0  0  0  0  0  0  0  0  0  0
    0.8436   -1.2395    0.0427 C   0  0  0  0  0  0  0  0  0  0  0  0
    2.0725   -0.5945   -0.4663 C   0  0  0  0  0  0  0  0  0  0  0  0
    2.2065    0.6517    0.3277 C   0  0  0  0  0  0  0  0  0  0  0  0
    1.0848    0.8776    0.9554 C   0  0  0  0  0  0  0  0  0  0  0  0
    0.0802   -0.1542    0.6752 C   0  0  0  0  0  0  0  0  0  0  0  0
   -0.9206    0.4651   -0.3116 C   0  0  0  0  0  0  0  0  0  0  0  0
   -1.9747   -0.4019   -0.8993 C   0  0  0  0  0  0  0  0  0  0  0  0
   -2.3351    0.5205    0.2172 C   0  0  0  0  0  0  0  0  0  0  0  0
    2.9864   -1.1991   -0.2607 H   0  0  0  0  0  0  0  0  0  0  0  0
    1.9839   -0.3563   -1.5568 H   0  0  0  0  0  0  0  0  0  0  0  0
    3.1333    1.2886    0.3717 H   0  0  0  0  0  0  0  0  0  0  0  0
    0.8833    1.7335    1.6248 H   0  0  0  0  0  0  0  0  0  0  0  0
   -0.4568   -0.4955    1.5904 H   0  0  0  0  0  0  0  0  0  0  0  0
   -0.5141    1.2795   -0.9206 H   0  0  0  0  0  0  0  0  0  0  0  0
   -1.8922   -1.4754   -0.6807 H   0  0  0  0  0  0  0  0  0  0  0  0
   -2.3331   -0.1033   -1.8940 H   0  0  0  0  0  0  0  0  0  0  0  0
   -2.5509    0.1288    1.2314 H   0  0  0  0  0  0  0  0  0  0  0  0
   -2.8595    1.4736    0.0099 H   0  0  0  0  0  0  0  0  0  0  0  0
  1  2  2  0
  2  3  1  0
  3  4  1  0
  4  5  2  0
  5  6  1  0
  6  7  1  0
  7  8  1  0
  8  9  1  0
  6  2  1  0
  9  7  1  0
  3 10  1  0
  3 11  1  0
  4 12  1  0
  5 13  1  0
  6 14  1  0
  7 15  1  0
  8 16  1  0
  8 17  1  0
  9 18  1  0
  9 19  1  0
M  END
