
     RDKit          3D

 17 18  0  0  0  0  0  0  0  0999 V2000
    2.2652    0.1401   -1.6862 O   0  0  0  0  0  0  0  0  0  0  0  0
    1.3060    0.0683   -0.9837 C   0  0  0  0  0  0  0  0  0  0  0  0
    0.5484    1.1643   -0.3544 C   0  0  0  0  0  0  0  0  0  0  0  0
   -0.3554    0.4075    0.5953 C   0  0  0  0  0  0  0  0  0  0  0  0
   -0.8170    1.0723    1.6489 O   0  0  0  0  0  0  0  0  0  0  0  0
   -1.3784   -0.2570   -0.3007 C   0  0  0  0  0  0  0  0  0  0  0  0
   -0.6899   -1.2320   -0.9801 O   0  0  0  0  0  0  0  0  0  0  0  0
    0.6434   -1.1881   -0.5763 C   0  0  0  0  0  0  0  0  0  0  0  0
    0.4740   -0.8470    0.9218 C   0  0  0  0  0  0  0  0  0  0  0  0
    1.1465    1.9318    0.1156 H   0  0  0  0  0  0  0  0  0  0  0  0
   -0.0683    1.6535   -1.1616 H   0  0  0  0  0  0  0  0  0  0  0  0
   -1.6420    1.5594    1.4473 H   0  0  0  0  0  0  0  0  0  0  0  0
   -1.7477    0.4999   -1.0377 H   0  0  0  0  0  0  0  0  0  0  0  0
   -2.1920   -0.6453    0.3387 H   0  0  0  0  0  0  0  0  0  0  0  0
    1.1978   -2.0907   -0.7371 H   0  0  0  0  0  0  0  0  0  0  0  0
   -0.1158   -1.6320    1.3700 H   0  0  0  0  0  0  0  0  0  0  0  0
    1.4254   -0.6049    1.3804 H   0  0  0  0  0  0  0  0  0  0  0  0
  1  2  2  0
  2  3  1  0
  3  4  1  0
  4  5  1  0
  4  6  1  0
  6  7  1  0
  7  8  1  0
  8  9  1  0
  8  2  1  0
  9  4  1  0
  3 10  1  0
  3 11  1  0
  5 12  1  0
  6 13  1  0
  6 14  1  0
  8 15  1  0
  9 16  1  0
  9 17  1  0
M  END
