
     RDKit          3D

 17 19  0  0  0  0  0  0  0  0999 V2000
    0.4794   -2.6540    0.2457 O   0  0  0  0  0  0  0  0  0  0  0  0
    0.1961   -1.4973    0.0704 C   0  0  0  0  0  0  0  0  0  0  0  0
   -1.0768   -0.7647   -0.2747 C   0  0  0  0  0  0  0  0  0  0  0  0
   -1.8805    0.0744    0.5329 C   0  0  0  0  0  0  0  0  0  0  0  0
   -2.4354    1.2731    0.0101 O   0  0  0  0  0  0  0  0  0  0  0  0
   -0.4912    0.1524    0.8829 C   0  0  0  0  0  0  0  0  0  0  0  0
    0.7125   -0.1164    0.0442 C   0  0  0  0  0  0  0  0  0  0  0  0
    2.0464    0.3250    0.2639 C   0  0  0  0  0  0  0  0  0  0  0  0
    1.2308    0.6178   -1.0400 C   0  0  0  0  0  0  0  0  0  0  0  0
   -0.8808   -0.3470   -1.3157 H   0  0  0  0  0  0  0  0  0  0  0  0
   -2.6724   -0.4315    1.1661 H   0  0  0  0  0  0  0  0  0  0  0  0
   -2.6325    1.0590   -0.9366 H   0  0  0  0  0  0  0  0  0  0  0  0
   -0.3027   -0.4074    1.8585 H   0  0  0  0  0  0  0  0  0  0  0  0
    2.2320    1.2017    0.9179 H   0  0  0  0  0  0  0  0  0  0  0  0
    2.8953   -0.3751    0.1096 H   0  0  0  0  0  0  0  0  0  0  0  0
    0.9431    1.6977   -1.1698 H   0  0  0  0  0  0  0  0  0  0  0  0
    1.6369    0.1921   -1.9709 H   0  0  0  0  0  0  0  0  0  0  0  0
  1  2  2  0
  2  3  1  0
  3  4  1  0
  4  5  1  0
  4  6  1  0
  6  7  1  0
  7  8  1  0
  8  9  1  0
  7  2  1  0
  6  3  1  0
  9  7  1  0
  3 10  1  0
  4 11  1  0
  5 12  1  0
  6 13  1  0
  8 14  1  0
  8 15  1  0
  9 16  1  0
  9 17  1  0
M  END
