
     RDKit          3D

 19 20  0  0  0  0  0  0  0  0999 V2000
   -2.7133   -1.4157    0.4277 O   0  0  0  0  0  0  0  0  0  0  0  0
   -1.8413   -0.6202    0.1228 C   0  0  0  0  0  0  0  0  0  0  0  0
   -1.5814    0.7899    0.5254 C   0  0  0  0  0  0  0  0  0  0  0  0
   -0.5822    0.8841   -0.6176 C   0  0  0  0  0  0  0  0  0  0  0  0
    0.7113    1.4733   -0.2922 C   0  0  0  0  0  0  0  0  0  0  0  0
    1.6887    0.7725    0.2781 C   0  0  0  0  0  0  0  0  0  0  0  0
    1.4898   -0.6547    0.6065 C   0  0  0  0  0  0  0  0  0  0  0  0
    0.5298   -1.3578   -0.2939 C   0  0  0  0  0  0  0  0  0  0  0  0
   -0.6244   -0.5797   -0.7523 C   0  0  0  0  0  0  0  0  0  0  0  0
   -1.0904    0.8913    1.5370 H   0  0  0  0  0  0  0  0  0  0  0  0
   -2.4644    1.4671    0.4188 H   0  0  0  0  0  0  0  0  0  0  0  0
   -1.0798    1.4255   -1.4737 H   0  0  0  0  0  0  0  0  0  0  0  0
    0.9225    2.5157   -0.5069 H   0  0  0  0  0  0  0  0  0  0  0  0
    2.6322    1.2491    0.5022 H   0  0  0  0  0  0  0  0  0  0  0  0
    2.4920   -1.1506    0.5140 H   0  0  0  0  0  0  0  0  0  0  0  0
    1.2254   -0.7367    1.6832 H   0  0  0  0  0  0  0  0  0  0  0  0
    1.0843   -1.8010   -1.1701 H   0  0  0  0  0  0  0  0  0  0  0  0
    0.1469   -2.2569    0.2749 H   0  0  0  0  0  0  0  0  0  0  0  0
   -0.9455   -0.8953   -1.7840 H   0  0  0  0  0  0  0  0  0  0  0  0
  1  2  2  0
  2  3  1  0
  3  4  1  0
  4  5  1  0
  5  6  2  0
  6  7  1  0
  7  8  1  0
  8  9  1  0
  9  2  1  0
  9  4  1  0
  3 10  1  0
  3 11  1  0
  4 12  1  0
  5 13  1  0
  6 14  1  0
  7 15  1  0
  7 16  1  0
  8 17  1  0
  8 18  1  0
  9 19  1  0
M  END
