
     RDKit          3D

 15 17  0  0  0  0  0  0  0  0999 V2000
    2.6642   -0.5691    0.6991 O   0  0  0  0  0  0  0  0  0  0  0  0
    1.5645   -0.2231    0.3894 C   0  0  0  0  0  0  0  0  0  0  0  0
    1.0451    1.1667    0.0767 C   0  0  0  0  0  0  0  0  0  0  0  0
    0.5027    0.9374   -1.1895 O   0  0  0  0  0  0  0  0  0  0  0  0
   -0.2161   -0.2599   -1.0740 C   0  0  0  0  0  0  0  0  0  0  0  0
   -1.5401   -0.0413   -0.3259 C   0  0  0  0  0  0  0  0  0  0  0  0
   -0.6636    0.0200    0.9202 C   0  0  0  0  0  0  0  0  0  0  0  0
   -0.0125    1.2454    0.9666 O   0  0  0  0  0  0  0  0  0  0  0  0
    0.2753   -0.9324    0.1775 C   0  0  0  0  0  0  0  0  0  0  0  0
    1.7830    1.9277    0.1360 H   0  0  0  0  0  0  0  0  0  0  0  0
   -0.3099   -0.8604   -1.9691 H   0  0  0  0  0  0  0  0  0  0  0  0
   -2.0592    0.8876   -0.5815 H   0  0  0  0  0  0  0  0  0  0  0  0
   -2.1212   -0.9750   -0.3830 H   0  0  0  0  0  0  0  0  0  0  0  0
   -1.0986   -0.3583    1.8339 H   0  0  0  0  0  0  0  0  0  0  0  0
    0.1864   -1.9654    0.3236 H   0  0  0  0  0  0  0  0  0  0  0  0
  1  2  2  0
  2  3  1  0
  3  4  1  0
  4  5  1  0
  5  6  1  0
  6  7  1  0
  7  8  1  0
  7  9  1  0
  9  2  1  0
  8  3  1  0
  9  5  1  0
  3 10  1  0
  5 11  1  0
  6 12  1  0
  6 13  1  0
  7 14  1  0
  9 15  1  0
M  END
