
     RDKit          3D

 17 18  0  0  0  0  0  0  0  0999 V2000
    1.7641   -1.1319    1.7858 O   0  0  0  0  0  0  0  0  0  0  0  0
    1.6329   -0.4549    0.7390 C   0  0  0  0  0  0  0  0  0  0  0  0
    2.0806    0.7745    0.2378 O   0  0  0  0  0  0  0  0  0  0  0  0
    1.0206    0.8141   -0.7052 C   0  0  0  0  0  0  0  0  0  0  0  0
   -0.1287    1.5884   -0.1773 C   0  0  0  0  0  0  0  0  0  0  0  0
   -1.1925    1.0807    0.3813 C   0  0  0  0  0  0  0  0  0  0  0  0
   -1.3493   -0.3774    0.5427 C   0  0  0  0  0  0  0  0  0  0  0  0
   -0.4808   -1.1742   -0.3765 C   0  0  0  0  0  0  0  0  0  0  0  0
    0.9074   -0.6491   -0.5183 C   0  0  0  0  0  0  0  0  0  0  0  0
    1.3106    1.1886   -1.7092 H   0  0  0  0  0  0  0  0  0  0  0  0
   -0.0543    2.6789   -0.2766 H   0  0  0  0  0  0  0  0  0  0  0  0
   -1.9809    1.7237    0.7371 H   0  0  0  0  0  0  0  0  0  0  0  0
   -1.2157   -0.6695    1.6202 H   0  0  0  0  0  0  0  0  0  0  0  0
   -2.4155   -0.6668    0.3111 H   0  0  0  0  0  0  0  0  0  0  0  0
   -0.3951   -2.2065    0.0741 H   0  0  0  0  0  0  0  0  0  0  0  0
   -0.9535   -1.3162   -1.3527 H   0  0  0  0  0  0  0  0  0  0  0  0
    1.4501   -1.2024   -1.3132 H   0  0  0  0  0  0  0  0  0  0  0  0
  1  2  2  0
  2  3  1  0
  3  4  1  0
  4  5  1  0
  5  6  2  0
  6  7  1  0
  7  8  1  0
  8  9  1  0
  9  2  1  0
  9  4  1  0
  4 10  1  0
  5 11  1  0
  6 12  1  0
  7 13  1  0
  7 14  1  0
  8 15  1  0
  8 16  1  0
  9 17  1  0
M  END
