
     RDKit          3D

 19 20  0  0  0  0  0  0  0  0999 V2000
   -0.1890    0.1065    2.4513 O   0  0  0  0  0  0  0  0  0  0  0  0
   -0.4506   -0.1555    1.3020 C   0  0  0  0  0  0  0  0  0  0  0  0
   -1.7027    0.2273    0.6047 C   0  0  0  0  0  0  0  0  0  0  0  0
   -1.5335   -0.2520   -0.8299 C   0  0  0  0  0  0  0  0  0  0  0  0
   -0.0423   -0.2633   -0.9723 C   0  0  0  0  0  0  0  0  0  0  0  0
    0.5778    1.0739   -0.8024 C   0  0  0  0  0  0  0  0  0  0  0  0
    1.6559    0.9890   -0.0378 C   0  0  0  0  0  0  0  0  0  0  0  0
    1.8296   -0.4578    0.3641 C   0  0  0  0  0  0  0  0  0  0  0  0
    0.3914   -0.8939    0.3595 C   0  0  0  0  0  0  0  0  0  0  0  0
   -1.8843    1.3055    0.5725 H   0  0  0  0  0  0  0  0  0  0  0  0
   -2.5924   -0.2844    1.0230 H   0  0  0  0  0  0  0  0  0  0  0  0
   -1.8964   -1.2793   -0.9143 H   0  0  0  0  0  0  0  0  0  0  0  0
   -1.9746    0.4460   -1.5526 H   0  0  0  0  0  0  0  0  0  0  0  0
    0.3310   -0.8235   -1.8290 H   0  0  0  0  0  0  0  0  0  0  0  0
    0.2062    1.9817   -1.2371 H   0  0  0  0  0  0  0  0  0  0  0  0
    2.3442    1.7582    0.2903 H   0  0  0  0  0  0  0  0  0  0  0  0
    2.3281   -0.5521    1.3289 H   0  0  0  0  0  0  0  0  0  0  0  0
    2.3494   -0.9458   -0.4755 H   0  0  0  0  0  0  0  0  0  0  0  0
    0.2521   -1.9806    0.3548 H   0  0  0  0  0  0  0  0  0  0  0  0
  1  2  2  0
  2  3  1  0
  3  4  1  0
  4  5  1  0
  5  6  1  0
  6  7  2  0
  7  8  1  0
  8  9  1  0
  9  2  1  0
  9  5  1  0
  3 10  1  0
  3 11  1  0
  4 12  1  0
  4 13  1  0
  5 14  1  0
  6 15  1  0
  7 16  1  0
  8 17  1  0
  8 18  1  0
  9 19  1  0
M  END
