
     RDKit          3D

 19 19  0  0  0  0  0  0  0  0999 V2000
    3.1841   -0.3006    0.4769 O   0  0  0  0  0  0  0  0  0  0  0  0
    1.9672   -0.2163    0.1717 C   0  0  0  0  0  0  0  0  0  0  0  0
    1.2532   -1.5044    0.1754 C   0  0  0  0  0  0  0  0  0  0  0  0
   -0.0009   -1.8713   -0.0908 C   0  0  0  0  0  0  0  0  0  0  0  0
   -1.1964   -1.0619   -0.5114 C   0  0  0  0  0  0  0  0  0  0  0  0
   -1.3498    0.0380    0.4948 C   0  0  0  0  0  0  0  0  0  0  0  0
   -1.0707    1.4013   -0.0294 C   0  0  0  0  0  0  0  0  0  0  0  0
    0.3537    1.7199   -0.1790 C   0  0  0  0  0  0  0  0  0  0  0  0
    1.5522    1.1503   -0.1151 C   0  0  0  0  0  0  0  0  0  0  0  0
    1.9077   -2.3279    0.4605 H   0  0  0  0  0  0  0  0  0  0  0  0
   -0.1763   -2.9164    0.0150 H   0  0  0  0  0  0  0  0  0  0  0  0
   -0.9444   -0.6003   -1.5076 H   0  0  0  0  0  0  0  0  0  0  0  0
   -2.0512   -1.7332   -0.5947 H   0  0  0  0  0  0  0  0  0  0  0  0
   -0.7135   -0.1246    1.4097 H   0  0  0  0  0  0  0  0  0  0  0  0
   -2.4319    0.0166    0.8170 H   0  0  0  0  0  0  0  0  0  0  0  0
   -1.6524    1.5844   -0.9673 H   0  0  0  0  0  0  0  0  0  0  0  0
   -1.4992    2.1362    0.7148 H   0  0  0  0  0  0  0  0  0  0  0  0
    0.4832    2.7699   -0.4237 H   0  0  0  0  0  0  0  0  0  0  0  0
    2.3853    1.8404   -0.3167 H   0  0  0  0  0  0  0  0  0  0  0  0
  1  2  2  0
  2  3  1  0
  3  4  2  3
  4  5  1  0
  5  6  1  0
  6  7  1  0
  7  8  1  0
  8  9  2  3
  9  2  1  0
  3 10  1  0
  4 11  1  0
  5 12  1  0
  5 13  1  0
  6 14  1  0
  6 15  1  0
  7 16  1  0
  7 17  1  0
  8 18  1  0
  9 19  1  0
M  END
