
     RDKit          3D

 19 20  0  0  0  0  0  0  0  0999 V2000
    3.5334    0.7896    0.4568 O   0  0  0  0  0  0  0  0  0  0  0  0
    2.3749    0.5542    0.2293 C   0  0  0  0  0  0  0  0  0  0  0  0
    1.1387    0.4283    1.0407 C   0  0  0  0  0  0  0  0  0  0  0  0
    0.6505   -0.5535    0.0167 C   0  0  0  0  0  0  0  0  0  0  0  0
   -0.7908   -0.5238   -0.3525 C   0  0  0  0  0  0  0  0  0  0  0  0
   -1.1278   -1.4967   -1.3243 O   0  0  0  0  0  0  0  0  0  0  0  0
   -1.6642    0.6397   -0.1779 C   0  0  0  0  0  0  0  0  0  0  0  0
   -1.7679   -0.4788    0.8010 C   0  0  0  0  0  0  0  0  0  0  0  0
    1.5249    0.2613   -0.9497 C   0  0  0  0  0  0  0  0  0  0  0  0
    1.2876    0.0265    2.0622 H   0  0  0  0  0  0  0  0  0  0  0  0
    0.5938    1.3943    0.9991 H   0  0  0  0  0  0  0  0  0  0  0  0
    1.0903   -1.5660    0.1127 H   0  0  0  0  0  0  0  0  0  0  0  0
   -1.9726   -1.1883   -1.7529 H   0  0  0  0  0  0  0  0  0  0  0  0
   -1.2623    1.5909    0.2049 H   0  0  0  0  0  0  0  0  0  0  0  0
   -2.4487    0.7781   -0.9551 H   0  0  0  0  0  0  0  0  0  0  0  0
   -2.6504   -1.1537    0.7901 H   0  0  0  0  0  0  0  0  0  0  0  0
   -1.3847   -0.3093    1.8328 H   0  0  0  0  0  0  0  0  0  0  0  0
    1.9784   -0.3245   -1.7534 H   0  0  0  0  0  0  0  0  0  0  0  0
    0.8968    1.1317   -1.2803 H   0  0  0  0  0  0  0  0  0  0  0  0
  1  2  2  0
  2  3  1  0
  3  4  1  0
  4  5  1  0
  5  6  1  0
  5  7  1  0
  7  8  1  0
  4  9  1  0
  9  2  1  0
  8  5  1  0
  3 10  1  0
  3 11  1  0
  4 12  1  0
  6 13  1  0
  7 14  1  0
  7 15  1  0
  8 16  1  0
  8 17  1  0
  9 18  1  0
  9 19  1  0
M  END
