
     RDKit          3D

 15 16  0  0  0  0  0  0  0  0999 V2000
   -2.8624   -1.0260   -0.3231 O   0  0  0  0  0  0  0  0  0  0  0  0
   -1.7100   -0.7262   -0.1453 C   0  0  0  0  0  0  0  0  0  0  0  0
   -0.9102    0.5085   -0.1394 C   0  0  0  0  0  0  0  0  0  0  0  0
   -1.4224    1.5984    0.5026 O   0  0  0  0  0  0  0  0  0  0  0  0
    0.2537   -0.1857    0.5041 C   0  0  0  0  0  0  0  0  0  0  0  0
    1.6220    0.0279   -0.0562 C   0  0  0  0  0  0  0  0  0  0  0  0
    1.5657    1.1109   -0.9207 O   0  0  0  0  0  0  0  0  0  0  0  0
    0.0879   -1.2129    1.3860 O   0  0  0  0  0  0  0  0  0  0  0  0
   -0.4912   -1.4843    0.1658 C   0  0  0  0  0  0  0  0  0  0  0  0
   -0.6398    0.7851   -1.2000 H   0  0  0  0  0  0  0  0  0  0  0  0
   -2.0306    1.4290    1.2383 H   0  0  0  0  0  0  0  0  0  0  0  0
    1.9906   -0.8972   -0.5477 H   0  0  0  0  0  0  0  0  0  0  0  0
    2.2974    0.3248    0.7948 H   0  0  0  0  0  0  0  0  0  0  0  0
    2.2210    1.8302   -0.6640 H   0  0  0  0  0  0  0  0  0  0  0  0
    0.0285   -2.0827   -0.5953 H   0  0  0  0  0  0  0  0  0  0  0  0
  1  2  2  0
  2  3  1  0
  3  4  1  0
  3  5  1  0
  5  6  1  0
  6  7  1  0
  5  8  1  0
  8  9  1  0
  9  2  1  0
  9  5  1  0
  3 10  1  0
  4 11  1  0
  6 12  1  0
  6 13  1  0
  7 14  1  0
  9 15  1  0
M  END
