
     RDKit          3D

 17 18  0  0  0  0  0  0  0  0999 V2000
   -2.7630   -0.9930    1.2176 O   0  0  0  0  0  0  0  0  0  0  0  0
   -1.7576   -0.4697    0.7836 C   0  0  0  0  0  0  0  0  0  0  0  0
   -0.5885   -1.2407    0.2660 C   0  0  0  0  0  0  0  0  0  0  0  0
    0.3214   -0.2065   -0.3668 C   0  0  0  0  0  0  0  0  0  0  0  0
    1.6786   -0.3554    0.2877 C   0  0  0  0  0  0  0  0  0  0  0  0
    2.6167    0.5192   -0.1835 O   0  0  0  0  0  0  0  0  0  0  0  0
   -0.2849    1.1372   -0.1073 C   0  0  0  0  0  0  0  0  0  0  0  0
   -0.3167    1.5016    1.2466 O   0  0  0  0  0  0  0  0  0  0  0  0
   -1.4896    0.9778    0.6801 C   0  0  0  0  0  0  0  0  0  0  0  0
   -0.0969   -1.7903    1.0931 H   0  0  0  0  0  0  0  0  0  0  0  0
   -0.9698   -1.9744   -0.4748 H   0  0  0  0  0  0  0  0  0  0  0  0
    0.3798   -0.4446   -1.4377 H   0  0  0  0  0  0  0  0  0  0  0  0
    1.5852   -0.2624    1.3671 H   0  0  0  0  0  0  0  0  0  0  0  0
    2.0260   -1.3926    0.0372 H   0  0  0  0  0  0  0  0  0  0  0  0
    2.2539    1.3687   -0.5395 H   0  0  0  0  0  0  0  0  0  0  0  0
   -0.2683    1.9288   -0.8779 H   0  0  0  0  0  0  0  0  0  0  0  0
   -2.3265    1.6962    0.5428 H   0  0  0  0  0  0  0  0  0  0  0  0
  1  2  2  0
  2  3  1  0
  3  4  1  0
  4  5  1  0
  5  6  1  0
  4  7  1  0
  7  8  1  0
  8  9  1  0
  9  2  1  0
  9  7  1  0
  3 10  1  0
  3 11  1  0
  4 12  1  0
  5 13  1  0
  5 14  1  0
  6 15  1  0
  7 16  1  0
  9 17  1  0
M  END
