
     RDKit          3D

 19 19  0  0  0  0  0  0  0  0999 V2000
   -0.3408   -2.4112   -1.3085 O   0  0  0  0  0  0  0  0  0  0  0  0
   -1.0047   -1.5003   -0.7865 C   0  0  0  0  0  0  0  0  0  0  0  0
   -1.9146   -1.5017    0.2490 O   0  0  0  0  0  0  0  0  0  0  0  0
   -1.8453   -0.1003    0.4211 C   0  0  0  0  0  0  0  0  0  0  0  0
   -1.1851   -0.0702   -0.9481 C   0  0  0  0  0  0  0  0  0  0  0  0
   -0.0080    0.8161   -0.9657 C   0  0  0  0  0  0  0  0  0  0  0  0
    0.8649    0.8420    0.2247 C   0  0  0  0  0  0  0  0  0  0  0  0
    1.4893   -0.4655    0.5989 C   0  0  0  0  0  0  0  0  0  0  0  0
    2.2924   -0.2731    1.7482 O   0  0  0  0  0  0  0  0  0  0  0  0
   -1.2234    0.1642    1.2781 H   0  0  0  0  0  0  0  0  0  0  0  0
   -2.8094    0.4223    0.4322 H   0  0  0  0  0  0  0  0  0  0  0  0
   -1.9723    0.1391   -1.7244 H   0  0  0  0  0  0  0  0  0  0  0  0
   -0.3408    1.8712   -1.1588 H   0  0  0  0  0  0  0  0  0  0  0  0
    0.6317    0.5694   -1.8549 H   0  0  0  0  0  0  0  0  0  0  0  0
    1.7378    1.5177   -0.0339 H   0  0  0  0  0  0  0  0  0  0  0  0
    0.4122    1.3464    1.1131 H   0  0  0  0  0  0  0  0  0  0  0  0
    0.7540   -1.2344    0.9138 H   0  0  0  0  0  0  0  0  0  0  0  0
    2.1601   -0.8039   -0.1973 H   0  0  0  0  0  0  0  0  0  0  0  0
    2.3021    0.6721    1.9991 H   0  0  0  0  0  0  0  0  0  0  0  0
  1  2  2  0
  2  3  1  0
  3  4  1  0
  4  5  1  0
  5  6  1  0
  6  7  1  0
  7  8  1  0
  8  9  1  0
  5  2  1  0
  4 10  1  0
  4 11  1  0
  5 12  1  0
  6 13  1  0
  6 14  1  0
  7 15  1  0
  7 16  1  0
  8 17  1  0
  8 18  1  0
  9 19  1  0
M  END
