
     RDKit          3D

 16 17  0  0  0  0  0  0  0  0999 V2000
   -1.1127   -1.7436    1.6571 O   0  0  0  0  0  0  0  0  0  0  0  0
   -0.8292   -0.9791    0.7746 C   0  0  0  0  0  0  0  0  0  0  0  0
   -1.2103    0.3423    0.2037 C   0  0  0  0  0  0  0  0  0  0  0  0
   -0.2292    1.3999    0.5471 C   0  0  0  0  0  0  0  0  0  0  0  0
    1.0321    1.1474    0.2357 C   0  0  0  0  0  0  0  0  0  0  0  0
    1.4175   -0.2906    0.1423 C   0  0  0  0  0  0  0  0  0  0  0  0
    0.2125   -1.0454   -0.3169 C   0  0  0  0  0  0  0  0  0  0  0  0
   -0.7454   -0.2143   -1.1511 C   0  0  0  0  0  0  0  0  0  0  0  0
   -2.2595    0.6038    0.2244 H   0  0  0  0  0  0  0  0  0  0  0  0
   -0.5699    2.3019    1.0206 H   0  0  0  0  0  0  0  0  0  0  0  0
    1.7745    1.9142    0.0512 H   0  0  0  0  0  0  0  0  0  0  0  0
    1.6280   -0.6089    1.2046 H   0  0  0  0  0  0  0  0  0  0  0  0
    2.3072   -0.4479   -0.4829 H   0  0  0  0  0  0  0  0  0  0  0  0
    0.3839   -2.0604   -0.7116 H   0  0  0  0  0  0  0  0  0  0  0  0
   -1.5013   -0.8730   -1.6188 H   0  0  0  0  0  0  0  0  0  0  0  0
   -0.2980    0.5535   -1.7800 H   0  0  0  0  0  0  0  0  0  0  0  0
  1  2  2  0
  2  3  1  0
  3  4  1  0
  4  5  2  0
  5  6  1  0
  6  7  1  0
  7  8  1  0
  7  2  1  0
  8  3  1  0
  3  9  1  0
  4 10  1  0
  5 11  1  0
  6 12  1  0
  6 13  1  0
  7 14  1  0
  8 15  1  0
  8 16  1  0
M  END
