
     RDKit          3D

 19 19  0  0  0  0  0  0  0  0999 V2000
   -1.3540    2.5150   -1.2231 O   0  0  0  0  0  0  0  0  0  0  0  0
   -0.7282    1.5010   -0.8173 C   0  0  0  0  0  0  0  0  0  0  0  0
   -1.6494    0.4697   -0.3107 C   0  0  0  0  0  0  0  0  0  0  0  0
   -1.1573   -0.9260   -0.5103 C   0  0  0  0  0  0  0  0  0  0  0  0
   -0.2161   -1.2634    0.6253 C   0  0  0  0  0  0  0  0  0  0  0  0
    1.1920   -1.0122    0.0931 C   0  0  0  0  0  0  0  0  0  0  0  0
    1.6440    0.1497    0.6581 O   0  0  0  0  0  0  0  0  0  0  0  0
    1.7715    1.2038   -0.2006 C   0  0  0  0  0  0  0  0  0  0  0  0
    0.6391    1.5463   -0.9197 O   0  0  0  0  0  0  0  0  0  0  0  0
   -1.8946    0.6081    0.7674 H   0  0  0  0  0  0  0  0  0  0  0  0
   -2.6447    0.5429   -0.8366 H   0  0  0  0  0  0  0  0  0  0  0  0
   -0.6460   -0.9813   -1.4967 H   0  0  0  0  0  0  0  0  0  0  0  0
   -1.9840   -1.6337   -0.5308 H   0  0  0  0  0  0  0  0  0  0  0  0
   -0.4384   -0.5886    1.5005 H   0  0  0  0  0  0  0  0  0  0  0  0
   -0.3396   -2.2879    1.0043 H   0  0  0  0  0  0  0  0  0  0  0  0
    1.2144   -1.0012   -1.0187 H   0  0  0  0  0  0  0  0  0  0  0  0
    1.8331   -1.8800    0.4138 H   0  0  0  0  0  0  0  0  0  0  0  0
    2.1585    2.0739    0.3877 H   0  0  0  0  0  0  0  0  0  0  0  0
    2.5998    0.9639   -0.9245 H   0  0  0  0  0  0  0  0  0  0  0  0
  1  2  2  0
  2  3  1  0
  3  4  1  0
  4  5  1  0
  5  6  1  0
  6  7  1  0
  7  8  1  0
  8  9  1  0
  9  2  1  0
  3 10  1  0
  3 11  1  0
  4 12  1  0
  4 13  1  0
  5 14  1  0
  5 15  1  0
  6 16  1  0
  6 17  1  0
  8 18  1  0
  8 19  1  0
M  END
