
     RDKit          3D

 17 17  0  0  0  0  0  0  0  0999 V2000
   -2.2946    2.2220   -0.2698 O   0  0  0  0  0  0  0  0  0  0  0  0
   -1.4314    1.3197   -0.0836 C   0  0  0  0  0  0  0  0  0  0  0  0
   -0.0079    1.3420   -0.3628 C   0  0  0  0  0  0  0  0  0  0  0  0
    0.4670    0.1163   -0.2740 C   0  0  0  0  0  0  0  0  0  0  0  0
    1.8899   -0.2343   -0.4982 C   0  0  0  0  0  0  0  0  0  0  0  0
    2.6610    0.8567   -0.8087 O   0  0  0  0  0  0  0  0  0  0  0  0
   -0.5974   -0.8499    0.0756 C   0  0  0  0  0  0  0  0  0  0  0  0
   -0.9211   -1.6767   -0.9996 O   0  0  0  0  0  0  0  0  0  0  0  0
   -1.7832   -0.0024    0.4965 C   0  0  0  0  0  0  0  0  0  0  0  0
    0.5401    2.2523   -0.6033 H   0  0  0  0  0  0  0  0  0  0  0  0
    1.9096   -1.0197   -1.2990 H   0  0  0  0  0  0  0  0  0  0  0  0
    2.2336   -0.7553    0.4309 H   0  0  0  0  0  0  0  0  0  0  0  0
    3.6163    0.6511   -0.6202 H   0  0  0  0  0  0  0  0  0  0  0  0
   -0.2633   -1.5041    0.9238 H   0  0  0  0  0  0  0  0  0  0  0  0
   -1.4799   -2.4224   -0.6202 H   0  0  0  0  0  0  0  0  0  0  0  0
   -1.8062    0.0960    1.5980 H   0  0  0  0  0  0  0  0  0  0  0  0
   -2.7324   -0.3912    0.0880 H   0  0  0  0  0  0  0  0  0  0  0  0
  1  2  2  0
  2  3  1  0
  3  4  2  0
  4  5  1  0
  5  6  1  0
  4  7  1  0
  7  8  1  0
  7  9  1  0
  9  2  1  0
  3 10  1  0
  5 11  1  0
  5 12  1  0
  6 13  1  0
  7 14  1  0
  8 15  1  0
  9 16  1  0
  9 17  1  0
M  END
