
     RDKit          3D

 14 15  0  0  0  0  0  0  0  0999 V2000
    2.9539    0.0883   -0.8436 O   0  0  0  0  0  0  0  0  0  0  0  0
    1.7645    0.0794   -0.5071 C   0  0  0  0  0  0  0  0  0  0  0  0
    0.8855   -0.8827   -1.0220 O   0  0  0  0  0  0  0  0  0  0  0  0
   -0.4348   -0.8389   -0.5390 C   0  0  0  0  0  0  0  0  0  0  0  0
   -0.3711   -0.6623    0.9808 C   0  0  0  0  0  0  0  0  0  0  0  0
   -0.1408    0.7991    0.7227 C   0  0  0  0  0  0  0  0  0  0  0  0
   -0.8971    0.6072   -0.5968 C   0  0  0  0  0  0  0  0  0  0  0  0
    1.2007    1.0023    0.3931 O   0  0  0  0  0  0  0  0  0  0  0  0
   -1.1317   -1.5866   -0.8966 H   0  0  0  0  0  0  0  0  0  0  0  0
   -1.2859   -0.9369    1.5135 H   0  0  0  0  0  0  0  0  0  0  0  0
    0.5529   -1.1548    1.3718 H   0  0  0  0  0  0  0  0  0  0  0  0
   -0.6464    1.5186    1.3433 H   0  0  0  0  0  0  0  0  0  0  0  0
   -0.4678    1.2067   -1.4090 H   0  0  0  0  0  0  0  0  0  0  0  0
   -1.9819    0.7606   -0.5110 H   0  0  0  0  0  0  0  0  0  0  0  0
  1  2  2  0
  2  3  1  0
  3  4  1  0
  4  5  1  0
  5  6  1  0
  6  7  1  0
  6  8  1  0
  8  2  1  0
  7  4  1  0
  4  9  1  0
  5 10  1  0
  5 11  1  0
  6 12  1  0
  7 13  1  0
  7 14  1  0
M  END
