
     RDKit          3D

 19 20  0  0  0  0  0  0  0  0999 V2000
   -1.6124   -0.0458    2.1267 O   0  0  0  0  0  0  0  0  0  0  0  0
   -1.2737   -0.1161    0.9664 C   0  0  0  0  0  0  0  0  0  0  0  0
   -0.9627    0.8760   -0.0681 C   0  0  0  0  0  0  0  0  0  0  0  0
    0.4575    1.3153    0.0901 C   0  0  0  0  0  0  0  0  0  0  0  0
    1.4627    0.2775   -0.3213 C   0  0  0  0  0  0  0  0  0  0  0  0
    1.2479   -0.9439    0.5016 C   0  0  0  0  0  0  0  0  0  0  0  0
    0.2321   -1.7629    0.0850 O   0  0  0  0  0  0  0  0  0  0  0  0
   -1.0071   -1.1950    0.0226 C   0  0  0  0  0  0  0  0  0  0  0  0
   -1.1509   -0.1990   -1.1036 C   0  0  0  0  0  0  0  0  0  0  0  0
   -1.6368    1.7208   -0.1922 H   0  0  0  0  0  0  0  0  0  0  0  0
    0.6709    2.3054   -0.3878 H   0  0  0  0  0  0  0  0  0  0  0  0
    0.6284    1.4992    1.1911 H   0  0  0  0  0  0  0  0  0  0  0  0
    1.5161    0.1112   -1.3997 H   0  0  0  0  0  0  0  0  0  0  0  0
    2.4728    0.6899   -0.0255 H   0  0  0  0  0  0  0  0  0  0  0  0
    1.1536   -0.6158    1.5666 H   0  0  0  0  0  0  0  0  0  0  0  0
    2.1944   -1.5442    0.4531 H   0  0  0  0  0  0  0  0  0  0  0  0
   -1.7861   -1.9840   -0.0730 H   0  0  0  0  0  0  0  0  0  0  0  0
   -0.4246   -0.2544   -1.9099 H   0  0  0  0  0  0  0  0  0  0  0  0
   -2.1822   -0.1339   -1.5223 H   0  0  0  0  0  0  0  0  0  0  0  0
  1  2  2  0
  2  3  1  0
  3  4  1  0
  4  5  1  0
  5  6  1  0
  6  7  1  0
  7  8  1  0
  8  9  1  0
  8  2  1  0
  9  3  1  0
  3 10  1  0
  4 11  1  0
  4 12  1  0
  5 13  1  0
  5 14  1  0
  6 15  1  0
  6 16  1  0
  8 17  1  0
  9 18  1  0
  9 19  1  0
M  END
