
     RDKit          3D

 14 15  0  0  0  0  0  0  0  0999 V2000
    0.3144   -1.7765    1.6374 O   0  0  0  0  0  0  0  0  0  0  0  0
    0.2430   -0.9435    0.7735 C   0  0  0  0  0  0  0  0  0  0  0  0
    0.4044   -0.8314   -0.6969 C   0  0  0  0  0  0  0  0  0  0  0  0
    1.1541    0.4372   -0.4203 C   0  0  0  0  0  0  0  0  0  0  0  0
   -0.0322    0.4748    0.5175 C   0  0  0  0  0  0  0  0  0  0  0  0
   -0.3289    1.3867    1.3266 O   0  0  0  0  0  0  0  0  0  0  0  0
   -0.8448    0.0033   -0.6679 C   0  0  0  0  0  0  0  0  0  0  0  0
   -1.9360   -0.7432   -0.2880 O   0  0  0  0  0  0  0  0  0  0  0  0
    0.6392   -1.5609   -1.3377 H   0  0  0  0  0  0  0  0  0  0  0  0
    1.1599    1.1941   -1.2173 H   0  0  0  0  0  0  0  0  0  0  0  0
    2.1310    0.2337    0.0502 H   0  0  0  0  0  0  0  0  0  0  0  0
    0.0161    2.2832    1.0899 H   0  0  0  0  0  0  0  0  0  0  0  0
   -0.9764    0.7282   -1.4729 H   0  0  0  0  0  0  0  0  0  0  0  0
   -1.9439   -0.8857    0.7059 H   0  0  0  0  0  0  0  0  0  0  0  0
  1  2  2  0
  2  3  1  0
  3  4  1  0
  4  5  1  0
  5  6  1  0
  5  7  1  0
  7  8  1  0
  5  2  1  0
  7  3  1  0
  3  9  1  0
  4 10  1  0
  4 11  1  0
  6 12  1  0
  7 13  1  0
  8 14  1  0
M  END
