
     RDKit          3D

 17 18  0  0  0  0  0  0  0  0999 V2000
    2.0875    2.3885    0.1226 O   0  0  0  0  0  0  0  0  0  0  0  0
    1.6043    1.2207   -0.0015 C   0  0  0  0  0  0  0  0  0  0  0  0
    2.3175   -0.0379   -0.1787 C   0  0  0  0  0  0  0  0  0  0  0  0
    1.4656   -1.0614   -0.3122 C   0  0  0  0  0  0  0  0  0  0  0  0
    0.1496   -0.5755   -0.2782 C   0  0  0  0  0  0  0  0  0  0  0  0
   -0.9719   -0.9687    0.5891 C   0  0  0  0  0  0  0  0  0  0  0  0
   -1.9908    0.1093    0.0012 C   0  0  0  0  0  0  0  0  0  0  0  0
   -1.0730    1.3021    0.1222 C   0  0  0  0  0  0  0  0  0  0  0  0
    0.1926    0.9161    0.0116 C   0  0  0  0  0  0  0  0  0  0  0  0
    3.3823   -0.1345   -0.1999 H   0  0  0  0  0  0  0  0  0  0  0  0
    1.7921   -2.0855   -0.4254 H   0  0  0  0  0  0  0  0  0  0  0  0
   -0.3080   -0.6125   -1.3746 H   0  0  0  0  0  0  0  0  0  0  0  0
   -1.4011   -1.9643    0.4323 H   0  0  0  0  0  0  0  0  0  0  0  0
   -0.8592   -0.7911    1.6556 H   0  0  0  0  0  0  0  0  0  0  0  0
   -2.8719    0.1596    0.6109 H   0  0  0  0  0  0  0  0  0  0  0  0
   -2.0879   -0.1713   -1.0508 H   0  0  0  0  0  0  0  0  0  0  0  0
   -1.4277    2.3065    0.2757 H   0  0  0  0  0  0  0  0  0  0  0  0
  1  2  2  0
  2  3  1  0
  3  4  2  0
  4  5  1  0
  5  6  1  0
  6  7  1  0
  7  8  1  0
  8  9  2  0
  9  2  1  0
  9  5  1  0
  3 10  1  0
  4 11  1  0
  5 12  1  0
  6 13  1  0
  6 14  1  0
  7 15  1  0
  7 16  1  0
  8 17  1  0
M  END
