
     RDKit          3D

 17 19  0  0  0  0  0  0  0  0999 V2000
   -1.8629    1.7144    0.9513 O   0  0  0  0  0  0  0  0  0  0  0  0
   -1.2123    0.9233    0.2936 C   0  0  0  0  0  0  0  0  0  0  0  0
   -1.5716   -0.5133    0.1441 C   0  0  0  0  0  0  0  0  0  0  0  0
   -0.2759   -1.1545   -0.3208 C   0  0  0  0  0  0  0  0  0  0  0  0
    0.4993   -1.4041    0.7858 O   0  0  0  0  0  0  0  0  0  0  0  0
    1.3153   -0.3394    1.0249 C   0  0  0  0  0  0  0  0  0  0  0  0
    1.3013    0.5721   -0.1620 C   0  0  0  0  0  0  0  0  0  0  0  0
    0.0161    1.2524   -0.4495 C   0  0  0  0  0  0  0  0  0  0  0  0
    0.3615   -0.0527   -1.0988 C   0  0  0  0  0  0  0  0  0  0  0  0
   -1.8810   -0.9699    1.1020 H   0  0  0  0  0  0  0  0  0  0  0  0
   -2.3681   -0.6035   -0.6237 H   0  0  0  0  0  0  0  0  0  0  0  0
   -0.4541   -2.0463   -0.9260 H   0  0  0  0  0  0  0  0  0  0  0  0
    1.0604    0.2390    1.9336 H   0  0  0  0  0  0  0  0  0  0  0  0
    2.3656   -0.7228    1.1631 H   0  0  0  0  0  0  0  0  0  0  0  0
    2.2131    1.0141   -0.5576 H   0  0  0  0  0  0  0  0  0  0  0  0
    0.0403    2.1501   -1.0836 H   0  0  0  0  0  0  0  0  0  0  0  0
    0.4529   -0.0592   -2.1763 H   0  0  0  0  0  0  0  0  0  0  0  0
  1  2  2  0
  2  3  1  0
  3  4  1  0
  4  5  1  0
  5  6  1  0
  6  7  1  0
  7  8  1  0
  8  9  1  0
  8  2  1  0
  9  4  1  0
  9  7  1  0
  3 10  1  0
  3 11  1  0
  4 12  1  0
  6 13  1  0
  6 14  1  0
  7 15  1  0
  8 16  1  0
  9 17  1  0
M  END
