
     RDKit          3D

 16 16  0  0  0  0  0  0  0  0999 V2000
    0.0969    2.6877   -0.5206 O   0  0  0  0  0  0  0  0  0  0  0  0
    0.0732    1.5084   -0.0346 C   0  0  0  0  0  0  0  0  0  0  0  0
    1.3686    0.8099    0.0357 C   0  0  0  0  0  0  0  0  0  0  0  0
    1.6463   -0.4826   -0.0167 C   0  0  0  0  0  0  0  0  0  0  0  0
    0.6483   -1.5782   -0.1673 C   0  0  0  0  0  0  0  0  0  0  0  0
   -0.4410   -1.2495    0.6175 O   0  0  0  0  0  0  0  0  0  0  0  0
   -1.3805   -0.4716   -0.0119 C   0  0  0  0  0  0  0  0  0  0  0  0
   -1.2468    0.9826    0.3996 C   0  0  0  0  0  0  0  0  0  0  0  0
    2.2170    1.4639    0.1474 H   0  0  0  0  0  0  0  0  0  0  0  0
    2.6900   -0.7579    0.0570 H   0  0  0  0  0  0  0  0  0  0  0  0
    1.0822   -2.5717    0.0687 H   0  0  0  0  0  0  0  0  0  0  0  0
    0.3975   -1.6126   -1.2553 H   0  0  0  0  0  0  0  0  0  0  0  0
   -2.4146   -0.8051    0.2797 H   0  0  0  0  0  0  0  0  0  0  0  0
   -1.3440   -0.5480   -1.1134 H   0  0  0  0  0  0  0  0  0  0  0  0
   -1.3471    1.0239    1.5227 H   0  0  0  0  0  0  0  0  0  0  0  0
   -2.0458    1.6006   -0.0087 H   0  0  0  0  0  0  0  0  0  0  0  0
  1  2  2  0
  2  3  1  0
  3  4  2  0
  4  5  1  0
  5  6  1  0
  6  7  1  0
  7  8  1  0
  8  2  1  0
  3  9  1  0
  4 10  1  0
  5 11  1  0
  5 12  1  0
  7 13  1  0
  7 14  1  0
  8 15  1  0
  8 16  1  0
M  END
