
     RDKit          3D

 13 13  0  0  0  0  0  0  0  0999 V2000
    0.0638    2.4138   -0.4751 O   0  0  0  0  0  0  0  0  0  0  0  0
    0.1316    1.1975   -0.3493 C   0  0  0  0  0  0  0  0  0  0  0  0
    1.2608    0.3490   -0.6974 C   0  0  0  0  0  0  0  0  0  0  0  0
    1.2103   -0.7733   -0.0068 C   0  0  0  0  0  0  0  0  0  0  0  0
    0.0214   -0.7411    0.8634 C   0  0  0  0  0  0  0  0  0  0  0  0
   -0.8872    0.2497    0.1806 C   0  0  0  0  0  0  0  0  0  0  0  0
   -1.5725   -0.3410   -0.8831 O   0  0  0  0  0  0  0  0  0  0  0  0
    2.0658    0.5581   -1.4192 H   0  0  0  0  0  0  0  0  0  0  0  0
    1.9371   -1.5888   -0.0759 H   0  0  0  0  0  0  0  0  0  0  0  0
   -0.4514   -1.7318    0.9895 H   0  0  0  0  0  0  0  0  0  0  0  0
    0.2999   -0.2928    1.8630 H   0  0  0  0  0  0  0  0  0  0  0  0
   -1.5702    0.7141    0.9084 H   0  0  0  0  0  0  0  0  0  0  0  0
   -2.5091   -0.0135   -0.8981 H   0  0  0  0  0  0  0  0  0  0  0  0
  1  2  2  0
  2  3  1  0
  3  4  2  0
  4  5  1  0
  5  6  1  0
  6  7  1  0
  6  2  1  0
  3  8  1  0
  4  9  1  0
  5 10  1  0
  5 11  1  0
  6 12  1  0
  7 13  1  0
M  END
