
     RDKit          3D

 17 19  0  0  0  0  0  0  0  0999 V2000
    0.8111    0.7548   -1.9751 O   0  0  0  0  0  0  0  0  0  0  0  0
    0.5041    0.3500   -0.8652 C   0  0  0  0  0  0  0  0  0  0  0  0
   -0.7114    0.2156   -0.0533 C   0  0  0  0  0  0  0  0  0  0  0  0
   -1.9443    0.9180   -0.2144 C   0  0  0  0  0  0  0  0  0  0  0  0
   -1.8384   -0.6324   -0.3799 C   0  0  0  0  0  0  0  0  0  0  0  0
    0.1185    0.1265    1.1703 C   0  0  0  0  0  0  0  0  0  0  0  0
    1.2431   -0.2306    0.2572 C   0  0  0  0  0  0  0  0  0  0  0  0
    2.5732   -0.3806    0.4916 C   0  0  0  0  0  0  0  0  0  0  0  0
    1.7276   -1.5121    0.2369 O   0  0  0  0  0  0  0  0  0  0  0  0
   -2.1242    1.4889   -1.1511 H   0  0  0  0  0  0  0  0  0  0  0  0
   -2.5489    1.2249    0.6792 H   0  0  0  0  0  0  0  0  0  0  0  0
   -2.3005   -1.2364    0.4223 H   0  0  0  0  0  0  0  0  0  0  0  0
   -1.9442   -0.9764   -1.4240 H   0  0  0  0  0  0  0  0  0  0  0  0
    0.2756    1.1111    1.6963 H   0  0  0  0  0  0  0  0  0  0  0  0
   -0.2138   -0.6965    1.8547 H   0  0  0  0  0  0  0  0  0  0  0  0
    3.3578   -0.1762   -0.2746 H   0  0  0  0  0  0  0  0  0  0  0  0
    3.0146   -0.3485    1.5263 H   0  0  0  0  0  0  0  0  0  0  0  0
  1  2  2  0
  2  3  1  0
  3  4  1  0
  4  5  1  0
  3  6  1  0
  6  7  1  0
  7  8  1  0
  8  9  1  0
  7  2  1  0
  5  3  1  0
  9  7  1  0
  4 10  1  0
  4 11  1  0
  5 12  1  0
  5 13  1  0
  6 14  1  0
  6 15  1  0
  8 16  1  0
  8 17  1  0
M  END
