
     RDKit          3D

 15 17  0  0  0  0  0  0  0  0999 V2000
    2.8189    1.2026   -0.4623 O   0  0  0  0  0  0  0  0  0  0  0  0
    1.7290    0.7577   -0.0231 C   0  0  0  0  0  0  0  0  0  0  0  0
    1.2730   -0.6357   -0.2713 C   0  0  0  0  0  0  0  0  0  0  0  0
   -0.0677   -0.7495    0.4090 C   0  0  0  0  0  0  0  0  0  0  0  0
   -0.4024    0.6710    0.7688 C   0  0  0  0  0  0  0  0  0  0  0  0
    0.7735    1.4111    0.7350 O   0  0  0  0  0  0  0  0  0  0  0  0
   -1.3440    0.8026   -0.3787 C   0  0  0  0  0  0  0  0  0  0  0  0
   -1.1300    0.1577   -1.5758 O   0  0  0  0  0  0  0  0  0  0  0  0
   -1.2366   -0.7225   -0.5276 C   0  0  0  0  0  0  0  0  0  0  0  0
    1.1788   -0.7957   -1.3621 H   0  0  0  0  0  0  0  0  0  0  0  0
    1.9792   -1.3084    0.2191 H   0  0  0  0  0  0  0  0  0  0  0  0
   -0.1529   -1.4867    1.2112 H   0  0  0  0  0  0  0  0  0  0  0  0
   -0.9328    0.6775    1.7592 H   0  0  0  0  0  0  0  0  0  0  0  0
   -2.3278    1.2517   -0.2324 H   0  0  0  0  0  0  0  0  0  0  0  0
   -2.1583   -1.2334   -0.2688 H   0  0  0  0  0  0  0  0  0  0  0  0
  1  2  2  0
  2  3  1  0
  3  4  1  0
  4  5  1  0
  5  6  1  0
  5  7  1  0
  7  8  1  0
  8  9  1  0
  6  2  1  0
  9  7  1  0
  9  4  1  0
  3 10  1  0
  3 11  1  0
  4 12  1  0
  5 13  1  0
  7 14  1  0
  9 15  1  0
M  END
