
     RDKit          3D

 14 16  0  0  0  0  0  0  0  0999 V2000
    0.9743    2.4022   -0.3451 O   0  0  0  0  0  0  0  0  0  0  0  0
    0.6050    1.2482   -0.3019 C   0  0  0  0  0  0  0  0  0  0  0  0
    1.4245    0.0512    0.0323 C   0  0  0  0  0  0  0  0  0  0  0  0
    0.3341   -0.9338    0.4620 C   0  0  0  0  0  0  0  0  0  0  0  0
   -0.9710   -0.4456    0.9361 C   0  0  0  0  0  0  0  0  0  0  0  0
   -1.5064    0.7665    0.6045 O   0  0  0  0  0  0  0  0  0  0  0  0
   -0.7817    0.8110   -0.5855 C   0  0  0  0  0  0  0  0  0  0  0  0
   -0.7084   -0.6914   -0.4976 C   0  0  0  0  0  0  0  0  0  0  0  0
    2.1697    0.2209    0.8022 H   0  0  0  0  0  0  0  0  0  0  0  0
    1.8682   -0.3185   -0.9359 H   0  0  0  0  0  0  0  0  0  0  0  0
    0.6836   -1.8847    0.8493 H   0  0  0  0  0  0  0  0  0  0  0  0
   -1.5682   -1.1095    1.5651 H   0  0  0  0  0  0  0  0  0  0  0  0
   -1.2750    1.2334   -1.4518 H   0  0  0  0  0  0  0  0  0  0  0  0
   -1.2486   -1.3501   -1.1335 H   0  0  0  0  0  0  0  0  0  0  0  0
  1  2  2  0
  2  3  1  0
  3  4  1  0
  4  5  1  0
  5  6  1  0
  6  7  1  0
  7  8  1  0
  7  2  1  0
  8  4  1  0
  8  5  1  0
  3  9  1  0
  3 10  1  0
  4 11  1  0
  5 12  1  0
  7 13  1  0
  8 14  1  0
M  END
