
     RDKit          3D

 17 17  0  0  0  0  0  0  0  0999 V2000
   -1.3246   -2.1225   -0.9255 O   0  0  0  0  0  0  0  0  0  0  0  0
   -0.6923   -1.4188   -0.1087 C   0  0  0  0  0  0  0  0  0  0  0  0
   -1.5379   -0.6723    0.7979 C   0  0  0  0  0  0  0  0  0  0  0  0
   -1.3738    0.6819    0.8131 O   0  0  0  0  0  0  0  0  0  0  0  0
   -0.9474    1.2407   -0.3678 C   0  0  0  0  0  0  0  0  0  0  0  0
    0.5172    1.4864   -0.2529 C   0  0  0  0  0  0  0  0  0  0  0  0
    1.5549    0.6786   -0.1222 C   0  0  0  0  0  0  0  0  0  0  0  0
    1.8178   -0.7794   -0.0261 C   0  0  0  0  0  0  0  0  0  0  0  0
    0.6666   -1.5472   -0.2967 O   0  0  0  0  0  0  0  0  0  0  0  0
   -1.4146   -1.0740    1.8441 H   0  0  0  0  0  0  0  0  0  0  0  0
   -2.6262   -0.8718    0.5671 H   0  0  0  0  0  0  0  0  0  0  0  0
   -1.1564    0.5027   -1.1886 H   0  0  0  0  0  0  0  0  0  0  0  0
   -1.5016    2.1852   -0.5478 H   0  0  0  0  0  0  0  0  0  0  0  0
    0.7272    2.5499   -0.2881 H   0  0  0  0  0  0  0  0  0  0  0  0
    2.4758    1.2443   -0.0706 H   0  0  0  0  0  0  0  0  0  0  0  0
    2.2264   -1.0509    0.9557 H   0  0  0  0  0  0  0  0  0  0  0  0
    2.5890   -1.0326   -0.7831 H   0  0  0  0  0  0  0  0  0  0  0  0
  1  2  2  0
  2  3  1  0
  3  4  1  0
  4  5  1  0
  5  6  1  0
  6  7  2  3
  7  8  1  0
  8  9  1  0
  9  2  1  0
  3 10  1  0
  3 11  1  0
  5 12  1  0
  5 13  1  0
  6 14  1  0
  7 15  1  0
  8 16  1  0
  8 17  1  0
M  END
