
     RDKit          3D

 19 20  0  0  0  0  0  0  0  0999 V2000
    2.1666   -0.6351    1.8899 O   0  0  0  0  0  0  0  0  0  0  0  0
    1.7934   -0.1418    0.8444 C   0  0  0  0  0  0  0  0  0  0  0  0
    1.7272   -0.6563   -0.5529 C   0  0  0  0  0  0  0  0  0  0  0  0
    0.6358    0.3650   -0.8051 C   0  0  0  0  0  0  0  0  0  0  0  0
   -0.7276   -0.2302   -0.5814 C   0  0  0  0  0  0  0  0  0  0  0  0
   -1.1131   -0.7778    0.7154 C   0  0  0  0  0  0  0  0  0  0  0  0
   -1.7724    0.4791    0.1845 C   0  0  0  0  0  0  0  0  0  0  0  0
   -3.1179    0.3563   -0.1307 O   0  0  0  0  0  0  0  0  0  0  0  0
    1.2291    1.1296    0.3210 C   0  0  0  0  0  0  0  0  0  0  0  0
    1.3819   -1.7061   -0.5431 H   0  0  0  0  0  0  0  0  0  0  0  0
    2.6717   -0.4780   -1.1185 H   0  0  0  0  0  0  0  0  0  0  0  0
    0.7282    0.7901   -1.8220 H   0  0  0  0  0  0  0  0  0  0  0  0
   -1.1069   -0.7803   -1.4853 H   0  0  0  0  0  0  0  0  0  0  0  0
   -1.7382   -1.7151    0.7305 H   0  0  0  0  0  0  0  0  0  0  0  0
   -0.5729   -0.6281    1.6534 H   0  0  0  0  0  0  0  0  0  0  0  0
   -1.5050    1.4501    0.6352 H   0  0  0  0  0  0  0  0  0  0  0  0
   -3.2852   -0.2694   -0.8811 H   0  0  0  0  0  0  0  0  0  0  0  0
    0.5448    1.6637    0.9993 H   0  0  0  0  0  0  0  0  0  0  0  0
    2.0604    1.7843   -0.0534 H   0  0  0  0  0  0  0  0  0  0  0  0
  1  2  2  0
  2  3  1  0
  3  4  1  0
  4  5  1  0
  5  6  1  0
  6  7  1  0
  7  8  1  0
  4  9  1  0
  9  2  1  0
  7  5  1  0
  3 10  1  0
  3 11  1  0
  4 12  1  0
  5 13  1  0
  6 14  1  0
  6 15  1  0
  7 16  1  0
  8 17  1  0
  9 18  1  0
  9 19  1  0
M  END
