
     RDKit          3D

 17 18  0  0  0  0  0  0  0  0999 V2000
    2.1861    1.5448   -0.0051 O   0  0  0  0  0  0  0  0  0  0  0  0
    1.2072    0.8649   -0.0160 C   0  0  0  0  0  0  0  0  0  0  0  0
    1.3133   -0.5940    0.1321 C   0  0  0  0  0  0  0  0  0  0  0  0
   -0.1368   -1.1005    0.0904 C   0  0  0  0  0  0  0  0  0  0  0  0
   -0.9563   -0.3836    1.1214 C   0  0  0  0  0  0  0  0  0  0  0  0
   -0.9149    0.9435    1.0381 C   0  0  0  0  0  0  0  0  0  0  0  0
   -0.1469    1.4144   -0.1739 C   0  0  0  0  0  0  0  0  0  0  0  0
   -0.8047    0.7794   -1.2543 O   0  0  0  0  0  0  0  0  0  0  0  0
   -0.6608   -0.5791   -1.2383 C   0  0  0  0  0  0  0  0  0  0  0  0
    1.8583   -0.9748   -0.7596 H   0  0  0  0  0  0  0  0  0  0  0  0
    1.8216   -0.9169    1.0545 H   0  0  0  0  0  0  0  0  0  0  0  0
   -0.2034   -2.1774    0.1719 H   0  0  0  0  0  0  0  0  0  0  0  0
   -1.5341   -0.9105    1.8719 H   0  0  0  0  0  0  0  0  0  0  0  0
   -1.3457    1.6534    1.7047 H   0  0  0  0  0  0  0  0  0  0  0  0
   -0.1962    2.4958   -0.2756 H   0  0  0  0  0  0  0  0  0  0  0  0
   -1.5911   -1.1410   -1.4650 H   0  0  0  0  0  0  0  0  0  0  0  0
    0.1043   -0.9185   -1.9973 H   0  0  0  0  0  0  0  0  0  0  0  0
  1  2  2  0
  2  3  1  0
  3  4  1  0
  4  5  1  0
  5  6  2  0
  6  7  1  0
  7  8  1  0
  8  9  1  0
  7  2  1  0
  9  4  1  0
  3 10  1  0
  3 11  1  0
  4 12  1  0
  5 13  1  0
  6 14  1  0
  7 15  1  0
  9 16  1  0
  9 17  1  0
M  END
