
     RDKit          3D

 15 16  0  0  0  0  0  0  0  0999 V2000
   -1.8247    2.1376    0.6441 O   0  0  0  0  0  0  0  0  0  0  0  0
   -1.0180    1.3161    0.1544 C   0  0  0  0  0  0  0  0  0  0  0  0
    0.3181    1.6573    0.3500 O   0  0  0  0  0  0  0  0  0  0  0  0
    1.4669    0.7873    0.2398 C   0  0  0  0  0  0  0  0  0  0  0  0
    1.2017   -0.1417   -0.7867 O   0  0  0  0  0  0  0  0  0  0  0  0
    0.4812   -1.2429   -0.3162 C   0  0  0  0  0  0  0  0  0  0  0  0
   -0.8079   -0.9698    0.3086 C   0  0  0  0  0  0  0  0  0  0  0  0
   -2.0448   -0.9879   -0.1786 O   0  0  0  0  0  0  0  0  0  0  0  0
   -1.4587    0.1319   -0.5440 C   0  0  0  0  0  0  0  0  0  0  0  0
    1.7162    0.3218    1.1854 H   0  0  0  0  0  0  0  0  0  0  0  0
    2.3320    1.3878   -0.1476 H   0  0  0  0  0  0  0  0  0  0  0  0
    0.4336   -1.9913   -1.1413 H   0  0  0  0  0  0  0  0  0  0  0  0
    1.1627   -1.7253    0.4459 H   0  0  0  0  0  0  0  0  0  0  0  0
   -0.7991   -0.8282    1.4224 H   0  0  0  0  0  0  0  0  0  0  0  0
   -1.1593    0.1473   -1.6363 H   0  0  0  0  0  0  0  0  0  0  0  0
  1  2  2  0
  2  3  1  0
  3  4  1  0
  4  5  1  0
  5  6  1  0
  6  7  1  0
  7  8  1  0
  8  9  1  0
  9  2  1  0
  9  7  1  0
  4 10  1  0
  4 11  1  0
  6 12  1  0
  6 13  1  0
  7 14  1  0
  9 15  1  0
M  END
