
     RDKit          3D

 14 15  0  0  0  0  0  0  0  0999 V2000
   -2.3782   -0.2702    1.6930 O   0  0  0  0  0  0  0  0  0  0  0  0
   -1.7185   -0.0343    0.6521 C   0  0  0  0  0  0  0  0  0  0  0  0
   -1.6373    1.0515   -0.2099 O   0  0  0  0  0  0  0  0  0  0  0  0
   -0.4596    0.5038   -0.7268 C   0  0  0  0  0  0  0  0  0  0  0  0
    0.8174    0.9111    0.0198 C   0  0  0  0  0  0  0  0  0  0  0  0
    1.4457   -0.4835    0.1517 C   0  0  0  0  0  0  0  0  0  0  0  0
    0.3419   -1.1897    0.6584 O   0  0  0  0  0  0  0  0  0  0  0  0
   -0.7342   -0.8338   -0.1014 C   0  0  0  0  0  0  0  0  0  0  0  0
   -0.3535    0.5112   -1.8197 H   0  0  0  0  0  0  0  0  0  0  0  0
    1.4354    1.5968   -0.5471 H   0  0  0  0  0  0  0  0  0  0  0  0
    0.5004    1.2365    1.0103 H   0  0  0  0  0  0  0  0  0  0  0  0
    1.6376   -0.9233   -0.8531 H   0  0  0  0  0  0  0  0  0  0  0  0
    2.2988   -0.4792    0.8173 H   0  0  0  0  0  0  0  0  0  0  0  0
   -1.1960   -1.5970   -0.7448 H   0  0  0  0  0  0  0  0  0  0  0  0
  1  2  2  0
  2  3  1  0
  3  4  1  0
  4  5  1  0
  5  6  1  0
  6  7  1  0
  7  8  1  0
  8  2  1  0
  8  4  1  0
  4  9  1  0
  5 10  1  0
  5 11  1  0
  6 12  1  0
  6 13  1  0
  8 14  1  0
M  END
