
     RDKit          3D

 16 16  0  0  0  0  0  0  0  0999 V2000
    1.2421   -1.5989   -1.5135 O   0  0  0  0  0  0  0  0  0  0  0  0
    0.7716   -1.0714   -0.5446 C   0  0  0  0  0  0  0  0  0  0  0  0
    1.6026   -0.0782    0.1487 C   0  0  0  0  0  0  0  0  0  0  0  0
    0.8913    1.2106    0.1204 C   0  0  0  0  0  0  0  0  0  0  0  0
   -0.4074    1.4802    0.1365 C   0  0  0  0  0  0  0  0  0  0  0  0
   -1.5911    0.5640    0.1891 C   0  0  0  0  0  0  0  0  0  0  0  0
   -1.4703   -0.5289   -0.6256 O   0  0  0  0  0  0  0  0  0  0  0  0
   -0.5888   -1.4940   -0.1764 C   0  0  0  0  0  0  0  0  0  0  0  0
    1.8798   -0.3949    1.1822 H   0  0  0  0  0  0  0  0  0  0  0  0
    2.5887   -0.0306   -0.3939 H   0  0  0  0  0  0  0  0  0  0  0  0
    1.5335    2.0774    0.0798 H   0  0  0  0  0  0  0  0  0  0  0  0
   -0.6140    2.5491    0.1059 H   0  0  0  0  0  0  0  0  0  0  0  0
   -2.4585    1.1594   -0.1666 H   0  0  0  0  0  0  0  0  0  0  0  0
   -1.8457    0.3003    1.2569 H   0  0  0  0  0  0  0  0  0  0  0  0
   -0.7034   -1.7135    0.9050 H   0  0  0  0  0  0  0  0  0  0  0  0
   -0.8304   -2.4308   -0.7038 H   0  0  0  0  0  0  0  0  0  0  0  0
  1  2  2  0
  2  3  1  0
  3  4  1  0
  4  5  2  0
  5  6  1  0
  6  7  1  0
  7  8  1  0
  8  2  1  0
  3  9  1  0
  3 10  1  0
  4 11  1  0
  5 12  1  0
  6 13  1  0
  6 14  1  0
  8 15  1  0
  8 16  1  0
M  END
