
     RDKit          3D

 15 17  0  0  0  0  0  0  0  0999 V2000
    2.4922   -1.4961   -0.4074 O   0  0  0  0  0  0  0  0  0  0  0  0
    1.4189   -0.9128   -0.1407 C   0  0  0  0  0  0  0  0  0  0  0  0
    0.4753   -1.6011    0.6166 O   0  0  0  0  0  0  0  0  0  0  0  0
   -0.6412   -0.7796    1.0035 C   0  0  0  0  0  0  0  0  0  0  0  0
   -1.2969   -0.3389   -0.2790 C   0  0  0  0  0  0  0  0  0  0  0  0
   -0.3457    0.7282   -0.7706 C   0  0  0  0  0  0  0  0  0  0  0  0
    0.3156    1.1708    0.4753 C   0  0  0  0  0  0  0  0  0  0  0  0
   -0.0822    0.3852    1.5216 O   0  0  0  0  0  0  0  0  0  0  0  0
    1.0704    0.4564   -0.5677 C   0  0  0  0  0  0  0  0  0  0  0  0
   -1.2991   -1.2926    1.6984 H   0  0  0  0  0  0  0  0  0  0  0  0
   -1.3812   -1.1135   -1.0362 H   0  0  0  0  0  0  0  0  0  0  0  0
   -2.2751    0.1495   -0.0331 H   0  0  0  0  0  0  0  0  0  0  0  0
   -0.7015    1.4296   -1.5364 H   0  0  0  0  0  0  0  0  0  0  0  0
    0.4620    2.2412    0.6875 H   0  0  0  0  0  0  0  0  0  0  0  0
    1.7885    0.9737   -1.2319 H   0  0  0  0  0  0  0  0  0  0  0  0
  1  2  2  0
  2  3  1  0
  3  4  1  0
  4  5  1  0
  5  6  1  0
  6  7  1  0
  7  8  1  0
  7  9  1  0
  9  2  1  0
  8  4  1  0
  9  6  1  0
  4 10  1  0
  5 11  1  0
  5 12  1  0
  6 13  1  0
  7 14  1  0
  9 15  1  0
M  END
