
     RDKit          3D

 19 20  0  0  0  0  0  0  0  0999 V2000
    2.2922    2.4822    0.2338 O   0  0  0  0  0  0  0  0  0  0  0  0
    2.0282    1.3015    0.2861 C   0  0  0  0  0  0  0  0  0  0  0  0
    2.7504    0.0414   -0.0709 C   0  0  0  0  0  0  0  0  0  0  0  0
    1.9201   -0.6314    0.8542 O   0  0  0  0  0  0  0  0  0  0  0  0
    0.9729    0.3541    0.6752 C   0  0  0  0  0  0  0  0  0  0  0  0
   -0.0261    0.1093   -0.4263 C   0  0  0  0  0  0  0  0  0  0  0  0
   -1.1009   -0.8470   -0.0491 C   0  0  0  0  0  0  0  0  0  0  0  0
   -2.0021   -0.5151    1.1259 C   0  0  0  0  0  0  0  0  0  0  0  0
   -2.5145   -0.3430   -0.2722 C   0  0  0  0  0  0  0  0  0  0  0  0
    3.8124    0.0134    0.1711 H   0  0  0  0  0  0  0  0  0  0  0  0
    2.5156   -0.2768   -1.1064 H   0  0  0  0  0  0  0  0  0  0  0  0
    0.4682    0.6744    1.6036 H   0  0  0  0  0  0  0  0  0  0  0  0
   -0.4817    1.0800   -0.6981 H   0  0  0  0  0  0  0  0  0  0  0  0
    0.4630   -0.2653   -1.3556 H   0  0  0  0  0  0  0  0  0  0  0  0
   -0.9877   -1.9344   -0.2675 H   0  0  0  0  0  0  0  0  0  0  0  0
   -1.7205    0.4024    1.6704 H   0  0  0  0  0  0  0  0  0  0  0  0
   -2.4211   -1.3053    1.7408 H   0  0  0  0  0  0  0  0  0  0  0  0
   -2.6608    0.6938   -0.6315 H   0  0  0  0  0  0  0  0  0  0  0  0
   -3.3076   -1.0343   -0.5687 H   0  0  0  0  0  0  0  0  0  0  0  0
  1  2  2  0
  2  3  1  0
  3  4  1  0
  4  5  1  0
  5  6  1  0
  6  7  1  0
  7  8  1  0
  8  9  1  0
  5  2  1  0
  9  7  1  0
  3 10  1  0
  3 11  1  0
  5 12  1  0
  6 13  1  0
  6 14  1  0
  7 15  1  0
  8 16  1  0
  8 17  1  0
  9 18  1  0
  9 19  1  0
M  END
