
     RDKit          3D

 17 17  0  0  0  0  0  0  0  0999 V2000
    2.1933   -1.7960   -0.0057 O   0  0  0  0  0  0  0  0  0  0  0  0
    1.3299   -0.8513   -0.1245 C   0  0  0  0  0  0  0  0  0  0  0  0
    0.0244   -1.3883   -0.4762 C   0  0  0  0  0  0  0  0  0  0  0  0
   -1.2184   -1.0601   -0.2104 C   0  0  0  0  0  0  0  0  0  0  0  0
   -1.8616    0.0085    0.5704 C   0  0  0  0  0  0  0  0  0  0  0  0
   -1.1081    1.0963    0.8580 O   0  0  0  0  0  0  0  0  0  0  0  0
   -0.1640    1.4827   -0.0504 C   0  0  0  0  0  0  0  0  0  0  0  0
    1.0726    1.4346    0.5890 O   0  0  0  0  0  0  0  0  0  0  0  0
    1.9208    0.4723    0.1286 C   0  0  0  0  0  0  0  0  0  0  0  0
    0.1428   -2.2741   -1.1122 H   0  0  0  0  0  0  0  0  0  0  0  0
   -1.9363   -1.7509   -0.6883 H   0  0  0  0  0  0  0  0  0  0  0  0
   -2.8202    0.3300    0.0593 H   0  0  0  0  0  0  0  0  0  0  0  0
   -2.2486   -0.3820    1.5620 H   0  0  0  0  0  0  0  0  0  0  0  0
   -0.1962    0.9968   -1.0193 H   0  0  0  0  0  0  0  0  0  0  0  0
   -0.3420    2.5832   -0.2442 H   0  0  0  0  0  0  0  0  0  0  0  0
    2.7024    0.3151    0.9286 H   0  0  0  0  0  0  0  0  0  0  0  0
    2.5091    0.7833   -0.7648 H   0  0  0  0  0  0  0  0  0  0  0  0
  1  2  2  0
  2  3  1  0
  3  4  2  3
  4  5  1  0
  5  6  1  0
  6  7  1  0
  7  8  1  0
  8  9  1  0
  9  2  1  0
  3 10  1  0
  4 11  1  0
  5 12  1  0
  5 13  1  0
  7 14  1  0
  7 15  1  0
  9 16  1  0
  9 17  1  0
M  END
