
     RDKit          3D

 19 20  0  0  0  0  0  0  0  0999 V2000
   -1.4627    1.2566    1.7676 O   0  0  0  0  0  0  0  0  0  0  0  0
   -1.0080    0.4537    1.0011 C   0  0  0  0  0  0  0  0  0  0  0  0
   -1.3332   -0.8501    0.3664 C   0  0  0  0  0  0  0  0  0  0  0  0
   -1.4386   -0.4949   -1.0929 C   0  0  0  0  0  0  0  0  0  0  0  0
   -0.2274    0.4606   -1.1895 C   0  0  0  0  0  0  0  0  0  0  0  0
    0.2550    0.3592    0.2170 C   0  0  0  0  0  0  0  0  0  0  0  0
    1.4350    1.0477    0.6742 C   0  0  0  0  0  0  0  0  0  0  0  0
    2.4971    0.8301   -0.1978 O   0  0  0  0  0  0  0  0  0  0  0  0
    0.1657   -1.1492    0.4895 C   0  0  0  0  0  0  0  0  0  0  0  0
   -2.0183   -1.5122    0.8198 H   0  0  0  0  0  0  0  0  0  0  0  0
   -2.3707    0.0149   -1.3498 H   0  0  0  0  0  0  0  0  0  0  0  0
   -1.2397   -1.3901   -1.7048 H   0  0  0  0  0  0  0  0  0  0  0  0
    0.4910    0.1132   -1.9435 H   0  0  0  0  0  0  0  0  0  0  0  0
   -0.6243    1.4372   -1.4708 H   0  0  0  0  0  0  0  0  0  0  0  0
    1.7487    0.6165    1.6708 H   0  0  0  0  0  0  0  0  0  0  0  0
    1.3095    2.1141    0.8183 H   0  0  0  0  0  0  0  0  0  0  0  0
    2.8339   -0.1108   -0.0828 H   0  0  0  0  0  0  0  0  0  0  0  0
    0.4498   -1.4169    1.5224 H   0  0  0  0  0  0  0  0  0  0  0  0
    0.5371   -1.7798   -0.3155 H   0  0  0  0  0  0  0  0  0  0  0  0
  1  2  2  0
  2  3  1  0
  3  4  1  0
  4  5  1  0
  5  6  1  0
  6  7  1  0
  7  8  1  0
  6  9  1  0
  6  2  1  0
  9  3  1  0
  3 10  1  0
  4 11  1  0
  4 12  1  0
  5 13  1  0
  5 14  1  0
  7 15  1  0
  7 16  1  0
  8 17  1  0
  9 18  1  0
  9 19  1  0
M  END
