
     RDKit          3D

 16 16  0  0  0  0  0  0  0  0999 V2000
    2.2714    1.3205    0.7885 O   0  0  0  0  0  0  0  0  0  0  0  0
    1.3220    0.7568    0.2354 C   0  0  0  0  0  0  0  0  0  0  0  0
    0.1684    1.5556   -0.2342 C   0  0  0  0  0  0  0  0  0  0  0  0
   -1.0347    1.0323   -0.3292 C   0  0  0  0  0  0  0  0  0  0  0  0
   -1.2171   -0.3856    0.0459 C   0  0  0  0  0  0  0  0  0  0  0  0
   -1.2786   -0.5698    1.4214 O   0  0  0  0  0  0  0  0  0  0  0  0
   -0.0381   -1.1544   -0.5301 C   0  0  0  0  0  0  0  0  0  0  0  0
    1.2774   -0.6975    0.0145 C   0  0  0  0  0  0  0  0  0  0  0  0
    0.3128    2.6014   -0.5089 H   0  0  0  0  0  0  0  0  0  0  0  0
   -1.8831    1.5948   -0.6674 H   0  0  0  0  0  0  0  0  0  0  0  0
   -2.1300   -0.8403   -0.4044 H   0  0  0  0  0  0  0  0  0  0  0  0
   -0.9684    0.2514    1.9139 H   0  0  0  0  0  0  0  0  0  0  0  0
   -0.0930   -0.9807   -1.6439 H   0  0  0  0  0  0  0  0  0  0  0  0
   -0.2058   -2.2393   -0.3607 H   0  0  0  0  0  0  0  0  0  0  0  0
    1.4329   -1.2253    0.9888 H   0  0  0  0  0  0  0  0  0  0  0  0
    2.0638   -1.0199   -0.7295 H   0  0  0  0  0  0  0  0  0  0  0  0
  1  2  2  0
  2  3  1  0
  3  4  2  0
  4  5  1  0
  5  6  1  0
  5  7  1  0
  7  8  1  0
  8  2  1  0
  3  9  1  0
  4 10  1  0
  5 11  1  0
  6 12  1  0
  7 13  1  0
  7 14  1  0
  8 15  1  0
  8 16  1  0
M  END
