
     RDKit          3D

 17 19  0  0  0  0  0  0  0  0999 V2000
    2.6437   -0.3412    1.3835 O   0  0  0  0  0  0  0  0  0  0  0  0
    1.8952   -0.1719    0.4672 C   0  0  0  0  0  0  0  0  0  0  0  0
    1.5479    0.8767   -0.4760 C   0  0  0  0  0  0  0  0  0  0  0  0
    0.0898    1.2530   -0.1705 C   0  0  0  0  0  0  0  0  0  0  0  0
   -0.4253   -0.1882   -0.0296 C   0  0  0  0  0  0  0  0  0  0  0  0
   -1.3986   -0.4657    0.9820 C   0  0  0  0  0  0  0  0  0  0  0  0
   -1.7255   -0.5954   -0.4935 C   0  0  0  0  0  0  0  0  0  0  0  0
    0.8552   -0.8920   -0.2960 C   0  0  0  0  0  0  0  0  0  0  0  0
    1.3351   -0.1437   -1.4055 O   0  0  0  0  0  0  0  0  0  0  0  0
    2.2150    1.6671   -0.7194 H   0  0  0  0  0  0  0  0  0  0  0  0
    0.0733    1.7316    0.8107 H   0  0  0  0  0  0  0  0  0  0  0  0
   -0.3835    1.7893   -0.9815 H   0  0  0  0  0  0  0  0  0  0  0  0
   -1.9560    0.3959    1.4529 H   0  0  0  0  0  0  0  0  0  0  0  0
   -1.3468   -1.3635    1.6142 H   0  0  0  0  0  0  0  0  0  0  0  0
   -2.4660    0.0646   -0.9573 H   0  0  0  0  0  0  0  0  0  0  0  0
   -1.8510   -1.6639   -0.8022 H   0  0  0  0  0  0  0  0  0  0  0  0
    0.8975   -1.9527   -0.3790 H   0  0  0  0  0  0  0  0  0  0  0  0
  1  2  2  0
  2  3  1  0
  3  4  1  0
  4  5  1  0
  5  6  1  0
  6  7  1  0
  5  8  1  0
  8  9  1  0
  8  2  1  0
  9  3  1  0
  7  5  1  0
  3 10  1  0
  4 11  1  0
  4 12  1  0
  6 13  1  0
  6 14  1  0
  7 15  1  0
  7 16  1  0
  8 17  1  0
M  END
