
     RDKit          3D

 19 20  0  0  0  0  0  0  0  0999 V2000
    0.6517    1.8828    1.6686 O   0  0  0  0  0  0  0  0  0  0  0  0
    0.7665    1.1475    0.7306 C   0  0  0  0  0  0  0  0  0  0  0  0
    1.6053   -0.0814    0.6778 C   0  0  0  0  0  0  0  0  0  0  0  0
    0.9613   -0.8018   -0.5020 C   0  0  0  0  0  0  0  0  0  0  0  0
   -0.3639   -1.3955   -0.1319 C   0  0  0  0  0  0  0  0  0  0  0  0
   -1.3102   -0.3553    0.4668 C   0  0  0  0  0  0  0  0  0  0  0  0
   -1.3291    0.7720   -0.5563 C   0  0  0  0  0  0  0  0  0  0  0  0
    0.1247    1.2331   -0.6317 C   0  0  0  0  0  0  0  0  0  0  0  0
    0.7849    0.2621   -1.3830 O   0  0  0  0  0  0  0  0  0  0  0  0
    1.5916   -0.6639    1.5947 H   0  0  0  0  0  0  0  0  0  0  0  0
    2.6164    0.2168    0.3413 H   0  0  0  0  0  0  0  0  0  0  0  0
    1.5973   -1.5822   -0.9002 H   0  0  0  0  0  0  0  0  0  0  0  0
   -0.8525   -1.7236   -1.0798 H   0  0  0  0  0  0  0  0  0  0  0  0
   -0.2766   -2.2208    0.5660 H   0  0  0  0  0  0  0  0  0  0  0  0
   -0.8898    0.0260    1.4120 H   0  0  0  0  0  0  0  0  0  0  0  0
   -2.3027   -0.8107    0.5816 H   0  0  0  0  0  0  0  0  0  0  0  0
   -2.0178    1.5684   -0.2981 H   0  0  0  0  0  0  0  0  0  0  0  0
   -1.5867    0.2834   -1.5314 H   0  0  0  0  0  0  0  0  0  0  0  0
    0.2295    2.2430   -1.0249 H   0  0  0  0  0  0  0  0  0  0  0  0
  1  2  2  0
  2  3  1  0
  3  4  1  0
  4  5  1  0
  5  6  1  0
  6  7  1  0
  7  8  1  0
  8  9  1  0
  8  2  1  0
  9  4  1  0
  3 10  1  0
  3 11  1  0
  4 12  1  0
  5 13  1  0
  5 14  1  0
  6 15  1  0
  6 16  1  0
  7 17  1  0
  7 18  1  0
  8 19  1  0
M  END
