
     RDKit          3D

 16 17  0  0  0  0  0  0  0  0999 V2000
   -0.4830    0.6505    2.3454 O   0  0  0  0  0  0  0  0  0  0  0  0
   -0.5749    0.3365    1.1839 C   0  0  0  0  0  0  0  0  0  0  0  0
   -1.8096    0.1583    0.3285 C   0  0  0  0  0  0  0  0  0  0  0  0
   -0.9407   -0.2237   -0.8627 C   0  0  0  0  0  0  0  0  0  0  0  0
    0.2151   -0.0146    0.0330 C   0  0  0  0  0  0  0  0  0  0  0  0
    1.3386    0.8229   -0.4010 C   0  0  0  0  0  0  0  0  0  0  0  0
    1.9633   -0.3449   -0.8955 O   0  0  0  0  0  0  0  0  0  0  0  0
    1.2675   -1.0354    0.1234 C   0  0  0  0  0  0  0  0  0  0  0  0
   -2.2993    1.1577    0.2306 H   0  0  0  0  0  0  0  0  0  0  0  0
   -2.4884   -0.6375    0.6832 H   0  0  0  0  0  0  0  0  0  0  0  0
   -1.0651    0.5355   -1.6644 H   0  0  0  0  0  0  0  0  0  0  0  0
   -1.1174   -1.2292   -1.2575 H   0  0  0  0  0  0  0  0  0  0  0  0
    1.1401    1.5731   -1.2179 H   0  0  0  0  0  0  0  0  0  0  0  0
    1.9574    1.2251    0.4160 H   0  0  0  0  0  0  0  0  0  0  0  0
    1.8742   -0.9017    1.0666 H   0  0  0  0  0  0  0  0  0  0  0  0
    1.0223   -2.0726   -0.1115 H   0  0  0  0  0  0  0  0  0  0  0  0
  1  2  2  0
  2  3  1  0
  3  4  1  0
  4  5  1  0
  5  6  1  0
  6  7  1  0
  7  8  1  0
  5  2  1  0
  8  5  1  0
  3  9  1  0
  3 10  1  0
  4 11  1  0
  4 12  1  0
  6 13  1  0
  6 14  1  0
  8 15  1  0
  8 16  1  0
M  END
