
     RDKit          3D

 15 17  0  0  0  0  0  0  0  0999 V2000
    1.4579    2.4528    0.1721 O   0  0  0  0  0  0  0  0  0  0  0  0
    0.6959    1.4916    0.2587 C   0  0  0  0  0  0  0  0  0  0  0  0
   -0.6777    1.6115    0.1065 O   0  0  0  0  0  0  0  0  0  0  0  0
   -1.5264    0.4516    0.0821 C   0  0  0  0  0  0  0  0  0  0  0  0
   -0.8119   -0.7330   -0.5398 C   0  0  0  0  0  0  0  0  0  0  0  0
   -0.3917   -1.7037    0.3964 O   0  0  0  0  0  0  0  0  0  0  0  0
    0.9344   -1.2362    0.2319 C   0  0  0  0  0  0  0  0  0  0  0  0
    1.2550    0.1730    0.5318 C   0  0  0  0  0  0  0  0  0  0  0  0
    0.6204   -0.3619   -0.6987 C   0  0  0  0  0  0  0  0  0  0  0  0
   -2.4325    0.7452   -0.4806 H   0  0  0  0  0  0  0  0  0  0  0  0
   -1.8311    0.1894    1.1043 H   0  0  0  0  0  0  0  0  0  0  0  0
   -1.2476   -1.1384   -1.4483 H   0  0  0  0  0  0  0  0  0  0  0  0
    1.7687   -1.9200    0.3107 H   0  0  0  0  0  0  0  0  0  0  0  0
    1.0929    0.0897    1.6007 H   0  0  0  0  0  0  0  0  0  0  0  0
    1.0937   -0.1115   -1.6277 H   0  0  0  0  0  0  0  0  0  0  0  0
  1  2  2  0
  2  3  1  0
  3  4  1  0
  4  5  1  0
  5  6  1  0
  6  7  1  0
  7  8  1  0
  8  9  1  0
  8  2  1  0
  9  5  1  0
  9  7  1  0
  4 10  1  0
  4 11  1  0
  5 12  1  0
  7 13  1  0
  8 14  1  0
  9 15  1  0
M  END
