
     RDKit          3D

 17 17  0  0  0  0  0  0  0  0999 V2000
    0.0974    2.0498    1.1465 O   0  0  0  0  0  0  0  0  0  0  0  0
    0.4314    0.9424    0.6851 C   0  0  0  0  0  0  0  0  0  0  0  0
    1.8007    0.4176    0.7447 C   0  0  0  0  0  0  0  0  0  0  0  0
    1.9700   -0.4838   -0.2059 C   0  0  0  0  0  0  0  0  0  0  0  0
    0.7193   -0.6310   -0.9799 C   0  0  0  0  0  0  0  0  0  0  0  0
   -0.3148   -0.1312   -0.0083 C   0  0  0  0  0  0  0  0  0  0  0  0
   -0.6196   -1.1666    0.8653 O   0  0  0  0  0  0  0  0  0  0  0  0
   -1.5683    0.3547   -0.6632 C   0  0  0  0  0  0  0  0  0  0  0  0
   -2.4247    0.8046    0.3421 O   0  0  0  0  0  0  0  0  0  0  0  0
    2.5678    0.7242    1.4652 H   0  0  0  0  0  0  0  0  0  0  0  0
    2.8655   -1.0655   -0.4389 H   0  0  0  0  0  0  0  0  0  0  0  0
    0.7360   -0.0224   -1.9088 H   0  0  0  0  0  0  0  0  0  0  0  0
    0.4732   -1.6893   -1.1961 H   0  0  0  0  0  0  0  0  0  0  0  0
   -0.6227   -0.7585    1.7819 H   0  0  0  0  0  0  0  0  0  0  0  0
   -2.0590   -0.5018   -1.1495 H   0  0  0  0  0  0  0  0  0  0  0  0
   -1.4178    1.1499   -1.3877 H   0  0  0  0  0  0  0  0  0  0  0  0
   -2.6345    0.0070    0.9075 H   0  0  0  0  0  0  0  0  0  0  0  0
  1  2  2  0
  2  3  1  0
  3  4  2  0
  4  5  1  0
  5  6  1  0
  6  7  1  0
  6  8  1  0
  8  9  1  0
  6  2  1  0
  3 10  1  0
  4 11  1  0
  5 12  1  0
  5 13  1  0
  7 14  1  0
  8 15  1  0
  8 16  1  0
  9 17  1  0
M  END
