
     RDKit          3D

 17 18  0  0  0  0  0  0  0  0999 V2000
   -0.5628   -1.1696   -2.0666 O   0  0  0  0  0  0  0  0  0  0  0  0
   -0.5698   -0.7567   -0.9363 C   0  0  0  0  0  0  0  0  0  0  0  0
   -1.1046    0.4350   -0.2458 C   0  0  0  0  0  0  0  0  0  0  0  0
   -0.0028    1.4566   -0.0603 C   0  0  0  0  0  0  0  0  0  0  0  0
    1.0965    1.1152   -0.8311 O   0  0  0  0  0  0  0  0  0  0  0  0
    1.7772   -0.0023   -0.3526 C   0  0  0  0  0  0  0  0  0  0  0  0
    1.1414   -0.5854    0.7153 O   0  0  0  0  0  0  0  0  0  0  0  0
   -0.0498   -1.2145    0.3700 C   0  0  0  0  0  0  0  0  0  0  0  0
   -1.1995   -0.4342    1.0149 C   0  0  0  0  0  0  0  0  0  0  0  0
   -2.0673    0.8155   -0.5707 H   0  0  0  0  0  0  0  0  0  0  0  0
    0.2625    1.4925    1.0170 H   0  0  0  0  0  0  0  0  0  0  0  0
   -0.3394    2.4589   -0.4109 H   0  0  0  0  0  0  0  0  0  0  0  0
    2.8051    0.2893    0.0036 H   0  0  0  0  0  0  0  0  0  0  0  0
    1.9789   -0.7297   -1.1881 H   0  0  0  0  0  0  0  0  0  0  0  0
   -0.1365   -2.2723    0.6050 H   0  0  0  0  0  0  0  0  0  0  0  0
   -2.1019   -1.0398    1.0383 H   0  0  0  0  0  0  0  0  0  0  0  0
   -0.9272    0.1415    1.8986 H   0  0  0  0  0  0  0  0  0  0  0  0
  1  2  2  0
  2  3  1  0
  3  4  1  0
  4  5  1  0
  5  6  1  0
  6  7  1  0
  7  8  1  0
  8  9  1  0
  8  2  1  0
  9  3  1  0
  3 10  1  0
  4 11  1  0
  4 12  1  0
  6 13  1  0
  6 14  1  0
  8 15  1  0
  9 16  1  0
  9 17  1  0
M  END
