
     RDKit          3D

 17 18  0  0  0  0  0  0  0  0999 V2000
   -1.6357   -1.9605   -0.6677 O   0  0  0  0  0  0  0  0  0  0  0  0
   -0.8665   -1.1860   -0.1093 C   0  0  0  0  0  0  0  0  0  0  0  0
    0.5760   -1.3773   -0.3607 C   0  0  0  0  0  0  0  0  0  0  0  0
    1.4939   -0.2897   -0.1073 C   0  0  0  0  0  0  0  0  0  0  0  0
    0.9970    1.0586    0.1536 C   0  0  0  0  0  0  0  0  0  0  0  0
   -0.1768    1.6753    0.1393 C   0  0  0  0  0  0  0  0  0  0  0  0
   -1.4454    1.0708   -0.1887 C   0  0  0  0  0  0  0  0  0  0  0  0
   -2.4682    0.6728    0.5457 O   0  0  0  0  0  0  0  0  0  0  0  0
   -1.4693   -0.1711    0.7343 C   0  0  0  0  0  0  0  0  0  0  0  0
    0.6478   -1.7644   -1.4218 H   0  0  0  0  0  0  0  0  0  0  0  0
    0.8697   -2.2850    0.2505 H   0  0  0  0  0  0  0  0  0  0  0  0
    2.1964   -0.1856   -0.9901 H   0  0  0  0  0  0  0  0  0  0  0  0
    2.1963   -0.5368    0.7456 H   0  0  0  0  0  0  0  0  0  0  0  0
    1.8282    1.7360    0.4337 H   0  0  0  0  0  0  0  0  0  0  0  0
   -0.1817    2.7236    0.3965 H   0  0  0  0  0  0  0  0  0  0  0  0
   -1.5814    0.9072   -1.2819 H   0  0  0  0  0  0  0  0  0  0  0  0
   -0.9802   -0.0878    1.7281 H   0  0  0  0  0  0  0  0  0  0  0  0
  1  2  2  0
  2  3  1  0
  3  4  1  0
  4  5  1  0
  5  6  2  0
  6  7  1  0
  7  8  1  0
  8  9  1  0
  9  2  1  0
  9  7  1  0
  3 10  1  0
  3 11  1  0
  4 12  1  0
  4 13  1  0
  5 14  1  0
  6 15  1  0
  7 16  1  0
  9 17  1  0
M  END
