
     RDKit          3D

 11 12  0  0  0  0  0  0  0  0999 V2000
    0.7243    2.2241   -0.3431 O   0  0  0  0  0  0  0  0  0  0  0  0
    0.3416    1.1171    0.0563 C   0  0  0  0  0  0  0  0  0  0  0  0
    1.1829   -0.1103    0.0992 C   0  0  0  0  0  0  0  0  0  0  0  0
    0.3533   -1.0806   -0.2255 C   0  0  0  0  0  0  0  0  0  0  0  0
   -0.9423   -0.5308   -0.4772 C   0  0  0  0  0  0  0  0  0  0  0  0
   -1.9674   -0.0428    0.1421 O   0  0  0  0  0  0  0  0  0  0  0  0
   -0.9174    0.5739    0.5920 C   0  0  0  0  0  0  0  0  0  0  0  0
    2.2643   -0.1676    0.3348 H   0  0  0  0  0  0  0  0  0  0  0  0
    0.6461   -2.1181   -0.2804 H   0  0  0  0  0  0  0  0  0  0  0  0
   -0.9470   -0.1376   -1.5696 H   0  0  0  0  0  0  0  0  0  0  0  0
   -0.7384    0.2727    1.6714 H   0  0  0  0  0  0  0  0  0  0  0  0
  1  2  2  0
  2  3  1  0
  3  4  2  0
  4  5  1  0
  5  6  1  0
  6  7  1  0
  7  2  1  0
  7  5  1  0
  3  8  1  0
  4  9  1  0
  5 10  1  0
  7 11  1  0
M  END
