
     RDKit          3D

 17 18  0  0  0  0  0  0  0  0999 V2000
    2.6674   -1.1979   -0.7418 O   0  0  0  0  0  0  0  0  0  0  0  0
    1.5369   -0.6835   -0.5478 C   0  0  0  0  0  0  0  0  0  0  0  0
    1.2445   -0.1247    0.7827 C   0  0  0  0  0  0  0  0  0  0  0  0
   -0.2255    0.2955    0.8716 C   0  0  0  0  0  0  0  0  0  0  0  0
   -0.4654    1.4339   -0.0980 C   0  0  0  0  0  0  0  0  0  0  0  0
   -1.0614    0.9225   -1.2147 O   0  0  0  0  0  0  0  0  0  0  0  0
   -0.8218   -0.4574   -1.2386 C   0  0  0  0  0  0  0  0  0  0  0  0
   -1.1042   -0.7885    0.2325 C   0  0  0  0  0  0  0  0  0  0  0  0
    0.5550   -0.6176   -1.5250 O   0  0  0  0  0  0  0  0  0  0  0  0
    1.4443   -0.8977    1.5512 H   0  0  0  0  0  0  0  0  0  0  0  0
    1.8737    0.7637    0.9711 H   0  0  0  0  0  0  0  0  0  0  0  0
   -0.5217    0.5234    1.8916 H   0  0  0  0  0  0  0  0  0  0  0  0
   -1.1621    2.1505    0.4214 H   0  0  0  0  0  0  0  0  0  0  0  0
    0.4631    1.9532   -0.3747 H   0  0  0  0  0  0  0  0  0  0  0  0
   -1.4856   -0.9796   -1.9151 H   0  0  0  0  0  0  0  0  0  0  0  0
   -0.8028   -1.7903    0.5055 H   0  0  0  0  0  0  0  0  0  0  0  0
   -2.1343   -0.5056    0.4279 H   0  0  0  0  0  0  0  0  0  0  0  0
  1  2  2  0
  2  3  1  0
  3  4  1  0
  4  5  1  0
  5  6  1  0
  6  7  1  0
  7  8  1  0
  7  9  1  0
  9  2  1  0
  8  4  1  0
  3 10  1  0
  3 11  1  0
  4 12  1  0
  5 13  1  0
  5 14  1  0
  7 15  1  0
  8 16  1  0
  8 17  1  0
M  END
