
     RDKit          3D

 15 17  0  0  0  0  0  0  0  0999 V2000
    0.8993    2.3797    0.0994 O   0  0  0  0  0  0  0  0  0  0  0  0
    0.3348    1.3202    0.0864 C   0  0  0  0  0  0  0  0  0  0  0  0
   -1.0905    1.0757    0.4126 C   0  0  0  0  0  0  0  0  0  0  0  0
   -1.2958   -0.4167    0.2047 C   0  0  0  0  0  0  0  0  0  0  0  0
   -0.6389   -1.1507    1.1945 O   0  0  0  0  0  0  0  0  0  0  0  0
    0.5339   -1.2147    0.4437 C   0  0  0  0  0  0  0  0  0  0  0  0
   -0.1867   -0.7576   -0.7316 C   0  0  0  0  0  0  0  0  0  0  0  0
    0.9651    0.0275   -0.2647 C   0  0  0  0  0  0  0  0  0  0  0  0
    2.1096   -0.0235   -1.0174 O   0  0  0  0  0  0  0  0  0  0  0  0
   -1.7871    1.5843   -0.2849 H   0  0  0  0  0  0  0  0  0  0  0  0
   -1.3314    1.2742    1.4752 H   0  0  0  0  0  0  0  0  0  0  0  0
   -2.3031   -0.7373   -0.0389 H   0  0  0  0  0  0  0  0  0  0  0  0
    1.2001   -2.0677    0.4894 H   0  0  0  0  0  0  0  0  0  0  0  0
   -0.3003   -1.2433   -1.6755 H   0  0  0  0  0  0  0  0  0  0  0  0
    2.8910   -0.0501   -0.3930 H   0  0  0  0  0  0  0  0  0  0  0  0
  1  2  2  0
  2  3  1  0
  3  4  1  0
  4  5  1  0
  5  6  1  0
  6  7  1  0
  7  8  1  0
  8  9  1  0
  8  2  1  0
  7  4  1  0
  8  6  1  0
  3 10  1  0
  3 11  1  0
  4 12  1  0
  6 13  1  0
  7 14  1  0
  9 15  1  0
M  END
