
     RDKit          3D

 15 16  0  0  0  0  0  0  0  0999 V2000
   -1.7413   -1.5839    0.9980 O   0  0  0  0  0  0  0  0  0  0  0  0
   -0.9804   -0.8821    0.3698 C   0  0  0  0  0  0  0  0  0  0  0  0
   -1.4625    0.4195   -0.1352 C   0  0  0  0  0  0  0  0  0  0  0  0
   -0.3853    1.4177    0.0338 C   0  0  0  0  0  0  0  0  0  0  0  0
   -0.6918    2.5585    0.3281 O   0  0  0  0  0  0  0  0  0  0  0  0
    1.0321    1.0593   -0.1455 C   0  0  0  0  0  0  0  0  0  0  0  0
    1.3636    0.3590   -1.3260 O   0  0  0  0  0  0  0  0  0  0  0  0
    1.4084   -0.2897   -0.0904 C   0  0  0  0  0  0  0  0  0  0  0  0
    0.3884   -1.3425    0.1304 C   0  0  0  0  0  0  0  0  0  0  0  0
   -2.3858    0.7088    0.4480 H   0  0  0  0  0  0  0  0  0  0  0  0
   -1.8054    0.3444   -1.1923 H   0  0  0  0  0  0  0  0  0  0  0  0
    1.7816    1.8592    0.0794 H   0  0  0  0  0  0  0  0  0  0  0  0
    2.4417   -0.5714    0.2679 H   0  0  0  0  0  0  0  0  0  0  0  0
    0.6825   -2.0163    0.9900 H   0  0  0  0  0  0  0  0  0  0  0  0
    0.3541   -2.0407   -0.7559 H   0  0  0  0  0  0  0  0  0  0  0  0
  1  2  2  0
  2  3  1  0
  3  4  1  0
  4  5  2  0
  4  6  1  0
  6  7  1  0
  7  8  1  0
  8  9  1  0
  9  2  1  0
  8  6  1  0
  3 10  1  0
  3 11  1  0
  6 12  1  0
  8 13  1  0
  9 14  1  0
  9 15  1  0
M  END
