
     RDKit          3D

 15 16  0  0  0  0  0  0  0  0999 V2000
   -3.1131   -1.1315    0.6712 O   0  0  0  0  0  0  0  0  0  0  0  0
   -1.9434   -0.8467    0.3769 C   0  0  0  0  0  0  0  0  0  0  0  0
   -1.5835    0.4097   -0.3702 C   0  0  0  0  0  0  0  0  0  0  0  0
   -0.1470    0.4622   -0.1133 C   0  0  0  0  0  0  0  0  0  0  0  0
    0.9114    1.1817    0.1322 C   0  0  0  0  0  0  0  0  0  0  0  0
    2.1034    0.2625    0.2662 C   0  0  0  0  0  0  0  0  0  0  0  0
    1.5302   -1.0121    0.4292 O   0  0  0  0  0  0  0  0  0  0  0  0
    0.2760   -0.9594   -0.1578 C   0  0  0  0  0  0  0  0  0  0  0  0
   -0.7496   -1.5387    0.6285 O   0  0  0  0  0  0  0  0  0  0  0  0
   -1.7853    0.2035   -1.4406 H   0  0  0  0  0  0  0  0  0  0  0  0
   -2.1429    1.2785    0.0149 H   0  0  0  0  0  0  0  0  0  0  0  0
    1.0264    2.2677    0.2419 H   0  0  0  0  0  0  0  0  0  0  0  0
    2.6802    0.3272   -0.6690 H   0  0  0  0  0  0  0  0  0  0  0  0
    2.6821    0.4711    1.1698 H   0  0  0  0  0  0  0  0  0  0  0  0
    0.2551   -1.3759   -1.1799 H   0  0  0  0  0  0  0  0  0  0  0  0
  1  2  2  0
  2  3  1  0
  3  4  1  0
  4  5  2  0
  5  6  1  0
  6  7  1  0
  7  8  1  0
  8  9  1  0
  9  2  1  0
  8  4  1  0
  3 10  1  0
  3 11  1  0
  5 12  1  0
  6 13  1  0
  6 14  1  0
  8 15  1  0
M  END
