
     RDKit          3D

 17 18  0  0  0  0  0  0  0  0999 V2000
   -1.3917   -1.1062    2.0163 O   0  0  0  0  0  0  0  0  0  0  0  0
   -0.9412   -0.7495    0.9431 C   0  0  0  0  0  0  0  0  0  0  0  0
   -0.5018   -1.3529   -0.3453 C   0  0  0  0  0  0  0  0  0  0  0  0
   -0.9166   -0.0294   -1.0045 C   0  0  0  0  0  0  0  0  0  0  0  0
   -0.5846    0.5738    0.3585 C   0  0  0  0  0  0  0  0  0  0  0  0
   -1.3572    1.6375    0.7399 O   0  0  0  0  0  0  0  0  0  0  0  0
    0.9102    0.7282    0.5177 C   0  0  0  0  0  0  0  0  0  0  0  0
    1.5891   -0.3541   -0.2477 C   0  0  0  0  0  0  0  0  0  0  0  0
    0.8757   -1.5091   -0.4030 O   0  0  0  0  0  0  0  0  0  0  0  0
   -1.0431   -2.2292   -0.6867 H   0  0  0  0  0  0  0  0  0  0  0  0
   -0.2765    0.2921   -1.8285 H   0  0  0  0  0  0  0  0  0  0  0  0
   -2.0035   -0.0310   -1.1618 H   0  0  0  0  0  0  0  0  0  0  0  0
   -1.2232    2.3866    0.1388 H   0  0  0  0  0  0  0  0  0  0  0  0
    1.1179    0.5819    1.6136 H   0  0  0  0  0  0  0  0  0  0  0  0
    1.2454    1.7334    0.2543 H   0  0  0  0  0  0  0  0  0  0  0  0
    2.5263   -0.6215    0.3241 H   0  0  0  0  0  0  0  0  0  0  0  0
    1.9748    0.0493   -1.2289 H   0  0  0  0  0  0  0  0  0  0  0  0
  1  2  2  0
  2  3  1  0
  3  4  1  0
  4  5  1  0
  5  6  1  0
  5  7  1  0
  7  8  1  0
  8  9  1  0
  5  2  1  0
  9  3  1  0
  3 10  1  0
  4 11  1  0
  4 12  1  0
  6 13  1  0
  7 14  1  0
  7 15  1  0
  8 16  1  0
  8 17  1  0
M  END
