
     RDKit          3D

 16 16  0  0  0  0  0  0  0  0999 V2000
    2.5419   -0.8500    0.6899 O   0  0  0  0  0  0  0  0  0  0  0  0
    1.4858   -0.4945    0.1218 C   0  0  0  0  0  0  0  0  0  0  0  0
    1.2615    0.9336    0.0049 C   0  0  0  0  0  0  0  0  0  0  0  0
    0.0954    1.5510   -0.0948 C   0  0  0  0  0  0  0  0  0  0  0  0
   -1.2885    1.0153   -0.1183 C   0  0  0  0  0  0  0  0  0  0  0  0
   -1.2822   -0.4403    0.2507 C   0  0  0  0  0  0  0  0  0  0  0  0
   -0.6484   -1.2328   -0.6880 O   0  0  0  0  0  0  0  0  0  0  0  0
    0.6269   -1.5939   -0.3441 C   0  0  0  0  0  0  0  0  0  0  0  0
    2.1576    1.5779   -0.0012 H   0  0  0  0  0  0  0  0  0  0  0  0
    0.1716    2.6480   -0.1731 H   0  0  0  0  0  0  0  0  0  0  0  0
   -1.7600    1.1300   -1.1128 H   0  0  0  0  0  0  0  0  0  0  0  0
   -1.8787    1.5610    0.6430 H   0  0  0  0  0  0  0  0  0  0  0  0
   -0.8522   -0.5743    1.2813 H   0  0  0  0  0  0  0  0  0  0  0  0
   -2.3461   -0.7851    0.3259 H   0  0  0  0  0  0  0  0  0  0  0  0
    1.0872   -2.0720   -1.2565 H   0  0  0  0  0  0  0  0  0  0  0  0
    0.6282   -2.3741    0.4714 H   0  0  0  0  0  0  0  0  0  0  0  0
  1  2  2  0
  2  3  1  0
  3  4  2  0
  4  5  1  0
  5  6  1  0
  6  7  1  0
  7  8  1  0
  8  2  1  0
  3  9  1  0
  4 10  1  0
  5 11  1  0
  5 12  1  0
  6 13  1  0
  6 14  1  0
  8 15  1  0
  8 16  1  0
M  END
