
     RDKit          3D

 21 21  0  0  0  0  0  0  0  0999 V2000
    0.7794    1.0406   -1.8577 O   0  0  0  0  0  0  0  0  0  0  0  0
    0.7263    1.0696   -0.6569 C   0  0  0  0  0  0  0  0  0  0  0  0
   -0.5062    1.7076   -0.1435 C   0  0  0  0  0  0  0  0  0  0  0  0
   -1.4660    0.6914    0.4348 C   0  0  0  0  0  0  0  0  0  0  0  0
   -1.5881   -0.4941   -0.4721 C   0  0  0  0  0  0  0  0  0  0  0  0
   -0.5823   -1.5854   -0.1550 C   0  0  0  0  0  0  0  0  0  0  0  0
    0.6222   -1.4025   -0.8042 O   0  0  0  0  0  0  0  0  0  0  0  0
    1.6634   -1.0470    0.0227 C   0  0  0  0  0  0  0  0  0  0  0  0
    1.8987    0.4644    0.0208 C   0  0  0  0  0  0  0  0  0  0  0  0
   -0.1964    2.3817    0.6887 H   0  0  0  0  0  0  0  0  0  0  0  0
   -1.0096    2.2402   -0.9468 H   0  0  0  0  0  0  0  0  0  0  0  0
   -2.4625    1.1916    0.5133 H   0  0  0  0  0  0  0  0  0  0  0  0
   -1.1793    0.3474    1.4428 H   0  0  0  0  0  0  0  0  0  0  0  0
   -2.6329   -0.9027   -0.3410 H   0  0  0  0  0  0  0  0  0  0  0  0
   -1.4867   -0.2457   -1.5328 H   0  0  0  0  0  0  0  0  0  0  0  0
   -1.0650   -2.5436   -0.5061 H   0  0  0  0  0  0  0  0  0  0  0  0
   -0.4958   -1.6502    0.9355 H   0  0  0  0  0  0  0  0  0  0  0  0
    1.5528   -1.3561    1.0675 H   0  0  0  0  0  0  0  0  0  0  0  0
    2.5924   -1.5023   -0.3818 H   0  0  0  0  0  0  0  0  0  0  0  0
    2.0157    0.8592    1.0453 H   0  0  0  0  0  0  0  0  0  0  0  0
    2.8198    0.7360   -0.5291 H   0  0  0  0  0  0  0  0  0  0  0  0
  1  2  2  0
  2  3  1  0
  3  4  1  0
  4  5  1  0
  5  6  1  0
  6  7  1  0
  7  8  1  0
  8  9  1  0
  9  2  1  0
  3 10  1  0
  3 11  1  0
  4 12  1  0
  4 13  1  0
  5 14  1  0
  5 15  1  0
  6 16  1  0
  6 17  1  0
  8 18  1  0
  8 19  1  0
  9 20  1  0
  9 21  1  0
M  END
