
     RDKit          3D

 17 17  0  0  0  0  0  0  0  0999 V2000
   -3.3627    0.1946    0.8831 O   0  0  0  0  0  0  0  0  0  0  0  0
   -2.1506    0.1944    0.6523 C   0  0  0  0  0  0  0  0  0  0  0  0
   -1.1031    1.0011    1.0297 O   0  0  0  0  0  0  0  0  0  0  0  0
   -0.5315    0.7079   -0.2290 C   0  0  0  0  0  0  0  0  0  0  0  0
    0.9473    0.7524   -0.3150 C   0  0  0  0  0  0  0  0  0  0  0  0
    1.6733   -0.1837    0.5778 C   0  0  0  0  0  0  0  0  0  0  0  0
    3.0499   -0.0048    0.3636 O   0  0  0  0  0  0  0  0  0  0  0  0
   -1.1960   -0.6225   -0.1136 C   0  0  0  0  0  0  0  0  0  0  0  0
   -1.6772   -1.1817   -1.2909 O   0  0  0  0  0  0  0  0  0  0  0  0
   -1.0097    1.3189   -1.0158 H   0  0  0  0  0  0  0  0  0  0  0  0
    1.2768    1.7953   -0.0615 H   0  0  0  0  0  0  0  0  0  0  0  0
    1.2411    0.5995   -1.3718 H   0  0  0  0  0  0  0  0  0  0  0  0
    1.4002   -0.0743    1.6250 H   0  0  0  0  0  0  0  0  0  0  0  0
    1.4127   -1.2265    0.2784 H   0  0  0  0  0  0  0  0  0  0  0  0
    3.3496   -0.4383   -0.4663 H   0  0  0  0  0  0  0  0  0  0  0  0
   -0.7011   -1.3754    0.5188 H   0  0  0  0  0  0  0  0  0  0  0  0
   -2.6193   -1.4570   -1.1829 H   0  0  0  0  0  0  0  0  0  0  0  0
  1  2  2  0
  2  3  1  0
  3  4  1  0
  4  5  1  0
  5  6  1  0
  6  7  1  0
  4  8  1  0
  8  9  1  0
  8  2  1  0
  4 10  1  0
  5 11  1  0
  5 12  1  0
  6 13  1  0
  6 14  1  0
  7 15  1  0
  8 16  1  0
  9 17  1  0
M  END
