
     RDKit          3D

 15 16  0  0  0  0  0  0  0  0999 V2000
   -1.9059    1.5458   -1.2357 O   0  0  0  0  0  0  0  0  0  0  0  0
   -1.1726    0.9095   -0.4411 C   0  0  0  0  0  0  0  0  0  0  0  0
   -1.2840    0.8456    0.9670 O   0  0  0  0  0  0  0  0  0  0  0  0
   -0.3651   -0.0846    1.4619 C   0  0  0  0  0  0  0  0  0  0  0  0
   -0.2946   -1.0745    0.2847 C   0  0  0  0  0  0  0  0  0  0  0  0
    0.0041    0.0520   -0.7237 C   0  0  0  0  0  0  0  0  0  0  0  0
    0.2059   -0.3360   -1.9741 O   0  0  0  0  0  0  0  0  0  0  0  0
    1.1750    0.6735    0.0144 C   0  0  0  0  0  0  0  0  0  0  0  0
    0.9232    0.4692    1.3721 O   0  0  0  0  0  0  0  0  0  0  0  0
   -0.5796   -0.5436    2.3986 H   0  0  0  0  0  0  0  0  0  0  0  0
    0.5292   -1.7696    0.3795 H   0  0  0  0  0  0  0  0  0  0  0  0
   -1.2665   -1.4779    0.0328 H   0  0  0  0  0  0  0  0  0  0  0  0
    0.6895   -1.2017   -2.0070 H   0  0  0  0  0  0  0  0  0  0  0  0
    2.1423    0.2380   -0.3104 H   0  0  0  0  0  0  0  0  0  0  0  0
    1.1989    1.7541   -0.2191 H   0  0  0  0  0  0  0  0  0  0  0  0
  1  2  2  0
  2  3  1  0
  3  4  1  0
  4  5  1  0
  5  6  1  0
  6  7  1  0
  6  8  1  0
  8  9  1  0
  6  2  1  0
  9  4  1  0
  4 10  1  0
  5 11  1  0
  5 12  1  0
  7 13  1  0
  8 14  1  0
  8 15  1  0
M  END
