
     RDKit          3D

 15 18  0  0  0  0  0  0  0  0999 V2000
    2.3727    1.6430   -0.9812 O   0  0  0  0  0  0  0  0  0  0  0  0
    1.3062    1.0896   -0.6273 C   0  0  0  0  0  0  0  0  0  0  0  0
    0.1323    1.8058   -0.4549 O   0  0  0  0  0  0  0  0  0  0  0  0
   -1.0298    1.1685    0.0258 C   0  0  0  0  0  0  0  0  0  0  0  0
   -1.2046   -0.2005   -0.4318 C   0  0  0  0  0  0  0  0  0  0  0  0
   -0.7495    0.1169    1.0019 C   0  0  0  0  0  0  0  0  0  0  0  0
    0.5051   -0.6489    0.8243 C   0  0  0  0  0  0  0  0  0  0  0  0
    1.2936   -0.3482   -0.3887 C   0  0  0  0  0  0  0  0  0  0  0  0
    0.0093   -1.0258   -0.5839 C   0  0  0  0  0  0  0  0  0  0  0  0
   -1.9007    1.7957    0.1848 H   0  0  0  0  0  0  0  0  0  0  0  0
   -2.1756   -0.6921   -0.5785 H   0  0  0  0  0  0  0  0  0  0  0  0
   -1.4566   -0.2282    1.7573 H   0  0  0  0  0  0  0  0  0  0  0  0
    0.7356   -1.4398    1.5295 H   0  0  0  0  0  0  0  0  0  0  0  0
    2.2010   -0.9448   -0.5262 H   0  0  0  0  0  0  0  0  0  0  0  0
   -0.0389   -2.0912   -0.7512 H   0  0  0  0  0  0  0  0  0  0  0  0
  1  2  2  0
  2  3  1  0
  3  4  1  0
  4  5  1  0
  5  6  1  0
  6  7  1  0
  7  8  1  0
  8  9  1  0
  8  2  1  0
  6  4  1  0
  9  7  1  0
  9  5  1  0
  4 10  1  0
  5 11  1  0
  6 12  1  0
  7 13  1  0
  8 14  1  0
  9 15  1  0
M  END
