
     RDKit          3D

 17 17  0  0  0  0  0  0  0  0999 V2000
    1.2320    1.9651    1.2096 O   0  0  0  0  0  0  0  0  0  0  0  0
    1.5316    0.9637    0.5810 C   0  0  0  0  0  0  0  0  0  0  0  0
    2.6275    0.5889   -0.3565 C   0  0  0  0  0  0  0  0  0  0  0  0
    1.7166   -0.4863   -0.9089 C   0  0  0  0  0  0  0  0  0  0  0  0
    0.9896   -0.4155    0.3968 C   0  0  0  0  0  0  0  0  0  0  0  0
   -0.4813   -0.4639    0.2989 C   0  0  0  0  0  0  0  0  0  0  0  0
   -1.6840   -0.4870    0.2081 C   0  0  0  0  0  0  0  0  0  0  0  0
   -3.1471   -0.5082    0.0994 C   0  0  0  0  0  0  0  0  0  0  0  0
   -3.6133    0.6350   -0.5830 O   0  0  0  0  0  0  0  0  0  0  0  0
    2.9118    1.3774   -1.0750 H   0  0  0  0  0  0  0  0  0  0  0  0
    3.4759    0.1531    0.2221 H   0  0  0  0  0  0  0  0  0  0  0  0
    2.3181   -1.4238   -1.0758 H   0  0  0  0  0  0  0  0  0  0  0  0
    1.1543   -0.2226   -1.8156 H   0  0  0  0  0  0  0  0  0  0  0  0
    1.3550   -1.1510    1.1417 H   0  0  0  0  0  0  0  0  0  0  0  0
   -3.3980   -1.4141   -0.4925 H   0  0  0  0  0  0  0  0  0  0  0  0
   -3.5942   -0.5362    1.1100 H   0  0  0  0  0  0  0  0  0  0  0  0
   -3.3945    1.4254   -0.0077 H   0  0  0  0  0  0  0  0  0  0  0  0
  1  2  2  0
  2  3  1  0
  3  4  1  0
  4  5  1  0
  5  6  1  0
  6  7  3  0
  7  8  1  0
  8  9  1  0
  5  2  1  0
  3 10  1  0
  3 11  1  0
  4 12  1  0
  4 13  1  0
  5 14  1  0
  8 15  1  0
  8 16  1  0
  9 17  1  0
M  END
