
     RDKit          3D

 17 17  0  0  0  0  0  0  0  0999 V2000
   -0.3112    2.8710    0.9948 O   0  0  0  0  0  0  0  0  0  0  0  0
   -0.2587    1.8178    0.2726 C   0  0  0  0  0  0  0  0  0  0  0  0
   -1.4834    1.1300    0.2224 O   0  0  0  0  0  0  0  0  0  0  0  0
   -1.8177   -0.2182   -0.0109 C   0  0  0  0  0  0  0  0  0  0  0  0
   -0.7930   -1.1713    0.5901 C   0  0  0  0  0  0  0  0  0  0  0  0
    0.2362   -1.4109   -0.3006 O   0  0  0  0  0  0  0  0  0  0  0  0
    1.3931   -0.7107   -0.0156 C   0  0  0  0  0  0  0  0  0  0  0  0
    1.5289    0.4698   -0.9810 C   0  0  0  0  0  0  0  0  0  0  0  0
    0.9894    1.6008   -0.2904 O   0  0  0  0  0  0  0  0  0  0  0  0
   -1.9317   -0.3961   -1.0967 H   0  0  0  0  0  0  0  0  0  0  0  0
   -2.8190   -0.3874    0.4702 H   0  0  0  0  0  0  0  0  0  0  0  0
   -1.3387   -2.1423    0.7536 H   0  0  0  0  0  0  0  0  0  0  0  0
   -0.4513   -0.7326    1.5505 H   0  0  0  0  0  0  0  0  0  0  0  0
    2.3072   -1.3473   -0.0304 H   0  0  0  0  0  0  0  0  0  0  0  0
    1.3172   -0.3395    1.0400 H   0  0  0  0  0  0  0  0  0  0  0  0
    0.8793    0.3277   -1.8688 H   0  0  0  0  0  0  0  0  0  0  0  0
    2.5535    0.6393   -1.3000 H   0  0  0  0  0  0  0  0  0  0  0  0
  1  2  2  0
  2  3  1  0
  3  4  1  0
  4  5  1  0
  5  6  1  0
  6  7  1  0
  7  8  1  0
  8  9  1  0
  9  2  1  0
  4 10  1  0
  4 11  1  0
  5 12  1  0
  5 13  1  0
  7 14  1  0
  7 15  1  0
  8 16  1  0
  8 17  1  0
M  END
