
     RDKit          3D

 15 16  0  0  0  0  0  0  0  0999 V2000
   -1.4618   -1.3436    1.4345 O   0  0  0  0  0  0  0  0  0  0  0  0
   -1.0372   -0.6519    0.5440 C   0  0  0  0  0  0  0  0  0  0  0  0
   -1.8231    0.1151   -0.4535 C   0  0  0  0  0  0  0  0  0  0  0  0
   -0.9781    0.5342   -1.4317 O   0  0  0  0  0  0  0  0  0  0  0  0
    0.3166    0.3139   -1.0798 C   0  0  0  0  0  0  0  0  0  0  0  0
    0.8908    1.0124    0.1576 C   0  0  0  0  0  0  0  0  0  0  0  0
    2.2497    1.1596    0.2717 O   0  0  0  0  0  0  0  0  0  0  0  0
    0.3882   -0.3917    0.2192 C   0  0  0  0  0  0  0  0  0  0  0  0
    1.2739   -1.4602    0.2674 O   0  0  0  0  0  0  0  0  0  0  0  0
   -2.2760    0.9899    0.0564 H   0  0  0  0  0  0  0  0  0  0  0  0
   -2.6213   -0.5595   -0.8377 H   0  0  0  0  0  0  0  0  0  0  0  0
    1.0775    0.1779   -1.8721 H   0  0  0  0  0  0  0  0  0  0  0  0
    0.2623    1.7978    0.6267 H   0  0  0  0  0  0  0  0  0  0  0  0
    2.6758    0.3405    0.6768 H   0  0  0  0  0  0  0  0  0  0  0  0
    1.0627   -2.0346    1.0700 H   0  0  0  0  0  0  0  0  0  0  0  0
  1  2  2  0
  2  3  1  0
  3  4  1  0
  4  5  1  0
  5  6  1  0
  6  7  1  0
  6  8  1  0
  8  9  1  0
  8  2  1  0
  8  5  1  0
  3 10  1  0
  3 11  1  0
  5 12  1  0
  6 13  1  0
  7 14  1  0
  9 15  1  0
M  END
