
     RDKit          3D

 19 20  0  0  0  0  0  0  0  0999 V2000
    1.4980    2.4717    0.2663 O   0  0  0  0  0  0  0  0  0  0  0  0
    0.7729    1.5260   -0.2125 C   0  0  0  0  0  0  0  0  0  0  0  0
   -0.5524    1.8359   -0.4511 O   0  0  0  0  0  0  0  0  0  0  0  0
   -1.6587    1.0237   -0.2289 C   0  0  0  0  0  0  0  0  0  0  0  0
   -1.3745   -0.2707    0.4556 C   0  0  0  0  0  0  0  0  0  0  0  0
   -0.5856   -1.1308   -0.4512 C   0  0  0  0  0  0  0  0  0  0  0  0
    0.8884   -0.9890   -0.3780 C   0  0  0  0  0  0  0  0  0  0  0  0
    1.6036   -0.5791    0.8519 C   0  0  0  0  0  0  0  0  0  0  0  0
    1.4979    0.3036   -0.4112 C   0  0  0  0  0  0  0  0  0  0  0  0
   -2.2030    0.9093   -1.1874 H   0  0  0  0  0  0  0  0  0  0  0  0
   -2.3584    1.6015    0.4443 H   0  0  0  0  0  0  0  0  0  0  0  0
   -2.3667   -0.7662    0.6385 H   0  0  0  0  0  0  0  0  0  0  0  0
   -0.9406   -0.0813    1.4351 H   0  0  0  0  0  0  0  0  0  0  0  0
   -0.8382   -2.2048   -0.2258 H   0  0  0  0  0  0  0  0  0  0  0  0
   -0.9548   -0.9827   -1.5057 H   0  0  0  0  0  0  0  0  0  0  0  0
    1.4175   -1.8107   -0.9532 H   0  0  0  0  0  0  0  0  0  0  0  0
    1.0659   -0.2499    1.7584 H   0  0  0  0  0  0  0  0  0  0  0  0
    2.5929   -1.0239    1.0863 H   0  0  0  0  0  0  0  0  0  0  0  0
    2.4959    0.4176   -0.9314 H   0  0  0  0  0  0  0  0  0  0  0  0
  1  2  2  0
  2  3  1  0
  3  4  1  0
  4  5  1  0
  5  6  1  0
  6  7  1  0
  7  8  1  0
  8  9  1  0
  9  2  1  0
  9  7  1  0
  4 10  1  0
  4 11  1  0
  5 12  1  0
  5 13  1  0
  6 14  1  0
  6 15  1  0
  7 16  1  0
  8 17  1  0
  8 18  1  0
  9 19  1  0
M  END
