
     RDKit          3D

 16 17  0  0  0  0  0  0  0  0999 V2000
    1.1021    2.2770   -0.9849 O   0  0  0  0  0  0  0  0  0  0  0  0
    0.6956    1.2582   -0.4060 C   0  0  0  0  0  0  0  0  0  0  0  0
    1.6517    0.3213    0.1413 C   0  0  0  0  0  0  0  0  0  0  0  0
    1.3014   -0.9595    0.1120 C   0  0  0  0  0  0  0  0  0  0  0  0
   -0.0034   -1.3152   -0.4653 C   0  0  0  0  0  0  0  0  0  0  0  0
   -1.1221   -0.4119   -0.1217 C   0  0  0  0  0  0  0  0  0  0  0  0
   -1.1987    0.4810    1.0335 C   0  0  0  0  0  0  0  0  0  0  0  0
   -0.7523    1.0089   -0.2788 C   0  0  0  0  0  0  0  0  0  0  0  0
    2.6182    0.6525    0.5559 H   0  0  0  0  0  0  0  0  0  0  0  0
    1.9986   -1.6895    0.5185 H   0  0  0  0  0  0  0  0  0  0  0  0
   -0.2414   -2.3938   -0.2896 H   0  0  0  0  0  0  0  0  0  0  0  0
    0.1412   -1.2274   -1.5870 H   0  0  0  0  0  0  0  0  0  0  0  0
   -2.0969   -0.7468   -0.5836 H   0  0  0  0  0  0  0  0  0  0  0  0
   -2.2183    0.7043    1.4233 H   0  0  0  0  0  0  0  0  0  0  0  0
   -0.4517    0.4326    1.8535 H   0  0  0  0  0  0  0  0  0  0  0  0
   -1.4240    1.6083   -0.9210 H   0  0  0  0  0  0  0  0  0  0  0  0
  1  2  2  0
  2  3  1  0
  3  4  2  0
  4  5  1  0
  5  6  1  0
  6  7  1  0
  7  8  1  0
  8  2  1  0
  8  6  1  0
  3  9  1  0
  4 10  1  0
  5 11  1  0
  5 12  1  0
  6 13  1  0
  7 14  1  0
  7 15  1  0
  8 16  1  0
M  END
