
     RDKit          3D

 17 17  0  0  0  0  0  0  0  0999 V2000
   -0.5397   -2.8518   -0.3990 O   0  0  0  0  0  0  0  0  0  0  0  0
   -0.1839   -1.6480   -0.2756 C   0  0  0  0  0  0  0  0  0  0  0  0
   -1.2952   -0.7395   -0.0774 C   0  0  0  0  0  0  0  0  0  0  0  0
   -1.1165    0.6866   -0.2126 C   0  0  0  0  0  0  0  0  0  0  0  0
   -1.8065    1.3739    0.8259 O   0  0  0  0  0  0  0  0  0  0  0  0
    0.1908    1.2956   -0.2859 C   0  0  0  0  0  0  0  0  0  0  0  0
    1.4248    0.9108   -0.1666 C   0  0  0  0  0  0  0  0  0  0  0  0
    1.9310   -0.4211    0.1128 C   0  0  0  0  0  0  0  0  0  0  0  0
    1.1813   -1.4964   -0.3604 O   0  0  0  0  0  0  0  0  0  0  0  0
   -1.7115   -0.9732    0.9521 H   0  0  0  0  0  0  0  0  0  0  0  0
   -2.1224   -1.1158   -0.7568 H   0  0  0  0  0  0  0  0  0  0  0  0
   -1.6770    1.0437   -1.1362 H   0  0  0  0  0  0  0  0  0  0  0  0
   -1.6307    0.9458    1.7008 H   0  0  0  0  0  0  0  0  0  0  0  0
    0.1109    2.3846   -0.5018 H   0  0  0  0  0  0  0  0  0  0  0  0
    2.1854    1.6756   -0.2889 H   0  0  0  0  0  0  0  0  0  0  0  0
    2.1148   -0.5627    1.2163 H   0  0  0  0  0  0  0  0  0  0  0  0
    2.9444   -0.5080   -0.3467 H   0  0  0  0  0  0  0  0  0  0  0  0
  1  2  2  0
  2  3  1  0
  3  4  1  0
  4  5  1  0
  4  6  1  0
  6  7  2  0
  7  8  1  0
  8  9  1  0
  9  2  1  0
  3 10  1  0
  3 11  1  0
  4 12  1  0
  5 13  1  0
  6 14  1  0
  7 15  1  0
  8 16  1  0
  8 17  1  0
M  END
