
     RDKit          3D

 17 19  0  0  0  0  0  0  0  0999 V2000
   -2.1585    1.1629   -1.1523 O   0  0  0  0  0  0  0  0  0  0  0  0
   -1.2730    0.6776   -0.5218 C   0  0  0  0  0  0  0  0  0  0  0  0
   -1.3591   -0.1843    0.7189 C   0  0  0  0  0  0  0  0  0  0  0  0
   -2.0479   -1.3460    0.4971 O   0  0  0  0  0  0  0  0  0  0  0  0
    0.1180   -0.4800    0.8584 C   0  0  0  0  0  0  0  0  0  0  0  0
    0.6746   -0.6398   -0.5342 C   0  0  0  0  0  0  0  0  0  0  0  0
    1.9363   -0.0333    0.0238 C   0  0  0  0  0  0  0  0  0  0  0  0
    0.8379    0.8140    0.6005 C   0  0  0  0  0  0  0  0  0  0  0  0
    0.1910    0.7570   -0.7423 C   0  0  0  0  0  0  0  0  0  0  0  0
   -1.7531    0.4617    1.5042 H   0  0  0  0  0  0  0  0  0  0  0  0
   -2.6844   -1.3322   -0.2321 H   0  0  0  0  0  0  0  0  0  0  0  0
    0.4509   -1.1284    1.6346 H   0  0  0  0  0  0  0  0  0  0  0  0
    0.5915   -1.4329   -1.1319 H   0  0  0  0  0  0  0  0  0  0  0  0
    2.5431    0.4088   -0.7631 H   0  0  0  0  0  0  0  0  0  0  0  0
    2.4378   -0.6412    0.7744 H   0  0  0  0  0  0  0  0  0  0  0  0
    0.9287    1.5933    1.2204 H   0  0  0  0  0  0  0  0  0  0  0  0
    0.5662    1.3427   -1.5488 H   0  0  0  0  0  0  0  0  0  0  0  0
  1  2  2  0
  2  3  1  0
  3  4  1  0
  3  5  1  0
  5  6  1  0
  6  7  1  0
  7  8  1  0
  8  9  1  0
  9  2  1  0
  8  5  1  0
  9  6  1  0
  3 10  1  0
  4 11  1  0
  5 12  1  0
  6 13  1  0
  7 14  1  0
  7 15  1  0
  8 16  1  0
  9 17  1  0
M  END
