
     RDKit          3D

 17 19  0  0  0  0  0  0  0  0999 V2000
    0.2255   -0.3325    2.5585 O   0  0  0  0  0  0  0  0  0  0  0  0
    0.1844   -0.3319    1.3380 C   0  0  0  0  0  0  0  0  0  0  0  0
    0.1216   -1.5798    0.5246 C   0  0  0  0  0  0  0  0  0  0  0  0
   -0.8027   -1.1361   -0.6097 C   0  0  0  0  0  0  0  0  0  0  0  0
   -0.3316    0.2692   -0.8958 C   0  0  0  0  0  0  0  0  0  0  0  0
   -1.0486    1.3575   -0.1843 C   0  0  0  0  0  0  0  0  0  0  0  0
    0.1867    0.8204    0.4293 C   0  0  0  0  0  0  0  0  0  0  0  0
    1.4534    1.1583   -0.3520 C   0  0  0  0  0  0  0  0  0  0  0  0
    0.9342    0.4390   -1.4058 O   0  0  0  0  0  0  0  0  0  0  0  0
    1.0826   -1.8311    0.0595 H   0  0  0  0  0  0  0  0  0  0  0  0
   -0.3099   -2.4278    1.0543 H   0  0  0  0  0  0  0  0  0  0  0  0
   -1.8355   -1.0907   -0.1837 H   0  0  0  0  0  0  0  0  0  0  0  0
   -0.7193   -1.8156   -1.4618 H   0  0  0  0  0  0  0  0  0  0  0  0
   -2.0087    1.1036    0.2614 H   0  0  0  0  0  0  0  0  0  0  0  0
   -0.9538    2.3619   -0.6475 H   0  0  0  0  0  0  0  0  0  0  0  0
    1.4398    2.2416   -0.5879 H   0  0  0  0  0  0  0  0  0  0  0  0
    2.3820    0.7938    0.1031 H   0  0  0  0  0  0  0  0  0  0  0  0
  1  2  2  0
  2  3  1  0
  3  4  1  0
  4  5  1  0
  5  6  1  0
  6  7  1  0
  7  8  1  0
  8  9  1  0
  7  2  1  0
  7  5  1  0
  9  5  1  0
  3 10  1  0
  3 11  1  0
  4 12  1  0
  4 13  1  0
  6 14  1  0
  6 15  1  0
  8 16  1  0
  8 17  1  0
M  END
