
     RDKit          3D

 19 20  0  0  0  0  0  0  0  0999 V2000
   -0.5584    0.4595   -2.3110 O   0  0  0  0  0  0  0  0  0  0  0  0
   -0.5721    0.3201   -1.1173 C   0  0  0  0  0  0  0  0  0  0  0  0
   -1.7635    0.4585   -0.2511 C   0  0  0  0  0  0  0  0  0  0  0  0
   -1.5789   -0.7328    0.6804 C   0  0  0  0  0  0  0  0  0  0  0  0
   -0.0844   -0.9789    0.7499 C   0  0  0  0  0  0  0  0  0  0  0  0
    0.5166   -0.0076   -0.2203 C   0  0  0  0  0  0  0  0  0  0  0  0
    1.8669   -0.2663   -0.7278 C   0  0  0  0  0  0  0  0  0  0  0  0
    2.3844    0.3631    0.4309 O   0  0  0  0  0  0  0  0  0  0  0  0
    1.2430    1.1638    0.4135 C   0  0  0  0  0  0  0  0  0  0  0  0
   -2.7156    0.4015   -0.8041 H   0  0  0  0  0  0  0  0  0  0  0  0
   -1.6517    1.4171    0.3154 H   0  0  0  0  0  0  0  0  0  0  0  0
   -2.0173   -0.5321    1.6697 H   0  0  0  0  0  0  0  0  0  0  0  0
   -2.0676   -1.6055    0.1966 H   0  0  0  0  0  0  0  0  0  0  0  0
    0.3021   -0.8691    1.7656 H   0  0  0  0  0  0  0  0  0  0  0  0
    0.1386   -2.0293    0.4139 H   0  0  0  0  0  0  0  0  0  0  0  0
    2.1297    0.3352   -1.6000 H   0  0  0  0  0  0  0  0  0  0  0  0
    2.2053   -1.3189   -0.8298 H   0  0  0  0  0  0  0  0  0  0  0  0
    0.8960    1.3767    1.4463 H   0  0  0  0  0  0  0  0  0  0  0  0
    1.3269    2.0450   -0.2208 H   0  0  0  0  0  0  0  0  0  0  0  0
  1  2  2  0
  2  3  1  0
  3  4  1  0
  4  5  1  0
  5  6  1  0
  6  7  1  0
  7  8  1  0
  8  9  1  0
  6  2  1  0
  9  6  1  0
  3 10  1  0
  3 11  1  0
  4 12  1  0
  4 13  1  0
  5 14  1  0
  5 15  1  0
  7 16  1  0
  7 17  1  0
  9 18  1  0
  9 19  1  0
M  END
