
     RDKit          3D

 19 20  0  0  0  0  0  0  0  0999 V2000
   -2.6393   -0.5594    1.7278 O   0  0  0  0  0  0  0  0  0  0  0  0
   -1.7562   -0.3085    0.9376 C   0  0  0  0  0  0  0  0  0  0  0  0
   -1.9003    0.6142   -0.2446 C   0  0  0  0  0  0  0  0  0  0  0  0
   -0.7926    0.0328   -1.1372 C   0  0  0  0  0  0  0  0  0  0  0  0
    0.3177   -0.0181   -0.0939 C   0  0  0  0  0  0  0  0  0  0  0  0
    1.6423   -0.4548   -0.5554 C   0  0  0  0  0  0  0  0  0  0  0  0
    2.0720    0.7938    0.2084 C   0  0  0  0  0  0  0  0  0  0  0  0
    0.7499    1.2313    0.3165 O   0  0  0  0  0  0  0  0  0  0  0  0
   -0.3647   -0.8505    0.9678 C   0  0  0  0  0  0  0  0  0  0  0  0
   -1.5508    1.6127    0.0548 H   0  0  0  0  0  0  0  0  0  0  0  0
   -2.8773    0.5674   -0.7052 H   0  0  0  0  0  0  0  0  0  0  0  0
   -1.1055   -0.9903   -1.3693 H   0  0  0  0  0  0  0  0  0  0  0  0
   -0.5619    0.6696   -1.9830 H   0  0  0  0  0  0  0  0  0  0  0  0
    1.8824   -0.4082   -1.6289 H   0  0  0  0  0  0  0  0  0  0  0  0
    2.0011   -1.3507   -0.0076 H   0  0  0  0  0  0  0  0  0  0  0  0
    2.4536    0.5850    1.2370 H   0  0  0  0  0  0  0  0  0  0  0  0
    2.7298    1.4739   -0.3261 H   0  0  0  0  0  0  0  0  0  0  0  0
   -0.4066   -1.9019    0.6356 H   0  0  0  0  0  0  0  0  0  0  0  0
    0.1064   -0.7383    1.9656 H   0  0  0  0  0  0  0  0  0  0  0  0
  1  2  2  0
  2  3  1  0
  3  4  1  0
  4  5  1  0
  5  6  1  0
  6  7  1  0
  7  8  1  0
  5  9  1  0
  9  2  1  0
  8  5  1  0
  3 10  1  0
  3 11  1  0
  4 12  1  0
  4 13  1  0
  6 14  1  0
  6 15  1  0
  7 16  1  0
  7 17  1  0
  9 18  1  0
  9 19  1  0
M  END
