
     RDKit          3D

 14 15  0  0  0  0  0  0  0  0999 V2000
   -2.1653    2.3192    0.4305 O   0  0  0  0  0  0  0  0  0  0  0  0
   -1.4089    1.3302    0.4166 C   0  0  0  0  0  0  0  0  0  0  0  0
   -0.3753    0.9553    1.2644 O   0  0  0  0  0  0  0  0  0  0  0  0
    0.0007    0.0009    0.3075 C   0  0  0  0  0  0  0  0  0  0  0  0
    1.3539    0.0954   -0.3450 C   0  0  0  0  0  0  0  0  0  0  0  0
    2.3008    0.0038    0.6937 O   0  0  0  0  0  0  0  0  0  0  0  0
   -0.8824   -1.1704    0.0947 C   0  0  0  0  0  0  0  0  0  0  0  0
   -1.2518    0.1612   -0.4417 C   0  0  0  0  0  0  0  0  0  0  0  0
    1.5264   -0.6804   -1.0894 H   0  0  0  0  0  0  0  0  0  0  0  0
    1.4230    1.1100   -0.8250 H   0  0  0  0  0  0  0  0  0  0  0  0
    2.7403   -0.8798    0.7099 H   0  0  0  0  0  0  0  0  0  0  0  0
   -0.4800   -1.9129   -0.6307 H   0  0  0  0  0  0  0  0  0  0  0  0
   -1.4712   -1.5815    0.9502 H   0  0  0  0  0  0  0  0  0  0  0  0
   -1.3102    0.2489   -1.5356 H   0  0  0  0  0  0  0  0  0  0  0  0
  1  2  2  0
  2  3  1  0
  3  4  1  0
  4  5  1  0
  5  6  1  0
  4  7  1  0
  7  8  1  0
  8  2  1  0
  8  4  1  0
  5  9  1  0
  5 10  1  0
  6 11  1  0
  7 12  1  0
  7 13  1  0
  8 14  1  0
M  END
