
     RDKit          3D

 17 18  0  0  0  0  0  0  0  0999 V2000
   -2.1464    1.6852    1.2706 O   0  0  0  0  0  0  0  0  0  0  0  0
   -1.7006    0.7444    0.6054 C   0  0  0  0  0  0  0  0  0  0  0  0
   -1.6839    0.5513   -0.8490 C   0  0  0  0  0  0  0  0  0  0  0  0
   -0.7281   -0.2872   -1.1761 C   0  0  0  0  0  0  0  0  0  0  0  0
   -0.0275   -0.7226    0.0287 C   0  0  0  0  0  0  0  0  0  0  0  0
    1.1726    0.1271    0.3019 C   0  0  0  0  0  0  0  0  0  0  0  0
    2.2881    0.2906   -0.5706 C   0  0  0  0  0  0  0  0  0  0  0  0
    2.3574   -0.7411    0.4795 O   0  0  0  0  0  0  0  0  0  0  0  0
   -1.0371   -0.4884    1.1328 C   0  0  0  0  0  0  0  0  0  0  0  0
   -2.3740    1.0419   -1.5467 H   0  0  0  0  0  0  0  0  0  0  0  0
   -0.5039   -0.6022   -2.2061 H   0  0  0  0  0  0  0  0  0  0  0  0
    0.1764   -1.8152    0.0517 H   0  0  0  0  0  0  0  0  0  0  0  0
    1.0414    0.8579    1.1260 H   0  0  0  0  0  0  0  0  0  0  0  0
    3.0261    1.0685   -0.3617 H   0  0  0  0  0  0  0  0  0  0  0  0
    2.3562   -0.1266   -1.5960 H   0  0  0  0  0  0  0  0  0  0  0  0
   -0.4679   -0.2675    2.0635 H   0  0  0  0  0  0  0  0  0  0  0  0
   -1.7489   -1.3161    1.2460 H   0  0  0  0  0  0  0  0  0  0  0  0
  1  2  2  0
  2  3  1  0
  3  4  2  0
  4  5  1  0
  5  6  1  0
  6  7  1  0
  7  8  1  0
  5  9  1  0
  9  2  1  0
  8  6  1  0
  3 10  1  0
  4 11  1  0
  5 12  1  0
  6 13  1  0
  7 14  1  0
  7 15  1  0
  9 16  1  0
  9 17  1  0
M  END
