
     RDKit          3D

 19 20  0  0  0  0  0  0  0  0999 V2000
   -1.9743    1.9029    0.6672 O   0  0  0  0  0  0  0  0  0  0  0  0
   -1.3815    0.8837    0.3559 C   0  0  0  0  0  0  0  0  0  0  0  0
   -1.8450   -0.2541   -0.4808 C   0  0  0  0  0  0  0  0  0  0  0  0
   -0.5827   -1.0065   -0.8001 C   0  0  0  0  0  0  0  0  0  0  0  0
    0.4117   -0.7087    0.2807 C   0  0  0  0  0  0  0  0  0  0  0  0
    0.6016   -1.7309    1.1812 O   0  0  0  0  0  0  0  0  0  0  0  0
    1.7112   -0.0701   -0.2101 C   0  0  0  0  0  0  0  0  0  0  0  0
    0.9814    1.2617   -0.1731 C   0  0  0  0  0  0  0  0  0  0  0  0
    0.0200    0.6218    0.8188 C   0  0  0  0  0  0  0  0  0  0  0  0
   -2.3519    0.1306   -1.4060 H   0  0  0  0  0  0  0  0  0  0  0  0
   -2.5524   -0.8660    0.1397 H   0  0  0  0  0  0  0  0  0  0  0  0
   -0.1613   -0.5814   -1.7585 H   0  0  0  0  0  0  0  0  0  0  0  0
   -0.7715   -2.0946   -0.9381 H   0  0  0  0  0  0  0  0  0  0  0  0
    1.1221   -1.4403    1.9468 H   0  0  0  0  0  0  0  0  0  0  0  0
    2.0039   -0.3290   -1.2242 H   0  0  0  0  0  0  0  0  0  0  0  0
    2.4782   -0.1710    0.5842 H   0  0  0  0  0  0  0  0  0  0  0  0
    0.5324    1.5554   -1.1347 H   0  0  0  0  0  0  0  0  0  0  0  0
    1.5393    2.0805    0.2805 H   0  0  0  0  0  0  0  0  0  0  0  0
    0.2187    0.8161    1.8708 H   0  0  0  0  0  0  0  0  0  0  0  0
  1  2  2  0
  2  3  1  0
  3  4  1  0
  4  5  1  0
  5  6  1  0
  5  7  1  0
  7  8  1  0
  8  9  1  0
  9  2  1  0
  9  5  1  0
  3 10  1  0
  3 11  1  0
  4 12  1  0
  4 13  1  0
  6 14  1  0
  7 15  1  0
  7 16  1  0
  8 17  1  0
  8 18  1  0
  9 19  1  0
M  END
