
     RDKit          3D

 15 15  0  0  0  0  0  0  0  0999 V2000
    0.8878   -0.3979    2.5106 O   0  0  0  0  0  0  0  0  0  0  0  0
    0.4251   -0.3962    1.3413 C   0  0  0  0  0  0  0  0  0  0  0  0
   -0.9929   -0.3005    1.0212 C   0  0  0  0  0  0  0  0  0  0  0  0
   -1.9851   -0.2801    1.8042 O   0  0  0  0  0  0  0  0  0  0  0  0
   -1.1642   -0.2217   -0.4683 C   0  0  0  0  0  0  0  0  0  0  0  0
   -2.0102    0.8605   -0.7069 O   0  0  0  0  0  0  0  0  0  0  0  0
    0.2267   -0.0053   -0.9892 C   0  0  0  0  0  0  0  0  0  0  0  0
    1.1875   -0.4876    0.0718 C   0  0  0  0  0  0  0  0  0  0  0  0
    2.2961    0.3691    0.1270 O   0  0  0  0  0  0  0  0  0  0  0  0
   -1.6519   -1.1290   -0.8622 H   0  0  0  0  0  0  0  0  0  0  0  0
   -1.7318    1.6836   -0.2430 H   0  0  0  0  0  0  0  0  0  0  0  0
    0.4338    1.0814   -1.1598 H   0  0  0  0  0  0  0  0  0  0  0  0
    0.3841   -0.5025   -1.9611 H   0  0  0  0  0  0  0  0  0  0  0  0
    1.5796   -1.4922   -0.1320 H   0  0  0  0  0  0  0  0  0  0  0  0
    2.1153    1.2185   -0.3535 H   0  0  0  0  0  0  0  0  0  0  0  0
  1  2  2  0
  2  3  1  0
  3  4  2  0
  3  5  1  0
  5  6  1  0
  5  7  1  0
  7  8  1  0
  8  9  1  0
  8  2  1  0
  5 10  1  0
  6 11  1  0
  7 12  1  0
  7 13  1  0
  8 14  1  0
  9 15  1  0
M  END
