
     RDKit          3D

 17 19  0  0  0  0  0  0  0  0999 V2000
   -0.3245   -1.9842   -1.7501 O   0  0  0  0  0  0  0  0  0  0  0  0
   -0.1025   -1.0774   -0.9689 C   0  0  0  0  0  0  0  0  0  0  0  0
    1.1825   -0.3503   -0.8824 C   0  0  0  0  0  0  0  0  0  0  0  0
    1.6500   -0.1807    0.5420 C   0  0  0  0  0  0  0  0  0  0  0  0
    0.6398    0.9585    0.4520 C   0  0  0  0  0  0  0  0  0  0  0  0
    0.8694    1.0178   -0.8966 O   0  0  0  0  0  0  0  0  0  0  0  0
   -0.7214    0.4194    0.8190 C   0  0  0  0  0  0  0  0  0  0  0  0
   -1.8319    0.6455   -0.1121 C   0  0  0  0  0  0  0  0  0  0  0  0
   -1.1912   -0.6737   -0.0420 C   0  0  0  0  0  0  0  0  0  0  0  0
    1.9658   -0.6566   -1.5997 H   0  0  0  0  0  0  0  0  0  0  0  0
    2.6755    0.2180    0.5723 H   0  0  0  0  0  0  0  0  0  0  0  0
    1.3846   -0.9731    1.2408 H   0  0  0  0  0  0  0  0  0  0  0  0
    0.9505    1.8053    1.0658 H   0  0  0  0  0  0  0  0  0  0  0  0
   -0.8706    0.3070    1.9103 H   0  0  0  0  0  0  0  0  0  0  0  0
   -1.6465    1.3533   -0.9690 H   0  0  0  0  0  0  0  0  0  0  0  0
   -2.8872    0.6962    0.2227 H   0  0  0  0  0  0  0  0  0  0  0  0
   -1.7424   -1.5250    0.3960 H   0  0  0  0  0  0  0  0  0  0  0  0
  1  2  2  0
  2  3  1  0
  3  4  1  0
  4  5  1  0
  5  6  1  0
  5  7  1  0
  7  8  1  0
  8  9  1  0
  9  2  1  0
  6  3  1  0
  9  7  1  0
  3 10  1  0
  4 11  1  0
  4 12  1  0
  5 13  1  0
  7 14  1  0
  8 15  1  0
  8 16  1  0
  9 17  1  0
M  END
