
     RDKit          3D

 15 16  0  0  0  0  0  0  0  0999 V2000
    2.5499   -1.5626    0.2577 O   0  0  0  0  0  0  0  0  0  0  0  0
    1.5080   -0.8953    0.1439 C   0  0  0  0  0  0  0  0  0  0  0  0
    1.5376    0.5366    0.4055 C   0  0  0  0  0  0  0  0  0  0  0  0
    0.4663    1.2722    0.4645 C   0  0  0  0  0  0  0  0  0  0  0  0
   -0.8652    0.6643    0.2620 C   0  0  0  0  0  0  0  0  0  0  0  0
   -1.5683    1.5648   -0.5775 O   0  0  0  0  0  0  0  0  0  0  0  0
   -0.8784   -0.6737   -0.3665 C   0  0  0  0  0  0  0  0  0  0  0  0
   -0.7701   -1.7172    0.7102 O   0  0  0  0  0  0  0  0  0  0  0  0
    0.2420   -1.5422   -0.2539 C   0  0  0  0  0  0  0  0  0  0  0  0
    2.4998    1.0438    0.5642 H   0  0  0  0  0  0  0  0  0  0  0  0
    0.5225    2.3212    0.6584 H   0  0  0  0  0  0  0  0  0  0  0  0
   -1.3554    0.6819    1.2802 H   0  0  0  0  0  0  0  0  0  0  0  0
   -2.4624    1.6575   -0.2109 H   0  0  0  0  0  0  0  0  0  0  0  0
   -1.7085   -0.9326   -1.0738 H   0  0  0  0  0  0  0  0  0  0  0  0
    0.2823   -2.4188   -0.9483 H   0  0  0  0  0  0  0  0  0  0  0  0
  1  2  2  0
  2  3  1  0
  3  4  2  0
  4  5  1  0
  5  6  1  0
  5  7  1  0
  7  8  1  0
  8  9  1  0
  9  2  1  0
  9  7  1  0
  3 10  1  0
  4 11  1  0
  5 12  1  0
  6 13  1  0
  7 14  1  0
  9 15  1  0
M  END
