
     RDKit          3D

 17 18  0  0  0  0  0  0  0  0999 V2000
   -1.8632   -1.7985    1.1994 O   0  0  0  0  0  0  0  0  0  0  0  0
   -1.2249   -1.0129    0.5478 C   0  0  0  0  0  0  0  0  0  0  0  0
   -1.5630    0.4067    0.1939 C   0  0  0  0  0  0  0  0  0  0  0  0
   -0.6534    0.6334   -0.9974 C   0  0  0  0  0  0  0  0  0  0  0  0
    0.3101    1.5537   -0.6205 O   0  0  0  0  0  0  0  0  0  0  0  0
    1.4356    0.9407   -0.1257 C   0  0  0  0  0  0  0  0  0  0  0  0
    1.1689   -0.3641    0.5709 C   0  0  0  0  0  0  0  0  0  0  0  0
    0.1158   -1.1927   -0.1239 C   0  0  0  0  0  0  0  0  0  0  0  0
   -0.1329   -0.5952   -1.3534 O   0  0  0  0  0  0  0  0  0  0  0  0
   -1.2549    1.0108    1.0739 H   0  0  0  0  0  0  0  0  0  0  0  0
   -2.6268    0.5242   -0.0521 H   0  0  0  0  0  0  0  0  0  0  0  0
   -1.2409    0.9960   -1.8873 H   0  0  0  0  0  0  0  0  0  0  0  0
    2.1224    0.7621   -1.0030 H   0  0  0  0  0  0  0  0  0  0  0  0
    1.9592    1.6029    0.6230 H   0  0  0  0  0  0  0  0  0  0  0  0
    2.1225   -0.9628    0.4898 H   0  0  0  0  0  0  0  0  0  0  0  0
    0.9783   -0.2513    1.6517 H   0  0  0  0  0  0  0  0  0  0  0  0
    0.3472   -2.2529   -0.1871 H   0  0  0  0  0  0  0  0  0  0  0  0
  1  2  2  0
  2  3  1  0
  3  4  1  0
  4  5  1  0
  5  6  1  0
  6  7  1  0
  7  8  1  0
  8  9  1  0
  8  2  1  0
  9  4  1  0
  3 10  1  0
  3 11  1  0
  4 12  1  0
  6 13  1  0
  6 14  1  0
  7 15  1  0
  7 16  1  0
  8 17  1  0
M  END
