
     RDKit          3D

 17 19  0  0  0  0  0  0  0  0999 V2000
    1.1422    2.3702    0.6393 O   0  0  0  0  0  0  0  0  0  0  0  0
    0.6591    1.2665    0.5866 C   0  0  0  0  0  0  0  0  0  0  0  0
    1.4487    0.0162    0.4139 C   0  0  0  0  0  0  0  0  0  0  0  0
    0.9846   -0.5918   -0.8957 C   0  0  0  0  0  0  0  0  0  0  0  0
   -0.4716   -0.8882   -0.5636 C   0  0  0  0  0  0  0  0  0  0  0  0
   -1.3294    0.3549   -0.6733 C   0  0  0  0  0  0  0  0  0  0  0  0
   -0.7495    0.7812    0.6645 C   0  0  0  0  0  0  0  0  0  0  0  0
   -0.5071   -0.6961    0.9274 C   0  0  0  0  0  0  0  0  0  0  0  0
    0.8187   -0.8203    1.3358 O   0  0  0  0  0  0  0  0  0  0  0  0
    2.5078    0.1169    0.5242 H   0  0  0  0  0  0  0  0  0  0  0  0
    1.5465   -1.4822   -1.1765 H   0  0  0  0  0  0  0  0  0  0  0  0
    1.0418    0.2359   -1.6485 H   0  0  0  0  0  0  0  0  0  0  0  0
   -0.8802   -1.8078   -0.9568 H   0  0  0  0  0  0  0  0  0  0  0  0
   -1.1379    1.0096   -1.5156 H   0  0  0  0  0  0  0  0  0  0  0  0
   -2.4010    0.0609   -0.5003 H   0  0  0  0  0  0  0  0  0  0  0  0
   -1.4137    1.2965    1.3456 H   0  0  0  0  0  0  0  0  0  0  0  0
   -1.2591   -1.2224    1.4929 H   0  0  0  0  0  0  0  0  0  0  0  0
  1  2  2  0
  2  3  1  0
  3  4  1  0
  4  5  1  0
  5  6  1  0
  6  7  1  0
  7  8  1  0
  8  9  1  0
  7  2  1  0
  9  3  1  0
  8  5  1  0
  3 10  1  0
  4 11  1  0
  4 12  1  0
  5 13  1  0
  6 14  1  0
  6 15  1  0
  7 16  1  0
  8 17  1  0
M  END
