
     RDKit          3D

 13 13  0  0  0  0  0  0  0  0999 V2000
    2.6479   -0.2860   -0.1639 O   0  0  0  0  0  0  0  0  0  0  0  0
    1.4305   -0.1782    0.0222 C   0  0  0  0  0  0  0  0  0  0  0  0
    0.4872   -1.3042    0.2605 C   0  0  0  0  0  0  0  0  0  0  0  0
   -0.5611   -1.1462   -0.6200 O   0  0  0  0  0  0  0  0  0  0  0  0
   -1.3575   -0.0609   -0.4195 C   0  0  0  0  0  0  0  0  0  0  0  0
   -0.6593    1.1324    0.0894 C   0  0  0  0  0  0  0  0  0  0  0  0
   -1.2821    2.1292    0.5740 O   0  0  0  0  0  0  0  0  0  0  0  0
    0.7986    1.1389    0.0206 C   0  0  0  0  0  0  0  0  0  0  0  0
    1.4366    2.2157   -0.0350 O   0  0  0  0  0  0  0  0  0  0  0  0
    0.1501   -1.2922    1.3259 H   0  0  0  0  0  0  0  0  0  0  0  0
    0.9480   -2.2855    0.0939 H   0  0  0  0  0  0  0  0  0  0  0  0
   -2.2109   -0.3208    0.2485 H   0  0  0  0  0  0  0  0  0  0  0  0
   -1.8281    0.2577   -1.3965 H   0  0  0  0  0  0  0  0  0  0  0  0
  1  2  2  0
  2  3  1  0
  3  4  1  0
  4  5  1  0
  5  6  1  0
  6  7  2  0
  6  8  1  0
  8  9  2  0
  8  2  1  0
  3 10  1  0
  3 11  1  0
  5 12  1  0
  5 13  1  0
M  END
