
     RDKit          3D

 17 17  0  0  0  0  0  0  0  0999 V2000
   -1.2629   -2.2271   -0.0058 O   0  0  0  0  0  0  0  0  0  0  0  0
   -1.0051   -1.0496   -0.0976 C   0  0  0  0  0  0  0  0  0  0  0  0
   -1.7403    0.2453   -0.2771 C   0  0  0  0  0  0  0  0  0  0  0  0
   -0.5116    1.0219    0.0817 C   0  0  0  0  0  0  0  0  0  0  0  0
   -0.0897    1.9631   -0.8535 O   0  0  0  0  0  0  0  0  0  0  0  0
    0.2615   -0.2697   -0.0738 C   0  0  0  0  0  0  0  0  0  0  0  0
    0.8854   -0.3634   -1.3076 O   0  0  0  0  0  0  0  0  0  0  0  0
    1.1522   -0.5234    1.1139 C   0  0  0  0  0  0  0  0  0  0  0  0
    2.1734    0.4156    1.0925 O   0  0  0  0  0  0  0  0  0  0  0  0
   -2.5630    0.2823    0.4807 H   0  0  0  0  0  0  0  0  0  0  0  0
   -2.0937    0.3364   -1.3045 H   0  0  0  0  0  0  0  0  0  0  0  0
   -0.5588    1.3943    1.1113 H   0  0  0  0  0  0  0  0  0  0  0  0
   -0.4740    1.8091   -1.7576 H   0  0  0  0  0  0  0  0  0  0  0  0
    1.0174   -1.3341   -1.4877 H   0  0  0  0  0  0  0  0  0  0  0  0
    0.5627   -0.5074    2.0293 H   0  0  0  0  0  0  0  0  0  0  0  0
    1.6023   -1.5368    1.0252 H   0  0  0  0  0  0  0  0  0  0  0  0
    2.6443    0.3434    0.2304 H   0  0  0  0  0  0  0  0  0  0  0  0
  1  2  2  0
  2  3  1  0
  3  4  1  0
  4  5  1  0
  4  6  1  0
  6  7  1  0
  6  8  1  0
  8  9  1  0
  6  2  1  0
  3 10  1  0
  3 11  1  0
  4 12  1  0
  5 13  1  0
  7 14  1  0
  8 15  1  0
  8 16  1  0
  9 17  1  0
M  END
