
     RDKit          3D

 17 19  0  0  0  0  0  0  0  0999 V2000
    1.5567   -2.3982    0.1914 O   0  0  0  0  0  0  0  0  0  0  0  0
    1.0518   -1.2822   -0.0986 C   0  0  0  0  0  0  0  0  0  0  0  0
    1.8303   -0.0884    0.2110 C   0  0  0  0  0  0  0  0  0  0  0  0
    1.2512    1.1219    0.2601 C   0  0  0  0  0  0  0  0  0  0  0  0
   -0.1981    1.1557   -0.0157 C   0  0  0  0  0  0  0  0  0  0  0  0
   -1.0040    0.4368    1.0336 C   0  0  0  0  0  0  0  0  0  0  0  0
   -1.3960   -0.5656   -0.0244 C   0  0  0  0  0  0  0  0  0  0  0  0
   -0.2711   -1.2242   -0.7231 C   0  0  0  0  0  0  0  0  0  0  0  0
   -0.6065    0.1701   -1.0705 C   0  0  0  0  0  0  0  0  0  0  0  0
    2.9061   -0.1219    0.4145 H   0  0  0  0  0  0  0  0  0  0  0  0
    1.8225    2.0095    0.4885 H   0  0  0  0  0  0  0  0  0  0  0  0
   -0.6300    2.1595   -0.1898 H   0  0  0  0  0  0  0  0  0  0  0  0
   -0.3892   -0.0545    1.8193 H   0  0  0  0  0  0  0  0  0  0  0  0
   -1.8917    0.9829    1.4171 H   0  0  0  0  0  0  0  0  0  0  0  0
   -2.4358   -0.7867   -0.2444 H   0  0  0  0  0  0  0  0  0  0  0  0
   -0.5529   -1.9988   -1.4576 H   0  0  0  0  0  0  0  0  0  0  0  0
   -1.0433    0.4840   -2.0115 H   0  0  0  0  0  0  0  0  0  0  0  0
  1  2  2  0
  2  3  1  0
  3  4  2  0
  4  5  1  0
  5  6  1  0
  6  7  1  0
  7  8  1  0
  8  9  1  0
  8  2  1  0
  9  5  1  0
  9  7  1  0
  3 10  1  0
  4 11  1  0
  5 12  1  0
  6 13  1  0
  6 14  1  0
  7 15  1  0
  8 16  1  0
  9 17  1  0
M  END
