
     RDKit          3D

 17 18  0  0  0  0  0  0  0  0999 V2000
    1.8857    1.9093   -0.8425 O   0  0  0  0  0  0  0  0  0  0  0  0
    1.0952    1.0522   -0.5419 C   0  0  0  0  0  0  0  0  0  0  0  0
   -0.3558    1.0224   -0.8119 C   0  0  0  0  0  0  0  0  0  0  0  0
   -0.9300    0.3826    0.4491 C   0  0  0  0  0  0  0  0  0  0  0  0
   -1.4309   -1.0193    0.2752 C   0  0  0  0  0  0  0  0  0  0  0  0
   -0.4014   -1.5335    1.0866 O   0  0  0  0  0  0  0  0  0  0  0  0
    0.2160   -0.2971    1.1291 C   0  0  0  0  0  0  0  0  0  0  0  0
    1.4019   -0.1974    0.1841 C   0  0  0  0  0  0  0  0  0  0  0  0
    1.3838   -1.2686   -0.7158 O   0  0  0  0  0  0  0  0  0  0  0  0
   -0.8061    2.0399   -0.8936 H   0  0  0  0  0  0  0  0  0  0  0  0
   -0.6281    0.4368   -1.7084 H   0  0  0  0  0  0  0  0  0  0  0  0
   -1.5566    1.0473    1.0493 H   0  0  0  0  0  0  0  0  0  0  0  0
   -1.3966   -1.4484   -0.7292 H   0  0  0  0  0  0  0  0  0  0  0  0
   -2.4073   -1.1748    0.8128 H   0  0  0  0  0  0  0  0  0  0  0  0
    0.3851    0.1344    2.1273 H   0  0  0  0  0  0  0  0  0  0  0  0
    2.3282   -0.1526    0.7736 H   0  0  0  0  0  0  0  0  0  0  0  0
    1.2169   -0.9330   -1.6438 H   0  0  0  0  0  0  0  0  0  0  0  0
  1  2  2  0
  2  3  1  0
  3  4  1  0
  4  5  1  0
  5  6  1  0
  6  7  1  0
  7  8  1  0
  8  9  1  0
  8  2  1  0
  7  4  1  0
  3 10  1  0
  3 11  1  0
  4 12  1  0
  5 13  1  0
  5 14  1  0
  7 15  1  0
  8 16  1  0
  9 17  1  0
M  END
