
     RDKit          3D

 15 16  0  0  0  0  0  0  0  0999 V2000
    1.5253    1.6620   -1.5152 O   0  0  0  0  0  0  0  0  0  0  0  0
    0.7158    0.9198   -0.9295 C   0  0  0  0  0  0  0  0  0  0  0  0
   -0.7386    0.9478   -0.8961 C   0  0  0  0  0  0  0  0  0  0  0  0
   -1.4834    1.7619   -1.4855 O   0  0  0  0  0  0  0  0  0  0  0  0
   -1.1337   -0.1799   -0.0260 C   0  0  0  0  0  0  0  0  0  0  0  0
   -0.6238    0.1537    1.3376 C   0  0  0  0  0  0  0  0  0  0  0  0
    0.7166    0.1120    1.3047 C   0  0  0  0  0  0  0  0  0  0  0  0
    1.1036   -0.2276   -0.0853 C   0  0  0  0  0  0  0  0  0  0  0  0
   -0.0475   -1.1940   -0.4327 C   0  0  0  0  0  0  0  0  0  0  0  0
   -2.1241   -0.5356   -0.0934 H   0  0  0  0  0  0  0  0  0  0  0  0
   -1.2725    0.3831    2.1770 H   0  0  0  0  0  0  0  0  0  0  0  0
    1.3698    0.2899    2.1246 H   0  0  0  0  0  0  0  0  0  0  0  0
    2.0719   -0.6349   -0.2317 H   0  0  0  0  0  0  0  0  0  0  0  0
   -0.0815   -1.4207   -1.4962 H   0  0  0  0  0  0  0  0  0  0  0  0
    0.0022   -2.0374    0.2477 H   0  0  0  0  0  0  0  0  0  0  0  0
  1  2  2  0
  2  3  1  0
  3  4  2  0
  3  5  1  0
  5  6  1  0
  6  7  2  0
  7  8  1  0
  8  9  1  0
  8  2  1  0
  9  5  1  0
  5 10  1  0
  6 11  1  0
  7 12  1  0
  8 13  1  0
  9 14  1  0
  9 15  1  0
M  END
