
     RDKit          3D

 19 20  0  0  0  0  0  0  0  0999 V2000
   -0.1398   -1.5248   -1.9224 O   0  0  0  0  0  0  0  0  0  0  0  0
    0.0548   -0.9085   -0.9214 C   0  0  0  0  0  0  0  0  0  0  0  0
    1.1222   -1.2401    0.0539 C   0  0  0  0  0  0  0  0  0  0  0  0
    1.8689    0.0275    0.3724 C   0  0  0  0  0  0  0  0  0  0  0  0
    1.0154    1.2354    0.4720 C   0  0  0  0  0  0  0  0  0  0  0  0
    0.0481    1.3603   -0.4904 O   0  0  0  0  0  0  0  0  0  0  0  0
   -0.7789    0.2563   -0.5811 C   0  0  0  0  0  0  0  0  0  0  0  0
   -1.7623   -0.0188    0.5557 C   0  0  0  0  0  0  0  0  0  0  0  0
   -2.2109    0.3363   -0.8412 C   0  0  0  0  0  0  0  0  0  0  0  0
    1.8309   -1.9873   -0.3183 H   0  0  0  0  0  0  0  0  0  0  0  0
    0.6751   -1.6204    1.0141 H   0  0  0  0  0  0  0  0  0  0  0  0
    2.6667    0.1482   -0.4047 H   0  0  0  0  0  0  0  0  0  0  0  0
    2.4214   -0.0885    1.3343 H   0  0  0  0  0  0  0  0  0  0  0  0
    1.6891    2.1358    0.3751 H   0  0  0  0  0  0  0  0  0  0  0  0
    0.5300    1.2842    1.4886 H   0  0  0  0  0  0  0  0  0  0  0  0
   -1.7321    0.7439    1.3357 H   0  0  0  0  0  0  0  0  0  0  0  0
   -1.9511   -1.0727    0.8418 H   0  0  0  0  0  0  0  0  0  0  0  0
   -2.6307    1.3782   -0.9122 H   0  0  0  0  0  0  0  0  0  0  0  0
   -2.7166   -0.4449   -1.4517 H   0  0  0  0  0  0  0  0  0  0  0  0
  1  2  2  0
  2  3  1  0
  3  4  1  0
  4  5  1  0
  5  6  1  0
  6  7  1  0
  7  8  1  0
  8  9  1  0
  7  2  1  0
  9  7  1  0
  3 10  1  0
  3 11  1  0
  4 12  1  0
  4 13  1  0
  5 14  1  0
  5 15  1  0
  8 16  1  0
  8 17  1  0
  9 18  1  0
  9 19  1  0
M  END
