
     RDKit          3D

  9  9  0  0  0  0  0  0  0  0999 V2000
    2.7390   -0.6508    0.0670 O   0  0  0  0  0  0  0  0  0  0  0  0
    1.5374   -0.2828    0.0205 C   0  0  0  0  0  0  0  0  0  0  0  0
    1.1099    0.8973    0.3880 O   0  0  0  0  0  0  0  0  0  0  0  0
   -0.1872    0.9697    0.2190 C   0  0  0  0  0  0  0  0  0  0  0  0
   -0.5720   -0.2447   -0.2835 C   0  0  0  0  0  0  0  0  0  0  0  0
   -1.8999   -0.5437   -0.5931 O   0  0  0  0  0  0  0  0  0  0  0  0
    0.4968   -0.9802   -0.3916 O   0  0  0  0  0  0  0  0  0  0  0  0
   -0.7793    1.8497    0.4518 H   0  0  0  0  0  0  0  0  0  0  0  0
   -2.4446   -1.0143    0.1220 H   0  0  0  0  0  0  0  0  0  0  0  0
  1  2  2  0
  2  3  1  0
  3  4  1  0
  4  5  2  0
  5  6  1  0
  5  7  1  0
  7  2  1  0
  4  8  1  0
  6  9  1  0
M  END
