
     RDKit          3D

 19 19  0  0  0  0  0  0  0  0999 V2000
    2.9385    1.0520   -0.6873 O   0  0  0  0  0  0  0  0  0  0  0  0
    1.7695    0.7217   -0.3769 C   0  0  0  0  0  0  0  0  0  0  0  0
    1.5314   -0.7131   -0.0225 C   0  0  0  0  0  0  0  0  0  0  0  0
    0.2315   -1.1234   -0.7109 C   0  0  0  0  0  0  0  0  0  0  0  0
   -0.9791   -0.7065    0.0649 C   0  0  0  0  0  0  0  0  0  0  0  0
   -0.7825   -0.8629    1.4279 O   0  0  0  0  0  0  0  0  0  0  0  0
   -1.4221    0.7050   -0.2345 C   0  0  0  0  0  0  0  0  0  0  0  0
   -0.4394    1.7069    0.3726 C   0  0  0  0  0  0  0  0  0  0  0  0
    0.7740    1.7039   -0.3816 O   0  0  0  0  0  0  0  0  0  0  0  0
    2.3722   -1.3007   -0.3886 H   0  0  0  0  0  0  0  0  0  0  0  0
    1.3997   -0.7784    1.0872 H   0  0  0  0  0  0  0  0  0  0  0  0
    0.2535   -2.2479   -0.7222 H   0  0  0  0  0  0  0  0  0  0  0  0
    0.2259   -0.7323   -1.7421 H   0  0  0  0  0  0  0  0  0  0  0  0
   -1.8284   -1.3831   -0.2171 H   0  0  0  0  0  0  0  0  0  0  0  0
   -0.9981   -1.8009    1.7032 H   0  0  0  0  0  0  0  0  0  0  0  0
   -1.5593    0.8664   -1.3096 H   0  0  0  0  0  0  0  0  0  0  0  0
   -2.3877    0.8640    0.2886 H   0  0  0  0  0  0  0  0  0  0  0  0
   -0.2373    1.3220    1.4113 H   0  0  0  0  0  0  0  0  0  0  0  0
   -0.8623    2.7072    0.4376 H   0  0  0  0  0  0  0  0  0  0  0  0
  1  2  2  0
  2  3  1  0
  3  4  1  0
  4  5  1  0
  5  6  1  0
  5  7  1  0
  7  8  1  0
  8  9  1  0
  9  2  1  0
  3 10  1  0
  3 11  1  0
  4 12  1  0
  4 13  1  0
  5 14  1  0
  6 15  1  0
  7 16  1  0
  7 17  1  0
  8 18  1  0
  8 19  1  0
M  END
