
     RDKit          3D

 12 12  0  0  0  0  0  0  0  0999 V2000
    2.2083    1.5259    0.2300 O   0  0  0  0  0  0  0  0  0  0  0  0
    1.2457    0.7241    0.0625 C   0  0  0  0  0  0  0  0  0  0  0  0
    1.2962   -0.7264    0.0372 C   0  0  0  0  0  0  0  0  0  0  0  0
    0.1027   -1.2335   -0.1593 C   0  0  0  0  0  0  0  0  0  0  0  0
   -0.9013   -0.1763   -0.2907 C   0  0  0  0  0  0  0  0  0  0  0  0
   -1.7385   -0.2413    0.8238 O   0  0  0  0  0  0  0  0  0  0  0  0
   -0.1451    1.0746   -0.1449 C   0  0  0  0  0  0  0  0  0  0  0  0
   -0.5838    2.2713   -0.1855 O   0  0  0  0  0  0  0  0  0  0  0  0
    2.2081   -1.3401    0.1644 H   0  0  0  0  0  0  0  0  0  0  0  0
   -0.0722   -2.3290   -0.2115 H   0  0  0  0  0  0  0  0  0  0  0  0
   -1.4728   -0.2247   -1.2406 H   0  0  0  0  0  0  0  0  0  0  0  0
   -2.1473    0.6753    0.9146 H   0  0  0  0  0  0  0  0  0  0  0  0
  1  2  2  0
  2  3  1  0
  3  4  2  0
  4  5  1  0
  5  6  1  0
  5  7  1  0
  7  8  2  0
  7  2  1  0
  3  9  1  0
  4 10  1  0
  5 11  1  0
  6 12  1  0
M  END
