
     RDKit          3D

 16 17  0  0  0  0  0  0  0  0999 V2000
   -2.7911   -0.1430    0.1519 O   0  0  0  0  0  0  0  0  0  0  0  0
   -1.5827   -0.2107    0.0470 C   0  0  0  0  0  0  0  0  0  0  0  0
   -0.8069   -0.2019   -1.2128 C   0  0  0  0  0  0  0  0  0  0  0  0
    0.5802    0.2637   -0.8424 C   0  0  0  0  0  0  0  0  0  0  0  0
    1.5238   -0.5911   -0.1111 C   0  0  0  0  0  0  0  0  0  0  0  0
    0.6277    0.2951    0.6514 C   0  0  0  0  0  0  0  0  0  0  0  0
    1.0249    1.4781    1.2128 O   0  0  0  0  0  0  0  0  0  0  0  0
   -0.6389   -0.3165    1.1744 C   0  0  0  0  0  0  0  0  0  0  0  0
   -0.7777   -1.2221   -1.6861 H   0  0  0  0  0  0  0  0  0  0  0  0
   -1.2091    0.5052   -1.9672 H   0  0  0  0  0  0  0  0  0  0  0  0
    0.9986    1.1501   -1.3903 H   0  0  0  0  0  0  0  0  0  0  0  0
    1.3474   -1.6797   -0.0364 H   0  0  0  0  0  0  0  0  0  0  0  0
    2.5841   -0.3191   -0.1420 H   0  0  0  0  0  0  0  0  0  0  0  0
    0.6369    2.2167    0.6475 H   0  0  0  0  0  0  0  0  0  0  0  0
   -0.9927    0.1785    2.1006 H   0  0  0  0  0  0  0  0  0  0  0  0
   -0.5246   -1.4033    1.4029 H   0  0  0  0  0  0  0  0  0  0  0  0
  1  2  2  0
  2  3  1  0
  3  4  1  0
  4  5  1  0
  5  6  1  0
  6  7  1  0
  6  8  1  0
  8  2  1  0
  6  4  1  0
  3  9  1  0
  3 10  1  0
  4 11  1  0
  5 12  1  0
  5 13  1  0
  7 14  1  0
  8 15  1  0
  8 16  1  0
M  END
