
     RDKit          3D

 19 19  0  0  0  0  0  0  0  0999 V2000
    2.6845   -1.5813   -0.4081 O   0  0  0  0  0  0  0  0  0  0  0  0
    1.6425   -0.9934   -0.0985 C   0  0  0  0  0  0  0  0  0  0  0  0
    0.3805   -1.6887   -0.4410 C   0  0  0  0  0  0  0  0  0  0  0  0
   -0.8945   -1.4648   -0.1705 C   0  0  0  0  0  0  0  0  0  0  0  0
   -1.5541   -0.3909    0.6070 C   0  0  0  0  0  0  0  0  0  0  0  0
   -1.5773    0.9215   -0.0962 C   0  0  0  0  0  0  0  0  0  0  0  0
   -0.2519    1.4928   -0.4207 C   0  0  0  0  0  0  0  0  0  0  0  0
    1.0214    1.3077   -0.1903 C   0  0  0  0  0  0  0  0  0  0  0  0
    1.8191    0.3428    0.5811 C   0  0  0  0  0  0  0  0  0  0  0  0
    0.5819   -2.5763   -1.0500 H   0  0  0  0  0  0  0  0  0  0  0  0
   -1.5269   -2.2153   -0.6096 H   0  0  0  0  0  0  0  0  0  0  0  0
   -1.0152   -0.2270    1.5864 H   0  0  0  0  0  0  0  0  0  0  0  0
   -2.5877   -0.6948    0.8112 H   0  0  0  0  0  0  0  0  0  0  0  0
   -2.1217    1.6927    0.4866 H   0  0  0  0  0  0  0  0  0  0  0  0
   -2.1636    0.8393   -1.0582 H   0  0  0  0  0  0  0  0  0  0  0  0
   -0.3608    2.3766   -1.0825 H   0  0  0  0  0  0  0  0  0  0  0  0
    1.6421    2.0302   -0.6782 H   0  0  0  0  0  0  0  0  0  0  0  0
    2.8933    0.5867    0.6115 H   0  0  0  0  0  0  0  0  0  0  0  0
    1.3882    0.2424    1.6201 H   0  0  0  0  0  0  0  0  0  0  0  0
  1  2  2  0
  2  3  1  0
  3  4  2  3
  4  5  1  0
  5  6  1  0
  6  7  1  0
  7  8  2  3
  8  9  1  0
  9  2  1  0
  3 10  1  0
  4 11  1  0
  5 12  1  0
  5 13  1  0
  6 14  1  0
  6 15  1  0
  7 16  1  0
  8 17  1  0
  9 18  1  0
  9 19  1  0
M  END
