
     RDKit          3D

 17 19  0  0  0  0  0  0  0  0999 V2000
    3.4681    0.5182   -0.5117 O   0  0  0  0  0  0  0  0  0  0  0  0
    2.2742    0.4158   -0.2979 C   0  0  0  0  0  0  0  0  0  0  0  0
    1.3210    0.7074    0.8114 C   0  0  0  0  0  0  0  0  0  0  0  0
    0.2348    0.1976   -0.0369 C   0  0  0  0  0  0  0  0  0  0  0  0
    1.1684   -0.1025   -1.1649 C   0  0  0  0  0  0  0  0  0  0  0  0
   -0.7426   -0.7961    0.3299 C   0  0  0  0  0  0  0  0  0  0  0  0
   -2.2031   -0.8064   -0.1504 C   0  0  0  0  0  0  0  0  0  0  0  0
   -2.2162    0.4032    0.5964 O   0  0  0  0  0  0  0  0  0  0  0  0
   -1.0877    0.6617   -0.1855 C   0  0  0  0  0  0  0  0  0  0  0  0
    1.5632    0.1737    1.7401 H   0  0  0  0  0  0  0  0  0  0  0  0
    1.2533    1.8267    0.9223 H   0  0  0  0  0  0  0  0  0  0  0  0
    0.9775    0.5148   -2.0654 H   0  0  0  0  0  0  0  0  0  0  0  0
    1.3508   -1.1749   -1.3823 H   0  0  0  0  0  0  0  0  0  0  0  0
   -0.7971   -0.9029    1.4612 H   0  0  0  0  0  0  0  0  0  0  0  0
   -2.7780   -1.6203    0.2929 H   0  0  0  0  0  0  0  0  0  0  0  0
   -2.3499   -0.7064   -1.2193 H   0  0  0  0  0  0  0  0  0  0  0  0
   -1.4368    0.6905   -1.2668 H   0  0  0  0  0  0  0  0  0  0  0  0
  1  2  2  0
  2  3  1  0
  3  4  1  0
  4  5  1  0
  4  6  1  0
  6  7  1  0
  7  8  1  0
  8  9  1  0
  5  2  1  0
  9  6  1  0
  9  4  1  0
  3 10  1  0
  3 11  1  0
  5 12  1  0
  5 13  1  0
  6 14  1  0
  7 15  1  0
  7 16  1  0
  9 17  1  0
M  END
