
     RDKit          3D

 17 19  0  0  0  0  0  0  0  0999 V2000
    1.5306    2.1120    0.1098 O   0  0  0  0  0  0  0  0  0  0  0  0
    1.0832    1.0106   -0.0971 C   0  0  0  0  0  0  0  0  0  0  0  0
    1.6332   -0.3283    0.2979 C   0  0  0  0  0  0  0  0  0  0  0  0
    0.3850   -1.0029    0.7921 C   0  0  0  0  0  0  0  0  0  0  0  0
   -0.9903   -1.1710    0.3714 C   0  0  0  0  0  0  0  0  0  0  0  0
   -1.9939   -0.1945    0.3972 O   0  0  0  0  0  0  0  0  0  0  0  0
   -1.4135    0.9905   -0.0337 C   0  0  0  0  0  0  0  0  0  0  0  0
   -0.1783    0.6508   -0.8239 C   0  0  0  0  0  0  0  0  0  0  0  0
   -0.1515   -0.8633   -0.6090 C   0  0  0  0  0  0  0  0  0  0  0  0
    2.4015   -0.2864    1.0553 H   0  0  0  0  0  0  0  0  0  0  0  0
    2.1143   -0.8438   -0.5763 H   0  0  0  0  0  0  0  0  0  0  0  0
    0.1958   -0.4834    1.7318 H   0  0  0  0  0  0  0  0  0  0  0  0
   -1.4199   -2.1905    0.5747 H   0  0  0  0  0  0  0  0  0  0  0  0
   -2.1413    1.4530   -0.7560 H   0  0  0  0  0  0  0  0  0  0  0  0
   -1.2208    1.7140    0.7559 H   0  0  0  0  0  0  0  0  0  0  0  0
   -0.1912    0.9432   -1.8639 H   0  0  0  0  0  0  0  0  0  0  0  0
    0.3570   -1.5100   -1.3261 H   0  0  0  0  0  0  0  0  0  0  0  0
  1  2  2  0
  2  3  1  0
  3  4  1  0
  4  5  1  0
  5  6  1  0
  6  7  1  0
  7  8  1  0
  8  9  1  0
  8  2  1  0
  9  4  1  0
  9  5  1  0
  3 10  1  0
  3 11  1  0
  4 12  1  0
  5 13  1  0
  7 14  1  0
  7 15  1  0
  8 16  1  0
  9 17  1  0
M  END
