
     RDKit          3D

 17 18  0  0  0  0  0  0  0  0999 V2000
   -1.8891    1.8942    1.7940 O   0  0  0  0  0  0  0  0  0  0  0  0
   -1.6116    1.1227    0.8529 C   0  0  0  0  0  0  0  0  0  0  0  0
   -2.4640    0.2783    0.1288 O   0  0  0  0  0  0  0  0  0  0  0  0
   -1.6452   -0.7364   -0.5042 C   0  0  0  0  0  0  0  0  0  0  0  0
   -0.4678   -0.6914    0.4078 C   0  0  0  0  0  0  0  0  0  0  0  0
    0.7448    0.0003    0.4384 C   0  0  0  0  0  0  0  0  0  0  0  0
    1.7450   -0.2674   -0.6952 C   0  0  0  0  0  0  0  0  0  0  0  0
    2.8960    0.4704   -0.5539 O   0  0  0  0  0  0  0  0  0  0  0  0
   -0.3213    0.8805    0.2392 C   0  0  0  0  0  0  0  0  0  0  0  0
   -2.1757   -1.7217   -0.4512 H   0  0  0  0  0  0  0  0  0  0  0  0
   -1.3787   -0.4485   -1.5216 H   0  0  0  0  0  0  0  0  0  0  0  0
   -0.8446   -1.0292    1.4277 H   0  0  0  0  0  0  0  0  0  0  0  0
    1.3249    0.0886    1.4045 H   0  0  0  0  0  0  0  0  0  0  0  0
    1.9248   -1.3596   -0.8162 H   0  0  0  0  0  0  0  0  0  0  0  0
    1.2358    0.0572   -1.6264 H   0  0  0  0  0  0  0  0  0  0  0  0
    3.3369    0.2098    0.3088 H   0  0  0  0  0  0  0  0  0  0  0  0
   -0.4104    1.2522   -0.8333 H   0  0  0  0  0  0  0  0  0  0  0  0
  1  2  2  0
  2  3  1  0
  3  4  1  0
  4  5  1  0
  5  6  1  0
  6  7  1  0
  7  8  1  0
  6  9  1  0
  9  2  1  0
  9  5  1  0
  4 10  1  0
  4 11  1  0
  5 12  1  0
  6 13  1  0
  7 14  1  0
  7 15  1  0
  8 16  1  0
  9 17  1  0
M  END
