
     RDKit          3D

 17 18  0  0  0  0  0  0  0  0999 V2000
    0.7647    2.3935   -0.6331 O   0  0  0  0  0  0  0  0  0  0  0  0
    1.1582    1.2429   -0.3195 C   0  0  0  0  0  0  0  0  0  0  0  0
    2.4466    0.9509    0.0779 O   0  0  0  0  0  0  0  0  0  0  0  0
    2.5206   -0.4261    0.3470 C   0  0  0  0  0  0  0  0  0  0  0  0
    1.1753   -0.9553    0.0830 C   0  0  0  0  0  0  0  0  0  0  0  0
    0.3932    0.0196   -0.3026 C   0  0  0  0  0  0  0  0  0  0  0  0
   -1.0586   -0.0488   -0.6785 C   0  0  0  0  0  0  0  0  0  0  0  0
   -2.0263   -0.7149    0.2044 C   0  0  0  0  0  0  0  0  0  0  0  0
   -2.0244    0.7798    0.1339 C   0  0  0  0  0  0  0  0  0  0  0  0
    3.3052   -0.9225   -0.2653 H   0  0  0  0  0  0  0  0  0  0  0  0
    2.7685   -0.5207    1.4373 H   0  0  0  0  0  0  0  0  0  0  0  0
    0.8539   -2.0144    0.1888 H   0  0  0  0  0  0  0  0  0  0  0  0
   -1.2283    0.0050   -1.7597 H   0  0  0  0  0  0  0  0  0  0  0  0
   -1.7228   -1.1290    1.1781 H   0  0  0  0  0  0  0  0  0  0  0  0
   -2.8566   -1.2617   -0.2989 H   0  0  0  0  0  0  0  0  0  0  0  0
   -2.9102    1.2243   -0.3242 H   0  0  0  0  0  0  0  0  0  0  0  0
   -1.5590    1.3772    0.9315 H   0  0  0  0  0  0  0  0  0  0  0  0
  1  2  2  0
  2  3  1  0
  3  4  1  0
  4  5  1  0
  5  6  2  0
  6  7  1  0
  7  8  1  0
  8  9  1  0
  6  2  1  0
  9  7  1  0
  4 10  1  0
  4 11  1  0
  5 12  1  0
  7 13  1  0
  8 14  1  0
  8 15  1  0
  9 16  1  0
  9 17  1  0
M  END
