
     RDKit          3D

 16 16  0  0  0  0  0  0  0  0999 V2000
   -0.6938   -2.1196    1.0806 O   0  0  0  0  0  0  0  0  0  0  0  0
   -0.6953   -1.0520    0.3831 C   0  0  0  0  0  0  0  0  0  0  0  0
   -1.8262   -0.4582   -0.3678 C   0  0  0  0  0  0  0  0  0  0  0  0
   -1.4584    1.0138   -0.2706 C   0  0  0  0  0  0  0  0  0  0  0  0
    0.0256    1.0018   -0.1919 C   0  0  0  0  0  0  0  0  0  0  0  0
    0.4423   -0.1835    0.1816 C   0  0  0  0  0  0  0  0  0  0  0  0
    1.8818   -0.5850    0.3729 C   0  0  0  0  0  0  0  0  0  0  0  0
    2.6881    0.4904    0.0933 O   0  0  0  0  0  0  0  0  0  0  0  0
   -2.7999   -0.6438    0.1280 H   0  0  0  0  0  0  0  0  0  0  0  0
   -1.8255   -0.8222   -1.4160 H   0  0  0  0  0  0  0  0  0  0  0  0
   -1.7521    1.5820   -1.1645 H   0  0  0  0  0  0  0  0  0  0  0  0
   -1.8681    1.3943    0.6698 H   0  0  0  0  0  0  0  0  0  0  0  0
    0.6196    1.8859   -0.4246 H   0  0  0  0  0  0  0  0  0  0  0  0
    2.1372   -1.4284   -0.2807 H   0  0  0  0  0  0  0  0  0  0  0  0
    1.9718   -0.8764    1.4367 H   0  0  0  0  0  0  0  0  0  0  0  0
    3.1529    0.8008    0.9145 H   0  0  0  0  0  0  0  0  0  0  0  0
  1  2  2  0
  2  3  1  0
  3  4  1  0
  4  5  1  0
  5  6  2  0
  6  7  1  0
  7  8  1  0
  6  2  1  0
  3  9  1  0
  3 10  1  0
  4 11  1  0
  4 12  1  0
  5 13  1  0
  7 14  1  0
  7 15  1  0
  8 16  1  0
M  END
