
     RDKit          3D

 17 18  0  0  0  0  0  0  0  0999 V2000
    2.3501    1.5650   -0.4631 O   0  0  0  0  0  0  0  0  0  0  0  0
    1.4783    0.8882    0.1325 C   0  0  0  0  0  0  0  0  0  0  0  0
    1.9264   -0.4625    0.5565 C   0  0  0  0  0  0  0  0  0  0  0  0
    0.9507   -1.4255    0.4368 O   0  0  0  0  0  0  0  0  0  0  0  0
   -0.0339   -1.1343   -0.4792 C   0  0  0  0  0  0  0  0  0  0  0  0
   -1.2407   -0.4680    0.1384 C   0  0  0  0  0  0  0  0  0  0  0  0
   -1.8619    0.6175   -0.6513 C   0  0  0  0  0  0  0  0  0  0  0  0
   -1.0273    0.9101    0.5709 C   0  0  0  0  0  0  0  0  0  0  0  0
    0.2398    1.4539    0.3220 O   0  0  0  0  0  0  0  0  0  0  0  0
    2.8695   -0.7325    0.0163 H   0  0  0  0  0  0  0  0  0  0  0  0
    2.2383   -0.4012    1.6387 H   0  0  0  0  0  0  0  0  0  0  0  0
   -0.4036   -2.1252   -0.8746 H   0  0  0  0  0  0  0  0  0  0  0  0
    0.3394   -0.5956   -1.3738 H   0  0  0  0  0  0  0  0  0  0  0  0
   -1.9469   -1.1148    0.6943 H   0  0  0  0  0  0  0  0  0  0  0  0
   -2.9288    0.8918   -0.5257 H   0  0  0  0  0  0  0  0  0  0  0  0
   -1.4399    0.9026   -1.6419 H   0  0  0  0  0  0  0  0  0  0  0  0
   -1.5097    1.2306    1.5031 H   0  0  0  0  0  0  0  0  0  0  0  0
  1  2  2  0
  2  3  1  0
  3  4  1  0
  4  5  1  0
  5  6  1  0
  6  7  1  0
  7  8  1  0
  8  9  1  0
  9  2  1  0
  8  6  1  0
  3 10  1  0
  3 11  1  0
  5 12  1  0
  5 13  1  0
  6 14  1  0
  7 15  1  0
  7 16  1  0
  8 17  1  0
M  END
