
     RDKit          3D

 14 15  0  0  0  0  0  0  0  0999 V2000
    0.7729    1.8365    1.3650 O   0  0  0  0  0  0  0  0  0  0  0  0
    0.5727    0.7566    0.8416 C   0  0  0  0  0  0  0  0  0  0  0  0
    1.1911   -0.2102   -0.0881 C   0  0  0  0  0  0  0  0  0  0  0  0
    1.7901    0.3278   -1.2118 O   0  0  0  0  0  0  0  0  0  0  0  0
   -0.0919   -0.9466   -0.2968 C   0  0  0  0  0  0  0  0  0  0  0  0
   -1.4085   -0.3110   -0.2537 C   0  0  0  0  0  0  0  0  0  0  0  0
   -1.6688    0.8859   -0.9467 O   0  0  0  0  0  0  0  0  0  0  0  0
   -0.5855   -0.1653    0.9656 C   0  0  0  0  0  0  0  0  0  0  0  0
    1.9651   -0.8076    0.4773 H   0  0  0  0  0  0  0  0  0  0  0  0
    2.5216    0.9297   -0.8777 H   0  0  0  0  0  0  0  0  0  0  0  0
   -0.0384   -2.0522   -0.1806 H   0  0  0  0  0  0  0  0  0  0  0  0
   -2.2836   -0.9712   -0.2173 H   0  0  0  0  0  0  0  0  0  0  0  0
   -2.0242    1.5127   -0.2418 H   0  0  0  0  0  0  0  0  0  0  0  0
   -0.7125   -0.7851    1.8597 H   0  0  0  0  0  0  0  0  0  0  0  0
  1  2  2  0
  2  3  1  0
  3  4  1  0
  3  5  1  0
  5  6  1  0
  6  7  1  0
  6  8  1  0
  8  2  1  0
  8  5  1  0
  3  9  1  0
  4 10  1  0
  5 11  1  0
  6 12  1  0
  7 13  1  0
  8 14  1  0
M  END
