
     RDKit          3D

 13 13  0  0  0  0  0  0  0  0999 V2000
   -1.7050    0.7720    1.5189 O   0  0  0  0  0  0  0  0  0  0  0  0
   -0.8565    0.4462    0.7164 C   0  0  0  0  0  0  0  0  0  0  0  0
   -1.0047   -0.4425   -0.4925 C   0  0  0  0  0  0  0  0  0  0  0  0
    0.4806   -0.6645   -0.4493 C   0  0  0  0  0  0  0  0  0  0  0  0
    0.8805   -1.7600    0.3017 O   0  0  0  0  0  0  0  0  0  0  0  0
    0.5585    0.5979    0.3694 C   0  0  0  0  0  0  0  0  0  0  0  0
    0.9087    1.6785   -0.4117 O   0  0  0  0  0  0  0  0  0  0  0  0
   -1.5987   -1.3529   -0.2975 H   0  0  0  0  0  0  0  0  0  0  0  0
   -1.3619    0.1412   -1.3482 H   0  0  0  0  0  0  0  0  0  0  0  0
    0.9715   -0.5827   -1.4463 H   0  0  0  0  0  0  0  0  0  0  0  0
    1.3749   -1.5113    1.1110 H   0  0  0  0  0  0  0  0  0  0  0  0
    1.1924    0.5475    1.2761 H   0  0  0  0  0  0  0  0  0  0  0  0
    0.1596    2.1306   -0.8480 H   0  0  0  0  0  0  0  0  0  0  0  0
  1  2  2  0
  2  3  1  0
  3  4  1  0
  4  5  1  0
  4  6  1  0
  6  7  1  0
  6  2  1  0
  3  8  1  0
  3  9  1  0
  4 10  1  0
  5 11  1  0
  6 12  1  0
  7 13  1  0
M  END
