
     RDKit          3D

 19 20  0  0  0  0  0  0  0  0999 V2000
   -2.0458   -1.9394   -0.4247 O   0  0  0  0  0  0  0  0  0  0  0  0
   -1.3074   -1.0032   -0.2641 C   0  0  0  0  0  0  0  0  0  0  0  0
   -1.0520   -0.2755    0.9982 C   0  0  0  0  0  0  0  0  0  0  0  0
   -0.1873    0.9170    0.6242 C   0  0  0  0  0  0  0  0  0  0  0  0
    1.2408    0.4760    0.6652 C   0  0  0  0  0  0  0  0  0  0  0  0
    1.4649   -0.7765   -0.1096 C   0  0  0  0  0  0  0  0  0  0  0  0
    0.8236   -0.8212   -1.3277 O   0  0  0  0  0  0  0  0  0  0  0  0
   -0.4781   -0.3604   -1.3037 C   0  0  0  0  0  0  0  0  0  0  0  0
   -0.5387    1.1066   -0.8549 C   0  0  0  0  0  0  0  0  0  0  0  0
   -0.5043   -0.9409    1.7193 H   0  0  0  0  0  0  0  0  0  0  0  0
   -1.9526    0.1079    1.4884 H   0  0  0  0  0  0  0  0  0  0  0  0
   -0.3817    1.8020    1.2186 H   0  0  0  0  0  0  0  0  0  0  0  0
    1.9217    1.2854    0.3421 H   0  0  0  0  0  0  0  0  0  0  0  0
    1.4782    0.2444    1.7432 H   0  0  0  0  0  0  0  0  0  0  0  0
    2.5639   -0.8580   -0.3108 H   0  0  0  0  0  0  0  0  0  0  0  0
    1.2021   -1.6932    0.4737 H   0  0  0  0  0  0  0  0  0  0  0  0
   -0.8860   -0.4313   -2.3127 H   0  0  0  0  0  0  0  0  0  0  0  0
    0.2116    1.7206   -1.3688 H   0  0  0  0  0  0  0  0  0  0  0  0
   -1.5730    1.4398   -0.9959 H   0  0  0  0  0  0  0  0  0  0  0  0
  1  2  2  0
  2  3  1  0
  3  4  1  0
  4  5  1  0
  5  6  1  0
  6  7  1  0
  7  8  1  0
  8  9  1  0
  8  2  1  0
  9  4  1  0
  3 10  1  0
  3 11  1  0
  4 12  1  0
  5 13  1  0
  5 14  1  0
  6 15  1  0
  6 16  1  0
  8 17  1  0
  9 18  1  0
  9 19  1  0
M  END
