
     RDKit          3D

 15 15  0  0  0  0  0  0  0  0999 V2000
    1.2951    1.9355    0.6280 O   0  0  0  0  0  0  0  0  0  0  0  0
    0.7702    0.8543    0.2672 C   0  0  0  0  0  0  0  0  0  0  0  0
    1.7760   -0.1593   -0.1033 C   0  0  0  0  0  0  0  0  0  0  0  0
    1.2178   -1.4229   -0.5094 O   0  0  0  0  0  0  0  0  0  0  0  0
   -0.0400   -1.1871   -0.4106 C   0  0  0  0  0  0  0  0  0  0  0  0
   -1.3055   -1.3593   -0.4417 O   0  0  0  0  0  0  0  0  0  0  0  0
   -1.7812   -0.0790    0.0089 C   0  0  0  0  0  0  0  0  0  0  0  0
   -0.7056    0.8958    0.3133 C   0  0  0  0  0  0  0  0  0  0  0  0
   -1.1931    1.9909    0.6922 O   0  0  0  0  0  0  0  0  0  0  0  0
    2.4570    0.1684   -0.9090 H   0  0  0  0  0  0  0  0  0  0  0  0
    2.3500   -0.4067    0.8334 H   0  0  0  0  0  0  0  0  0  0  0  0
    0.0059   -0.9273    0.7091 H   0  0  0  0  0  0  0  0  0  0  0  0
   -0.0383   -0.2984   -1.1394 H   0  0  0  0  0  0  0  0  0  0  0  0
   -2.2668   -0.3112    0.9808 H   0  0  0  0  0  0  0  0  0  0  0  0
   -2.5416    0.3062   -0.6690 H   0  0  0  0  0  0  0  0  0  0  0  0
  1  2  2  0
  2  3  1  0
  3  4  1  0
  4  5  1  0
  5  6  1  0
  6  7  1  0
  7  8  1  0
  8  9  2  0
  8  2  1  0
  3 10  1  0
  3 11  1  0
  5 12  1  0
  5 13  1  0
  7 14  1  0
  7 15  1  0
M  END
