
     RDKit          3D

 11 11  0  0  0  0  0  0  0  0999 V2000
   -0.8052    2.2745    0.2879 O   0  0  0  0  0  0  0  0  0  0  0  0
   -0.3042    1.1463    0.0436 C   0  0  0  0  0  0  0  0  0  0  0  0
    1.0878    0.7168    0.0003 C   0  0  0  0  0  0  0  0  0  0  0  0
    1.1529   -0.6142    0.1285 C   0  0  0  0  0  0  0  0  0  0  0  0
   -0.2048   -1.1300    0.2635 C   0  0  0  0  0  0  0  0  0  0  0  0
   -0.5450   -2.2627    0.7475 O   0  0  0  0  0  0  0  0  0  0  0  0
   -1.0986   -0.0703   -0.2753 C   0  0  0  0  0  0  0  0  0  0  0  0
    1.9235    1.4058   -0.1197 H   0  0  0  0  0  0  0  0  0  0  0  0
    2.0562   -1.2147    0.1324 H   0  0  0  0  0  0  0  0  0  0  0  0
   -2.0915   -0.0770    0.1896 H   0  0  0  0  0  0  0  0  0  0  0  0
   -1.1710   -0.1745   -1.3983 H   0  0  0  0  0  0  0  0  0  0  0  0
  1  2  2  0
  2  3  1  0
  3  4  2  0
  4  5  1  0
  5  6  2  0
  5  7  1  0
  7  2  1  0
  3  8  1  0
  4  9  1  0
  7 10  1  0
  7 11  1  0
M  END
