
     RDKit          3D

 19 21  0  0  0  0  0  0  0  0999 V2000
    1.7446    0.7602    1.9282 O   0  0  0  0  0  0  0  0  0  0  0  0
    1.4575    0.4226    0.7978 C   0  0  0  0  0  0  0  0  0  0  0  0
    1.7547   -0.7816   -0.0201 C   0  0  0  0  0  0  0  0  0  0  0  0
    0.5711   -0.4418   -0.8775 C   0  0  0  0  0  0  0  0  0  0  0  0
    0.6966    0.9681   -0.3549 C   0  0  0  0  0  0  0  0  0  0  0  0
   -0.6954    1.4147   -0.0539 C   0  0  0  0  0  0  0  0  0  0  0  0
   -1.5873    0.2150   -0.1826 C   0  0  0  0  0  0  0  0  0  0  0  0
   -1.3121   -0.8531    0.8763 C   0  0  0  0  0  0  0  0  0  0  0  0
   -0.7490   -0.9751   -0.4656 C   0  0  0  0  0  0  0  0  0  0  0  0
    1.7487   -1.7412    0.4926 H   0  0  0  0  0  0  0  0  0  0  0  0
    2.6947   -0.6596   -0.6317 H   0  0  0  0  0  0  0  0  0  0  0  0
    0.7571   -0.5722   -1.9523 H   0  0  0  0  0  0  0  0  0  0  0  0
    1.3051    1.6350   -0.9921 H   0  0  0  0  0  0  0  0  0  0  0  0
   -0.7000    1.8311    0.9871 H   0  0  0  0  0  0  0  0  0  0  0  0
   -0.9960    2.2490   -0.7246 H   0  0  0  0  0  0  0  0  0  0  0  0
   -2.6060    0.3171   -0.5840 H   0  0  0  0  0  0  0  0  0  0  0  0
   -0.7123   -0.5671    1.7638 H   0  0  0  0  0  0  0  0  0  0  0  0
   -2.1959   -1.4480    1.1190 H   0  0  0  0  0  0  0  0  0  0  0  0
   -1.1760   -1.7729   -1.1256 H   0  0  0  0  0  0  0  0  0  0  0  0
  1  2  2  0
  2  3  1  0
  3  4  1  0
  4  5  1  0
  5  6  1  0
  6  7  1  0
  7  8  1  0
  8  9  1  0
  5  2  1  0
  9  7  1  0
  9  4  1  0
  3 10  1  0
  3 11  1  0
  4 12  1  0
  5 13  1  0
  6 14  1  0
  6 15  1  0
  7 16  1  0
  8 17  1  0
  8 18  1  0
  9 19  1  0
M  END
