
     RDKit          3D

 17 17  0  0  0  0  0  0  0  0999 V2000
    2.0828   -0.4832   -1.3468 O   0  0  0  0  0  0  0  0  0  0  0  0
    1.4157   -0.1380   -0.4014 C   0  0  0  0  0  0  0  0  0  0  0  0
    0.6871   -1.2025    0.3172 C   0  0  0  0  0  0  0  0  0  0  0  0
   -0.7888   -1.1909   -0.1018 C   0  0  0  0  0  0  0  0  0  0  0  0
   -1.4778    0.0301    0.4706 C   0  0  0  0  0  0  0  0  0  0  0  0
   -1.0673    1.2106   -0.3101 C   0  0  0  0  0  0  0  0  0  0  0  0
   -2.0094    1.8021   -0.9358 O   0  0  0  0  0  0  0  0  0  0  0  0
    0.1509    1.8168   -0.5051 O   0  0  0  0  0  0  0  0  0  0  0  0
    1.4358    1.3097   -0.1124 C   0  0  0  0  0  0  0  0  0  0  0  0
    0.6655   -0.9826    1.4192 H   0  0  0  0  0  0  0  0  0  0  0  0
    1.1250   -2.1972    0.1671 H   0  0  0  0  0  0  0  0  0  0  0  0
   -1.2739   -2.1230    0.3017 H   0  0  0  0  0  0  0  0  0  0  0  0
   -0.9109   -1.1797   -1.1819 H   0  0  0  0  0  0  0  0  0  0  0  0
   -1.2335    0.1225    1.5527 H   0  0  0  0  0  0  0  0  0  0  0  0
   -2.5618   -0.1386    0.3706 H   0  0  0  0  0  0  0  0  0  0  0  0
    2.2515    1.8246   -0.6807 H   0  0  0  0  0  0  0  0  0  0  0  0
    1.5090    1.5192    0.9770 H   0  0  0  0  0  0  0  0  0  0  0  0
  1  2  2  0
  2  3  1  0
  3  4  1  0
  4  5  1  0
  5  6  1  0
  6  7  2  0
  6  8  1  0
  8  9  1  0
  9  2  1  0
  3 10  1  0
  3 11  1  0
  4 12  1  0
  4 13  1  0
  5 14  1  0
  5 15  1  0
  9 16  1  0
  9 17  1  0
M  END
