
     RDKit          3D

 15 16  0  0  0  0  0  0  0  0999 V2000
   -1.0389   -1.1588   -2.0269 O   0  0  0  0  0  0  0  0  0  0  0  0
   -0.9096   -0.8976   -0.8497 C   0  0  0  0  0  0  0  0  0  0  0  0
   -0.0311   -1.4697    0.2232 C   0  0  0  0  0  0  0  0  0  0  0  0
    1.3384   -0.8382    0.1774 C   0  0  0  0  0  0  0  0  0  0  0  0
    1.5651    0.4734    0.1148 C   0  0  0  0  0  0  0  0  0  0  0  0
    0.5445    1.5578    0.0723 C   0  0  0  0  0  0  0  0  0  0  0  0
   -0.7811    1.3716    0.0874 C   0  0  0  0  0  0  0  0  0  0  0  0
   -1.4865    0.0585    0.1591 C   0  0  0  0  0  0  0  0  0  0  0  0
   -0.8433   -0.7469    1.1298 O   0  0  0  0  0  0  0  0  0  0  0  0
   -0.0383   -2.5449    0.3344 H   0  0  0  0  0  0  0  0  0  0  0  0
    2.1792   -1.5011    0.1972 H   0  0  0  0  0  0  0  0  0  0  0  0
    2.5942    0.7974    0.0919 H   0  0  0  0  0  0  0  0  0  0  0  0
    0.9093    2.5706    0.0256 H   0  0  0  0  0  0  0  0  0  0  0  0
   -1.4395    2.2217    0.0455 H   0  0  0  0  0  0  0  0  0  0  0  0
   -2.5624    0.1062    0.2179 H   0  0  0  0  0  0  0  0  0  0  0  0
  1  2  2  0
  2  3  1  0
  3  4  1  0
  4  5  2  0
  5  6  1  0
  6  7  2  0
  7  8  1  0
  8  9  1  0
  8  2  1  0
  9  3  1  0
  3 10  1  0
  4 11  1  0
  5 12  1  0
  6 13  1  0
  7 14  1  0
  8 15  1  0
M  END
