
     RDKit          3D

 12 12  0  0  0  0  0  0  0  0999 V2000
    1.3636    2.0742   -0.1683 O   0  0  0  0  0  0  0  0  0  0  0  0
    0.7778    1.0068    0.0601 C   0  0  0  0  0  0  0  0  0  0  0  0
    1.2858   -0.3531    0.1833 C   0  0  0  0  0  0  0  0  0  0  0  0
    0.3342   -1.2234   -0.0825 C   0  0  0  0  0  0  0  0  0  0  0  0
   -0.8940   -0.4873   -0.4090 C   0  0  0  0  0  0  0  0  0  0  0  0
   -0.6817    0.8371    0.2791 C   0  0  0  0  0  0  0  0  0  0  0  0
    2.3302   -0.5625    0.4617 H   0  0  0  0  0  0  0  0  0  0  0  0
    0.4698   -2.3175   -0.0554 H   0  0  0  0  0  0  0  0  0  0  0  0
   -1.0011   -0.2734   -1.4942 H   0  0  0  0  0  0  0  0  0  0  0  0
   -1.7869   -1.0138   -0.0060 H   0  0  0  0  0  0  0  0  0  0  0  0
   -1.2844    1.6557   -0.1381 H   0  0  0  0  0  0  0  0  0  0  0  0
   -0.9133    0.6575    1.3693 H   0  0  0  0  0  0  0  0  0  0  0  0
  1  2  2  0
  2  3  1  0
  3  4  2  0
  4  5  1  0
  5  6  1  0
  6  2  1  0
  3  7  1  0
  4  8  1  0
  5  9  1  0
  5 10  1  0
  6 11  1  0
  6 12  1  0
M  END
