
     RDKit          3D

 13 15  0  0  0  0  0  0  0  0999 V2000
   -1.5921    2.0674    0.8417 O   0  0  0  0  0  0  0  0  0  0  0  0
   -0.6779    1.2441    0.5863 C   0  0  0  0  0  0  0  0  0  0  0  0
    0.6421    1.2864    1.0943 O   0  0  0  0  0  0  0  0  0  0  0  0
    1.2375    0.1543    0.4580 C   0  0  0  0  0  0  0  0  0  0  0  0
    0.6773    0.0713   -0.9120 C   0  0  0  0  0  0  0  0  0  0  0  0
    0.6672   -1.3066   -0.7788 O   0  0  0  0  0  0  0  0  0  0  0  0
    0.2085   -0.9187    0.4648 C   0  0  0  0  0  0  0  0  0  0  0  0
   -0.6635    0.0557   -0.2550 C   0  0  0  0  0  0  0  0  0  0  0  0
   -1.7434   -0.3508   -0.9147 O   0  0  0  0  0  0  0  0  0  0  0  0
    2.2602   -0.0592    0.6575 H   0  0  0  0  0  0  0  0  0  0  0  0
    0.9464    0.5971   -1.7315 H   0  0  0  0  0  0  0  0  0  0  0  0
   -0.0545   -1.5200    1.2325 H   0  0  0  0  0  0  0  0  0  0  0  0
   -1.9079   -1.3212   -0.7432 H   0  0  0  0  0  0  0  0  0  0  0  0
  1  2  2  0
  2  3  1  0
  3  4  1  0
  4  5  1  0
  5  6  1  0
  6  7  1  0
  7  8  1  0
  8  9  1  0
  8  2  1  0
  7  4  1  0
  8  5  1  0
  4 10  1  0
  5 11  1  0
  7 12  1  0
  9 13  1  0
M  END
