
     RDKit          3D

 19 20  0  0  0  0  0  0  0  0999 V2000
    1.5602   -1.5096   -1.3858 O   0  0  0  0  0  0  0  0  0  0  0  0
    1.1414   -0.8661   -0.4454 C   0  0  0  0  0  0  0  0  0  0  0  0
    1.7534    0.4313   -0.1804 C   0  0  0  0  0  0  0  0  0  0  0  0
    0.9590    1.5201   -0.3780 O   0  0  0  0  0  0  0  0  0  0  0  0
   -0.3786    1.3587   -0.1633 C   0  0  0  0  0  0  0  0  0  0  0  0
   -0.7476    0.6434    1.0883 C   0  0  0  0  0  0  0  0  0  0  0  0
   -1.1364   -0.5610    0.2765 C   0  0  0  0  0  0  0  0  0  0  0  0
    0.0429   -1.5306    0.2982 C   0  0  0  0  0  0  0  0  0  0  0  0
   -1.0417    0.3001   -0.9711 C   0  0  0  0  0  0  0  0  0  0  0  0
    2.1955    0.3876    0.8580 H   0  0  0  0  0  0  0  0  0  0  0  0
    2.6510    0.5462   -0.8471 H   0  0  0  0  0  0  0  0  0  0  0  0
   -0.8973    2.3384   -0.2218 H   0  0  0  0  0  0  0  0  0  0  0  0
    0.0520    0.5185    1.8147 H   0  0  0  0  0  0  0  0  0  0  0  0
   -1.6528    1.0541    1.5937 H   0  0  0  0  0  0  0  0  0  0  0  0
   -2.1103   -0.9992    0.4872 H   0  0  0  0  0  0  0  0  0  0  0  0
   -0.2125   -2.5135   -0.0957 H   0  0  0  0  0  0  0  0  0  0  0  0
    0.3699   -1.5706    1.3748 H   0  0  0  0  0  0  0  0  0  0  0  0
   -2.0602    0.5927   -1.2992 H   0  0  0  0  0  0  0  0  0  0  0  0
   -0.4879   -0.1405   -1.8037 H   0  0  0  0  0  0  0  0  0  0  0  0
  1  2  2  0
  2  3  1  0
  3  4  1  0
  4  5  1  0
  5  6  1  0
  6  7  1  0
  7  8  1  0
  7  9  1  0
  8  2  1  0
  9  5  1  0
  3 10  1  0
  3 11  1  0
  5 12  1  0
  6 13  1  0
  6 14  1  0
  7 15  1  0
  8 16  1  0
  8 17  1  0
  9 18  1  0
  9 19  1  0
M  END
