
     RDKit          3D

 17 18  0  0  0  0  0  0  0  0999 V2000
   -2.0415    2.1833    0.1646 O   0  0  0  0  0  0  0  0  0  0  0  0
   -1.2014    1.3035   -0.0934 C   0  0  0  0  0  0  0  0  0  0  0  0
   -1.6326   -0.1280   -0.0549 C   0  0  0  0  0  0  0  0  0  0  0  0
   -0.5721   -0.9921    0.5779 C   0  0  0  0  0  0  0  0  0  0  0  0
    0.6005   -1.2504   -0.3033 C   0  0  0  0  0  0  0  0  0  0  0  0
    1.2831   -0.1354    0.4816 C   0  0  0  0  0  0  0  0  0  0  0  0
    1.3107    1.0884   -0.3863 C   0  0  0  0  0  0  0  0  0  0  0  0
    0.0660    1.7735   -0.3928 O   0  0  0  0  0  0  0  0  0  0  0  0
    0.2465   -0.1687    1.3810 O   0  0  0  0  0  0  0  0  0  0  0  0
   -2.5126   -0.1488    0.6488 H   0  0  0  0  0  0  0  0  0  0  0  0
   -1.9959   -0.4939   -1.0144 H   0  0  0  0  0  0  0  0  0  0  0  0
   -0.9939   -1.8450    1.1308 H   0  0  0  0  0  0  0  0  0  0  0  0
    0.4991   -1.0225   -1.3736 H   0  0  0  0  0  0  0  0  0  0  0  0
    1.0599   -2.2493   -0.0733 H   0  0  0  0  0  0  0  0  0  0  0  0
    2.2710   -0.4086    0.9000 H   0  0  0  0  0  0  0  0  0  0  0  0
    1.4665    0.7225   -1.4436 H   0  0  0  0  0  0  0  0  0  0  0  0
    2.1465    1.7716   -0.1492 H   0  0  0  0  0  0  0  0  0  0  0  0
  1  2  2  0
  2  3  1  0
  3  4  1  0
  4  5  1  0
  5  6  1  0
  6  7  1  0
  7  8  1  0
  6  9  1  0
  8  2  1  0
  9  4  1  0
  3 10  1  0
  3 11  1  0
  4 12  1  0
  5 13  1  0
  5 14  1  0
  6 15  1  0
  7 16  1  0
  7 17  1  0
M  END
