
     RDKit          3D

 17 18  0  0  0  0  0  0  0  0999 V2000
   -3.2024    1.8971    0.2097 O   0  0  0  0  0  0  0  0  0  0  0  0
   -2.2821    1.0733    0.0338 C   0  0  0  0  0  0  0  0  0  0  0  0
   -2.0939   -0.1800    0.7111 C   0  0  0  0  0  0  0  0  0  0  0  0
   -1.0002   -0.7713    0.2471 C   0  0  0  0  0  0  0  0  0  0  0  0
   -0.4190    0.0944   -0.7751 C   0  0  0  0  0  0  0  0  0  0  0  0
    1.0204    0.4586   -0.5087 C   0  0  0  0  0  0  0  0  0  0  0  0
    1.9583   -0.7317   -0.4313 C   0  0  0  0  0  0  0  0  0  0  0  0
    1.6865    0.1730    0.7600 C   0  0  0  0  0  0  0  0  0  0  0  0
   -1.2464    1.2140   -0.8662 O   0  0  0  0  0  0  0  0  0  0  0  0
   -2.7692   -0.5573    1.4855 H   0  0  0  0  0  0  0  0  0  0  0  0
   -0.6699   -1.7299    0.6197 H   0  0  0  0  0  0  0  0  0  0  0  0
   -0.4332   -0.4761   -1.7494 H   0  0  0  0  0  0  0  0  0  0  0  0
    1.3796    1.3516   -1.0808 H   0  0  0  0  0  0  0  0  0  0  0  0
    2.8922   -0.6201   -0.9945 H   0  0  0  0  0  0  0  0  0  0  0  0
    1.5204   -1.7442   -0.3346 H   0  0  0  0  0  0  0  0  0  0  0  0
    1.1116   -0.2330    1.6148 H   0  0  0  0  0  0  0  0  0  0  0  0
    2.5475    0.7817    1.0589 H   0  0  0  0  0  0  0  0  0  0  0  0
  1  2  2  0
  2  3  1  0
  3  4  2  0
  4  5  1  0
  5  6  1  0
  6  7  1  0
  7  8  1  0
  5  9  1  0
  9  2  1  0
  8  6  1  0
  3 10  1  0
  4 11  1  0
  5 12  1  0
  6 13  1  0
  7 14  1  0
  7 15  1  0
  8 16  1  0
  8 17  1  0
M  END
