
     RDKit          3D

 17 18  0  0  0  0  0  0  0  0999 V2000
    1.7840    2.3507   -0.3147 O   0  0  0  0  0  0  0  0  0  0  0  0
    1.1292    1.3318    0.0171 C   0  0  0  0  0  0  0  0  0  0  0  0
    1.7795    0.0136   -0.1027 C   0  0  0  0  0  0  0  0  0  0  0  0
    0.7490   -1.1308   -0.1409 C   0  0  0  0  0  0  0  0  0  0  0  0
   -0.5258   -0.4915   -0.4898 C   0  0  0  0  0  0  0  0  0  0  0  0
   -1.7969   -0.4356    0.1169 C   0  0  0  0  0  0  0  0  0  0  0  0
   -2.8466    0.2188   -0.5642 O   0  0  0  0  0  0  0  0  0  0  0  0
   -0.8448    0.3516    0.7880 C   0  0  0  0  0  0  0  0  0  0  0  0
   -0.1752    1.5356    0.4769 O   0  0  0  0  0  0  0  0  0  0  0  0
    2.5210   -0.1685    0.7177 H   0  0  0  0  0  0  0  0  0  0  0  0
    2.2664   -0.0102   -1.1004 H   0  0  0  0  0  0  0  0  0  0  0  0
    1.0762   -1.9046   -0.8478 H   0  0  0  0  0  0  0  0  0  0  0  0
    0.7510   -1.5538    0.9015 H   0  0  0  0  0  0  0  0  0  0  0  0
   -0.4167    0.0764   -1.4639 H   0  0  0  0  0  0  0  0  0  0  0  0
   -2.1987   -1.3435    0.6301 H   0  0  0  0  0  0  0  0  0  0  0  0
   -2.8109    1.2076   -0.3908 H   0  0  0  0  0  0  0  0  0  0  0  0
   -0.4407   -0.0477    1.7672 H   0  0  0  0  0  0  0  0  0  0  0  0
  1  2  2  0
  2  3  1  0
  3  4  1  0
  4  5  1  0
  5  6  1  0
  6  7  1  0
  6  8  1  0
  8  9  1  0
  9  2  1  0
  8  5  1  0
  3 10  1  0
  3 11  1  0
  4 12  1  0
  4 13  1  0
  5 14  1  0
  6 15  1  0
  7 16  1  0
  8 17  1  0
M  END
