
     RDKit          3D

 16 17  0  0  0  0  0  0  0  0999 V2000
    1.3664   -2.3278   -0.3566 O   0  0  0  0  0  0  0  0  0  0  0  0
    0.7960   -1.2963   -0.2743 C   0  0  0  0  0  0  0  0  0  0  0  0
    1.3400    0.0825   -0.2483 C   0  0  0  0  0  0  0  0  0  0  0  0
    0.0499    0.8028    0.0998 C   0  0  0  0  0  0  0  0  0  0  0  0
    0.0304    2.1064    0.3054 O   0  0  0  0  0  0  0  0  0  0  0  0
   -0.6723   -0.1388    1.0560 C   0  0  0  0  0  0  0  0  0  0  0  0
   -0.6516   -1.0727   -0.1714 C   0  0  0  0  0  0  0  0  0  0  0  0
   -0.8746    0.1955   -0.9659 C   0  0  0  0  0  0  0  0  0  0  0  0
    1.6076    0.4465   -1.2823 H   0  0  0  0  0  0  0  0  0  0  0  0
    2.1352    0.2408    0.4739 H   0  0  0  0  0  0  0  0  0  0  0  0
    0.2421    2.3254    1.2547 H   0  0  0  0  0  0  0  0  0  0  0  0
   -0.0483   -0.5602    1.8559 H   0  0  0  0  0  0  0  0  0  0  0  0
   -1.6704    0.2159    1.3088 H   0  0  0  0  0  0  0  0  0  0  0  0
   -1.3484   -1.8543   -0.2075 H   0  0  0  0  0  0  0  0  0  0  0  0
   -1.8852    0.5923   -0.8972 H   0  0  0  0  0  0  0  0  0  0  0  0
   -0.4168    0.2419   -1.9512 H   0  0  0  0  0  0  0  0  0  0  0  0
  1  2  2  0
  2  3  1  0
  3  4  1  0
  4  5  1  0
  4  6  1  0
  6  7  1  0
  7  8  1  0
  7  2  1  0
  8  4  1  0
  3  9  1  0
  3 10  1  0
  5 11  1  0
  6 12  1  0
  6 13  1  0
  7 14  1  0
  8 15  1  0
  8 16  1  0
M  END
