
     RDKit          3D

 15 17  0  0  0  0  0  0  0  0999 V2000
   -2.3627    1.6916    0.0568 O   0  0  0  0  0  0  0  0  0  0  0  0
   -1.4543    0.9063   -0.1239 C   0  0  0  0  0  0  0  0  0  0  0  0
    0.0282    1.1405   -0.2096 C   0  0  0  0  0  0  0  0  0  0  0  0
    0.6058   -0.2679    0.0382 C   0  0  0  0  0  0  0  0  0  0  0  0
    1.9515   -0.5001    0.1090 C   0  0  0  0  0  0  0  0  0  0  0  0
    1.0802   -0.9901   -1.0204 O   0  0  0  0  0  0  0  0  0  0  0  0
   -0.5217   -0.8575    0.7979 C   0  0  0  0  0  0  0  0  0  0  0  0
   -1.5684   -1.5653    0.4775 O   0  0  0  0  0  0  0  0  0  0  0  0
   -1.5753   -0.5336   -0.3130 C   0  0  0  0  0  0  0  0  0  0  0  0
    0.3106    1.7863    0.6541 H   0  0  0  0  0  0  0  0  0  0  0  0
    0.3284    1.5331   -1.1793 H   0  0  0  0  0  0  0  0  0  0  0  0
    2.3875   -1.3778    0.6659 H   0  0  0  0  0  0  0  0  0  0  0  0
    2.7112    0.1350   -0.3581 H   0  0  0  0  0  0  0  0  0  0  0  0
   -0.6665   -0.2963    1.7738 H   0  0  0  0  0  0  0  0  0  0  0  0
   -1.2543   -0.8043   -1.3687 H   0  0  0  0  0  0  0  0  0  0  0  0
  1  2  2  0
  2  3  1  0
  3  4  1  0
  4  5  1  0
  5  6  1  0
  4  7  1  0
  7  8  1  0
  8  9  1  0
  9  2  1  0
  6  4  1  0
  9  7  1  0
  3 10  1  0
  3 11  1  0
  5 12  1  0
  5 13  1  0
  7 14  1  0
  9 15  1  0
M  END
