
     RDKit          3D

 14 15  0  0  0  0  0  0  0  0999 V2000
   -2.0730   -1.9017    0.3696 O   0  0  0  0  0  0  0  0  0  0  0  0
   -1.3244   -1.0739   -0.1660 C   0  0  0  0  0  0  0  0  0  0  0  0
   -1.1870    0.3750    0.2065 C   0  0  0  0  0  0  0  0  0  0  0  0
    0.2879    0.5796    0.0939 C   0  0  0  0  0  0  0  0  0  0  0  0
    0.6972    1.9011    0.0882 O   0  0  0  0  0  0  0  0  0  0  0  0
    1.2709   -0.4718    0.3784 C   0  0  0  0  0  0  0  0  0  0  0  0
    0.6974   -0.3705   -0.9724 C   0  0  0  0  0  0  0  0  0  0  0  0
   -0.4203   -1.2265   -1.2313 O   0  0  0  0  0  0  0  0  0  0  0  0
   -1.6603    0.9457   -0.6446 H   0  0  0  0  0  0  0  0  0  0  0  0
   -1.6220    0.6064    1.1757 H   0  0  0  0  0  0  0  0  0  0  0  0
    0.6936    2.2023    1.0388 H   0  0  0  0  0  0  0  0  0  0  0  0
    2.3195   -0.1049    0.5660 H   0  0  0  0  0  0  0  0  0  0  0  0
    1.0522   -1.3855    0.9484 H   0  0  0  0  0  0  0  0  0  0  0  0
    1.2685   -0.0752   -1.8511 H   0  0  0  0  0  0  0  0  0  0  0  0
  1  2  2  0
  2  3  1  0
  3  4  1  0
  4  5  1  0
  4  6  1  0
  6  7  1  0
  7  8  1  0
  8  2  1  0
  7  4  1  0
  3  9  1  0
  3 10  1  0
  5 11  1  0
  6 12  1  0
  6 13  1  0
  7 14  1  0
M  END
