
     RDKit          3D

 14 15  0  0  0  0  0  0  0  0999 V2000
   -0.6272    2.1726   -1.4203 O   0  0  0  0  0  0  0  0  0  0  0  0
   -0.8319    1.3178   -0.5153 C   0  0  0  0  0  0  0  0  0  0  0  0
   -1.6230    1.1811    0.6272 O   0  0  0  0  0  0  0  0  0  0  0  0
   -1.0791   -0.0868    0.9229 C   0  0  0  0  0  0  0  0  0  0  0  0
   -1.1508   -1.1587   -0.1063 C   0  0  0  0  0  0  0  0  0  0  0  0
   -0.2569   -0.0165   -0.2795 C   0  0  0  0  0  0  0  0  0  0  0  0
    1.2440   -0.1786   -0.2580 C   0  0  0  0  0  0  0  0  0  0  0  0
    1.8239    0.5999    0.7420 O   0  0  0  0  0  0  0  0  0  0  0  0
   -0.6987   -0.2791    1.9311 H   0  0  0  0  0  0  0  0  0  0  0  0
   -2.0206   -1.2486   -0.7845 H   0  0  0  0  0  0  0  0  0  0  0  0
   -0.6995   -2.1285    0.1778 H   0  0  0  0  0  0  0  0  0  0  0  0
    1.6068    0.2132   -1.2539 H   0  0  0  0  0  0  0  0  0  0  0  0
    1.5648   -1.2206   -0.2031 H   0  0  0  0  0  0  0  0  0  0  0  0
    2.7482    0.8328    0.4199 H   0  0  0  0  0  0  0  0  0  0  0  0
  1  2  2  0
  2  3  1  0
  3  4  1  0
  4  5  1  0
  5  6  1  0
  6  7  1  0
  7  8  1  0
  6  2  1  0
  6  4  1  0
  4  9  1  0
  5 10  1  0
  5 11  1  0
  7 12  1  0
  7 13  1  0
  8 14  1  0
M  END
