
     RDKit          3D

 14 14  0  0  0  0  0  0  0  0999 V2000
   -0.6195    2.4852   -0.4038 O   0  0  0  0  0  0  0  0  0  0  0  0
   -0.8406    1.2547   -0.4354 C   0  0  0  0  0  0  0  0  0  0  0  0
   -1.9753    0.4929   -0.6553 O   0  0  0  0  0  0  0  0  0  0  0  0
   -1.4267   -0.4445    0.2860 C   0  0  0  0  0  0  0  0  0  0  0  0
   -0.0932   -0.0124   -0.2720 C   0  0  0  0  0  0  0  0  0  0  0  0
    0.2023   -0.7047   -1.4196 O   0  0  0  0  0  0  0  0  0  0  0  0
    1.0470    0.0174    0.6995 C   0  0  0  0  0  0  0  0  0  0  0  0
    2.1284    0.6405    0.0607 O   0  0  0  0  0  0  0  0  0  0  0  0
   -1.6618   -0.0901    1.2962 H   0  0  0  0  0  0  0  0  0  0  0  0
   -1.6758   -1.4845    0.0465 H   0  0  0  0  0  0  0  0  0  0  0  0
    0.2814   -1.6799   -1.2100 H   0  0  0  0  0  0  0  0  0  0  0  0
    1.3376   -1.0087    0.9653 H   0  0  0  0  0  0  0  0  0  0  0  0
    0.8117    0.5916    1.6147 H   0  0  0  0  0  0  0  0  0  0  0  0
    2.4845   -0.0576   -0.5730 H   0  0  0  0  0  0  0  0  0  0  0  0
  1  2  2  0
  2  3  1  0
  3  4  1  0
  4  5  1  0
  5  6  1  0
  5  7  1  0
  7  8  1  0
  5  2  1  0
  4  9  1  0
  4 10  1  0
  6 11  1  0
  7 12  1  0
  7 13  1  0
  8 14  1  0
M  END
