
     RDKit          3D

 17 18  0  0  0  0  0  0  0  0999 V2000
   -2.6975    2.0423   -0.2952 O   0  0  0  0  0  0  0  0  0  0  0  0
   -1.9817    1.0005   -0.2242 C   0  0  0  0  0  0  0  0  0  0  0  0
   -2.2897   -0.1078    0.5707 O   0  0  0  0  0  0  0  0  0  0  0  0
   -1.4661   -1.1829    0.2006 C   0  0  0  0  0  0  0  0  0  0  0  0
   -0.3457   -0.5442   -0.6107 C   0  0  0  0  0  0  0  0  0  0  0  0
    0.8583   -0.4110    0.2651 C   0  0  0  0  0  0  0  0  0  0  0  0
    2.0757    0.2072   -0.3767 C   0  0  0  0  0  0  0  0  0  0  0  0
    1.3139    0.9460    0.6819 C   0  0  0  0  0  0  0  0  0  0  0  0
   -0.8085    0.7811   -0.8969 O   0  0  0  0  0  0  0  0  0  0  0  0
   -1.0455   -1.6450    1.1210 H   0  0  0  0  0  0  0  0  0  0  0  0
   -2.0032   -1.9508   -0.4140 H   0  0  0  0  0  0  0  0  0  0  0  0
   -0.1763   -1.1054   -1.5363 H   0  0  0  0  0  0  0  0  0  0  0  0
    0.9708   -1.1959    1.0270 H   0  0  0  0  0  0  0  0  0  0  0  0
    3.0181   -0.3232   -0.1217 H   0  0  0  0  0  0  0  0  0  0  0  0
    2.0240    0.5686   -1.4079 H   0  0  0  0  0  0  0  0  0  0  0  0
    1.8471    1.1060    1.6405 H   0  0  0  0  0  0  0  0  0  0  0  0
    0.7066    1.8144    0.3770 H   0  0  0  0  0  0  0  0  0  0  0  0
  1  2  2  0
  2  3  1  0
  3  4  1  0
  4  5  1  0
  5  6  1  0
  6  7  1  0
  7  8  1  0
  5  9  1  0
  9  2  1  0
  8  6  1  0
  4 10  1  0
  4 11  1  0
  5 12  1  0
  6 13  1  0
  7 14  1  0
  7 15  1  0
  8 16  1  0
  8 17  1  0
M  END
