
     RDKit          3D

 17 19  0  0  0  0  0  0  0  0999 V2000
    0.6163    0.5294   -2.1656 O   0  0  0  0  0  0  0  0  0  0  0  0
    0.5107    0.5902   -0.9678 C   0  0  0  0  0  0  0  0  0  0  0  0
    1.4624    0.1909    0.0473 C   0  0  0  0  0  0  0  0  0  0  0  0
    1.8337   -0.9966    0.6943 C   0  0  0  0  0  0  0  0  0  0  0  0
    0.4267   -0.8567    0.6373 C   0  0  0  0  0  0  0  0  0  0  0  0
   -0.5300    0.1676    1.0543 C   0  0  0  0  0  0  0  0  0  0  0  0
   -1.8161    0.3680    0.1929 C   0  0  0  0  0  0  0  0  0  0  0  0
   -2.2086   -0.8414   -0.3776 O   0  0  0  0  0  0  0  0  0  0  0  0
   -0.6490    1.1020   -0.2087 C   0  0  0  0  0  0  0  0  0  0  0  0
    1.6342    1.1075    0.7056 H   0  0  0  0  0  0  0  0  0  0  0  0
    2.3778   -1.7741    0.0920 H   0  0  0  0  0  0  0  0  0  0  0  0
    2.2851   -0.9986    1.7267 H   0  0  0  0  0  0  0  0  0  0  0  0
   -0.0347   -1.5537   -0.1328 H   0  0  0  0  0  0  0  0  0  0  0  0
   -0.4824    0.7157    1.9948 H   0  0  0  0  0  0  0  0  0  0  0  0
   -2.6334    0.9138    0.6625 H   0  0  0  0  0  0  0  0  0  0  0  0
   -2.1895   -0.8528   -1.3470 H   0  0  0  0  0  0  0  0  0  0  0  0
   -0.6032    2.1889    0.0003 H   0  0  0  0  0  0  0  0  0  0  0  0
  1  2  2  0
  2  3  1  0
  3  4  1  0
  4  5  1  0
  5  6  1  0
  6  7  1  0
  7  8  1  0
  7  9  1  0
  9  2  1  0
  5  3  1  0
  9  6  1  0
  3 10  1  0
  4 11  1  0
  4 12  1  0
  5 13  1  0
  6 14  1  0
  7 15  1  0
  8 16  1  0
  9 17  1  0
M  END
