
     RDKit          3D

 17 17  0  0  0  0  0  0  0  0999 V2000
    0.0391    2.1688   -1.1448 O   0  0  0  0  0  0  0  0  0  0  0  0
    0.4755    1.2809   -0.3645 C   0  0  0  0  0  0  0  0  0  0  0  0
    1.8490    1.1667   -0.0731 O   0  0  0  0  0  0  0  0  0  0  0  0
    2.3981   -0.1397    0.1279 C   0  0  0  0  0  0  0  0  0  0  0  0
    1.4715   -1.0434   -0.3806 O   0  0  0  0  0  0  0  0  0  0  0  0
    0.2812   -1.0503    0.3405 C   0  0  0  0  0  0  0  0  0  0  0  0
   -0.4073    0.2920    0.3060 C   0  0  0  0  0  0  0  0  0  0  0  0
   -1.7339    0.2174   -0.4638 C   0  0  0  0  0  0  0  0  0  0  0  0
   -2.5851   -0.6978    0.1346 O   0  0  0  0  0  0  0  0  0  0  0  0
    3.2841   -0.1896   -0.5440 H   0  0  0  0  0  0  0  0  0  0  0  0
    2.6692   -0.3315    1.1648 H   0  0  0  0  0  0  0  0  0  0  0  0
    0.5505   -1.3225    1.3883 H   0  0  0  0  0  0  0  0  0  0  0  0
   -0.3408   -1.8676   -0.0428 H   0  0  0  0  0  0  0  0  0  0  0  0
   -0.6860    0.5952    1.3350 H   0  0  0  0  0  0  0  0  0  0  0  0
   -1.5683    0.0061   -1.5181 H   0  0  0  0  0  0  0  0  0  0  0  0
   -2.1820    1.2352   -0.3765 H   0  0  0  0  0  0  0  0  0  0  0  0
   -3.5147   -0.3199    0.0767 H   0  0  0  0  0  0  0  0  0  0  0  0
  1  2  2  0
  2  3  1  0
  3  4  1  0
  4  5  1  0
  5  6  1  0
  6  7  1  0
  7  8  1  0
  8  9  1  0
  7  2  1  0
  4 10  1  0
  4 11  1  0
  6 12  1  0
  6 13  1  0
  7 14  1  0
  8 15  1  0
  8 16  1  0
  9 17  1  0
M  END
