
     RDKit          3D

 17 18  0  0  0  0  0  0  0  0999 V2000
    1.0413    1.9623   -0.7855 O   0  0  0  0  0  0  0  0  0  0  0  0
    1.3239    0.9024   -0.2710 C   0  0  0  0  0  0  0  0  0  0  0  0
    2.5441    0.0841   -0.0427 C   0  0  0  0  0  0  0  0  0  0  0  0
    1.6969   -1.0492   -0.0735 O   0  0  0  0  0  0  0  0  0  0  0  0
    0.7013   -0.2200    0.4293 C   0  0  0  0  0  0  0  0  0  0  0  0
   -0.6977   -0.5748    0.0932 C   0  0  0  0  0  0  0  0  0  0  0  0
   -1.0940   -1.8510    0.5455 O   0  0  0  0  0  0  0  0  0  0  0  0
   -1.4706    0.0157   -0.9951 C   0  0  0  0  0  0  0  0  0  0  0  0
   -1.7101    0.5270    0.4140 C   0  0  0  0  0  0  0  0  0  0  0  0
    2.9166    0.1777    1.0164 H   0  0  0  0  0  0  0  0  0  0  0  0
    3.3065    0.1097   -0.8198 H   0  0  0  0  0  0  0  0  0  0  0  0
    0.8217   -0.0997    1.5334 H   0  0  0  0  0  0  0  0  0  0  0  0
   -2.0992   -1.8817    0.6178 H   0  0  0  0  0  0  0  0  0  0  0  0
   -1.0474    0.7214   -1.7425 H   0  0  0  0  0  0  0  0  0  0  0  0
   -2.2773   -0.6202   -1.4473 H   0  0  0  0  0  0  0  0  0  0  0  0
   -1.3088    1.5586    0.5886 H   0  0  0  0  0  0  0  0  0  0  0  0
   -2.6471    0.2378    0.9392 H   0  0  0  0  0  0  0  0  0  0  0  0
  1  2  2  0
  2  3  1  0
  3  4  1  0
  4  5  1  0
  5  6  1  0
  6  7  1  0
  6  8  1  0
  8  9  1  0
  5  2  1  0
  9  6  1  0
  3 10  1  0
  3 11  1  0
  5 12  1  0
  7 13  1  0
  8 14  1  0
  8 15  1  0
  9 16  1  0
  9 17  1  0
M  END
