
     RDKit          3D

 17 18  0  0  0  0  0  0  0  0999 V2000
    1.3867    1.9087    0.4111 O   0  0  0  0  0  0  0  0  0  0  0  0
    0.5927    0.9839    0.3616 C   0  0  0  0  0  0  0  0  0  0  0  0
   -0.8727    1.3317    0.4156 C   0  0  0  0  0  0  0  0  0  0  0  0
   -1.5753    0.0344    0.3665 C   0  0  0  0  0  0  0  0  0  0  0  0
   -2.2514   -0.5717   -0.5846 O   0  0  0  0  0  0  0  0  0  0  0  0
   -0.9710   -0.6107   -0.8997 C   0  0  0  0  0  0  0  0  0  0  0  0
    0.1617   -1.3738   -0.3499 C   0  0  0  0  0  0  0  0  0  0  0  0
    1.1208   -0.3808    0.2544 C   0  0  0  0  0  0  0  0  0  0  0  0
    2.2828   -0.3960   -0.5169 O   0  0  0  0  0  0  0  0  0  0  0  0
   -1.1366    1.9189   -0.5099 H   0  0  0  0  0  0  0  0  0  0  0  0
   -1.1146    1.9808    1.2641 H   0  0  0  0  0  0  0  0  0  0  0  0
   -1.5064   -0.5316    1.3272 H   0  0  0  0  0  0  0  0  0  0  0  0
   -0.6790    0.0659   -1.7417 H   0  0  0  0  0  0  0  0  0  0  0  0
   -0.2448   -2.0722    0.4400 H   0  0  0  0  0  0  0  0  0  0  0  0
    0.6636   -1.9806   -1.1296 H   0  0  0  0  0  0  0  0  0  0  0  0
    1.4253   -0.8003    1.2567 H   0  0  0  0  0  0  0  0  0  0  0  0
    2.7182    0.4933   -0.3650 H   0  0  0  0  0  0  0  0  0  0  0  0
  1  2  2  0
  2  3  1  0
  3  4  1  0
  4  5  1  0
  5  6  1  0
  6  7  1  0
  7  8  1  0
  8  9  1  0
  8  2  1  0
  6  4  1  0
  3 10  1  0
  3 11  1  0
  4 12  1  0
  6 13  1  0
  7 14  1  0
  7 15  1  0
  8 16  1  0
  9 17  1  0
M  END
