
     RDKit          3D

 13 14  0  0  0  0  0  0  0  0999 V2000
   -0.2260    1.5803    1.8463 O   0  0  0  0  0  0  0  0  0  0  0  0
   -0.1980    0.8231    0.9314 C   0  0  0  0  0  0  0  0  0  0  0  0
    0.3413   -0.5122    0.6092 C   0  0  0  0  0  0  0  0  0  0  0  0
    1.2784   -0.1483   -0.5148 C   0  0  0  0  0  0  0  0  0  0  0  0
    0.4583    0.7843   -1.2010 O   0  0  0  0  0  0  0  0  0  0  0  0
   -0.7022    0.7772   -0.4574 C   0  0  0  0  0  0  0  0  0  0  0  0
   -0.9708   -0.7051   -0.1364 C   0  0  0  0  0  0  0  0  0  0  0  0
    0.6232   -1.1903    1.3572 H   0  0  0  0  0  0  0  0  0  0  0  0
    1.4959   -0.9712   -1.1927 H   0  0  0  0  0  0  0  0  0  0  0  0
    2.1766    0.3480   -0.0927 H   0  0  0  0  0  0  0  0  0  0  0  0
   -1.5363    1.3675   -0.7409 H   0  0  0  0  0  0  0  0  0  0  0  0
   -1.7921   -0.7824    0.5822 H   0  0  0  0  0  0  0  0  0  0  0  0
   -0.9482   -1.3709   -0.9906 H   0  0  0  0  0  0  0  0  0  0  0  0
  1  2  2  0
  2  3  1  0
  3  4  1  0
  4  5  1  0
  5  6  1  0
  6  7  1  0
  6  2  1  0
  7  3  1  0
  3  8  1  0
  4  9  1  0
  4 10  1  0
  6 11  1  0
  7 12  1  0
  7 13  1  0
M  END
