
     RDKit          3D

 17 17  0  0  0  0  0  0  0  0999 V2000
    3.2780    0.1640   -0.2119 O   0  0  0  0  0  0  0  0  0  0  0  0
    2.0858   -0.0853    0.0691 C   0  0  0  0  0  0  0  0  0  0  0  0
    1.5449   -1.1883    0.7467 O   0  0  0  0  0  0  0  0  0  0  0  0
    0.2861   -1.5282    0.1795 C   0  0  0  0  0  0  0  0  0  0  0  0
   -0.1562   -0.2695   -0.5088 C   0  0  0  0  0  0  0  0  0  0  0  0
   -1.5423    0.1364   -0.0933 C   0  0  0  0  0  0  0  0  0  0  0  0
   -1.9852    1.2872   -0.7026 O   0  0  0  0  0  0  0  0  0  0  0  0
    0.8869    0.7555   -0.2548 C   0  0  0  0  0  0  0  0  0  0  0  0
    0.6230    1.5771    0.8432 O   0  0  0  0  0  0  0  0  0  0  0  0
   -0.4099   -1.8776    0.9569 H   0  0  0  0  0  0  0  0  0  0  0  0
    0.4629   -2.3689   -0.5113 H   0  0  0  0  0  0  0  0  0  0  0  0
   -0.1863   -0.4791   -1.6098 H   0  0  0  0  0  0  0  0  0  0  0  0
   -2.2507   -0.6751   -0.3593 H   0  0  0  0  0  0  0  0  0  0  0  0
   -1.5298    0.2595    1.0199 H   0  0  0  0  0  0  0  0  0  0  0  0
   -2.4101    1.8640   -0.0067 H   0  0  0  0  0  0  0  0  0  0  0  0
    1.0511    1.3655   -1.1589 H   0  0  0  0  0  0  0  0  0  0  0  0
    0.2518    1.0626    1.6020 H   0  0  0  0  0  0  0  0  0  0  0  0
  1  2  2  0
  2  3  1  0
  3  4  1  0
  4  5  1  0
  5  6  1  0
  6  7  1  0
  5  8  1  0
  8  9  1  0
  8  2  1  0
  4 10  1  0
  4 11  1  0
  5 12  1  0
  6 13  1  0
  6 14  1  0
  7 15  1  0
  8 16  1  0
  9 17  1  0
M  END
