
     RDKit          3D

 14 15  0  0  0  0  0  0  0  0999 V2000
    2.8826    0.1140    0.7733 O   0  0  0  0  0  0  0  0  0  0  0  0
    1.7647   -0.3071    0.4049 C   0  0  0  0  0  0  0  0  0  0  0  0
    0.9305   -1.2993    0.8943 O   0  0  0  0  0  0  0  0  0  0  0  0
   -0.0826   -1.0933   -0.0686 C   0  0  0  0  0  0  0  0  0  0  0  0
   -1.2940   -0.3643    0.3793 C   0  0  0  0  0  0  0  0  0  0  0  0
   -1.0481    1.0861    0.1381 C   0  0  0  0  0  0  0  0  0  0  0  0
    0.1209    1.2654   -0.4436 C   0  0  0  0  0  0  0  0  0  0  0  0
    0.7870   -0.0179   -0.6585 C   0  0  0  0  0  0  0  0  0  0  0  0
   -0.2153   -1.9993   -0.6743 H   0  0  0  0  0  0  0  0  0  0  0  0
   -1.5207   -0.5267    1.4442 H   0  0  0  0  0  0  0  0  0  0  0  0
   -2.1923   -0.6818   -0.1949 H   0  0  0  0  0  0  0  0  0  0  0  0
   -1.7445    1.8642    0.4102 H   0  0  0  0  0  0  0  0  0  0  0  0
    0.5210    2.2324   -0.7188 H   0  0  0  0  0  0  0  0  0  0  0  0
    1.0908   -0.2723   -1.6856 H   0  0  0  0  0  0  0  0  0  0  0  0
  1  2  2  0
  2  3  1  0
  3  4  1  0
  4  5  1  0
  5  6  1  0
  6  7  2  0
  7  8  1  0
  8  2  1  0
  8  4  1  0
  4  9  1  0
  5 10  1  0
  5 11  1  0
  6 12  1  0
  7 13  1  0
  8 14  1  0
M  END
