
     RDKit          3D

 13 14  0  0  0  0  0  0  0  0999 V2000
    0.5897    2.5008    0.3477 O   0  0  0  0  0  0  0  0  0  0  0  0
    0.1782    1.3149    0.2654 C   0  0  0  0  0  0  0  0  0  0  0  0
   -1.0877    0.7338    0.6857 C   0  0  0  0  0  0  0  0  0  0  0  0
   -1.8818    1.3334    1.4547 O   0  0  0  0  0  0  0  0  0  0  0  0
   -1.2920   -0.5950    0.1063 C   0  0  0  0  0  0  0  0  0  0  0  0
   -0.4535   -1.6480    0.3854 O   0  0  0  0  0  0  0  0  0  0  0  0
   -0.0417   -0.8630   -0.6796 C   0  0  0  0  0  0  0  0  0  0  0  0
    0.9631    0.1926   -0.3209 C   0  0  0  0  0  0  0  0  0  0  0  0
    1.9042   -0.2840    0.6053 O   0  0  0  0  0  0  0  0  0  0  0  0
   -2.2759   -0.8018   -0.3942 H   0  0  0  0  0  0  0  0  0  0  0  0
   -0.2019   -1.1761   -1.7144 H   0  0  0  0  0  0  0  0  0  0  0  0
    1.5541    0.5489   -1.1936 H   0  0  0  0  0  0  0  0  0  0  0  0
    2.0453   -1.2564    0.4523 H   0  0  0  0  0  0  0  0  0  0  0  0
  1  2  2  0
  2  3  1  0
  3  4  2  0
  3  5  1  0
  5  6  1  0
  6  7  1  0
  7  8  1  0
  8  9  1  0
  8  2  1  0
  7  5  1  0
  5 10  1  0
  7 11  1  0
  8 12  1  0
  9 13  1  0
M  END
