
     RDKit          3D

 17 18  0  0  0  0  0  0  0  0999 V2000
   -0.3951    2.0565   -1.5915 O   0  0  0  0  0  0  0  0  0  0  0  0
   -0.1450    1.0439   -0.9910 C   0  0  0  0  0  0  0  0  0  0  0  0
    1.1267    0.5253   -0.4118 C   0  0  0  0  0  0  0  0  0  0  0  0
    1.7092    1.5143    0.3901 O   0  0  0  0  0  0  0  0  0  0  0  0
    0.6382   -0.6487    0.4769 C   0  0  0  0  0  0  0  0  0  0  0  0
    0.5525   -1.7694   -0.3180 O   0  0  0  0  0  0  0  0  0  0  0  0
   -0.6879   -0.0749    0.8416 C   0  0  0  0  0  0  0  0  0  0  0  0
   -2.0035   -0.2239    0.3859 C   0  0  0  0  0  0  0  0  0  0  0  0
   -1.1277    0.0243   -0.6795 C   0  0  0  0  0  0  0  0  0  0  0  0
    1.8283    0.1570   -1.1748 H   0  0  0  0  0  0  0  0  0  0  0  0
    2.6186    1.2589    0.6541 H   0  0  0  0  0  0  0  0  0  0  0  0
    1.3064   -0.7838    1.3400 H   0  0  0  0  0  0  0  0  0  0  0  0
    1.2241   -2.4655   -0.0686 H   0  0  0  0  0  0  0  0  0  0  0  0
   -0.4742    0.9235    1.3428 H   0  0  0  0  0  0  0  0  0  0  0  0
   -2.5033   -1.2127    0.4942 H   0  0  0  0  0  0  0  0  0  0  0  0
   -2.7741    0.5719    0.6159 H   0  0  0  0  0  0  0  0  0  0  0  0
   -0.8933   -0.8969   -1.3062 H   0  0  0  0  0  0  0  0  0  0  0  0
  1  2  2  0
  2  3  1  0
  3  4  1  0
  3  5  1  0
  5  6  1  0
  5  7  1  0
  7  8  1  0
  8  9  1  0
  9  2  1  0
  9  7  1  0
  3 10  1  0
  4 11  1  0
  5 12  1  0
  6 13  1  0
  7 14  1  0
  8 15  1  0
  8 16  1  0
  9 17  1  0
M  END
