
     RDKit          3D

 19 19  0  0  0  0  0  0  0  0999 V2000
    0.7363    1.8065   -1.3997 O   0  0  0  0  0  0  0  0  0  0  0  0
    0.1169    1.1616   -0.5103 C   0  0  0  0  0  0  0  0  0  0  0  0
   -1.2777    1.4943   -0.2658 C   0  0  0  0  0  0  0  0  0  0  0  0
   -2.1171    0.5197    0.0313 C   0  0  0  0  0  0  0  0  0  0  0  0
   -1.5896   -0.8540    0.0977 C   0  0  0  0  0  0  0  0  0  0  0  0
   -0.2732   -0.8825    0.8425 C   0  0  0  0  0  0  0  0  0  0  0  0
    0.7231    0.0819    0.3050 C   0  0  0  0  0  0  0  0  0  0  0  0
    1.8367   -0.5937   -0.4605 C   0  0  0  0  0  0  0  0  0  0  0  0
    2.8474    0.3017   -0.8004 O   0  0  0  0  0  0  0  0  0  0  0  0
   -1.6602    2.5066   -0.3181 H   0  0  0  0  0  0  0  0  0  0  0  0
   -3.1773    0.7561    0.2195 H   0  0  0  0  0  0  0  0  0  0  0  0
   -1.3846   -1.2097   -0.9471 H   0  0  0  0  0  0  0  0  0  0  0  0
   -2.2917   -1.5662    0.5320 H   0  0  0  0  0  0  0  0  0  0  0  0
   -0.5265   -0.6738    1.9189 H   0  0  0  0  0  0  0  0  0  0  0  0
    0.0924   -1.9244    0.8052 H   0  0  0  0  0  0  0  0  0  0  0  0
    1.2148    0.5837    1.1881 H   0  0  0  0  0  0  0  0  0  0  0  0
    2.2836   -1.3622    0.1924 H   0  0  0  0  0  0  0  0  0  0  0  0
    1.4656   -1.0390   -1.4033 H   0  0  0  0  0  0  0  0  0  0  0  0
    2.9811    0.8935   -0.0275 H   0  0  0  0  0  0  0  0  0  0  0  0
  1  2  2  0
  2  3  1  0
  3  4  2  0
  4  5  1  0
  5  6  1  0
  6  7  1  0
  7  8  1  0
  8  9  1  0
  7  2  1  0
  3 10  1  0
  4 11  1  0
  5 12  1  0
  5 13  1  0
  6 14  1  0
  6 15  1  0
  7 16  1  0
  8 17  1  0
  8 18  1  0
  9 19  1  0
M  END
