
     RDKit          3D

 17 18  0  0  0  0  0  0  0  0999 V2000
    0.0327   -0.9935    2.3935 O   0  0  0  0  0  0  0  0  0  0  0  0
    0.0386   -0.5678    1.2578 C   0  0  0  0  0  0  0  0  0  0  0  0
    1.2265   -0.0952    0.5309 C   0  0  0  0  0  0  0  0  0  0  0  0
    1.3501    1.2790    0.6459 O   0  0  0  0  0  0  0  0  0  0  0  0
    0.9477   -0.5396   -0.8832 C   0  0  0  0  0  0  0  0  0  0  0  0
   -0.5370   -0.4474   -1.0128 C   0  0  0  0  0  0  0  0  0  0  0  0
   -0.9362    0.8456   -1.2635 O   0  0  0  0  0  0  0  0  0  0  0  0
   -1.5176    0.9711   -0.0006 C   0  0  0  0  0  0  0  0  0  0  0  0
   -1.1197   -0.4358    0.3820 C   0  0  0  0  0  0  0  0  0  0  0  0
    2.1673   -0.5483    0.8444 H   0  0  0  0  0  0  0  0  0  0  0  0
    2.2125    1.5437    0.2353 H   0  0  0  0  0  0  0  0  0  0  0  0
    1.5048    0.1505   -1.5513 H   0  0  0  0  0  0  0  0  0  0  0  0
    1.2804   -1.5969   -1.0083 H   0  0  0  0  0  0  0  0  0  0  0  0
   -1.0192   -1.2402   -1.6155 H   0  0  0  0  0  0  0  0  0  0  0  0
   -1.0528    1.7780    0.6002 H   0  0  0  0  0  0  0  0  0  0  0  0
   -2.6202    1.0275   -0.1087 H   0  0  0  0  0  0  0  0  0  0  0  0
   -1.9578   -1.1309    0.5538 H   0  0  0  0  0  0  0  0  0  0  0  0
  1  2  2  0
  2  3  1  0
  3  4  1  0
  3  5  1  0
  5  6  1  0
  6  7  1  0
  7  8  1  0
  8  9  1  0
  9  2  1  0
  9  6  1  0
  3 10  1  0
  4 11  1  0
  5 12  1  0
  5 13  1  0
  6 14  1  0
  8 15  1  0
  8 16  1  0
  9 17  1  0
M  END
