
     RDKit          3D

 15 16  0  0  0  0  0  0  0  0999 V2000
   -1.0272   -1.9037    1.7225 O   0  0  0  0  0  0  0  0  0  0  0  0
   -0.5691   -1.3266    0.6935 C   0  0  0  0  0  0  0  0  0  0  0  0
    0.7914   -1.4560    0.5394 O   0  0  0  0  0  0  0  0  0  0  0  0
    1.6964   -0.5216   -0.0500 C   0  0  0  0  0  0  0  0  0  0  0  0
    1.2188    0.8721    0.1665 C   0  0  0  0  0  0  0  0  0  0  0  0
    0.0266    1.3733   -0.0928 C   0  0  0  0  0  0  0  0  0  0  0  0
   -1.1586    0.6995   -0.6665 C   0  0  0  0  0  0  0  0  0  0  0  0
   -2.1642    0.5221    0.2878 O   0  0  0  0  0  0  0  0  0  0  0  0
   -1.5052   -0.6139   -0.1848 C   0  0  0  0  0  0  0  0  0  0  0  0
    1.8533   -0.6988   -1.1187 H   0  0  0  0  0  0  0  0  0  0  0  0
    2.6626   -0.6657    0.4750 H   0  0  0  0  0  0  0  0  0  0  0  0
    1.9463    1.5488    0.5885 H   0  0  0  0  0  0  0  0  0  0  0  0
   -0.1166    2.4482    0.1496 H   0  0  0  0  0  0  0  0  0  0  0  0
   -1.4648    0.9652   -1.7061 H   0  0  0  0  0  0  0  0  0  0  0  0
   -2.1896   -1.2428   -0.8041 H   0  0  0  0  0  0  0  0  0  0  0  0
  1  2  2  0
  2  3  1  0
  3  4  1  0
  4  5  1  0
  5  6  2  0
  6  7  1  0
  7  8  1  0
  8  9  1  0
  9  2  1  0
  9  7  1  0
  4 10  1  0
  4 11  1  0
  5 12  1  0
  6 13  1  0
  7 14  1  0
  9 15  1  0
M  END
