
     RDKit          3D

 18 19  0  0  0  0  0  0  0  0999 V2000
    0.7343    2.5280   -0.6736 O   0  0  0  0  0  0  0  0  0  0  0  0
    0.6741    1.3380   -0.4543 C   0  0  0  0  0  0  0  0  0  0  0  0
    1.6963    0.5566    0.2665 C   0  0  0  0  0  0  0  0  0  0  0  0
    1.2174   -0.8777    0.2674 C   0  0  0  0  0  0  0  0  0  0  0  0
   -0.1521   -0.9044   -0.3374 C   0  0  0  0  0  0  0  0  0  0  0  0
   -1.2933   -0.7905    0.6451 C   0  0  0  0  0  0  0  0  0  0  0  0
   -1.6779    0.5146   -0.0216 C   0  0  0  0  0  0  0  0  0  0  0  0
   -0.4500    0.4693   -0.8809 C   0  0  0  0  0  0  0  0  0  0  0  0
    1.8668    0.9111    1.3118 H   0  0  0  0  0  0  0  0  0  0  0  0
    2.7011    0.6536   -0.2397 H   0  0  0  0  0  0  0  0  0  0  0  0
    1.8878   -1.4739   -0.3899 H   0  0  0  0  0  0  0  0  0  0  0  0
    1.2659   -1.3141    1.2843 H   0  0  0  0  0  0  0  0  0  0  0  0
   -0.3545   -1.6834   -1.0857 H   0  0  0  0  0  0  0  0  0  0  0  0
   -0.9996   -0.6556    1.7059 H   0  0  0  0  0  0  0  0  0  0  0  0
   -2.0942   -1.5545    0.5221 H   0  0  0  0  0  0  0  0  0  0  0  0
   -1.7626    1.3551    0.6785 H   0  0  0  0  0  0  0  0  0  0  0  0
   -2.6186    0.4534   -0.6281 H   0  0  0  0  0  0  0  0  0  0  0  0
   -0.6408    0.4745   -1.9705 H   0  0  0  0  0  0  0  0  0  0  0  0
  1  2  2  0
  2  3  1  0
  3  4  1  0
  4  5  1  0
  5  6  1  0
  6  7  1  0
  7  8  1  0
  8  2  1  0
  8  5  1  0
  3  9  1  0
  3 10  1  0
  4 11  1  0
  4 12  1  0
  5 13  1  0
  6 14  1  0
  6 15  1  0
  7 16  1  0
  7 17  1  0
  8 18  1  0
M  END
