
     RDKit          3D

 15 17  0  0  0  0  0  0  0  0999 V2000
    3.5779   -0.0389   -0.5505 O   0  0  0  0  0  0  0  0  0  0  0  0
    2.3526   -0.1020   -0.3320 C   0  0  0  0  0  0  0  0  0  0  0  0
    1.5536   -0.7998    0.6633 C   0  0  0  0  0  0  0  0  0  0  0  0
    0.2805   -0.5813    0.5060 C   0  0  0  0  0  0  0  0  0  0  0  0
   -1.2235   -0.4534    0.4954 C   0  0  0  0  0  0  0  0  0  0  0  0
   -1.6457    0.9404    0.7815 C   0  0  0  0  0  0  0  0  0  0  0  0
   -1.0561    0.7156   -0.5500 C   0  0  0  0  0  0  0  0  0  0  0  0
    0.1832    0.0011   -0.8831 C   0  0  0  0  0  0  0  0  0  0  0  0
    1.3965    0.5846   -1.1173 O   0  0  0  0  0  0  0  0  0  0  0  0
    1.9694   -1.4265    1.4427 H   0  0  0  0  0  0  0  0  0  0  0  0
   -1.8516   -1.2548    0.1535 H   0  0  0  0  0  0  0  0  0  0  0  0
   -1.0240    1.4699    1.5375 H   0  0  0  0  0  0  0  0  0  0  0  0
   -2.7204    1.1825    0.8141 H   0  0  0  0  0  0  0  0  0  0  0  0
   -1.8139    0.6796   -1.3992 H   0  0  0  0  0  0  0  0  0  0  0  0
    0.0216   -0.9170   -1.5618 H   0  0  0  0  0  0  0  0  0  0  0  0
  1  2  2  0
  2  3  1  0
  3  4  2  0
  4  5  1  0
  5  6  1  0
  6  7  1  0
  7  8  1  0
  8  9  1  0
  9  2  1  0
  8  4  1  0
  7  5  1  0
  3 10  1  0
  5 11  1  0
  6 12  1  0
  6 13  1  0
  7 14  1  0
  8 15  1  0
M  END
