
     RDKit          3D

 17 18  0  0  0  0  0  0  0  0999 V2000
   -1.0968    2.3612   -0.8591 O   0  0  0  0  0  0  0  0  0  0  0  0
   -0.8382    1.3170   -0.3039 C   0  0  0  0  0  0  0  0  0  0  0  0
   -1.8609    0.3028    0.0455 C   0  0  0  0  0  0  0  0  0  0  0  0
   -1.1010   -0.9905    0.0348 C   0  0  0  0  0  0  0  0  0  0  0  0
    0.2587   -0.5965    0.5206 C   0  0  0  0  0  0  0  0  0  0  0  0
    1.1974   -1.3313   -0.2026 O   0  0  0  0  0  0  0  0  0  0  0  0
    2.1711   -0.3638   -0.4476 C   0  0  0  0  0  0  0  0  0  0  0  0
    1.3994    0.7158   -0.9109 O   0  0  0  0  0  0  0  0  0  0  0  0
    0.4813    0.8467    0.1253 C   0  0  0  0  0  0  0  0  0  0  0  0
   -2.6774    0.3329   -0.6972 H   0  0  0  0  0  0  0  0  0  0  0  0
   -2.2216    0.5365    1.0770 H   0  0  0  0  0  0  0  0  0  0  0  0
   -1.5026   -1.7565    0.7049 H   0  0  0  0  0  0  0  0  0  0  0  0
   -1.0231   -1.3220   -1.0188 H   0  0  0  0  0  0  0  0  0  0  0  0
    0.3977   -0.6963    1.5996 H   0  0  0  0  0  0  0  0  0  0  0  0
    2.6232   -0.1227    0.5437 H   0  0  0  0  0  0  0  0  0  0  0  0
    2.9178   -0.6963   -1.1644 H   0  0  0  0  0  0  0  0  0  0  0  0
    0.8750    1.4630    0.9530 H   0  0  0  0  0  0  0  0  0  0  0  0
  1  2  2  0
  2  3  1  0
  3  4  1  0
  4  5  1  0
  5  6  1  0
  6  7  1  0
  7  8  1  0
  8  9  1  0
  9  2  1  0
  9  5  1  0
  3 10  1  0
  3 11  1  0
  4 12  1  0
  4 13  1  0
  5 14  1  0
  7 15  1  0
  7 16  1  0
  9 17  1  0
M  END
