
     RDKit          3D

 19 21  0  0  0  0  0  0  0  0999 V2000
    0.7810    1.0648   -1.9252 O   0  0  0  0  0  0  0  0  0  0  0  0
    1.1006    0.4886   -0.9073 C   0  0  0  0  0  0  0  0  0  0  0  0
    2.3905    0.2086   -0.2252 C   0  0  0  0  0  0  0  0  0  0  0  0
    1.6674   -0.7987    0.6803 C   0  0  0  0  0  0  0  0  0  0  0  0
    0.4160   -0.2137    0.1559 C   0  0  0  0  0  0  0  0  0  0  0  0
   -0.6313    0.3171    1.0078 C   0  0  0  0  0  0  0  0  0  0  0  0
   -1.8579    0.9275    0.4268 C   0  0  0  0  0  0  0  0  0  0  0  0
   -1.9864   -0.1470   -0.6271 C   0  0  0  0  0  0  0  0  0  0  0  0
   -0.8620   -0.8958    0.0520 C   0  0  0  0  0  0  0  0  0  0  0  0
    2.8129    1.0642    0.3458 H   0  0  0  0  0  0  0  0  0  0  0  0
    3.1542   -0.2930   -0.8177 H   0  0  0  0  0  0  0  0  0  0  0  0
    1.8973   -1.8533    0.4022 H   0  0  0  0  0  0  0  0  0  0  0  0
    1.7971   -0.5651    1.7611 H   0  0  0  0  0  0  0  0  0  0  0  0
   -0.6420    0.0723    2.0964 H   0  0  0  0  0  0  0  0  0  0  0  0
   -2.7164    0.9629    1.1201 H   0  0  0  0  0  0  0  0  0  0  0  0
   -1.6495    1.9479    0.0479 H   0  0  0  0  0  0  0  0  0  0  0  0
   -1.6524    0.2328   -1.6119 H   0  0  0  0  0  0  0  0  0  0  0  0
   -2.9464   -0.6748   -0.6066 H   0  0  0  0  0  0  0  0  0  0  0  0
   -1.0726   -1.8455    0.5705 H   0  0  0  0  0  0  0  0  0  0  0  0
  1  2  2  0
  2  3  1  0
  3  4  1  0
  4  5  1  0
  5  6  1  0
  6  7  1  0
  7  8  1  0
  8  9  1  0
  5  2  1  0
  9  6  1  0
  9  5  1  0
  3 10  1  0
  3 11  1  0
  4 12  1  0
  4 13  1  0
  6 14  1  0
  7 15  1  0
  7 16  1  0
  8 17  1  0
  8 18  1  0
  9 19  1  0
M  END
