
     RDKit          3D

 17 18  0  0  0  0  0  0  0  0999 V2000
    0.9231    1.3777    1.6073 O   0  0  0  0  0  0  0  0  0  0  0  0
    1.1405    0.7896    0.5841 C   0  0  0  0  0  0  0  0  0  0  0  0
    2.1696    1.0126   -0.4792 C   0  0  0  0  0  0  0  0  0  0  0  0
    1.8175   -0.1626   -1.1217 O   0  0  0  0  0  0  0  0  0  0  0  0
    0.7469   -0.3076   -0.2814 C   0  0  0  0  0  0  0  0  0  0  0  0
    0.2157   -1.5861    0.1653 C   0  0  0  0  0  0  0  0  0  0  0  0
   -0.6104   -0.6142   -0.7023 C   0  0  0  0  0  0  0  0  0  0  0  0
   -1.8373   -0.0980   -0.0162 C   0  0  0  0  0  0  0  0  0  0  0  0
   -1.9182    1.2894   -0.0033 O   0  0  0  0  0  0  0  0  0  0  0  0
    3.2013    1.0604   -0.0864 H   0  0  0  0  0  0  0  0  0  0  0  0
    1.9633    1.8788   -1.1154 H   0  0  0  0  0  0  0  0  0  0  0  0
    0.5279   -2.5381   -0.3234 H   0  0  0  0  0  0  0  0  0  0  0  0
   -0.0641   -1.6937    1.2243 H   0  0  0  0  0  0  0  0  0  0  0  0
   -0.7334   -0.9396   -1.7775 H   0  0  0  0  0  0  0  0  0  0  0  0
   -1.9283   -0.4582    1.0307 H   0  0  0  0  0  0  0  0  0  0  0  0
   -2.7326   -0.5352   -0.5479 H   0  0  0  0  0  0  0  0  0  0  0  0
   -2.8816    1.5247   -0.1082 H   0  0  0  0  0  0  0  0  0  0  0  0
  1  2  2  0
  2  3  1  0
  3  4  1  0
  4  5  1  0
  5  6  1  0
  6  7  1  0
  7  8  1  0
  8  9  1  0
  5  2  1  0
  7  5  1  0
  3 10  1  0
  3 11  1  0
  6 12  1  0
  6 13  1  0
  7 14  1  0
  8 15  1  0
  8 16  1  0
  9 17  1  0
M  END
