
     RDKit          3D

 15 17  0  0  0  0  0  0  0  0999 V2000
    1.9489    1.7953   -0.3301 O   0  0  0  0  0  0  0  0  0  0  0  0
    1.1346    0.9070   -0.0410 C   0  0  0  0  0  0  0  0  0  0  0  0
    1.4642   -0.5221   -0.1574 C   0  0  0  0  0  0  0  0  0  0  0  0
    0.1100   -1.1946   -0.0392 C   0  0  0  0  0  0  0  0  0  0  0  0
   -1.0937   -0.5418   -0.6011 C   0  0  0  0  0  0  0  0  0  0  0  0
   -1.2293    0.9190   -0.6508 C   0  0  0  0  0  0  0  0  0  0  0  0
   -1.8747    1.6889   -1.3262 O   0  0  0  0  0  0  0  0  0  0  0  0
   -0.2614    1.0652    0.4541 C   0  0  0  0  0  0  0  0  0  0  0  0
   -0.6063   -0.3318    0.8725 C   0  0  0  0  0  0  0  0  0  0  0  0
    2.0197   -0.8009   -1.0475 H   0  0  0  0  0  0  0  0  0  0  0  0
    2.0199   -0.8030    0.7852 H   0  0  0  0  0  0  0  0  0  0  0  0
    0.1271   -2.2760    0.0221 H   0  0  0  0  0  0  0  0  0  0  0  0
   -1.9849   -1.1919   -0.7170 H   0  0  0  0  0  0  0  0  0  0  0  0
   -0.4320    1.8659    1.1709 H   0  0  0  0  0  0  0  0  0  0  0  0
   -1.3420   -0.5792    1.6056 H   0  0  0  0  0  0  0  0  0  0  0  0
  1  2  2  0
  2  3  1  0
  3  4  1  0
  4  5  1  0
  5  6  1  0
  6  7  2  0
  6  8  1  0
  8  9  1  0
  8  2  1  0
  9  4  1  0
  9  5  1  0
  3 10  1  0
  3 11  1  0
  4 12  1  0
  5 13  1  0
  8 14  1  0
  9 15  1  0
M  END
