
     RDKit          3D

 15 17  0  0  0  0  0  0  0  0999 V2000
    2.6378   -1.1948   -0.2968 O   0  0  0  0  0  0  0  0  0  0  0  0
    1.4732   -0.7792   -0.2780 C   0  0  0  0  0  0  0  0  0  0  0  0
    0.5378   -0.9175   -1.3270 O   0  0  0  0  0  0  0  0  0  0  0  0
   -0.7489   -0.6919   -0.8316 C   0  0  0  0  0  0  0  0  0  0  0  0
   -0.9996    0.7440   -0.4546 C   0  0  0  0  0  0  0  0  0  0  0  0
    0.2925    1.2740    0.1299 C   0  0  0  0  0  0  0  0  0  0  0  0
    0.7306   -0.0522    0.7753 C   0  0  0  0  0  0  0  0  0  0  0  0
   -0.6132   -0.7391    0.6842 C   0  0  0  0  0  0  0  0  0  0  0  0
   -1.5898    0.2277    0.7238 O   0  0  0  0  0  0  0  0  0  0  0  0
   -1.5855   -1.1928   -1.2680 H   0  0  0  0  0  0  0  0  0  0  0  0
   -1.5908    1.3660   -1.0761 H   0  0  0  0  0  0  0  0  0  0  0  0
    0.0333    1.9705    0.9265 H   0  0  0  0  0  0  0  0  0  0  0  0
    1.0005    1.6272   -0.6080 H   0  0  0  0  0  0  0  0  0  0  0  0
    1.1725    0.0315    1.7291 H   0  0  0  0  0  0  0  0  0  0  0  0
   -0.7504   -1.6737    1.1713 H   0  0  0  0  0  0  0  0  0  0  0  0
  1  2  2  0
  2  3  1  0
  3  4  1  0
  4  5  1  0
  5  6  1  0
  6  7  1  0
  7  8  1  0
  8  9  1  0
  7  2  1  0
  8  4  1  0
  9  5  1  0
  4 10  1  0
  5 11  1  0
  6 12  1  0
  6 13  1  0
  7 14  1  0
  8 15  1  0
M  END
