
     RDKit          3D

 16 17  0  0  0  0  0  0  0  0999 V2000
   -2.1282    1.8168   -0.4716 O   0  0  0  0  0  0  0  0  0  0  0  0
   -1.7510    0.6280   -0.2998 C   0  0  0  0  0  0  0  0  0  0  0  0
   -1.4429   -0.3248    0.7698 C   0  0  0  0  0  0  0  0  0  0  0  0
   -0.6223   -0.9727   -0.2828 C   0  0  0  0  0  0  0  0  0  0  0  0
    0.8161   -0.5789   -0.4008 C   0  0  0  0  0  0  0  0  0  0  0  0
    1.2543    0.7989   -0.6773 C   0  0  0  0  0  0  0  0  0  0  0  0
    1.5313    0.1589    0.6657 C   0  0  0  0  0  0  0  0  0  0  0  0
   -1.4486   -0.3463   -1.2382 O   0  0  0  0  0  0  0  0  0  0  0  0
   -2.3617   -0.9250    1.0078 H   0  0  0  0  0  0  0  0  0  0  0  0
   -0.9274    0.0736    1.6608 H   0  0  0  0  0  0  0  0  0  0  0  0
   -0.7499   -2.0750   -0.2388 H   0  0  0  0  0  0  0  0  0  0  0  0
    1.4373   -1.3645   -0.9284 H   0  0  0  0  0  0  0  0  0  0  0  0
    2.1400    0.9760   -1.3567 H   0  0  0  0  0  0  0  0  0  0  0  0
    0.6067    1.6812   -0.6330 H   0  0  0  0  0  0  0  0  0  0  0  0
    2.6036   -0.1234    0.8748 H   0  0  0  0  0  0  0  0  0  0  0  0
    1.0428    0.5773    1.5486 H   0  0  0  0  0  0  0  0  0  0  0  0
  1  2  2  0
  2  3  1  0
  3  4  1  0
  4  5  1  0
  5  6  1  0
  6  7  1  0
  4  8  1  0
  8  2  1  0
  7  5  1  0
  3  9  1  0
  3 10  1  0
  4 11  1  0
  5 12  1  0
  6 13  1  0
  6 14  1  0
  7 15  1  0
  7 16  1  0
M  END
