
     RDKit          3D

 15 16  0  0  0  0  0  0  0  0999 V2000
   -1.5513    2.3947   -0.4298 O   0  0  0  0  0  0  0  0  0  0  0  0
   -1.0556    1.3130   -0.0807 C   0  0  0  0  0  0  0  0  0  0  0  0
   -1.7796    0.1208    0.4036 C   0  0  0  0  0  0  0  0  0  0  0  0
   -0.9758   -0.9940   -0.2216 C   0  0  0  0  0  0  0  0  0  0  0  0
    0.4080   -0.4614   -0.1271 C   0  0  0  0  0  0  0  0  0  0  0  0
    1.7611   -0.8064   -0.0916 C   0  0  0  0  0  0  0  0  0  0  0  0
    2.4628    0.3730    0.0078 C   0  0  0  0  0  0  0  0  0  0  0  0
    1.5981    1.3477    0.0302 O   0  0  0  0  0  0  0  0  0  0  0  0
    0.3534    0.9115   -0.0472 C   0  0  0  0  0  0  0  0  0  0  0  0
   -2.8459    0.1036    0.1198 H   0  0  0  0  0  0  0  0  0  0  0  0
   -1.6307    0.0562    1.5034 H   0  0  0  0  0  0  0  0  0  0  0  0
   -1.3150   -1.0575   -1.2904 H   0  0  0  0  0  0  0  0  0  0  0  0
   -1.0904   -1.9609    0.3017 H   0  0  0  0  0  0  0  0  0  0  0  0
    2.1397   -1.8201   -0.1363 H   0  0  0  0  0  0  0  0  0  0  0  0
    3.5211    0.4798    0.0580 H   0  0  0  0  0  0  0  0  0  0  0  0
  1  2  2  0
  2  3  1  0
  3  4  1  0
  4  5  1  0
  5  6  1  0
  6  7  2  0
  7  8  1  0
  8  9  1  0
  9  2  1  0
  9  5  2  0
  3 10  1  0
  3 11  1  0
  4 12  1  0
  4 13  1  0
  6 14  1  0
  7 15  1  0
M  END
