
     RDKit          3D

 17 18  0  0  0  0  0  0  0  0999 V2000
    3.2730    0.2834    0.7193 O   0  0  0  0  0  0  0  0  0  0  0  0
    2.0741    0.0996    0.4838 C   0  0  0  0  0  0  0  0  0  0  0  0
    0.9521    0.3327    1.3940 C   0  0  0  0  0  0  0  0  0  0  0  0
   -0.1644    0.3981    0.7291 C   0  0  0  0  0  0  0  0  0  0  0  0
   -1.6141    0.5765    0.7594 C   0  0  0  0  0  0  0  0  0  0  0  0
   -2.0101   -0.5173   -0.2206 C   0  0  0  0  0  0  0  0  0  0  0  0
   -0.9847   -0.6996   -1.0671 C   0  0  0  0  0  0  0  0  0  0  0  0
    0.1269    0.2195   -0.7322 C   0  0  0  0  0  0  0  0  0  0  0  0
    1.4974   -0.4045   -0.7893 C   0  0  0  0  0  0  0  0  0  0  0  0
    1.1278    0.4256    2.4714 H   0  0  0  0  0  0  0  0  0  0  0  0
   -1.8826    1.5593    0.3391 H   0  0  0  0  0  0  0  0  0  0  0  0
   -2.0697    0.3927    1.7500 H   0  0  0  0  0  0  0  0  0  0  0  0
   -2.9593   -1.0373   -0.2104 H   0  0  0  0  0  0  0  0  0  0  0  0
   -0.9793   -1.4138   -1.8714 H   0  0  0  0  0  0  0  0  0  0  0  0
    0.0788    1.1731   -1.2758 H   0  0  0  0  0  0  0  0  0  0  0  0
    2.0541    0.1039   -1.6113 H   0  0  0  0  0  0  0  0  0  0  0  0
    1.4800   -1.4918   -0.8679 H   0  0  0  0  0  0  0  0  0  0  0  0
  1  2  2  0
  2  3  1  0
  3  4  2  0
  4  5  1  0
  5  6  1  0
  6  7  2  0
  7  8  1  0
  8  9  1  0
  9  2  1  0
  8  4  1  0
  3 10  1  0
  5 11  1  0
  5 12  1  0
  6 13  1  0
  7 14  1  0
  8 15  1  0
  9 16  1  0
  9 17  1  0
M  END
