
     RDKit          3D

 17 19  0  0  0  0  0  0  0  0999 V2000
   -0.4490    2.3197   -0.4784 O   0  0  0  0  0  0  0  0  0  0  0  0
   -0.5616    1.1305   -0.2481 C   0  0  0  0  0  0  0  0  0  0  0  0
   -1.8458    0.3850   -0.2167 C   0  0  0  0  0  0  0  0  0  0  0  0
   -1.5362   -0.9560    0.4132 C   0  0  0  0  0  0  0  0  0  0  0  0
   -0.7554   -1.8707   -0.2794 O   0  0  0  0  0  0  0  0  0  0  0  0
   -0.1779   -0.9589    0.7547 C   0  0  0  0  0  0  0  0  0  0  0  0
    0.5023    0.1814    0.0430 C   0  0  0  0  0  0  0  0  0  0  0  0
    1.5983   -0.1421   -0.8735 C   0  0  0  0  0  0  0  0  0  0  0  0
    1.8419    0.6392    0.3856 C   0  0  0  0  0  0  0  0  0  0  0  0
   -2.5853    0.8934    0.4152 H   0  0  0  0  0  0  0  0  0  0  0  0
   -2.1593    0.2258   -1.2588 H   0  0  0  0  0  0  0  0  0  0  0  0
   -2.3287   -1.3766    1.0593 H   0  0  0  0  0  0  0  0  0  0  0  0
    0.3608   -1.5129    1.5263 H   0  0  0  0  0  0  0  0  0  0  0  0
    1.6102    0.3284   -1.8528 H   0  0  0  0  0  0  0  0  0  0  0  0
    2.0350   -1.1769   -0.8316 H   0  0  0  0  0  0  0  0  0  0  0  0
    2.0966    1.7206    0.2064 H   0  0  0  0  0  0  0  0  0  0  0  0
    2.3540    0.1701    1.2354 H   0  0  0  0  0  0  0  0  0  0  0  0
  1  2  2  0
  2  3  1  0
  3  4  1  0
  4  5  1  0
  5  6  1  0
  6  7  1  0
  7  8  1  0
  8  9  1  0
  7  2  1  0
  6  4  1  0
  9  7  1  0
  3 10  1  0
  3 11  1  0
  4 12  1  0
  6 13  1  0
  8 14  1  0
  8 15  1  0
  9 16  1  0
  9 17  1  0
M  END
