
     RDKit          3D

 14 15  0  0  0  0  0  0  0  0999 V2000
   -2.7551    1.3654   -0.3348 O   0  0  0  0  0  0  0  0  0  0  0  0
   -1.8393    0.6627   -0.0030 C   0  0  0  0  0  0  0  0  0  0  0  0
   -0.7164    0.5592    0.9527 C   0  0  0  0  0  0  0  0  0  0  0  0
   -1.0706   -0.7756    1.0897 O   0  0  0  0  0  0  0  0  0  0  0  0
   -1.1450   -0.6070   -0.2849 C   0  0  0  0  0  0  0  0  0  0  0  0
    0.1436    0.1413   -0.1747 C   0  0  0  0  0  0  0  0  0  0  0  0
    1.3617   -0.6910    0.1764 C   0  0  0  0  0  0  0  0  0  0  0  0
    2.1413    0.1068    1.0456 O   0  0  0  0  0  0  0  0  0  0  0  0
   -0.5106    1.2020    1.7013 H   0  0  0  0  0  0  0  0  0  0  0  0
   -1.3974   -1.3011   -0.9689 H   0  0  0  0  0  0  0  0  0  0  0  0
    0.3206    0.8643   -0.9687 H   0  0  0  0  0  0  0  0  0  0  0  0
    1.9774   -0.8813   -0.7206 H   0  0  0  0  0  0  0  0  0  0  0  0
    1.1158   -1.6174    0.7053 H   0  0  0  0  0  0  0  0  0  0  0  0
    2.3739    0.9716    0.5907 H   0  0  0  0  0  0  0  0  0  0  0  0
  1  2  2  0
  2  3  1  0
  3  4  1  0
  4  5  1  0
  5  6  1  0
  6  7  1  0
  7  8  1  0
  5  2  1  0
  6  3  1  0
  3  9  1  0
  5 10  1  0
  6 11  1  0
  7 12  1  0
  7 13  1  0
  8 14  1  0
M  END
