
     RDKit          3D

 17 18  0  0  0  0  0  0  0  0999 V2000
    1.7467    2.2805   -0.1291 O   0  0  0  0  0  0  0  0  0  0  0  0
    1.2780    1.1279   -0.0713 C   0  0  0  0  0  0  0  0  0  0  0  0
    2.0230   -0.1583   -0.1058 C   0  0  0  0  0  0  0  0  0  0  0  0
    0.9399   -1.1964    0.2245 C   0  0  0  0  0  0  0  0  0  0  0  0
   -0.2454   -0.5862   -0.4907 C   0  0  0  0  0  0  0  0  0  0  0  0
   -1.4585   -1.0645   -0.0127 O   0  0  0  0  0  0  0  0  0  0  0  0
   -2.2931    0.0480    0.0998 C   0  0  0  0  0  0  0  0  0  0  0  0
   -1.3599    1.1635    0.3794 C   0  0  0  0  0  0  0  0  0  0  0  0
   -0.1483    0.8230    0.0460 C   0  0  0  0  0  0  0  0  0  0  0  0
    2.4422   -0.4002   -1.0820 H   0  0  0  0  0  0  0  0  0  0  0  0
    2.7581   -0.2064    0.7228 H   0  0  0  0  0  0  0  0  0  0  0  0
    0.7389   -1.2558    1.2960 H   0  0  0  0  0  0  0  0  0  0  0  0
    1.1525   -2.1674   -0.2621 H   0  0  0  0  0  0  0  0  0  0  0  0
   -0.1509   -0.6114   -1.5766 H   0  0  0  0  0  0  0  0  0  0  0  0
   -2.9591   -0.1371    0.9865 H   0  0  0  0  0  0  0  0  0  0  0  0
   -2.8810    0.1926   -0.8245 H   0  0  0  0  0  0  0  0  0  0  0  0
   -1.5830    2.1482    0.7996 H   0  0  0  0  0  0  0  0  0  0  0  0
  1  2  2  0
  2  3  1  0
  3  4  1  0
  4  5  1  0
  5  6  1  0
  6  7  1  0
  7  8  1  0
  8  9  2  0
  9  2  1  0
  9  5  1  0
  3 10  1  0
  3 11  1  0
  4 12  1  0
  4 13  1  0
  5 14  1  0
  7 15  1  0
  7 16  1  0
  8 17  1  0
M  END
