
     RDKit          3D

 13 14  0  0  0  0  0  0  0  0999 V2000
   -2.8987    1.2048    0.0075 O   0  0  0  0  0  0  0  0  0  0  0  0
   -1.7204    0.7146    0.0208 C   0  0  0  0  0  0  0  0  0  0  0  0
   -0.5160    1.2999   -0.4140 O   0  0  0  0  0  0  0  0  0  0  0  0
    0.4619    0.6574    0.3257 C   0  0  0  0  0  0  0  0  0  0  0  0
    1.3192   -0.4308    0.1283 C   0  0  0  0  0  0  0  0  0  0  0  0
    2.2732   -0.3692   -0.9159 O   0  0  0  0  0  0  0  0  0  0  0  0
   -0.0030   -0.7815   -0.1556 C   0  0  0  0  0  0  0  0  0  0  0  0
   -1.3059   -0.6264    0.5077 C   0  0  0  0  0  0  0  0  0  0  0  0
   -1.9853   -1.3222    1.2733 O   0  0  0  0  0  0  0  0  0  0  0  0
    0.2659    0.8882    1.4216 H   0  0  0  0  0  0  0  0  0  0  0  0
    1.8174   -0.9335    1.0095 H   0  0  0  0  0  0  0  0  0  0  0  0
    2.5213    0.5522   -1.0823 H   0  0  0  0  0  0  0  0  0  0  0  0
   -0.2296   -0.8535   -1.2690 H   0  0  0  0  0  0  0  0  0  0  0  0
  1  2  2  0
  2  3  1  0
  3  4  1  0
  4  5  1  0
  5  6  1  0
  5  7  1  0
  7  8  1  0
  8  9  2  0
  8  2  1  0
  7  4  1  0
  4 10  1  0
  5 11  1  0
  6 12  1  0
  7 13  1  0
M  END
