
     RDKit          3D

 19 20  0  0  0  0  0  0  0  0999 V2000
    2.4316    0.8945    1.0787 O   0  0  0  0  0  0  0  0  0  0  0  0
    1.6246    0.3871    0.3176 C   0  0  0  0  0  0  0  0  0  0  0  0
    1.2416   -1.0345    0.3913 C   0  0  0  0  0  0  0  0  0  0  0  0
   -0.1254   -1.3372   -0.0916 C   0  0  0  0  0  0  0  0  0  0  0  0
   -1.0544   -0.1845   -0.1910 C   0  0  0  0  0  0  0  0  0  0  0  0
   -2.2910   -0.5126   -0.7809 O   0  0  0  0  0  0  0  0  0  0  0  0
   -1.0553    0.8829    0.8612 C   0  0  0  0  0  0  0  0  0  0  0  0
   -0.5152    1.1165   -0.5013 C   0  0  0  0  0  0  0  0  0  0  0  0
    0.9518    1.1857   -0.7671 C   0  0  0  0  0  0  0  0  0  0  0  0
    1.9664   -1.5946   -0.2706 H   0  0  0  0  0  0  0  0  0  0  0  0
    1.4357   -1.4495    1.4169 H   0  0  0  0  0  0  0  0  0  0  0  0
   -0.5839   -2.0751    0.6320 H   0  0  0  0  0  0  0  0  0  0  0  0
   -0.1436   -1.8807   -1.0754 H   0  0  0  0  0  0  0  0  0  0  0  0
   -2.8156   -1.0465   -0.1427 H   0  0  0  0  0  0  0  0  0  0  0  0
   -2.0428    1.3401    1.1107 H   0  0  0  0  0  0  0  0  0  0  0  0
   -0.4148    0.6855    1.7264 H   0  0  0  0  0  0  0  0  0  0  0  0
   -1.1161    1.8151   -1.1495 H   0  0  0  0  0  0  0  0  0  0  0  0
    1.1588    0.6182   -1.7149 H   0  0  0  0  0  0  0  0  0  0  0  0
    1.3476    2.1898   -0.8496 H   0  0  0  0  0  0  0  0  0  0  0  0
  1  2  2  0
  2  3  1  0
  3  4  1  0
  4  5  1  0
  5  6  1  0
  5  7  1  0
  7  8  1  0
  8  9  1  0
  9  2  1  0
  8  5  1  0
  3 10  1  0
  3 11  1  0
  4 12  1  0
  4 13  1  0
  6 14  1  0
  7 15  1  0
  7 16  1  0
  8 17  1  0
  9 18  1  0
  9 19  1  0
M  END
