
     RDKit          3D

 17 18  0  0  0  0  0  0  0  0999 V2000
    2.7672   -1.5488   -1.0398 O   0  0  0  0  0  0  0  0  0  0  0  0
    1.7734   -0.8950   -0.6990 C   0  0  0  0  0  0  0  0  0  0  0  0
    1.9773    0.5316   -0.2542 C   0  0  0  0  0  0  0  0  0  0  0  0
    0.7386    1.1567   -0.5083 O   0  0  0  0  0  0  0  0  0  0  0  0
   -0.1490    0.6749    0.4253 C   0  0  0  0  0  0  0  0  0  0  0  0
   -1.6133    0.8849    0.1129 C   0  0  0  0  0  0  0  0  0  0  0  0
   -1.8094   -0.6012   -0.1009 C   0  0  0  0  0  0  0  0  0  0  0  0
   -0.3928   -0.8132    0.3133 C   0  0  0  0  0  0  0  0  0  0  0  0
    0.4701   -1.3504   -0.6849 O   0  0  0  0  0  0  0  0  0  0  0  0
    2.8062    1.0108   -0.7810 H   0  0  0  0  0  0  0  0  0  0  0  0
    2.1031    0.4924    0.8306 H   0  0  0  0  0  0  0  0  0  0  0  0
    0.1725    0.9251    1.4395 H   0  0  0  0  0  0  0  0  0  0  0  0
   -1.7786    1.4577   -0.8226 H   0  0  0  0  0  0  0  0  0  0  0  0
   -2.1735    1.3240    0.9564 H   0  0  0  0  0  0  0  0  0  0  0  0
   -2.5357   -1.0047    0.6454 H   0  0  0  0  0  0  0  0  0  0  0  0
   -2.1009   -0.8689   -1.1141 H   0  0  0  0  0  0  0  0  0  0  0  0
   -0.2552   -1.3760    1.2816 H   0  0  0  0  0  0  0  0  0  0  0  0
  1  2  2  0
  2  3  1  0
  3  4  1  0
  4  5  1  0
  5  6  1  0
  6  7  1  0
  7  8  1  0
  8  9  1  0
  9  2  1  0
  8  5  1  0
  3 10  1  0
  3 11  1  0
  5 12  1  0
  6 13  1  0
  6 14  1  0
  7 15  1  0
  7 16  1  0
  8 17  1  0
M  END
