
     RDKit          3D

 17 19  0  0  0  0  0  0  0  0999 V2000
    0.2305   -2.2009    1.2780 O   0  0  0  0  0  0  0  0  0  0  0  0
    0.1392   -1.3695    0.4069 C   0  0  0  0  0  0  0  0  0  0  0  0
    1.2793   -0.6268   -0.1852 C   0  0  0  0  0  0  0  0  0  0  0  0
    1.5942    0.7559    0.1752 C   0  0  0  0  0  0  0  0  0  0  0  0
    0.6319    0.5067   -0.8966 C   0  0  0  0  0  0  0  0  0  0  0  0
   -0.8269    0.4703   -0.6052 C   0  0  0  0  0  0  0  0  0  0  0  0
   -1.2655    0.6698    0.8081 C   0  0  0  0  0  0  0  0  0  0  0  0
   -2.1096   -0.4565    0.6401 O   0  0  0  0  0  0  0  0  0  0  0  0
   -1.1413   -0.9566   -0.2139 C   0  0  0  0  0  0  0  0  0  0  0  0
    2.0758   -1.2298   -0.7158 H   0  0  0  0  0  0  0  0  0  0  0  0
    1.2313    1.2602    1.0887 H   0  0  0  0  0  0  0  0  0  0  0  0
    2.6385    1.0979   -0.0770 H   0  0  0  0  0  0  0  0  0  0  0  0
    0.8935    0.7243   -1.9501 H   0  0  0  0  0  0  0  0  0  0  0  0
   -1.5054    0.9340   -1.3164 H   0  0  0  0  0  0  0  0  0  0  0  0
   -1.8226    1.6129    0.9913 H   0  0  0  0  0  0  0  0  0  0  0  0
   -0.5417    0.4088    1.6065 H   0  0  0  0  0  0  0  0  0  0  0  0
   -1.5012   -1.6005   -1.0347 H   0  0  0  0  0  0  0  0  0  0  0  0
  1  2  2  0
  2  3  1  0
  3  4  1  0
  4  5  1  0
  5  6  1  0
  6  7  1  0
  7  8  1  0
  8  9  1  0
  9  2  1  0
  5  3  1  0
  9  6  1  0
  3 10  1  0
  4 11  1  0
  4 12  1  0
  5 13  1  0
  6 14  1  0
  7 15  1  0
  7 16  1  0
  9 17  1  0
M  END
