
     RDKit          3D

 15 16  0  0  0  0  0  0  0  0999 V2000
    0.8896    2.2933    0.9697 O   0  0  0  0  0  0  0  0  0  0  0  0
    0.7184    1.1255    0.5734 C   0  0  0  0  0  0  0  0  0  0  0  0
    1.5852    0.4210   -0.3875 C   0  0  0  0  0  0  0  0  0  0  0  0
    1.1699   -0.8048   -0.6734 C   0  0  0  0  0  0  0  0  0  0  0  0
   -0.0849   -1.2356   -0.0171 C   0  0  0  0  0  0  0  0  0  0  0  0
   -0.0569   -0.9768    1.3719 O   0  0  0  0  0  0  0  0  0  0  0  0
   -0.4342    0.3470    1.0821 C   0  0  0  0  0  0  0  0  0  0  0  0
   -1.1761   -0.1978   -0.1119 C   0  0  0  0  0  0  0  0  0  0  0  0
   -1.1641    0.5958   -1.2277 O   0  0  0  0  0  0  0  0  0  0  0  0
    2.4724    0.8725   -0.8114 H   0  0  0  0  0  0  0  0  0  0  0  0
    1.6746   -1.4771   -1.3301 H   0  0  0  0  0  0  0  0  0  0  0  0
   -0.3890   -2.2723   -0.2023 H   0  0  0  0  0  0  0  0  0  0  0  0
   -1.0477    0.8325    1.8457 H   0  0  0  0  0  0  0  0  0  0  0  0
   -2.1494   -0.6356    0.1623 H   0  0  0  0  0  0  0  0  0  0  0  0
   -2.0079    1.1124   -1.2437 H   0  0  0  0  0  0  0  0  0  0  0  0
  1  2  2  0
  2  3  1  0
  3  4  2  0
  4  5  1  0
  5  6  1  0
  6  7  1  0
  7  8  1  0
  8  9  1  0
  7  2  1  0
  8  5  1  0
  3 10  1  0
  4 11  1  0
  5 12  1  0
  7 13  1  0
  8 14  1  0
  9 15  1  0
M  END
