
     RDKit          3D

 19 19  0  0  0  0  0  0  0  0999 V2000
   -3.4103    1.2441    0.2369 O   0  0  0  0  0  0  0  0  0  0  0  0
   -2.3726    0.6545    0.0713 C   0  0  0  0  0  0  0  0  0  0  0  0
   -1.5357    0.1970   -1.0608 C   0  0  0  0  0  0  0  0  0  0  0  0
   -0.3394    0.3883   -0.1374 C   0  0  0  0  0  0  0  0  0  0  0  0
    0.7348   -0.6457   -0.2944 C   0  0  0  0  0  0  0  0  0  0  0  0
    1.2582   -0.6612   -1.5863 O   0  0  0  0  0  0  0  0  0  0  0  0
    1.8775   -0.2404    0.6313 C   0  0  0  0  0  0  0  0  0  0  0  0
    2.2822    1.0180    0.2053 O   0  0  0  0  0  0  0  0  0  0  0  0
   -1.3549    0.0570    0.9665 C   0  0  0  0  0  0  0  0  0  0  0  0
   -1.6285   -0.9116   -1.2593 H   0  0  0  0  0  0  0  0  0  0  0  0
   -1.5351    0.8205   -1.9601 H   0  0  0  0  0  0  0  0  0  0  0  0
   -0.0270    1.4312   -0.0412 H   0  0  0  0  0  0  0  0  0  0  0  0
    0.3783   -1.6387    0.0070 H   0  0  0  0  0  0  0  0  0  0  0  0
    1.3361   -1.5797   -1.9283 H   0  0  0  0  0  0  0  0  0  0  0  0
    2.6736   -0.9871    0.6220 H   0  0  0  0  0  0  0  0  0  0  0  0
    1.4631   -0.1124    1.6705 H   0  0  0  0  0  0  0  0  0  0  0  0
    2.8785    1.4424    0.8701 H   0  0  0  0  0  0  0  0  0  0  0  0
   -1.5147   -1.0522    1.0733 H   0  0  0  0  0  0  0  0  0  0  0  0
   -1.1642    0.5760    1.9136 H   0  0  0  0  0  0  0  0  0  0  0  0
  1  2  2  0
  2  3  1  0
  3  4  1  0
  4  5  1  0
  5  6  1  0
  5  7  1  0
  7  8  1  0
  4  9  1  0
  9  2  1  0
  3 10  1  0
  3 11  1  0
  4 12  1  0
  5 13  1  0
  6 14  1  0
  7 15  1  0
  7 16  1  0
  8 17  1  0
  9 18  1  0
  9 19  1  0
M  END
