
     RDKit          3D

 17 18  0  0  0  0  0  0  0  0999 V2000
    0.7842    1.8606   -1.5560 O   0  0  0  0  0  0  0  0  0  0  0  0
    0.2244    1.2573   -0.6608 C   0  0  0  0  0  0  0  0  0  0  0  0
    0.7334    0.3779    0.4174 C   0  0  0  0  0  0  0  0  0  0  0  0
    1.4068   -0.8711   -0.0637 C   0  0  0  0  0  0  0  0  0  0  0  0
    2.5235   -0.5702   -0.8748 O   0  0  0  0  0  0  0  0  0  0  0  0
   -0.6508    0.2644    0.9486 C   0  0  0  0  0  0  0  0  0  0  0  0
   -1.7636   -0.1823    0.0915 C   0  0  0  0  0  0  0  0  0  0  0  0
   -1.5677   -1.3257   -0.6403 O   0  0  0  0  0  0  0  0  0  0  0  0
   -1.1777    1.1261   -0.2473 C   0  0  0  0  0  0  0  0  0  0  0  0
    1.4122    0.8985    1.1459 H   0  0  0  0  0  0  0  0  0  0  0  0
    0.7243   -1.4901   -0.6496 H   0  0  0  0  0  0  0  0  0  0  0  0
    1.8033   -1.4344    0.8096 H   0  0  0  0  0  0  0  0  0  0  0  0
    3.3613   -0.7177   -0.3968 H   0  0  0  0  0  0  0  0  0  0  0  0
   -0.8927    0.6519    1.9644 H   0  0  0  0  0  0  0  0  0  0  0  0
   -2.7791   -0.1305    0.5634 H   0  0  0  0  0  0  0  0  0  0  0  0
   -2.4134   -1.7626   -0.8854 H   0  0  0  0  0  0  0  0  0  0  0  0
   -1.7285    2.0480    0.0338 H   0  0  0  0  0  0  0  0  0  0  0  0
  1  2  2  0
  2  3  1  0
  3  4  1  0
  4  5  1  0
  3  6  1  0
  6  7  1  0
  7  8  1  0
  7  9  1  0
  9  2  1  0
  9  6  1  0
  3 10  1  0
  4 11  1  0
  4 12  1  0
  5 13  1  0
  6 14  1  0
  7 15  1  0
  8 16  1  0
  9 17  1  0
M  END
