
     RDKit          3D

 15 16  0  0  0  0  0  0  0  0999 V2000
   -0.8463    2.0981   -1.3304 O   0  0  0  0  0  0  0  0  0  0  0  0
   -0.5169    1.1383   -0.5957 C   0  0  0  0  0  0  0  0  0  0  0  0
   -1.5220    0.1624   -0.0841 C   0  0  0  0  0  0  0  0  0  0  0  0
   -0.7535   -0.6630    0.8717 C   0  0  0  0  0  0  0  0  0  0  0  0
   -0.3820   -1.9259    0.8530 O   0  0  0  0  0  0  0  0  0  0  0  0
    0.3565   -1.2678   -0.0246 C   0  0  0  0  0  0  0  0  0  0  0  0
    1.4814   -0.3153    0.1617 C   0  0  0  0  0  0  0  0  0  0  0  0
    0.8990    1.0174   -0.2618 C   0  0  0  0  0  0  0  0  0  0  0  0
    1.7057    1.9824   -0.3021 O   0  0  0  0  0  0  0  0  0  0  0  0
   -1.8942   -0.4708   -0.9352 H   0  0  0  0  0  0  0  0  0  0  0  0
   -2.4209    0.6562    0.3267 H   0  0  0  0  0  0  0  0  0  0  0  0
   -0.4307   -0.0890    1.7781 H   0  0  0  0  0  0  0  0  0  0  0  0
    0.1206   -1.4585   -1.0883 H   0  0  0  0  0  0  0  0  0  0  0  0
    1.8946   -0.2652    1.1786 H   0  0  0  0  0  0  0  0  0  0  0  0
    2.3090   -0.5993   -0.5475 H   0  0  0  0  0  0  0  0  0  0  0  0
  1  2  2  0
  2  3  1  0
  3  4  1  0
  4  5  1  0
  5  6  1  0
  6  7  1  0
  7  8  1  0
  8  9  2  0
  8  2  1  0
  6  4  1  0
  3 10  1  0
  3 11  1  0
  4 12  1  0
  6 13  1  0
  7 14  1  0
  7 15  1  0
M  END
