
     RDKit          3D

 17 18  0  0  0  0  0  0  0  0999 V2000
    0.4970    0.3156    2.4248 O   0  0  0  0  0  0  0  0  0  0  0  0
    0.4684    0.1876    1.2311 C   0  0  0  0  0  0  0  0  0  0  0  0
    1.5266    0.3902    0.1791 C   0  0  0  0  0  0  0  0  0  0  0  0
    1.7318    1.6955   -0.1884 O   0  0  0  0  0  0  0  0  0  0  0  0
    0.6408   -0.3670   -0.8210 C   0  0  0  0  0  0  0  0  0  0  0  0
    1.0632   -1.6829   -0.9827 O   0  0  0  0  0  0  0  0  0  0  0  0
   -0.4368   -0.1819    0.1727 C   0  0  0  0  0  0  0  0  0  0  0  0
   -1.6628    0.5942   -0.0651 C   0  0  0  0  0  0  0  0  0  0  0  0
   -1.6688   -0.9102    0.2453 C   0  0  0  0  0  0  0  0  0  0  0  0
    2.4298   -0.1479    0.4865 H   0  0  0  0  0  0  0  0  0  0  0  0
    0.9081    2.2094   -0.2585 H   0  0  0  0  0  0  0  0  0  0  0  0
    0.4716    0.1673   -1.7689 H   0  0  0  0  0  0  0  0  0  0  0  0
    2.0372   -1.6957   -0.8416 H   0  0  0  0  0  0  0  0  0  0  0  0
   -1.8339    0.9157   -1.1018 H   0  0  0  0  0  0  0  0  0  0  0  0
   -2.0097    1.2595    0.7526 H   0  0  0  0  0  0  0  0  0  0  0  0
   -2.1953   -1.1891    1.1634 H   0  0  0  0  0  0  0  0  0  0  0  0
   -1.9673   -1.5604   -0.6274 H   0  0  0  0  0  0  0  0  0  0  0  0
  1  2  2  0
  2  3  1  0
  3  4  1  0
  3  5  1  0
  5  6  1  0
  5  7  1  0
  7  8  1  0
  8  9  1  0
  7  2  1  0
  9  7  1  0
  3 10  1  0
  4 11  1  0
  5 12  1  0
  6 13  1  0
  8 14  1  0
  8 15  1  0
  9 16  1  0
  9 17  1  0
M  END
