
     RDKit          3D

 14 15  0  0  0  0  0  0  0  0999 V2000
    0.5934    0.2535    2.3866 O   0  0  0  0  0  0  0  0  0  0  0  0
    0.6401    0.2146    1.1801 C   0  0  0  0  0  0  0  0  0  0  0  0
    1.5677   -0.5072    0.2795 C   0  0  0  0  0  0  0  0  0  0  0  0
    0.8633   -0.7034   -0.8841 O   0  0  0  0  0  0  0  0  0  0  0  0
   -0.0718    0.2830   -1.0276 C   0  0  0  0  0  0  0  0  0  0  0  0
   -1.3751    0.1202   -0.3042 C   0  0  0  0  0  0  0  0  0  0  0  0
   -1.6172   -1.1634    0.1738 O   0  0  0  0  0  0  0  0  0  0  0  0
   -0.2936    0.9371    0.2857 C   0  0  0  0  0  0  0  0  0  0  0  0
    2.4510    0.1749    0.1213 H   0  0  0  0  0  0  0  0  0  0  0  0
    1.8980   -1.4816    0.6956 H   0  0  0  0  0  0  0  0  0  0  0  0
   -0.1506    0.8609   -1.9773 H   0  0  0  0  0  0  0  0  0  0  0  0
   -2.2659    0.7005   -0.6502 H   0  0  0  0  0  0  0  0  0  0  0  0
   -1.8865   -1.7293   -0.6090 H   0  0  0  0  0  0  0  0  0  0  0  0
   -0.3528    2.0401    0.3297 H   0  0  0  0  0  0  0  0  0  0  0  0
  1  2  2  0
  2  3  1  0
  3  4  1  0
  4  5  1  0
  5  6  1  0
  6  7  1  0
  6  8  1  0
  8  2  1  0
  8  5  1  0
  3  9  1  0
  3 10  1  0
  5 11  1  0
  6 12  1  0
  7 13  1  0
  8 14  1  0
M  END
