
     RDKit          3D

 17 19  0  0  0  0  0  0  0  0999 V2000
   -2.3551   -0.9701   -1.4735 O   0  0  0  0  0  0  0  0  0  0  0  0
   -1.5165   -0.6562   -0.6666 C   0  0  0  0  0  0  0  0  0  0  0  0
   -1.0513   -1.0887    0.6709 C   0  0  0  0  0  0  0  0  0  0  0  0
   -0.2673    0.1808    0.8756 C   0  0  0  0  0  0  0  0  0  0  0  0
    1.1785   -0.0002    1.0762 C   0  0  0  0  0  0  0  0  0  0  0  0
    1.8333   -0.0312   -0.0602 C   0  0  0  0  0  0  0  0  0  0  0  0
    0.8825    0.1292   -1.1931 C   0  0  0  0  0  0  0  0  0  0  0  0
   -0.4706    0.3939   -0.6259 C   0  0  0  0  0  0  0  0  0  0  0  0
   -0.7224    1.4769    0.3545 C   0  0  0  0  0  0  0  0  0  0  0  0
   -1.8348   -1.3080    1.4071 H   0  0  0  0  0  0  0  0  0  0  0  0
   -0.4008   -1.9985    0.5406 H   0  0  0  0  0  0  0  0  0  0  0  0
    1.6443   -0.0960    2.0488 H   0  0  0  0  0  0  0  0  0  0  0  0
    2.8849   -0.1514   -0.1898 H   0  0  0  0  0  0  0  0  0  0  0  0
    0.8285   -0.8485   -1.7484 H   0  0  0  0  0  0  0  0  0  0  0  0
    1.1565    0.9163   -1.8936 H   0  0  0  0  0  0  0  0  0  0  0  0
   -0.0117    2.3006    0.3593 H   0  0  0  0  0  0  0  0  0  0  0  0
   -1.7779    1.7511    0.5181 H   0  0  0  0  0  0  0  0  0  0  0  0
  1  2  2  0
  2  3  1  0
  3  4  1  0
  4  5  1  0
  5  6  2  0
  6  7  1  0
  7  8  1  0
  8  9  1  0
  8  2  1  0
  8  4  1  0
  9  4  1  0
  3 10  1  0
  3 11  1  0
  5 12  1  0
  6 13  1  0
  7 14  1  0
  7 15  1  0
  9 16  1  0
  9 17  1  0
M  END
