
     RDKit          3D

 15 16  0  0  0  0  0  0  0  0999 V2000
   -0.1886   -0.7128   -2.2388 O   0  0  0  0  0  0  0  0  0  0  0  0
   -0.1113   -0.3049   -1.1593 C   0  0  0  0  0  0  0  0  0  0  0  0
   -0.4767    1.0322   -0.6324 C   0  0  0  0  0  0  0  0  0  0  0  0
   -1.4154    0.5623    0.4417 C   0  0  0  0  0  0  0  0  0  0  0  0
   -0.8703   -0.5398    0.9391 C   0  0  0  0  0  0  0  0  0  0  0  0
    0.3529   -0.8763    0.1143 C   0  0  0  0  0  0  0  0  0  0  0  0
    0.7874   -2.1151    0.1629 O   0  0  0  0  0  0  0  0  0  0  0  0
    1.3246    0.2166    0.4915 C   0  0  0  0  0  0  0  0  0  0  0  0
    0.7857    1.3623    0.0816 C   0  0  0  0  0  0  0  0  0  0  0  0
   -0.8584    1.7465   -1.3136 H   0  0  0  0  0  0  0  0  0  0  0  0
   -2.3229    1.0435    0.7172 H   0  0  0  0  0  0  0  0  0  0  0  0
   -1.2406   -1.0961    1.7867 H   0  0  0  0  0  0  0  0  0  0  0  0
    0.7671   -2.6682   -0.6382 H   0  0  0  0  0  0  0  0  0  0  0  0
    2.2569    0.0209    0.9960 H   0  0  0  0  0  0  0  0  0  0  0  0
    1.2094    2.3290    0.2513 H   0  0  0  0  0  0  0  0  0  0  0  0
  1  2  2  0
  2  3  1  0
  3  4  1  0
  4  5  2  0
  5  6  1  0
  6  7  1  0
  6  8  1  0
  8  9  2  0
  6  2  1  0
  9  3  1  0
  3 10  1  0
  4 11  1  0
  5 12  1  0
  7 13  1  0
  8 14  1  0
  9 15  1  0
M  END
