
     RDKit          3D

 17 18  0  0  0  0  0  0  0  0999 V2000
   -1.6892    0.5187   -1.9591 O   0  0  0  0  0  0  0  0  0  0  0  0
   -1.2479    0.3170   -0.8561 C   0  0  0  0  0  0  0  0  0  0  0  0
   -1.3838   -0.8983    0.0009 C   0  0  0  0  0  0  0  0  0  0  0  0
    0.0670   -1.1325    0.3880 C   0  0  0  0  0  0  0  0  0  0  0  0
    0.8292   -1.4426   -0.7457 O   0  0  0  0  0  0  0  0  0  0  0  0
    1.5050   -0.2108   -0.7128 C   0  0  0  0  0  0  0  0  0  0  0  0
    0.6710    0.2526    0.4339 C   0  0  0  0  0  0  0  0  0  0  0  0
    1.2916    0.5039    1.6178 O   0  0  0  0  0  0  0  0  0  0  0  0
   -0.4223    1.2146    0.0130 C   0  0  0  0  0  0  0  0  0  0  0  0
   -1.9154   -0.5643    0.9169 H   0  0  0  0  0  0  0  0  0  0  0  0
   -1.8410   -1.7447   -0.5081 H   0  0  0  0  0  0  0  0  0  0  0  0
    0.2343   -1.7587    1.2652 H   0  0  0  0  0  0  0  0  0  0  0  0
    2.5759   -0.3142   -0.5120 H   0  0  0  0  0  0  0  0  0  0  0  0
    1.3228    0.3074   -1.6855 H   0  0  0  0  0  0  0  0  0  0  0  0
    1.1289    1.3948    1.9626 H   0  0  0  0  0  0  0  0  0  0  0  0
   -1.0743    1.4598    0.8892 H   0  0  0  0  0  0  0  0  0  0  0  0
   -0.0515    2.0974   -0.5082 H   0  0  0  0  0  0  0  0  0  0  0  0
  1  2  2  0
  2  3  1  0
  3  4  1  0
  4  5  1  0
  5  6  1  0
  6  7  1  0
  7  8  1  0
  7  9  1  0
  9  2  1  0
  7  4  1  0
  3 10  1  0
  3 11  1  0
  4 12  1  0
  6 13  1  0
  6 14  1  0
  8 15  1  0
  9 16  1  0
  9 17  1  0
M  END
