
     RDKit          3D

 19 19  0  0  0  0  0  0  0  0999 V2000
   -1.1783    3.0224   -0.7117 O   0  0  0  0  0  0  0  0  0  0  0  0
   -0.6433    1.9505   -0.2519 C   0  0  0  0  0  0  0  0  0  0  0  0
   -1.6119    0.8904    0.0222 C   0  0  0  0  0  0  0  0  0  0  0  0
   -1.5184   -0.4317    0.0565 C   0  0  0  0  0  0  0  0  0  0  0  0
   -0.6822   -1.6025   -0.0917 C   0  0  0  0  0  0  0  0  0  0  0  0
    0.8169   -1.4990    0.1897 C   0  0  0  0  0  0  0  0  0  0  0  0
    1.0541   -0.1523    0.1058 C   0  0  0  0  0  0  0  0  0  0  0  0
    1.8245    1.0409    0.0611 C   0  0  0  0  0  0  0  0  0  0  0  0
    0.7730    2.0548   -0.1191 O   0  0  0  0  0  0  0  0  0  0  0  0
   -2.5900    1.2947    0.2357 H   0  0  0  0  0  0  0  0  0  0  0  0
   -2.5551   -0.7942    0.3175 H   0  0  0  0  0  0  0  0  0  0  0  0
   -0.8322   -1.9519   -1.1641 H   0  0  0  0  0  0  0  0  0  0  0  0
   -1.0428   -2.4359    0.5421 H   0  0  0  0  0  0  0  0  0  0  0  0
    1.0613   -1.9893    1.1587 H   0  0  0  0  0  0  0  0  0  0  0  0
    1.3165   -2.1143   -0.6133 H   0  0  0  0  0  0  0  0  0  0  0  0
    0.5052    0.0554   -0.8980 H   0  0  0  0  0  0  0  0  0  0  0  0
    0.4055    0.1564    1.0144 H   0  0  0  0  0  0  0  0  0  0  0  0
    2.5166    1.1331   -0.8161 H   0  0  0  0  0  0  0  0  0  0  0  0
    2.3804    1.3724    0.9624 H   0  0  0  0  0  0  0  0  0  0  0  0
  1  2  2  0
  2  3  1  0
  3  4  2  3
  4  5  1  0
  5  6  1  0
  6  7  1  0
  7  8  1  0
  8  9  1  0
  9  2  1  0
  3 10  1  0
  4 11  1  0
  5 12  1  0
  5 13  1  0
  6 14  1  0
  6 15  1  0
  7 16  1  0
  7 17  1  0
  8 18  1  0
  8 19  1  0
M  END
