
     RDKit          3D

 19 21  0  0  0  0  0  0  0  0999 V2000
   -2.1561   -2.2444    0.0629 O   0  0  0  0  0  0  0  0  0  0  0  0
   -1.2667   -1.4780   -0.0388 C   0  0  0  0  0  0  0  0  0  0  0  0
   -0.5336   -0.7627   -1.0932 C   0  0  0  0  0  0  0  0  0  0  0  0
   -0.9284    0.6607   -0.8176 C   0  0  0  0  0  0  0  0  0  0  0  0
   -0.6083    0.6918    0.6855 C   0  0  0  0  0  0  0  0  0  0  0  0
    0.7864    1.2469    0.7931 C   0  0  0  0  0  0  0  0  0  0  0  0
    1.5333    0.2532   -0.1135 C   0  0  0  0  0  0  0  0  0  0  0  0
    0.6962   -0.9740   -0.1894 C   0  0  0  0  0  0  0  0  0  0  0  0
   -0.3557   -0.7821    0.8904 C   0  0  0  0  0  0  0  0  0  0  0  0
   -0.4842   -1.1319   -2.0793 H   0  0  0  0  0  0  0  0  0  0  0  0
   -2.0320    0.7721   -0.9032 H   0  0  0  0  0  0  0  0  0  0  0  0
   -0.3611    1.4078   -1.3725 H   0  0  0  0  0  0  0  0  0  0  0  0
   -1.3608    1.1396    1.2915 H   0  0  0  0  0  0  0  0  0  0  0  0
    0.7897    2.2586    0.3487 H   0  0  0  0  0  0  0  0  0  0  0  0
    1.1958    1.2510    1.8033 H   0  0  0  0  0  0  0  0  0  0  0  0
    2.5482    0.0659    0.2636 H   0  0  0  0  0  0  0  0  0  0  0  0
    1.5468    0.7258   -1.1345 H   0  0  0  0  0  0  0  0  0  0  0  0
    1.1631   -1.9386   -0.2570 H   0  0  0  0  0  0  0  0  0  0  0  0
   -0.1729   -1.1616    1.8599 H   0  0  0  0  0  0  0  0  0  0  0  0
  1  2  2  0
  2  3  1  0
  3  4  1  0
  4  5  1  0
  5  6  1  0
  6  7  1  0
  7  8  1  0
  8  9  1  0
  9  2  1  0
  8  3  1  0
  9  5  1  0
  3 10  1  0
  4 11  1  0
  4 12  1  0
  5 13  1  0
  6 14  1  0
  6 15  1  0
  7 16  1  0
  7 17  1  0
  8 18  1  0
  9 19  1  0
M  END
