
     RDKit          3D

 17 18  0  0  0  0  0  0  0  0999 V2000
   -0.4931    2.6900   -0.0890 O   0  0  0  0  0  0  0  0  0  0  0  0
   -0.4424    1.5092   -0.2931 C   0  0  0  0  0  0  0  0  0  0  0  0
   -1.5056    0.5181    0.0533 C   0  0  0  0  0  0  0  0  0  0  0  0
   -0.6532   -0.5655    0.7237 C   0  0  0  0  0  0  0  0  0  0  0  0
   -1.3268   -1.7656    0.8119 O   0  0  0  0  0  0  0  0  0  0  0  0
    0.5258   -0.6582   -0.2217 C   0  0  0  0  0  0  0  0  0  0  0  0
    1.8383   -0.2237    0.3500 C   0  0  0  0  0  0  0  0  0  0  0  0
    1.9052    0.9040   -0.4629 O   0  0  0  0  0  0  0  0  0  0  0  0
    0.6292    0.6709   -0.9232 C   0  0  0  0  0  0  0  0  0  0  0  0
   -2.2733    0.9143    0.7083 H   0  0  0  0  0  0  0  0  0  0  0  0
   -1.8958    0.1315   -0.9213 H   0  0  0  0  0  0  0  0  0  0  0  0
   -0.3407   -0.1534    1.6913 H   0  0  0  0  0  0  0  0  0  0  0  0
   -1.5063   -2.0658   -0.1218 H   0  0  0  0  0  0  0  0  0  0  0  0
    0.5291   -1.5519   -0.8655 H   0  0  0  0  0  0  0  0  0  0  0  0
    1.8040    0.0085    1.4543 H   0  0  0  0  0  0  0  0  0  0  0  0
    2.7022   -0.9025    0.1166 H   0  0  0  0  0  0  0  0  0  0  0  0
    0.5035    0.5401   -2.0109 H   0  0  0  0  0  0  0  0  0  0  0  0
  1  2  2  0
  2  3  1  0
  3  4  1  0
  4  5  1  0
  4  6  1  0
  6  7  1  0
  7  8  1  0
  8  9  1  0
  9  2  1  0
  9  6  1  0
  3 10  1  0
  3 11  1  0
  4 12  1  0
  5 13  1  0
  6 14  1  0
  7 15  1  0
  7 16  1  0
  9 17  1  0
M  END
