
     RDKit          3D

 17 18  0  0  0  0  0  0  0  0999 V2000
   -3.1308    1.2355    0.4758 O   0  0  0  0  0  0  0  0  0  0  0  0
   -2.1699    0.5893    0.1940 C   0  0  0  0  0  0  0  0  0  0  0  0
   -1.7019   -0.7847    0.5055 C   0  0  0  0  0  0  0  0  0  0  0  0
   -0.3381   -0.3352    0.1656 C   0  0  0  0  0  0  0  0  0  0  0  0
   -0.9272    0.7720   -0.6020 C   0  0  0  0  0  0  0  0  0  0  0  0
    0.3612    0.2224    1.3579 O   0  0  0  0  0  0  0  0  0  0  0  0
    0.9062   -0.7379    0.4781 C   0  0  0  0  0  0  0  0  0  0  0  0
    2.1239   -0.2869   -0.3337 C   0  0  0  0  0  0  0  0  0  0  0  0
    1.7727    0.7956   -1.1096 O   0  0  0  0  0  0  0  0  0  0  0  0
   -1.8144   -1.1061    1.5530 H   0  0  0  0  0  0  0  0  0  0  0  0
   -2.0913   -1.5084   -0.2364 H   0  0  0  0  0  0  0  0  0  0  0  0
   -1.1423    0.5010   -1.6777 H   0  0  0  0  0  0  0  0  0  0  0  0
   -0.4527    1.7730   -0.5037 H   0  0  0  0  0  0  0  0  0  0  0  0
    1.1117   -1.6930    1.0088 H   0  0  0  0  0  0  0  0  0  0  0  0
    2.4739   -1.1098   -0.9763 H   0  0  0  0  0  0  0  0  0  0  0  0
    2.9348    0.0289    0.3412 H   0  0  0  0  0  0  0  0  0  0  0  0
    2.0840    1.6444   -0.7154 H   0  0  0  0  0  0  0  0  0  0  0  0
  1  2  2  0
  2  3  1  0
  3  4  1  0
  4  5  1  0
  4  6  1  0
  6  7  1  0
  7  8  1  0
  8  9  1  0
  5  2  1  0
  7  4  1  0
  3 10  1  0
  3 11  1  0
  5 12  1  0
  5 13  1  0
  7 14  1  0
  8 15  1  0
  8 16  1  0
  9 17  1  0
M  END
