
     RDKit          3D

 17 18  0  0  0  0  0  0  0  0999 V2000
   -3.0117   -0.7897    0.9191 O   0  0  0  0  0  0  0  0  0  0  0  0
   -2.1628   -0.0819    0.3121 C   0  0  0  0  0  0  0  0  0  0  0  0
   -2.2911    1.2220   -0.2128 O   0  0  0  0  0  0  0  0  0  0  0  0
   -0.8789    1.3718   -0.1519 C   0  0  0  0  0  0  0  0  0  0  0  0
   -0.8054   -0.0879   -0.1612 C   0  0  0  0  0  0  0  0  0  0  0  0
   -0.1897   -0.9539   -1.1214 C   0  0  0  0  0  0  0  0  0  0  0  0
    0.2845   -0.9210    0.2962 C   0  0  0  0  0  0  0  0  0  0  0  0
    1.5752   -0.2458    0.6634 C   0  0  0  0  0  0  0  0  0  0  0  0
    2.1492    0.4569   -0.3793 O   0  0  0  0  0  0  0  0  0  0  0  0
   -0.4256    1.8523   -1.0417 H   0  0  0  0  0  0  0  0  0  0  0  0
   -0.6156    1.8670    0.8126 H   0  0  0  0  0  0  0  0  0  0  0  0
    0.4392   -0.4908   -1.9319 H   0  0  0  0  0  0  0  0  0  0  0  0
   -0.6987   -1.8767   -1.5101 H   0  0  0  0  0  0  0  0  0  0  0  0
    0.1158   -1.8862    0.8446 H   0  0  0  0  0  0  0  0  0  0  0  0
    1.3457    0.4491    1.5092 H   0  0  0  0  0  0  0  0  0  0  0  0
    2.3383   -0.9484    1.0597 H   0  0  0  0  0  0  0  0  0  0  0  0
    2.8315    1.0630    0.0268 H   0  0  0  0  0  0  0  0  0  0  0  0
  1  2  2  0
  2  3  1  0
  3  4  1  0
  4  5  1  0
  5  6  1  0
  6  7  1  0
  7  8  1  0
  8  9  1  0
  5  2  1  0
  7  5  1  0
  4 10  1  0
  4 11  1  0
  6 12  1  0
  6 13  1  0
  7 14  1  0
  8 15  1  0
  8 16  1  0
  9 17  1  0
M  END
