
     RDKit          3D

 15 16  0  0  0  0  0  0  0  0999 V2000
   -0.1058    2.7275   -0.6951 O   0  0  0  0  0  0  0  0  0  0  0  0
   -0.0631    1.4884   -0.5558 C   0  0  0  0  0  0  0  0  0  0  0  0
   -0.1917    0.5484   -1.5695 O   0  0  0  0  0  0  0  0  0  0  0  0
   -0.0709   -0.7315   -0.9873 C   0  0  0  0  0  0  0  0  0  0  0  0
    1.3250   -0.8242   -0.4309 C   0  0  0  0  0  0  0  0  0  0  0  0
    1.4120   -0.0251    0.6251 C   0  0  0  0  0  0  0  0  0  0  0  0
    0.1287    0.7213    0.6798 C   0  0  0  0  0  0  0  0  0  0  0  0
   -0.8048   -0.4680    0.3429 C   0  0  0  0  0  0  0  0  0  0  0  0
   -2.0890   -0.0485    0.1345 O   0  0  0  0  0  0  0  0  0  0  0  0
   -0.4144   -1.5655   -1.5325 H   0  0  0  0  0  0  0  0  0  0  0  0
    2.0770   -1.4494   -0.8610 H   0  0  0  0  0  0  0  0  0  0  0  0
    2.2256    0.0817    1.3138 H   0  0  0  0  0  0  0  0  0  0  0  0
   -0.1060    1.1956    1.5995 H   0  0  0  0  0  0  0  0  0  0  0  0
   -0.6678   -1.2868    1.0402 H   0  0  0  0  0  0  0  0  0  0  0  0
   -2.6549   -0.3638    0.8963 H   0  0  0  0  0  0  0  0  0  0  0  0
  1  2  2  0
  2  3  1  0
  3  4  1  0
  4  5  1  0
  5  6  2  0
  6  7  1  0
  7  8  1  0
  8  9  1  0
  7  2  1  0
  8  4  1  0
  4 10  1  0
  5 11  1  0
  6 12  1  0
  7 13  1  0
  8 14  1  0
  9 15  1  0
M  END
