
     RDKit          3D

 17 18  0  0  0  0  0  0  0  0999 V2000
   -0.2288   -1.3896    1.9396 O   0  0  0  0  0  0  0  0  0  0  0  0
   -0.0700   -1.1069    0.7349 C   0  0  0  0  0  0  0  0  0  0  0  0
    0.7902   -1.5628   -0.2474 O   0  0  0  0  0  0  0  0  0  0  0  0
    0.6581   -0.2763   -0.8628 C   0  0  0  0  0  0  0  0  0  0  0  0
    1.6523    0.6661   -0.2215 C   0  0  0  0  0  0  0  0  0  0  0  0
    2.9694    0.2255   -0.3808 O   0  0  0  0  0  0  0  0  0  0  0  0
   -0.6561   -0.2138   -0.2203 C   0  0  0  0  0  0  0  0  0  0  0  0
   -1.9517   -0.3245   -0.8446 C   0  0  0  0  0  0  0  0  0  0  0  0
   -1.5187    0.9070   -0.0119 C   0  0  0  0  0  0  0  0  0  0  0  0
    0.6255   -0.2794   -1.9506 H   0  0  0  0  0  0  0  0  0  0  0  0
    1.4539    0.7153    0.8594 H   0  0  0  0  0  0  0  0  0  0  0  0
    1.6019    1.6882   -0.6309 H   0  0  0  0  0  0  0  0  0  0  0  0
    2.9231   -0.7437   -0.5602 H   0  0  0  0  0  0  0  0  0  0  0  0
   -2.0859   -0.1730   -1.9312 H   0  0  0  0  0  0  0  0  0  0  0  0
   -2.6853   -1.0115   -0.3515 H   0  0  0  0  0  0  0  0  0  0  0  0
   -1.4135    1.8629   -0.5563 H   0  0  0  0  0  0  0  0  0  0  0  0
   -2.0645    1.0163    0.9658 H   0  0  0  0  0  0  0  0  0  0  0  0
  1  2  2  0
  2  3  1  0
  3  4  1  0
  4  5  1  0
  5  6  1  0
  4  7  1  0
  7  8  1  0
  8  9  1  0
  7  2  1  0
  9  7  1  0
  4 10  1  0
  5 11  1  0
  5 12  1  0
  6 13  1  0
  8 14  1  0
  8 15  1  0
  9 16  1  0
  9 17  1  0
M  END
