
     RDKit          3D

 19 19  0  0  0  0  0  0  0  0999 V2000
   -2.2550    1.5006    1.4192 O   0  0  0  0  0  0  0  0  0  0  0  0
   -1.7948    0.8638    0.4569 C   0  0  0  0  0  0  0  0  0  0  0  0
   -2.3190   -0.3947   -0.0660 C   0  0  0  0  0  0  0  0  0  0  0  0
   -1.3670   -1.0452   -0.7128 C   0  0  0  0  0  0  0  0  0  0  0  0
   -0.1180   -0.2497   -0.6634 C   0  0  0  0  0  0  0  0  0  0  0  0
    0.6774   -0.7589    0.5220 C   0  0  0  0  0  0  0  0  0  0  0  0
    1.9861   -0.0138    0.6741 C   0  0  0  0  0  0  0  0  0  0  0  0
    2.7708   -0.1655   -0.4595 O   0  0  0  0  0  0  0  0  0  0  0  0
   -0.6234    1.1536   -0.4331 C   0  0  0  0  0  0  0  0  0  0  0  0
   -3.3560   -0.7459    0.0623 H   0  0  0  0  0  0  0  0  0  0  0  0
   -1.4665   -2.0156   -1.2105 H   0  0  0  0  0  0  0  0  0  0  0  0
    0.4538   -0.3404   -1.6104 H   0  0  0  0  0  0  0  0  0  0  0  0
    0.0594   -0.7296    1.4149 H   0  0  0  0  0  0  0  0  0  0  0  0
    0.9334   -1.8195    0.3099 H   0  0  0  0  0  0  0  0  0  0  0  0
    2.5765   -0.4048    1.5270 H   0  0  0  0  0  0  0  0  0  0  0  0
    1.7963    1.0621    0.9112 H   0  0  0  0  0  0  0  0  0  0  0  0
    2.9697    0.7489   -0.8203 H   0  0  0  0  0  0  0  0  0  0  0  0
   -1.0284    1.5415   -1.3748 H   0  0  0  0  0  0  0  0  0  0  0  0
    0.1047    1.8131    0.0533 H   0  0  0  0  0  0  0  0  0  0  0  0
  1  2  2  0
  2  3  1  0
  3  4  2  0
  4  5  1  0
  5  6  1  0
  6  7  1  0
  7  8  1  0
  5  9  1  0
  9  2  1  0
  3 10  1  0
  4 11  1  0
  5 12  1  0
  6 13  1  0
  6 14  1  0
  7 15  1  0
  7 16  1  0
  8 17  1  0
  9 18  1  0
  9 19  1  0
M  END
