
     RDKit          3D

 17 18  0  0  0  0  0  0  0  0999 V2000
    2.9078   -0.7244    0.4914 O   0  0  0  0  0  0  0  0  0  0  0  0
    1.9333   -0.0787    0.1698 C   0  0  0  0  0  0  0  0  0  0  0  0
    1.0251   -0.0775   -1.0057 C   0  0  0  0  0  0  0  0  0  0  0  0
   -0.0605    0.4483   -0.0585 C   0  0  0  0  0  0  0  0  0  0  0  0
   -0.8893    1.3828   -0.6351 O   0  0  0  0  0  0  0  0  0  0  0  0
   -0.7178   -0.6991    0.6296 C   0  0  0  0  0  0  0  0  0  0  0  0
   -2.1214   -0.8856    0.7745 C   0  0  0  0  0  0  0  0  0  0  0  0
   -1.5463   -1.4329   -0.3639 O   0  0  0  0  0  0  0  0  0  0  0  0
    1.1124    1.0291    0.7210 C   0  0  0  0  0  0  0  0  0  0  0  0
    0.7907   -1.0444   -1.4493 H   0  0  0  0  0  0  0  0  0  0  0  0
    1.2704    0.6570   -1.7964 H   0  0  0  0  0  0  0  0  0  0  0  0
   -0.8104    1.4111   -1.6213 H   0  0  0  0  0  0  0  0  0  0  0  0
   -0.0052   -1.4156    1.0977 H   0  0  0  0  0  0  0  0  0  0  0  0
   -2.4979   -1.6051    1.5283 H   0  0  0  0  0  0  0  0  0  0  0  0
   -2.8185   -0.0126    0.6472 H   0  0  0  0  0  0  0  0  0  0  0  0
    0.9762    1.0535    1.7987 H   0  0  0  0  0  0  0  0  0  0  0  0
    1.4513    1.9942    0.2555 H   0  0  0  0  0  0  0  0  0  0  0  0
  1  2  2  0
  2  3  1  0
  3  4  1  0
  4  5  1  0
  4  6  1  0
  6  7  1  0
  7  8  1  0
  4  9  1  0
  9  2  1  0
  8  6  1  0
  3 10  1  0
  3 11  1  0
  5 12  1  0
  6 13  1  0
  7 14  1  0
  7 15  1  0
  9 16  1  0
  9 17  1  0
M  END
