
     RDKit          3D

 17 19  0  0  0  0  0  0  0  0999 V2000
    2.7324    1.0599   -0.7528 O   0  0  0  0  0  0  0  0  0  0  0  0
    1.8005    0.6763   -0.1125 C   0  0  0  0  0  0  0  0  0  0  0  0
    0.6793    1.5722    0.2957 C   0  0  0  0  0  0  0  0  0  0  0  0
   -0.5261    1.0396    0.2670 C   0  0  0  0  0  0  0  0  0  0  0  0
   -1.8951    0.5083    0.2590 C   0  0  0  0  0  0  0  0  0  0  0  0
   -1.1680   -0.8889    0.3334 C   0  0  0  0  0  0  0  0  0  0  0  0
    0.1684   -1.1928   -0.0805 C   0  0  0  0  0  0  0  0  0  0  0  0
    1.5212   -0.7314    0.4277 C   0  0  0  0  0  0  0  0  0  0  0  0
   -0.4188   -0.1347   -0.8267 C   0  0  0  0  0  0  0  0  0  0  0  0
    0.7770    2.5794    0.5885 H   0  0  0  0  0  0  0  0  0  0  0  0
   -2.5553    0.6963    1.0925 H   0  0  0  0  0  0  0  0  0  0  0  0
   -2.3937    0.6743   -0.7072 H   0  0  0  0  0  0  0  0  0  0  0  0
   -1.9678   -1.6117   -0.0146 H   0  0  0  0  0  0  0  0  0  0  0  0
    0.3040   -2.1670   -0.6551 H   0  0  0  0  0  0  0  0  0  0  0  0
    2.3546   -1.3340    0.0801 H   0  0  0  0  0  0  0  0  0  0  0  0
    1.5270   -0.7461    1.5293 H   0  0  0  0  0  0  0  0  0  0  0  0
   -0.9395    0.0003   -1.7238 H   0  0  0  0  0  0  0  0  0  0  0  0
  1  2  2  0
  2  3  1  0
  3  4  2  0
  4  5  1  0
  5  6  1  0
  6  7  1  0
  7  8  1  0
  7  9  1  0
  8  2  1  0
  9  4  1  0
  9  6  1  0
  3 10  1  0
  5 11  1  0
  5 12  1  0
  6 13  1  0
  7 14  1  0
  8 15  1  0
  8 16  1  0
  9 17  1  0
M  END
