
     RDKit          3D

 14 14  0  0  0  0  0  0  0  0999 V2000
    1.4559   -1.9238   -1.2026 O   0  0  0  0  0  0  0  0  0  0  0  0
    0.6985   -1.1530   -0.5802 C   0  0  0  0  0  0  0  0  0  0  0  0
   -0.5933   -1.5376   -0.3491 O   0  0  0  0  0  0  0  0  0  0  0  0
   -1.6067   -0.6417    0.0655 C   0  0  0  0  0  0  0  0  0  0  0  0
   -1.1983    0.7645   -0.0166 C   0  0  0  0  0  0  0  0  0  0  0  0
    0.0682    1.1574   -0.0921 C   0  0  0  0  0  0  0  0  0  0  0  0
    1.1779    0.1530   -0.0974 C   0  0  0  0  0  0  0  0  0  0  0  0
    1.6668    0.0519    1.2027 O   0  0  0  0  0  0  0  0  0  0  0  0
   -2.5161   -0.8854   -0.5304 H   0  0  0  0  0  0  0  0  0  0  0  0
   -1.8634   -0.9454    1.1188 H   0  0  0  0  0  0  0  0  0  0  0  0
   -1.9591    1.5372   -0.0168 H   0  0  0  0  0  0  0  0  0  0  0  0
    0.3239    2.2152   -0.1516 H   0  0  0  0  0  0  0  0  0  0  0  0
    1.9946    0.4953   -0.7621 H   0  0  0  0  0  0  0  0  0  0  0  0
    2.3512    0.7124    1.4118 H   0  0  0  0  0  0  0  0  0  0  0  0
  1  2  2  0
  2  3  1  0
  3  4  1  0
  4  5  1  0
  5  6  2  0
  6  7  1  0
  7  8  1  0
  7  2  1  0
  4  9  1  0
  4 10  1  0
  5 11  1  0
  6 12  1  0
  7 13  1  0
  8 14  1  0
M  END
