
     RDKit          3D

 17 17  0  0  0  0  0  0  0  0999 V2000
   -2.9262   -1.0763    0.0020 O   0  0  0  0  0  0  0  0  0  0  0  0
   -1.8319   -0.5957   -0.0689 C   0  0  0  0  0  0  0  0  0  0  0  0
   -0.5488   -0.9675   -0.6944 C   0  0  0  0  0  0  0  0  0  0  0  0
    0.1215   -0.1844    0.4354 C   0  0  0  0  0  0  0  0  0  0  0  0
    0.3352   -0.9728    1.5374 O   0  0  0  0  0  0  0  0  0  0  0  0
    1.3593    0.5532    0.0036 C   0  0  0  0  0  0  0  0  0  0  0  0
    2.3317   -0.3854   -0.3038 O   0  0  0  0  0  0  0  0  0  0  0  0
   -1.1558    0.6212    0.4209 C   0  0  0  0  0  0  0  0  0  0  0  0
   -1.0896    1.5666   -0.6250 O   0  0  0  0  0  0  0  0  0  0  0  0
   -0.4303   -0.4114   -1.6568 H   0  0  0  0  0  0  0  0  0  0  0  0
   -0.2969   -2.0341   -0.7208 H   0  0  0  0  0  0  0  0  0  0  0  0
    0.0751   -1.9251    1.3532 H   0  0  0  0  0  0  0  0  0  0  0  0
    1.7014    1.1526    0.8721 H   0  0  0  0  0  0  0  0  0  0  0  0
    1.2031    1.2343   -0.8306 H   0  0  0  0  0  0  0  0  0  0  0  0
    3.1261    0.0969   -0.6834 H   0  0  0  0  0  0  0  0  0  0  0  0
   -1.4866    1.0259    1.3833 H   0  0  0  0  0  0  0  0  0  0  0  0
   -0.4871    2.3022   -0.4244 H   0  0  0  0  0  0  0  0  0  0  0  0
  1  2  2  0
  2  3  1  0
  3  4  1  0
  4  5  1  0
  4  6  1  0
  6  7  1  0
  4  8  1  0
  8  9  1  0
  8  2  1  0
  3 10  1  0
  3 11  1  0
  5 12  1  0
  6 13  1  0
  6 14  1  0
  7 15  1  0
  8 16  1  0
  9 17  1  0
M  END
