
     RDKit          3D

 19 19  0  0  0  0  0  0  0  0999 V2000
    0.0359   -1.2953    2.1588 O   0  0  0  0  0  0  0  0  0  0  0  0
   -0.2400   -0.8191    1.0733 C   0  0  0  0  0  0  0  0  0  0  0  0
   -1.2579   -1.3184    0.1134 C   0  0  0  0  0  0  0  0  0  0  0  0
   -1.1978   -0.4156   -1.0831 C   0  0  0  0  0  0  0  0  0  0  0  0
   -0.5129    0.8193   -0.5540 C   0  0  0  0  0  0  0  0  0  0  0  0
   -1.5198    1.5897    0.0716 O   0  0  0  0  0  0  0  0  0  0  0  0
    0.4348    0.3888    0.5259 C   0  0  0  0  0  0  0  0  0  0  0  0
    1.7772   -0.0535   -0.0092 C   0  0  0  0  0  0  0  0  0  0  0  0
    2.5014    1.0046   -0.5505 O   0  0  0  0  0  0  0  0  0  0  0  0
   -1.0202   -2.3519   -0.2297 H   0  0  0  0  0  0  0  0  0  0  0  0
   -2.2404   -1.2327    0.5803 H   0  0  0  0  0  0  0  0  0  0  0  0
   -2.2400   -0.1857   -1.4241 H   0  0  0  0  0  0  0  0  0  0  0  0
   -0.6652   -0.8624   -1.9417 H   0  0  0  0  0  0  0  0  0  0  0  0
   -0.0632    1.4458   -1.3253 H   0  0  0  0  0  0  0  0  0  0  0  0
   -1.1815    1.9474    0.9461 H   0  0  0  0  0  0  0  0  0  0  0  0
    0.5402    1.1812    1.2854 H   0  0  0  0  0  0  0  0  0  0  0  0
    1.6418   -0.8817   -0.7204 H   0  0  0  0  0  0  0  0  0  0  0  0
    2.3354   -0.4775    0.8719 H   0  0  0  0  0  0  0  0  0  0  0  0
    2.8724    1.5171    0.2111 H   0  0  0  0  0  0  0  0  0  0  0  0
  1  2  2  0
  2  3  1  0
  3  4  1  0
  4  5  1  0
  5  6  1  0
  5  7  1  0
  7  8  1  0
  8  9  1  0
  7  2  1  0
  3 10  1  0
  3 11  1  0
  4 12  1  0
  4 13  1  0
  5 14  1  0
  6 15  1  0
  7 16  1  0
  8 17  1  0
  8 18  1  0
  9 19  1  0
M  END
