
     RDKit          3D

 21 21  0  0  0  0  0  0  0  0999 V2000
   -1.8532    1.2597    1.1771 O   0  0  0  0  0  0  0  0  0  0  0  0
   -1.4047    0.6700    0.2072 C   0  0  0  0  0  0  0  0  0  0  0  0
   -1.7393   -0.7549    0.1212 C   0  0  0  0  0  0  0  0  0  0  0  0
   -0.5548   -1.6692    0.2106 C   0  0  0  0  0  0  0  0  0  0  0  0
    0.7220   -0.9530    0.5806 C   0  0  0  0  0  0  0  0  0  0  0  0
    1.2144   -0.0248   -0.4809 C   0  0  0  0  0  0  0  0  0  0  0  0
    2.6279   -0.0474   -0.4406 O   0  0  0  0  0  0  0  0  0  0  0  0
    0.8440    1.4354   -0.1904 C   0  0  0  0  0  0  0  0  0  0  0  0
   -0.6033    1.5728   -0.6764 C   0  0  0  0  0  0  0  0  0  0  0  0
   -2.1943   -0.9238   -0.8985 H   0  0  0  0  0  0  0  0  0  0  0  0
   -2.5256   -1.0071    0.8442 H   0  0  0  0  0  0  0  0  0  0  0  0
   -0.7508   -2.4213    1.0022 H   0  0  0  0  0  0  0  0  0  0  0  0
   -0.3494   -2.2263   -0.7170 H   0  0  0  0  0  0  0  0  0  0  0  0
    1.4908   -1.7699    0.7134 H   0  0  0  0  0  0  0  0  0  0  0  0
    0.6592   -0.4639    1.5792 H   0  0  0  0  0  0  0  0  0  0  0  0
    0.8311   -0.3002   -1.4653 H   0  0  0  0  0  0  0  0  0  0  0  0
    2.8406    0.1006    0.5357 H   0  0  0  0  0  0  0  0  0  0  0  0
    0.8054    1.5731    0.9105 H   0  0  0  0  0  0  0  0  0  0  0  0
    1.5173    2.1375   -0.6796 H   0  0  0  0  0  0  0  0  0  0  0  0
   -0.9381    2.6054   -0.5943 H   0  0  0  0  0  0  0  0  0  0  0  0
   -0.6392    1.2073   -1.7390 H   0  0  0  0  0  0  0  0  0  0  0  0
  1  2  2  0
  2  3  1  0
  3  4  1  0
  4  5  1  0
  5  6  1  0
  6  7  1  0
  6  8  1  0
  8  9  1  0
  9  2  1  0
  3 10  1  0
  3 11  1  0
  4 12  1  0
  4 13  1  0
  5 14  1  0
  5 15  1  0
  6 16  1  0
  7 17  1  0
  8 18  1  0
  8 19  1  0
  9 20  1  0
  9 21  1  0
M  END
