
     RDKit          3D

 17 18  0  0  0  0  0  0  0  0999 V2000
   -1.5915   -1.2427   -1.8195 O   0  0  0  0  0  0  0  0  0  0  0  0
   -1.2095   -0.5709   -0.8802 C   0  0  0  0  0  0  0  0  0  0  0  0
   -0.8516    0.8155   -0.6184 C   0  0  0  0  0  0  0  0  0  0  0  0
   -1.0593    0.5790    0.8488 C   0  0  0  0  0  0  0  0  0  0  0  0
   -0.9090   -0.8808    0.5427 C   0  0  0  0  0  0  0  0  0  0  0  0
    0.3565   -1.3658    0.6229 O   0  0  0  0  0  0  0  0  0  0  0  0
    1.3728   -0.4757    0.5205 C   0  0  0  0  0  0  0  0  0  0  0  0
    1.4235    0.3389   -0.7183 C   0  0  0  0  0  0  0  0  0  0  0  0
    0.4112    1.1898   -0.9586 O   0  0  0  0  0  0  0  0  0  0  0  0
   -1.5931    1.5500   -0.9969 H   0  0  0  0  0  0  0  0  0  0  0  0
   -0.3669    1.0340    1.5424 H   0  0  0  0  0  0  0  0  0  0  0  0
   -2.1140    0.7959    1.1620 H   0  0  0  0  0  0  0  0  0  0  0  0
   -1.6758   -1.5153    1.0497 H   0  0  0  0  0  0  0  0  0  0  0  0
    2.3319   -1.0787    0.5406 H   0  0  0  0  0  0  0  0  0  0  0  0
    1.4907    0.2013    1.4147 H   0  0  0  0  0  0  0  0  0  0  0  0
    1.6136   -0.3299   -1.6070 H   0  0  0  0  0  0  0  0  0  0  0  0
    2.3705    0.9553   -0.6453 H   0  0  0  0  0  0  0  0  0  0  0  0
  1  2  2  0
  2  3  1  0
  3  4  1  0
  4  5  1  0
  5  6  1  0
  6  7  1  0
  7  8  1  0
  8  9  1  0
  5  2  1  0
  9  3  1  0
  3 10  1  0
  4 11  1  0
  4 12  1  0
  5 13  1  0
  7 14  1  0
  7 15  1  0
  8 16  1  0
  8 17  1  0
M  END
