
     RDKit          3D

 14 14  0  0  0  0  0  0  0  0999 V2000
    3.1093    0.1662   -0.5681 O   0  0  0  0  0  0  0  0  0  0  0  0
    1.8738    0.0873   -0.3295 C   0  0  0  0  0  0  0  0  0  0  0  0
    1.2656   -1.1634   -0.2933 O   0  0  0  0  0  0  0  0  0  0  0  0
   -0.0427   -1.2481    0.2683 C   0  0  0  0  0  0  0  0  0  0  0  0
   -0.7819   -0.0282   -0.2572 C   0  0  0  0  0  0  0  0  0  0  0  0
   -2.1364   -0.0958   -0.0837 O   0  0  0  0  0  0  0  0  0  0  0  0
   -0.1471    1.1690    0.4449 C   0  0  0  0  0  0  0  0  0  0  0  0
    1.1737    1.2660   -0.1121 O   0  0  0  0  0  0  0  0  0  0  0  0
   -0.5490   -2.1925    0.0200 H   0  0  0  0  0  0  0  0  0  0  0  0
    0.1088   -1.1194    1.3778 H   0  0  0  0  0  0  0  0  0  0  0  0
   -0.5081    0.0671   -1.3366 H   0  0  0  0  0  0  0  0  0  0  0  0
   -2.6524    0.0736   -0.9324 H   0  0  0  0  0  0  0  0  0  0  0  0
    0.0126    0.9254    1.5177 H   0  0  0  0  0  0  0  0  0  0  0  0
   -0.7261    2.0928    0.2843 H   0  0  0  0  0  0  0  0  0  0  0  0
  1  2  2  0
  2  3  1  0
  3  4  1  0
  4  5  1  0
  5  6  1  0
  5  7  1  0
  7  8  1  0
  8  2  1  0
  4  9  1  0
  4 10  1  0
  5 11  1  0
  6 12  1  0
  7 13  1  0
  7 14  1  0
M  END
