
     RDKit          3D

 21 21  0  0  0  0  0  0  0  0999 V2000
   -2.5108    0.0245    1.8154 O   0  0  0  0  0  0  0  0  0  0  0  0
   -1.8430    0.0044    0.8235 C   0  0  0  0  0  0  0  0  0  0  0  0
   -1.3608   -1.2686    0.2648 C   0  0  0  0  0  0  0  0  0  0  0  0
    0.1679   -1.1652    0.2744 C   0  0  0  0  0  0  0  0  0  0  0  0
    0.5364   -0.0195   -0.6241 C   0  0  0  0  0  0  0  0  0  0  0  0
    2.0359    0.0348   -0.7194 C   0  0  0  0  0  0  0  0  0  0  0  0
    2.5813    0.2298    0.5655 O   0  0  0  0  0  0  0  0  0  0  0  0
   -0.0074    1.3033   -0.1640 C   0  0  0  0  0  0  0  0  0  0  0  0
   -1.4802    1.2445    0.1280 C   0  0  0  0  0  0  0  0  0  0  0  0
   -1.7087   -2.1603    0.8143 H   0  0  0  0  0  0  0  0  0  0  0  0
   -1.6388   -1.3750   -0.8140 H   0  0  0  0  0  0  0  0  0  0  0  0
    0.4591   -1.0077    1.3219 H   0  0  0  0  0  0  0  0  0  0  0  0
    0.5546   -2.0877   -0.1626 H   0  0  0  0  0  0  0  0  0  0  0  0
    0.1363   -0.2248   -1.6242 H   0  0  0  0  0  0  0  0  0  0  0  0
    2.4402   -0.9253   -1.1048 H   0  0  0  0  0  0  0  0  0  0  0  0
    2.4015    0.8170   -1.4238 H   0  0  0  0  0  0  0  0  0  0  0  0
    2.4432   -0.6186    1.0426 H   0  0  0  0  0  0  0  0  0  0  0  0
    0.1282    2.0255   -1.0019 H   0  0  0  0  0  0  0  0  0  0  0  0
    0.5110    1.7151    0.7179 H   0  0  0  0  0  0  0  0  0  0  0  0
   -2.0913    1.2927   -0.8181 H   0  0  0  0  0  0  0  0  0  0  0  0
   -1.7545    2.1611    0.6887 H   0  0  0  0  0  0  0  0  0  0  0  0
  1  2  2  0
  2  3  1  0
  3  4  1  0
  4  5  1  0
  5  6  1  0
  6  7  1  0
  5  8  1  0
  8  9  1  0
  9  2  1  0
  3 10  1  0
  3 11  1  0
  4 12  1  0
  4 13  1  0
  5 14  1  0
  6 15  1  0
  6 16  1  0
  7 17  1  0
  8 18  1  0
  8 19  1  0
  9 20  1  0
  9 21  1  0
M  END
