
     RDKit          3D

 17 17  0  0  0  0  0  0  0  0999 V2000
   -0.1770    2.9355   -0.1505 O   0  0  0  0  0  0  0  0  0  0  0  0
    0.0706    1.7089    0.1197 C   0  0  0  0  0  0  0  0  0  0  0  0
   -1.1211    0.8831    0.2554 C   0  0  0  0  0  0  0  0  0  0  0  0
   -1.0181   -0.5328   -0.1533 C   0  0  0  0  0  0  0  0  0  0  0  0
   -1.8227   -1.2924    0.7282 O   0  0  0  0  0  0  0  0  0  0  0  0
    0.3267   -1.1448   -0.1857 C   0  0  0  0  0  0  0  0  0  0  0  0
    1.2279   -0.6926    0.7466 O   0  0  0  0  0  0  0  0  0  0  0  0
    2.0590    0.2212    0.1002 C   0  0  0  0  0  0  0  0  0  0  0  0
    1.4393    1.4883    0.2135 O   0  0  0  0  0  0  0  0  0  0  0  0
   -1.9431    1.3496   -0.3644 H   0  0  0  0  0  0  0  0  0  0  0  0
   -1.5185    0.9771    1.3096 H   0  0  0  0  0  0  0  0  0  0  0  0
   -1.4903   -0.7034   -1.1661 H   0  0  0  0  0  0  0  0  0  0  0  0
   -2.2389   -2.0602    0.2564 H   0  0  0  0  0  0  0  0  0  0  0  0
    0.7298   -1.0764   -1.2377 H   0  0  0  0  0  0  0  0  0  0  0  0
    0.2090   -2.2537   -0.0060 H   0  0  0  0  0  0  0  0  0  0  0  0
    2.1845   -0.0368   -0.9869 H   0  0  0  0  0  0  0  0  0  0  0  0
    3.0828    0.2295    0.5210 H   0  0  0  0  0  0  0  0  0  0  0  0
  1  2  2  0
  2  3  1  0
  3  4  1  0
  4  5  1  0
  4  6  1  0
  6  7  1  0
  7  8  1  0
  8  9  1  0
  9  2  1  0
  3 10  1  0
  3 11  1  0
  4 12  1  0
  5 13  1  0
  6 14  1  0
  6 15  1  0
  8 16  1  0
  8 17  1  0
M  END
