
     RDKit          3D

 15 15  0  0  0  0  0  0  0  0999 V2000
    0.9320    2.0669   -1.0555 O   0  0  0  0  0  0  0  0  0  0  0  0
    0.4123    1.1800   -0.4332 C   0  0  0  0  0  0  0  0  0  0  0  0
   -1.0579    1.0232   -0.1158 C   0  0  0  0  0  0  0  0  0  0  0  0
   -1.2499   -0.4062    0.2771 C   0  0  0  0  0  0  0  0  0  0  0  0
    0.0223   -1.0832   -0.2249 C   0  0  0  0  0  0  0  0  0  0  0  0
    1.0328   -0.0109    0.2038 C   0  0  0  0  0  0  0  0  0  0  0  0
    2.2994   -0.2778   -0.2623 O   0  0  0  0  0  0  0  0  0  0  0  0
   -1.6849    1.2915   -0.9647 H   0  0  0  0  0  0  0  0  0  0  0  0
   -1.2174    1.6761    0.7830 H   0  0  0  0  0  0  0  0  0  0  0  0
   -2.1447   -0.8793   -0.1264 H   0  0  0  0  0  0  0  0  0  0  0  0
   -1.2264   -0.4982    1.3797 H   0  0  0  0  0  0  0  0  0  0  0  0
    0.2103   -2.0383    0.2715 H   0  0  0  0  0  0  0  0  0  0  0  0
    0.0585   -1.1168   -1.3210 H   0  0  0  0  0  0  0  0  0  0  0  0
    0.9459    0.0782    1.2910 H   0  0  0  0  0  0  0  0  0  0  0  0
    2.6678   -1.0053    0.2976 H   0  0  0  0  0  0  0  0  0  0  0  0
  1  2  2  0
  2  3  1  0
  3  4  1  0
  4  5  1  0
  5  6  1  0
  6  7  1  0
  6  2  1  0
  3  8  1  0
  3  9  1  0
  4 10  1  0
  4 11  1  0
  5 12  1  0
  5 13  1  0
  6 14  1  0
  7 15  1  0
M  END
