
     RDKit          3D

 17 18  0  0  0  0  0  0  0  0999 V2000
    0.5273    0.2527    2.4320 O   0  0  0  0  0  0  0  0  0  0  0  0
    0.2394   -0.0697    1.3139 C   0  0  0  0  0  0  0  0  0  0  0  0
   -0.7832   -0.7797    0.5108 C   0  0  0  0  0  0  0  0  0  0  0  0
   -1.6555    0.1842   -0.2845 C   0  0  0  0  0  0  0  0  0  0  0  0
   -0.9242    0.9168   -1.1861 O   0  0  0  0  0  0  0  0  0  0  0  0
    0.2679    1.3367   -0.6461 C   0  0  0  0  0  0  0  0  0  0  0  0
    0.9482    0.1656    0.0024 C   0  0  0  0  0  0  0  0  0  0  0  0
    2.3070    0.2351    0.0730 O   0  0  0  0  0  0  0  0  0  0  0  0
    0.3589   -1.1614   -0.4424 C   0  0  0  0  0  0  0  0  0  0  0  0
   -1.2967   -1.6141    0.9760 H   0  0  0  0  0  0  0  0  0  0  0  0
   -2.2485    0.8463    0.3572 H   0  0  0  0  0  0  0  0  0  0  0  0
   -2.3464   -0.4722   -0.8812 H   0  0  0  0  0  0  0  0  0  0  0  0
    0.0190    2.0572    0.1825 H   0  0  0  0  0  0  0  0  0  0  0  0
    0.9083    1.8707   -1.3415 H   0  0  0  0  0  0  0  0  0  0  0  0
    2.6886   -0.5353    0.5158 H   0  0  0  0  0  0  0  0  0  0  0  0
    0.0299   -1.2247   -1.4742 H   0  0  0  0  0  0  0  0  0  0  0  0
    0.9597   -2.0081   -0.1076 H   0  0  0  0  0  0  0  0  0  0  0  0
  1  2  2  0
  2  3  1  0
  3  4  1  0
  4  5  1  0
  5  6  1  0
  6  7  1  0
  7  8  1  0
  7  9  1  0
  7  2  1  0
  9  3  1  0
  3 10  1  0
  4 11  1  0
  4 12  1  0
  6 13  1  0
  6 14  1  0
  8 15  1  0
  9 16  1  0
  9 17  1  0
M  END
