
     RDKit          3D

 17 18  0  0  0  0  0  0  0  0999 V2000
    0.1537   -2.6035   -0.7024 O   0  0  0  0  0  0  0  0  0  0  0  0
    0.0288   -1.4182   -0.4342 C   0  0  0  0  0  0  0  0  0  0  0  0
   -1.1540   -0.5587   -0.6701 C   0  0  0  0  0  0  0  0  0  0  0  0
   -0.4464    0.7694   -1.0043 C   0  0  0  0  0  0  0  0  0  0  0  0
    0.3203    0.7876    0.3308 C   0  0  0  0  0  0  0  0  0  0  0  0
   -0.8380    0.5303    1.2666 C   0  0  0  0  0  0  0  0  0  0  0  0
   -1.7706   -0.1923    0.5395 O   0  0  0  0  0  0  0  0  0  0  0  0
    1.0603   -0.5200    0.2128 C   0  0  0  0  0  0  0  0  0  0  0  0
    2.1962   -0.4342   -0.5785 O   0  0  0  0  0  0  0  0  0  0  0  0
   -1.8373   -0.8802   -1.4245 H   0  0  0  0  0  0  0  0  0  0  0  0
    0.2175    0.6473   -1.8575 H   0  0  0  0  0  0  0  0  0  0  0  0
   -1.1770    1.5722   -1.0676 H   0  0  0  0  0  0  0  0  0  0  0  0
    0.8952    1.6624    0.5010 H   0  0  0  0  0  0  0  0  0  0  0  0
   -0.4926   -0.1304    2.0907 H   0  0  0  0  0  0  0  0  0  0  0  0
   -1.2441    1.4592    1.7065 H   0  0  0  0  0  0  0  0  0  0  0  0
    1.2833   -0.8935    1.2180 H   0  0  0  0  0  0  0  0  0  0  0  0
    2.8044    0.2025   -0.1268 H   0  0  0  0  0  0  0  0  0  0  0  0
  1  2  2  0
  2  3  1  0
  3  4  1  0
  4  5  1  0
  5  6  1  0
  6  7  1  0
  5  8  1  0
  8  9  1  0
  8  2  1  0
  7  3  1  0
  3 10  1  0
  4 11  1  0
  4 12  1  0
  5 13  1  0
  6 14  1  0
  6 15  1  0
  8 16  1  0
  9 17  1  0
M  END
