
     RDKit          3D

 15 17  0  0  0  0  0  0  0  0999 V2000
    3.0821   -0.8592    0.4223 O   0  0  0  0  0  0  0  0  0  0  0  0
    1.9779   -0.2743    0.3285 C   0  0  0  0  0  0  0  0  0  0  0  0
    1.6608    1.0888    0.3288 O   0  0  0  0  0  0  0  0  0  0  0  0
    0.2448    1.0533    0.2308 C   0  0  0  0  0  0  0  0  0  0  0  0
   -0.2364   -0.1102    1.0538 C   0  0  0  0  0  0  0  0  0  0  0  0
   -1.2818   -0.3083   -0.0048 C   0  0  0  0  0  0  0  0  0  0  0  0
   -2.2469    0.6668   -0.1106 O   0  0  0  0  0  0  0  0  0  0  0  0
   -0.0320   -0.0149   -0.7824 C   0  0  0  0  0  0  0  0  0  0  0  0
    0.6743   -0.9173    0.1873 C   0  0  0  0  0  0  0  0  0  0  0  0
   -0.3029    1.9633    0.2214 H   0  0  0  0  0  0  0  0  0  0  0  0
   -0.3509   -0.1473    2.0465 H   0  0  0  0  0  0  0  0  0  0  0  0
   -1.6339   -1.3595   -0.1201 H   0  0  0  0  0  0  0  0  0  0  0  0
   -2.2084    1.1589   -0.9873 H   0  0  0  0  0  0  0  0  0  0  0  0
    0.0809    0.0284   -1.7733 H   0  0  0  0  0  0  0  0  0  0  0  0
    0.5726   -1.9684    0.1146 H   0  0  0  0  0  0  0  0  0  0  0  0
  1  2  2  0
  2  3  1  0
  3  4  1  0
  4  5  1  0
  5  6  1  0
  6  7  1  0
  6  8  1  0
  8  9  1  0
  9  2  1  0
  8  4  1  0
  9  5  1  0
  4 10  1  0
  5 11  1  0
  6 12  1  0
  7 13  1  0
  8 14  1  0
  9 15  1  0
M  END
