
     RDKit          3D

 19 20  0  0  0  0  0  0  0  0999 V2000
    1.4960    1.7426    1.8656 O   0  0  0  0  0  0  0  0  0  0  0  0
    1.3052    1.0335    0.9060 C   0  0  0  0  0  0  0  0  0  0  0  0
    1.8299   -0.2613    0.4472 C   0  0  0  0  0  0  0  0  0  0  0  0
    0.7539   -0.3476   -0.6357 C   0  0  0  0  0  0  0  0  0  0  0  0
   -0.2987   -1.3343   -0.2905 C   0  0  0  0  0  0  0  0  0  0  0  0
   -1.3819   -0.8168    0.6041 C   0  0  0  0  0  0  0  0  0  0  0  0
   -1.8426    0.5544    0.2794 C   0  0  0  0  0  0  0  0  0  0  0  0
   -0.9429    1.4146   -0.1474 C   0  0  0  0  0  0  0  0  0  0  0  0
    0.4619    1.0704   -0.3080 C   0  0  0  0  0  0  0  0  0  0  0  0
    2.8585   -0.2892    0.0822 H   0  0  0  0  0  0  0  0  0  0  0  0
    1.7044   -1.0672    1.2249 H   0  0  0  0  0  0  0  0  0  0  0  0
    1.2202   -0.5066   -1.6087 H   0  0  0  0  0  0  0  0  0  0  0  0
    0.1570   -2.2142    0.2132 H   0  0  0  0  0  0  0  0  0  0  0  0
   -0.7792   -1.7271   -1.2116 H   0  0  0  0  0  0  0  0  0  0  0  0
   -1.0356   -0.8007    1.6697 H   0  0  0  0  0  0  0  0  0  0  0  0
   -2.2779   -1.4683    0.5828 H   0  0  0  0  0  0  0  0  0  0  0  0
   -2.9090    0.8424    0.3933 H   0  0  0  0  0  0  0  0  0  0  0  0
   -1.2748    2.4257   -0.3872 H   0  0  0  0  0  0  0  0  0  0  0  0
    0.9558    1.7499   -1.0578 H   0  0  0  0  0  0  0  0  0  0  0  0
  1  2  2  0
  2  3  1  0
  3  4  1  0
  4  5  1  0
  5  6  1  0
  6  7  1  0
  7  8  2  0
  8  9  1  0
  9  2  1  0
  9  4  1  0
  3 10  1  0
  3 11  1  0
  4 12  1  0
  5 13  1  0
  5 14  1  0
  6 15  1  0
  6 16  1  0
  7 17  1  0
  8 18  1  0
  9 19  1  0
M  END
