
     RDKit          3D

 17 18  0  0  0  0  0  0  0  0999 V2000
    0.0145    2.7335    0.9624 O   0  0  0  0  0  0  0  0  0  0  0  0
    0.0762    1.4843    0.8207 C   0  0  0  0  0  0  0  0  0  0  0  0
    1.1541    0.8072    1.3555 O   0  0  0  0  0  0  0  0  0  0  0  0
    1.5767   -0.4096    0.7224 C   0  0  0  0  0  0  0  0  0  0  0  0
    1.0061   -0.4300   -0.6783 C   0  0  0  0  0  0  0  0  0  0  0  0
   -0.5004   -0.4022   -0.6888 C   0  0  0  0  0  0  0  0  0  0  0  0
   -1.0548   -0.6695   -1.9431 O   0  0  0  0  0  0  0  0  0  0  0  0
   -1.2901   -0.6635    0.5258 C   0  0  0  0  0  0  0  0  0  0  0  0
   -0.9893    0.7549    0.0929 C   0  0  0  0  0  0  0  0  0  0  0  0
    2.6864   -0.3325    0.6021 H   0  0  0  0  0  0  0  0  0  0  0  0
    1.2800   -1.2850    1.3248 H   0  0  0  0  0  0  0  0  0  0  0  0
    1.3682   -1.3408   -1.1860 H   0  0  0  0  0  0  0  0  0  0  0  0
    1.3602    0.4968   -1.1781 H   0  0  0  0  0  0  0  0  0  0  0  0
   -1.7647   -0.0193   -2.1834 H   0  0  0  0  0  0  0  0  0  0  0  0
   -0.8430   -1.0255    1.4669 H   0  0  0  0  0  0  0  0  0  0  0  0
   -2.3165   -1.0681    0.3513 H   0  0  0  0  0  0  0  0  0  0  0  0
   -1.7637    1.3692   -0.3672 H   0  0  0  0  0  0  0  0  0  0  0  0
  1  2  2  0
  2  3  1  0
  3  4  1  0
  4  5  1  0
  5  6  1  0
  6  7  1  0
  6  8  1  0
  8  9  1  0
  9  2  1  0
  9  6  1  0
  4 10  1  0
  4 11  1  0
  5 12  1  0
  5 13  1  0
  7 14  1  0
  8 15  1  0
  8 16  1  0
  9 17  1  0
M  END
