
     RDKit          3D

 17 18  0  0  0  0  0  0  0  0999 V2000
   -1.0451   -1.6614    1.7510 O   0  0  0  0  0  0  0  0  0  0  0  0
   -1.0109   -0.9991    0.7456 C   0  0  0  0  0  0  0  0  0  0  0  0
   -2.1227   -0.2981    0.0523 C   0  0  0  0  0  0  0  0  0  0  0  0
   -1.4170    0.9261   -0.4343 C   0  0  0  0  0  0  0  0  0  0  0  0
   -0.1197    0.7116   -0.5084 C   0  0  0  0  0  0  0  0  0  0  0  0
    1.1910    1.2369   -0.8294 C   0  0  0  0  0  0  0  0  0  0  0  0
    2.1273    0.5629   -0.1645 C   0  0  0  0  0  0  0  0  0  0  0  0
    1.4521   -0.4905    0.6682 C   0  0  0  0  0  0  0  0  0  0  0  0
    0.1829   -0.7098   -0.0742 C   0  0  0  0  0  0  0  0  0  0  0  0
   -2.4174   -0.8886   -0.8607 H   0  0  0  0  0  0  0  0  0  0  0  0
   -2.9746   -0.0694    0.6954 H   0  0  0  0  0  0  0  0  0  0  0  0
   -1.9658    1.8427   -0.6784 H   0  0  0  0  0  0  0  0  0  0  0  0
    1.3388    2.0637   -1.5172 H   0  0  0  0  0  0  0  0  0  0  0  0
    3.1830    0.7301   -0.2051 H   0  0  0  0  0  0  0  0  0  0  0  0
    2.0429   -1.4378    0.6237 H   0  0  0  0  0  0  0  0  0  0  0  0
    1.2780   -0.1447    1.6854 H   0  0  0  0  0  0  0  0  0  0  0  0
    0.2772   -1.3747   -0.9495 H   0  0  0  0  0  0  0  0  0  0  0  0
  1  2  2  0
  2  3  1  0
  3  4  1  0
  4  5  2  0
  5  6  1  0
  6  7  2  0
  7  8  1  0
  8  9  1  0
  9  2  1  0
  9  5  1  0
  3 10  1  0
  3 11  1  0
  4 12  1  0
  6 13  1  0
  7 14  1  0
  8 15  1  0
  8 16  1  0
  9 17  1  0
M  END
