
     RDKit          3D

 17 18  0  0  0  0  0  0  0  0999 V2000
    0.1365   -0.0228    1.8642 O   0  0  0  0  0  0  0  0  0  0  0  0
   -0.3832   -0.2667    0.8047 C   0  0  0  0  0  0  0  0  0  0  0  0
   -1.7878   -0.7047    0.6284 C   0  0  0  0  0  0  0  0  0  0  0  0
   -2.1542    0.0119   -0.6169 C   0  0  0  0  0  0  0  0  0  0  0  0
   -1.0612    0.2927   -1.3169 C   0  0  0  0  0  0  0  0  0  0  0  0
    0.1386   -0.2235   -0.5805 C   0  0  0  0  0  0  0  0  0  0  0  0
    1.3232    0.6887   -0.7279 C   0  0  0  0  0  0  0  0  0  0  0  0
    2.5019    0.2941    0.1376 C   0  0  0  0  0  0  0  0  0  0  0  0
    1.7323    1.4181    0.3677 O   0  0  0  0  0  0  0  0  0  0  0  0
   -1.7539   -1.8011    0.4194 H   0  0  0  0  0  0  0  0  0  0  0  0
   -2.4328   -0.4526    1.4822 H   0  0  0  0  0  0  0  0  0  0  0  0
   -3.1560    0.2713   -0.9186 H   0  0  0  0  0  0  0  0  0  0  0  0
   -0.9748    0.8089   -2.2738 H   0  0  0  0  0  0  0  0  0  0  0  0
    0.4406   -1.2264   -0.9374 H   0  0  0  0  0  0  0  0  0  0  0  0
    1.5625    1.0462   -1.7441 H   0  0  0  0  0  0  0  0  0  0  0  0
    2.3585   -0.5017    0.9108 H   0  0  0  0  0  0  0  0  0  0  0  0
    3.5097    0.3677   -0.2908 H   0  0  0  0  0  0  0  0  0  0  0  0
  1  2  2  0
  2  3  1  0
  3  4  1  0
  4  5  2  0
  5  6  1  0
  6  7  1  0
  7  8  1  0
  8  9  1  0
  6  2  1  0
  9  7  1  0
  3 10  1  0
  3 11  1  0
  4 12  1  0
  5 13  1  0
  6 14  1  0
  7 15  1  0
  8 16  1  0
  8 17  1  0
M  END
