
     RDKit          3D

 17 18  0  0  0  0  0  0  0  0999 V2000
   -2.4455   -1.0115   -0.6559 O   0  0  0  0  0  0  0  0  0  0  0  0
   -1.6063   -0.4488   -0.0085 C   0  0  0  0  0  0  0  0  0  0  0  0
   -1.7200    0.9854    0.3011 C   0  0  0  0  0  0  0  0  0  0  0  0
   -0.6435    1.5767    0.8337 O   0  0  0  0  0  0  0  0  0  0  0  0
    0.5928    1.1211    0.6208 C   0  0  0  0  0  0  0  0  0  0  0  0
    0.7684   -0.2664    0.1343 C   0  0  0  0  0  0  0  0  0  0  0  0
    2.0842   -0.7906   -0.0964 C   0  0  0  0  0  0  0  0  0  0  0  0
    1.1874   -0.3944   -1.2308 O   0  0  0  0  0  0  0  0  0  0  0  0
   -0.3845   -1.1522    0.5336 C   0  0  0  0  0  0  0  0  0  0  0  0
   -2.5559    1.0662    1.0615 H   0  0  0  0  0  0  0  0  0  0  0  0
   -2.1510    1.5019   -0.6075 H   0  0  0  0  0  0  0  0  0  0  0  0
    1.1864    1.2188    1.5796 H   0  0  0  0  0  0  0  0  0  0  0  0
    1.1274    1.8288   -0.0810 H   0  0  0  0  0  0  0  0  0  0  0  0
    2.3487   -1.8418   -0.2512 H   0  0  0  0  0  0  0  0  0  0  0  0
    2.9624   -0.1193   -0.0164 H   0  0  0  0  0  0  0  0  0  0  0  0
   -0.2953   -2.1706    0.1756 H   0  0  0  0  0  0  0  0  0  0  0  0
   -0.4560   -1.1035    1.6442 H   0  0  0  0  0  0  0  0  0  0  0  0
  1  2  2  0
  2  3  1  0
  3  4  1  0
  4  5  1  0
  5  6  1  0
  6  7  1  0
  7  8  1  0
  6  9  1  0
  9  2  1  0
  8  6  1  0
  3 10  1  0
  3 11  1  0
  5 12  1  0
  5 13  1  0
  7 14  1  0
  7 15  1  0
  9 16  1  0
  9 17  1  0
M  END
