
     RDKit          3D

 13 13  0  0  0  0  0  0  0  0999 V2000
    1.4921    2.1527    0.8348 O   0  0  0  0  0  0  0  0  0  0  0  0
    0.8842    1.0867    0.5931 C   0  0  0  0  0  0  0  0  0  0  0  0
    1.5182   -0.1515    0.1196 C   0  0  0  0  0  0  0  0  0  0  0  0
    0.6268   -0.9162   -0.4674 C   0  0  0  0  0  0  0  0  0  0  0  0
   -0.6754   -0.2662   -0.4419 C   0  0  0  0  0  0  0  0  0  0  0  0
   -1.7422   -1.1429   -0.2716 O   0  0  0  0  0  0  0  0  0  0  0  0
   -0.5545    0.7283    0.6896 C   0  0  0  0  0  0  0  0  0  0  0  0
    2.5737   -0.4227    0.2261 H   0  0  0  0  0  0  0  0  0  0  0  0
    0.8002   -1.8942   -0.9162 H   0  0  0  0  0  0  0  0  0  0  0  0
   -0.8005    0.3346   -1.3810 H   0  0  0  0  0  0  0  0  0  0  0  0
   -2.1250   -1.3029   -1.1926 H   0  0  0  0  0  0  0  0  0  0  0  0
   -1.2245    1.5929    0.5442 H   0  0  0  0  0  0  0  0  0  0  0  0
   -0.7731    0.2016    1.6634 H   0  0  0  0  0  0  0  0  0  0  0  0
  1  2  2  0
  2  3  1  0
  3  4  2  0
  4  5  1  0
  5  6  1  0
  5  7  1  0
  7  2  1  0
  3  8  1  0
  4  9  1  0
  5 10  1  0
  6 11  1  0
  7 12  1  0
  7 13  1  0
M  END
