
     RDKit          3D

 19 20  0  0  0  0  0  0  0  0999 V2000
    0.9157    2.6279   -0.8148 O   0  0  0  0  0  0  0  0  0  0  0  0
    0.7275    1.5045   -0.3848 C   0  0  0  0  0  0  0  0  0  0  0  0
    1.6205    0.7082    0.4980 C   0  0  0  0  0  0  0  0  0  0  0  0
    1.0207   -0.6737    0.5540 C   0  0  0  0  0  0  0  0  0  0  0  0
    0.1450   -0.7303   -0.6493 C   0  0  0  0  0  0  0  0  0  0  0  0
   -1.1399   -1.4943   -0.3899 C   0  0  0  0  0  0  0  0  0  0  0  0
   -1.8127   -0.7675    0.5554 O   0  0  0  0  0  0  0  0  0  0  0  0
   -1.3818    0.5362    0.5205 C   0  0  0  0  0  0  0  0  0  0  0  0
   -0.4501    0.6862   -0.6576 C   0  0  0  0  0  0  0  0  0  0  0  0
    1.6695    1.1535    1.5268 H   0  0  0  0  0  0  0  0  0  0  0  0
    2.6205    0.6714    0.0480 H   0  0  0  0  0  0  0  0  0  0  0  0
    0.4063   -0.8193    1.4784 H   0  0  0  0  0  0  0  0  0  0  0  0
    1.8318   -1.4085    0.5776 H   0  0  0  0  0  0  0  0  0  0  0  0
    0.6275   -0.9877   -1.5820 H   0  0  0  0  0  0  0  0  0  0  0  0
   -1.7329   -1.4143   -1.3477 H   0  0  0  0  0  0  0  0  0  0  0  0
   -0.9896   -2.5456   -0.1707 H   0  0  0  0  0  0  0  0  0  0  0  0
   -0.8843    0.8470    1.4687 H   0  0  0  0  0  0  0  0  0  0  0  0
   -2.2315    1.2196    0.3666 H   0  0  0  0  0  0  0  0  0  0  0  0
   -0.9622    0.8868   -1.5973 H   0  0  0  0  0  0  0  0  0  0  0  0
  1  2  2  0
  2  3  1  0
  3  4  1  0
  4  5  1  0
  5  6  1  0
  6  7  1  0
  7  8  1  0
  8  9  1  0
  9  2  1  0
  9  5  1  0
  3 10  1  0
  3 11  1  0
  4 12  1  0
  4 13  1  0
  5 14  1  0
  6 15  1  0
  6 16  1  0
  8 17  1  0
  8 18  1  0
  9 19  1  0
M  END
