
     RDKit          3D

 15 16  0  0  0  0  0  0  0  0999 V2000
   -2.9336   -1.1162    0.3649 O   0  0  0  0  0  0  0  0  0  0  0  0
   -1.9102   -0.4692    0.0672 C   0  0  0  0  0  0  0  0  0  0  0  0
   -1.7685    0.9748    0.2506 C   0  0  0  0  0  0  0  0  0  0  0  0
   -0.5193    1.3295    0.0114 C   0  0  0  0  0  0  0  0  0  0  0  0
    0.2757    0.1442   -0.3521 C   0  0  0  0  0  0  0  0  0  0  0  0
    1.5489   -0.1698    0.3373 C   0  0  0  0  0  0  0  0  0  0  0  0
    2.6808    0.1816   -0.3918 O   0  0  0  0  0  0  0  0  0  0  0  0
   -0.0522   -0.3999   -1.5791 O   0  0  0  0  0  0  0  0  0  0  0  0
   -0.6835   -1.0040   -0.5068 C   0  0  0  0  0  0  0  0  0  0  0  0
   -2.5476    1.6716    0.5373 H   0  0  0  0  0  0  0  0  0  0  0  0
   -0.1408    2.3250    0.0720 H   0  0  0  0  0  0  0  0  0  0  0  0
    1.5558    0.4040    1.3049 H   0  0  0  0  0  0  0  0  0  0  0  0
    1.5702   -1.2363    0.6365 H   0  0  0  0  0  0  0  0  0  0  0  0
    3.2422   -0.6198   -0.4740 H   0  0  0  0  0  0  0  0  0  0  0  0
   -0.3179   -2.0155   -0.2783 H   0  0  0  0  0  0  0  0  0  0  0  0
  1  2  2  0
  2  3  1  0
  3  4  2  0
  4  5  1  0
  5  6  1  0
  6  7  1  0
  5  8  1  0
  8  9  1  0
  9  2  1  0
  9  5  1  0
  3 10  1  0
  4 11  1  0
  6 12  1  0
  6 13  1  0
  7 14  1  0
  9 15  1  0
M  END
