
     RDKit          3D

 19 21  0  0  0  0  0  0  0  0999 V2000
   -1.8862   -0.5170    1.9527 O   0  0  0  0  0  0  0  0  0  0  0  0
   -1.2817   -0.5588    0.9166 C   0  0  0  0  0  0  0  0  0  0  0  0
   -1.7609    0.3217   -0.2087 C   0  0  0  0  0  0  0  0  0  0  0  0
   -0.6299    1.3128   -0.4268 C   0  0  0  0  0  0  0  0  0  0  0  0
    0.6020    0.5601   -0.7921 C   0  0  0  0  0  0  0  0  0  0  0  0
    1.6064    0.5550    0.3384 C   0  0  0  0  0  0  0  0  0  0  0  0
    1.2660   -0.8700    0.5967 C   0  0  0  0  0  0  0  0  0  0  0  0
   -0.1058   -1.3875    0.6173 C   0  0  0  0  0  0  0  0  0  0  0  0
    0.5016   -0.9183   -0.6686 C   0  0  0  0  0  0  0  0  0  0  0  0
   -2.7088    0.8059    0.0179 H   0  0  0  0  0  0  0  0  0  0  0  0
   -1.8084   -0.3442   -1.1183 H   0  0  0  0  0  0  0  0  0  0  0  0
   -0.4995    1.8413    0.5631 H   0  0  0  0  0  0  0  0  0  0  0  0
   -0.9038    2.0993   -1.1495 H   0  0  0  0  0  0  0  0  0  0  0  0
    1.0133    0.8490   -1.7729 H   0  0  0  0  0  0  0  0  0  0  0  0
    2.6408    0.6651   -0.0891 H   0  0  0  0  0  0  0  0  0  0  0  0
    1.3815    1.1956    1.1933 H   0  0  0  0  0  0  0  0  0  0  0  0
    2.0988   -1.5515    0.8119 H   0  0  0  0  0  0  0  0  0  0  0  0
   -0.2468   -2.4594    0.7039 H   0  0  0  0  0  0  0  0  0  0  0  0
    0.7214   -1.5991   -1.4857 H   0  0  0  0  0  0  0  0  0  0  0  0
  1  2  2  0
  2  3  1  0
  3  4  1  0
  4  5  1  0
  5  6  1  0
  6  7  1  0
  7  8  1  0
  8  9  1  0
  8  2  1  0
  9  5  1  0
  9  7  1  0
  3 10  1  0
  3 11  1  0
  4 12  1  0
  4 13  1  0
  5 14  1  0
  6 15  1  0
  6 16  1  0
  7 17  1  0
  8 18  1  0
  9 19  1  0
M  END
