
     RDKit          3D

 13 14  0  0  0  0  0  0  0  0999 V2000
    0.4040    2.6201    0.7404 O   0  0  0  0  0  0  0  0  0  0  0  0
    0.0477    1.4946    0.3654 C   0  0  0  0  0  0  0  0  0  0  0  0
   -1.0530    1.2130   -0.4106 O   0  0  0  0  0  0  0  0  0  0  0  0
   -1.3793   -0.1591   -0.3584 C   0  0  0  0  0  0  0  0  0  0  0  0
   -0.1271   -0.8489    0.0664 C   0  0  0  0  0  0  0  0  0  0  0  0
    1.1926   -0.5668   -0.5234 C   0  0  0  0  0  0  0  0  0  0  0  0
    0.7140    0.2126    0.6611 C   0  0  0  0  0  0  0  0  0  0  0  0
   -2.1746   -0.2681    0.4064 H   0  0  0  0  0  0  0  0  0  0  0  0
   -1.7823   -0.5365   -1.3193 H   0  0  0  0  0  0  0  0  0  0  0  0
   -0.2365   -1.8433    0.5887 H   0  0  0  0  0  0  0  0  0  0  0  0
    1.9797   -1.3341   -0.4157 H   0  0  0  0  0  0  0  0  0  0  0  0
    1.3010    0.0128   -1.4718 H   0  0  0  0  0  0  0  0  0  0  0  0
    1.1137    0.0037    1.6708 H   0  0  0  0  0  0  0  0  0  0  0  0
  1  2  2  0
  2  3  1  0
  3  4  1  0
  4  5  1  0
  5  6  1  0
  6  7  1  0
  7  2  1  0
  7  5  1  0
  4  8  1  0
  4  9  1  0
  5 10  1  0
  6 11  1  0
  6 12  1  0
  7 13  1  0
M  END
