
     RDKit          3D

 15 15  0  0  0  0  0  0  0  0999 V2000
   -2.1716    2.0844   -0.0351 O   0  0  0  0  0  0  0  0  0  0  0  0
   -1.5024    1.0205   -0.0156 C   0  0  0  0  0  0  0  0  0  0  0  0
   -1.7352   -0.2528   -0.7717 C   0  0  0  0  0  0  0  0  0  0  0  0
   -0.4361   -0.7460   -0.8745 O   0  0  0  0  0  0  0  0  0  0  0  0
    0.1196   -0.6139    0.3906 C   0  0  0  0  0  0  0  0  0  0  0  0
    1.6361   -0.5648    0.2275 C   0  0  0  0  0  0  0  0  0  0  0  0
    1.8963    0.5497   -0.5813 O   0  0  0  0  0  0  0  0  0  0  0  0
   -0.3014    0.7610    0.7718 C   0  0  0  0  0  0  0  0  0  0  0  0
    0.2233    1.5645    1.5852 O   0  0  0  0  0  0  0  0  0  0  0  0
   -2.3422   -0.9682   -0.1476 H   0  0  0  0  0  0  0  0  0  0  0  0
   -2.1786   -0.0805   -1.7543 H   0  0  0  0  0  0  0  0  0  0  0  0
   -0.1784   -1.3789    1.1016 H   0  0  0  0  0  0  0  0  0  0  0  0
    1.9606   -1.4955   -0.3040 H   0  0  0  0  0  0  0  0  0  0  0  0
    2.1611   -0.5393    1.1837 H   0  0  0  0  0  0  0  0  0  0  0  0
    2.8489    0.6598   -0.7764 H   0  0  0  0  0  0  0  0  0  0  0  0
  1  2  2  0
  2  3  1  0
  3  4  1  0
  4  5  1  0
  5  6  1  0
  6  7  1  0
  5  8  1  0
  8  9  2  0
  8  2  1  0
  3 10  1  0
  3 11  1  0
  5 12  1  0
  6 13  1  0
  6 14  1  0
  7 15  1  0
M  END
