
     RDKit          3D

 17 18  0  0  0  0  0  0  0  0999 V2000
   -1.3758   -2.1272   -0.7918 O   0  0  0  0  0  0  0  0  0  0  0  0
   -1.1530   -0.9713   -0.5245 C   0  0  0  0  0  0  0  0  0  0  0  0
   -2.1876   -0.0254    0.0701 C   0  0  0  0  0  0  0  0  0  0  0  0
   -1.2905    0.6512    1.0848 C   0  0  0  0  0  0  0  0  0  0  0  0
   -0.0338    0.5803    0.7158 C   0  0  0  0  0  0  0  0  0  0  0  0
    1.4589    0.6665    0.5787 C   0  0  0  0  0  0  0  0  0  0  0  0
    1.3722   -0.6389   -0.2609 C   0  0  0  0  0  0  0  0  0  0  0  0
    2.3561   -0.5822   -1.2335 O   0  0  0  0  0  0  0  0  0  0  0  0
    0.0307   -0.1184   -0.6420 C   0  0  0  0  0  0  0  0  0  0  0  0
   -3.0055   -0.5709    0.5342 H   0  0  0  0  0  0  0  0  0  0  0  0
   -2.5016    0.7329   -0.6479 H   0  0  0  0  0  0  0  0  0  0  0  0
   -1.6990    1.1121    1.9743 H   0  0  0  0  0  0  0  0  0  0  0  0
    1.7119    1.5228   -0.0510 H   0  0  0  0  0  0  0  0  0  0  0  0
    2.0272    0.5232    1.4969 H   0  0  0  0  0  0  0  0  0  0  0  0
    1.3547   -1.5486    0.3563 H   0  0  0  0  0  0  0  0  0  0  0  0
    2.9391    0.2036   -1.1731 H   0  0  0  0  0  0  0  0  0  0  0  0
   -0.0040    0.5902   -1.4864 H   0  0  0  0  0  0  0  0  0  0  0  0
  1  2  2  0
  2  3  1  0
  3  4  1  0
  4  5  2  0
  5  6  1  0
  6  7  1  0
  7  8  1  0
  7  9  1  0
  9  2  1  0
  9  5  1  0
  3 10  1  0
  3 11  1  0
  4 12  1  0
  6 13  1  0
  6 14  1  0
  7 15  1  0
  8 16  1  0
  9 17  1  0
M  END
