
     RDKit          3D

 17 17  0  0  0  0  0  0  0  0999 V2000
    3.0274    0.6436   -1.8714 O   0  0  0  0  0  0  0  0  0  0  0  0
    1.9882    0.4824   -1.2054 C   0  0  0  0  0  0  0  0  0  0  0  0
    1.3608   -0.6019   -0.4199 C   0  0  0  0  0  0  0  0  0  0  0  0
    0.8170    0.5912    0.3337 C   0  0  0  0  0  0  0  0  0  0  0  0
   -0.5422    0.4502    0.9155 C   0  0  0  0  0  0  0  0  0  0  0  0
   -0.4741   -0.2487    2.1131 O   0  0  0  0  0  0  0  0  0  0  0  0
   -1.5222   -0.2514    0.0206 C   0  0  0  0  0  0  0  0  0  0  0  0
   -1.6536    0.3879   -1.2194 O   0  0  0  0  0  0  0  0  0  0  0  0
    0.9093    1.2840   -0.8904 O   0  0  0  0  0  0  0  0  0  0  0  0
    0.6215   -1.2147   -0.9625 H   0  0  0  0  0  0  0  0  0  0  0  0
    2.0842   -1.2135    0.1750 H   0  0  0  0  0  0  0  0  0  0  0  0
    1.5822    0.8998    1.0910 H   0  0  0  0  0  0  0  0  0  0  0  0
   -0.9651    1.4511    1.1476 H   0  0  0  0  0  0  0  0  0  0  0  0
   -0.9519   -1.1122    2.0939 H   0  0  0  0  0  0  0  0  0  0  0  0
   -1.2588   -1.3029   -0.1895 H   0  0  0  0  0  0  0  0  0  0  0  0
   -2.5326   -0.2782    0.4833 H   0  0  0  0  0  0  0  0  0  0  0  0
   -2.4903    0.0333   -1.6151 H   0  0  0  0  0  0  0  0  0  0  0  0
  1  2  2  0
  2  3  1  0
  3  4  1  0
  4  5  1  0
  5  6  1  0
  5  7  1  0
  7  8  1  0
  4  9  1  0
  9  2  1  0
  3 10  1  0
  3 11  1  0
  4 12  1  0
  5 13  1  0
  6 14  1  0
  7 15  1  0
  7 16  1  0
  8 17  1  0
M  END
