
     RDKit          3D

 17 18  0  0  0  0  0  0  0  0999 V2000
   -2.1575    1.1890    1.7604 O   0  0  0  0  0  0  0  0  0  0  0  0
   -1.5102    0.7437    0.7976 C   0  0  0  0  0  0  0  0  0  0  0  0
   -1.2647    1.3162   -0.5184 C   0  0  0  0  0  0  0  0  0  0  0  0
   -0.1688    0.7914   -1.0436 C   0  0  0  0  0  0  0  0  0  0  0  0
    0.3816   -0.1707   -0.0915 C   0  0  0  0  0  0  0  0  0  0  0  0
    1.7053    0.1487    0.5164 C   0  0  0  0  0  0  0  0  0  0  0  0
    1.5213   -1.0362   -0.3754 C   0  0  0  0  0  0  0  0  0  0  0  0
   -0.7881   -0.5490    0.7438 C   0  0  0  0  0  0  0  0  0  0  0  0
   -1.5857   -1.4260    0.0012 O   0  0  0  0  0  0  0  0  0  0  0  0
   -1.8947    2.0730   -1.0039 H   0  0  0  0  0  0  0  0  0  0  0  0
    0.2678    1.0245   -2.0227 H   0  0  0  0  0  0  0  0  0  0  0  0
    1.8488   -0.0083    1.6034 H   0  0  0  0  0  0  0  0  0  0  0  0
    2.2139    1.0653    0.1418 H   0  0  0  0  0  0  0  0  0  0  0  0
    1.9064   -1.0301   -1.4148 H   0  0  0  0  0  0  0  0  0  0  0  0
    1.5977   -2.0165    0.1220 H   0  0  0  0  0  0  0  0  0  0  0  0
   -0.5385   -0.9469    1.7358 H   0  0  0  0  0  0  0  0  0  0  0  0
   -1.5344   -1.1683   -0.9522 H   0  0  0  0  0  0  0  0  0  0  0  0
  1  2  2  0
  2  3  1  0
  3  4  2  0
  4  5  1  0
  5  6  1  0
  6  7  1  0
  5  8  1  0
  8  9  1  0
  8  2  1  0
  7  5  1  0
  3 10  1  0
  4 11  1  0
  6 12  1  0
  6 13  1  0
  7 14  1  0
  7 15  1  0
  8 16  1  0
  9 17  1  0
M  END
