
     RDKit          3D

 17 17  0  0  0  0  0  0  0  0999 V2000
    2.1157   -1.4043   -1.5772 O   0  0  0  0  0  0  0  0  0  0  0  0
    1.1656   -0.9844   -0.9031 C   0  0  0  0  0  0  0  0  0  0  0  0
    0.0585   -1.7450   -0.7010 O   0  0  0  0  0  0  0  0  0  0  0  0
   -0.9731   -1.4240    0.1672 C   0  0  0  0  0  0  0  0  0  0  0  0
   -1.1979    0.0329    0.3969 C   0  0  0  0  0  0  0  0  0  0  0  0
   -0.0971    0.9458    0.0467 C   0  0  0  0  0  0  0  0  0  0  0  0
   -0.4660    1.8128   -1.0117 O   0  0  0  0  0  0  0  0  0  0  0  0
    1.2120    0.3509   -0.3033 C   0  0  0  0  0  0  0  0  0  0  0  0
    2.0727    0.2998    0.8166 O   0  0  0  0  0  0  0  0  0  0  0  0
   -1.8973   -1.9251   -0.2122 H   0  0  0  0  0  0  0  0  0  0  0  0
   -0.7501   -1.9445    1.1401 H   0  0  0  0  0  0  0  0  0  0  0  0
   -1.5047    0.1559    1.4687 H   0  0  0  0  0  0  0  0  0  0  0  0
   -2.1074    0.3277   -0.1805 H   0  0  0  0  0  0  0  0  0  0  0  0
    0.0822    1.6547    0.9061 H   0  0  0  0  0  0  0  0  0  0  0  0
   -1.0361    2.5572   -0.6716 H   0  0  0  0  0  0  0  0  0  0  0  0
    1.7780    0.9979   -1.0384 H   0  0  0  0  0  0  0  0  0  0  0  0
    1.5451    0.2916    1.6565 H   0  0  0  0  0  0  0  0  0  0  0  0
  1  2  2  0
  2  3  1  0
  3  4  1  0
  4  5  1  0
  5  6  1  0
  6  7  1  0
  6  8  1  0
  8  9  1  0
  8  2  1  0
  4 10  1  0
  4 11  1  0
  5 12  1  0
  5 13  1  0
  6 14  1  0
  7 15  1  0
  8 16  1  0
  9 17  1  0
M  END
