
     RDKit          3D

 19 20  0  0  0  0  0  0  0  0999 V2000
    0.5247    2.3926    0.7551 O   0  0  0  0  0  0  0  0  0  0  0  0
    0.0923    1.2767    0.5370 C   0  0  0  0  0  0  0  0  0  0  0  0
   -1.3543    1.1254    0.2616 C   0  0  0  0  0  0  0  0  0  0  0  0
   -1.6700   -0.3526    0.3195 C   0  0  0  0  0  0  0  0  0  0  0  0
   -0.8017   -1.1445   -0.6036 C   0  0  0  0  0  0  0  0  0  0  0  0
    0.6460   -0.9992   -0.3101 C   0  0  0  0  0  0  0  0  0  0  0  0
    1.4340   -0.5425   -1.3812 O   0  0  0  0  0  0  0  0  0  0  0  0
    2.1169    0.2520   -0.4683 C   0  0  0  0  0  0  0  0  0  0  0  0
    1.0151    0.1468    0.5572 C   0  0  0  0  0  0  0  0  0  0  0  0
   -1.9904    1.6305    1.0194 H   0  0  0  0  0  0  0  0  0  0  0  0
   -1.5558    1.5488   -0.7479 H   0  0  0  0  0  0  0  0  0  0  0  0
   -2.7347   -0.5351    0.1157 H   0  0  0  0  0  0  0  0  0  0  0  0
   -1.4273   -0.6772    1.3700 H   0  0  0  0  0  0  0  0  0  0  0  0
   -0.9880   -0.8264   -1.6552 H   0  0  0  0  0  0  0  0  0  0  0  0
   -1.1057   -2.2227   -0.4890 H   0  0  0  0  0  0  0  0  0  0  0  0
    1.1129   -1.9450    0.0700 H   0  0  0  0  0  0  0  0  0  0  0  0
    2.2405    1.2827   -0.8138 H   0  0  0  0  0  0  0  0  0  0  0  0
    3.0627   -0.2486   -0.1125 H   0  0  0  0  0  0  0  0  0  0  0  0
    1.3828   -0.1617    1.5761 H   0  0  0  0  0  0  0  0  0  0  0  0
  1  2  2  0
  2  3  1  0
  3  4  1  0
  4  5  1  0
  5  6  1  0
  6  7  1  0
  7  8  1  0
  8  9  1  0
  9  2  1  0
  9  6  1  0
  3 10  1  0
  3 11  1  0
  4 12  1  0
  4 13  1  0
  5 14  1  0
  5 15  1  0
  6 16  1  0
  8 17  1  0
  8 18  1  0
  9 19  1  0
M  END
