
     RDKit          3D

 14 15  0  0  0  0  0  0  0  0999 V2000
    1.7571   -1.6443   -1.1364 O   0  0  0  0  0  0  0  0  0  0  0  0
    1.0453   -0.8194   -0.5285 C   0  0  0  0  0  0  0  0  0  0  0  0
    1.4832    0.5321   -0.1976 C   0  0  0  0  0  0  0  0  0  0  0  0
    0.5809    1.2447    0.4895 C   0  0  0  0  0  0  0  0  0  0  0  0
   -0.6640    0.5136    0.8242 C   0  0  0  0  0  0  0  0  0  0  0  0
   -1.2662   -0.0490   -0.4194 C   0  0  0  0  0  0  0  0  0  0  0  0
   -0.3254   -1.1816   -0.0975 C   0  0  0  0  0  0  0  0  0  0  0  0
   -0.4232   -0.7896    1.2525 O   0  0  0  0  0  0  0  0  0  0  0  0
    2.4462    0.9093   -0.4855 H   0  0  0  0  0  0  0  0  0  0  0  0
    0.7128    2.2599    0.7894 H   0  0  0  0  0  0  0  0  0  0  0  0
   -1.3506    1.0301    1.5189 H   0  0  0  0  0  0  0  0  0  0  0  0
   -2.3366   -0.3363   -0.3414 H   0  0  0  0  0  0  0  0  0  0  0  0
   -0.9981    0.5203   -1.3449 H   0  0  0  0  0  0  0  0  0  0  0  0
   -0.6614   -2.1898   -0.3233 H   0  0  0  0  0  0  0  0  0  0  0  0
  1  2  2  0
  2  3  1  0
  3  4  2  0
  4  5  1  0
  5  6  1  0
  6  7  1  0
  7  8  1  0
  7  2  1  0
  8  5  1  0
  3  9  1  0
  4 10  1  0
  5 11  1  0
  6 12  1  0
  6 13  1  0
  7 14  1  0
M  END
