
     RDKit          3D

 21 21  0  0  0  0  0  0  0  0999 V2000
    1.6465   -2.3307    1.1910 O   0  0  0  0  0  0  0  0  0  0  0  0
    1.0113   -1.5133    0.4963 C   0  0  0  0  0  0  0  0  0  0  0  0
    1.8953   -0.6237   -0.2752 C   0  0  0  0  0  0  0  0  0  0  0  0
    1.5649    0.8057    0.1719 C   0  0  0  0  0  0  0  0  0  0  0  0
    0.2688    1.2759   -0.4124 C   0  0  0  0  0  0  0  0  0  0  0  0
   -0.9084    1.0688    0.5030 C   0  0  0  0  0  0  0  0  0  0  0  0
   -1.9354    0.1243   -0.0503 C   0  0  0  0  0  0  0  0  0  0  0  0
   -1.4685   -1.2766   -0.2042 C   0  0  0  0  0  0  0  0  0  0  0  0
   -0.3575   -1.6117    0.5942 O   0  0  0  0  0  0  0  0  0  0  0  0
    2.9556   -0.8526   -0.1897 H   0  0  0  0  0  0  0  0  0  0  0  0
    1.5491   -0.6661   -1.3472 H   0  0  0  0  0  0  0  0  0  0  0  0
    2.4367    1.4267   -0.1028 H   0  0  0  0  0  0  0  0  0  0  0  0
    1.4938    0.8472    1.2926 H   0  0  0  0  0  0  0  0  0  0  0  0
    0.4132    2.3586   -0.6853 H   0  0  0  0  0  0  0  0  0  0  0  0
    0.0228    0.7649   -1.3763 H   0  0  0  0  0  0  0  0  0  0  0  0
   -0.6068    0.8200    1.5401 H   0  0  0  0  0  0  0  0  0  0  0  0
   -1.4250    2.0698    0.5867 H   0  0  0  0  0  0  0  0  0  0  0  0
   -2.2618    0.5547   -1.0387 H   0  0  0  0  0  0  0  0  0  0  0  0
   -2.8423    0.2180    0.6017 H   0  0  0  0  0  0  0  0  0  0  0  0
   -2.2498   -2.0372   -0.0025 H   0  0  0  0  0  0  0  0  0  0  0  0
   -1.2026   -1.4228   -1.2927 H   0  0  0  0  0  0  0  0  0  0  0  0
  1  2  2  0
  2  3  1  0
  3  4  1  0
  4  5  1  0
  5  6  1  0
  6  7  1  0
  7  8  1  0
  8  9  1  0
  9  2  1  0
  3 10  1  0
  3 11  1  0
  4 12  1  0
  4 13  1  0
  5 14  1  0
  5 15  1  0
  6 16  1  0
  6 17  1  0
  7 18  1  0
  7 19  1  0
  8 20  1  0
  8 21  1  0
M  END
