
     RDKit          3D

 17 18  0  0  0  0  0  0  0  0999 V2000
    2.2806    1.3565   -0.8588 O   0  0  0  0  0  0  0  0  0  0  0  0
    1.2638    0.9197   -0.2588 C   0  0  0  0  0  0  0  0  0  0  0  0
    0.1657    1.7400    0.0468 O   0  0  0  0  0  0  0  0  0  0  0  0
   -1.0963    1.0677    0.0789 C   0  0  0  0  0  0  0  0  0  0  0  0
   -1.0964   -0.0709    1.0586 C   0  0  0  0  0  0  0  0  0  0  0  0
   -0.3235   -0.8723    0.0150 C   0  0  0  0  0  0  0  0  0  0  0  0
   -0.9990    0.0190   -1.0327 C   0  0  0  0  0  0  0  0  0  0  0  0
    1.1304   -0.4993    0.1806 C   0  0  0  0  0  0  0  0  0  0  0  0
    1.9941   -1.3497   -0.4580 O   0  0  0  0  0  0  0  0  0  0  0  0
   -1.9728    1.7071    0.0444 H   0  0  0  0  0  0  0  0  0  0  0  0
   -0.5591    0.0836    2.0026 H   0  0  0  0  0  0  0  0  0  0  0  0
   -2.1322   -0.4460    1.1842 H   0  0  0  0  0  0  0  0  0  0  0  0
   -0.5620   -1.9290   -0.0462 H   0  0  0  0  0  0  0  0  0  0  0  0
   -1.9942   -0.3399   -1.2808 H   0  0  0  0  0  0  0  0  0  0  0  0
   -0.3334    0.3185   -1.8645 H   0  0  0  0  0  0  0  0  0  0  0  0
    1.3356   -0.4993    1.2768 H   0  0  0  0  0  0  0  0  0  0  0  0
    2.8988   -1.2057   -0.0878 H   0  0  0  0  0  0  0  0  0  0  0  0
  1  2  2  0
  2  3  1  0
  3  4  1  0
  4  5  1  0
  5  6  1  0
  6  7  1  0
  6  8  1  0
  8  9  1  0
  8  2  1  0
  7  4  1  0
  4 10  1  0
  5 11  1  0
  5 12  1  0
  6 13  1  0
  7 14  1  0
  7 15  1  0
  8 16  1  0
  9 17  1  0
M  END
