
     RDKit          3D

 19 19  0  0  0  0  0  0  0  0999 V2000
    2.0952    2.4800   -0.5425 O   0  0  0  0  0  0  0  0  0  0  0  0
    1.5309    1.3901   -0.2568 C   0  0  0  0  0  0  0  0  0  0  0  0
    0.1493    1.2812    0.2245 C   0  0  0  0  0  0  0  0  0  0  0  0
   -0.4383    0.0005   -0.2678 C   0  0  0  0  0  0  0  0  0  0  0  0
   -1.8511   -0.2217    0.2777 C   0  0  0  0  0  0  0  0  0  0  0  0
   -2.7071    0.8131   -0.1141 O   0  0  0  0  0  0  0  0  0  0  0  0
    0.3735   -1.2077    0.0493 C   0  0  0  0  0  0  0  0  0  0  0  0
    1.8426   -0.9718    0.1350 C   0  0  0  0  0  0  0  0  0  0  0  0
    2.2759    0.2355   -0.4130 O   0  0  0  0  0  0  0  0  0  0  0  0
   -0.4313    2.1210   -0.2503 H   0  0  0  0  0  0  0  0  0  0  0  0
    0.0816    1.4040    1.3249 H   0  0  0  0  0  0  0  0  0  0  0  0
   -0.5654    0.0965   -1.3785 H   0  0  0  0  0  0  0  0  0  0  0  0
   -2.2784   -1.1546   -0.1423 H   0  0  0  0  0  0  0  0  0  0  0  0
   -1.8341   -0.3474    1.3836 H   0  0  0  0  0  0  0  0  0  0  0  0
   -2.9913    0.6001   -1.0439 H   0  0  0  0  0  0  0  0  0  0  0  0
    0.1876   -1.9611   -0.7675 H   0  0  0  0  0  0  0  0  0  0  0  0
   -0.0151   -1.6970    0.9840 H   0  0  0  0  0  0  0  0  0  0  0  0
    2.1687   -1.0706    1.1997 H   0  0  0  0  0  0  0  0  0  0  0  0
    2.4069   -1.7901   -0.4020 H   0  0  0  0  0  0  0  0  0  0  0  0
  1  2  2  0
  2  3  1  0
  3  4  1  0
  4  5  1  0
  5  6  1  0
  4  7  1  0
  7  8  1  0
  8  9  1  0
  9  2  1  0
  3 10  1  0
  3 11  1  0
  4 12  1  0
  5 13  1  0
  5 14  1  0
  6 15  1  0
  7 16  1  0
  7 17  1  0
  8 18  1  0
  8 19  1  0
M  END
