
     RDKit          3D

 17 19  0  0  0  0  0  0  0  0999 V2000
    2.4137    0.2552    1.4237 O   0  0  0  0  0  0  0  0  0  0  0  0
    1.6587    0.1571    0.5010 C   0  0  0  0  0  0  0  0  0  0  0  0
    0.8771    0.9713   -0.4552 C   0  0  0  0  0  0  0  0  0  0  0  0
    1.1623   -0.0632   -1.3851 O   0  0  0  0  0  0  0  0  0  0  0  0
    1.0245   -0.9346   -0.2730 C   0  0  0  0  0  0  0  0  0  0  0  0
   -0.4343   -1.0364    0.1066 C   0  0  0  0  0  0  0  0  0  0  0  0
   -1.2423   -0.1494   -0.8567 C   0  0  0  0  0  0  0  0  0  0  0  0
   -0.5815    0.9872   -0.0814 C   0  0  0  0  0  0  0  0  0  0  0  0
   -0.7615    0.0609    1.1319 C   0  0  0  0  0  0  0  0  0  0  0  0
    1.3169    1.9381   -0.7478 H   0  0  0  0  0  0  0  0  0  0  0  0
    1.5706   -1.8718   -0.3548 H   0  0  0  0  0  0  0  0  0  0  0  0
   -0.8443   -2.0109    0.3074 H   0  0  0  0  0  0  0  0  0  0  0  0
   -2.3228   -0.2230   -0.6970 H   0  0  0  0  0  0  0  0  0  0  0  0
   -0.8834   -0.2387   -1.9010 H   0  0  0  0  0  0  0  0  0  0  0  0
   -1.0998    1.9242   -0.0471 H   0  0  0  0  0  0  0  0  0  0  0  0
   -1.8281    0.0479    1.4083 H   0  0  0  0  0  0  0  0  0  0  0  0
   -0.0257    0.1861    1.9201 H   0  0  0  0  0  0  0  0  0  0  0  0
  1  2  2  0
  2  3  1  0
  3  4  1  0
  4  5  1  0
  5  6  1  0
  6  7  1  0
  7  8  1  0
  8  9  1  0
  5  2  1  0
  9  6  1  0
  8  3  1  0
  3 10  1  0
  5 11  1  0
  6 12  1  0
  7 13  1  0
  7 14  1  0
  8 15  1  0
  9 16  1  0
  9 17  1  0
M  END
