
     RDKit          3D

 17 17  0  0  0  0  0  0  0  0999 V2000
   -3.0295    0.4927   -0.9097 O   0  0  0  0  0  0  0  0  0  0  0  0
   -1.9549    0.2222   -0.4611 C   0  0  0  0  0  0  0  0  0  0  0  0
   -1.4414   -1.1527   -0.5506 C   0  0  0  0  0  0  0  0  0  0  0  0
   -0.0790   -0.9784   -0.8923 O   0  0  0  0  0  0  0  0  0  0  0  0
    0.5586   -0.3940    0.1547 C   0  0  0  0  0  0  0  0  0  0  0  0
    2.0346   -0.2337   -0.2148 C   0  0  0  0  0  0  0  0  0  0  0  0
    2.7351    0.3589    0.8198 O   0  0  0  0  0  0  0  0  0  0  0  0
    0.1036    0.7823    0.6184 O   0  0  0  0  0  0  0  0  0  0  0  0
   -1.1144    1.2323    0.1880 C   0  0  0  0  0  0  0  0  0  0  0  0
   -1.4302   -1.6446    0.4447 H   0  0  0  0  0  0  0  0  0  0  0  0
   -1.9644   -1.7717   -1.3172 H   0  0  0  0  0  0  0  0  0  0  0  0
    0.5616   -1.1370    1.0060 H   0  0  0  0  0  0  0  0  0  0  0  0
    2.5031   -1.1992   -0.4688 H   0  0  0  0  0  0  0  0  0  0  0  0
    2.1453    0.4164   -1.1239 H   0  0  0  0  0  0  0  0  0  0  0  0
    3.0352    1.2738    0.6377 H   0  0  0  0  0  0  0  0  0  0  0  0
   -1.6758    1.5719    1.1105 H   0  0  0  0  0  0  0  0  0  0  0  0
   -0.9875    2.1608   -0.4090 H   0  0  0  0  0  0  0  0  0  0  0  0
  1  2  2  0
  2  3  1  0
  3  4  1  0
  4  5  1  0
  5  6  1  0
  6  7  1  0
  5  8  1  0
  8  9  1  0
  9  2  1  0
  3 10  1  0
  3 11  1  0
  5 12  1  0
  6 13  1  0
  6 14  1  0
  7 15  1  0
  9 16  1  0
  9 17  1  0
M  END
