
     RDKit          3D

 19 21  0  0  0  0  0  0  0  0999 V2000
    3.6695    0.0091   -0.6951 O   0  0  0  0  0  0  0  0  0  0  0  0
    2.5062    0.2582   -0.4328 C   0  0  0  0  0  0  0  0  0  0  0  0
    1.6800    0.0579    0.8084 C   0  0  0  0  0  0  0  0  0  0  0  0
    0.4698    0.2839   -0.0428 C   0  0  0  0  0  0  0  0  0  0  0  0
    1.3042    0.8531   -1.1053 C   0  0  0  0  0  0  0  0  0  0  0  0
   -0.8142    0.6385    0.3995 C   0  0  0  0  0  0  0  0  0  0  0  0
   -2.1704    0.1637   -0.1206 C   0  0  0  0  0  0  0  0  0  0  0  0
   -1.6843   -1.1213    0.5896 C   0  0  0  0  0  0  0  0  0  0  0  0
   -0.4553   -0.7772   -0.2327 C   0  0  0  0  0  0  0  0  0  0  0  0
    1.7578   -0.9837    1.1798 H   0  0  0  0  0  0  0  0  0  0  0  0
    1.7899    0.8533    1.5607 H   0  0  0  0  0  0  0  0  0  0  0  0
    1.4395    1.9615   -1.1224 H   0  0  0  0  0  0  0  0  0  0  0  0
    1.2018    0.4657   -2.1348 H   0  0  0  0  0  0  0  0  0  0  0  0
   -0.8984    0.6055    1.5359 H   0  0  0  0  0  0  0  0  0  0  0  0
   -3.0242    0.5717    0.3971 H   0  0  0  0  0  0  0  0  0  0  0  0
   -2.2216   -0.0232   -1.1940 H   0  0  0  0  0  0  0  0  0  0  0  0
   -1.6029   -0.9198    1.6671 H   0  0  0  0  0  0  0  0  0  0  0  0
   -2.1744   -2.0294    0.2652 H   0  0  0  0  0  0  0  0  0  0  0  0
   -0.7729   -0.8677   -1.3229 H   0  0  0  0  0  0  0  0  0  0  0  0
  1  2  2  0
  2  3  1  0
  3  4  1  0
  4  5  1  0
  4  6  1  0
  6  7  1  0
  7  8  1  0
  8  9  1  0
  5  2  1  0
  9  6  1  0
  9  4  1  0
  3 10  1  0
  3 11  1  0
  5 12  1  0
  5 13  1  0
  6 14  1  0
  7 15  1  0
  7 16  1  0
  8 17  1  0
  8 18  1  0
  9 19  1  0
M  END
