
     RDKit          3D

 17 18  0  0  0  0  0  0  0  0999 V2000
   -3.0815   -0.5910   -0.6348 O   0  0  0  0  0  0  0  0  0  0  0  0
   -1.8874   -0.5817   -0.3019 C   0  0  0  0  0  0  0  0  0  0  0  0
   -0.7995   -1.4651   -0.6176 C   0  0  0  0  0  0  0  0  0  0  0  0
    0.3745   -0.9026   -0.4358 C   0  0  0  0  0  0  0  0  0  0  0  0
    1.7899   -0.4821   -0.3046 C   0  0  0  0  0  0  0  0  0  0  0  0
    1.2616    0.3649    0.8898 C   0  0  0  0  0  0  0  0  0  0  0  0
    0.0827    0.5434   -0.0240 C   0  0  0  0  0  0  0  0  0  0  0  0
    0.2474    1.4147   -1.0734 O   0  0  0  0  0  0  0  0  0  0  0  0
   -1.2832    0.4651    0.5898 C   0  0  0  0  0  0  0  0  0  0  0  0
   -0.9426   -2.4942   -0.9709 H   0  0  0  0  0  0  0  0  0  0  0  0
    2.0724    0.1780   -1.1415 H   0  0  0  0  0  0  0  0  0  0  0  0
    2.5038   -1.2492   -0.0100 H   0  0  0  0  0  0  0  0  0  0  0  0
    1.0455   -0.3033    1.7204 H   0  0  0  0  0  0  0  0  0  0  0  0
    1.8513    1.2627    1.0727 H   0  0  0  0  0  0  0  0  0  0  0  0
   -0.2353    2.2563   -0.8794 H   0  0  0  0  0  0  0  0  0  0  0  0
   -1.7756    1.4287    0.4918 H   0  0  0  0  0  0  0  0  0  0  0  0
   -1.2240    0.1553    1.6293 H   0  0  0  0  0  0  0  0  0  0  0  0
  1  2  2  0
  2  3  1  0
  3  4  2  0
  4  5  1  0
  5  6  1  0
  6  7  1  0
  7  8  1  0
  7  9  1  0
  9  2  1  0
  7  4  1  0
  3 10  1  0
  5 11  1  0
  5 12  1  0
  6 13  1  0
  6 14  1  0
  8 15  1  0
  9 16  1  0
  9 17  1  0
M  END
