
     RDKit          3D

 15 17  0  0  0  0  0  0  0  0999 V2000
   -1.3876    1.8801   -1.1090 O   0  0  0  0  0  0  0  0  0  0  0  0
   -0.7654    1.0443   -0.4754 C   0  0  0  0  0  0  0  0  0  0  0  0
   -1.1280   -0.2961    0.0007 C   0  0  0  0  0  0  0  0  0  0  0  0
   -2.0366   -0.9643   -0.7563 O   0  0  0  0  0  0  0  0  0  0  0  0
    0.1959   -0.9943    0.1605 C   0  0  0  0  0  0  0  0  0  0  0  0
    1.4242   -0.4612   -0.4865 C   0  0  0  0  0  0  0  0  0  0  0  0
    1.5056    0.7943   -1.0161 O   0  0  0  0  0  0  0  0  0  0  0  0
    0.6370    1.2854   -0.0301 C   0  0  0  0  0  0  0  0  0  0  0  0
    0.9724    0.0767    0.7824 C   0  0  0  0  0  0  0  0  0  0  0  0
   -1.5409   -0.1687    1.0445 H   0  0  0  0  0  0  0  0  0  0  0  0
   -2.7190   -1.4031   -0.1768 H   0  0  0  0  0  0  0  0  0  0  0  0
    0.2141   -2.0424    0.4528 H   0  0  0  0  0  0  0  0  0  0  0  0
    2.3080   -1.0923   -0.4900 H   0  0  0  0  0  0  0  0  0  0  0  0
    0.8633    2.2618    0.3747 H   0  0  0  0  0  0  0  0  0  0  0  0
    1.4570    0.0800    1.7245 H   0  0  0  0  0  0  0  0  0  0  0  0
  1  2  2  0
  2  3  1  0
  3  4  1  0
  3  5  1  0
  5  6  1  0
  6  7  1  0
  7  8  1  0
  8  9  1  0
  8  2  1  0
  9  5  1  0
  9  6  1  0
  3 10  1  0
  4 11  1  0
  5 12  1  0
  6 13  1  0
  8 14  1  0
  9 15  1  0
M  END
