
     RDKit          3D

 18 18  0  0  0  0  0  0  0  0999 V2000
    0.6529    0.2278    2.1164 O   0  0  0  0  0  0  0  0  0  0  0  0
   -0.0307    0.3378    1.1407 C   0  0  0  0  0  0  0  0  0  0  0  0
   -1.4977    0.2071    1.0926 C   0  0  0  0  0  0  0  0  0  0  0  0
   -1.6622   -0.6226   -0.1747 C   0  0  0  0  0  0  0  0  0  0  0  0
   -0.4808   -0.2813   -1.0567 C   0  0  0  0  0  0  0  0  0  0  0  0
    0.4024    0.6252   -0.2339 C   0  0  0  0  0  0  0  0  0  0  0  0
    1.8640    0.3830   -0.4767 C   0  0  0  0  0  0  0  0  0  0  0  0
    2.2057   -0.9287   -0.2380 O   0  0  0  0  0  0  0  0  0  0  0  0
   -1.9669    1.2070    0.9808 H   0  0  0  0  0  0  0  0  0  0  0  0
   -1.9217   -0.3668    1.9388 H   0  0  0  0  0  0  0  0  0  0  0  0
   -1.5477   -1.6826    0.1286 H   0  0  0  0  0  0  0  0  0  0  0  0
   -2.6284   -0.4224   -0.6692 H   0  0  0  0  0  0  0  0  0  0  0  0
   -0.8429    0.1849   -1.9862 H   0  0  0  0  0  0  0  0  0  0  0  0
    0.1242   -1.1862   -1.3005 H   0  0  0  0  0  0  0  0  0  0  0  0
    0.1335    1.6662   -0.4798 H   0  0  0  0  0  0  0  0  0  0  0  0
    2.0701    0.6253   -1.5378 H   0  0  0  0  0  0  0  0  0  0  0  0
    2.4264    1.1038    0.1484 H   0  0  0  0  0  0  0  0  0  0  0  0
    2.6997   -1.0773    0.6071 H   0  0  0  0  0  0  0  0  0  0  0  0
  1  2  2  0
  2  3  1  0
  3  4  1  0
  4  5  1  0
  5  6  1  0
  6  7  1  0
  7  8  1  0
  6  2  1  0
  3  9  1  0
  3 10  1  0
  4 11  1  0
  4 12  1  0
  5 13  1  0
  5 14  1  0
  6 15  1  0
  7 16  1  0
  7 17  1  0
  8 18  1  0
M  END
