
     RDKit          3D

 17 19  0  0  0  0  0  0  0  0999 V2000
   -1.6475   -2.2427   -0.5635 O   0  0  0  0  0  0  0  0  0  0  0  0
   -1.4674   -1.1747   -0.0501 C   0  0  0  0  0  0  0  0  0  0  0  0
   -2.0373    0.1745   -0.2622 C   0  0  0  0  0  0  0  0  0  0  0  0
   -1.0700    0.8062    0.6691 C   0  0  0  0  0  0  0  0  0  0  0  0
   -0.6223   -0.6314    1.0242 C   0  0  0  0  0  0  0  0  0  0  0  0
    0.3499    0.4294    0.7492 C   0  0  0  0  0  0  0  0  0  0  0  0
    1.2280    0.4158   -0.4789 C   0  0  0  0  0  0  0  0  0  0  0  0
    2.6642    0.0162   -0.2905 C   0  0  0  0  0  0  0  0  0  0  0  0
    1.6310   -0.7684   -1.0390 O   0  0  0  0  0  0  0  0  0  0  0  0
   -1.9515    0.4649   -1.3312 H   0  0  0  0  0  0  0  0  0  0  0  0
   -3.1023    0.1829    0.0800 H   0  0  0  0  0  0  0  0  0  0  0  0
   -1.5510    1.3693    1.5149 H   0  0  0  0  0  0  0  0  0  0  0  0
   -0.8043   -0.9355    2.0806 H   0  0  0  0  0  0  0  0  0  0  0  0
    0.8911    0.8314    1.6490 H   0  0  0  0  0  0  0  0  0  0  0  0
    1.0961    1.2700   -1.1775 H   0  0  0  0  0  0  0  0  0  0  0  0
    2.9448   -0.6174    0.5831 H   0  0  0  0  0  0  0  0  0  0  0  0
    3.4486    0.4093   -0.9372 H   0  0  0  0  0  0  0  0  0  0  0  0
  1  2  2  0
  2  3  1  0
  3  4  1  0
  4  5  1  0
  5  6  1  0
  6  7  1  0
  7  8  1  0
  8  9  1  0
  5  2  1  0
  9  7  1  0
  6  4  1  0
  3 10  1  0
  3 11  1  0
  4 12  1  0
  5 13  1  0
  6 14  1  0
  7 15  1  0
  8 16  1  0
  8 17  1  0
M  END
