
     RDKit          3D

 17 18  0  0  0  0  0  0  0  0999 V2000
   -2.1568    2.0023   -0.6204 O   0  0  0  0  0  0  0  0  0  0  0  0
   -1.3407    1.2101   -0.2847 C   0  0  0  0  0  0  0  0  0  0  0  0
   -1.4775   -0.2459   -0.1780 C   0  0  0  0  0  0  0  0  0  0  0  0
   -0.3902   -0.5766    0.8415 C   0  0  0  0  0  0  0  0  0  0  0  0
    0.7425   -1.2490    0.0967 C   0  0  0  0  0  0  0  0  0  0  0  0
    1.6136   -0.1301   -0.4587 C   0  0  0  0  0  0  0  0  0  0  0  0
    0.8752    0.9541   -0.8711 O   0  0  0  0  0  0  0  0  0  0  0  0
    0.0464    1.4642    0.1218 C   0  0  0  0  0  0  0  0  0  0  0  0
    0.1073    0.6504    1.2779 O   0  0  0  0  0  0  0  0  0  0  0  0
   -1.2284   -0.6764   -1.1850 H   0  0  0  0  0  0  0  0  0  0  0  0
   -2.4714   -0.5803    0.1712 H   0  0  0  0  0  0  0  0  0  0  0  0
   -0.8069   -1.1921    1.6500 H   0  0  0  0  0  0  0  0  0  0  0  0
    0.3938   -1.9030   -0.7164 H   0  0  0  0  0  0  0  0  0  0  0  0
    1.3369   -1.8195    0.8542 H   0  0  0  0  0  0  0  0  0  0  0  0
    2.1195   -0.5472   -1.3606 H   0  0  0  0  0  0  0  0  0  0  0  0
    2.3761    0.1242    0.2952 H   0  0  0  0  0  0  0  0  0  0  0  0
    0.2607    2.5147    0.3662 H   0  0  0  0  0  0  0  0  0  0  0  0
  1  2  2  0
  2  3  1  0
  3  4  1  0
  4  5  1  0
  5  6  1  0
  6  7  1  0
  7  8  1  0
  8  9  1  0
  8  2  1  0
  9  4  1  0
  3 10  1  0
  3 11  1  0
  4 12  1  0
  5 13  1  0
  5 14  1  0
  6 15  1  0
  6 16  1  0
  8 17  1  0
M  END
