
     RDKit          3D

 17 18  0  0  0  0  0  0  0  0999 V2000
    1.6333   -2.3055   -0.9551 O   0  0  0  0  0  0  0  0  0  0  0  0
    1.1106   -1.2484   -0.5072 C   0  0  0  0  0  0  0  0  0  0  0  0
    1.8351   -0.3159    0.3486 C   0  0  0  0  0  0  0  0  0  0  0  0
    1.2267    0.8611    0.3291 C   0  0  0  0  0  0  0  0  0  0  0  0
    0.0301    0.8060   -0.5546 C   0  0  0  0  0  0  0  0  0  0  0  0
   -1.1925    1.2685    0.1727 C   0  0  0  0  0  0  0  0  0  0  0  0
   -1.7074    0.2205    0.8755 O   0  0  0  0  0  0  0  0  0  0  0  0
   -1.1232   -0.9461    0.4917 C   0  0  0  0  0  0  0  0  0  0  0  0
   -0.2336   -0.6909   -0.6861 C   0  0  0  0  0  0  0  0  0  0  0  0
    2.7436   -0.5233    0.9306 H   0  0  0  0  0  0  0  0  0  0  0  0
    1.5046    1.7733    0.8550 H   0  0  0  0  0  0  0  0  0  0  0  0
    0.1636    1.2986   -1.5134 H   0  0  0  0  0  0  0  0  0  0  0  0
   -0.9009    2.1116    0.8498 H   0  0  0  0  0  0  0  0  0  0  0  0
   -1.9740    1.6628   -0.5295 H   0  0  0  0  0  0  0  0  0  0  0  0
   -0.5106   -1.3356    1.3138 H   0  0  0  0  0  0  0  0  0  0  0  0
   -1.8993   -1.6923    0.2323 H   0  0  0  0  0  0  0  0  0  0  0  0
   -0.7061   -0.9443   -1.6532 H   0  0  0  0  0  0  0  0  0  0  0  0
  1  2  2  0
  2  3  1  0
  3  4  2  0
  4  5  1  0
  5  6  1  0
  6  7  1  0
  7  8  1  0
  8  9  1  0
  9  2  1  0
  9  5  1  0
  3 10  1  0
  4 11  1  0
  5 12  1  0
  6 13  1  0
  6 14  1  0
  8 15  1  0
  8 16  1  0
  9 17  1  0
M  END
