
     RDKit          3D

 15 17  0  0  0  0  0  0  0  0999 V2000
   -1.2799    2.1123   -0.4798 O   0  0  0  0  0  0  0  0  0  0  0  0
   -0.9811    1.0349   -0.0583 C   0  0  0  0  0  0  0  0  0  0  0  0
   -1.8931   -0.1789    0.0558 C   0  0  0  0  0  0  0  0  0  0  0  0
   -0.9199   -1.2241   -0.4638 C   0  0  0  0  0  0  0  0  0  0  0  0
    0.3149   -0.8140   -0.3046 C   0  0  0  0  0  0  0  0  0  0  0  0
    1.7830   -0.6279   -0.2595 C   0  0  0  0  0  0  0  0  0  0  0  0
    2.2412    0.3453   -1.1448 O   0  0  0  0  0  0  0  0  0  0  0  0
    1.5939    0.8959   -0.0540 C   0  0  0  0  0  0  0  0  0  0  0  0
    0.2771    0.5164    0.4664 C   0  0  0  0  0  0  0  0  0  0  0  0
   -2.7377   -0.0253   -0.6030 H   0  0  0  0  0  0  0  0  0  0  0  0
   -2.1291   -0.4267    1.0898 H   0  0  0  0  0  0  0  0  0  0  0  0
   -1.2891   -2.1480   -0.8890 H   0  0  0  0  0  0  0  0  0  0  0  0
    2.4283   -1.1353    0.4453 H   0  0  0  0  0  0  0  0  0  0  0  0
    2.3411    1.3999    0.6403 H   0  0  0  0  0  0  0  0  0  0  0  0
    0.2504    0.2755    1.5592 H   0  0  0  0  0  0  0  0  0  0  0  0
  1  2  2  0
  2  3  1  0
  3  4  1  0
  4  5  2  0
  5  6  1  0
  6  7  1  0
  7  8  1  0
  8  9  1  0
  9  2  1  0
  9  5  1  0
  8  6  1  0
  3 10  1  0
  3 11  1  0
  4 12  1  0
  6 13  1  0
  8 14  1  0
  9 15  1  0
M  END
