
     RDKit          3D

 17 18  0  0  0  0  0  0  0  0999 V2000
    2.4392    1.4649   -0.7542 O   0  0  0  0  0  0  0  0  0  0  0  0
    1.3101    1.0740   -0.3688 C   0  0  0  0  0  0  0  0  0  0  0  0
    0.1358    1.7753   -0.5386 O   0  0  0  0  0  0  0  0  0  0  0  0
   -1.1346    1.1605   -0.4190 C   0  0  0  0  0  0  0  0  0  0  0  0
   -1.0907   -0.1564    0.2933 C   0  0  0  0  0  0  0  0  0  0  0  0
   -0.6063   -1.2394   -0.6479 C   0  0  0  0  0  0  0  0  0  0  0  0
    0.7165   -1.2419   -0.6499 C   0  0  0  0  0  0  0  0  0  0  0  0
    1.2237   -0.2417    0.3230 C   0  0  0  0  0  0  0  0  0  0  0  0
    0.0554   -0.2159    1.3129 C   0  0  0  0  0  0  0  0  0  0  0  0
   -1.8459    1.8627    0.0566 H   0  0  0  0  0  0  0  0  0  0  0  0
   -1.4562    0.9380   -1.4790 H   0  0  0  0  0  0  0  0  0  0  0  0
   -2.0550   -0.4076    0.7396 H   0  0  0  0  0  0  0  0  0  0  0  0
   -1.3136   -1.8578   -1.1857 H   0  0  0  0  0  0  0  0  0  0  0  0
    1.3587   -1.8564   -1.2471 H   0  0  0  0  0  0  0  0  0  0  0  0
    2.1641   -0.5076    0.7903 H   0  0  0  0  0  0  0  0  0  0  0  0
    0.0207   -1.1932    1.8032 H   0  0  0  0  0  0  0  0  0  0  0  0
    0.0780    0.6425    1.9713 H   0  0  0  0  0  0  0  0  0  0  0  0
  1  2  2  0
  2  3  1  0
  3  4  1  0
  4  5  1  0
  5  6  1  0
  6  7  2  0
  7  8  1  0
  8  9  1  0
  8  2  1  0
  9  5  1  0
  4 10  1  0
  4 11  1  0
  5 12  1  0
  6 13  1  0
  7 14  1  0
  8 15  1  0
  9 16  1  0
  9 17  1  0
M  END
