
     RDKit          3D

 19 20  0  0  0  0  0  0  0  0999 V2000
    1.0060    2.5973    1.1118 O   0  0  0  0  0  0  0  0  0  0  0  0
    0.4163    1.6383    0.6435 C   0  0  0  0  0  0  0  0  0  0  0  0
   -0.9127    1.0559    0.9768 C   0  0  0  0  0  0  0  0  0  0  0  0
   -0.6663    0.0108   -0.0643 C   0  0  0  0  0  0  0  0  0  0  0  0
   -1.7095   -0.3745   -1.0067 C   0  0  0  0  0  0  0  0  0  0  0  0
   -1.0623   -1.3547   -0.0082 C   0  0  0  0  0  0  0  0  0  0  0  0
    0.6341    0.6024   -0.4063 C   0  0  0  0  0  0  0  0  0  0  0  0
    1.8795   -0.1830   -0.1262 C   0  0  0  0  0  0  0  0  0  0  0  0
    1.8763   -0.8471    1.0674 O   0  0  0  0  0  0  0  0  0  0  0  0
   -1.0401    0.7144    2.0134 H   0  0  0  0  0  0  0  0  0  0  0  0
   -1.7307    1.7738    0.6815 H   0  0  0  0  0  0  0  0  0  0  0  0
   -1.5002   -0.5289   -2.0827 H   0  0  0  0  0  0  0  0  0  0  0  0
   -2.7774   -0.1603   -0.7951 H   0  0  0  0  0  0  0  0  0  0  0  0
   -1.7164   -1.7036    0.8401 H   0  0  0  0  0  0  0  0  0  0  0  0
   -0.5212   -2.1634   -0.4852 H   0  0  0  0  0  0  0  0  0  0  0  0
    0.6294    1.0582   -1.4167 H   0  0  0  0  0  0  0  0  0  0  0  0
    2.7705    0.4702   -0.1596 H   0  0  0  0  0  0  0  0  0  0  0  0
    1.9963   -0.9240   -0.9520 H   0  0  0  0  0  0  0  0  0  0  0  0
    2.4285   -1.6817    0.9639 H   0  0  0  0  0  0  0  0  0  0  0  0
  1  2  2  0
  2  3  1  0
  3  4  1  0
  4  5  1  0
  5  6  1  0
  4  7  1  0
  7  8  1  0
  8  9  1  0
  7  2  1  0
  6  4  1  0
  3 10  1  0
  3 11  1  0
  5 12  1  0
  5 13  1  0
  6 14  1  0
  6 15  1  0
  7 16  1  0
  8 17  1  0
  8 18  1  0
  9 19  1  0
M  END
