
     RDKit          3D

 14 15  0  0  0  0  0  0  0  0999 V2000
    0.0928    2.4266   -0.8826 O   0  0  0  0  0  0  0  0  0  0  0  0
    0.2947    1.2443   -0.5020 C   0  0  0  0  0  0  0  0  0  0  0  0
    1.4823    0.6947    0.1329 C   0  0  0  0  0  0  0  0  0  0  0  0
    1.3746   -0.6129    0.2793 C   0  0  0  0  0  0  0  0  0  0  0  0
    0.0963   -1.1015   -0.2416 C   0  0  0  0  0  0  0  0  0  0  0  0
   -0.8933   -1.3828    0.6737 O   0  0  0  0  0  0  0  0  0  0  0  0
   -1.4638   -0.1010    0.6321 C   0  0  0  0  0  0  0  0  0  0  0  0
   -0.6735    0.1405   -0.6308 C   0  0  0  0  0  0  0  0  0  0  0  0
    2.3185    1.3100    0.4292 H   0  0  0  0  0  0  0  0  0  0  0  0
    2.1420   -1.2264    0.7283 H   0  0  0  0  0  0  0  0  0  0  0  0
    0.1750   -1.8753   -1.0065 H   0  0  0  0  0  0  0  0  0  0  0  0
   -1.1662    0.4987    1.5074 H   0  0  0  0  0  0  0  0  0  0  0  0
   -2.5597   -0.1021    0.4523 H   0  0  0  0  0  0  0  0  0  0  0  0
   -1.2196    0.0872   -1.5716 H   0  0  0  0  0  0  0  0  0  0  0  0
  1  2  2  0
  2  3  1  0
  3  4  2  0
  4  5  1  0
  5  6  1  0
  6  7  1  0
  7  8  1  0
  8  2  1  0
  8  5  1  0
  3  9  1  0
  4 10  1  0
  5 11  1  0
  7 12  1  0
  7 13  1  0
  8 14  1  0
M  END
