
     RDKit          3D

 15 16  0  0  0  0  0  0  0  0999 V2000
    0.4123   -0.1231    2.5861 O   0  0  0  0  0  0  0  0  0  0  0  0
    0.2619   -0.0639    1.3804 C   0  0  0  0  0  0  0  0  0  0  0  0
    1.3140   -0.3169    0.3124 C   0  0  0  0  0  0  0  0  0  0  0  0
    0.4337   -0.1617   -0.8949 C   0  0  0  0  0  0  0  0  0  0  0  0
   -0.8544   -0.8629   -0.4967 C   0  0  0  0  0  0  0  0  0  0  0  0
   -0.9156    0.2535    0.5530 C   0  0  0  0  0  0  0  0  0  0  0  0
   -0.3254    1.1275   -0.5513 C   0  0  0  0  0  0  0  0  0  0  0  0
    2.0094    0.5402    0.3927 H   0  0  0  0  0  0  0  0  0  0  0  0
    1.7683   -1.2955    0.4278 H   0  0  0  0  0  0  0  0  0  0  0  0
    0.8112   -0.2756   -1.8698 H   0  0  0  0  0  0  0  0  0  0  0  0
   -0.7384   -1.8447   -0.0392 H   0  0  0  0  0  0  0  0  0  0  0  0
   -1.6376   -0.7877   -1.2676 H   0  0  0  0  0  0  0  0  0  0  0  0
   -1.8439    0.5058    0.9708 H   0  0  0  0  0  0  0  0  0  0  0  0
   -1.0702    1.4163   -1.3041 H   0  0  0  0  0  0  0  0  0  0  0  0
    0.3748    1.8887   -0.1995 H   0  0  0  0  0  0  0  0  0  0  0  0
  1  2  2  0
  2  3  1  0
  3  4  1  0
  4  5  1  0
  5  6  1  0
  6  7  1  0
  6  2  1  0
  7  4  1  0
  3  8  1  0
  3  9  1  0
  4 10  1  0
  5 11  1  0
  5 12  1  0
  6 13  1  0
  7 14  1  0
  7 15  1  0
M  END
