
     RDKit          3D

 17 17  0  0  0  0  0  0  0  0999 V2000
    0.4717    3.0299   -0.8475 O   0  0  0  0  0  0  0  0  0  0  0  0
    0.3807    1.9326   -0.2341 C   0  0  0  0  0  0  0  0  0  0  0  0
    1.5461    1.2221   -0.0946 O   0  0  0  0  0  0  0  0  0  0  0  0
    1.8971   -0.0072    0.5057 C   0  0  0  0  0  0  0  0  0  0  0  0
    1.1438   -1.1566   -0.0072 C   0  0  0  0  0  0  0  0  0  0  0  0
   -0.1129   -1.3350   -0.3850 C   0  0  0  0  0  0  0  0  0  0  0  0
   -1.3657   -0.6076   -0.5129 C   0  0  0  0  0  0  0  0  0  0  0  0
   -1.6237    0.4703    0.4640 C   0  0  0  0  0  0  0  0  0  0  0  0
   -0.9332    1.6715    0.1839 O   0  0  0  0  0  0  0  0  0  0  0  0
    2.9813   -0.1799    0.2386 H   0  0  0  0  0  0  0  0  0  0  0  0
    1.8963    0.0538    1.6239 H   0  0  0  0  0  0  0  0  0  0  0  0
    1.7452   -2.0775   -0.1030 H   0  0  0  0  0  0  0  0  0  0  0  0
   -0.2558   -2.3631   -0.7051 H   0  0  0  0  0  0  0  0  0  0  0  0
   -1.3893   -0.1486   -1.5447 H   0  0  0  0  0  0  0  0  0  0  0  0
   -2.2520   -1.2977   -0.5080 H   0  0  0  0  0  0  0  0  0  0  0  0
   -1.4202    0.0869    1.4879 H   0  0  0  0  0  0  0  0  0  0  0  0
   -2.7094    0.7061    0.4381 H   0  0  0  0  0  0  0  0  0  0  0  0
  1  2  2  0
  2  3  1  0
  3  4  1  0
  4  5  1  0
  5  6  2  3
  6  7  1  0
  7  8  1  0
  8  9  1  0
  9  2  1  0
  4 10  1  0
  4 11  1  0
  5 12  1  0
  6 13  1  0
  7 14  1  0
  7 15  1  0
  8 16  1  0
  8 17  1  0
M  END
