
     RDKit          3D

 19 21  0  0  0  0  0  0  0  0999 V2000
    1.0806    2.0744    1.6044 O   0  0  0  0  0  0  0  0  0  0  0  0
    1.0569    1.1087    0.9010 C   0  0  0  0  0  0  0  0  0  0  0  0
    1.5561    0.5180   -0.3700 C   0  0  0  0  0  0  0  0  0  0  0  0
    1.6207   -0.7964    0.4255 C   0  0  0  0  0  0  0  0  0  0  0  0
    0.3456   -0.2096    1.0518 C   0  0  0  0  0  0  0  0  0  0  0  0
   -0.6073   -0.1649   -0.0733 C   0  0  0  0  0  0  0  0  0  0  0  0
   -1.9107    0.5562    0.0157 C   0  0  0  0  0  0  0  0  0  0  0  0
   -1.7860   -0.9428   -0.2762 C   0  0  0  0  0  0  0  0  0  0  0  0
    0.3339    0.2514   -1.2149 C   0  0  0  0  0  0  0  0  0  0  0  0
    2.4449    0.8743   -0.8084 H   0  0  0  0  0  0  0  0  0  0  0  0
    2.4864   -0.8198    1.0885 H   0  0  0  0  0  0  0  0  0  0  0  0
    1.4497   -1.6504   -0.2337 H   0  0  0  0  0  0  0  0  0  0  0  0
    0.0825   -0.5294    2.0239 H   0  0  0  0  0  0  0  0  0  0  0  0
   -2.2052    1.2270   -0.8140 H   0  0  0  0  0  0  0  0  0  0  0  0
   -2.2035    0.8636    1.0379 H   0  0  0  0  0  0  0  0  0  0  0  0
   -2.1626   -1.5898    0.5296 H   0  0  0  0  0  0  0  0  0  0  0  0
   -2.1129   -1.2755   -1.2840 H   0  0  0  0  0  0  0  0  0  0  0  0
    0.5744   -0.6185   -1.8600 H   0  0  0  0  0  0  0  0  0  0  0  0
   -0.0434    1.1236   -1.7439 H   0  0  0  0  0  0  0  0  0  0  0  0
  1  2  2  0
  2  3  1  0
  3  4  1  0
  4  5  1  0
  5  6  1  0
  6  7  1  0
  7  8  1  0
  6  9  1  0
  5  2  1  0
  8  6  1  0
  9  3  1  0
  3 10  1  0
  4 11  1  0
  4 12  1  0
  5 13  1  0
  7 14  1  0
  7 15  1  0
  8 16  1  0
  8 17  1  0
  9 18  1  0
  9 19  1  0
M  END
