
     RDKit          3D

 13 14  0  0  0  0  0  0  0  0999 V2000
   -2.4426    0.2213    1.1141 O   0  0  0  0  0  0  0  0  0  0  0  0
   -1.4452    0.2832    0.4586 C   0  0  0  0  0  0  0  0  0  0  0  0
   -0.2274    1.1178    0.4426 C   0  0  0  0  0  0  0  0  0  0  0  0
    0.4446   -0.0232   -0.1923 C   0  0  0  0  0  0  0  0  0  0  0  0
    1.6602   -0.5905   -0.1327 C   0  0  0  0  0  0  0  0  0  0  0  0
    0.8121   -0.9891    0.9142 O   0  0  0  0  0  0  0  0  0  0  0  0
   -0.8829   -0.4441   -0.6986 C   0  0  0  0  0  0  0  0  0  0  0  0
   -0.3709    1.9681   -0.2832 H   0  0  0  0  0  0  0  0  0  0  0  0
    0.1401    1.4645    1.4268 H   0  0  0  0  0  0  0  0  0  0  0  0
    1.9261   -1.4831   -0.7712 H   0  0  0  0  0  0  0  0  0  0  0  0
    2.5758   -0.0201    0.1311 H   0  0  0  0  0  0  0  0  0  0  0  0
   -1.1110    0.0309   -1.6845 H   0  0  0  0  0  0  0  0  0  0  0  0
   -1.0790   -1.5356   -0.7249 H   0  0  0  0  0  0  0  0  0  0  0  0
  1  2  2  0
  2  3  1  0
  3  4  1  0
  4  5  1  0
  5  6  1  0
  4  7  1  0
  7  2  1  0
  6  4  1  0
  3  8  1  0
  3  9  1  0
  5 10  1  0
  5 11  1  0
  7 12  1  0
  7 13  1  0
M  END
