
     RDKit          3D

 13 14  0  0  0  0  0  0  0  0999 V2000
   -2.4307   -0.8159   -0.3509 O   0  0  0  0  0  0  0  0  0  0  0  0
   -1.3514   -0.3212   -0.2077 C   0  0  0  0  0  0  0  0  0  0  0  0
   -0.9724    1.1064   -0.3344 C   0  0  0  0  0  0  0  0  0  0  0  0
    0.2460    1.2780    0.2534 O   0  0  0  0  0  0  0  0  0  0  0  0
    0.8139    0.0751    0.5397 C   0  0  0  0  0  0  0  0  0  0  0  0
    1.7514   -0.3409   -0.5585 C   0  0  0  0  0  0  0  0  0  0  0  0
    2.8867    0.0455   -0.8851 O   0  0  0  0  0  0  0  0  0  0  0  0
    0.7807   -1.2588   -0.9413 O   0  0  0  0  0  0  0  0  0  0  0  0
   -0.0958   -1.0287    0.1400 C   0  0  0  0  0  0  0  0  0  0  0  0
   -1.7104    1.7748    0.1917 H   0  0  0  0  0  0  0  0  0  0  0  0
   -0.9741    1.3803   -1.4169 H   0  0  0  0  0  0  0  0  0  0  0  0
    1.2878   -0.0311    1.5431 H   0  0  0  0  0  0  0  0  0  0  0  0
   -0.2317   -1.8635    0.8267 H   0  0  0  0  0  0  0  0  0  0  0  0
  1  2  2  0
  2  3  1  0
  3  4  1  0
  4  5  1  0
  5  6  1  0
  6  7  2  0
  6  8  1  0
  8  9  1  0
  9  2  1  0
  9  5  1  0
  3 10  1  0
  3 11  1  0
  5 12  1  0
  9 13  1  0
M  END
