
     RDKit          3D

 17 18  0  0  0  0  0  0  0  0999 V2000
    2.9763   -1.1177    0.3687 O   0  0  0  0  0  0  0  0  0  0  0  0
    1.8205   -0.6932    0.1395 C   0  0  0  0  0  0  0  0  0  0  0  0
    1.6935    0.3683   -0.7717 O   0  0  0  0  0  0  0  0  0  0  0  0
    0.5942    1.2310   -0.8510 C   0  0  0  0  0  0  0  0  0  0  0  0
   -0.7035    0.6473   -0.4469 C   0  0  0  0  0  0  0  0  0  0  0  0
   -0.7216    0.4072    1.0493 C   0  0  0  0  0  0  0  0  0  0  0  0
   -0.5567   -1.0622    0.8291 C   0  0  0  0  0  0  0  0  0  0  0  0
   -0.8768   -0.8087   -0.6517 C   0  0  0  0  0  0  0  0  0  0  0  0
    0.8443   -1.3767    0.8558 O   0  0  0  0  0  0  0  0  0  0  0  0
    0.5624    1.7184   -1.8598 H   0  0  0  0  0  0  0  0  0  0  0  0
    0.8153    2.0870   -0.1457 H   0  0  0  0  0  0  0  0  0  0  0  0
   -1.5681    1.2530   -0.8094 H   0  0  0  0  0  0  0  0  0  0  0  0
   -1.6936    0.6537    1.5404 H   0  0  0  0  0  0  0  0  0  0  0  0
    0.1399    0.8524    1.5879 H   0  0  0  0  0  0  0  0  0  0  0  0
   -1.2118   -1.7529    1.3441 H   0  0  0  0  0  0  0  0  0  0  0  0
   -0.1862   -1.3252   -1.3412 H   0  0  0  0  0  0  0  0  0  0  0  0
   -1.9281   -1.0816   -0.8375 H   0  0  0  0  0  0  0  0  0  0  0  0
  1  2  2  0
  2  3  1  0
  3  4  1  0
  4  5  1  0
  5  6  1  0
  6  7  1  0
  7  8  1  0
  7  9  1  0
  9  2  1  0
  8  5  1  0
  4 10  1  0
  4 11  1  0
  5 12  1  0
  6 13  1  0
  6 14  1  0
  7 15  1  0
  8 16  1  0
  8 17  1  0
M  END
