
     RDKit          3D

 17 18  0  0  0  0  0  0  0  0999 V2000
    2.3535   -1.8472   -0.1172 O   0  0  0  0  0  0  0  0  0  0  0  0
    1.2682   -1.2650    0.1291 C   0  0  0  0  0  0  0  0  0  0  0  0
    1.2108    0.0999    0.7177 C   0  0  0  0  0  0  0  0  0  0  0  0
   -0.0209    0.7702    0.1686 C   0  0  0  0  0  0  0  0  0  0  0  0
   -0.0682    2.1305    0.2141 O   0  0  0  0  0  0  0  0  0  0  0  0
   -0.4031    0.1791   -1.1938 C   0  0  0  0  0  0  0  0  0  0  0  0
   -1.0419   -0.9594   -0.3913 C   0  0  0  0  0  0  0  0  0  0  0  0
   -1.2235    0.0312    0.7345 C   0  0  0  0  0  0  0  0  0  0  0  0
    0.0213   -1.8643   -0.1350 O   0  0  0  0  0  0  0  0  0  0  0  0
    2.1361    0.6580    0.5237 H   0  0  0  0  0  0  0  0  0  0  0  0
    1.0349   -0.0335    1.8242 H   0  0  0  0  0  0  0  0  0  0  0  0
    0.4913    2.5296   -0.5012 H   0  0  0  0  0  0  0  0  0  0  0  0
   -1.1381    0.7623   -1.7325 H   0  0  0  0  0  0  0  0  0  0  0  0
    0.5266   -0.1022   -1.7177 H   0  0  0  0  0  0  0  0  0  0  0  0
   -1.9295   -1.3577   -0.8569 H   0  0  0  0  0  0  0  0  0  0  0  0
   -2.1233    0.6336    0.5814 H   0  0  0  0  0  0  0  0  0  0  0  0
   -1.0944   -0.3651    1.7524 H   0  0  0  0  0  0  0  0  0  0  0  0
  1  2  2  0
  2  3  1  0
  3  4  1  0
  4  5  1  0
  4  6  1  0
  6  7  1  0
  7  8  1  0
  7  9  1  0
  9  2  1  0
  8  4  1  0
  3 10  1  0
  3 11  1  0
  5 12  1  0
  6 13  1  0
  6 14  1  0
  7 15  1  0
  8 16  1  0
  8 17  1  0
M  END
