
     RDKit          3D

 15 16  0  0  0  0  0  0  0  0999 V2000
    2.5400   -1.6308    0.1650 O   0  0  0  0  0  0  0  0  0  0  0  0
    1.4840   -0.9381    0.0784 C   0  0  0  0  0  0  0  0  0  0  0  0
    0.3817   -1.5484   -0.5053 O   0  0  0  0  0  0  0  0  0  0  0  0
   -1.0149   -1.3048   -0.3034 C   0  0  0  0  0  0  0  0  0  0  0  0
   -1.1381    0.0073    0.3709 C   0  0  0  0  0  0  0  0  0  0  0  0
   -1.7177    1.1097   -0.1497 O   0  0  0  0  0  0  0  0  0  0  0  0
   -0.4242    1.0220   -0.5365 C   0  0  0  0  0  0  0  0  0  0  0  0
    0.7349    1.5149    0.2526 C   0  0  0  0  0  0  0  0  0  0  0  0
    1.5402    0.3697    0.5806 O   0  0  0  0  0  0  0  0  0  0  0  0
   -1.5920   -1.4165   -1.2329 H   0  0  0  0  0  0  0  0  0  0  0  0
   -1.3539   -2.0961    0.4209 H   0  0  0  0  0  0  0  0  0  0  0  0
   -0.9303    0.0228    1.4498 H   0  0  0  0  0  0  0  0  0  0  0  0
   -0.1831    0.7257   -1.5733 H   0  0  0  0  0  0  0  0  0  0  0  0
    1.3327    2.2884   -0.2600 H   0  0  0  0  0  0  0  0  0  0  0  0
    0.3409    1.8741    1.2428 H   0  0  0  0  0  0  0  0  0  0  0  0
  1  2  2  0
  2  3  1  0
  3  4  1  0
  4  5  1  0
  5  6  1  0
  6  7  1  0
  7  8  1  0
  8  9  1  0
  9  2  1  0
  7  5  1  0
  4 10  1  0
  4 11  1  0
  5 12  1  0
  7 13  1  0
  8 14  1  0
  8 15  1  0
M  END
