
     RDKit          3D

 19 19  0  0  0  0  0  0  0  0999 V2000
    1.1412   -1.4711    1.7281 O   0  0  0  0  0  0  0  0  0  0  0  0
    0.9087   -1.0476    0.6124 C   0  0  0  0  0  0  0  0  0  0  0  0
    1.9248   -0.1871   -0.0425 C   0  0  0  0  0  0  0  0  0  0  0  0
    1.4674    1.2186    0.0459 C   0  0  0  0  0  0  0  0  0  0  0  0
    0.2166    1.6609    0.1256 C   0  0  0  0  0  0  0  0  0  0  0  0
   -1.0878    0.9676    0.1536 C   0  0  0  0  0  0  0  0  0  0  0  0
   -1.1138   -0.3004   -0.6327 C   0  0  0  0  0  0  0  0  0  0  0  0
   -2.4697   -0.6844   -0.7492 O   0  0  0  0  0  0  0  0  0  0  0  0
   -0.3933   -1.4398    0.0020 C   0  0  0  0  0  0  0  0  0  0  0  0
    2.9405   -0.3326    0.3865 H   0  0  0  0  0  0  0  0  0  0  0  0
    2.0243   -0.4338   -1.1314 H   0  0  0  0  0  0  0  0  0  0  0  0
    2.2846    1.9338    0.0418 H   0  0  0  0  0  0  0  0  0  0  0  0
    0.1692    2.7487    0.1796 H   0  0  0  0  0  0  0  0  0  0  0  0
   -1.8323    1.6660   -0.3268 H   0  0  0  0  0  0  0  0  0  0  0  0
   -1.4562    0.7860    1.1934 H   0  0  0  0  0  0  0  0  0  0  0  0
   -0.7578   -0.1022   -1.6661 H   0  0  0  0  0  0  0  0  0  0  0  0
   -2.8455   -0.8079    0.1734 H   0  0  0  0  0  0  0  0  0  0  0  0
   -0.1285   -2.1629   -0.8241 H   0  0  0  0  0  0  0  0  0  0  0  0
   -0.9923   -2.0117    0.7305 H   0  0  0  0  0  0  0  0  0  0  0  0
  1  2  2  0
  2  3  1  0
  3  4  1  0
  4  5  2  0
  5  6  1  0
  6  7  1  0
  7  8  1  0
  7  9  1  0
  9  2  1  0
  3 10  1  0
  3 11  1  0
  4 12  1  0
  5 13  1  0
  6 14  1  0
  6 15  1  0
  7 16  1  0
  8 17  1  0
  9 18  1  0
  9 19  1  0
M  END
