
     RDKit          3D

 15 17  0  0  0  0  0  0  0  0999 V2000
    1.8617   -0.0771    1.9122 O   0  0  0  0  0  0  0  0  0  0  0  0
    1.3696   -0.0348    0.8260 C   0  0  0  0  0  0  0  0  0  0  0  0
    1.0577   -0.9129   -0.3164 C   0  0  0  0  0  0  0  0  0  0  0  0
    1.3198    0.2140   -1.1256 O   0  0  0  0  0  0  0  0  0  0  0  0
    0.7505    0.9555   -0.0710 C   0  0  0  0  0  0  0  0  0  0  0  0
   -0.7055    0.5535   -0.1660 C   0  0  0  0  0  0  0  0  0  0  0  0
   -1.4782    1.0784   -1.1683 O   0  0  0  0  0  0  0  0  0  0  0  0
   -1.2194   -0.4061    0.8325 C   0  0  0  0  0  0  0  0  0  0  0  0
   -0.4469   -0.9922   -0.2974 C   0  0  0  0  0  0  0  0  0  0  0  0
    1.6298   -1.7919   -0.4899 H   0  0  0  0  0  0  0  0  0  0  0  0
    1.0000    1.9856    0.0073 H   0  0  0  0  0  0  0  0  0  0  0  0
   -1.0853    1.9557   -1.4716 H   0  0  0  0  0  0  0  0  0  0  0  0
   -0.8073   -0.4254    1.8599 H   0  0  0  0  0  0  0  0  0  0  0  0
   -2.3094   -0.6100    0.7973 H   0  0  0  0  0  0  0  0  0  0  0  0
   -0.9370   -1.4922   -1.1290 H   0  0  0  0  0  0  0  0  0  0  0  0
  1  2  2  0
  2  3  1  0
  3  4  1  0
  4  5  1  0
  5  6  1  0
  6  7  1  0
  6  8  1  0
  8  9  1  0
  5  2  1  0
  9  6  1  0
  9  3  1  0
  3 10  1  0
  5 11  1  0
  7 12  1  0
  8 13  1  0
  8 14  1  0
  9 15  1  0
M  END
