
     RDKit          3D

 17 18  0  0  0  0  0  0  0  0999 V2000
    2.6258   -0.8247   -0.8611 O   0  0  0  0  0  0  0  0  0  0  0  0
    1.5290   -0.7137   -0.2612 C   0  0  0  0  0  0  0  0  0  0  0  0
    0.5597   -1.6776   -0.4962 O   0  0  0  0  0  0  0  0  0  0  0  0
   -0.7521   -1.5822    0.0544 C   0  0  0  0  0  0  0  0  0  0  0  0
   -0.8850   -0.3168    0.8585 C   0  0  0  0  0  0  0  0  0  0  0  0
   -0.9735    0.8343   -0.1131 C   0  0  0  0  0  0  0  0  0  0  0  0
    0.3967    1.4710    0.0126 C   0  0  0  0  0  0  0  0  0  0  0  0
    1.1972    0.3762    0.6811 C   0  0  0  0  0  0  0  0  0  0  0  0
    0.2762   -0.1391    1.5923 O   0  0  0  0  0  0  0  0  0  0  0  0
   -1.4690   -1.5508   -0.7849 H   0  0  0  0  0  0  0  0  0  0  0  0
   -0.9814   -2.4633    0.6691 H   0  0  0  0  0  0  0  0  0  0  0  0
   -1.7236   -0.3466    1.5624 H   0  0  0  0  0  0  0  0  0  0  0  0
   -1.7785    1.5110    0.2793 H   0  0  0  0  0  0  0  0  0  0  0  0
   -1.2126    0.5095   -1.1291 H   0  0  0  0  0  0  0  0  0  0  0  0
    0.2982    2.3011    0.7398 H   0  0  0  0  0  0  0  0  0  0  0  0
    0.8206    1.7801   -0.9530 H   0  0  0  0  0  0  0  0  0  0  0  0
    2.0721    0.8317    1.1632 H   0  0  0  0  0  0  0  0  0  0  0  0
  1  2  2  0
  2  3  1  0
  3  4  1  0
  4  5  1  0
  5  6  1  0
  6  7  1  0
  7  8  1  0
  8  9  1  0
  8  2  1  0
  9  5  1  0
  4 10  1  0
  4 11  1  0
  5 12  1  0
  6 13  1  0
  6 14  1  0
  7 15  1  0
  7 16  1  0
  8 17  1  0
M  END
