
     RDKit          3D

 17 17  0  0  0  0  0  0  0  0999 V2000
    1.2960   -2.0646    0.8423 O   0  0  0  0  0  0  0  0  0  0  0  0
    1.3528   -1.0195    0.2558 C   0  0  0  0  0  0  0  0  0  0  0  0
    2.2059    0.1764    0.2463 C   0  0  0  0  0  0  0  0  0  0  0  0
    1.7252    0.5521   -1.0281 O   0  0  0  0  0  0  0  0  0  0  0  0
    0.6309   -0.3058   -0.7834 C   0  0  0  0  0  0  0  0  0  0  0  0
   -0.5494    0.5249   -0.3746 C   0  0  0  0  0  0  0  0  0  0  0  0
   -0.3589    1.2713    0.7555 O   0  0  0  0  0  0  0  0  0  0  0  0
   -1.8149   -0.2761   -0.2306 C   0  0  0  0  0  0  0  0  0  0  0  0
   -1.7500   -1.1373    0.8694 O   0  0  0  0  0  0  0  0  0  0  0  0
    1.9886    0.9328    1.0274 H   0  0  0  0  0  0  0  0  0  0  0  0
    3.3059    0.0002    0.2233 H   0  0  0  0  0  0  0  0  0  0  0  0
    0.3842   -0.8758   -1.7068 H   0  0  0  0  0  0  0  0  0  0  0  0
   -0.7302    1.2456   -1.2214 H   0  0  0  0  0  0  0  0  0  0  0  0
   -0.9944    2.0436    0.7268 H   0  0  0  0  0  0  0  0  0  0  0  0
   -2.6567    0.4308   -0.1074 H   0  0  0  0  0  0  0  0  0  0  0  0
   -1.9796   -0.8438   -1.1717 H   0  0  0  0  0  0  0  0  0  0  0  0
   -2.0554   -0.6549    1.6773 H   0  0  0  0  0  0  0  0  0  0  0  0
  1  2  2  0
  2  3  1  0
  3  4  1  0
  4  5  1  0
  5  6  1  0
  6  7  1  0
  6  8  1  0
  8  9  1  0
  5  2  1  0
  3 10  1  0
  3 11  1  0
  5 12  1  0
  6 13  1  0
  7 14  1  0
  8 15  1  0
  8 16  1  0
  9 17  1  0
M  END
