
     RDKit          3D

 15 15  0  0  0  0  0  0  0  0999 V2000
   -2.2545   -0.8888    1.2742 O   0  0  0  0  0  0  0  0  0  0  0  0
   -1.3738   -0.5698    0.4378 C   0  0  0  0  0  0  0  0  0  0  0  0
   -0.3741   -1.5905    0.0331 C   0  0  0  0  0  0  0  0  0  0  0  0
    0.7912   -1.0784   -0.4475 O   0  0  0  0  0  0  0  0  0  0  0  0
    1.2769    0.0401    0.1411 C   0  0  0  0  0  0  0  0  0  0  0  0
    0.9724    1.3275   -0.6038 C   0  0  0  0  0  0  0  0  0  0  0  0
   -0.4249    1.4912   -0.7684 O   0  0  0  0  0  0  0  0  0  0  0  0
   -1.4114    0.7984   -0.0706 C   0  0  0  0  0  0  0  0  0  0  0  0
   -2.4820    1.4632    0.1434 O   0  0  0  0  0  0  0  0  0  0  0  0
   -0.1332   -2.2972    0.8704 H   0  0  0  0  0  0  0  0  0  0  0  0
   -0.8106   -2.2467   -0.7746 H   0  0  0  0  0  0  0  0  0  0  0  0
    2.4009   -0.0365    0.1497 H   0  0  0  0  0  0  0  0  0  0  0  0
    1.0043    0.1298    1.2337 H   0  0  0  0  0  0  0  0  0  0  0  0
    1.3346    2.1943   -0.0346 H   0  0  0  0  0  0  0  0  0  0  0  0
    1.4841    1.2634   -1.5840 H   0  0  0  0  0  0  0  0  0  0  0  0
  1  2  2  0
  2  3  1  0
  3  4  1  0
  4  5  1  0
  5  6  1  0
  6  7  1  0
  7  8  1  0
  8  9  2  0
  8  2  1  0
  3 10  1  0
  3 11  1  0
  5 12  1  0
  5 13  1  0
  6 14  1  0
  6 15  1  0
M  END
