
     RDKit          3D

 16 17  0  0  0  0  0  0  0  0999 V2000
    1.1857    2.5115    0.0465 O   0  0  0  0  0  0  0  0  0  0  0  0
    0.8055    1.3600    0.1083 C   0  0  0  0  0  0  0  0  0  0  0  0
    1.6050    0.1911   -0.2744 C   0  0  0  0  0  0  0  0  0  0  0  0
    0.6666   -1.0089   -0.2522 C   0  0  0  0  0  0  0  0  0  0  0  0
   -0.6587   -0.5310    0.2495 C   0  0  0  0  0  0  0  0  0  0  0  0
   -1.3002   -1.3743    1.1606 O   0  0  0  0  0  0  0  0  0  0  0  0
   -1.4678    0.4592   -0.4751 C   0  0  0  0  0  0  0  0  0  0  0  0
   -0.5174    0.9087    0.5736 C   0  0  0  0  0  0  0  0  0  0  0  0
    2.0268    0.2600   -1.3118 H   0  0  0  0  0  0  0  0  0  0  0  0
    2.4587    0.0637    0.4247 H   0  0  0  0  0  0  0  0  0  0  0  0
    0.6024   -1.4894   -1.2585 H   0  0  0  0  0  0  0  0  0  0  0  0
    1.0931   -1.7335    0.4710 H   0  0  0  0  0  0  0  0  0  0  0  0
   -1.7712   -2.1194    0.7039 H   0  0  0  0  0  0  0  0  0  0  0  0
   -1.2768    0.7776   -1.4996 H   0  0  0  0  0  0  0  0  0  0  0  0
   -2.5661    0.4667   -0.2210 H   0  0  0  0  0  0  0  0  0  0  0  0
   -0.8855    1.2580    1.5544 H   0  0  0  0  0  0  0  0  0  0  0  0
  1  2  2  0
  2  3  1  0
  3  4  1  0
  4  5  1  0
  5  6  1  0
  5  7  1  0
  7  8  1  0
  8  2  1  0
  8  5  1  0
  3  9  1  0
  3 10  1  0
  4 11  1  0
  4 12  1  0
  6 13  1  0
  7 14  1  0
  7 15  1  0
  8 16  1  0
M  END
