
     RDKit          3D

 16 17  0  0  0  0  0  0  0  0999 V2000
   -2.5766    1.1235   -1.2133 O   0  0  0  0  0  0  0  0  0  0  0  0
   -1.6692    0.5955   -0.6419 C   0  0  0  0  0  0  0  0  0  0  0  0
   -1.7273   -0.1260    0.6411 C   0  0  0  0  0  0  0  0  0  0  0  0
   -0.5355    0.2921    1.2374 O   0  0  0  0  0  0  0  0  0  0  0  0
    0.4123    0.0942    0.2339 C   0  0  0  0  0  0  0  0  0  0  0  0
    1.8340    0.3680    0.4561 C   0  0  0  0  0  0  0  0  0  0  0  0
    1.2920   -1.0699    0.2985 C   0  0  0  0  0  0  0  0  0  0  0  0
   -0.2611    0.5245   -1.0625 C   0  0  0  0  0  0  0  0  0  0  0  0
   -1.6773   -1.2215    0.3975 H   0  0  0  0  0  0  0  0  0  0  0  0
   -2.6134    0.1153    1.2480 H   0  0  0  0  0  0  0  0  0  0  0  0
    2.4772    0.6838   -0.3916 H   0  0  0  0  0  0  0  0  0  0  0  0
    2.1214    0.6773    1.4865 H   0  0  0  0  0  0  0  0  0  0  0  0
    1.3294   -1.6718    1.2318 H   0  0  0  0  0  0  0  0  0  0  0  0
    1.5344   -1.6038   -0.6373 H   0  0  0  0  0  0  0  0  0  0  0  0
    0.1470    1.4730   -1.4486 H   0  0  0  0  0  0  0  0  0  0  0  0
   -0.0874   -0.2542   -1.8356 H   0  0  0  0  0  0  0  0  0  0  0  0
  1  2  2  0
  2  3  1  0
  3  4  1  0
  4  5  1  0
  5  6  1  0
  6  7  1  0
  5  8  1  0
  8  2  1  0
  7  5  1  0
  3  9  1  0
  3 10  1  0
  6 11  1  0
  6 12  1  0
  7 13  1  0
  7 14  1  0
  8 15  1  0
  8 16  1  0
M  END
