
     RDKit          3D

 11 11  0  0  0  0  0  0  0  0999 V2000
    1.5007    1.7666   -0.3507 O   0  0  0  0  0  0  0  0  0  0  0  0
    0.8276    0.7311   -0.2792 C   0  0  0  0  0  0  0  0  0  0  0  0
   -0.6299    0.5338   -0.5139 C   0  0  0  0  0  0  0  0  0  0  0  0
   -0.9405   -0.4922    0.5741 C   0  0  0  0  0  0  0  0  0  0  0  0
    0.1882   -1.3414    0.4514 O   0  0  0  0  0  0  0  0  0  0  0  0
    1.3085   -0.6087    0.0659 C   0  0  0  0  0  0  0  0  0  0  0  0
    2.5041   -1.0318    0.0263 O   0  0  0  0  0  0  0  0  0  0  0  0
   -1.2161    1.4505   -0.4103 H   0  0  0  0  0  0  0  0  0  0  0  0
   -0.7287    0.0280   -1.4915 H   0  0  0  0  0  0  0  0  0  0  0  0
   -0.9235   -0.0218    1.5773 H   0  0  0  0  0  0  0  0  0  0  0  0
   -1.8904   -1.0140    0.3505 H   0  0  0  0  0  0  0  0  0  0  0  0
  1  2  2  0
  2  3  1  0
  3  4  1  0
  4  5  1  0
  5  6  1  0
  6  7  2  0
  6  2  1  0
  3  8  1  0
  3  9  1  0
  4 10  1  0
  4 11  1  0
M  END
