
     RDKit          3D

 15 16  0  0  0  0  0  0  0  0999 V2000
    2.8063   -0.6657   -1.2973 O   0  0  0  0  0  0  0  0  0  0  0  0
    1.7199   -0.4600   -0.7024 C   0  0  0  0  0  0  0  0  0  0  0  0
    1.6187    0.4668    0.4701 C   0  0  0  0  0  0  0  0  0  0  0  0
    0.3897   -0.1293    1.1232 C   0  0  0  0  0  0  0  0  0  0  0  0
    0.1583   -0.2579    2.2977 O   0  0  0  0  0  0  0  0  0  0  0  0
   -0.4267   -0.5003   -0.0504 C   0  0  0  0  0  0  0  0  0  0  0  0
   -1.8562   -0.6137   -0.0765 C   0  0  0  0  0  0  0  0  0  0  0  0
   -1.2846    0.6677   -0.5654 C   0  0  0  0  0  0  0  0  0  0  0  0
    0.4728   -1.0061   -0.9825 O   0  0  0  0  0  0  0  0  0  0  0  0
    2.4874    0.4335    1.1200 H   0  0  0  0  0  0  0  0  0  0  0  0
    1.3271    1.4896    0.1378 H   0  0  0  0  0  0  0  0  0  0  0  0
   -2.3426   -1.2357   -0.8286 H   0  0  0  0  0  0  0  0  0  0  0  0
   -2.3982   -0.6260    0.9086 H   0  0  0  0  0  0  0  0  0  0  0  0
   -1.4309    1.5342    0.0838 H   0  0  0  0  0  0  0  0  0  0  0  0
   -1.2412    0.9030   -1.6380 H   0  0  0  0  0  0  0  0  0  0  0  0
  1  2  2  0
  2  3  1  0
  3  4  1  0
  4  5  2  0
  4  6  1  0
  6  7  1  0
  7  8  1  0
  6  9  1  0
  9  2  1  0
  8  6  1  0
  3 10  1  0
  3 11  1  0
  7 12  1  0
  7 13  1  0
  8 14  1  0
  8 15  1  0
M  END
