
     RDKit          3D

 15 17  0  0  0  0  0  0  0  0999 V2000
   -1.5140   -2.5115    0.2945 O   0  0  0  0  0  0  0  0  0  0  0  0
   -0.9960   -1.3794    0.3305 C   0  0  0  0  0  0  0  0  0  0  0  0
   -0.5344   -0.7552    1.4748 O   0  0  0  0  0  0  0  0  0  0  0  0
    0.2900    0.3368    1.0612 C   0  0  0  0  0  0  0  0  0  0  0  0
    1.4636   -0.1881    0.2372 C   0  0  0  0  0  0  0  0  0  0  0  0
    0.6104    0.0062   -0.9902 C   0  0  0  0  0  0  0  0  0  0  0  0
   -0.7858   -0.5087   -0.8442 C   0  0  0  0  0  0  0  0  0  0  0  0
   -0.3576    0.7472   -0.2155 C   0  0  0  0  0  0  0  0  0  0  0  0
   -0.8579    1.9698   -0.4603 O   0  0  0  0  0  0  0  0  0  0  0  0
    0.5186    1.0813    1.8060 H   0  0  0  0  0  0  0  0  0  0  0  0
    2.3728    0.4073    0.2946 H   0  0  0  0  0  0  0  0  0  0  0  0
    1.6620   -1.2604    0.4108 H   0  0  0  0  0  0  0  0  0  0  0  0
    1.0057    0.4060   -1.9140 H   0  0  0  0  0  0  0  0  0  0  0  0
   -1.3995   -0.5891   -1.7329 H   0  0  0  0  0  0  0  0  0  0  0  0
   -1.4778    2.2379    0.2474 H   0  0  0  0  0  0  0  0  0  0  0  0
  1  2  2  0
  2  3  1  0
  3  4  1  0
  4  5  1  0
  5  6  1  0
  6  7  1  0
  7  8  1  0
  8  9  1  0
  7  2  1  0
  8  4  1  0
  8  6  1  0
  4 10  1  0
  5 11  1  0
  5 12  1  0
  6 13  1  0
  7 14  1  0
  9 15  1  0
M  END
