
     RDKit          3D

 17 18  0  0  0  0  0  0  0  0999 V2000
    3.2424    0.3667   -0.5531 O   0  0  0  0  0  0  0  0  0  0  0  0
    2.0981    0.1403   -0.0694 C   0  0  0  0  0  0  0  0  0  0  0  0
    1.4081   -1.1889   -0.1908 C   0  0  0  0  0  0  0  0  0  0  0  0
   -0.0127   -0.8250    0.0815 C   0  0  0  0  0  0  0  0  0  0  0  0
   -0.7531   -0.5762   -1.0794 O   0  0  0  0  0  0  0  0  0  0  0  0
   -1.8191    0.1673   -0.5458 C   0  0  0  0  0  0  0  0  0  0  0  0
   -1.0429    1.3054    0.1242 C   0  0  0  0  0  0  0  0  0  0  0  0
    0.0349    0.4885    0.8310 C   0  0  0  0  0  0  0  0  0  0  0  0
    1.3086    1.0209    0.6235 O   0  0  0  0  0  0  0  0  0  0  0  0
    1.7949   -1.8395    0.6211 H   0  0  0  0  0  0  0  0  0  0  0  0
    1.5788   -1.6267   -1.1898 H   0  0  0  0  0  0  0  0  0  0  0  0
   -0.5694   -1.6115    0.6405 H   0  0  0  0  0  0  0  0  0  0  0  0
   -2.2689   -0.4067    0.2882 H   0  0  0  0  0  0  0  0  0  0  0  0
   -2.5201    0.5187   -1.2963 H   0  0  0  0  0  0  0  0  0  0  0  0
   -1.6579    1.8749    0.8209 H   0  0  0  0  0  0  0  0  0  0  0  0
   -0.6121    1.8967   -0.7068 H   0  0  0  0  0  0  0  0  0  0  0  0
   -0.2096    0.2951    1.8824 H   0  0  0  0  0  0  0  0  0  0  0  0
  1  2  2  0
  2  3  1  0
  3  4  1  0
  4  5  1  0
  5  6  1  0
  6  7  1  0
  7  8  1  0
  8  9  1  0
  9  2  1  0
  8  4  1  0
  3 10  1  0
  3 11  1  0
  4 12  1  0
  6 13  1  0
  6 14  1  0
  7 15  1  0
  7 16  1  0
  8 17  1  0
M  END
