
     RDKit          3D

 17 18  0  0  0  0  0  0  0  0999 V2000
    2.6060   -1.1674   -0.5106 O   0  0  0  0  0  0  0  0  0  0  0  0
    1.4256   -1.0370   -0.0916 C   0  0  0  0  0  0  0  0  0  0  0  0
    0.4789   -2.0345   -0.3190 O   0  0  0  0  0  0  0  0  0  0  0  0
   -0.8224   -1.5183   -0.2043 C   0  0  0  0  0  0  0  0  0  0  0  0
   -0.6863   -0.1904    0.4723 C   0  0  0  0  0  0  0  0  0  0  0  0
   -1.1069    0.9060   -0.4788 C   0  0  0  0  0  0  0  0  0  0  0  0
    0.0482    1.4391   -1.0084 O   0  0  0  0  0  0  0  0  0  0  0  0
    0.9667    1.4070    0.0343 C   0  0  0  0  0  0  0  0  0  0  0  0
    0.7778    0.0368    0.6507 C   0  0  0  0  0  0  0  0  0  0  0  0
   -1.5053   -2.1818    0.3738 H   0  0  0  0  0  0  0  0  0  0  0  0
   -1.2213   -1.3975   -1.2301 H   0  0  0  0  0  0  0  0  0  0  0  0
   -1.1898   -0.1588    1.4378 H   0  0  0  0  0  0  0  0  0  0  0  0
   -1.6764    0.4614   -1.3471 H   0  0  0  0  0  0  0  0  0  0  0  0
   -1.7798    1.6398   -0.0245 H   0  0  0  0  0  0  0  0  0  0  0  0
    0.5811    2.1426    0.7999 H   0  0  0  0  0  0  0  0  0  0  0  0
    1.9901    1.6261   -0.2564 H   0  0  0  0  0  0  0  0  0  0  0  0
    1.1138    0.0269    1.7020 H   0  0  0  0  0  0  0  0  0  0  0  0
  1  2  2  0
  2  3  1  0
  3  4  1  0
  4  5  1  0
  5  6  1  0
  6  7  1  0
  7  8  1  0
  8  9  1  0
  9  2  1  0
  9  5  1  0
  4 10  1  0
  4 11  1  0
  5 12  1  0
  6 13  1  0
  6 14  1  0
  8 15  1  0
  8 16  1  0
  9 17  1  0
M  END
