
     RDKit          3D

 15 17  0  0  0  0  0  0  0  0999 V2000
    2.7179   -0.1682   -1.1260 O   0  0  0  0  0  0  0  0  0  0  0  0
    1.5331   -0.3487   -0.7466 C   0  0  0  0  0  0  0  0  0  0  0  0
    0.5709   -1.2574   -1.1648 O   0  0  0  0  0  0  0  0  0  0  0  0
   -0.5467   -1.2485   -0.2903 C   0  0  0  0  0  0  0  0  0  0  0  0
   -1.4398   -0.0575   -0.6662 C   0  0  0  0  0  0  0  0  0  0  0  0
   -0.5546    0.7935    0.1995 C   0  0  0  0  0  0  0  0  0  0  0  0
   -0.1002   -0.4431    0.8784 C   0  0  0  0  0  0  0  0  0  0  0  0
    0.9039    0.4699    0.3265 C   0  0  0  0  0  0  0  0  0  0  0  0
    1.6550    1.3091    1.0979 O   0  0  0  0  0  0  0  0  0  0  0  0
   -1.0585   -2.1867   -0.1273 H   0  0  0  0  0  0  0  0  0  0  0  0
   -1.4656    0.1735   -1.7287 H   0  0  0  0  0  0  0  0  0  0  0  0
   -2.4609   -0.1920   -0.2172 H   0  0  0  0  0  0  0  0  0  0  0  0
   -0.9447    1.5879    0.8324 H   0  0  0  0  0  0  0  0  0  0  0  0
   -0.2658   -0.6900    1.9023 H   0  0  0  0  0  0  0  0  0  0  0  0
    1.4559    2.2582    0.8302 H   0  0  0  0  0  0  0  0  0  0  0  0
  1  2  2  0
  2  3  1  0
  3  4  1  0
  4  5  1  0
  5  6  1  0
  6  7  1  0
  7  8  1  0
  8  9  1  0
  8  2  1  0
  7  4  1  0
  8  6  1  0
  4 10  1  0
  5 11  1  0
  5 12  1  0
  6 13  1  0
  7 14  1  0
  9 15  1  0
M  END
