
     RDKit          3D

 17 18  0  0  0  0  0  0  0  0999 V2000
   -3.3384   -0.2331   -0.8171 O   0  0  0  0  0  0  0  0  0  0  0  0
   -2.2260   -0.3203   -0.2451 C   0  0  0  0  0  0  0  0  0  0  0  0
   -1.2793    0.7724    0.0295 C   0  0  0  0  0  0  0  0  0  0  0  0
    0.0237    0.0713    0.2716 C   0  0  0  0  0  0  0  0  0  0  0  0
   -0.2943   -1.3824    0.2459 C   0  0  0  0  0  0  0  0  0  0  0  0
   -1.6801   -1.4961    0.2416 O   0  0  0  0  0  0  0  0  0  0  0  0
    1.0512    0.6742    1.1180 C   0  0  0  0  0  0  0  0  0  0  0  0
    1.2773    0.4953   -0.3815 C   0  0  0  0  0  0  0  0  0  0  0  0
    2.2067   -0.5109   -0.6757 O   0  0  0  0  0  0  0  0  0  0  0  0
   -1.5826    1.2485    1.0027 H   0  0  0  0  0  0  0  0  0  0  0  0
   -1.2418    1.5058   -0.7786 H   0  0  0  0  0  0  0  0  0  0  0  0
    0.0771   -1.7854   -0.7404 H   0  0  0  0  0  0  0  0  0  0  0  0
    0.2066   -1.9520    1.0534 H   0  0  0  0  0  0  0  0  0  0  0  0
    1.6832    0.1415    1.8264 H   0  0  0  0  0  0  0  0  0  0  0  0
    0.8685    1.7514    1.4046 H   0  0  0  0  0  0  0  0  0  0  0  0
    1.2709    1.4018   -1.0242 H   0  0  0  0  0  0  0  0  0  0  0  0
    2.9773   -0.3820   -0.0413 H   0  0  0  0  0  0  0  0  0  0  0  0
  1  2  2  0
  2  3  1  0
  3  4  1  0
  4  5  1  0
  5  6  1  0
  4  7  1  0
  7  8  1  0
  8  9  1  0
  6  2  1  0
  8  4  1  0
  3 10  1  0
  3 11  1  0
  5 12  1  0
  5 13  1  0
  7 14  1  0
  7 15  1  0
  8 16  1  0
  9 17  1  0
M  END
