
     RDKit          3D

 14 15  0  0  0  0  0  0  0  0999 V2000
   -0.8862   -2.1419   -0.2325 O   0  0  0  0  0  0  0  0  0  0  0  0
   -0.5074   -0.9784   -0.2364 C   0  0  0  0  0  0  0  0  0  0  0  0
   -1.3211    0.2942   -0.2292 C   0  0  0  0  0  0  0  0  0  0  0  0
   -2.4005    0.2898    0.6040 O   0  0  0  0  0  0  0  0  0  0  0  0
   -0.0979    0.9578    0.4018 C   0  0  0  0  0  0  0  0  0  0  0  0
    0.6822   -0.1538   -0.2477 C   0  0  0  0  0  0  0  0  0  0  0  0
    2.0113   -0.3633   -0.1065 C   0  0  0  0  0  0  0  0  0  0  0  0
    1.3885    0.0551   -1.3987 O   0  0  0  0  0  0  0  0  0  0  0  0
   -1.4432    0.6714   -1.2503 H   0  0  0  0  0  0  0  0  0  0  0  0
   -2.7335   -0.5761    0.8875 H   0  0  0  0  0  0  0  0  0  0  0  0
   -0.0921    0.9350    1.5052 H   0  0  0  0  0  0  0  0  0  0  0  0
    0.1652    1.9339   -0.0083 H   0  0  0  0  0  0  0  0  0  0  0  0
    2.5386   -1.3423   -0.2233 H   0  0  0  0  0  0  0  0  0  0  0  0
    2.6960    0.4187    0.2928 H   0  0  0  0  0  0  0  0  0  0  0  0
  1  2  2  0
  2  3  1  0
  3  4  1  0
  3  5  1  0
  5  6  1  0
  6  7  1  0
  7  8  1  0
  6  2  1  0
  8  6  1  0
  3  9  1  0
  4 10  1  0
  5 11  1  0
  5 12  1  0
  7 13  1  0
  7 14  1  0
M  END
