
     RDKit          3D

 15 16  0  0  0  0  0  0  0  0999 V2000
   -0.7939    2.4376    0.7560 O   0  0  0  0  0  0  0  0  0  0  0  0
   -0.7379    1.2860    0.2697 C   0  0  0  0  0  0  0  0  0  0  0  0
   -1.7867    0.3775   -0.2555 C   0  0  0  0  0  0  0  0  0  0  0  0
   -1.2435   -0.9775    0.1351 C   0  0  0  0  0  0  0  0  0  0  0  0
    0.2259   -0.8157    0.0264 C   0  0  0  0  0  0  0  0  0  0  0  0
    1.3595   -1.4872   -0.1202 O   0  0  0  0  0  0  0  0  0  0  0  0
    2.3784   -0.6666   -0.1389 C   0  0  0  0  0  0  0  0  0  0  0  0
    1.8945    0.6164    0.0028 C   0  0  0  0  0  0  0  0  0  0  0  0
    0.5022    0.5415    0.1112 C   0  0  0  0  0  0  0  0  0  0  0  0
   -2.7830    0.5866    0.1782 H   0  0  0  0  0  0  0  0  0  0  0  0
   -1.7693    0.4360   -1.3597 H   0  0  0  0  0  0  0  0  0  0  0  0
   -1.5527   -1.7724   -0.5770 H   0  0  0  0  0  0  0  0  0  0  0  0
   -1.5516   -1.2210    1.1815 H   0  0  0  0  0  0  0  0  0  0  0  0
    3.4415   -0.8959   -0.2445 H   0  0  0  0  0  0  0  0  0  0  0  0
    2.4166    1.5548    0.0349 H   0  0  0  0  0  0  0  0  0  0  0  0
  1  2  2  0
  2  3  1  0
  3  4  1  0
  4  5  1  0
  5  6  1  0
  6  7  1  0
  7  8  2  0
  8  9  1  0
  9  2  1  0
  9  5  2  0
  3 10  1  0
  3 11  1  0
  4 12  1  0
  4 13  1  0
  7 14  1  0
  8 15  1  0
M  END
