
     RDKit          3D

 17 18  0  0  0  0  0  0  0  0999 V2000
   -2.9733    0.6528   -0.6679 O   0  0  0  0  0  0  0  0  0  0  0  0
   -1.8861    0.1993   -0.4293 C   0  0  0  0  0  0  0  0  0  0  0  0
   -1.2543   -0.9426    0.2718 C   0  0  0  0  0  0  0  0  0  0  0  0
    0.0518   -0.6804   -0.4945 C   0  0  0  0  0  0  0  0  0  0  0  0
    1.1745   -0.5211    0.4437 C   0  0  0  0  0  0  0  0  0  0  0  0
    2.4346   -0.5880   -0.1479 O   0  0  0  0  0  0  0  0  0  0  0  0
    1.0328    0.8603    0.9458 C   0  0  0  0  0  0  0  0  0  0  0  0
    0.1129    1.5103    0.2612 C   0  0  0  0  0  0  0  0  0  0  0  0
   -0.4987    0.6695   -0.7964 C   0  0  0  0  0  0  0  0  0  0  0  0
   -1.1589   -0.8210    1.3691 H   0  0  0  0  0  0  0  0  0  0  0  0
   -1.7502   -1.8904   -0.0344 H   0  0  0  0  0  0  0  0  0  0  0  0
    0.1766   -1.3664   -1.3546 H   0  0  0  0  0  0  0  0  0  0  0  0
    1.0927   -1.2454    1.2967 H   0  0  0  0  0  0  0  0  0  0  0  0
    2.4138   -0.7823   -1.0957 H   0  0  0  0  0  0  0  0  0  0  0  0
    1.6028    1.3245    1.7811 H   0  0  0  0  0  0  0  0  0  0  0  0
   -0.1599    2.5765    0.4717 H   0  0  0  0  0  0  0  0  0  0  0  0
   -0.4112    1.0444   -1.8203 H   0  0  0  0  0  0  0  0  0  0  0  0
  1  2  2  0
  2  3  1  0
  3  4  1  0
  4  5  1  0
  5  6  1  0
  5  7  1  0
  7  8  2  0
  8  9  1  0
  9  2  1  0
  9  4  1  0
  3 10  1  0
  3 11  1  0
  4 12  1  0
  5 13  1  0
  6 14  1  0
  7 15  1  0
  8 16  1  0
  9 17  1  0
M  END
