
     RDKit          3D

 21 22  0  0  0  0  0  0  0  0999 V2000
    2.7061    0.3674    1.2253 O   0  0  0  0  0  0  0  0  0  0  0  0
    1.9375    0.1774    0.2995 C   0  0  0  0  0  0  0  0  0  0  0  0
    1.4382   -1.1488   -0.1582 C   0  0  0  0  0  0  0  0  0  0  0  0
    0.0008   -0.8605   -0.4791 C   0  0  0  0  0  0  0  0  0  0  0  0
   -0.9295   -1.1144    0.6827 C   0  0  0  0  0  0  0  0  0  0  0  0
   -1.9830   -0.0210    0.4441 C   0  0  0  0  0  0  0  0  0  0  0  0
   -1.0454    1.1771    0.2978 C   0  0  0  0  0  0  0  0  0  0  0  0
   -0.0880    0.6385   -0.7602 C   0  0  0  0  0  0  0  0  0  0  0  0
    1.2939    1.1773   -0.6141 C   0  0  0  0  0  0  0  0  0  0  0  0
    1.4742   -1.8802    0.6661 H   0  0  0  0  0  0  0  0  0  0  0  0
    1.9266   -1.5104   -1.0651 H   0  0  0  0  0  0  0  0  0  0  0  0
   -0.3402   -1.3678   -1.4038 H   0  0  0  0  0  0  0  0  0  0  0  0
   -0.4167   -0.8214    1.6186 H   0  0  0  0  0  0  0  0  0  0  0  0
   -1.3709   -2.1099    0.6933 H   0  0  0  0  0  0  0  0  0  0  0  0
   -2.4624   -0.2852   -0.5188 H   0  0  0  0  0  0  0  0  0  0  0  0
   -2.6721    0.0782    1.2799 H   0  0  0  0  0  0  0  0  0  0  0  0
   -0.5283    1.2584    1.2932 H   0  0  0  0  0  0  0  0  0  0  0  0
   -1.5561    2.0849   -0.0047 H   0  0  0  0  0  0  0  0  0  0  0  0
   -0.5015    0.8544   -1.7512 H   0  0  0  0  0  0  0  0  0  0  0  0
    1.3050    2.1898   -0.1681 H   0  0  0  0  0  0  0  0  0  0  0  0
    1.8115    1.1163   -1.5771 H   0  0  0  0  0  0  0  0  0  0  0  0
  1  2  2  0
  2  3  1  0
  3  4  1  0
  4  5  1  0
  5  6  1  0
  6  7  1  0
  7  8  1  0
  8  9  1  0
  9  2  1  0
  8  4  1  0
  3 10  1  0
  3 11  1  0
  4 12  1  0
  5 13  1  0
  5 14  1  0
  6 15  1  0
  6 16  1  0
  7 17  1  0
  7 18  1  0
  8 19  1  0
  9 20  1  0
  9 21  1  0
M  END
