
     RDKit          3D

 15 15  0  0  0  0  0  0  0  0999 V2000
   -2.7239   -0.7733   -1.5107 O   0  0  0  0  0  0  0  0  0  0  0  0
   -1.7048   -0.4039   -0.9944 C   0  0  0  0  0  0  0  0  0  0  0  0
   -1.0703    0.8684   -0.5090 C   0  0  0  0  0  0  0  0  0  0  0  0
   -0.0853    0.0806    0.2992 C   0  0  0  0  0  0  0  0  0  0  0  0
    1.3727    0.4163    0.0763 C   0  0  0  0  0  0  0  0  0  0  0  0
    1.7565    0.2118   -1.2432 O   0  0  0  0  0  0  0  0  0  0  0  0
   -0.4678   -1.1085   -0.5488 C   0  0  0  0  0  0  0  0  0  0  0  0
   -1.8467    1.4195    0.0881 H   0  0  0  0  0  0  0  0  0  0  0  0
   -0.6362    1.4572   -1.3477 H   0  0  0  0  0  0  0  0  0  0  0  0
   -0.3559   -0.0244    1.3653 H   0  0  0  0  0  0  0  0  0  0  0  0
    1.5916    1.4691    0.3674 H   0  0  0  0  0  0  0  0  0  0  0  0
    1.9602   -0.2226    0.7687 H   0  0  0  0  0  0  0  0  0  0  0  0
    2.6934   -0.1081   -1.2182 H   0  0  0  0  0  0  0  0  0  0  0  0
    0.1847   -1.2788   -1.4190 H   0  0  0  0  0  0  0  0  0  0  0  0
   -0.6684   -2.0034    0.0645 H   0  0  0  0  0  0  0  0  0  0  0  0
  1  2  2  0
  2  3  1  0
  3  4  1  0
  4  5  1  0
  5  6  1  0
  4  7  1  0
  7  2  1  0
  3  8  1  0
  3  9  1  0
  4 10  1  0
  5 11  1  0
  5 12  1  0
  6 13  1  0
  7 14  1  0
  7 15  1  0
M  END
