
     RDKit          3D

 15 16  0  0  0  0  0  0  0  0999 V2000
   -0.1567   -1.1500    2.1833 O   0  0  0  0  0  0  0  0  0  0  0  0
   -0.0357   -0.6597    1.1033 C   0  0  0  0  0  0  0  0  0  0  0  0
   -0.9160   -0.4295   -0.0675 C   0  0  0  0  0  0  0  0  0  0  0  0
   -2.0335   -1.1056   -0.2319 O   0  0  0  0  0  0  0  0  0  0  0  0
   -0.8922    1.0573   -0.1591 C   0  0  0  0  0  0  0  0  0  0  0  0
    0.3834    1.3513    0.1025 C   0  0  0  0  0  0  0  0  0  0  0  0
    0.9860    0.0003    0.2574 C   0  0  0  0  0  0  0  0  0  0  0  0
    2.2721   -0.1521    0.4884 O   0  0  0  0  0  0  0  0  0  0  0  0
    0.3236   -0.7880   -0.8763 C   0  0  0  0  0  0  0  0  0  0  0  0
   -2.8876   -0.5978   -0.2913 H   0  0  0  0  0  0  0  0  0  0  0  0
   -1.7172    1.7431   -0.3853 H   0  0  0  0  0  0  0  0  0  0  0  0
    0.9143    2.2801    0.1943 H   0  0  0  0  0  0  0  0  0  0  0  0
    2.8310    0.6507    0.3135 H   0  0  0  0  0  0  0  0  0  0  0  0
    0.5314   -1.8608   -0.7696 H   0  0  0  0  0  0  0  0  0  0  0  0
    0.3971   -0.3394   -1.8618 H   0  0  0  0  0  0  0  0  0  0  0  0
  1  2  2  0
  2  3  1  0
  3  4  1  0
  3  5  1  0
  5  6  2  0
  6  7  1  0
  7  8  1  0
  7  9  1  0
  7  2  1  0
  9  3  1  0
  4 10  1  0
  5 11  1  0
  6 12  1  0
  8 13  1  0
  9 14  1  0
  9 15  1  0
M  END
