
     RDKit          3D

 19 20  0  0  0  0  0  0  0  0999 V2000
    0.4041    0.3195    2.4055 O   0  0  0  0  0  0  0  0  0  0  0  0
    0.6947    0.0181    1.2664 C   0  0  0  0  0  0  0  0  0  0  0  0
    1.3488   -1.1391    0.6186 C   0  0  0  0  0  0  0  0  0  0  0  0
    1.4963   -0.3222   -0.6447 C   0  0  0  0  0  0  0  0  0  0  0  0
    0.5288    0.6763   -0.0300 C   0  0  0  0  0  0  0  0  0  0  0  0
    1.1190    1.9533   -0.1233 O   0  0  0  0  0  0  0  0  0  0  0  0
   -0.8339    0.6905   -0.6259 C   0  0  0  0  0  0  0  0  0  0  0  0
   -1.5831   -0.5374   -0.9528 C   0  0  0  0  0  0  0  0  0  0  0  0
   -1.9426    0.1615    0.3059 C   0  0  0  0  0  0  0  0  0  0  0  0
    0.7389   -2.0583    0.5270 H   0  0  0  0  0  0  0  0  0  0  0  0
    2.3315   -1.4319    1.0806 H   0  0  0  0  0  0  0  0  0  0  0  0
    1.1375   -0.8057   -1.5657 H   0  0  0  0  0  0  0  0  0  0  0  0
    2.5422    0.0359   -0.7360 H   0  0  0  0  0  0  0  0  0  0  0  0
    0.9664    2.4190    0.7395 H   0  0  0  0  0  0  0  0  0  0  0  0
   -1.0777    1.5874   -1.2219 H   0  0  0  0  0  0  0  0  0  0  0  0
   -2.3425   -0.4732   -1.7587 H   0  0  0  0  0  0  0  0  0  0  0  0
   -1.1166   -1.5499   -0.9067 H   0  0  0  0  0  0  0  0  0  0  0  0
   -1.6074   -0.3642    1.2310 H   0  0  0  0  0  0  0  0  0  0  0  0
   -2.8043    0.8206    0.3913 H   0  0  0  0  0  0  0  0  0  0  0  0
  1  2  2  0
  2  3  1  0
  3  4  1  0
  4  5  1  0
  5  6  1  0
  5  7  1  0
  7  8  1  0
  8  9  1  0
  5  2  1  0
  9  7  1  0
  3 10  1  0
  3 11  1  0
  4 12  1  0
  4 13  1  0
  6 14  1  0
  7 15  1  0
  8 16  1  0
  8 17  1  0
  9 18  1  0
  9 19  1  0
M  END
