
     RDKit          3D

 17 18  0  0  0  0  0  0  0  0999 V2000
    0.5716   -1.6684   -1.5880 O   0  0  0  0  0  0  0  0  0  0  0  0
    0.6420   -0.8886   -0.6638 C   0  0  0  0  0  0  0  0  0  0  0  0
    1.8174   -0.6899    0.2246 C   0  0  0  0  0  0  0  0  0  0  0  0
    1.6086    0.7673    0.6130 C   0  0  0  0  0  0  0  0  0  0  0  0
    0.2590    0.9984    0.6042 O   0  0  0  0  0  0  0  0  0  0  0  0
   -0.3676    0.0545   -0.1638 C   0  0  0  0  0  0  0  0  0  0  0  0
   -1.6467   -0.5897    0.3137 C   0  0  0  0  0  0  0  0  0  0  0  0
   -1.6311    0.3257   -0.8608 C   0  0  0  0  0  0  0  0  0  0  0  0
   -2.1518    1.6191   -0.6632 O   0  0  0  0  0  0  0  0  0  0  0  0
    2.7778   -0.8547   -0.2698 H   0  0  0  0  0  0  0  0  0  0  0  0
    1.6505   -1.3084    1.1277 H   0  0  0  0  0  0  0  0  0  0  0  0
    2.1819    1.4441   -0.0754 H   0  0  0  0  0  0  0  0  0  0  0  0
    2.0432    0.9280    1.6398 H   0  0  0  0  0  0  0  0  0  0  0  0
   -1.9767   -0.2565    1.2985 H   0  0  0  0  0  0  0  0  0  0  0  0
   -1.8278   -1.6701    0.0505 H   0  0  0  0  0  0  0  0  0  0  0  0
   -1.7925   -0.0667   -1.8778 H   0  0  0  0  0  0  0  0  0  0  0  0
   -2.1578    1.8559    0.2907 H   0  0  0  0  0  0  0  0  0  0  0  0
  1  2  2  0
  2  3  1  0
  3  4  1  0
  4  5  1  0
  5  6  1  0
  6  7  1  0
  7  8  1  0
  8  9  1  0
  6  2  1  0
  8  6  1  0
  3 10  1  0
  3 11  1  0
  4 12  1  0
  4 13  1  0
  7 14  1  0
  7 15  1  0
  8 16  1  0
  9 17  1  0
M  END
