
     RDKit          3D

 19 20  0  0  0  0  0  0  0  0999 V2000
   -3.1920    1.1195   -0.3592 O   0  0  0  0  0  0  0  0  0  0  0  0
   -2.1642    0.5941   -0.0198 C   0  0  0  0  0  0  0  0  0  0  0  0
   -0.8837    1.0460    0.5701 C   0  0  0  0  0  0  0  0  0  0  0  0
   -0.2865   -0.2174    0.0531 C   0  0  0  0  0  0  0  0  0  0  0  0
   -1.6375   -0.7895   -0.0141 C   0  0  0  0  0  0  0  0  0  0  0  0
    0.5567   -0.1544   -1.1579 C   0  0  0  0  0  0  0  0  0  0  0  0
    1.7474   -0.1687   -0.1863 C   0  0  0  0  0  0  0  0  0  0  0  0
    1.9869    1.1234    0.2406 O   0  0  0  0  0  0  0  0  0  0  0  0
    0.7926   -0.8645    0.7946 C   0  0  0  0  0  0  0  0  0  0  0  0
   -0.8909    1.0711    1.6961 H   0  0  0  0  0  0  0  0  0  0  0  0
   -0.4132    1.9242    0.1169 H   0  0  0  0  0  0  0  0  0  0  0  0
   -1.9217   -1.2824    0.9484 H   0  0  0  0  0  0  0  0  0  0  0  0
   -1.8633   -1.4051   -0.8995 H   0  0  0  0  0  0  0  0  0  0  0  0
    0.4444    0.8303   -1.6816 H   0  0  0  0  0  0  0  0  0  0  0  0
    0.5462   -1.0316   -1.8309 H   0  0  0  0  0  0  0  0  0  0  0  0
    2.5945   -0.7656   -0.5066 H   0  0  0  0  0  0  0  0  0  0  0  0
    2.7791    1.5159   -0.1748 H   0  0  0  0  0  0  0  0  0  0  0  0
    0.9702   -0.5726    1.8287 H   0  0  0  0  0  0  0  0  0  0  0  0
    0.8350   -1.9727    0.5819 H   0  0  0  0  0  0  0  0  0  0  0  0
  1  2  2  0
  2  3  1  0
  3  4  1  0
  4  5  1  0
  4  6  1  0
  6  7  1  0
  7  8  1  0
  7  9  1  0
  5  2  1  0
  9  4  1  0
  3 10  1  0
  3 11  1  0
  5 12  1  0
  5 13  1  0
  6 14  1  0
  6 15  1  0
  7 16  1  0
  8 17  1  0
  9 18  1  0
  9 19  1  0
M  END
