
     RDKit          3D

 17 19  0  0  0  0  0  0  0  0999 V2000
    1.9841    0.9158   -1.6083 O   0  0  0  0  0  0  0  0  0  0  0  0
    1.2641    0.5934   -0.6788 C   0  0  0  0  0  0  0  0  0  0  0  0
    1.3685   -0.7282    0.0011 C   0  0  0  0  0  0  0  0  0  0  0  0
   -0.0215   -0.8114    0.6461 C   0  0  0  0  0  0  0  0  0  0  0  0
   -0.9829   -1.1282   -0.4730 C   0  0  0  0  0  0  0  0  0  0  0  0
   -1.7431   -0.0238   -0.7190 O   0  0  0  0  0  0  0  0  0  0  0  0
   -1.2119    1.0736   -0.1269 C   0  0  0  0  0  0  0  0  0  0  0  0
    0.2087    1.4176   -0.0883 C   0  0  0  0  0  0  0  0  0  0  0  0
   -0.3856    0.5966    0.9888 C   0  0  0  0  0  0  0  0  0  0  0  0
    2.1695   -0.7783    0.7407 H   0  0  0  0  0  0  0  0  0  0  0  0
    1.4594   -1.5041   -0.8036 H   0  0  0  0  0  0  0  0  0  0  0  0
   -0.0528   -1.5153    1.4755 H   0  0  0  0  0  0  0  0  0  0  0  0
   -0.4680   -1.4126   -1.4177 H   0  0  0  0  0  0  0  0  0  0  0  0
   -1.6089   -2.0097   -0.1568 H   0  0  0  0  0  0  0  0  0  0  0  0
   -1.9449    1.9192    0.0086 H   0  0  0  0  0  0  0  0  0  0  0  0
    0.4713    2.4557    0.1984 H   0  0  0  0  0  0  0  0  0  0  0  0
   -0.5059    0.9395    2.0133 H   0  0  0  0  0  0  0  0  0  0  0  0
  1  2  2  0
  2  3  1  0
  3  4  1  0
  4  5  1  0
  5  6  1  0
  6  7  1  0
  7  8  1  0
  8  9  1  0
  8  2  1  0
  9  4  1  0
  9  7  1  0
  3 10  1  0
  3 11  1  0
  4 12  1  0
  5 13  1  0
  5 14  1  0
  7 15  1  0
  8 16  1  0
  9 17  1  0
M  END
