
     RDKit          3D

 17 17  0  0  0  0  0  0  0  0999 V2000
   -1.7242    1.3448    1.9320 O   0  0  0  0  0  0  0  0  0  0  0  0
   -1.3430    0.7705    0.8539 C   0  0  0  0  0  0  0  0  0  0  0  0
   -1.6388   -0.6167    0.4101 C   0  0  0  0  0  0  0  0  0  0  0  0
   -0.5307   -0.9821   -0.5219 C   0  0  0  0  0  0  0  0  0  0  0  0
    0.3069    0.2391   -0.7395 C   0  0  0  0  0  0  0  0  0  0  0  0
    1.5839    0.2093    0.0805 C   0  0  0  0  0  0  0  0  0  0  0  0
    2.3814   -0.8943   -0.2423 O   0  0  0  0  0  0  0  0  0  0  0  0
   -0.5222    1.3462   -0.2018 C   0  0  0  0  0  0  0  0  0  0  0  0
   -0.5510    2.5736   -0.5549 O   0  0  0  0  0  0  0  0  0  0  0  0
   -1.7842   -1.3181    1.2472 H   0  0  0  0  0  0  0  0  0  0  0  0
   -2.5712   -0.5357   -0.2224 H   0  0  0  0  0  0  0  0  0  0  0  0
    0.0377   -1.8203   -0.0589 H   0  0  0  0  0  0  0  0  0  0  0  0
   -0.9036   -1.3142   -1.5266 H   0  0  0  0  0  0  0  0  0  0  0  0
    0.5869    0.4055   -1.7886 H   0  0  0  0  0  0  0  0  0  0  0  0
    1.3179    0.2225    1.1697 H   0  0  0  0  0  0  0  0  0  0  0  0
    2.1362    1.1507   -0.1108 H   0  0  0  0  0  0  0  0  0  0  0  0
    3.2183   -0.7810    0.2744 H   0  0  0  0  0  0  0  0  0  0  0  0
  1  2  2  0
  2  3  1  0
  3  4  1  0
  4  5  1  0
  5  6  1  0
  6  7  1  0
  5  8  1  0
  8  9  2  0
  8  2  1  0
  3 10  1  0
  3 11  1  0
  4 12  1  0
  4 13  1  0
  5 14  1  0
  6 15  1  0
  6 16  1  0
  7 17  1  0
M  END
