
     RDKit          3D

 14 15  0  0  0  0  0  0  0  0999 V2000
   -2.8637    0.6997   -0.4782 O   0  0  0  0  0  0  0  0  0  0  0  0
   -1.6636    0.4922   -0.2554 C   0  0  0  0  0  0  0  0  0  0  0  0
   -1.0934   -0.5092    0.6856 C   0  0  0  0  0  0  0  0  0  0  0  0
    0.2317   -0.6734    0.0046 C   0  0  0  0  0  0  0  0  0  0  0  0
    1.4883   -0.0747    0.1074 C   0  0  0  0  0  0  0  0  0  0  0  0
    2.3955   -0.1447   -0.9789 O   0  0  0  0  0  0  0  0  0  0  0  0
    0.4790    0.8926    0.0304 C   0  0  0  0  0  0  0  0  0  0  0  0
   -0.5882    1.1491   -0.8359 O   0  0  0  0  0  0  0  0  0  0  0  0
   -0.9480    0.0466    1.6577 H   0  0  0  0  0  0  0  0  0  0  0  0
   -1.6795   -1.4118    0.7871 H   0  0  0  0  0  0  0  0  0  0  0  0
   -0.0042   -1.0980   -1.0247 H   0  0  0  0  0  0  0  0  0  0  0  0
    2.0708   -0.2073    1.0565 H   0  0  0  0  0  0  0  0  0  0  0  0
    1.9366   -0.5694   -1.7682 H   0  0  0  0  0  0  0  0  0  0  0  0
    0.2387    1.4082    1.0122 H   0  0  0  0  0  0  0  0  0  0  0  0
  1  2  2  0
  2  3  1  0
  3  4  1  0
  4  5  1  0
  5  6  1  0
  5  7  1  0
  7  8  1  0
  8  2  1  0
  7  4  1  0
  3  9  1  0
  3 10  1  0
  4 11  1  0
  5 12  1  0
  6 13  1  0
  7 14  1  0
M  END
