
     RDKit          3D

 19 21  0  0  0  0  0  0  0  0999 V2000
   -1.5024    2.5218   -0.1133 O   0  0  0  0  0  0  0  0  0  0  0  0
   -1.0396    1.4028   -0.0420 C   0  0  0  0  0  0  0  0  0  0  0  0
   -1.5385    0.1877    0.6521 C   0  0  0  0  0  0  0  0  0  0  0  0
   -1.0572   -0.9962   -0.1120 C   0  0  0  0  0  0  0  0  0  0  0  0
    0.3473   -1.3831   -0.2225 C   0  0  0  0  0  0  0  0  0  0  0  0
    1.4503   -0.7066    0.5317 C   0  0  0  0  0  0  0  0  0  0  0  0
    1.3188    0.7684    0.3366 C   0  0  0  0  0  0  0  0  0  0  0  0
    0.2477    0.9593   -0.6937 C   0  0  0  0  0  0  0  0  0  0  0  0
   -0.1409   -0.4040   -1.1818 C   0  0  0  0  0  0  0  0  0  0  0  0
   -1.2622    0.1768    1.7248 H   0  0  0  0  0  0  0  0  0  0  0  0
   -2.6517    0.2216    0.6216 H   0  0  0  0  0  0  0  0  0  0  0  0
   -1.8145   -1.7407   -0.4310 H   0  0  0  0  0  0  0  0  0  0  0  0
    0.5718   -2.4375   -0.4932 H   0  0  0  0  0  0  0  0  0  0  0  0
    1.3886   -1.0196    1.5978 H   0  0  0  0  0  0  0  0  0  0  0  0
    2.4279   -1.0698    0.1271 H   0  0  0  0  0  0  0  0  0  0  0  0
    0.9437    1.1953    1.3079 H   0  0  0  0  0  0  0  0  0  0  0  0
    2.2507    1.2922    0.1070 H   0  0  0  0  0  0  0  0  0  0  0  0
    0.5295    1.6247   -1.5237 H   0  0  0  0  0  0  0  0  0  0  0  0
   -0.4693   -0.5930   -2.1935 H   0  0  0  0  0  0  0  0  0  0  0  0
  1  2  2  0
  2  3  1  0
  3  4  1  0
  4  5  1  0
  5  6  1  0
  6  7  1  0
  7  8  1  0
  8  9  1  0
  8  2  1  0
  9  4  1  0
  9  5  1  0
  3 10  1  0
  3 11  1  0
  4 12  1  0
  5 13  1  0
  6 14  1  0
  6 15  1  0
  7 16  1  0
  7 17  1  0
  8 18  1  0
  9 19  1  0
M  END
