
     RDKit          3D

 15 15  0  0  0  0  0  0  0  0999 V2000
   -2.6196   -1.8499    0.0234 O   0  0  0  0  0  0  0  0  0  0  0  0
   -1.7138   -0.9884    0.0197 C   0  0  0  0  0  0  0  0  0  0  0  0
   -0.3103   -1.2668   -0.2423 C   0  0  0  0  0  0  0  0  0  0  0  0
    0.3889   -0.1485   -0.1664 C   0  0  0  0  0  0  0  0  0  0  0  0
    1.8481   -0.0402   -0.3736 C   0  0  0  0  0  0  0  0  0  0  0  0
    2.4376    0.4616    0.7942 O   0  0  0  0  0  0  0  0  0  0  0  0
   -0.4685    0.9631    0.1483 C   0  0  0  0  0  0  0  0  0  0  0  0
   -0.1239    2.1603    0.2972 O   0  0  0  0  0  0  0  0  0  0  0  0
   -1.8657    0.4667    0.2746 C   0  0  0  0  0  0  0  0  0  0  0  0
    0.1193   -2.2262   -0.4661 H   0  0  0  0  0  0  0  0  0  0  0  0
    2.2601   -1.0480   -0.5189 H   0  0  0  0  0  0  0  0  0  0  0  0
    2.0722    0.5874   -1.2592 H   0  0  0  0  0  0  0  0  0  0  0  0
    2.7502    1.3769    0.7065 H   0  0  0  0  0  0  0  0  0  0  0  0
   -2.2599    0.6769    1.2901 H   0  0  0  0  0  0  0  0  0  0  0  0
   -2.5147    0.8749   -0.5276 H   0  0  0  0  0  0  0  0  0  0  0  0
  1  2  2  0
  2  3  1  0
  3  4  2  0
  4  5  1  0
  5  6  1  0
  4  7  1  0
  7  8  2  0
  7  9  1  0
  9  2  1  0
  3 10  1  0
  5 11  1  0
  5 12  1  0
  6 13  1  0
  9 14  1  0
  9 15  1  0
M  END
