
     RDKit          3D

 17 19  0  0  0  0  0  0  0  0999 V2000
    2.5834   -0.3561   -1.7326 O   0  0  0  0  0  0  0  0  0  0  0  0
    1.6279   -0.4020   -0.9204 C   0  0  0  0  0  0  0  0  0  0  0  0
    0.6036   -1.3310   -0.9975 O   0  0  0  0  0  0  0  0  0  0  0  0
   -0.2577   -1.2097    0.1207 C   0  0  0  0  0  0  0  0  0  0  0  0
   -1.5047   -0.4590   -0.3406 C   0  0  0  0  0  0  0  0  0  0  0  0
   -1.0373    0.9721   -0.3452 C   0  0  0  0  0  0  0  0  0  0  0  0
    0.1412    1.0588    0.5896 C   0  0  0  0  0  0  0  0  0  0  0  0
    1.4548    0.5067    0.2145 C   0  0  0  0  0  0  0  0  0  0  0  0
    0.4223   -0.2913    1.0632 C   0  0  0  0  0  0  0  0  0  0  0  0
   -0.5062   -2.1751    0.5728 H   0  0  0  0  0  0  0  0  0  0  0  0
   -1.7635   -0.8350   -1.3289 H   0  0  0  0  0  0  0  0  0  0  0  0
   -2.3518   -0.6213    0.3679 H   0  0  0  0  0  0  0  0  0  0  0  0
   -0.7649    1.3147   -1.3746 H   0  0  0  0  0  0  0  0  0  0  0  0
   -1.8510    1.6458   -0.0144 H   0  0  0  0  0  0  0  0  0  0  0  0
    0.1194    1.8862    1.2908 H   0  0  0  0  0  0  0  0  0  0  0  0
    2.3324    0.8721    0.7823 H   0  0  0  0  0  0  0  0  0  0  0  0
    0.7520   -0.5760    2.0524 H   0  0  0  0  0  0  0  0  0  0  0  0
  1  2  2  0
  2  3  1  0
  3  4  1  0
  4  5  1  0
  5  6  1  0
  6  7  1  0
  7  8  1  0
  8  9  1  0
  8  2  1  0
  9  4  1  0
  9  7  1  0
  4 10  1  0
  5 11  1  0
  5 12  1  0
  6 13  1  0
  6 14  1  0
  7 15  1  0
  8 16  1  0
  9 17  1  0
M  END
