
     RDKit          3D

 17 18  0  0  0  0  0  0  0  0999 V2000
    2.7186    0.4154   -1.0531 O   0  0  0  0  0  0  0  0  0  0  0  0
    1.5809    0.4599   -0.5793 C   0  0  0  0  0  0  0  0  0  0  0  0
    0.5466    1.2645   -1.0947 O   0  0  0  0  0  0  0  0  0  0  0  0
   -0.7318    0.9003   -0.5424 C   0  0  0  0  0  0  0  0  0  0  0  0
   -0.8658   -0.6094   -0.7863 C   0  0  0  0  0  0  0  0  0  0  0  0
    0.1054   -1.3496    0.1031 C   0  0  0  0  0  0  0  0  0  0  0  0
    1.1367   -0.3378    0.6151 C   0  0  0  0  0  0  0  0  0  0  0  0
    0.4850    0.5500    1.4865 O   0  0  0  0  0  0  0  0  0  0  0  0
   -0.6758    1.0569    0.9759 C   0  0  0  0  0  0  0  0  0  0  0  0
   -1.5430    1.4627   -0.9920 H   0  0  0  0  0  0  0  0  0  0  0  0
   -1.9105   -0.8829   -0.5349 H   0  0  0  0  0  0  0  0  0  0  0  0
   -0.6000   -0.7761   -1.8384 H   0  0  0  0  0  0  0  0  0  0  0  0
    0.6398   -2.1481   -0.4558 H   0  0  0  0  0  0  0  0  0  0  0  0
   -0.4159   -1.8129    0.9565 H   0  0  0  0  0  0  0  0  0  0  0  0
    1.9535   -0.8419    1.1173 H   0  0  0  0  0  0  0  0  0  0  0  0
   -1.5772    0.5200    1.3785 H   0  0  0  0  0  0  0  0  0  0  0  0
   -0.8465    2.1290    1.2441 H   0  0  0  0  0  0  0  0  0  0  0  0
  1  2  2  0
  2  3  1  0
  3  4  1  0
  4  5  1  0
  5  6  1  0
  6  7  1  0
  7  8  1  0
  8  9  1  0
  7  2  1  0
  9  4  1  0
  4 10  1  0
  5 11  1  0
  5 12  1  0
  6 13  1  0
  6 14  1  0
  7 15  1  0
  9 16  1  0
  9 17  1  0
M  END
