
     RDKit          3D

 15 17  0  0  0  0  0  0  0  0999 V2000
   -2.0711    1.8597    0.0804 O   0  0  0  0  0  0  0  0  0  0  0  0
   -1.2272    1.0213   -0.0415 C   0  0  0  0  0  0  0  0  0  0  0  0
   -0.5358    0.0042    0.8439 C   0  0  0  0  0  0  0  0  0  0  0  0
   -1.0166   -1.2532    0.1591 C   0  0  0  0  0  0  0  0  0  0  0  0
   -0.8361   -0.8505   -1.1904 O   0  0  0  0  0  0  0  0  0  0  0  0
   -0.3185    0.4191   -1.0695 C   0  0  0  0  0  0  0  0  0  0  0  0
    0.6720    0.3391    0.0677 C   0  0  0  0  0  0  0  0  0  0  0  0
    1.9572   -0.0222    0.0545 C   0  0  0  0  0  0  0  0  0  0  0  0
    1.5077    1.3801    0.3295 O   0  0  0  0  0  0  0  0  0  0  0  0
   -0.6173    0.1177    1.8865 H   0  0  0  0  0  0  0  0  0  0  0  0
   -0.4355   -2.1424    0.4043 H   0  0  0  0  0  0  0  0  0  0  0  0
   -2.1111   -1.3585    0.3706 H   0  0  0  0  0  0  0  0  0  0  0  0
   -0.0791    0.9950   -1.9288 H   0  0  0  0  0  0  0  0  0  0  0  0
    2.5907   -0.0608   -0.8812 H   0  0  0  0  0  0  0  0  0  0  0  0
    2.5208   -0.4487    0.9150 H   0  0  0  0  0  0  0  0  0  0  0  0
  1  2  2  0
  2  3  1  0
  3  4  1  0
  4  5  1  0
  5  6  1  0
  6  7  1  0
  7  8  1  0
  8  9  1  0
  6  2  1  0
  9  7  1  0
  7  3  1  0
  3 10  1  0
  4 11  1  0
  4 12  1  0
  6 13  1  0
  8 14  1  0
  8 15  1  0
M  END
