
     RDKit          3D

 21 22  0  0  0  0  0  0  0  0999 V2000
    2.8180   -0.8430    0.9738 O   0  0  0  0  0  0  0  0  0  0  0  0
    2.5383   -0.1100    0.0394 C   0  0  0  0  0  0  0  0  0  0  0  0
    1.1417    0.0022   -0.5016 C   0  0  0  0  0  0  0  0  0  0  0  0
    0.6984    1.4254   -0.3427 C   0  0  0  0  0  0  0  0  0  0  0  0
   -0.6680    1.4242    0.2647 C   0  0  0  0  0  0  0  0  0  0  0  0
   -0.8659    0.0588    0.8507 C   0  0  0  0  0  0  0  0  0  0  0  0
   -1.9779   -0.7196    0.1437 C   0  0  0  0  0  0  0  0  0  0  0  0
   -0.8845   -1.5458   -0.5447 C   0  0  0  0  0  0  0  0  0  0  0  0
    0.1718   -0.8505    0.2481 C   0  0  0  0  0  0  0  0  0  0  0  0
    3.3071    0.4768   -0.4168 H   0  0  0  0  0  0  0  0  0  0  0  0
    1.2030   -0.2444   -1.5919 H   0  0  0  0  0  0  0  0  0  0  0  0
    1.4059    2.0378    0.2657 H   0  0  0  0  0  0  0  0  0  0  0  0
    0.6140    1.9427   -1.3369 H   0  0  0  0  0  0  0  0  0  0  0  0
   -1.4791    1.6275   -0.4734 H   0  0  0  0  0  0  0  0  0  0  0  0
   -0.7094    2.1826    1.0868 H   0  0  0  0  0  0  0  0  0  0  0  0
   -0.9394    0.0285    1.9617 H   0  0  0  0  0  0  0  0  0  0  0  0
   -2.5499   -0.0699   -0.5437 H   0  0  0  0  0  0  0  0  0  0  0  0
   -2.5993   -1.2916    0.8454 H   0  0  0  0  0  0  0  0  0  0  0  0
   -1.0168   -2.6389   -0.3155 H   0  0  0  0  0  0  0  0  0  0  0  0
   -0.8625   -1.4078   -1.6341 H   0  0  0  0  0  0  0  0  0  0  0  0
    0.6545   -1.4853    1.0213 H   0  0  0  0  0  0  0  0  0  0  0  0
  1  2  2  0
  2  3  1  0
  3  4  1  0
  4  5  1  0
  5  6  1  0
  6  7  1  0
  7  8  1  0
  8  9  1  0
  9  3  1  0
  9  6  1  0
  2 10  1  0
  3 11  1  0
  4 12  1  0
  4 13  1  0
  5 14  1  0
  5 15  1  0
  6 16  1  0
  7 17  1  0
  7 18  1  0
  8 19  1  0
  8 20  1  0
  9 21  1  0
M  END
