
     RDKit          3D

 17 18  0  0  0  0  0  0  0  0999 V2000
    2.6198   -0.8625    0.8021 O   0  0  0  0  0  0  0  0  0  0  0  0
    2.2031   -0.1787   -0.1131 C   0  0  0  0  0  0  0  0  0  0  0  0
    0.7484    0.0476   -0.2948 C   0  0  0  0  0  0  0  0  0  0  0  0
    0.3937    0.8378   -1.3641 O   0  0  0  0  0  0  0  0  0  0  0  0
    0.0413    0.4292    0.9619 C   0  0  0  0  0  0  0  0  0  0  0  0
   -1.3700    0.7193    0.4441 C   0  0  0  0  0  0  0  0  0  0  0  0
   -1.5144   -0.5888   -0.3622 C   0  0  0  0  0  0  0  0  0  0  0  0
   -0.1302   -1.1473   -0.0847 C   0  0  0  0  0  0  0  0  0  0  0  0
   -0.0021   -0.9317    1.2840 O   0  0  0  0  0  0  0  0  0  0  0  0
    2.9486    0.2469   -0.7754 H   0  0  0  0  0  0  0  0  0  0  0  0
    0.9002    1.6886   -1.3457 H   0  0  0  0  0  0  0  0  0  0  0  0
    0.4707    1.1116    1.6500 H   0  0  0  0  0  0  0  0  0  0  0  0
   -2.1041    0.7809    1.2459 H   0  0  0  0  0  0  0  0  0  0  0  0
   -1.3834    1.5405   -0.2753 H   0  0  0  0  0  0  0  0  0  0  0  0
   -2.2612   -1.2067    0.1398 H   0  0  0  0  0  0  0  0  0  0  0  0
   -1.6955   -0.3955   -1.4164 H   0  0  0  0  0  0  0  0  0  0  0  0
    0.1351   -2.0911   -0.4960 H   0  0  0  0  0  0  0  0  0  0  0  0
  1  2  2  0
  2  3  1  0
  3  4  1  0
  3  5  1  0
  5  6  1  0
  6  7  1  0
  7  8  1  0
  8  9  1  0
  8  3  1  0
  9  5  1  0
  2 10  1  0
  4 11  1  0
  5 12  1  0
  6 13  1  0
  6 14  1  0
  7 15  1  0
  7 16  1  0
  8 17  1  0
M  END
