
     RDKit          3D

 19 19  0  0  0  0  0  0  0  0999 V2000
   -1.4286    2.4552   -0.4518 O   0  0  0  0  0  0  0  0  0  0  0  0
   -0.4051    1.8323   -0.2284 C   0  0  0  0  0  0  0  0  0  0  0  0
   -0.4850    0.3823    0.0274 C   0  0  0  0  0  0  0  0  0  0  0  0
    0.8241   -0.2995    0.2924 C   0  0  0  0  0  0  0  0  0  0  0  0
    1.7968   -0.1839   -0.8395 C   0  0  0  0  0  0  0  0  0  0  0  0
    2.9655   -0.8645   -0.4493 O   0  0  0  0  0  0  0  0  0  0  0  0
   -1.6385   -0.1151    0.9184 C   0  0  0  0  0  0  0  0  0  0  0  0
   -1.6292   -0.3287   -0.5801 C   0  0  0  0  0  0  0  0  0  0  0  0
   -1.4868   -1.6646   -1.0070 O   0  0  0  0  0  0  0  0  0  0  0  0
    0.5227    2.3970   -0.2317 H   0  0  0  0  0  0  0  0  0  0  0  0
    1.2891    0.1988    1.1785 H   0  0  0  0  0  0  0  0  0  0  0  0
    0.7075   -1.3781    0.5272 H   0  0  0  0  0  0  0  0  0  0  0  0
    2.1027    0.8388   -1.0801 H   0  0  0  0  0  0  0  0  0  0  0  0
    1.4566   -0.6739   -1.7653 H   0  0  0  0  0  0  0  0  0  0  0  0
    3.7813   -0.3999   -0.7041 H   0  0  0  0  0  0  0  0  0  0  0  0
   -1.4403   -0.9685    1.5785 H   0  0  0  0  0  0  0  0  0  0  0  0
   -2.2992    0.6624    1.3463 H   0  0  0  0  0  0  0  0  0  0  0  0
   -2.3840    0.2598   -1.1135 H   0  0  0  0  0  0  0  0  0  0  0  0
   -2.2496   -2.1498   -0.5604 H   0  0  0  0  0  0  0  0  0  0  0  0
  1  2  2  0
  2  3  1  0
  3  4  1  0
  4  5  1  0
  5  6  1  0
  3  7  1  0
  7  8  1  0
  8  9  1  0
  8  3  1  0
  2 10  1  0
  4 11  1  0
  4 12  1  0
  5 13  1  0
  5 14  1  0
  6 15  1  0
  7 16  1  0
  7 17  1  0
  8 18  1  0
  9 19  1  0
M  END
