
     RDKit          3D

 12 11  0  0  0  0  0  0  0  0999 V2000
   -3.3798    0.4582   -0.0580 O   0  0  0  0  0  0  0  0  0  0  0  0
   -2.2151    0.7720    0.0494 C   0  0  0  0  0  0  0  0  0  0  0  0
   -1.1874   -0.2256   -0.3081 C   0  0  0  0  0  0  0  0  0  0  0  0
    0.1347    0.3049   -0.1245 O   0  0  0  0  0  0  0  0  0  0  0  0
    1.2616   -0.4428   -0.3936 C   0  0  0  0  0  0  0  0  0  0  0  0
    1.0567   -1.6221   -0.8110 O   0  0  0  0  0  0  0  0  0  0  0  0
    2.6155    0.0316   -0.2300 C   0  0  0  0  0  0  0  0  0  0  0  0
    2.8337    1.1867    0.1788 O   0  0  0  0  0  0  0  0  0  0  0  0
   -1.9531    1.7554    0.3973 H   0  0  0  0  0  0  0  0  0  0  0  0
   -1.3441   -0.4968   -1.3778 H   0  0  0  0  0  0  0  0  0  0  0  0
   -1.2616   -1.1142    0.3580 H   0  0  0  0  0  0  0  0  0  0  0  0
    3.4389   -0.6073   -0.4594 H   0  0  0  0  0  0  0  0  0  0  0  0
  1  2  2  0
  2  3  1  0
  3  4  1  0
  4  5  1  0
  5  6  2  0
  5  7  1  0
  7  8  2  0
  2  9  1  0
  3 10  1  0
  3 11  1  0
  7 12  1  0
M  END
