
     RDKit          3D

 14 14  0  0  0  0  0  0  0  0999 V2000
    2.5661   -1.3739   -0.5140 O   0  0  0  0  0  0  0  0  0  0  0  0
    2.1811   -0.3824    0.1387 C   0  0  0  0  0  0  0  0  0  0  0  0
    0.7836   -0.0044    0.0924 C   0  0  0  0  0  0  0  0  0  0  0  0
    0.2269    1.0273    0.7347 C   0  0  0  0  0  0  0  0  0  0  0  0
   -1.1806    1.0762    0.4394 C   0  0  0  0  0  0  0  0  0  0  0  0
   -2.0042    2.0088    0.6468 O   0  0  0  0  0  0  0  0  0  0  0  0
   -1.5514   -0.2196   -0.1887 C   0  0  0  0  0  0  0  0  0  0  0  0
   -0.2433   -0.7282   -0.6946 C   0  0  0  0  0  0  0  0  0  0  0  0
    2.8599    0.2011    0.7364 H   0  0  0  0  0  0  0  0  0  0  0  0
    0.7798    1.6999    1.3694 H   0  0  0  0  0  0  0  0  0  0  0  0
   -1.9731   -0.9196    0.5718 H   0  0  0  0  0  0  0  0  0  0  0  0
   -2.2784   -0.0808   -0.9891 H   0  0  0  0  0  0  0  0  0  0  0  0
   -0.0559   -0.4866   -1.7603 H   0  0  0  0  0  0  0  0  0  0  0  0
   -0.1106   -1.8179   -0.5827 H   0  0  0  0  0  0  0  0  0  0  0  0
  1  2  2  0
  2  3  1  0
  3  4  2  0
  4  5  1  0
  5  6  2  0
  5  7  1  0
  7  8  1  0
  8  3  1  0
  2  9  1  0
  4 10  1  0
  7 11  1  0
  7 12  1  0
  8 13  1  0
  8 14  1  0
M  END
