
     RDKit          3D

 21 20  0  0  0  0  0  0  0  0999 V2000
    3.5696    0.8658   -1.7591 O   0  0  0  0  0  0  0  0  0  0  0  0
    2.8081    0.7977   -0.8072 C   0  0  0  0  0  0  0  0  0  0  0  0
    1.6479   -0.1295   -0.8782 C   0  0  0  0  0  0  0  0  0  0  0  0
    0.8936   -0.0061    0.4170 C   0  0  0  0  0  0  0  0  0  0  0  0
   -0.2751   -0.8991    0.4244 C   0  0  0  0  0  0  0  0  0  0  0  0
   -0.9710   -0.7732    1.6419 O   0  0  0  0  0  0  0  0  0  0  0  0
   -1.2692   -0.6911   -0.6727 C   0  0  0  0  0  0  0  0  0  0  0  0
   -1.8828    0.6758   -0.6973 C   0  0  0  0  0  0  0  0  0  0  0  0
   -2.5653    0.9756    0.4762 O   0  0  0  0  0  0  0  0  0  0  0  0
    3.0175    1.4228    0.0512 H   0  0  0  0  0  0  0  0  0  0  0  0
    2.0126   -1.1630   -1.0342 H   0  0  0  0  0  0  0  0  0  0  0  0
    0.9608    0.1357   -1.7085 H   0  0  0  0  0  0  0  0  0  0  0  0
    0.6947    1.0566    0.6392 H   0  0  0  0  0  0  0  0  0  0  0  0
    1.5944   -0.3522    1.2223 H   0  0  0  0  0  0  0  0  0  0  0  0
    0.0859   -1.9480    0.3844 H   0  0  0  0  0  0  0  0  0  0  0  0
   -1.2593   -1.6582    1.9879 H   0  0  0  0  0  0  0  0  0  0  0  0
   -0.8072   -0.8729   -1.6659 H   0  0  0  0  0  0  0  0  0  0  0  0
   -2.1038   -1.4214   -0.5976 H   0  0  0  0  0  0  0  0  0  0  0  0
   -1.1289    1.4254   -0.9446 H   0  0  0  0  0  0  0  0  0  0  0  0
   -2.6371    0.6841   -1.5122 H   0  0  0  0  0  0  0  0  0  0  0  0
   -2.3855    1.8752    0.8154 H   0  0  0  0  0  0  0  0  0  0  0  0
  1  2  2  0
  2  3  1  0
  3  4  1  0
  4  5  1  0
  5  6  1  0
  5  7  1  0
  7  8  1  0
  8  9  1  0
  2 10  1  0
  3 11  1  0
  3 12  1  0
  4 13  1  0
  4 14  1  0
  5 15  1  0
  6 16  1  0
  7 17  1  0
  7 18  1  0
  8 19  1  0
  8 20  1  0
  9 21  1  0
M  END
