
     RDKit          3D

 15 16  0  0  0  0  0  0  0  0999 V2000
    4.2740    2.0057    0.0294 O   0  0  0  0  0  0  0  0  0  0  0  0
    3.4006    1.3883   -0.6257 C   0  0  0  0  0  0  0  0  0  0  0  0
    2.1501    0.9297   -0.0963 C   0  0  0  0  0  0  0  0  0  0  0  0
    1.1030    0.5311    0.3325 C   0  0  0  0  0  0  0  0  0  0  0  0
   -0.1770    0.0246    0.8409 C   0  0  0  0  0  0  0  0  0  0  0  0
   -0.1895   -1.3603    0.7709 O   0  0  0  0  0  0  0  0  0  0  0  0
   -1.3140   -1.4976   -0.0075 C   0  0  0  0  0  0  0  0  0  0  0  0
   -2.5249   -0.6743    0.2089 C   0  0  0  0  0  0  0  0  0  0  0  0
   -1.2981    0.0519   -0.1631 C   0  0  0  0  0  0  0  0  0  0  0  0
    3.6064    1.1875   -1.6658 H   0  0  0  0  0  0  0  0  0  0  0  0
   -0.4411    0.3499    1.8602 H   0  0  0  0  0  0  0  0  0  0  0  0
   -1.2074   -2.0757   -0.9348 H   0  0  0  0  0  0  0  0  0  0  0  0
   -2.9580   -0.5431    1.2253 H   0  0  0  0  0  0  0  0  0  0  0  0
   -3.3009   -0.7595   -0.5854 H   0  0  0  0  0  0  0  0  0  0  0  0
   -1.1233    0.4418   -1.1775 H   0  0  0  0  0  0  0  0  0  0  0  0
  1  2  2  0
  2  3  1  0
  3  4  3  0
  4  5  1  0
  5  6  1  0
  6  7  1  0
  7  8  1  0
  8  9  1  0
  9  5  1  0
  9  7  1  0
  2 10  1  0
  5 11  1  0
  7 12  1  0
  8 13  1  0
  8 14  1  0
  9 15  1  0
M  END
