
     RDKit          3D

 17 19  0  0  0  0  0  0  0  0999 V2000
    2.5860   -0.9078    0.3983 O   0  0  0  0  0  0  0  0  0  0  0  0
    1.9349    0.0108   -0.1306 C   0  0  0  0  0  0  0  0  0  0  0  0
    0.6325    0.2441    0.1019 C   0  0  0  0  0  0  0  0  0  0  0  0
   -0.0108    1.1605    1.0978 C   0  0  0  0  0  0  0  0  0  0  0  0
   -1.1763    0.5361    0.3966 C   0  0  0  0  0  0  0  0  0  0  0  0
   -0.4167   -0.7563    0.4758 C   0  0  0  0  0  0  0  0  0  0  0  0
   -0.7374   -1.4285   -0.8011 C   0  0  0  0  0  0  0  0  0  0  0  0
   -0.7549   -0.3257   -1.6901 O   0  0  0  0  0  0  0  0  0  0  0  0
   -0.4101    0.7247   -0.8786 C   0  0  0  0  0  0  0  0  0  0  0  0
    2.5552    0.6150   -0.8170 H   0  0  0  0  0  0  0  0  0  0  0  0
    0.0623    0.8539    2.1610 H   0  0  0  0  0  0  0  0  0  0  0  0
    0.1502    2.2392    0.9310 H   0  0  0  0  0  0  0  0  0  0  0  0
   -2.1530    0.6845    0.5566 H   0  0  0  0  0  0  0  0  0  0  0  0
   -0.3554   -1.2831    1.3954 H   0  0  0  0  0  0  0  0  0  0  0  0
    0.1018   -2.1032   -1.0864 H   0  0  0  0  0  0  0  0  0  0  0  0
   -1.7017   -1.9729   -0.8222 H   0  0  0  0  0  0  0  0  0  0  0  0
   -0.3066    1.7087   -1.2882 H   0  0  0  0  0  0  0  0  0  0  0  0
  1  2  2  0
  2  3  1  0
  3  4  1  0
  4  5  1  0
  5  6  1  0
  6  7  1  0
  7  8  1  0
  8  9  1  0
  6  3  1  0
  9  3  1  0
  9  5  1  0
  2 10  1  0
  4 11  1  0
  4 12  1  0
  5 13  1  0
  6 14  1  0
  7 15  1  0
  7 16  1  0
  9 17  1  0
M  END
