
     RDKit          3D

 13 13  0  0  0  0  0  0  0  0999 V2000
    2.9828   -0.4866   -0.1431 O   0  0  0  0  0  0  0  0  0  0  0  0
    2.1344    0.3678   -0.3390 C   0  0  0  0  0  0  0  0  0  0  0  0
    0.7915    0.1276    0.2506 C   0  0  0  0  0  0  0  0  0  0  0  0
   -0.0944    1.1602   -0.0333 O   0  0  0  0  0  0  0  0  0  0  0  0
   -1.3232    0.5385    0.2209 C   0  0  0  0  0  0  0  0  0  0  0  0
   -1.1333   -0.9044   -0.2313 C   0  0  0  0  0  0  0  0  0  0  0  0
    0.2381   -1.0252   -0.2968 O   0  0  0  0  0  0  0  0  0  0  0  0
    2.3797    1.2498   -0.9202 H   0  0  0  0  0  0  0  0  0  0  0  0
    0.9217    0.0397    1.3406 H   0  0  0  0  0  0  0  0  0  0  0  0
   -1.5720    0.5673    1.3017 H   0  0  0  0  0  0  0  0  0  0  0  0
   -2.1485    1.0006   -0.3449 H   0  0  0  0  0  0  0  0  0  0  0  0
   -1.5745   -1.0172   -1.2643 H   0  0  0  0  0  0  0  0  0  0  0  0
   -1.6024   -1.6180    0.4591 H   0  0  0  0  0  0  0  0  0  0  0  0
  1  2  2  0
  2  3  1  0
  3  4  1  0
  4  5  1  0
  5  6  1  0
  6  7  1  0
  7  3  1  0
  2  8  1  0
  3  9  1  0
  5 10  1  0
  5 11  1  0
  6 12  1  0
  6 13  1  0
M  END
