
     RDKit          3D

 17 17  0  0  0  0  0  0  0  0999 V2000
   -2.1216    0.9441   -1.2193 O   0  0  0  0  0  0  0  0  0  0  0  0
   -2.4037    0.2839   -0.2447 C   0  0  0  0  0  0  0  0  0  0  0  0
   -1.5477   -0.8360    0.1469 C   0  0  0  0  0  0  0  0  0  0  0  0
   -0.3183   -0.4486    0.9248 C   0  0  0  0  0  0  0  0  0  0  0  0
    0.5954    0.4719    0.1844 C   0  0  0  0  0  0  0  0  0  0  0  0
    1.8420    0.9417    0.8126 C   0  0  0  0  0  0  0  0  0  0  0  0
    1.9382   -0.1416   -0.2366 C   0  0  0  0  0  0  0  0  0  0  0  0
   -3.2858    0.5382    0.3167 H   0  0  0  0  0  0  0  0  0  0  0  0
   -1.2086   -1.4430   -0.7348 H   0  0  0  0  0  0  0  0  0  0  0  0
   -2.0929   -1.5881    0.7910 H   0  0  0  0  0  0  0  0  0  0  0  0
    0.2274   -1.3866    1.1501 H   0  0  0  0  0  0  0  0  0  0  0  0
   -0.6055   -0.0417    1.9248 H   0  0  0  0  0  0  0  0  0  0  0  0
    0.1197    1.1205   -0.5985 H   0  0  0  0  0  0  0  0  0  0  0  0
    2.2598    1.9187    0.4831 H   0  0  0  0  0  0  0  0  0  0  0  0
    2.0867    0.6966    1.8659 H   0  0  0  0  0  0  0  0  0  0  0  0
    2.3110    0.1052   -1.2458 H   0  0  0  0  0  0  0  0  0  0  0  0
    2.2037   -1.1349    0.1739 H   0  0  0  0  0  0  0  0  0  0  0  0
  1  2  2  0
  2  3  1  0
  3  4  1  0
  4  5  1  0
  5  6  1  0
  6  7  1  0
  7  5  1  0
  2  8  1  0
  3  9  1  0
  3 10  1  0
  4 11  1  0
  4 12  1  0
  5 13  1  0
  6 14  1  0
  6 15  1  0
  7 16  1  0
  7 17  1  0
M  END
