
     RDKit          3D

 19 20  0  0  0  0  0  0  0  0999 V2000
    3.8452    0.8142    0.2690 O   0  0  0  0  0  0  0  0  0  0  0  0
    2.8934    0.5005   -0.4914 C   0  0  0  0  0  0  0  0  0  0  0  0
    1.5493    0.2128   -0.0230 C   0  0  0  0  0  0  0  0  0  0  0  0
    1.1515    0.2414    1.2435 C   0  0  0  0  0  0  0  0  0  0  0  0
   -0.2871   -0.1044    1.3697 C   0  0  0  0  0  0  0  0  0  0  0  0
   -0.7974   -0.2050   -0.0235 C   0  0  0  0  0  0  0  0  0  0  0  0
   -1.9968   -1.0010   -0.3159 C   0  0  0  0  0  0  0  0  0  0  0  0
   -2.0034    0.4896   -0.4960 C   0  0  0  0  0  0  0  0  0  0  0  0
    0.4075   -0.1585   -0.8867 C   0  0  0  0  0  0  0  0  0  0  0  0
    3.0896    0.4429   -1.5474 H   0  0  0  0  0  0  0  0  0  0  0  0
    1.8267    0.4911    2.0514 H   0  0  0  0  0  0  0  0  0  0  0  0
   -0.4359   -1.0177    1.9820 H   0  0  0  0  0  0  0  0  0  0  0  0
   -0.8213    0.7524    1.8659 H   0  0  0  0  0  0  0  0  0  0  0  0
   -2.0977   -1.6598   -1.1910 H   0  0  0  0  0  0  0  0  0  0  0  0
   -2.5703   -1.3597    0.5716 H   0  0  0  0  0  0  0  0  0  0  0  0
   -2.0679    0.8600   -1.5453 H   0  0  0  0  0  0  0  0  0  0  0  0
   -2.5794    1.1148    0.2360 H   0  0  0  0  0  0  0  0  0  0  0  0
    0.2893    0.6787   -1.6207 H   0  0  0  0  0  0  0  0  0  0  0  0
    0.6048   -1.0923   -1.4481 H   0  0  0  0  0  0  0  0  0  0  0  0
  1  2  2  0
  2  3  1  0
  3  4  2  0
  4  5  1  0
  5  6  1  0
  6  7  1  0
  7  8  1  0
  6  9  1  0
  9  3  1  0
  8  6  1  0
  2 10  1  0
  4 11  1  0
  5 12  1  0
  5 13  1  0
  7 14  1  0
  7 15  1  0
  8 16  1  0
  8 17  1  0
  9 18  1  0
  9 19  1  0
M  END
