
     RDKit          3D

 17 17  0  0  0  0  0  0  0  0999 V2000
    2.2808   -1.0062    1.3134 O   0  0  0  0  0  0  0  0  0  0  0  0
    1.5079   -1.1335    0.3820 C   0  0  0  0  0  0  0  0  0  0  0  0
    0.6674    0.0312   -0.0104 C   0  0  0  0  0  0  0  0  0  0  0  0
    1.5278    1.2088   -0.3323 C   0  0  0  0  0  0  0  0  0  0  0  0
    1.5442    1.7701   -1.4049 O   0  0  0  0  0  0  0  0  0  0  0  0
   -0.2788    0.4291    1.1249 C   0  0  0  0  0  0  0  0  0  0  0  0
   -1.6104    0.4002    0.4011 C   0  0  0  0  0  0  0  0  0  0  0  0
   -1.3323   -0.7961   -0.5253 C   0  0  0  0  0  0  0  0  0  0  0  0
   -0.1119   -0.3520   -1.0711 O   0  0  0  0  0  0  0  0  0  0  0  0
    1.4810   -2.0996   -0.1087 H   0  0  0  0  0  0  0  0  0  0  0  0
    2.1880    1.6000    0.4348 H   0  0  0  0  0  0  0  0  0  0  0  0
   -0.0363    1.4253    1.4858 H   0  0  0  0  0  0  0  0  0  0  0  0
   -0.3117   -0.3408    1.9101 H   0  0  0  0  0  0  0  0  0  0  0  0
   -1.7750    1.2644   -0.2453 H   0  0  0  0  0  0  0  0  0  0  0  0
   -2.4541    0.1754    1.0841 H   0  0  0  0  0  0  0  0  0  0  0  0
   -2.1001   -0.9228   -1.2754 H   0  0  0  0  0  0  0  0  0  0  0  0
   -1.1865   -1.6535    0.1522 H   0  0  0  0  0  0  0  0  0  0  0  0
  1  2  2  0
  2  3  1  0
  3  4  1  0
  4  5  2  0
  3  6  1  0
  6  7  1  0
  7  8  1  0
  8  9  1  0
  9  3  1  0
  2 10  1  0
  4 11  1  0
  6 12  1  0
  6 13  1  0
  7 14  1  0
  7 15  1  0
  8 16  1  0
  8 17  1  0
M  END
