
     RDKit          3D

 14 15  0  0  0  0  0  0  0  0999 V2000
    2.2539   -1.4182    0.0430 O   0  0  0  0  0  0  0  0  0  0  0  0
    1.9165   -0.2535   -0.1027 C   0  0  0  0  0  0  0  0  0  0  0  0
    0.7715    0.3717    0.5981 C   0  0  0  0  0  0  0  0  0  0  0  0
    0.1364   -0.5434    1.4400 O   0  0  0  0  0  0  0  0  0  0  0  0
   -1.0694   -0.5034    0.7592 C   0  0  0  0  0  0  0  0  0  0  0  0
   -1.0754   -0.9028   -0.6635 C   0  0  0  0  0  0  0  0  0  0  0  0
   -0.4698    0.3750   -0.2583 C   0  0  0  0  0  0  0  0  0  0  0  0
   -1.0464    1.5642   -0.6496 O   0  0  0  0  0  0  0  0  0  0  0  0
    2.4824    0.3714   -0.7845 H   0  0  0  0  0  0  0  0  0  0  0  0
    1.0042    1.3485    1.0498 H   0  0  0  0  0  0  0  0  0  0  0  0
   -1.9832   -0.2111    1.3008 H   0  0  0  0  0  0  0  0  0  0  0  0
   -0.3903   -1.6889   -1.0203 H   0  0  0  0  0  0  0  0  0  0  0  0
   -2.0582   -0.8606   -1.1690 H   0  0  0  0  0  0  0  0  0  0  0  0
   -0.4722    2.3511   -0.5430 H   0  0  0  0  0  0  0  0  0  0  0  0
  1  2  2  0
  2  3  1  0
  3  4  1  0
  4  5  1  0
  5  6  1  0
  6  7  1  0
  7  8  1  0
  7  3  1  0
  7  5  1  0
  2  9  1  0
  3 10  1  0
  5 11  1  0
  6 12  1  0
  6 13  1  0
  8 14  1  0
M  END
