
     RDKit          3D

 14 13  0  0  0  0  0  0  0  0999 V2000
   -3.2283   -1.0895    0.4029 O   0  0  0  0  0  0  0  0  0  0  0  0
   -2.6488   -0.2530    1.0973 C   0  0  0  0  0  0  0  0  0  0  0  0
   -1.8666    0.8402    0.4834 C   0  0  0  0  0  0  0  0  0  0  0  0
   -0.5558    0.2484    0.1171 C   0  0  0  0  0  0  0  0  0  0  0  0
    0.5139   -0.2311   -0.2021 C   0  0  0  0  0  0  0  0  0  0  0  0
    1.8025   -0.8047   -0.5606 C   0  0  0  0  0  0  0  0  0  0  0  0
    2.7626    0.2688   -0.9131 C   0  0  0  0  0  0  0  0  0  0  0  0
    2.3901    1.4154   -0.8761 O   0  0  0  0  0  0  0  0  0  0  0  0
   -2.7395   -0.3555    2.1721 H   0  0  0  0  0  0  0  0  0  0  0  0
   -2.3373    1.1681   -0.4664 H   0  0  0  0  0  0  0  0  0  0  0  0
   -1.7379    1.7005    1.1437 H   0  0  0  0  0  0  0  0  0  0  0  0
    1.7228   -1.4548   -1.4814 H   0  0  0  0  0  0  0  0  0  0  0  0
    2.1484   -1.4429    0.2777 H   0  0  0  0  0  0  0  0  0  0  0  0
    3.7739   -0.0101   -1.1947 H   0  0  0  0  0  0  0  0  0  0  0  0
  1  2  2  0
  2  3  1  0
  3  4  1  0
  4  5  3  0
  5  6  1  0
  6  7  1  0
  7  8  2  0
  2  9  1  0
  3 10  1  0
  3 11  1  0
  6 12  1  0
  6 13  1  0
  7 14  1  0
M  END
