
     RDKit          3D

 17 17  0  0  0  0  0  0  0  0999 V2000
    4.7167   -0.0524    1.0088 O   0  0  0  0  0  0  0  0  0  0  0  0
    3.8310   -0.7849    0.5070 C   0  0  0  0  0  0  0  0  0  0  0  0
    2.5150   -0.2997    0.2020 C   0  0  0  0  0  0  0  0  0  0  0  0
    1.4057    0.0970   -0.0363 C   0  0  0  0  0  0  0  0  0  0  0  0
    0.0750    0.5775   -0.3159 C   0  0  0  0  0  0  0  0  0  0  0  0
   -0.8424    0.4870    0.8993 C   0  0  0  0  0  0  0  0  0  0  0  0
   -2.1660    0.7892    0.1876 C   0  0  0  0  0  0  0  0  0  0  0  0
   -1.8588    0.3760   -1.2342 C   0  0  0  0  0  0  0  0  0  0  0  0
   -0.6057   -0.2403   -1.2075 O   0  0  0  0  0  0  0  0  0  0  0  0
    4.1004   -1.8102    0.3103 H   0  0  0  0  0  0  0  0  0  0  0  0
    0.0340    1.6194   -0.6743 H   0  0  0  0  0  0  0  0  0  0  0  0
   -0.5966    1.2237    1.6596 H   0  0  0  0  0  0  0  0  0  0  0  0
   -0.9196   -0.5549    1.2617 H   0  0  0  0  0  0  0  0  0  0  0  0
   -3.0008    0.2298    0.6345 H   0  0  0  0  0  0  0  0  0  0  0  0
   -2.3420    1.8658    0.2919 H   0  0  0  0  0  0  0  0  0  0  0  0
   -1.7048    1.3325   -1.8112 H   0  0  0  0  0  0  0  0  0  0  0  0
   -2.6410   -0.2542   -1.6832 H   0  0  0  0  0  0  0  0  0  0  0  0
  1  2  2  0
  2  3  1  0
  3  4  3  0
  4  5  1  0
  5  6  1  0
  6  7  1  0
  7  8  1  0
  8  9  1  0
  9  5  1  0
  2 10  1  0
  5 11  1  0
  6 12  1  0
  6 13  1  0
  7 14  1  0
  7 15  1  0
  8 16  1  0
  8 17  1  0
M  END
