
     RDKit          3D

 19 20  0  0  0  0  0  0  0  0999 V2000
    2.9242   -1.7220    0.2316 O   0  0  0  0  0  0  0  0  0  0  0  0
    2.2610   -0.7696    0.6269 C   0  0  0  0  0  0  0  0  0  0  0  0
    0.9920   -0.4790   -0.0483 C   0  0  0  0  0  0  0  0  0  0  0  0
    0.9571    0.9415   -0.6208 C   0  0  0  0  0  0  0  0  0  0  0  0
   -0.5269    1.0209   -1.0066 C   0  0  0  0  0  0  0  0  0  0  0  0
   -1.1682    0.5168    0.2766 C   0  0  0  0  0  0  0  0  0  0  0  0
   -2.0723   -0.6588    0.1242 C   0  0  0  0  0  0  0  0  0  0  0  0
   -1.0888   -1.5356    0.5924 O   0  0  0  0  0  0  0  0  0  0  0  0
   -0.1976   -0.4797    0.8701 C   0  0  0  0  0  0  0  0  0  0  0  0
    2.5754   -0.1503    1.4402 H   0  0  0  0  0  0  0  0  0  0  0  0
    0.8158   -1.1451   -0.9309 H   0  0  0  0  0  0  0  0  0  0  0  0
    1.6068    1.0385   -1.4972 H   0  0  0  0  0  0  0  0  0  0  0  0
    1.1934    1.6751    0.1890 H   0  0  0  0  0  0  0  0  0  0  0  0
   -0.6531    0.2819   -1.8373 H   0  0  0  0  0  0  0  0  0  0  0  0
   -0.8325    2.0280   -1.2797 H   0  0  0  0  0  0  0  0  0  0  0  0
   -1.4785    1.3171    0.9605 H   0  0  0  0  0  0  0  0  0  0  0  0
   -2.9095   -0.6492    0.8778 H   0  0  0  0  0  0  0  0  0  0  0  0
   -2.4088   -0.8782   -0.9132 H   0  0  0  0  0  0  0  0  0  0  0  0
    0.0106   -0.3524    1.9446 H   0  0  0  0  0  0  0  0  0  0  0  0
  1  2  2  0
  2  3  1  0
  3  4  1  0
  4  5  1  0
  5  6  1  0
  6  7  1  0
  7  8  1  0
  8  9  1  0
  9  3  1  0
  9  6  1  0
  2 10  1  0
  3 11  1  0
  4 12  1  0
  4 13  1  0
  5 14  1  0
  5 15  1  0
  6 16  1  0
  7 17  1  0
  7 18  1  0
  9 19  1  0
M  END
