
     RDKit          3D

 17 18  0  0  0  0  0  0  0  0999 V2000
    2.5484   -0.3536   -1.5677 O   0  0  0  0  0  0  0  0  0  0  0  0
    2.8855    0.0284   -0.4786 C   0  0  0  0  0  0  0  0  0  0  0  0
    1.9120    0.5197    0.5060 C   0  0  0  0  0  0  0  0  0  0  0  0
    0.4960    0.4834   -0.0066 C   0  0  0  0  0  0  0  0  0  0  0  0
   -0.4468    0.9437    0.9069 O   0  0  0  0  0  0  0  0  0  0  0  0
   -0.4248   -0.4735    0.5483 C   0  0  0  0  0  0  0  0  0  0  0  0
   -1.7241   -0.8527   -0.1080 C   0  0  0  0  0  0  0  0  0  0  0  0
   -2.7427    0.1126   -0.4453 C   0  0  0  0  0  0  0  0  0  0  0  0
   -2.8415   -0.5956    0.8460 O   0  0  0  0  0  0  0  0  0  0  0  0
    3.9332    0.0065   -0.2255 H   0  0  0  0  0  0  0  0  0  0  0  0
    1.9662   -0.1241    1.4132 H   0  0  0  0  0  0  0  0  0  0  0  0
    2.1930    1.5553    0.8576 H   0  0  0  0  0  0  0  0  0  0  0  0
    0.4008    0.7735   -1.0760 H   0  0  0  0  0  0  0  0  0  0  0  0
   -0.1062   -1.1378    1.3746 H   0  0  0  0  0  0  0  0  0  0  0  0
   -1.8530   -1.8929   -0.4578 H   0  0  0  0  0  0  0  0  0  0  0  0
   -2.6699    1.1814   -0.2524 H   0  0  0  0  0  0  0  0  0  0  0  0
   -3.5261   -0.1744   -1.1621 H   0  0  0  0  0  0  0  0  0  0  0  0
  1  2  2  0
  2  3  1  0
  3  4  1  0
  4  5  1  0
  5  6  1  0
  6  7  1  0
  7  8  1  0
  8  9  1  0
  6  4  1  0
  9  7  1  0
  2 10  1  0
  3 11  1  0
  3 12  1  0
  4 13  1  0
  6 14  1  0
  7 15  1  0
  8 16  1  0
  8 17  1  0
M  END
