
     RDKit          3D

 19 19  0  0  0  0  0  0  0  0999 V2000
   -0.1353    3.1334   -0.1127 O   0  0  0  0  0  0  0  0  0  0  0  0
    0.2452    2.0029   -0.3626 C   0  0  0  0  0  0  0  0  0  0  0  0
   -0.3241    0.8765    0.3814 C   0  0  0  0  0  0  0  0  0  0  0  0
    0.4273   -0.3817    0.6019 C   0  0  0  0  0  0  0  0  0  0  0  0
    1.9102   -0.3568    0.2087 C   0  0  0  0  0  0  0  0  0  0  0  0
    2.5518    0.6288    0.9589 O   0  0  0  0  0  0  0  0  0  0  0  0
   -0.5448   -0.3946   -0.4780 C   0  0  0  0  0  0  0  0  0  0  0  0
   -1.9376   -0.9365   -0.3571 C   0  0  0  0  0  0  0  0  0  0  0  0
   -2.2698   -1.2931    0.9502 O   0  0  0  0  0  0  0  0  0  0  0  0
    0.9952    1.9090   -1.1356 H   0  0  0  0  0  0  0  0  0  0  0  0
   -1.0781    1.1157    1.1395 H   0  0  0  0  0  0  0  0  0  0  0  0
    0.2753   -0.9185    1.5604 H   0  0  0  0  0  0  0  0  0  0  0  0
    2.3686   -1.3612    0.3632 H   0  0  0  0  0  0  0  0  0  0  0  0
    2.0358   -0.1186   -0.8563 H   0  0  0  0  0  0  0  0  0  0  0  0
    3.5125    0.3442    1.0709 H   0  0  0  0  0  0  0  0  0  0  0  0
   -0.1583   -0.3764   -1.5128 H   0  0  0  0  0  0  0  0  0  0  0  0
   -2.6853   -0.1859   -0.7338 H   0  0  0  0  0  0  0  0  0  0  0  0
   -2.0979   -1.8403   -0.9808 H   0  0  0  0  0  0  0  0  0  0  0  0
   -3.0908   -1.8469    0.8780 H   0  0  0  0  0  0  0  0  0  0  0  0
  1  2  2  0
  2  3  1  0
  3  4  1  0
  4  5  1  0
  5  6  1  0
  4  7  1  0
  7  8  1  0
  8  9  1  0
  7  3  1  0
  2 10  1  0
  3 11  1  0
  4 12  1  0
  5 13  1  0
  5 14  1  0
  6 15  1  0
  7 16  1  0
  8 17  1  0
  8 18  1  0
  9 19  1  0
M  END
