
     RDKit          3D

 19 19  0  0  0  0  0  0  0  0999 V2000
    2.3329    0.1797    1.5476 O   0  0  0  0  0  0  0  0  0  0  0  0
    2.6642    0.2038    0.3765 C   0  0  0  0  0  0  0  0  0  0  0  0
    1.7251   -0.0239   -0.7440 C   0  0  0  0  0  0  0  0  0  0  0  0
    0.3417   -0.2831   -0.2683 C   0  0  0  0  0  0  0  0  0  0  0  0
   -0.3869   -1.3617   -0.4759 C   0  0  0  0  0  0  0  0  0  0  0  0
   -1.6921   -1.1715    0.1861 C   0  0  0  0  0  0  0  0  0  0  0  0
   -1.8439    0.3215    0.1883 C   0  0  0  0  0  0  0  0  0  0  0  0
   -0.4236    0.7339    0.5444 C   0  0  0  0  0  0  0  0  0  0  0  0
   -0.1815    2.0172    0.0787 O   0  0  0  0  0  0  0  0  0  0  0  0
    3.6942    0.4011    0.1421 H   0  0  0  0  0  0  0  0  0  0  0  0
    1.7455    0.9161   -1.3644 H   0  0  0  0  0  0  0  0  0  0  0  0
    2.0908   -0.8341   -1.3947 H   0  0  0  0  0  0  0  0  0  0  0  0
   -0.0837   -2.2602   -1.0460 H   0  0  0  0  0  0  0  0  0  0  0  0
   -2.5330   -1.6048   -0.3918 H   0  0  0  0  0  0  0  0  0  0  0  0
   -1.6507   -1.5646    1.2247 H   0  0  0  0  0  0  0  0  0  0  0  0
   -2.0146    0.6465   -0.8587 H   0  0  0  0  0  0  0  0  0  0  0  0
   -2.5867    0.6951    0.9020 H   0  0  0  0  0  0  0  0  0  0  0  0
   -0.1745    0.5735    1.5920 H   0  0  0  0  0  0  0  0  0  0  0  0
   -1.0232    2.4155   -0.2384 H   0  0  0  0  0  0  0  0  0  0  0  0
  1  2  2  0
  2  3  1  0
  3  4  1  0
  4  5  2  0
  5  6  1  0
  6  7  1  0
  7  8  1  0
  8  9  1  0
  8  4  1  0
  2 10  1  0
  3 11  1  0
  3 12  1  0
  5 13  1  0
  6 14  1  0
  6 15  1  0
  7 16  1  0
  7 17  1  0
  8 18  1  0
  9 19  1  0
M  END
