
     RDKit          3D

 16 16  0  0  0  0  0  0  0  0999 V2000
    1.9207    0.9053    1.2777 O   0  0  0  0  0  0  0  0  0  0  0  0
    2.1020    0.8034    0.0862 C   0  0  0  0  0  0  0  0  0  0  0  0
    1.7843   -0.4746   -0.5820 C   0  0  0  0  0  0  0  0  0  0  0  0
    0.3615   -0.8508   -0.2799 C   0  0  0  0  0  0  0  0  0  0  0  0
    0.0833   -1.0116    1.0776 O   0  0  0  0  0  0  0  0  0  0  0  0
   -0.5568    0.0519    0.3359 C   0  0  0  0  0  0  0  0  0  0  0  0
   -2.0405   -0.1327    0.2403 C   0  0  0  0  0  0  0  0  0  0  0  0
   -2.6374    0.9170   -0.4955 O   0  0  0  0  0  0  0  0  0  0  0  0
    2.4871    1.6144   -0.4995 H   0  0  0  0  0  0  0  0  0  0  0  0
    2.4488   -1.2667   -0.1333 H   0  0  0  0  0  0  0  0  0  0  0  0
    1.9856   -0.4586   -1.6779 H   0  0  0  0  0  0  0  0  0  0  0  0
   -0.0392   -1.5936   -1.0116 H   0  0  0  0  0  0  0  0  0  0  0  0
   -0.2582    1.0845    0.5840 H   0  0  0  0  0  0  0  0  0  0  0  0
   -2.5765   -0.1593    1.2008 H   0  0  0  0  0  0  0  0  0  0  0  0
   -2.3137   -1.0811   -0.2960 H   0  0  0  0  0  0  0  0  0  0  0  0
   -2.7509    1.6525    0.1732 H   0  0  0  0  0  0  0  0  0  0  0  0
  1  2  2  0
  2  3  1  0
  3  4  1  0
  4  5  1  0
  5  6  1  0
  6  7  1  0
  7  8  1  0
  6  4  1  0
  2  9  1  0
  3 10  1  0
  3 11  1  0
  4 12  1  0
  6 13  1  0
  7 14  1  0
  7 15  1  0
  8 16  1  0
M  END
