
     RDKit          3D

 19 19  0  0  0  0  0  0  0  0999 V2000
    3.6104    0.9169   -0.3016 O   0  0  0  0  0  0  0  0  0  0  0  0
    2.4146    0.8329   -0.1316 C   0  0  0  0  0  0  0  0  0  0  0  0
    1.8346   -0.3466    0.5030 C   0  0  0  0  0  0  0  0  0  0  0  0
    0.5241   -0.7731   -0.1035 C   0  0  0  0  0  0  0  0  0  0  0  0
    0.7473   -1.0751   -1.4688 O   0  0  0  0  0  0  0  0  0  0  0  0
   -0.5131    0.2927   -0.1052 C   0  0  0  0  0  0  0  0  0  0  0  0
   -1.8852   -0.3115   -0.3076 C   0  0  0  0  0  0  0  0  0  0  0  0
   -2.2268    0.9075    0.5141 C   0  0  0  0  0  0  0  0  0  0  0  0
   -0.9533    0.7913    1.1055 O   0  0  0  0  0  0  0  0  0  0  0  0
    1.8114    1.6667   -0.4693 H   0  0  0  0  0  0  0  0  0  0  0  0
    1.7668   -0.2461    1.6089 H   0  0  0  0  0  0  0  0  0  0  0  0
    2.5501   -1.2008    0.3281 H   0  0  0  0  0  0  0  0  0  0  0  0
    0.1570   -1.6603    0.4360 H   0  0  0  0  0  0  0  0  0  0  0  0
    0.1610   -1.8676   -1.6587 H   0  0  0  0  0  0  0  0  0  0  0  0
   -0.3718    1.1147   -0.8426 H   0  0  0  0  0  0  0  0  0  0  0  0
   -2.1900   -0.2836   -1.3735 H   0  0  0  0  0  0  0  0  0  0  0  0
   -2.0338   -1.2451    0.2239 H   0  0  0  0  0  0  0  0  0  0  0  0
   -2.3284    1.7927   -0.1431 H   0  0  0  0  0  0  0  0  0  0  0  0
   -3.0747    0.6945    1.1877 H   0  0  0  0  0  0  0  0  0  0  0  0
  1  2  2  0
  2  3  1  0
  3  4  1  0
  4  5  1  0
  4  6  1  0
  6  7  1  0
  7  8  1  0
  8  9  1  0
  9  6  1  0
  2 10  1  0
  3 11  1  0
  3 12  1  0
  4 13  1  0
  5 14  1  0
  6 15  1  0
  7 16  1  0
  7 17  1  0
  8 18  1  0
  8 19  1  0
M  END
