
     RDKit          3D

 13 14  0  0  0  0  0  0  0  0999 V2000
    2.5206    0.0160   -1.1983 O   0  0  0  0  0  0  0  0  0  0  0  0
    1.7614   -0.3569   -0.3395 C   0  0  0  0  0  0  0  0  0  0  0  0
    0.3318   -0.0918   -0.4413 C   0  0  0  0  0  0  0  0  0  0  0  0
   -0.2092    0.5878   -1.5090 O   0  0  0  0  0  0  0  0  0  0  0  0
   -0.2248    1.2673   -0.3207 C   0  0  0  0  0  0  0  0  0  0  0  0
   -1.0282    0.8329    0.8249 C   0  0  0  0  0  0  0  0  0  0  0  0
   -1.7292    1.3403    1.6728 O   0  0  0  0  0  0  0  0  0  0  0  0
   -0.6454   -0.6016    0.5602 C   0  0  0  0  0  0  0  0  0  0  0  0
   -1.7058   -1.2484   -0.1092 O   0  0  0  0  0  0  0  0  0  0  0  0
    2.1520   -0.8889    0.5049 H   0  0  0  0  0  0  0  0  0  0  0  0
    0.4013    2.1718   -0.2850 H   0  0  0  0  0  0  0  0  0  0  0  0
   -0.2633   -1.1424    1.4284 H   0  0  0  0  0  0  0  0  0  0  0  0
   -1.3611   -1.8861   -0.7882 H   0  0  0  0  0  0  0  0  0  0  0  0
  1  2  2  0
  2  3  1  0
  3  4  1  0
  4  5  1  0
  5  6  1  0
  6  7  2  0
  6  8  1  0
  8  9  1  0
  5  3  1  0
  8  3  1  0
  2 10  1  0
  5 11  1  0
  8 12  1  0
  9 13  1  0
M  END
