
     RDKit          3D

 17 17  0  0  0  0  0  0  0  0999 V2000
   -3.1797   -0.6695   -0.1671 O   0  0  0  0  0  0  0  0  0  0  0  0
   -2.3396    0.0165    0.3646 C   0  0  0  0  0  0  0  0  0  0  0  0
   -1.0954    0.3358   -0.3248 C   0  0  0  0  0  0  0  0  0  0  0  0
   -0.2377   -0.9290   -0.4723 C   0  0  0  0  0  0  0  0  0  0  0  0
    0.9682    0.0001   -0.2774 C   0  0  0  0  0  0  0  0  0  0  0  0
    1.3654    0.5955   -1.4463 O   0  0  0  0  0  0  0  0  0  0  0  0
    1.9799   -0.6624    0.5319 C   0  0  0  0  0  0  0  0  0  0  0  0
    1.6886   -1.2055    1.5743 O   0  0  0  0  0  0  0  0  0  0  0  0
    0.0142    0.9193    0.4944 C   0  0  0  0  0  0  0  0  0  0  0  0
   -2.5174    0.3917    1.3550 H   0  0  0  0  0  0  0  0  0  0  0  0
   -1.1793    0.8318   -1.3116 H   0  0  0  0  0  0  0  0  0  0  0  0
   -0.3733   -1.6430    0.3449 H   0  0  0  0  0  0  0  0  0  0  0  0
   -0.3184   -1.3558   -1.4830 H   0  0  0  0  0  0  0  0  0  0  0  0
    1.9685    1.3554   -1.2563 H   0  0  0  0  0  0  0  0  0  0  0  0
    3.0085   -0.6815    0.2172 H   0  0  0  0  0  0  0  0  0  0  0  0
   -0.0034    0.7154    1.5682 H   0  0  0  0  0  0  0  0  0  0  0  0
    0.2510    1.9851    0.2883 H   0  0  0  0  0  0  0  0  0  0  0  0
  1  2  2  0
  2  3  1  0
  3  4  1  0
  4  5  1  0
  5  6  1  0
  5  7  1  0
  7  8  2  0
  5  9  1  0
  9  3  1  0
  2 10  1  0
  3 11  1  0
  4 12  1  0
  4 13  1  0
  6 14  1  0
  7 15  1  0
  9 16  1  0
  9 17  1  0
M  END
