
     RDKit          3D

 15 15  0  0  0  0  0  0  0  0999 V2000
   -1.8689    1.5431    0.5083 O   0  0  0  0  0  0  0  0  0  0  0  0
   -1.9410    0.3659    0.0530 C   0  0  0  0  0  0  0  0  0  0  0  0
   -0.7786   -0.4522   -0.2069 C   0  0  0  0  0  0  0  0  0  0  0  0
   -0.6040   -1.5492    0.7626 O   0  0  0  0  0  0  0  0  0  0  0  0
    0.5664    0.2055   -0.2357 C   0  0  0  0  0  0  0  0  0  0  0  0
    0.7687    1.4788    0.4457 C   0  0  0  0  0  0  0  0  0  0  0  0
    1.7482    1.4808    1.2321 O   0  0  0  0  0  0  0  0  0  0  0  0
    1.7658   -0.6712   -0.4336 C   0  0  0  0  0  0  0  0  0  0  0  0
    1.2159    0.0819   -1.4712 O   0  0  0  0  0  0  0  0  0  0  0  0
   -2.9685   -0.0005   -0.1614 H   0  0  0  0  0  0  0  0  0  0  0  0
   -0.9560   -0.9797   -1.1397 H   0  0  0  0  0  0  0  0  0  0  0  0
   -1.5936   -1.7559    0.9770 H   0  0  0  0  0  0  0  0  0  0  0  0
    0.2220    2.3930    0.3667 H   0  0  0  0  0  0  0  0  0  0  0  0
    1.6575   -1.7827   -0.5129 H   0  0  0  0  0  0  0  0  0  0  0  0
    2.7662   -0.3576   -0.1839 H   0  0  0  0  0  0  0  0  0  0  0  0
  1  2  2  0
  2  3  1  0
  3  4  1  0
  3  5  1  0
  5  6  1  0
  6  7  2  0
  5  8  1  0
  8  9  1  0
  9  5  1  0
  2 10  1  0
  3 11  1  0
  4 12  1  0
  6 13  1  0
  8 14  1  0
  8 15  1  0
M  END
