
     RDKit          3D

 17 18  0  0  0  0  0  0  0  0999 V2000
    3.2131    1.5880   -0.3575 O   0  0  0  0  0  0  0  0  0  0  0  0
    2.8089    0.6041    0.2301 C   0  0  0  0  0  0  0  0  0  0  0  0
    1.4837    0.0644   -0.1327 C   0  0  0  0  0  0  0  0  0  0  0  0
    1.1851   -1.0701    0.6488 O   0  0  0  0  0  0  0  0  0  0  0  0
   -0.1352   -1.3201    0.2051 C   0  0  0  0  0  0  0  0  0  0  0  0
   -0.6654    0.0842    0.0927 C   0  0  0  0  0  0  0  0  0  0  0  0
   -1.7427    0.4667   -0.8070 C   0  0  0  0  0  0  0  0  0  0  0  0
   -1.9669    0.3721    0.6990 C   0  0  0  0  0  0  0  0  0  0  0  0
    0.4374    0.9121    0.2405 O   0  0  0  0  0  0  0  0  0  0  0  0
    3.4069    0.1319    1.0039 H   0  0  0  0  0  0  0  0  0  0  0  0
    1.4106   -0.2439   -1.1938 H   0  0  0  0  0  0  0  0  0  0  0  0
   -0.0485   -1.8288   -0.7551 H   0  0  0  0  0  0  0  0  0  0  0  0
   -0.7129   -1.8780    0.9563 H   0  0  0  0  0  0  0  0  0  0  0  0
   -2.3674   -0.2182   -1.3862 H   0  0  0  0  0  0  0  0  0  0  0  0
   -1.7020    1.5093   -1.2284 H   0  0  0  0  0  0  0  0  0  0  0  0
   -2.5717   -0.5016    1.0772 H   0  0  0  0  0  0  0  0  0  0  0  0
   -2.0330    1.3280    1.2783 H   0  0  0  0  0  0  0  0  0  0  0  0
  1  2  2  0
  2  3  1  0
  3  4  1  0
  4  5  1  0
  5  6  1  0
  6  7  1  0
  7  8  1  0
  6  9  1  0
  9  3  1  0
  8  6  1  0
  2 10  1  0
  3 11  1  0
  5 12  1  0
  5 13  1  0
  7 14  1  0
  7 15  1  0
  8 16  1  0
  8 17  1  0
M  END
