
     RDKit          3D

 19 20  0  0  0  0  0  0  0  0999 V2000
    2.4698    0.3040    1.9840 O   0  0  0  0  0  0  0  0  0  0  0  0
    2.1666    0.3238    0.8217 C   0  0  0  0  0  0  0  0  0  0  0  0
    0.7898    0.1258    0.3891 C   0  0  0  0  0  0  0  0  0  0  0  0
   -0.2523    0.0535    1.4193 C   0  0  0  0  0  0  0  0  0  0  0  0
   -1.4918   -0.1624    1.0108 C   0  0  0  0  0  0  0  0  0  0  0  0
   -1.7651   -0.3338   -0.4364 C   0  0  0  0  0  0  0  0  0  0  0  0
   -0.5244   -0.0531   -1.2221 C   0  0  0  0  0  0  0  0  0  0  0  0
    0.5785   -0.9593   -0.6784 C   0  0  0  0  0  0  0  0  0  0  0  0
    0.2764    1.1114   -0.6686 C   0  0  0  0  0  0  0  0  0  0  0  0
    2.9285    0.4922    0.0689 H   0  0  0  0  0  0  0  0  0  0  0  0
    0.0088    0.1743    2.4533 H   0  0  0  0  0  0  0  0  0  0  0  0
   -2.3113   -0.2177    1.6984 H   0  0  0  0  0  0  0  0  0  0  0  0
   -1.9930   -1.4318   -0.5760 H   0  0  0  0  0  0  0  0  0  0  0  0
   -2.6442    0.2371   -0.7767 H   0  0  0  0  0  0  0  0  0  0  0  0
   -0.6151   -0.0358   -2.3097 H   0  0  0  0  0  0  0  0  0  0  0  0
    1.4377   -1.0678   -1.3375 H   0  0  0  0  0  0  0  0  0  0  0  0
    0.1879   -1.9146   -0.2541 H   0  0  0  0  0  0  0  0  0  0  0  0
    1.0701    1.4287   -1.3401 H   0  0  0  0  0  0  0  0  0  0  0  0
   -0.3169    1.9255   -0.2459 H   0  0  0  0  0  0  0  0  0  0  0  0
  1  2  2  0
  2  3  1  0
  3  4  1  0
  4  5  2  0
  5  6  1  0
  6  7  1  0
  7  8  1  0
  7  9  1  0
  8  3  1  0
  9  3  1  0
  2 10  1  0
  4 11  1  0
  5 12  1  0
  6 13  1  0
  6 14  1  0
  7 15  1  0
  8 16  1  0
  8 17  1  0
  9 18  1  0
  9 19  1  0
M  END
