
     RDKit          3D

 15 15  0  0  0  0  0  0  0  0999 V2000
    3.1456    0.4425    0.7136 O   0  0  0  0  0  0  0  0  0  0  0  0
    2.4110   -0.3505    0.1219 C   0  0  0  0  0  0  0  0  0  0  0  0
    1.3180    0.1027   -0.7661 C   0  0  0  0  0  0  0  0  0  0  0  0
    0.1265    0.4839    0.0768 C   0  0  0  0  0  0  0  0  0  0  0  0
   -0.9447    0.9149   -0.6432 O   0  0  0  0  0  0  0  0  0  0  0  0
   -2.0682    0.1914   -0.3146 C   0  0  0  0  0  0  0  0  0  0  0  0
   -1.6984   -0.5432    0.9260 C   0  0  0  0  0  0  0  0  0  0  0  0
   -2.4803   -0.9847    1.8243 O   0  0  0  0  0  0  0  0  0  0  0  0
   -0.3098   -0.6303    0.8688 O   0  0  0  0  0  0  0  0  0  0  0  0
    2.5949   -1.4080    0.2771 H   0  0  0  0  0  0  0  0  0  0  0  0
    1.6537    1.0010   -1.2933 H   0  0  0  0  0  0  0  0  0  0  0  0
    1.0402   -0.7275   -1.4375 H   0  0  0  0  0  0  0  0  0  0  0  0
    0.4411    1.2481    0.8074 H   0  0  0  0  0  0  0  0  0  0  0  0
   -2.2829   -0.5672   -1.0814 H   0  0  0  0  0  0  0  0  0  0  0  0
   -2.9465    0.8269   -0.0800 H   0  0  0  0  0  0  0  0  0  0  0  0
  1  2  2  0
  2  3  1  0
  3  4  1  0
  4  5  1  0
  5  6  1  0
  6  7  1  0
  7  8  2  0
  7  9  1  0
  9  4  1  0
  2 10  1  0
  3 11  1  0
  3 12  1  0
  4 13  1  0
  6 14  1  0
  6 15  1  0
M  END
