
     RDKit          3D

 19 20  0  0  0  0  0  0  0  0999 V2000
    2.9734   -0.9914   -0.5668 O   0  0  0  0  0  0  0  0  0  0  0  0
    1.8677   -0.8777   -0.0902 C   0  0  0  0  0  0  0  0  0  0  0  0
    0.8223   -0.0012   -0.6669 C   0  0  0  0  0  0  0  0  0  0  0  0
    1.0047    1.4199   -0.1202 C   0  0  0  0  0  0  0  0  0  0  0  0
   -0.2042    1.1803    0.7961 C   0  0  0  0  0  0  0  0  0  0  0  0
   -0.4751   -0.0364    0.0280 C   0  0  0  0  0  0  0  0  0  0  0  0
   -1.7233   -0.1929   -0.7253 C   0  0  0  0  0  0  0  0  0  0  0  0
   -2.2699   -0.8624    0.3916 O   0  0  0  0  0  0  0  0  0  0  0  0
   -0.9440   -1.2656    0.6787 C   0  0  0  0  0  0  0  0  0  0  0  0
    1.6373   -1.4456    0.7996 H   0  0  0  0  0  0  0  0  0  0  0  0
    0.8066    0.0550   -1.7783 H   0  0  0  0  0  0  0  0  0  0  0  0
    1.9444    1.5898    0.4017 H   0  0  0  0  0  0  0  0  0  0  0  0
    0.8105    2.2165   -0.8541 H   0  0  0  0  0  0  0  0  0  0  0  0
   -0.9889    1.9552    0.6431 H   0  0  0  0  0  0  0  0  0  0  0  0
    0.1338    1.0891    1.8295 H   0  0  0  0  0  0  0  0  0  0  0  0
   -1.6160   -0.9492   -1.5464 H   0  0  0  0  0  0  0  0  0  0  0  0
   -2.3159    0.6785   -0.9911 H   0  0  0  0  0  0  0  0  0  0  0  0
   -0.7384   -2.1686    0.0318 H   0  0  0  0  0  0  0  0  0  0  0  0
   -0.7249   -1.3933    1.7391 H   0  0  0  0  0  0  0  0  0  0  0  0
  1  2  2  0
  2  3  1  0
  3  4  1  0
  4  5  1  0
  5  6  1  0
  6  7  1  0
  7  8  1  0
  8  9  1  0
  6  3  1  0
  9  6  1  0
  2 10  1  0
  3 11  1  0
  4 12  1  0
  4 13  1  0
  5 14  1  0
  5 15  1  0
  7 16  1  0
  7 17  1  0
  9 18  1  0
  9 19  1  0
M  END
