
     RDKit          3D

 11 10  0  0  0  0  0  0  0  0999 V2000
   -1.7126    1.2715   -0.0939 O   0  0  0  0  0  0  0  0  0  0  0  0
   -1.6036    0.0634   -0.0092 C   0  0  0  0  0  0  0  0  0  0  0  0
   -0.2437   -0.5245    0.0547 C   0  0  0  0  0  0  0  0  0  0  0  0
    0.8022    0.5481   -0.0009 C   0  0  0  0  0  0  0  0  0  0  0  0
    2.0878    0.0744    0.0540 O   0  0  0  0  0  0  0  0  0  0  0  0
   -2.4988   -0.5477    0.0171 H   0  0  0  0  0  0  0  0  0  0  0  0
   -0.1057   -1.1814    0.9351 H   0  0  0  0  0  0  0  0  0  0  0  0
   -0.1669   -1.2148   -0.8349 H   0  0  0  0  0  0  0  0  0  0  0  0
    0.6224    1.2037   -0.8706 H   0  0  0  0  0  0  0  0  0  0  0  0
    0.6490    1.1929    0.9005 H   0  0  0  0  0  0  0  0  0  0  0  0
    2.1699   -0.8857   -0.1517 H   0  0  0  0  0  0  0  0  0  0  0  0
  1  2  2  0
  2  3  1  0
  3  4  1  0
  4  5  1  0
  2  6  1  0
  3  7  1  0
  3  8  1  0
  4  9  1  0
  4 10  1  0
  5 11  1  0
M  END
