
     RDKit          3D

 17 18  0  0  0  0  0  0  0  0999 V2000
   -2.8645    0.6541    0.0763 O   0  0  0  0  0  0  0  0  0  0  0  0
   -1.7848    0.4544    0.6549 C   0  0  0  0  0  0  0  0  0  0  0  0
   -0.6564    0.0610   -0.1661 C   0  0  0  0  0  0  0  0  0  0  0  0
   -0.8188   -1.0582   -1.1003 C   0  0  0  0  0  0  0  0  0  0  0  0
    0.1647   -1.1215    0.0086 C   0  0  0  0  0  0  0  0  0  0  0  0
    1.4028   -0.2885    0.0091 C   0  0  0  0  0  0  0  0  0  0  0  0
    1.9890   -0.1942    1.2860 O   0  0  0  0  0  0  0  0  0  0  0  0
    0.5566    0.9244   -0.3368 C   0  0  0  0  0  0  0  0  0  0  0  0
    0.6914    1.9812    0.5294 O   0  0  0  0  0  0  0  0  0  0  0  0
   -1.7946    0.5944    1.7157 H   0  0  0  0  0  0  0  0  0  0  0  0
   -1.7247   -1.6878   -0.9525 H   0  0  0  0  0  0  0  0  0  0  0  0
   -0.5010   -0.8645   -2.1507 H   0  0  0  0  0  0  0  0  0  0  0  0
    0.0737   -1.8714    0.7872 H   0  0  0  0  0  0  0  0  0  0  0  0
    2.1696   -0.5514   -0.7344 H   0  0  0  0  0  0  0  0  0  0  0  0
    1.7842   -1.0433    1.7485 H   0  0  0  0  0  0  0  0  0  0  0  0
    0.6968    1.1628   -1.4202 H   0  0  0  0  0  0  0  0  0  0  0  0
    0.6162    2.8486    0.0454 H   0  0  0  0  0  0  0  0  0  0  0  0
  1  2  2  0
  2  3  1  0
  3  4  1  0
  4  5  1  0
  5  6  1  0
  6  7  1  0
  6  8  1  0
  8  9  1  0
  5  3  1  0
  8  3  1  0
  2 10  1  0
  4 11  1  0
  4 12  1  0
  5 13  1  0
  6 14  1  0
  7 15  1  0
  8 16  1  0
  9 17  1  0
M  END
