
     RDKit          3D

 13 14  0  0  0  0  0  0  0  0999 V2000
    2.2698    0.5884   -0.7135 O   0  0  0  0  0  0  0  0  0  0  0  0
    1.4283   -0.2376   -0.9896 C   0  0  0  0  0  0  0  0  0  0  0  0
    0.3921   -0.5726   -0.0170 C   0  0  0  0  0  0  0  0  0  0  0  0
    0.3948    0.0051    1.3450 C   0  0  0  0  0  0  0  0  0  0  0  0
   -0.6608    0.3937    0.3752 C   0  0  0  0  0  0  0  0  0  0  0  0
   -0.7245    1.6679   -0.1439 O   0  0  0  0  0  0  0  0  0  0  0  0
   -1.5774   -0.6607   -0.0701 C   0  0  0  0  0  0  0  0  0  0  0  0
   -2.8403   -0.7531   -0.1423 O   0  0  0  0  0  0  0  0  0  0  0  0
   -0.5575   -1.5367   -0.3901 O   0  0  0  0  0  0  0  0  0  0  0  0
    1.4282   -0.7327   -1.9426 H   0  0  0  0  0  0  0  0  0  0  0  0
    0.0435   -0.5614    2.2265 H   0  0  0  0  0  0  0  0  0  0  0  0
    1.2460    0.6784    1.5723 H   0  0  0  0  0  0  0  0  0  0  0  0
   -0.8422    1.7213   -1.1099 H   0  0  0  0  0  0  0  0  0  0  0  0
  1  2  2  0
  2  3  1  0
  3  4  1  0
  4  5  1  0
  5  6  1  0
  5  7  1  0
  7  8  2  0
  7  9  1  0
  5  3  1  0
  9  3  1  0
  2 10  1  0
  4 11  1  0
  4 12  1  0
  6 13  1  0
M  END
