
     RDKit          3D

 16 17  0  0  0  0  0  0  0  0999 V2000
   -2.6422   -0.9834   -0.2827 O   0  0  0  0  0  0  0  0  0  0  0  0
   -1.4745   -1.2704   -0.4855 C   0  0  0  0  0  0  0  0  0  0  0  0
   -0.4490   -0.2467   -0.1536 C   0  0  0  0  0  0  0  0  0  0  0  0
    0.9631   -0.6751   -0.4318 C   0  0  0  0  0  0  0  0  0  0  0  0
    2.0919    0.1625   -0.1801 C   0  0  0  0  0  0  0  0  0  0  0  0
    1.7271   -0.6970    0.8467 O   0  0  0  0  0  0  0  0  0  0  0  0
   -0.7523    0.5412    1.0672 C   0  0  0  0  0  0  0  0  0  0  0  0
   -0.8545    1.1705   -0.3256 C   0  0  0  0  0  0  0  0  0  0  0  0
   -1.1722   -2.2068   -0.8827 H   0  0  0  0  0  0  0  0  0  0  0  0
    1.1261   -1.6308   -0.9959 H   0  0  0  0  0  0  0  0  0  0  0  0
    3.0682   -0.0983   -0.6621 H   0  0  0  0  0  0  0  0  0  0  0  0
    2.0208    1.2542    0.0203 H   0  0  0  0  0  0  0  0  0  0  0  0
   -1.7383    0.4384    1.5627 H   0  0  0  0  0  0  0  0  0  0  0  0
    0.0440    0.9026    1.7419 H   0  0  0  0  0  0  0  0  0  0  0  0
   -0.1170    1.9719   -0.5082 H   0  0  0  0  0  0  0  0  0  0  0  0
   -1.8413    1.3674   -0.7493 H   0  0  0  0  0  0  0  0  0  0  0  0
  1  2  2  0
  2  3  1  0
  3  4  1  0
  4  5  1  0
  5  6  1  0
  3  7  1  0
  7  8  1  0
  8  3  1  0
  6  4  1  0
  2  9  1  0
  4 10  1  0
  5 11  1  0
  5 12  1  0
  7 13  1  0
  7 14  1  0
  8 15  1  0
  8 16  1  0
M  END
