
     RDKit          3D

 17 18  0  0  0  0  0  0  0  0999 V2000
    1.9781   -1.5912    0.8380 O   0  0  0  0  0  0  0  0  0  0  0  0
    1.7386   -0.7447    0.0015 C   0  0  0  0  0  0  0  0  0  0  0  0
    0.5852    0.1924    0.0702 C   0  0  0  0  0  0  0  0  0  0  0  0
    0.9680    1.5965    0.3126 C   0  0  0  0  0  0  0  0  0  0  0  0
    0.8124    2.5028   -0.4799 O   0  0  0  0  0  0  0  0  0  0  0  0
   -0.5913   -0.2775    0.8674 C   0  0  0  0  0  0  0  0  0  0  0  0
   -0.7592   -1.3057   -0.2276 C   0  0  0  0  0  0  0  0  0  0  0  0
   -0.4715   -0.0262   -0.9702 C   0  0  0  0  0  0  0  0  0  0  0  0
   -1.4312    0.6100   -0.0078 C   0  0  0  0  0  0  0  0  0  0  0  0
    2.4028   -0.6559   -0.8584 H   0  0  0  0  0  0  0  0  0  0  0  0
    1.4209    1.8426    1.2641 H   0  0  0  0  0  0  0  0  0  0  0  0
   -0.6651   -0.4255    1.8489 H   0  0  0  0  0  0  0  0  0  0  0  0
   -1.8208   -1.6003   -0.3964 H   0  0  0  0  0  0  0  0  0  0  0  0
   -0.0107   -2.0932   -0.2832 H   0  0  0  0  0  0  0  0  0  0  0  0
   -0.4083    0.1022   -1.9567 H   0  0  0  0  0  0  0  0  0  0  0  0
   -1.3130    1.6800    0.1042 H   0  0  0  0  0  0  0  0  0  0  0  0
   -2.4349    0.1935   -0.1267 H   0  0  0  0  0  0  0  0  0  0  0  0
  1  2  2  0
  2  3  1  0
  3  4  1  0
  4  5  2  0
  3  6  1  0
  6  7  1  0
  7  8  1  0
  8  9  1  0
  8  3  1  0
  9  6  1  0
  2 10  1  0
  4 11  1  0
  6 12  1  0
  7 13  1  0
  7 14  1  0
  8 15  1  0
  9 16  1  0
  9 17  1  0
M  END
