
     RDKit          3D

 19 19  0  0  0  0  0  0  0  0999 V2000
    3.1552   -0.1455    0.6577 O   0  0  0  0  0  0  0  0  0  0  0  0
    2.4342    0.6096    0.0416 C   0  0  0  0  0  0  0  0  0  0  0  0
    1.1248    0.0859   -0.4326 C   0  0  0  0  0  0  0  0  0  0  0  0
    1.0004   -1.1772   -0.0648 O   0  0  0  0  0  0  0  0  0  0  0  0
   -0.1875   -1.7952    0.0475 C   0  0  0  0  0  0  0  0  0  0  0  0
   -1.4112   -0.9733   -0.0480 C   0  0  0  0  0  0  0  0  0  0  0  0
   -1.2528    0.4648    0.3173 C   0  0  0  0  0  0  0  0  0  0  0  0
    0.0544    1.0642   -0.1026 C   0  0  0  0  0  0  0  0  0  0  0  0
   -0.1522    1.9903   -1.1301 O   0  0  0  0  0  0  0  0  0  0  0  0
    2.7868    1.6203   -0.1266 H   0  0  0  0  0  0  0  0  0  0  0  0
    1.2160    0.1118   -1.5660 H   0  0  0  0  0  0  0  0  0  0  0  0
   -0.2405   -2.5781   -0.7638 H   0  0  0  0  0  0  0  0  0  0  0  0
   -0.1929   -2.4056    0.9949 H   0  0  0  0  0  0  0  0  0  0  0  0
   -1.8867   -1.0567   -1.0585 H   0  0  0  0  0  0  0  0  0  0  0  0
   -2.1850   -1.4036    0.6533 H   0  0  0  0  0  0  0  0  0  0  0  0
   -1.4568    0.5980    1.4030 H   0  0  0  0  0  0  0  0  0  0  0  0
   -2.0967    1.0216   -0.1909 H   0  0  0  0  0  0  0  0  0  0  0  0
    0.4082    1.6944    0.7616 H   0  0  0  0  0  0  0  0  0  0  0  0
   -1.1177    2.2744   -1.1489 H   0  0  0  0  0  0  0  0  0  0  0  0
  1  2  2  0
  2  3  1  0
  3  4  1  0
  4  5  1  0
  5  6  1  0
  6  7  1  0
  7  8  1  0
  8  9  1  0
  8  3  1  0
  2 10  1  0
  3 11  1  0
  5 12  1  0
  5 13  1  0
  6 14  1  0
  6 15  1  0
  7 16  1  0
  7 17  1  0
  8 18  1  0
  9 19  1  0
M  END
