
     RDKit          3D

 17 17  0  0  0  0  0  0  0  0999 V2000
    3.3422   -0.8772   -0.4636 O   0  0  0  0  0  0  0  0  0  0  0  0
    2.5398    0.0139   -0.0645 C   0  0  0  0  0  0  0  0  0  0  0  0
    1.1076   -0.1983   -0.0568 C   0  0  0  0  0  0  0  0  0  0  0  0
    0.5138   -1.3007   -0.4502 C   0  0  0  0  0  0  0  0  0  0  0  0
   -0.9392   -1.1330   -0.2911 C   0  0  0  0  0  0  0  0  0  0  0  0
   -1.1215    0.3584   -0.4172 C   0  0  0  0  0  0  0  0  0  0  0  0
   -2.2660    0.7590    0.2498 O   0  0  0  0  0  0  0  0  0  0  0  0
    0.1061    0.8166    0.3892 C   0  0  0  0  0  0  0  0  0  0  0  0
   -0.2003    0.7113    1.7278 O   0  0  0  0  0  0  0  0  0  0  0  0
    2.9476    0.9519    0.2764 H   0  0  0  0  0  0  0  0  0  0  0  0
    0.9841   -2.2217   -0.8411 H   0  0  0  0  0  0  0  0  0  0  0  0
   -1.5297   -1.6984   -1.0386 H   0  0  0  0  0  0  0  0  0  0  0  0
   -1.2238   -1.4118    0.7548 H   0  0  0  0  0  0  0  0  0  0  0  0
   -1.0675    0.6906   -1.4618 H   0  0  0  0  0  0  0  0  0  0  0  0
   -2.9251    1.1421   -0.3546 H   0  0  0  0  0  0  0  0  0  0  0  0
    0.3674    1.8209    0.0512 H   0  0  0  0  0  0  0  0  0  0  0  0
   -0.6354    1.5765    1.9903 H   0  0  0  0  0  0  0  0  0  0  0  0
  1  2  2  0
  2  3  1  0
  3  4  2  0
  4  5  1  0
  5  6  1  0
  6  7  1  0
  6  8  1  0
  8  9  1  0
  8  3  1  0
  2 10  1  0
  4 11  1  0
  5 12  1  0
  5 13  1  0
  6 14  1  0
  7 15  1  0
  8 16  1  0
  9 17  1  0
M  END
