
     RDKit          3D

 19 20  0  0  0  0  0  0  0  0999 V2000
    2.6971   -1.3065   -1.1804 O   0  0  0  0  0  0  0  0  0  0  0  0
    2.5577   -0.2780   -0.5086 C   0  0  0  0  0  0  0  0  0  0  0  0
    1.7371   -0.2351    0.7302 C   0  0  0  0  0  0  0  0  0  0  0  0
    0.2669   -0.1373    0.4304 C   0  0  0  0  0  0  0  0  0  0  0  0
   -0.1850    1.0785   -0.3598 C   0  0  0  0  0  0  0  0  0  0  0  0
   -1.7011    0.9857   -0.1396 C   0  0  0  0  0  0  0  0  0  0  0  0
   -1.8952   -0.5148   -0.3898 C   0  0  0  0  0  0  0  0  0  0  0  0
   -0.7026   -1.0896    0.3528 C   0  0  0  0  0  0  0  0  0  0  0  0
   -0.5155   -0.4382    1.6113 O   0  0  0  0  0  0  0  0  0  0  0  0
    3.0651    0.6199   -0.8565 H   0  0  0  0  0  0  0  0  0  0  0  0
    1.9664   -1.1440    1.3215 H   0  0  0  0  0  0  0  0  0  0  0  0
    2.1079    0.6218    1.3365 H   0  0  0  0  0  0  0  0  0  0  0  0
   -0.0273    0.9052   -1.4501 H   0  0  0  0  0  0  0  0  0  0  0  0
    0.2302    2.0154    0.0053 H   0  0  0  0  0  0  0  0  0  0  0  0
   -1.9656    1.1705    0.9046 H   0  0  0  0  0  0  0  0  0  0  0  0
   -2.2622    1.6046   -0.8351 H   0  0  0  0  0  0  0  0  0  0  0  0
   -1.9038   -0.7623   -1.4548 H   0  0  0  0  0  0  0  0  0  0  0  0
   -2.8036   -0.8951    0.1278 H   0  0  0  0  0  0  0  0  0  0  0  0
   -0.6664   -2.2008    0.3543 H   0  0  0  0  0  0  0  0  0  0  0  0
  1  2  2  0
  2  3  1  0
  3  4  1  0
  4  5  1  0
  5  6  1  0
  6  7  1  0
  7  8  1  0
  8  9  1  0
  8  4  1  0
  9  4  1  0
  2 10  1  0
  3 11  1  0
  3 12  1  0
  5 13  1  0
  5 14  1  0
  6 15  1  0
  6 16  1  0
  7 17  1  0
  7 18  1  0
  8 19  1  0
M  END
