
     RDKit          3D

 17 18  0  0  0  0  0  0  0  0999 V2000
    2.6718   -1.2597    0.0180 O   0  0  0  0  0  0  0  0  0  0  0  0
    2.6665   -0.0474    0.0767 C   0  0  0  0  0  0  0  0  0  0  0  0
    1.4378    0.7271   -0.2623 C   0  0  0  0  0  0  0  0  0  0  0  0
    1.0572    0.4306   -1.6843 O   0  0  0  0  0  0  0  0  0  0  0  0
    0.2215    0.1876   -0.6298 C   0  0  0  0  0  0  0  0  0  0  0  0
   -1.0767    0.8998   -0.4553 C   0  0  0  0  0  0  0  0  0  0  0  0
   -1.7304   -0.4461   -0.1792 C   0  0  0  0  0  0  0  0  0  0  0  0
   -2.2827   -0.5834    1.0775 O   0  0  0  0  0  0  0  0  0  0  0  0
   -0.3746   -1.1376   -0.3543 C   0  0  0  0  0  0  0  0  0  0  0  0
    3.6005    0.4259    0.3873 H   0  0  0  0  0  0  0  0  0  0  0  0
    1.5833    1.8286   -0.1628 H   0  0  0  0  0  0  0  0  0  0  0  0
   -1.1674    1.5515    0.4415 H   0  0  0  0  0  0  0  0  0  0  0  0
   -1.3910    1.3953   -1.3842 H   0  0  0  0  0  0  0  0  0  0  0  0
   -2.4625   -0.6809   -0.9643 H   0  0  0  0  0  0  0  0  0  0  0  0
   -2.2330    0.2257    1.6113 H   0  0  0  0  0  0  0  0  0  0  0  0
   -0.4091   -1.8607   -1.1987 H   0  0  0  0  0  0  0  0  0  0  0  0
   -0.1113   -1.6562    0.5704 H   0  0  0  0  0  0  0  0  0  0  0  0
  1  2  2  0
  2  3  1  0
  3  4  1  0
  4  5  1  0
  5  6  1  0
  6  7  1  0
  7  8  1  0
  7  9  1  0
  5  3  1  0
  9  5  1  0
  2 10  1  0
  3 11  1  0
  6 12  1  0
  6 13  1  0
  7 14  1  0
  8 15  1  0
  9 16  1  0
  9 17  1  0
M  END
