
     RDKit          3D

 19 19  0  0  0  0  0  0  0  0999 V2000
    3.1904   -1.0318   -0.8876 O   0  0  0  0  0  0  0  0  0  0  0  0
    2.7860   -0.2818   -0.0453 C   0  0  0  0  0  0  0  0  0  0  0  0
    1.3097   -0.2234    0.1955 C   0  0  0  0  0  0  0  0  0  0  0  0
    0.8317    1.1559    0.0825 C   0  0  0  0  0  0  0  0  0  0  0  0
   -0.4399    1.5676    0.0519 C   0  0  0  0  0  0  0  0  0  0  0  0
   -1.6862    0.8234    0.1169 C   0  0  0  0  0  0  0  0  0  0  0  0
   -1.6641   -0.5499   -0.4628 C   0  0  0  0  0  0  0  0  0  0  0  0
   -0.5661   -1.4221    0.0218 C   0  0  0  0  0  0  0  0  0  0  0  0
    0.6337   -1.1007   -0.6505 O   0  0  0  0  0  0  0  0  0  0  0  0
    3.4873    0.3252    0.5117 H   0  0  0  0  0  0  0  0  0  0  0  0
    1.1718   -0.6483    1.2328 H   0  0  0  0  0  0  0  0  0  0  0  0
    1.5432    1.9832    0.0121 H   0  0  0  0  0  0  0  0  0  0  0  0
   -0.5816    2.6614   -0.0382 H   0  0  0  0  0  0  0  0  0  0  0  0
   -2.0383    0.7528    1.1884 H   0  0  0  0  0  0  0  0  0  0  0  0
   -2.5001    1.3907   -0.4001 H   0  0  0  0  0  0  0  0  0  0  0  0
   -1.6000   -0.5009   -1.5839 H   0  0  0  0  0  0  0  0  0  0  0  0
   -2.6300   -1.0531   -0.2487 H   0  0  0  0  0  0  0  0  0  0  0  0
   -0.4270   -1.3690    1.1205 H   0  0  0  0  0  0  0  0  0  0  0  0
   -0.8202   -2.4791   -0.2172 H   0  0  0  0  0  0  0  0  0  0  0  0
  1  2  2  0
  2  3  1  0
  3  4  1  0
  4  5  2  0
  5  6  1  0
  6  7  1  0
  7  8  1  0
  8  9  1  0
  9  3  1  0
  2 10  1  0
  3 11  1  0
  4 12  1  0
  5 13  1  0
  6 14  1  0
  6 15  1  0
  7 16  1  0
  7 17  1  0
  8 18  1  0
  8 19  1  0
M  END
