
     RDKit          3D

 17 18  0  0  0  0  0  0  0  0999 V2000
   -3.2393   -0.0678    0.3901 O   0  0  0  0  0  0  0  0  0  0  0  0
   -2.0546   -0.1775    0.6604 C   0  0  0  0  0  0  0  0  0  0  0  0
   -1.0772   -0.2624   -0.4086 C   0  0  0  0  0  0  0  0  0  0  0  0
   -0.3694    1.0793   -0.6809 C   0  0  0  0  0  0  0  0  0  0  0  0
    1.0524    0.5119   -0.6596 C   0  0  0  0  0  0  0  0  0  0  0  0
    0.9365   -0.7662   -1.2278 O   0  0  0  0  0  0  0  0  0  0  0  0
    0.1478   -1.0686   -0.0899 C   0  0  0  0  0  0  0  0  0  0  0  0
    1.0924   -0.1700    0.6650 C   0  0  0  0  0  0  0  0  0  0  0  0
    2.3090   -0.7986    0.8761 O   0  0  0  0  0  0  0  0  0  0  0  0
   -1.8014   -0.2052    1.7137 H   0  0  0  0  0  0  0  0  0  0  0  0
   -1.4769   -0.5988   -1.3598 H   0  0  0  0  0  0  0  0  0  0  0  0
   -0.6393    1.4828   -1.6647 H   0  0  0  0  0  0  0  0  0  0  0  0
   -0.5194    1.7803    0.1592 H   0  0  0  0  0  0  0  0  0  0  0  0
    1.8434    1.1419   -0.9779 H   0  0  0  0  0  0  0  0  0  0  0  0
    0.0603   -2.0927    0.1859 H   0  0  0  0  0  0  0  0  0  0  0  0
    0.6646    0.3503    1.5214 H   0  0  0  0  0  0  0  0  0  0  0  0
    3.0711   -0.1388    0.8974 H   0  0  0  0  0  0  0  0  0  0  0  0
  1  2  2  0
  2  3  1  0
  3  4  1  0
  4  5  1  0
  5  6  1  0
  6  7  1  0
  7  8  1  0
  8  9  1  0
  7  3  1  0
  8  5  1  0
  2 10  1  0
  3 11  1  0
  4 12  1  0
  4 13  1  0
  5 14  1  0
  7 15  1  0
  8 16  1  0
  9 17  1  0
M  END
