
     RDKit          3D

 19 20  0  0  0  0  0  0  0  0999 V2000
    3.8244   -0.5088   -0.1796 O   0  0  0  0  0  0  0  0  0  0  0  0
    2.8632    0.1295    0.2542 C   0  0  0  0  0  0  0  0  0  0  0  0
    1.7051    0.3695   -0.6454 C   0  0  0  0  0  0  0  0  0  0  0  0
    0.5227   -0.4239   -0.1264 C   0  0  0  0  0  0  0  0  0  0  0  0
   -0.7757   -0.3915   -0.8296 C   0  0  0  0  0  0  0  0  0  0  0  0
   -2.0094   -0.8867   -0.1542 C   0  0  0  0  0  0  0  0  0  0  0  0
   -1.6318   -0.2558    1.1746 C   0  0  0  0  0  0  0  0  0  0  0  0
   -0.5356    0.4564    0.4508 C   0  0  0  0  0  0  0  0  0  0  0  0
   -0.5520    1.8176    0.2217 O   0  0  0  0  0  0  0  0  0  0  0  0
    2.9410    0.4760    1.2776 H   0  0  0  0  0  0  0  0  0  0  0  0
    1.9151   -0.0305   -1.6824 H   0  0  0  0  0  0  0  0  0  0  0  0
    1.4907    1.4631   -0.6854 H   0  0  0  0  0  0  0  0  0  0  0  0
    0.8122   -1.2825    0.5069 H   0  0  0  0  0  0  0  0  0  0  0  0
   -0.8201    0.1520   -1.7753 H   0  0  0  0  0  0  0  0  0  0  0  0
   -2.0651   -1.9853   -0.1484 H   0  0  0  0  0  0  0  0  0  0  0  0
   -2.9176   -0.3950   -0.5648 H   0  0  0  0  0  0  0  0  0  0  0  0
   -1.2501   -1.0422    1.8554 H   0  0  0  0  0  0  0  0  0  0  0  0
   -2.4195    0.3406    1.6592 H   0  0  0  0  0  0  0  0  0  0  0  0
   -1.0974    1.9974   -0.6089 H   0  0  0  0  0  0  0  0  0  0  0  0
  1  2  2  0
  2  3  1  0
  3  4  1  0
  4  5  1  0
  5  6  1  0
  6  7  1  0
  7  8  1  0
  8  9  1  0
  8  4  1  0
  8  5  1  0
  2 10  1  0
  3 11  1  0
  3 12  1  0
  4 13  1  0
  5 14  1  0
  6 15  1  0
  6 16  1  0
  7 17  1  0
  7 18  1  0
  9 19  1  0
M  END
