
     RDKit          3D

 15 15  0  0  0  0  0  0  0  0999 V2000
    2.7323    0.2311    0.6128 O   0  0  0  0  0  0  0  0  0  0  0  0
    1.5372    0.2802    0.8300 C   0  0  0  0  0  0  0  0  0  0  0  0
    0.6246   -0.2444   -0.2142 C   0  0  0  0  0  0  0  0  0  0  0  0
    1.3097   -0.7219   -1.3057 O   0  0  0  0  0  0  0  0  0  0  0  0
   -0.2706   -1.2737    0.4324 C   0  0  0  0  0  0  0  0  0  0  0  0
   -0.0543   -2.3293    0.9827 O   0  0  0  0  0  0  0  0  0  0  0  0
   -1.4835   -0.4748    0.1201 C   0  0  0  0  0  0  0  0  0  0  0  0
   -0.5978    0.5645   -0.4966 C   0  0  0  0  0  0  0  0  0  0  0  0
   -0.7064    1.7868    0.1280 O   0  0  0  0  0  0  0  0  0  0  0  0
    1.2227    0.7010    1.7649 H   0  0  0  0  0  0  0  0  0  0  0  0
    2.1523   -0.2258   -1.4633 H   0  0  0  0  0  0  0  0  0  0  0  0
   -2.1199   -1.0488   -0.5940 H   0  0  0  0  0  0  0  0  0  0  0  0
   -2.0444   -0.1516    1.0171 H   0  0  0  0  0  0  0  0  0  0  0  0
   -0.8094    0.6546   -1.5832 H   0  0  0  0  0  0  0  0  0  0  0  0
   -1.4926    2.2520   -0.2311 H   0  0  0  0  0  0  0  0  0  0  0  0
  1  2  2  0
  2  3  1  0
  3  4  1  0
  3  5  1  0
  5  6  2  0
  5  7  1  0
  7  8  1  0
  8  9  1  0
  8  3  1  0
  2 10  1  0
  4 11  1  0
  7 12  1  0
  7 13  1  0
  8 14  1  0
  9 15  1  0
M  END
