
     RDKit          3D

 19 21  0  0  0  0  0  0  0  0999 V2000
    2.4122    1.5421   -1.0201 O   0  0  0  0  0  0  0  0  0  0  0  0
    1.5137    1.4384   -0.1741 C   0  0  0  0  0  0  0  0  0  0  0  0
    0.7671    0.1891   -0.1233 C   0  0  0  0  0  0  0  0  0  0  0  0
    1.4944   -1.1082   -0.4534 C   0  0  0  0  0  0  0  0  0  0  0  0
    1.0228   -0.8583    0.9104 C   0  0  0  0  0  0  0  0  0  0  0  0
   -0.4672   -0.8748    1.2020 C   0  0  0  0  0  0  0  0  0  0  0  0
   -0.6704    0.0779    0.0930 C   0  0  0  0  0  0  0  0  0  0  0  0
   -1.7061    1.0440   -0.0555 C   0  0  0  0  0  0  0  0  0  0  0  0
   -1.6001   -0.1504   -1.0270 C   0  0  0  0  0  0  0  0  0  0  0  0
    1.3728    2.3069    0.4545 H   0  0  0  0  0  0  0  0  0  0  0  0
    2.5812   -1.0024   -0.6285 H   0  0  0  0  0  0  0  0  0  0  0  0
    0.9502   -1.7209   -1.1831 H   0  0  0  0  0  0  0  0  0  0  0  0
    1.7391   -0.6308    1.6943 H   0  0  0  0  0  0  0  0  0  0  0  0
   -0.7582   -0.5410    2.1994 H   0  0  0  0  0  0  0  0  0  0  0  0
   -0.9652   -1.8594    0.9685 H   0  0  0  0  0  0  0  0  0  0  0  0
   -2.6187    1.0080    0.5957 H   0  0  0  0  0  0  0  0  0  0  0  0
   -1.5622    2.0505   -0.4988 H   0  0  0  0  0  0  0  0  0  0  0  0
   -2.3149   -0.9721   -0.9132 H   0  0  0  0  0  0  0  0  0  0  0  0
   -1.1904    0.0613   -2.0407 H   0  0  0  0  0  0  0  0  0  0  0  0
  1  2  2  0
  2  3  1  0
  3  4  1  0
  4  5  1  0
  5  6  1  0
  6  7  1  0
  7  8  1  0
  8  9  1  0
  5  3  1  0
  9  7  1  0
  7  3  1  0
  2 10  1  0
  4 11  1  0
  4 12  1  0
  5 13  1  0
  6 14  1  0
  6 15  1  0
  8 16  1  0
  8 17  1  0
  9 18  1  0
  9 19  1  0
M  END
