
     RDKit          3D

 21 21  0  0  0  0  0  0  0  0999 V2000
    4.1529    0.6169   -0.2754 O   0  0  0  0  0  0  0  0  0  0  0  0
    3.6699   -0.4885   -0.1999 C   0  0  0  0  0  0  0  0  0  0  0  0
    2.2455   -0.6889    0.1504 C   0  0  0  0  0  0  0  0  0  0  0  0
    1.6150    0.6470    0.3649 C   0  0  0  0  0  0  0  0  0  0  0  0
    0.2820    0.5989    0.6986 O   0  0  0  0  0  0  0  0  0  0  0  0
   -0.5310    0.0050   -0.2254 C   0  0  0  0  0  0  0  0  0  0  0  0
   -1.9554    0.0470    0.3177 C   0  0  0  0  0  0  0  0  0  0  0  0
   -3.0488   -0.5485   -0.5189 C   0  0  0  0  0  0  0  0  0  0  0  0
   -2.9293    0.9377   -0.3289 C   0  0  0  0  0  0  0  0  0  0  0  0
    4.2866   -1.3467   -0.3909 H   0  0  0  0  0  0  0  0  0  0  0  0
    2.1783   -1.2550    1.1041 H   0  0  0  0  0  0  0  0  0  0  0  0
    1.7871   -1.2626   -0.6816 H   0  0  0  0  0  0  0  0  0  0  0  0
    2.1503    1.1356    1.2125 H   0  0  0  0  0  0  0  0  0  0  0  0
    1.8272    1.2806   -0.5235 H   0  0  0  0  0  0  0  0  0  0  0  0
   -0.2740   -1.0909   -0.2849 H   0  0  0  0  0  0  0  0  0  0  0  0
   -0.4911    0.4136   -1.2330 H   0  0  0  0  0  0  0  0  0  0  0  0
   -2.0609   -0.0516    1.4274 H   0  0  0  0  0  0  0  0  0  0  0  0
   -2.8039   -0.9071   -1.5480 H   0  0  0  0  0  0  0  0  0  0  0  0
   -3.8436   -1.0885    0.0184 H   0  0  0  0  0  0  0  0  0  0  0  0
   -3.7098    1.4723    0.2654 H   0  0  0  0  0  0  0  0  0  0  0  0
   -2.5467    1.5737   -1.1591 H   0  0  0  0  0  0  0  0  0  0  0  0
  1  2  2  0
  2  3  1  0
  3  4  1  0
  4  5  1  0
  5  6  1  0
  6  7  1  0
  7  8  1  0
  8  9  1  0
  9  7  1  0
  2 10  1  0
  3 11  1  0
  3 12  1  0
  4 13  1  0
  4 14  1  0
  6 15  1  0
  6 16  1  0
  7 17  1  0
  8 18  1  0
  8 19  1  0
  9 20  1  0
  9 21  1  0
M  END
