
     RDKit          3D

 14 15  0  0  0  0  0  0  0  0999 V2000
    2.8807   -0.4969    0.2674 O   0  0  0  0  0  0  0  0  0  0  0  0
    2.0463    0.4053   -0.0884 C   0  0  0  0  0  0  0  0  0  0  0  0
    0.6339    0.1773   -0.1570 C   0  0  0  0  0  0  0  0  0  0  0  0
   -0.2969    1.0339   -0.5084 C   0  0  0  0  0  0  0  0  0  0  0  0
   -1.5802    0.3701   -0.4352 C   0  0  0  0  0  0  0  0  0  0  0  0
   -2.3999   -0.0197    0.4947 O   0  0  0  0  0  0  0  0  0  0  0  0
   -1.2308   -0.4224    0.8700 C   0  0  0  0  0  0  0  0  0  0  0  0
   -0.0612   -1.0947    0.1918 C   0  0  0  0  0  0  0  0  0  0  0  0
    2.5088    1.3524   -0.3313 H   0  0  0  0  0  0  0  0  0  0  0  0
   -0.1051    2.0497   -0.7963 H   0  0  0  0  0  0  0  0  0  0  0  0
   -1.7003   -0.2827   -1.3640 H   0  0  0  0  0  0  0  0  0  0  0  0
   -0.8163    0.2164    1.7146 H   0  0  0  0  0  0  0  0  0  0  0  0
    0.5072   -1.7267    0.8776 H   0  0  0  0  0  0  0  0  0  0  0  0
   -0.3863   -1.5620   -0.7355 H   0  0  0  0  0  0  0  0  0  0  0  0
  1  2  2  0
  2  3  1  0
  3  4  2  0
  4  5  1  0
  5  6  1  0
  6  7  1  0
  7  8  1  0
  8  3  1  0
  7  5  1  0
  2  9  1  0
  4 10  1  0
  5 11  1  0
  7 12  1  0
  8 13  1  0
  8 14  1  0
M  END
