
     RDKit          3D

 15 16  0  0  0  0  0  0  0  0999 V2000
    3.3589   -0.1764    0.0431 O   0  0  0  0  0  0  0  0  0  0  0  0
    2.2022   -0.1948    0.4215 C   0  0  0  0  0  0  0  0  0  0  0  0
    1.0448    0.1349   -0.4601 C   0  0  0  0  0  0  0  0  0  0  0  0
   -0.1250   -0.6413   -0.4048 C   0  0  0  0  0  0  0  0  0  0  0  0
   -1.5519   -0.4712   -0.8116 C   0  0  0  0  0  0  0  0  0  0  0  0
   -2.0601   -0.0033    0.4601 O   0  0  0  0  0  0  0  0  0  0  0  0
   -0.9983    0.6390    1.1481 C   0  0  0  0  0  0  0  0  0  0  0  0
   -1.0412    0.8870    2.3753 O   0  0  0  0  0  0  0  0  0  0  0  0
   -0.0262    0.8612    0.1010 C   0  0  0  0  0  0  0  0  0  0  0  0
    2.0387   -0.4706    1.4644 H   0  0  0  0  0  0  0  0  0  0  0  0
    1.4120    0.3943   -1.4984 H   0  0  0  0  0  0  0  0  0  0  0  0
   -0.1231   -1.4205    0.4229 H   0  0  0  0  0  0  0  0  0  0  0  0
   -1.6801    0.2909   -1.5937 H   0  0  0  0  0  0  0  0  0  0  0  0
   -1.9722   -1.4582   -1.0608 H   0  0  0  0  0  0  0  0  0  0  0  0
   -0.4785    1.6291   -0.6070 H   0  0  0  0  0  0  0  0  0  0  0  0
  1  2  2  0
  2  3  1  0
  3  4  1  0
  4  5  1  0
  5  6  1  0
  6  7  1  0
  7  8  2  0
  7  9  1  0
  9  3  1  0
  9  4  1  0
  2 10  1  0
  3 11  1  0
  4 12  1  0
  5 13  1  0
  5 14  1  0
  9 15  1  0
M  END
