
     RDKit          3D

 15 15  0  0  0  0  0  0  0  0999 V2000
    2.5225    1.3609    0.8706 O   0  0  0  0  0  0  0  0  0  0  0  0
    2.1657    0.3763    0.2620 C   0  0  0  0  0  0  0  0  0  0  0  0
    0.7974    0.2330   -0.2158 C   0  0  0  0  0  0  0  0  0  0  0  0
    0.0426   -0.9038    0.4896 C   0  0  0  0  0  0  0  0  0  0  0  0
   -1.3721   -0.5954   -0.0189 C   0  0  0  0  0  0  0  0  0  0  0  0
   -1.2791    0.8551   -0.3521 C   0  0  0  0  0  0  0  0  0  0  0  0
   -0.0261    1.3047    0.0882 O   0  0  0  0  0  0  0  0  0  0  0  0
    2.8888   -0.4002    0.0791 H   0  0  0  0  0  0  0  0  0  0  0  0
    0.7184    0.0001   -1.2993 H   0  0  0  0  0  0  0  0  0  0  0  0
    0.0923   -0.8084    1.5832 H   0  0  0  0  0  0  0  0  0  0  0  0
    0.3923   -1.8820    0.1135 H   0  0  0  0  0  0  0  0  0  0  0  0
   -1.4561   -1.1861   -0.9760 H   0  0  0  0  0  0  0  0  0  0  0  0
   -2.1405   -0.8644    0.7042 H   0  0  0  0  0  0  0  0  0  0  0  0
   -2.0693    1.4673    0.1369 H   0  0  0  0  0  0  0  0  0  0  0  0
   -1.2768    1.0429   -1.4652 H   0  0  0  0  0  0  0  0  0  0  0  0
  1  2  2  0
  2  3  1  0
  3  4  1  0
  4  5  1  0
  5  6  1  0
  6  7  1  0
  7  3  1  0
  2  8  1  0
  3  9  1  0
  4 10  1  0
  4 11  1  0
  5 12  1  0
  5 13  1  0
  6 14  1  0
  6 15  1  0
M  END
