
     RDKit          3D

 16 15  0  0  0  0  0  0  0  0999 V2000
   -2.4442   -0.7834   -0.7419 O   0  0  0  0  0  0  0  0  0  0  0  0
   -2.2517   -0.1707    0.2815 C   0  0  0  0  0  0  0  0  0  0  0  0
   -1.0882    0.6962    0.4213 C   0  0  0  0  0  0  0  0  0  0  0  0
   -0.2058    0.7302   -0.8009 C   0  0  0  0  0  0  0  0  0  0  0  0
    0.3186   -0.4804   -1.1711 O   0  0  0  0  0  0  0  0  0  0  0  0
    1.0862   -1.0156   -0.1818 C   0  0  0  0  0  0  0  0  0  0  0  0
    2.2532   -0.2366    0.2442 C   0  0  0  0  0  0  0  0  0  0  0  0
    2.9475   -0.6868    1.1322 O   0  0  0  0  0  0  0  0  0  0  0  0
   -2.9540   -0.2757    1.0881 H   0  0  0  0  0  0  0  0  0  0  0  0
   -1.4397    1.7613    0.5565 H   0  0  0  0  0  0  0  0  0  0  0  0
   -0.4890    0.4365    1.2915 H   0  0  0  0  0  0  0  0  0  0  0  0
   -0.7539    1.1685   -1.6744 H   0  0  0  0  0  0  0  0  0  0  0  0
    0.6239    1.4296   -0.5799 H   0  0  0  0  0  0  0  0  0  0  0  0
    1.4629   -2.0085   -0.5325 H   0  0  0  0  0  0  0  0  0  0  0  0
    0.4641   -1.2640    0.7240 H   0  0  0  0  0  0  0  0  0  0  0  0
    2.4704    0.6995   -0.2262 H   0  0  0  0  0  0  0  0  0  0  0  0
  1  2  2  0
  2  3  1  0
  3  4  1  0
  4  5  1  0
  5  6  1  0
  6  7  1  0
  7  8  2  0
  2  9  1  0
  3 10  1  0
  3 11  1  0
  4 12  1  0
  4 13  1  0
  6 14  1  0
  6 15  1  0
  7 16  1  0
M  END
