
     RDKit          3D

 17 18  0  0  0  0  0  0  0  0999 V2000
    3.5370    0.2804   -0.4027 O   0  0  0  0  0  0  0  0  0  0  0  0
    2.4843    0.1374    0.1988 C   0  0  0  0  0  0  0  0  0  0  0  0
    1.1490    0.2102   -0.4314 C   0  0  0  0  0  0  0  0  0  0  0  0
    0.0284    0.6677    0.3886 C   0  0  0  0  0  0  0  0  0  0  0  0
   -1.4003    0.5485    0.0084 C   0  0  0  0  0  0  0  0  0  0  0  0
   -1.9728    1.5884   -0.6874 O   0  0  0  0  0  0  0  0  0  0  0  0
   -1.1662   -0.7227   -0.7666 C   0  0  0  0  0  0  0  0  0  0  0  0
    0.1721   -0.8267   -0.0553 C   0  0  0  0  0  0  0  0  0  0  0  0
    0.3681   -1.7438    0.9314 O   0  0  0  0  0  0  0  0  0  0  0  0
    2.5723   -0.0555    1.2705 H   0  0  0  0  0  0  0  0  0  0  0  0
    1.2038    0.4141   -1.5395 H   0  0  0  0  0  0  0  0  0  0  0  0
    0.2394    0.8747    1.4537 H   0  0  0  0  0  0  0  0  0  0  0  0
   -2.0428    0.3042    0.9024 H   0  0  0  0  0  0  0  0  0  0  0  0
   -1.8661    2.4193   -0.1737 H   0  0  0  0  0  0  0  0  0  0  0  0
   -1.8454   -1.5534   -0.5719 H   0  0  0  0  0  0  0  0  0  0  0  0
   -0.9758   -0.4811   -1.8388 H   0  0  0  0  0  0  0  0  0  0  0  0
   -0.4851   -2.0616    1.3136 H   0  0  0  0  0  0  0  0  0  0  0  0
  1  2  2  0
  2  3  1  0
  3  4  1  0
  4  5  1  0
  5  6  1  0
  5  7  1  0
  7  8  1  0
  8  9  1  0
  8  3  1  0
  8  4  1  0
  2 10  1  0
  3 11  1  0
  4 12  1  0
  5 13  1  0
  6 14  1  0
  7 15  1  0
  7 16  1  0
  9 17  1  0
M  END
