
     RDKit          3D

 17 18  0  0  0  0  0  0  0  0999 V2000
    0.9719    2.3504   -0.6314 O   0  0  0  0  0  0  0  0  0  0  0  0
    1.5558    1.4173   -0.1357 C   0  0  0  0  0  0  0  0  0  0  0  0
    0.7880    0.2546    0.2978 C   0  0  0  0  0  0  0  0  0  0  0  0
    1.2094   -1.1381    0.1131 C   0  0  0  0  0  0  0  0  0  0  0  0
    0.2548   -0.5848   -0.8444 C   0  0  0  0  0  0  0  0  0  0  0  0
   -1.2275   -0.6720   -0.6741 C   0  0  0  0  0  0  0  0  0  0  0  0
   -1.6077    0.2233    0.4843 C   0  0  0  0  0  0  0  0  0  0  0  0
   -0.3397    0.4935    1.2160 C   0  0  0  0  0  0  0  0  0  0  0  0
   -0.2936    0.8495    2.3764 O   0  0  0  0  0  0  0  0  0  0  0  0
    2.6192    1.4508   -0.0199 H   0  0  0  0  0  0  0  0  0  0  0  0
    2.2327   -1.3981   -0.2658 H   0  0  0  0  0  0  0  0  0  0  0  0
    0.8687   -1.8675    0.8782 H   0  0  0  0  0  0  0  0  0  0  0  0
    0.6337   -0.3884   -1.8797 H   0  0  0  0  0  0  0  0  0  0  0  0
   -1.7132   -0.2442   -1.5763 H   0  0  0  0  0  0  0  0  0  0  0  0
   -1.6071   -1.7001   -0.5643 H   0  0  0  0  0  0  0  0  0  0  0  0
   -1.9735    1.2173    0.1260 H   0  0  0  0  0  0  0  0  0  0  0  0
   -2.3718   -0.2634    1.0999 H   0  0  0  0  0  0  0  0  0  0  0  0
  1  2  2  0
  2  3  1  0
  3  4  1  0
  4  5  1  0
  5  6  1  0
  6  7  1  0
  7  8  1  0
  8  9  2  0
  5  3  1  0
  8  3  1  0
  2 10  1  0
  4 11  1  0
  4 12  1  0
  5 13  1  0
  6 14  1  0
  6 15  1  0
  7 16  1  0
  7 17  1  0
M  END
