
     RDKit          3D

 19 20  0  0  0  0  0  0  0  0999 V2000
    2.4445    1.0490    1.4307 O   0  0  0  0  0  0  0  0  0  0  0  0
    2.4741    0.4714    0.3565 C   0  0  0  0  0  0  0  0  0  0  0  0
    1.2216    0.0558   -0.3545 C   0  0  0  0  0  0  0  0  0  0  0  0
    0.7463   -1.2207    0.3222 C   0  0  0  0  0  0  0  0  0  0  0  0
   -0.7324   -1.2564   -0.0414 C   0  0  0  0  0  0  0  0  0  0  0  0
   -1.1271    0.1566   -0.2842 C   0  0  0  0  0  0  0  0  0  0  0  0
   -2.4195    0.7230   -0.1370 C   0  0  0  0  0  0  0  0  0  0  0  0
   -1.8993    0.4133   -1.4138 O   0  0  0  0  0  0  0  0  0  0  0  0
    0.0913    1.0130   -0.0239 C   0  0  0  0  0  0  0  0  0  0  0  0
    3.4264    0.2662   -0.0711 H   0  0  0  0  0  0  0  0  0  0  0  0
    1.3833   -0.0616   -1.4247 H   0  0  0  0  0  0  0  0  0  0  0  0
    0.8746   -1.0642    1.4135 H   0  0  0  0  0  0  0  0  0  0  0  0
    1.2730   -2.1140   -0.0249 H   0  0  0  0  0  0  0  0  0  0  0  0
   -1.3408   -1.7856    0.6878 H   0  0  0  0  0  0  0  0  0  0  0  0
   -0.7883   -1.8186   -1.0104 H   0  0  0  0  0  0  0  0  0  0  0  0
   -3.3648    0.1940    0.1228 H   0  0  0  0  0  0  0  0  0  0  0  0
   -2.5094    1.8242    0.0700 H   0  0  0  0  0  0  0  0  0  0  0  0
    0.1390    1.2323    1.0404 H   0  0  0  0  0  0  0  0  0  0  0  0
    0.1075    1.9222   -0.6581 H   0  0  0  0  0  0  0  0  0  0  0  0
  1  2  2  0
  2  3  1  0
  3  4  1  0
  4  5  1  0
  5  6  1  0
  6  7  1  0
  7  8  1  0
  6  9  1  0
  9  3  1  0
  8  6  1  0
  2 10  1  0
  3 11  1  0
  4 12  1  0
  4 13  1  0
  5 14  1  0
  5 15  1  0
  7 16  1  0
  7 17  1  0
  9 18  1  0
  9 19  1  0
M  END
