
     RDKit          3D

 15 15  0  0  0  0  0  0  0  0999 V2000
    2.5388   -0.8903   -0.4934 O   0  0  0  0  0  0  0  0  0  0  0  0
    1.5787   -0.3386   -0.9560 C   0  0  0  0  0  0  0  0  0  0  0  0
    0.3926    0.0795   -0.1851 C   0  0  0  0  0  0  0  0  0  0  0  0
    0.8601    1.0708    0.8492 C   0  0  0  0  0  0  0  0  0  0  0  0
    0.4010    2.1997    0.8838 O   0  0  0  0  0  0  0  0  0  0  0  0
   -0.2803   -1.0509    0.5342 C   0  0  0  0  0  0  0  0  0  0  0  0
   -1.5858   -0.9956    0.0417 O   0  0  0  0  0  0  0  0  0  0  0  0
   -1.7634    0.3029   -0.4154 C   0  0  0  0  0  0  0  0  0  0  0  0
   -0.5542    0.6885   -0.9723 O   0  0  0  0  0  0  0  0  0  0  0  0
    1.5824   -0.1316   -2.0198 H   0  0  0  0  0  0  0  0  0  0  0  0
    1.6158    0.7055    1.5378 H   0  0  0  0  0  0  0  0  0  0  0  0
    0.1532   -2.0370    0.3137 H   0  0  0  0  0  0  0  0  0  0  0  0
   -0.3453   -0.8948    1.6335 H   0  0  0  0  0  0  0  0  0  0  0  0
   -2.0246    1.0146    0.4128 H   0  0  0  0  0  0  0  0  0  0  0  0
   -2.5691    0.2773   -1.1648 H   0  0  0  0  0  0  0  0  0  0  0  0
  1  2  2  0
  2  3  1  0
  3  4  1  0
  4  5  2  0
  3  6  1  0
  6  7  1  0
  7  8  1  0
  8  9  1  0
  9  3  1  0
  2 10  1  0
  4 11  1  0
  6 12  1  0
  6 13  1  0
  8 14  1  0
  8 15  1  0
M  END
