
     RDKit          3D

 15 16  0  0  0  0  0  0  0  0999 V2000
   -1.9000    1.3098   -1.5164 O   0  0  0  0  0  0  0  0  0  0  0  0
   -1.1622    1.2465   -0.5399 C   0  0  0  0  0  0  0  0  0  0  0  0
   -0.6223   -0.0611   -0.1601 C   0  0  0  0  0  0  0  0  0  0  0  0
   -1.0192   -0.6953    1.1635 C   0  0  0  0  0  0  0  0  0  0  0  0
    0.3157   -1.0156    1.3745 O   0  0  0  0  0  0  0  0  0  0  0  0
    0.7092   -0.3575    0.2556 C   0  0  0  0  0  0  0  0  0  0  0  0
    1.9048    0.4739    0.1937 C   0  0  0  0  0  0  0  0  0  0  0  0
    2.5759    0.5714    1.2136 O   0  0  0  0  0  0  0  0  0  0  0  0
    0.2166   -0.8522   -1.1093 C   0  0  0  0  0  0  0  0  0  0  0  0
   -0.9661    2.1795   -0.0281 H   0  0  0  0  0  0  0  0  0  0  0  0
   -1.3798    0.0455    1.9000 H   0  0  0  0  0  0  0  0  0  0  0  0
   -1.6098   -1.6211    1.0706 H   0  0  0  0  0  0  0  0  0  0  0  0
    2.2581    1.0137   -0.6651 H   0  0  0  0  0  0  0  0  0  0  0  0
    0.5579   -0.2903   -1.9870 H   0  0  0  0  0  0  0  0  0  0  0  0
    0.1214   -1.9471   -1.1655 H   0  0  0  0  0  0  0  0  0  0  0  0
  1  2  2  0
  2  3  1  0
  3  4  1  0
  4  5  1  0
  5  6  1  0
  6  7  1  0
  7  8  2  0
  6  9  1  0
  6  3  1  0
  9  3  1  0
  2 10  1  0
  4 11  1  0
  4 12  1  0
  7 13  1  0
  9 14  1  0
  9 15  1  0
M  END
