
     RDKit          3D

 15 17  0  0  0  0  0  0  0  0999 V2000
    2.0107    1.4835    0.7834 O   0  0  0  0  0  0  0  0  0  0  0  0
    2.3488    0.3714    0.3686 C   0  0  0  0  0  0  0  0  0  0  0  0
    1.3119   -0.6705    0.0383 C   0  0  0  0  0  0  0  0  0  0  0  0
    0.4523   -0.8470    1.2132 O   0  0  0  0  0  0  0  0  0  0  0  0
    0.0128   -0.3216   -0.1064 C   0  0  0  0  0  0  0  0  0  0  0  0
   -0.7102    0.9626   -0.0092 C   0  0  0  0  0  0  0  0  0  0  0  0
   -1.9913    0.2247   -0.3710 C   0  0  0  0  0  0  0  0  0  0  0  0
   -2.3045   -0.9353    0.3135 O   0  0  0  0  0  0  0  0  0  0  0  0
   -1.2146   -1.0080   -0.5302 C   0  0  0  0  0  0  0  0  0  0  0  0
    3.4041    0.2047    0.2632 H   0  0  0  0  0  0  0  0  0  0  0  0
    1.7551   -1.6048   -0.3171 H   0  0  0  0  0  0  0  0  0  0  0  0
   -0.7325    1.4820    0.9524 H   0  0  0  0  0  0  0  0  0  0  0  0
   -0.4107    1.6730   -0.8091 H   0  0  0  0  0  0  0  0  0  0  0  0
   -2.6652    0.6311   -1.1257 H   0  0  0  0  0  0  0  0  0  0  0  0
   -1.2666   -1.6458   -1.4301 H   0  0  0  0  0  0  0  0  0  0  0  0
  1  2  2  0
  2  3  1  0
  3  4  1  0
  4  5  1  0
  5  6  1  0
  6  7  1  0
  7  8  1  0
  8  9  1  0
  5  3  1  0
  9  7  1  0
  9  5  1  0
  2 10  1  0
  3 11  1  0
  6 12  1  0
  6 13  1  0
  7 14  1  0
  9 15  1  0
M  END
