
     RDKit          3D

 19 20  0  0  0  0  0  0  0  0999 V2000
   -0.9006   -2.4110    1.0372 O   0  0  0  0  0  0  0  0  0  0  0  0
    0.0393   -1.7702    0.6279 C   0  0  0  0  0  0  0  0  0  0  0  0
   -0.0790   -0.3413    0.2675 C   0  0  0  0  0  0  0  0  0  0  0  0
    1.2233    0.4150    0.2241 C   0  0  0  0  0  0  0  0  0  0  0  0
    2.3040    0.0468   -0.6646 C   0  0  0  0  0  0  0  0  0  0  0  0
    1.4541    1.2188   -0.8774 O   0  0  0  0  0  0  0  0  0  0  0  0
   -0.9748   -0.1600   -0.9306 C   0  0  0  0  0  0  0  0  0  0  0  0
   -1.5624    1.0525   -0.2526 C   0  0  0  0  0  0  0  0  0  0  0  0
   -1.0954    0.4455    1.0775 C   0  0  0  0  0  0  0  0  0  0  0  0
    0.9950   -2.2492    0.5201 H   0  0  0  0  0  0  0  0  0  0  0  0
    1.5187    0.8095    1.2388 H   0  0  0  0  0  0  0  0  0  0  0  0
    3.3258    0.4101   -0.4267 H   0  0  0  0  0  0  0  0  0  0  0  0
    2.2168   -0.6518   -1.5068 H   0  0  0  0  0  0  0  0  0  0  0  0
   -0.5035   -0.0167   -1.8937 H   0  0  0  0  0  0  0  0  0  0  0  0
   -1.7303   -0.9791   -0.9765 H   0  0  0  0  0  0  0  0  0  0  0  0
   -1.0473    2.0097   -0.4867 H   0  0  0  0  0  0  0  0  0  0  0  0
   -2.6482    1.1058   -0.2712 H   0  0  0  0  0  0  0  0  0  0  0  0
   -1.8779   -0.1621    1.5635 H   0  0  0  0  0  0  0  0  0  0  0  0
   -0.6577    1.2277    1.7301 H   0  0  0  0  0  0  0  0  0  0  0  0
  1  2  2  0
  2  3  1  0
  3  4  1  0
  4  5  1  0
  5  6  1  0
  3  7  1  0
  7  8  1  0
  8  9  1  0
  9  3  1  0
  6  4  1  0
  2 10  1  0
  4 11  1  0
  5 12  1  0
  5 13  1  0
  7 14  1  0
  7 15  1  0
  8 16  1  0
  8 17  1  0
  9 18  1  0
  9 19  1  0
M  END
