
     RDKit          3D

 19 20  0  0  0  0  0  0  0  0999 V2000
    2.7965    1.3943    1.1027 O   0  0  0  0  0  0  0  0  0  0  0  0
    2.3704    0.3166    0.7265 C   0  0  0  0  0  0  0  0  0  0  0  0
    1.5471    0.2487   -0.4720 C   0  0  0  0  0  0  0  0  0  0  0  0
    0.1086   -0.0882   -0.2850 C   0  0  0  0  0  0  0  0  0  0  0  0
   -0.3450   -1.3704    0.3285 C   0  0  0  0  0  0  0  0  0  0  0  0
   -1.4550   -0.6152    1.0294 C   0  0  0  0  0  0  0  0  0  0  0  0
   -0.8420    0.6635    0.5176 C   0  0  0  0  0  0  0  0  0  0  0  0
   -0.8932    0.8330   -0.9678 C   0  0  0  0  0  0  0  0  0  0  0  0
   -1.9782    0.2402   -1.5934 O   0  0  0  0  0  0  0  0  0  0  0  0
    2.6145   -0.5648    1.2962 H   0  0  0  0  0  0  0  0  0  0  0  0
    1.6282    1.1811   -1.0918 H   0  0  0  0  0  0  0  0  0  0  0  0
    1.9677   -0.5811   -1.1274 H   0  0  0  0  0  0  0  0  0  0  0  0
    0.3335   -1.7976    1.0568 H   0  0  0  0  0  0  0  0  0  0  0  0
   -0.7752   -2.0693   -0.4409 H   0  0  0  0  0  0  0  0  0  0  0  0
   -1.4697   -0.7344    2.1148 H   0  0  0  0  0  0  0  0  0  0  0  0
   -2.4540   -0.7723    0.5228 H   0  0  0  0  0  0  0  0  0  0  0  0
   -0.6024    1.4914    1.1738 H   0  0  0  0  0  0  0  0  0  0  0  0
   -0.4964    1.7749   -1.3315 H   0  0  0  0  0  0  0  0  0  0  0  0
   -2.0555    0.4495   -2.5593 H   0  0  0  0  0  0  0  0  0  0  0  0
  1  2  2  0
  2  3  1  0
  3  4  1  0
  4  5  1  0
  5  6  1  0
  6  7  1  0
  7  8  1  0
  8  9  1  0
  7  4  1  0
  8  4  1  0
  2 10  1  0
  3 11  1  0
  3 12  1  0
  5 13  1  0
  5 14  1  0
  6 15  1  0
  6 16  1  0
  7 17  1  0
  8 18  1  0
  9 19  1  0
M  END
