
     RDKit          3D

 14 14  0  0  0  0  0  0  0  0999 V2000
   -0.2718    2.1139    1.4961 O   0  0  0  0  0  0  0  0  0  0  0  0
   -0.8219    1.4681    0.6293 C   0  0  0  0  0  0  0  0  0  0  0  0
   -0.2742    0.1571    0.2368 C   0  0  0  0  0  0  0  0  0  0  0  0
   -1.2654   -0.9280    0.2213 C   0  0  0  0  0  0  0  0  0  0  0  0
   -1.0791   -2.0077    0.7451 O   0  0  0  0  0  0  0  0  0  0  0  0
    0.5673    0.2939   -1.0106 C   0  0  0  0  0  0  0  0  0  0  0  0
    1.3676   -0.7425   -0.2825 C   0  0  0  0  0  0  0  0  0  0  0  0
    0.8687   -0.2376    0.9222 O   0  0  0  0  0  0  0  0  0  0  0  0
   -1.6930    1.8604    0.1658 H   0  0  0  0  0  0  0  0  0  0  0  0
   -2.2108   -0.7739   -0.2758 H   0  0  0  0  0  0  0  0  0  0  0  0
    1.1022    1.2454   -1.0590 H   0  0  0  0  0  0  0  0  0  0  0  0
    0.1179   -0.0933   -1.9323 H   0  0  0  0  0  0  0  0  0  0  0  0
    1.1352   -1.7904   -0.4892 H   0  0  0  0  0  0  0  0  0  0  0  0
    2.4572   -0.5655   -0.4134 H   0  0  0  0  0  0  0  0  0  0  0  0
  1  2  2  0
  2  3  1  0
  3  4  1  0
  4  5  2  0
  3  6  1  0
  6  7  1  0
  7  8  1  0
  8  3  1  0
  2  9  1  0
  4 10  1  0
  6 11  1  0
  6 12  1  0
  7 13  1  0
  7 14  1  0
M  END
