
     RDKit          3D

 21 21  0  0  0  0  0  0  0  0999 V2000
    2.5411    1.6153   -0.5492 O   0  0  0  0  0  0  0  0  0  0  0  0
    2.5991    0.6178    0.1450 C   0  0  0  0  0  0  0  0  0  0  0  0
    1.8804   -0.6290   -0.1120 C   0  0  0  0  0  0  0  0  0  0  0  0
    2.1940   -1.5600    0.8856 O   0  0  0  0  0  0  0  0  0  0  0  0
    0.3978   -0.5193   -0.1673 C   0  0  0  0  0  0  0  0  0  0  0  0
   -0.1155    0.3992   -1.2297 C   0  0  0  0  0  0  0  0  0  0  0  0
   -1.6210    0.4802   -1.2530 C   0  0  0  0  0  0  0  0  0  0  0  0
   -2.3721    0.9522   -0.0704 C   0  0  0  0  0  0  0  0  0  0  0  0
   -2.3477   -0.5199   -0.4633 C   0  0  0  0  0  0  0  0  0  0  0  0
    3.2414    0.6811    1.0192 H   0  0  0  0  0  0  0  0  0  0  0  0
    2.2945   -1.0665   -1.0540 H   0  0  0  0  0  0  0  0  0  0  0  0
    3.1301   -1.4655    1.1790 H   0  0  0  0  0  0  0  0  0  0  0  0
    0.0123   -0.2578    0.8358 H   0  0  0  0  0  0  0  0  0  0  0  0
   -0.0010   -1.5398   -0.3949 H   0  0  0  0  0  0  0  0  0  0  0  0
    0.2825    1.4251   -1.0782 H   0  0  0  0  0  0  0  0  0  0  0  0
    0.2332    0.0147   -2.2195 H   0  0  0  0  0  0  0  0  0  0  0  0
   -2.0730    0.7697   -2.2377 H   0  0  0  0  0  0  0  0  0  0  0  0
   -3.3563    1.4297   -0.2051 H   0  0  0  0  0  0  0  0  0  0  0  0
   -1.7727    1.2808    0.8034 H   0  0  0  0  0  0  0  0  0  0  0  0
   -1.8790   -1.1535    0.2990 H   0  0  0  0  0  0  0  0  0  0  0  0
   -3.2682   -0.9545   -0.9050 H   0  0  0  0  0  0  0  0  0  0  0  0
  1  2  2  0
  2  3  1  0
  3  4  1  0
  3  5  1  0
  5  6  1  0
  6  7  1  0
  7  8  1  0
  8  9  1  0
  9  7  1  0
  2 10  1  0
  3 11  1  0
  4 12  1  0
  5 13  1  0
  5 14  1  0
  6 15  1  0
  6 16  1  0
  7 17  1  0
  8 18  1  0
  8 19  1  0
  9 20  1  0
  9 21  1  0
M  END
