
     RDKit          3D

 19 20  0  0  0  0  0  0  0  0999 V2000
    2.0830   -0.9705    2.0991 O   0  0  0  0  0  0  0  0  0  0  0  0
    1.6252   -0.0928    1.4147 C   0  0  0  0  0  0  0  0  0  0  0  0
    1.4580   -0.2845   -0.0352 C   0  0  0  0  0  0  0  0  0  0  0  0
    1.8687   -1.5239   -0.4798 O   0  0  0  0  0  0  0  0  0  0  0  0
    0.0332   -0.0616   -0.4503 C   0  0  0  0  0  0  0  0  0  0  0  0
   -0.9966   -0.9431    0.1647 C   0  0  0  0  0  0  0  0  0  0  0  0
   -1.9173    0.2538    0.3798 C   0  0  0  0  0  0  0  0  0  0  0  0
   -0.7313    1.1326   -0.0220 C   0  0  0  0  0  0  0  0  0  0  0  0
   -0.3081    1.0015   -1.4196 C   0  0  0  0  0  0  0  0  0  0  0  0
    1.3369    0.8346    1.8618 H   0  0  0  0  0  0  0  0  0  0  0  0
    2.1304    0.4687   -0.5423 H   0  0  0  0  0  0  0  0  0  0  0  0
    1.3420   -1.7292   -1.3054 H   0  0  0  0  0  0  0  0  0  0  0  0
   -0.6640   -1.3010    1.1830 H   0  0  0  0  0  0  0  0  0  0  0  0
   -1.3947   -1.7396   -0.4620 H   0  0  0  0  0  0  0  0  0  0  0  0
   -2.7107    0.3067   -0.4206 H   0  0  0  0  0  0  0  0  0  0  0  0
   -2.2678    0.3980    1.4021 H   0  0  0  0  0  0  0  0  0  0  0  0
   -0.3584    1.8772    0.6741 H   0  0  0  0  0  0  0  0  0  0  0  0
    0.5478    1.5727   -1.8207 H   0  0  0  0  0  0  0  0  0  0  0  0
   -1.0762    0.8004   -2.2216 H   0  0  0  0  0  0  0  0  0  0  0  0
  1  2  2  0
  2  3  1  0
  3  4  1  0
  3  5  1  0
  5  6  1  0
  6  7  1  0
  7  8  1  0
  8  9  1  0
  8  5  1  0
  9  5  1  0
  2 10  1  0
  3 11  1  0
  4 12  1  0
  6 13  1  0
  6 14  1  0
  7 15  1  0
  7 16  1  0
  8 17  1  0
  9 18  1  0
  9 19  1  0
M  END
