
     RDKit          3D

 21 21  0  0  0  0  0  0  0  0999 V2000
    2.4364   -1.6607    0.0970 O   0  0  0  0  0  0  0  0  0  0  0  0
    2.8198   -0.5387    0.3717 C   0  0  0  0  0  0  0  0  0  0  0  0
    2.2088    0.7077   -0.1215 C   0  0  0  0  0  0  0  0  0  0  0  0
    1.0322    0.4414   -1.0186 C   0  0  0  0  0  0  0  0  0  0  0  0
    0.0112   -0.3282   -0.2070 C   0  0  0  0  0  0  0  0  0  0  0  0
   -0.5516    0.2999    1.0343 C   0  0  0  0  0  0  0  0  0  0  0  0
   -1.4064    0.2400   -0.1552 C   0  0  0  0  0  0  0  0  0  0  0  0
   -2.4713   -0.7934   -0.3531 C   0  0  0  0  0  0  0  0  0  0  0  0
   -3.7470   -0.2511   -0.3015 O   0  0  0  0  0  0  0  0  0  0  0  0
    3.6847   -0.4878    1.0369 H   0  0  0  0  0  0  0  0  0  0  0  0
    1.8598    1.3002    0.7443 H   0  0  0  0  0  0  0  0  0  0  0  0
    2.9499    1.3529   -0.6613 H   0  0  0  0  0  0  0  0  0  0  0  0
    0.5712    1.3679   -1.3565 H   0  0  0  0  0  0  0  0  0  0  0  0
    1.2877   -0.1860   -1.8872 H   0  0  0  0  0  0  0  0  0  0  0  0
    0.1373   -1.4083   -0.2078 H   0  0  0  0  0  0  0  0  0  0  0  0
   -0.6987   -0.3679    1.9126 H   0  0  0  0  0  0  0  0  0  0  0  0
   -0.1012    1.2711    1.3074 H   0  0  0  0  0  0  0  0  0  0  0  0
   -1.5988    1.1927   -0.6894 H   0  0  0  0  0  0  0  0  0  0  0  0
   -2.3622   -1.6737    0.3083 H   0  0  0  0  0  0  0  0  0  0  0  0
   -2.3329   -1.1977   -1.3990 H   0  0  0  0  0  0  0  0  0  0  0  0
   -3.7288    0.7198   -0.5170 H   0  0  0  0  0  0  0  0  0  0  0  0
  1  2  2  0
  2  3  1  0
  3  4  1  0
  4  5  1  0
  5  6  1  0
  6  7  1  0
  7  8  1  0
  8  9  1  0
  7  5  1  0
  2 10  1  0
  3 11  1  0
  3 12  1  0
  4 13  1  0
  4 14  1  0
  5 15  1  0
  6 16  1  0
  6 17  1  0
  7 18  1  0
  8 19  1  0
  8 20  1  0
  9 21  1  0
M  END
