
     RDKit          3D

 17 18  0  0  0  0  0  0  0  0999 V2000
    3.3301   -0.3643    0.3163 O   0  0  0  0  0  0  0  0  0  0  0  0
    2.1437   -0.7003    0.1902 C   0  0  0  0  0  0  0  0  0  0  0  0
    1.1633    0.3475   -0.0296 C   0  0  0  0  0  0  0  0  0  0  0  0
    0.1436    0.5883    1.0497 C   0  0  0  0  0  0  0  0  0  0  0  0
   -0.6458    1.2418   -0.0503 C   0  0  0  0  0  0  0  0  0  0  0  0
   -0.1384   -0.0344   -0.6756 C   0  0  0  0  0  0  0  0  0  0  0  0
   -0.5128   -0.6867    0.6156 C   0  0  0  0  0  0  0  0  0  0  0  0
   -1.9735   -0.7714    0.8816 C   0  0  0  0  0  0  0  0  0  0  0  0
   -2.5339   -0.1726    1.7692 O   0  0  0  0  0  0  0  0  0  0  0  0
    1.9079   -1.7354    0.2495 H   0  0  0  0  0  0  0  0  0  0  0  0
    1.5343    1.2981   -0.4660 H   0  0  0  0  0  0  0  0  0  0  0  0
    0.2992    0.9254    1.9749 H   0  0  0  0  0  0  0  0  0  0  0  0
   -0.1021    2.1199   -0.4384 H   0  0  0  0  0  0  0  0  0  0  0  0
   -1.7197    1.3240    0.0902 H   0  0  0  0  0  0  0  0  0  0  0  0
   -0.2921   -0.3506   -1.6080 H   0  0  0  0  0  0  0  0  0  0  0  0
   -0.0295   -1.6249    0.8790 H   0  0  0  0  0  0  0  0  0  0  0  0
   -2.5744   -1.4044    0.2467 H   0  0  0  0  0  0  0  0  0  0  0  0
  1  2  2  0
  2  3  1  0
  3  4  1  0
  4  5  1  0
  5  6  1  0
  6  7  1  0
  7  8  1  0
  8  9  2  0
  6  3  1  0
  7  4  1  0
  2 10  1  0
  3 11  1  0
  4 12  1  0
  5 13  1  0
  5 14  1  0
  6 15  1  0
  7 16  1  0
  8 17  1  0
M  END
