
     RDKit          3D

 16 16  0  0  0  0  0  0  0  0999 V2000
    2.0663    0.6259    1.0964 O   0  0  0  0  0  0  0  0  0  0  0  0
    1.7936   -0.3787    0.4701 C   0  0  0  0  0  0  0  0  0  0  0  0
    0.4536   -0.4674   -0.1554 C   0  0  0  0  0  0  0  0  0  0  0  0
    0.2881   -1.6472   -0.8239 O   0  0  0  0  0  0  0  0  0  0  0  0
    0.0343    0.7904   -0.8767 C   0  0  0  0  0  0  0  0  0  0  0  0
   -0.9530    1.1224    0.2316 C   0  0  0  0  0  0  0  0  0  0  0  0
   -0.6167   -0.1793    0.8779 C   0  0  0  0  0  0  0  0  0  0  0  0
   -1.6640   -1.1290    0.8745 O   0  0  0  0  0  0  0  0  0  0  0  0
    2.5167   -1.1746    0.3808 H   0  0  0  0  0  0  0  0  0  0  0  0
    0.5849   -1.6419   -1.7578 H   0  0  0  0  0  0  0  0  0  0  0  0
   -0.4570    0.6404   -1.8472 H   0  0  0  0  0  0  0  0  0  0  0  0
    0.8526    1.5433   -0.9995 H   0  0  0  0  0  0  0  0  0  0  0  0
   -2.0143    1.1305   -0.0936 H   0  0  0  0  0  0  0  0  0  0  0  0
   -0.7170    2.0415    0.8006 H   0  0  0  0  0  0  0  0  0  0  0  0
   -0.2489   -0.0582    1.9104 H   0  0  0  0  0  0  0  0  0  0  0  0
   -1.9193   -1.2181   -0.0882 H   0  0  0  0  0  0  0  0  0  0  0  0
  1  2  2  0
  2  3  1  0
  3  4  1  0
  3  5  1  0
  5  6  1  0
  6  7  1  0
  7  8  1  0
  7  3  1  0
  2  9  1  0
  4 10  1  0
  5 11  1  0
  5 12  1  0
  6 13  1  0
  6 14  1  0
  7 15  1  0
  8 16  1  0
M  END
