
     RDKit          3D

 17 17  0  0  0  0  0  0  0  0999 V2000
    2.0424   -1.8911    1.0350 O   0  0  0  0  0  0  0  0  0  0  0  0
    2.0310   -1.0079    0.1649 C   0  0  0  0  0  0  0  0  0  0  0  0
    0.8860   -0.0536    0.0327 C   0  0  0  0  0  0  0  0  0  0  0  0
    1.2688    1.3349   -0.3195 C   0  0  0  0  0  0  0  0  0  0  0  0
    0.9619    2.1614    0.6319 O   0  0  0  0  0  0  0  0  0  0  0  0
   -0.1000   -0.6763   -0.9674 C   0  0  0  0  0  0  0  0  0  0  0  0
   -0.5039   -0.3725    0.4484 C   0  0  0  0  0  0  0  0  0  0  0  0
   -1.5961    0.7147    0.4376 C   0  0  0  0  0  0  0  0  0  0  0  0
   -2.7935    0.1798    0.8700 O   0  0  0  0  0  0  0  0  0  0  0  0
    2.8998   -0.9361   -0.5408 H   0  0  0  0  0  0  0  0  0  0  0  0
    1.7217    1.7682   -1.1728 H   0  0  0  0  0  0  0  0  0  0  0  0
    0.0546   -1.7176   -1.2217 H   0  0  0  0  0  0  0  0  0  0  0  0
   -0.4613   -0.0480   -1.8006 H   0  0  0  0  0  0  0  0  0  0  0  0
   -0.7191   -1.2765    1.0913 H   0  0  0  0  0  0  0  0  0  0  0  0
   -1.3025    1.6712    0.8946 H   0  0  0  0  0  0  0  0  0  0  0  0
   -1.7598    0.9474   -0.6578 H   0  0  0  0  0  0  0  0  0  0  0  0
   -2.6301   -0.7979    1.0742 H   0  0  0  0  0  0  0  0  0  0  0  0
  1  2  2  0
  2  3  1  0
  3  4  1  0
  4  5  2  0
  3  6  1  0
  6  7  1  0
  7  8  1  0
  8  9  1  0
  7  3  1  0
  2 10  1  0
  4 11  1  0
  6 12  1  0
  6 13  1  0
  7 14  1  0
  8 15  1  0
  8 16  1  0
  9 17  1  0
M  END
