
     RDKit          3D

 17 17  0  0  0  0  0  0  0  0999 V2000
    2.5083    1.8073   -0.1426 O   0  0  0  0  0  0  0  0  0  0  0  0
    2.5881    0.5924    0.0147 C   0  0  0  0  0  0  0  0  0  0  0  0
    1.4536   -0.2826    0.2930 C   0  0  0  0  0  0  0  0  0  0  0  0
    0.3960   -0.1830   -0.7788 C   0  0  0  0  0  0  0  0  0  0  0  0
   -0.8081   -1.0483   -0.5617 C   0  0  0  0  0  0  0  0  0  0  0  0
   -1.5626    0.2534   -0.6878 C   0  0  0  0  0  0  0  0  0  0  0  0
   -2.3176    0.6852    0.4990 C   0  0  0  0  0  0  0  0  0  0  0  0
   -1.8982    1.5526    1.2352 O   0  0  0  0  0  0  0  0  0  0  0  0
   -0.3640    0.9777   -0.8011 O   0  0  0  0  0  0  0  0  0  0  0  0
    3.6225    0.1825   -0.0766 H   0  0  0  0  0  0  0  0  0  0  0  0
    1.0582   -0.0382    1.2997 H   0  0  0  0  0  0  0  0  0  0  0  0
    1.7771   -1.3345    0.3595 H   0  0  0  0  0  0  0  0  0  0  0  0
    0.8589   -0.3082   -1.7861 H   0  0  0  0  0  0  0  0  0  0  0  0
   -0.9713   -1.7874   -1.3888 H   0  0  0  0  0  0  0  0  0  0  0  0
   -0.9060   -1.5239    0.4110 H   0  0  0  0  0  0  0  0  0  0  0  0
   -2.1836    0.2353   -1.6307 H   0  0  0  0  0  0  0  0  0  0  0  0
   -3.2513    0.2196    0.7049 H   0  0  0  0  0  0  0  0  0  0  0  0
  1  2  2  0
  2  3  1  0
  3  4  1  0
  4  5  1  0
  5  6  1  0
  6  7  1  0
  7  8  2  0
  6  9  1  0
  9  4  1  0
  2 10  1  0
  3 11  1  0
  3 12  1  0
  4 13  1  0
  5 14  1  0
  5 15  1  0
  6 16  1  0
  7 17  1  0
M  END
