
     RDKit          3D

 17 17  0  0  0  0  0  0  0  0999 V2000
    3.7449   -0.1621    1.0717 O   0  0  0  0  0  0  0  0  0  0  0  0
    2.9103    0.1486    0.2464 C   0  0  0  0  0  0  0  0  0  0  0  0
    1.4873   -0.0890    0.5367 C   0  0  0  0  0  0  0  0  0  0  0  0
    0.7304    1.1531    0.3182 O   0  0  0  0  0  0  0  0  0  0  0  0
    0.4535   -0.0834   -0.4606 C   0  0  0  0  0  0  0  0  0  0  0  0
   -0.8985   -0.6770   -0.0650 C   0  0  0  0  0  0  0  0  0  0  0  0
   -1.1466   -1.8146   -0.7856 O   0  0  0  0  0  0  0  0  0  0  0  0
   -1.9384    0.4002   -0.2518 C   0  0  0  0  0  0  0  0  0  0  0  0
   -1.5519    1.4868    0.5384 O   0  0  0  0  0  0  0  0  0  0  0  0
    3.2442    0.5886   -0.6720 H   0  0  0  0  0  0  0  0  0  0  0  0
    1.2548   -0.5536    1.5261 H   0  0  0  0  0  0  0  0  0  0  0  0
    0.5979    0.1539   -1.5131 H   0  0  0  0  0  0  0  0  0  0  0  0
   -0.8898   -0.9371    1.0113 H   0  0  0  0  0  0  0  0  0  0  0  0
   -1.6281   -1.6568   -1.6396 H   0  0  0  0  0  0  0  0  0  0  0  0
   -2.9563    0.0586   -0.0362 H   0  0  0  0  0  0  0  0  0  0  0  0
   -1.8929    0.7155   -1.3144 H   0  0  0  0  0  0  0  0  0  0  0  0
   -1.5209    1.2682    1.4894 H   0  0  0  0  0  0  0  0  0  0  0  0
  1  2  2  0
  2  3  1  0
  3  4  1  0
  4  5  1  0
  5  6  1  0
  6  7  1  0
  6  8  1  0
  8  9  1  0
  5  3  1  0
  2 10  1  0
  3 11  1  0
  5 12  1  0
  6 13  1  0
  7 14  1  0
  8 15  1  0
  8 16  1  0
  9 17  1  0
M  END
