
     RDKit          3D

 17 17  0  0  0  0  0  0  0  0999 V2000
    2.3691    0.2450    1.4259 O   0  0  0  0  0  0  0  0  0  0  0  0
    1.7602    0.8568    0.5673 C   0  0  0  0  0  0  0  0  0  0  0  0
    1.1275    0.1585   -0.5562 C   0  0  0  0  0  0  0  0  0  0  0  0
    1.3262   -1.2188   -0.4712 O   0  0  0  0  0  0  0  0  0  0  0  0
    0.1950   -1.2736    0.3417 C   0  0  0  0  0  0  0  0  0  0  0  0
   -0.3441   -0.1078   -0.4569 C   0  0  0  0  0  0  0  0  0  0  0  0
   -0.8825   -0.4744   -1.6617 O   0  0  0  0  0  0  0  0  0  0  0  0
   -1.1380    0.8900    0.3498 C   0  0  0  0  0  0  0  0  0  0  0  0
   -2.3800    0.3045    0.5999 O   0  0  0  0  0  0  0  0  0  0  0  0
    1.7238    1.9420    0.6979 H   0  0  0  0  0  0  0  0  0  0  0  0
    1.4731    0.5776   -1.5245 H   0  0  0  0  0  0  0  0  0  0  0  0
   -0.4147   -2.1959    0.2220 H   0  0  0  0  0  0  0  0  0  0  0  0
    0.4350   -1.0569    1.3881 H   0  0  0  0  0  0  0  0  0  0  0  0
   -0.6567   -1.4146   -1.8562 H   0  0  0  0  0  0  0  0  0  0  0  0
   -1.2862    1.8409   -0.1649 H   0  0  0  0  0  0  0  0  0  0  0  0
   -0.5927    1.0719    1.3112 H   0  0  0  0  0  0  0  0  0  0  0  0
   -2.7151   -0.1449   -0.2122 H   0  0  0  0  0  0  0  0  0  0  0  0
  1  2  2  0
  2  3  1  0
  3  4  1  0
  4  5  1  0
  5  6  1  0
  6  7  1  0
  6  8  1  0
  8  9  1  0
  6  3  1  0
  2 10  1  0
  3 11  1  0
  5 12  1  0
  5 13  1  0
  7 14  1  0
  8 15  1  0
  8 16  1  0
  9 17  1  0
M  END
