
     RDKit          3D

 17 18  0  0  0  0  0  0  0  0999 V2000
    3.1235   -0.1960   -0.8125 O   0  0  0  0  0  0  0  0  0  0  0  0
    2.2028   -0.2563   -0.0225 C   0  0  0  0  0  0  0  0  0  0  0  0
    0.8311    0.1299   -0.4762 C   0  0  0  0  0  0  0  0  0  0  0  0
    0.2635    1.1102    0.5135 C   0  0  0  0  0  0  0  0  0  0  0  0
   -1.2108    1.2614    0.3990 C   0  0  0  0  0  0  0  0  0  0  0  0
   -1.9085    0.1736    0.0898 C   0  0  0  0  0  0  0  0  0  0  0  0
   -1.2844   -1.1630   -0.1417 C   0  0  0  0  0  0  0  0  0  0  0  0
   -0.3302   -1.6086    0.7738 O   0  0  0  0  0  0  0  0  0  0  0  0
    0.0208   -1.1287   -0.5889 C   0  0  0  0  0  0  0  0  0  0  0  0
    2.3407   -0.5777    0.9911 H   0  0  0  0  0  0  0  0  0  0  0  0
    0.8527    0.6213   -1.4696 H   0  0  0  0  0  0  0  0  0  0  0  0
    0.7752    2.0932    0.3476 H   0  0  0  0  0  0  0  0  0  0  0  0
    0.5335    0.8070    1.5567 H   0  0  0  0  0  0  0  0  0  0  0  0
   -1.7015    2.2359    0.5642 H   0  0  0  0  0  0  0  0  0  0  0  0
   -3.0003    0.3280    0.0144 H   0  0  0  0  0  0  0  0  0  0  0  0
   -2.0106   -1.9092   -0.5423 H   0  0  0  0  0  0  0  0  0  0  0  0
    0.5024   -1.9210   -1.1965 H   0  0  0  0  0  0  0  0  0  0  0  0
  1  2  2  0
  2  3  1  0
  3  4  1  0
  4  5  1  0
  5  6  2  0
  6  7  1  0
  7  8  1  0
  8  9  1  0
  9  3  1  0
  9  7  1  0
  2 10  1  0
  3 11  1  0
  4 12  1  0
  4 13  1  0
  5 14  1  0
  6 15  1  0
  7 16  1  0
  9 17  1  0
M  END
