
     RDKit          3D

 19 20  0  0  0  0  0  0  0  0999 V2000
    2.1599   -1.4179    0.3454 O   0  0  0  0  0  0  0  0  0  0  0  0
    2.0979   -0.2424    0.6089 C   0  0  0  0  0  0  0  0  0  0  0  0
    0.8057    0.4693    0.5497 C   0  0  0  0  0  0  0  0  0  0  0  0
    0.7437    1.2978   -0.7436 C   0  0  0  0  0  0  0  0  0  0  0  0
   -0.5157    0.5444   -1.1789 C   0  0  0  0  0  0  0  0  0  0  0  0
   -1.6189    1.4187   -1.0617 O   0  0  0  0  0  0  0  0  0  0  0  0
   -0.3575   -0.2959    0.0374 C   0  0  0  0  0  0  0  0  0  0  0  0
   -0.5573   -1.7138    0.1281 C   0  0  0  0  0  0  0  0  0  0  0  0
   -1.4990   -0.7287    0.8248 C   0  0  0  0  0  0  0  0  0  0  0  0
    2.9858    0.2926    0.8885 H   0  0  0  0  0  0  0  0  0  0  0  0
    0.5416    1.0723    1.4378 H   0  0  0  0  0  0  0  0  0  0  0  0
    0.5963    2.3587   -0.5230 H   0  0  0  0  0  0  0  0  0  0  0  0
    1.5505    1.0735   -1.4598 H   0  0  0  0  0  0  0  0  0  0  0  0
   -0.4369    0.0360   -2.1477 H   0  0  0  0  0  0  0  0  0  0  0  0
   -1.6226    1.7218   -0.1138 H   0  0  0  0  0  0  0  0  0  0  0  0
    0.0567   -2.2971    0.8627 H   0  0  0  0  0  0  0  0  0  0  0  0
   -0.9502   -2.2908   -0.7333 H   0  0  0  0  0  0  0  0  0  0  0  0
   -1.4737   -0.6428    1.9139 H   0  0  0  0  0  0  0  0  0  0  0  0
   -2.5061   -0.6558    0.3646 H   0  0  0  0  0  0  0  0  0  0  0  0
  1  2  2  0
  2  3  1  0
  3  4  1  0
  4  5  1  0
  5  6  1  0
  5  7  1  0
  7  8  1  0
  8  9  1  0
  7  3  1  0
  9  7  1  0
  2 10  1  0
  3 11  1  0
  4 12  1  0
  4 13  1  0
  5 14  1  0
  6 15  1  0
  8 16  1  0
  8 17  1  0
  9 18  1  0
  9 19  1  0
M  END
