
     RDKit          3D

 13 14  0  0  0  0  0  0  0  0999 V2000
    2.6876   -1.0889    0.1054 O   0  0  0  0  0  0  0  0  0  0  0  0
    2.1143   -0.0339   -0.0988 C   0  0  0  0  0  0  0  0  0  0  0  0
    0.7709    0.1470    0.4614 C   0  0  0  0  0  0  0  0  0  0  0  0
    0.1424    1.3403    0.2209 O   0  0  0  0  0  0  0  0  0  0  0  0
   -1.0370    0.8378   -0.2696 C   0  0  0  0  0  0  0  0  0  0  0  0
   -1.6961   -0.3432    0.3126 C   0  0  0  0  0  0  0  0  0  0  0  0
   -0.3555   -0.5472   -0.2899 C   0  0  0  0  0  0  0  0  0  0  0  0
    2.6557    0.7005   -0.6907 H   0  0  0  0  0  0  0  0  0  0  0  0
    0.6622   -0.1232    1.5507 H   0  0  0  0  0  0  0  0  0  0  0  0
   -1.4507    1.2103   -1.2290 H   0  0  0  0  0  0  0  0  0  0  0  0
   -2.5492   -0.7713   -0.2047 H   0  0  0  0  0  0  0  0  0  0  0  0
   -1.7497   -0.3927    1.4228 H   0  0  0  0  0  0  0  0  0  0  0  0
   -0.1948   -0.9355   -1.2911 H   0  0  0  0  0  0  0  0  0  0  0  0
  1  2  2  0
  2  3  1  0
  3  4  1  0
  4  5  1  0
  5  6  1  0
  6  7  1  0
  7  3  1  0
  7  5  1  0
  2  8  1  0
  3  9  1  0
  5 10  1  0
  6 11  1  0
  6 12  1  0
  7 13  1  0
M  END
