
     RDKit          3D

 15 15  0  0  0  0  0  0  0  0999 V2000
    4.4777   -0.5405    0.6208 O   0  0  0  0  0  0  0  0  0  0  0  0
    3.6319    0.1104   -0.0495 C   0  0  0  0  0  0  0  0  0  0  0  0
    2.2284    0.0930    0.2445 C   0  0  0  0  0  0  0  0  0  0  0  0
    1.0453    0.0711    0.4724 C   0  0  0  0  0  0  0  0  0  0  0  0
   -0.3683    0.0520    0.7490 C   0  0  0  0  0  0  0  0  0  0  0  0
   -0.9121   -1.2000    1.0676 O   0  0  0  0  0  0  0  0  0  0  0  0
   -2.1144   -0.7087    0.5051 C   0  0  0  0  0  0  0  0  0  0  0  0
   -1.2585    0.0171   -0.5007 C   0  0  0  0  0  0  0  0  0  0  0  0
   -1.6317    1.2892   -0.8312 O   0  0  0  0  0  0  0  0  0  0  0  0
    4.0221    0.6953   -0.8744 H   0  0  0  0  0  0  0  0  0  0  0  0
   -0.7456    0.8351    1.4411 H   0  0  0  0  0  0  0  0  0  0  0  0
   -2.5537    0.0103    1.2110 H   0  0  0  0  0  0  0  0  0  0  0  0
   -2.7701   -1.4874    0.1092 H   0  0  0  0  0  0  0  0  0  0  0  0
   -0.7750   -0.6019   -1.2627 H   0  0  0  0  0  0  0  0  0  0  0  0
   -2.2762    1.3650   -1.5623 H   0  0  0  0  0  0  0  0  0  0  0  0
  1  2  2  0
  2  3  1  0
  3  4  3  0
  4  5  1  0
  5  6  1  0
  6  7  1  0
  7  8  1  0
  8  9  1  0
  8  5  1  0
  2 10  1  0
  5 11  1  0
  7 12  1  0
  7 13  1  0
  8 14  1  0
  9 15  1  0
M  END
