
     RDKit          3D

 15 16  0  0  0  0  0  0  0  0999 V2000
    2.7307   -0.8824   -0.0759 O   0  0  0  0  0  0  0  0  0  0  0  0
    1.5295   -0.9785   -0.0438 C   0  0  0  0  0  0  0  0  0  0  0  0
    0.7216    0.2239    0.2157 C   0  0  0  0  0  0  0  0  0  0  0  0
    1.4551    1.3939    0.4046 O   0  0  0  0  0  0  0  0  0  0  0  0
   -0.2997    0.1000    1.2816 C   0  0  0  0  0  0  0  0  0  0  0  0
   -0.3900   -0.1896    2.4658 O   0  0  0  0  0  0  0  0  0  0  0  0
   -1.3186    0.5044    0.2797 C   0  0  0  0  0  0  0  0  0  0  0  0
   -1.5603   -0.4730   -0.8074 C   0  0  0  0  0  0  0  0  0  0  0  0
   -0.3544    0.3813   -0.8178 C   0  0  0  0  0  0  0  0  0  0  0  0
    1.0615   -1.9255   -0.2021 H   0  0  0  0  0  0  0  0  0  0  0  0
    2.3660    1.1664    0.6671 H   0  0  0  0  0  0  0  0  0  0  0  0
   -1.9460    1.3797    0.4438 H   0  0  0  0  0  0  0  0  0  0  0  0
   -1.4613   -1.5599   -0.5989 H   0  0  0  0  0  0  0  0  0  0  0  0
   -2.3058   -0.2559   -1.5930 H   0  0  0  0  0  0  0  0  0  0  0  0
   -0.2283    1.1151   -1.6194 H   0  0  0  0  0  0  0  0  0  0  0  0
  1  2  2  0
  2  3  1  0
  3  4  1  0
  3  5  1  0
  5  6  2  0
  5  7  1  0
  7  8  1  0
  8  9  1  0
  9  3  1  0
  9  7  1  0
  2 10  1  0
  4 11  1  0
  7 12  1  0
  8 13  1  0
  8 14  1  0
  9 15  1  0
M  END
