
     RDKit          3D

 17 19  0  0  0  0  0  0  0  0999 V2000
    3.0483   -1.1056   -0.1622 O   0  0  0  0  0  0  0  0  0  0  0  0
    2.6945   -0.2057    0.5657 C   0  0  0  0  0  0  0  0  0  0  0  0
    1.3261    0.3303    0.5146 C   0  0  0  0  0  0  0  0  0  0  0  0
    0.6800    0.3425   -0.8148 C   0  0  0  0  0  0  0  0  0  0  0  0
   -0.7006    0.9721   -0.8528 C   0  0  0  0  0  0  0  0  0  0  0  0
   -1.1717   -0.1836   -0.0216 C   0  0  0  0  0  0  0  0  0  0  0  0
   -2.3861   -0.2731    0.5745 C   0  0  0  0  0  0  0  0  0  0  0  0
   -2.0351   -1.1252   -0.5867 O   0  0  0  0  0  0  0  0  0  0  0  0
    0.1803   -0.6455    0.2904 C   0  0  0  0  0  0  0  0  0  0  0  0
    3.4006    0.2040    1.2603 H   0  0  0  0  0  0  0  0  0  0  0  0
    1.0462    1.1539    1.1993 H   0  0  0  0  0  0  0  0  0  0  0  0
    1.1000   -0.1142   -1.7060 H   0  0  0  0  0  0  0  0  0  0  0  0
   -1.1324    0.9331   -1.8550 H   0  0  0  0  0  0  0  0  0  0  0  0
   -0.6850    1.9530   -0.3470 H   0  0  0  0  0  0  0  0  0  0  0  0
   -3.2279    0.4084    0.3317 H   0  0  0  0  0  0  0  0  0  0  0  0
   -2.6401   -0.9546    1.4243 H   0  0  0  0  0  0  0  0  0  0  0  0
    0.5027   -1.6898    0.1854 H   0  0  0  0  0  0  0  0  0  0  0  0
  1  2  2  0
  2  3  1  0
  3  4  1  0
  4  5  1  0
  5  6  1  0
  6  7  1  0
  7  8  1  0
  6  9  1  0
  9  3  1  0
  9  4  1  0
  8  6  1  0
  2 10  1  0
  3 11  1  0
  4 12  1  0
  5 13  1  0
  5 14  1  0
  7 15  1  0
  7 16  1  0
  9 17  1  0
M  END
