
     RDKit          3D

 17 16  0  0  0  0  0  0  0  0999 V2000
    4.9196   -1.2330   -0.1439 O   0  0  0  0  0  0  0  0  0  0  0  0
    4.3446   -0.2305   -0.6599 C   0  0  0  0  0  0  0  0  0  0  0  0
    2.9142   -0.1994   -0.6653 C   0  0  0  0  0  0  0  0  0  0  0  0
    1.7094   -0.1903   -0.6820 C   0  0  0  0  0  0  0  0  0  0  0  0
    0.2280   -0.1600   -0.6972 C   0  0  0  0  0  0  0  0  0  0  0  0
   -0.1871   -0.4314    0.5782 O   0  0  0  0  0  0  0  0  0  0  0  0
   -1.5413   -0.4529    0.7802 C   0  0  0  0  0  0  0  0  0  0  0  0
   -2.1973    0.8676    0.4502 C   0  0  0  0  0  0  0  0  0  0  0  0
   -3.5767    0.7664    0.6820 O   0  0  0  0  0  0  0  0  0  0  0  0
    4.9549    0.5594   -1.0746 H   0  0  0  0  0  0  0  0  0  0  0  0
   -0.0323    0.8497   -1.0702 H   0  0  0  0  0  0  0  0  0  0  0  0
   -0.0881   -0.8892   -1.4577 H   0  0  0  0  0  0  0  0  0  0  0  0
   -1.7012   -0.6065    1.8824 H   0  0  0  0  0  0  0  0  0  0  0  0
   -2.0503   -1.2931    0.2665 H   0  0  0  0  0  0  0  0  0  0  0  0
   -2.0039    1.0951   -0.6292 H   0  0  0  0  0  0  0  0  0  0  0  0
   -1.7833    1.6463    1.1002 H   0  0  0  0  0  0  0  0  0  0  0  0
   -3.9092   -0.0982    0.3220 H   0  0  0  0  0  0  0  0  0  0  0  0
  1  2  2  0
  2  3  1  0
  3  4  3  0
  4  5  1  0
  5  6  1  0
  6  7  1  0
  7  8  1  0
  8  9  1  0
  2 10  1  0
  5 11  1  0
  5 12  1  0
  7 13  1  0
  7 14  1  0
  8 15  1  0
  8 16  1  0
  9 17  1  0
M  END
