
     RDKit          3D

 16 17  0  0  0  0  0  0  0  0999 V2000
   -2.4373    1.4191   -0.0742 O   0  0  0  0  0  0  0  0  0  0  0  0
   -1.3204    1.0534    0.3441 C   0  0  0  0  0  0  0  0  0  0  0  0
   -0.6863   -0.0230   -0.3680 C   0  0  0  0  0  0  0  0  0  0  0  0
   -1.4578   -0.4614   -1.4572 O   0  0  0  0  0  0  0  0  0  0  0  0
   -0.1317   -1.2278    0.3718 C   0  0  0  0  0  0  0  0  0  0  0  0
    0.9104   -0.2575    0.7985 C   0  0  0  0  0  0  0  0  0  0  0  0
    1.8923    0.4874    0.0645 C   0  0  0  0  0  0  0  0  0  0  0  0
    0.7607    0.1449   -0.7025 C   0  0  0  0  0  0  0  0  0  0  0  0
   -0.9955    1.6217    1.2027 H   0  0  0  0  0  0  0  0  0  0  0  0
   -2.4212   -0.3733   -1.2705 H   0  0  0  0  0  0  0  0  0  0  0  0
    0.1876   -1.9789   -0.3895 H   0  0  0  0  0  0  0  0  0  0  0  0
   -0.7323   -1.6583    1.1548 H   0  0  0  0  0  0  0  0  0  0  0  0
    0.4555    0.3753    1.5837 H   0  0  0  0  0  0  0  0  0  0  0  0
    2.8934   -0.0142   -0.0497 H   0  0  0  0  0  0  0  0  0  0  0  0
    2.0783    1.5912    0.2306 H   0  0  0  0  0  0  0  0  0  0  0  0
    1.0042   -0.6985   -1.4393 H   0  0  0  0  0  0  0  0  0  0  0  0
  1  2  2  0
  2  3  1  0
  3  4  1  0
  3  5  1  0
  5  6  1  0
  6  7  1  0
  7  8  1  0
  8  3  1  0
  8  6  1  0
  2  9  1  0
  4 10  1  0
  5 11  1  0
  5 12  1  0
  6 13  1  0
  7 14  1  0
  7 15  1  0
  8 16  1  0
M  END
