
     RDKit          3D

 15 15  0  0  0  0  0  0  0  0999 V2000
    3.0773    1.0162   -0.1806 O   0  0  0  0  0  0  0  0  0  0  0  0
    2.4360   -0.0733    0.0035 C   0  0  0  0  0  0  0  0  0  0  0  0
    0.9914   -0.0887   -0.1666 C   0  0  0  0  0  0  0  0  0  0  0  0
    0.2239   -1.1517   -0.0043 C   0  0  0  0  0  0  0  0  0  0  0  0
   -1.1840   -0.7908   -0.2611 C   0  0  0  0  0  0  0  0  0  0  0  0
   -1.1943    0.6963    0.0136 C   0  0  0  0  0  0  0  0  0  0  0  0
   -1.1984    0.9726    1.3808 O   0  0  0  0  0  0  0  0  0  0  0  0
    0.1313    1.0617   -0.5414 C   0  0  0  0  0  0  0  0  0  0  0  0
    0.4656    2.0718   -1.1675 O   0  0  0  0  0  0  0  0  0  0  0  0
    2.9318   -0.9730    0.2790 H   0  0  0  0  0  0  0  0  0  0  0  0
    0.5178   -2.1693    0.2755 H   0  0  0  0  0  0  0  0  0  0  0  0
   -1.3617   -0.9119   -1.3490 H   0  0  0  0  0  0  0  0  0  0  0  0
   -1.9017   -1.3427    0.3639 H   0  0  0  0  0  0  0  0  0  0  0  0
   -2.0305    1.2087   -0.4897 H   0  0  0  0  0  0  0  0  0  0  0  0
   -1.9045    0.4740    1.8438 H   0  0  0  0  0  0  0  0  0  0  0  0
  1  2  2  0
  2  3  1  0
  3  4  2  0
  4  5  1  0
  5  6  1  0
  6  7  1  0
  6  8  1  0
  8  9  2  0
  8  3  1  0
  2 10  1  0
  4 11  1  0
  5 12  1  0
  5 13  1  0
  6 14  1  0
  7 15  1  0
M  END
