
     RDKit          3D

 21 21  0  0  0  0  0  0  0  0999 V2000
    3.6025   -0.2576    0.6321 O   0  0  0  0  0  0  0  0  0  0  0  0
    2.6581    0.1310   -0.0249 C   0  0  0  0  0  0  0  0  0  0  0  0
    1.2350    0.0031    0.4424 C   0  0  0  0  0  0  0  0  0  0  0  0
    0.6049    1.3407    0.2330 C   0  0  0  0  0  0  0  0  0  0  0  0
   -0.6190    1.6869   -0.1439 C   0  0  0  0  0  0  0  0  0  0  0  0
   -1.7416    0.7461   -0.4728 C   0  0  0  0  0  0  0  0  0  0  0  0
   -1.6405   -0.3971    0.4986 C   0  0  0  0  0  0  0  0  0  0  0  0
   -0.7426   -1.4926    0.0365 C   0  0  0  0  0  0  0  0  0  0  0  0
    0.6045   -1.0649   -0.4115 C   0  0  0  0  0  0  0  0  0  0  0  0
    2.7804    0.6032   -1.0071 H   0  0  0  0  0  0  0  0  0  0  0  0
    1.2524   -0.2377    1.5154 H   0  0  0  0  0  0  0  0  0  0  0  0
    1.2651    2.1939    0.4223 H   0  0  0  0  0  0  0  0  0  0  0  0
   -0.7825    2.7356   -0.2076 H   0  0  0  0  0  0  0  0  0  0  0  0
   -1.7584    0.4529   -1.5209 H   0  0  0  0  0  0  0  0  0  0  0  0
   -2.7126    1.2624   -0.2624 H   0  0  0  0  0  0  0  0  0  0  0  0
   -1.3581    0.0238    1.4801 H   0  0  0  0  0  0  0  0  0  0  0  0
   -2.6632   -0.8218    0.6306 H   0  0  0  0  0  0  0  0  0  0  0  0
   -1.2508   -1.9847   -0.8436 H   0  0  0  0  0  0  0  0  0  0  0  0
   -0.6890   -2.2565    0.8313 H   0  0  0  0  0  0  0  0  0  0  0  0
    1.2988   -1.9505   -0.3653 H   0  0  0  0  0  0  0  0  0  0  0  0
    0.6568   -0.7161   -1.4622 H   0  0  0  0  0  0  0  0  0  0  0  0
  1  2  2  0
  2  3  1  0
  3  4  1  0
  4  5  2  0
  5  6  1  0
  6  7  1  0
  7  8  1  0
  8  9  1  0
  9  3  1  0
  2 10  1  0
  3 11  1  0
  4 12  1  0
  5 13  1  0
  6 14  1  0
  6 15  1  0
  7 16  1  0
  7 17  1  0
  8 18  1  0
  8 19  1  0
  9 20  1  0
  9 21  1  0
M  END
