
     RDKit          3D

 16 16  0  0  0  0  0  0  0  0999 V2000
   -0.1910    2.6918    0.5220 O   0  0  0  0  0  0  0  0  0  0  0  0
   -0.8273    1.6948    0.2494 C   0  0  0  0  0  0  0  0  0  0  0  0
   -0.3269    0.6583   -0.6641 C   0  0  0  0  0  0  0  0  0  0  0  0
   -0.8574   -0.6994   -0.2913 C   0  0  0  0  0  0  0  0  0  0  0  0
   -1.7718   -0.7153    0.7561 O   0  0  0  0  0  0  0  0  0  0  0  0
    0.5313   -1.1736    0.0572 C   0  0  0  0  0  0  0  0  0  0  0  0
    1.0614    0.1509   -0.3995 C   0  0  0  0  0  0  0  0  0  0  0  0
    1.7609    0.7784    0.6153 O   0  0  0  0  0  0  0  0  0  0  0  0
   -1.8017    1.5599    0.6941 H   0  0  0  0  0  0  0  0  0  0  0  0
   -0.5292    0.8695   -1.7479 H   0  0  0  0  0  0  0  0  0  0  0  0
   -1.2371   -1.2910   -1.1540 H   0  0  0  0  0  0  0  0  0  0  0  0
   -1.6740   -1.4992    1.3491 H   0  0  0  0  0  0  0  0  0  0  0  0
    0.7030   -1.3907    1.1275 H   0  0  0  0  0  0  0  0  0  0  0  0
    0.9334   -1.9893   -0.5702 H   0  0  0  0  0  0  0  0  0  0  0  0
    1.6618    0.1337   -1.3399 H   0  0  0  0  0  0  0  0  0  0  0  0
    2.5644    0.2213    0.7962 H   0  0  0  0  0  0  0  0  0  0  0  0
  1  2  2  0
  2  3  1  0
  3  4  1  0
  4  5  1  0
  4  6  1  0
  6  7  1  0
  7  8  1  0
  7  3  1  0
  2  9  1  0
  3 10  1  0
  4 11  1  0
  5 12  1  0
  6 13  1  0
  6 14  1  0
  7 15  1  0
  8 16  1  0
M  END
