
     RDKit          3D

 17 17  0  0  0  0  0  0  0  0999 V2000
   -2.9636   -0.5774   -0.2263 O   0  0  0  0  0  0  0  0  0  0  0  0
   -1.8391   -1.0444   -0.2661 C   0  0  0  0  0  0  0  0  0  0  0  0
   -0.7326   -0.2602    0.2761 C   0  0  0  0  0  0  0  0  0  0  0  0
   -1.0644    1.1866    0.1440 C   0  0  0  0  0  0  0  0  0  0  0  0
    0.0196    1.8714   -0.1855 C   0  0  0  0  0  0  0  0  0  0  0  0
    1.1795    0.9318   -0.3028 C   0  0  0  0  0  0  0  0  0  0  0  0
    0.5672   -0.4494   -0.4582 C   0  0  0  0  0  0  0  0  0  0  0  0
    1.4749   -1.4139    0.1769 C   0  0  0  0  0  0  0  0  0  0  0  0
    2.3925   -1.8828   -0.4631 O   0  0  0  0  0  0  0  0  0  0  0  0
   -1.7414   -2.0377   -0.7150 H   0  0  0  0  0  0  0  0  0  0  0  0
   -0.5676   -0.5023    1.3340 H   0  0  0  0  0  0  0  0  0  0  0  0
   -2.0787    1.5578    0.3099 H   0  0  0  0  0  0  0  0  0  0  0  0
    0.0749    2.9253   -0.3456 H   0  0  0  0  0  0  0  0  0  0  0  0
    1.7911    1.1580   -1.1977 H   0  0  0  0  0  0  0  0  0  0  0  0
    1.7259    0.9642    0.6419 H   0  0  0  0  0  0  0  0  0  0  0  0
    0.4240   -0.7199   -1.5238 H   0  0  0  0  0  0  0  0  0  0  0  0
    1.3377   -1.7071    1.1927 H   0  0  0  0  0  0  0  0  0  0  0  0
  1  2  2  0
  2  3  1  0
  3  4  1  0
  4  5  2  0
  5  6  1  0
  6  7  1  0
  7  8  1  0
  8  9  2  0
  7  3  1  0
  2 10  1  0
  3 11  1  0
  4 12  1  0
  5 13  1  0
  6 14  1  0
  6 15  1  0
  7 16  1  0
  8 17  1  0
M  END
