
     RDKit          3D

 13 12  0  0  0  0  0  0  0  0999 V2000
    2.3984    0.8547   -0.2104 O   0  0  0  0  0  0  0  0  0  0  0  0
    1.8358   -0.1418    0.1694 C   0  0  0  0  0  0  0  0  0  0  0  0
    0.5167   -0.5329   -0.3689 C   0  0  0  0  0  0  0  0  0  0  0  0
   -0.5876    0.2506    0.3106 C   0  0  0  0  0  0  0  0  0  0  0  0
   -0.4942    1.6084    0.1605 O   0  0  0  0  0  0  0  0  0  0  0  0
   -1.8724   -0.2520   -0.2050 C   0  0  0  0  0  0  0  0  0  0  0  0
   -2.7555    0.4203   -0.7039 O   0  0  0  0  0  0  0  0  0  0  0  0
    2.3434   -0.7426    0.9283 H   0  0  0  0  0  0  0  0  0  0  0  0
    0.3519   -1.5997   -0.1199 H   0  0  0  0  0  0  0  0  0  0  0  0
    0.4548   -0.4448   -1.4733 H   0  0  0  0  0  0  0  0  0  0  0  0
   -0.5373   -0.0567    1.3932 H   0  0  0  0  0  0  0  0  0  0  0  0
    0.4068    1.9737    0.2585 H   0  0  0  0  0  0  0  0  0  0  0  0
   -2.0607   -1.3371   -0.1392 H   0  0  0  0  0  0  0  0  0  0  0  0
  1  2  2  0
  2  3  1  0
  3  4  1  0
  4  5  1  0
  4  6  1  0
  6  7  2  0
  2  8  1  0
  3  9  1  0
  3 10  1  0
  4 11  1  0
  5 12  1  0
  6 13  1  0
M  END
