
     RDKit          3D

 17 16  0  0  0  0  0  0  0  0999 V2000
   -2.9810    0.4524    0.6694 O   0  0  0  0  0  0  0  0  0  0  0  0
   -1.9679   -0.0378    1.1027 C   0  0  0  0  0  0  0  0  0  0  0  0
   -1.0500   -0.7535    0.1942 C   0  0  0  0  0  0  0  0  0  0  0  0
    0.2822   -0.1480    0.3023 C   0  0  0  0  0  0  0  0  0  0  0  0
    1.3841    0.3635    0.4109 C   0  0  0  0  0  0  0  0  0  0  0  0
    2.7183    0.9550    0.5380 C   0  0  0  0  0  0  0  0  0  0  0  0
    3.6148    0.0325    0.0089 O   0  0  0  0  0  0  0  0  0  0  0  0
   -1.5157   -0.6630   -1.2516 C   0  0  0  0  0  0  0  0  0  0  0  0
   -1.5662    0.6778   -1.6352 O   0  0  0  0  0  0  0  0  0  0  0  0
   -1.7300    0.0430    2.1438 H   0  0  0  0  0  0  0  0  0  0  0  0
   -0.9300   -1.8226    0.4594 H   0  0  0  0  0  0  0  0  0  0  0  0
    2.8144    1.8957   -0.0421 H   0  0  0  0  0  0  0  0  0  0  0  0
    2.9257    1.2011    1.5905 H   0  0  0  0  0  0  0  0  0  0  0  0
    3.6666   -0.7747    0.5831 H   0  0  0  0  0  0  0  0  0  0  0  0
   -0.6959   -1.1300   -1.8669 H   0  0  0  0  0  0  0  0  0  0  0  0
   -2.4527   -1.1875   -1.4178 H   0  0  0  0  0  0  0  0  0  0  0  0
   -2.5167    0.8962   -1.7896 H   0  0  0  0  0  0  0  0  0  0  0  0
  1  2  2  0
  2  3  1  0
  3  4  1  0
  4  5  3  0
  5  6  1  0
  6  7  1  0
  3  8  1  0
  8  9  1  0
  2 10  1  0
  3 11  1  0
  6 12  1  0
  6 13  1  0
  7 14  1  0
  8 15  1  0
  8 16  1  0
  9 17  1  0
M  END
