
     RDKit          3D

 19 20  0  0  0  0  0  0  0  0999 V2000
   -2.1058   -0.0618   -1.9537 O   0  0  0  0  0  0  0  0  0  0  0  0
   -1.6506    0.8911   -1.3039 C   0  0  0  0  0  0  0  0  0  0  0  0
   -1.4767    0.7761    0.1666 C   0  0  0  0  0  0  0  0  0  0  0  0
   -0.1909    0.0169    0.4833 C   0  0  0  0  0  0  0  0  0  0  0  0
    1.0476    0.6627   -0.0464 C   0  0  0  0  0  0  0  0  0  0  0  0
    2.3745    0.1502    0.1160 C   0  0  0  0  0  0  0  0  0  0  0  0
    1.9416    1.1413    0.9968 O   0  0  0  0  0  0  0  0  0  0  0  0
   -0.1938   -0.9143    1.6180 C   0  0  0  0  0  0  0  0  0  0  0  0
   -0.2327   -1.4918    0.2471 C   0  0  0  0  0  0  0  0  0  0  0  0
   -1.3968    1.7854   -1.8693 H   0  0  0  0  0  0  0  0  0  0  0  0
   -2.3644    0.2379    0.5940 H   0  0  0  0  0  0  0  0  0  0  0  0
   -1.4617    1.7720    0.6203 H   0  0  0  0  0  0  0  0  0  0  0  0
    0.9031    1.4765   -0.7848 H   0  0  0  0  0  0  0  0  0  0  0  0
    2.6022   -0.8609    0.5589 H   0  0  0  0  0  0  0  0  0  0  0  0
    3.1498    0.4365   -0.6272 H   0  0  0  0  0  0  0  0  0  0  0  0
   -1.1482   -0.9336    2.2240 H   0  0  0  0  0  0  0  0  0  0  0  0
    0.6742   -1.1474    2.2372 H   0  0  0  0  0  0  0  0  0  0  0  0
    0.6920   -1.9980   -0.1213 H   0  0  0  0  0  0  0  0  0  0  0  0
   -1.1635   -1.9389   -0.1524 H   0  0  0  0  0  0  0  0  0  0  0  0
  1  2  2  0
  2  3  1  0
  3  4  1  0
  4  5  1  0
  5  6  1  0
  6  7  1  0
  4  8  1  0
  8  9  1  0
  9  4  1  0
  7  5  1  0
  2 10  1  0
  3 11  1  0
  3 12  1  0
  5 13  1  0
  6 14  1  0
  6 15  1  0
  8 16  1  0
  8 17  1  0
  9 18  1  0
  9 19  1  0
M  END
