
     RDKit          3D

 15 15  0  0  0  0  0  0  0  0999 V2000
   -2.6382    1.5577   -0.3951 O   0  0  0  0  0  0  0  0  0  0  0  0
   -1.5232    1.3882   -0.8808 C   0  0  0  0  0  0  0  0  0  0  0  0
   -0.6900    0.2809   -0.2981 C   0  0  0  0  0  0  0  0  0  0  0  0
    0.6254    0.1164   -0.9125 C   0  0  0  0  0  0  0  0  0  0  0  0
    0.8103    0.6205   -2.0343 O   0  0  0  0  0  0  0  0  0  0  0  0
    1.7870   -0.6043   -0.3258 C   0  0  0  0  0  0  0  0  0  0  0  0
    1.5344   -1.1265    0.9360 O   0  0  0  0  0  0  0  0  0  0  0  0
   -1.1581   -0.3322    0.9028 C   0  0  0  0  0  0  0  0  0  0  0  0
   -1.4021   -1.0299   -0.3905 O   0  0  0  0  0  0  0  0  0  0  0  0
   -1.2310    2.0306   -1.6708 H   0  0  0  0  0  0  0  0  0  0  0  0
    2.1539   -1.4104   -1.0260 H   0  0  0  0  0  0  0  0  0  0  0  0
    2.6565    0.0781   -0.2261 H   0  0  0  0  0  0  0  0  0  0  0  0
    1.9278   -0.5702    1.6659 H   0  0  0  0  0  0  0  0  0  0  0  0
   -2.1900   -0.0353    1.2593 H   0  0  0  0  0  0  0  0  0  0  0  0
   -0.6629   -0.9635    1.6236 H   0  0  0  0  0  0  0  0  0  0  0  0
  1  2  2  0
  2  3  1  0
  3  4  1  0
  4  5  2  0
  4  6  1  0
  6  7  1  0
  3  8  1  0
  8  9  1  0
  9  3  1  0
  2 10  1  0
  6 11  1  0
  6 12  1  0
  7 13  1  0
  8 14  1  0
  8 15  1  0
M  END
