
     RDKit          3D

 19 19  0  0  0  0  0  0  0  0999 V2000
    3.0027    0.4265   -1.6564 O   0  0  0  0  0  0  0  0  0  0  0  0
    2.8805    0.6295   -0.4615 C   0  0  0  0  0  0  0  0  0  0  0  0
    1.6066    0.4120    0.2843 C   0  0  0  0  0  0  0  0  0  0  0  0
    0.6097   -0.0415   -0.5532 O   0  0  0  0  0  0  0  0  0  0  0  0
   -0.5964   -0.2963    0.0579 C   0  0  0  0  0  0  0  0  0  0  0  0
   -1.3553    0.8009    0.7750 C   0  0  0  0  0  0  0  0  0  0  0  0
   -0.7081    1.3728    1.8292 O   0  0  0  0  0  0  0  0  0  0  0  0
   -0.8287   -1.7070    0.4954 C   0  0  0  0  0  0  0  0  0  0  0  0
   -1.5678   -1.2228   -0.7185 C   0  0  0  0  0  0  0  0  0  0  0  0
    3.7473    0.9869    0.0824 H   0  0  0  0  0  0  0  0  0  0  0  0
    1.2820    1.3965    0.7294 H   0  0  0  0  0  0  0  0  0  0  0  0
    1.8051   -0.2607    1.1218 H   0  0  0  0  0  0  0  0  0  0  0  0
   -1.5116    1.6141    0.0052 H   0  0  0  0  0  0  0  0  0  0  0  0
   -2.3704    0.4622    1.0486 H   0  0  0  0  0  0  0  0  0  0  0  0
   -0.7233    2.3631    1.8208 H   0  0  0  0  0  0  0  0  0  0  0  0
   -0.0270   -2.4347    0.2678 H   0  0  0  0  0  0  0  0  0  0  0  0
   -1.3828   -1.8860    1.4346 H   0  0  0  0  0  0  0  0  0  0  0  0
   -1.2212   -1.5117   -1.7274 H   0  0  0  0  0  0  0  0  0  0  0  0
   -2.6414   -1.1038   -0.5804 H   0  0  0  0  0  0  0  0  0  0  0  0
  1  2  2  0
  2  3  1  0
  3  4  1  0
  4  5  1  0
  5  6  1  0
  6  7  1  0
  5  8  1  0
  8  9  1  0
  9  5  1  0
  2 10  1  0
  3 11  1  0
  3 12  1  0
  6 13  1  0
  6 14  1  0
  7 15  1  0
  8 16  1  0
  8 17  1  0
  9 18  1  0
  9 19  1  0
M  END
