
     RDKit          3D

 17 17  0  0  0  0  0  0  0  0999 V2000
   -0.7939    2.2239    0.2575 O   0  0  0  0  0  0  0  0  0  0  0  0
   -1.4372    1.3197   -0.1867 C   0  0  0  0  0  0  0  0  0  0  0  0
   -1.1540   -0.1254   -0.0903 C   0  0  0  0  0  0  0  0  0  0  0  0
   -2.1955   -0.7842   -0.8566 O   0  0  0  0  0  0  0  0  0  0  0  0
    0.1466   -0.5470   -0.6243 C   0  0  0  0  0  0  0  0  0  0  0  0
    0.1943   -1.9837   -0.6976 O   0  0  0  0  0  0  0  0  0  0  0  0
    1.4010   -0.2021    0.0810 C   0  0  0  0  0  0  0  0  0  0  0  0
    1.5934    0.6899    1.2032 C   0  0  0  0  0  0  0  0  0  0  0  0
    1.6966   -0.7851    1.3145 O   0  0  0  0  0  0  0  0  0  0  0  0
   -2.3481    1.6325   -0.7299 H   0  0  0  0  0  0  0  0  0  0  0  0
   -1.3153   -0.4617    0.9320 H   0  0  0  0  0  0  0  0  0  0  0  0
   -2.3514   -0.2690   -1.6824 H   0  0  0  0  0  0  0  0  0  0  0  0
    0.2065   -0.2318   -1.6960 H   0  0  0  0  0  0  0  0  0  0  0  0
    0.5978   -2.3404    0.1207 H   0  0  0  0  0  0  0  0  0  0  0  0
    2.3001   -0.2931   -0.6131 H   0  0  0  0  0  0  0  0  0  0  0  0
    0.8268    1.0794    1.8732 H   0  0  0  0  0  0  0  0  0  0  0  0
    2.6323    1.0781    1.3949 H   0  0  0  0  0  0  0  0  0  0  0  0
  1  2  2  0
  2  3  1  0
  3  4  1  0
  3  5  1  0
  5  6  1  0
  5  7  1  0
  7  8  1  0
  8  9  1  0
  9  7  1  0
  2 10  1  0
  3 11  1  0
  4 12  1  0
  5 13  1  0
  6 14  1  0
  7 15  1  0
  8 16  1  0
  8 17  1  0
M  END
