
     RDKit          3D

 17 20  0  0  0  0  0  0  0  0999 V2000
    2.1410   -1.1478    0.2011 O   0  0  0  0  0  0  0  0  0  0  0  0
    2.3839    0.0339    0.0598 C   0  0  0  0  0  0  0  0  0  0  0  0
    1.2227    0.9481   -0.1385 C   0  0  0  0  0  0  0  0  0  0  0  0
    0.0334    0.3340   -0.1351 C   0  0  0  0  0  0  0  0  0  0  0  0
   -1.4492    0.7676   -0.2906 C   0  0  0  0  0  0  0  0  0  0  0  0
   -1.2538   -0.1742   -0.9855 C   0  0  0  0  0  0  0  0  0  0  0  0
   -1.9195   -0.8244   -0.2818 C   0  0  0  0  0  0  0  0  0  0  0  0
   -0.3593   -1.2365   -0.1080 C   0  0  0  0  0  0  0  0  0  0  0  0
   -0.6602   -0.3437    0.5808 C   0  0  0  0  0  0  0  0  0  0  0  0
    3.4041    0.4253    0.0750 H   0  0  0  0  0  0  0  0  0  0  0  0
    1.3411    1.7148    0.6931 H   0  0  0  0  0  0  0  0  0  0  0  0
    1.4578    1.5755   -1.0546 H   0  0  0  0  0  0  0  0  0  0  0  0
   -1.8984    1.3184    0.5453 H   0  0  0  0  0  0  0  0  0  0  0  0
   -0.5889   -0.3836   -1.8196 H   0  0  0  0  0  0  0  0  0  0  0  0
   -2.5560   -1.0645    0.5698 H   0  0  0  0  0  0  0  0  0  0  0  0
    0.0243   -1.7911   -0.9799 H   0  0  0  0  0  0  0  0  0  0  0  0
   -1.3232   -0.1519    1.4131 H   0  0  0  0  0  0  0  0  0  0  0  0
  1  2  2  0
  2  3  1  0
  3  4  1  0
  4  5  1  0
  5  6  1  0
  6  7  1  0
  7  8  1  0
  8  9  1  0
  8  4  1  0
  9  4  1  0
  7  5  1  0
  9  6  1  0
  2 10  1  0
  3 11  1  0
  3 12  1  0
  5 13  1  0
  6 14  1  0
  7 15  1  0
  8 16  1  0
  9 17  1  0
M  END
