
     RDKit          3D

 19 20  0  0  0  0  0  0  0  0999 V2000
    2.8533    0.9340   -1.3737 O   0  0  0  0  0  0  0  0  0  0  0  0
    2.2010    0.6264   -0.3752 C   0  0  0  0  0  0  0  0  0  0  0  0
    0.8029    0.2028   -0.5398 C   0  0  0  0  0  0  0  0  0  0  0  0
   -0.1030    1.1399    0.2884 C   0  0  0  0  0  0  0  0  0  0  0  0
   -0.5106    2.2199   -0.4567 O   0  0  0  0  0  0  0  0  0  0  0  0
   -1.2928    0.2444    0.6925 C   0  0  0  0  0  0  0  0  0  0  0  0
   -1.0951   -0.8911   -0.2260 C   0  0  0  0  0  0  0  0  0  0  0  0
   -0.4305   -2.1257   -0.1517 C   0  0  0  0  0  0  0  0  0  0  0  0
    0.4403   -1.0645    0.1281 C   0  0  0  0  0  0  0  0  0  0  0  0
    2.6145    0.6544    0.6253 H   0  0  0  0  0  0  0  0  0  0  0  0
    0.4375    0.2673   -1.5688 H   0  0  0  0  0  0  0  0  0  0  0  0
    0.4531    1.4075    1.2019 H   0  0  0  0  0  0  0  0  0  0  0  0
   -1.2770    2.6303    0.0302 H   0  0  0  0  0  0  0  0  0  0  0  0
   -1.2568   -0.0240    1.7474 H   0  0  0  0  0  0  0  0  0  0  0  0
   -2.2123    0.8253    0.4369 H   0  0  0  0  0  0  0  0  0  0  0  0
   -1.3096   -0.5357   -1.2829 H   0  0  0  0  0  0  0  0  0  0  0  0
   -0.2568   -2.7341   -1.0768 H   0  0  0  0  0  0  0  0  0  0  0  0
   -0.7465   -2.8367    0.6683 H   0  0  0  0  0  0  0  0  0  0  0  0
    0.6882   -0.9402    1.2328 H   0  0  0  0  0  0  0  0  0  0  0  0
  1  2  2  0
  2  3  1  0
  3  4  1  0
  4  5  1  0
  4  6  1  0
  6  7  1  0
  7  8  1  0
  8  9  1  0
  9  3  1  0
  9  7  1  0
  2 10  1  0
  3 11  1  0
  4 12  1  0
  5 13  1  0
  6 14  1  0
  6 15  1  0
  7 16  1  0
  8 17  1  0
  8 18  1  0
  9 19  1  0
M  END
