
     RDKit          3D

 21 21  0  0  0  0  0  0  0  0999 V2000
    3.1145   -1.3973    1.1937 O   0  0  0  0  0  0  0  0  0  0  0  0
    2.8561   -0.7822    0.1702 C   0  0  0  0  0  0  0  0  0  0  0  0
    1.4545   -0.5383   -0.2722 C   0  0  0  0  0  0  0  0  0  0  0  0
    1.4959    0.1668   -1.4356 O   0  0  0  0  0  0  0  0  0  0  0  0
    0.7101    0.0807    0.8480 C   0  0  0  0  0  0  0  0  0  0  0  0
   -0.7048    0.4101    0.6322 C   0  0  0  0  0  0  0  0  0  0  0  0
   -1.6344   -0.7353    0.2847 C   0  0  0  0  0  0  0  0  0  0  0  0
   -2.5004    0.3559   -0.3677 C   0  0  0  0  0  0  0  0  0  0  0  0
   -1.1530    1.0559   -0.6311 C   0  0  0  0  0  0  0  0  0  0  0  0
    3.7048   -0.4240   -0.3977 H   0  0  0  0  0  0  0  0  0  0  0  0
    1.0091   -1.5628   -0.4467 H   0  0  0  0  0  0  0  0  0  0  0  0
    2.2326    0.8259   -1.4967 H   0  0  0  0  0  0  0  0  0  0  0  0
    0.7592   -0.6230    1.7165 H   0  0  0  0  0  0  0  0  0  0  0  0
    1.2443    0.9945    1.1812 H   0  0  0  0  0  0  0  0  0  0  0  0
   -1.1214    0.9481    1.5109 H   0  0  0  0  0  0  0  0  0  0  0  0
   -2.1170   -1.2250    1.1383 H   0  0  0  0  0  0  0  0  0  0  0  0
   -1.2380   -1.3956   -0.5108 H   0  0  0  0  0  0  0  0  0  0  0  0
   -3.0249    0.0434   -1.2661 H   0  0  0  0  0  0  0  0  0  0  0  0
   -3.0688    0.9586    0.3609 H   0  0  0  0  0  0  0  0  0  0  0  0
   -1.2398    2.1618   -0.6339 H   0  0  0  0  0  0  0  0  0  0  0  0
   -0.7787    0.6816   -1.5782 H   0  0  0  0  0  0  0  0  0  0  0  0
  1  2  2  0
  2  3  1  0
  3  4  1  0
  3  5  1  0
  5  6  1  0
  6  7  1  0
  7  8  1  0
  8  9  1  0
  9  6  1  0
  2 10  1  0
  3 11  1  0
  4 12  1  0
  5 13  1  0
  5 14  1  0
  6 15  1  0
  7 16  1  0
  7 17  1  0
  8 18  1  0
  8 19  1  0
  9 20  1  0
  9 21  1  0
M  END
