
     RDKit          3D

 19 18  0  0  0  0  0  0  0  0999 V2000
    3.6319   -0.7042   -0.7619 O   0  0  0  0  0  0  0  0  0  0  0  0
    2.9899   -0.2865    0.1829 C   0  0  0  0  0  0  0  0  0  0  0  0
    1.6173    0.3011   -0.0442 C   0  0  0  0  0  0  0  0  0  0  0  0
    1.3570    0.2337   -1.4026 O   0  0  0  0  0  0  0  0  0  0  0  0
    0.6933   -0.4906    0.8219 C   0  0  0  0  0  0  0  0  0  0  0  0
   -0.6227   -0.1712    0.8150 O   0  0  0  0  0  0  0  0  0  0  0  0
   -1.2795   -0.2681   -0.3905 C   0  0  0  0  0  0  0  0  0  0  0  0
   -2.7612    0.0748   -0.2432 C   0  0  0  0  0  0  0  0  0  0  0  0
   -2.9143    1.3818    0.2308 O   0  0  0  0  0  0  0  0  0  0  0  0
    3.3675   -0.3177    1.2048 H   0  0  0  0  0  0  0  0  0  0  0  0
    1.6266    1.3872    0.2066 H   0  0  0  0  0  0  0  0  0  0  0  0
    2.2145    0.3367   -1.9250 H   0  0  0  0  0  0  0  0  0  0  0  0
    1.1322   -0.4315    1.8659 H   0  0  0  0  0  0  0  0  0  0  0  0
    0.8306   -1.5618    0.5182 H   0  0  0  0  0  0  0  0  0  0  0  0
   -0.8519    0.4961   -1.0708 H   0  0  0  0  0  0  0  0  0  0  0  0
   -1.1833   -1.2464   -0.8524 H   0  0  0  0  0  0  0  0  0  0  0  0
   -3.1621   -0.6155    0.5115 H   0  0  0  0  0  0  0  0  0  0  0  0
   -3.2326   -0.0376   -1.2413 H   0  0  0  0  0  0  0  0  0  0  0  0
   -3.4533    1.9196   -0.4058 H   0  0  0  0  0  0  0  0  0  0  0  0
  1  2  2  0
  2  3  1  0
  3  4  1  0
  3  5  1  0
  5  6  1  0
  6  7  1  0
  7  8  1  0
  8  9  1  0
  2 10  1  0
  3 11  1  0
  4 12  1  0
  5 13  1  0
  5 14  1  0
  7 15  1  0
  7 16  1  0
  8 17  1  0
  8 18  1  0
  9 19  1  0
M  END
