
     RDKit          3D

 19 19  0  0  0  0  0  0  0  0999 V2000
   -1.3588    2.5433   -0.3303 O   0  0  0  0  0  0  0  0  0  0  0  0
   -0.5977    1.6971    0.0955 C   0  0  0  0  0  0  0  0  0  0  0  0
   -0.1656    0.6197   -0.8252 C   0  0  0  0  0  0  0  0  0  0  0  0
   -1.2964   -0.4199   -0.8339 C   0  0  0  0  0  0  0  0  0  0  0  0
   -1.0855   -1.1930    0.4477 C   0  0  0  0  0  0  0  0  0  0  0  0
    0.2939   -0.8467    0.9480 C   0  0  0  0  0  0  0  0  0  0  0  0
    0.9486   -0.2050   -0.2385 C   0  0  0  0  0  0  0  0  0  0  0  0
    2.1594    0.5539    0.0704 C   0  0  0  0  0  0  0  0  0  0  0  0
    3.2207   -0.0627    0.1434 O   0  0  0  0  0  0  0  0  0  0  0  0
   -0.2727    1.7697    1.1223 H   0  0  0  0  0  0  0  0  0  0  0  0
    0.0413    1.0101   -1.8256 H   0  0  0  0  0  0  0  0  0  0  0  0
   -2.2411    0.1191   -0.8796 H   0  0  0  0  0  0  0  0  0  0  0  0
   -1.1226   -1.0821   -1.7225 H   0  0  0  0  0  0  0  0  0  0  0  0
   -1.0931   -2.2809    0.2301 H   0  0  0  0  0  0  0  0  0  0  0  0
   -1.8854   -0.9405    1.1884 H   0  0  0  0  0  0  0  0  0  0  0  0
    0.8428   -1.7397    1.3142 H   0  0  0  0  0  0  0  0  0  0  0  0
    0.2235   -0.1584    1.8222 H   0  0  0  0  0  0  0  0  0  0  0  0
    1.1867   -1.0091   -0.9691 H   0  0  0  0  0  0  0  0  0  0  0  0
    2.2018    1.6248    0.2425 H   0  0  0  0  0  0  0  0  0  0  0  0
  1  2  2  0
  2  3  1  0
  3  4  1  0
  4  5  1  0
  5  6  1  0
  6  7  1  0
  7  8  1  0
  8  9  2  0
  7  3  1  0
  2 10  1  0
  3 11  1  0
  4 12  1  0
  4 13  1  0
  5 14  1  0
  5 15  1  0
  6 16  1  0
  6 17  1  0
  7 18  1  0
  8 19  1  0
M  END
