
     RDKit          3D

 16 16  0  0  0  0  0  0  0  0999 V2000
   -2.8703    1.1812   -0.5619 O   0  0  0  0  0  0  0  0  0  0  0  0
   -2.7935   -0.0289   -0.5128 C   0  0  0  0  0  0  0  0  0  0  0  0
   -1.4960   -0.7115   -0.2478 C   0  0  0  0  0  0  0  0  0  0  0  0
   -0.5327    0.2344   -0.0930 O   0  0  0  0  0  0  0  0  0  0  0  0
    0.7239   -0.1761    0.1561 C   0  0  0  0  0  0  0  0  0  0  0  0
    1.8457    0.4218   -0.6526 C   0  0  0  0  0  0  0  0  0  0  0  0
    2.6680    0.1960    0.4753 O   0  0  0  0  0  0  0  0  0  0  0  0
    1.5097    0.4759    1.2414 C   0  0  0  0  0  0  0  0  0  0  0  0
   -3.7166   -0.5794   -0.6717 H   0  0  0  0  0  0  0  0  0  0  0  0
   -1.3040   -1.3571   -1.1388 H   0  0  0  0  0  0  0  0  0  0  0  0
   -1.6467   -1.3732    0.6237 H   0  0  0  0  0  0  0  0  0  0  0  0
    0.8186   -1.2716    0.2054 H   0  0  0  0  0  0  0  0  0  0  0  0
    1.6998    1.5235   -0.7477 H   0  0  0  0  0  0  0  0  0  0  0  0
    2.1434   -0.1054   -1.5581 H   0  0  0  0  0  0  0  0  0  0  0  0
    1.5364   -0.0187    2.2203 H   0  0  0  0  0  0  0  0  0  0  0  0
    1.4144    1.5892    1.2906 H   0  0  0  0  0  0  0  0  0  0  0  0
  1  2  2  0
  2  3  1  0
  3  4  1  0
  4  5  1  0
  5  6  1  0
  6  7  1  0
  7  8  1  0
  8  5  1  0
  2  9  1  0
  3 10  1  0
  3 11  1  0
  5 12  1  0
  6 13  1  0
  6 14  1  0
  8 15  1  0
  8 16  1  0
M  END
