
     RDKit          3D

 19 20  0  0  0  0  0  0  0  0999 V2000
   -2.8037    1.0174   -0.3144 O   0  0  0  0  0  0  0  0  0  0  0  0
   -1.6359    1.3444   -0.4385 C   0  0  0  0  0  0  0  0  0  0  0  0
   -0.5966    0.4136   -0.1842 C   0  0  0  0  0  0  0  0  0  0  0  0
   -0.3217   -0.0236    1.2483 C   0  0  0  0  0  0  0  0  0  0  0  0
    0.2837   -1.2462    0.5543 C   0  0  0  0  0  0  0  0  0  0  0  0
    1.4221   -0.7105   -0.2517 C   0  0  0  0  0  0  0  0  0  0  0  0
    0.7856    0.6188   -0.7085 C   0  0  0  0  0  0  0  0  0  0  0  0
    1.3572    1.6835   -0.0154 O   0  0  0  0  0  0  0  0  0  0  0  0
   -0.8873   -1.0769   -0.4217 C   0  0  0  0  0  0  0  0  0  0  0  0
   -1.4468    2.3650   -0.7474 H   0  0  0  0  0  0  0  0  0  0  0  0
   -1.2206   -0.3377    1.8142 H   0  0  0  0  0  0  0  0  0  0  0  0
    0.3963    0.6041    1.7868 H   0  0  0  0  0  0  0  0  0  0  0  0
    0.3574   -2.1486    1.0944 H   0  0  0  0  0  0  0  0  0  0  0  0
    1.5686   -1.3097   -1.1832 H   0  0  0  0  0  0  0  0  0  0  0  0
    2.3402   -0.5247    0.3063 H   0  0  0  0  0  0  0  0  0  0  0  0
    0.8712    0.7653   -1.7777 H   0  0  0  0  0  0  0  0  0  0  0  0
    2.0204    1.3861    0.6469 H   0  0  0  0  0  0  0  0  0  0  0  0
   -1.8378   -1.3869    0.0182 H   0  0  0  0  0  0  0  0  0  0  0  0
   -0.6522   -1.4334   -1.4266 H   0  0  0  0  0  0  0  0  0  0  0  0
  1  2  2  0
  2  3  1  0
  3  4  1  0
  4  5  1  0
  5  6  1  0
  6  7  1  0
  7  8  1  0
  5  9  1  0
  7  3  1  0
  9  3  1  0
  2 10  1  0
  4 11  1  0
  4 12  1  0
  5 13  1  0
  6 14  1  0
  6 15  1  0
  7 16  1  0
  8 17  1  0
  9 18  1  0
  9 19  1  0
M  END
