
     RDKit          3D

 15 16  0  0  0  0  0  0  0  0999 V2000
   -2.0761   -1.2636   -0.8719 O   0  0  0  0  0  0  0  0  0  0  0  0
   -1.3477   -1.3109    0.0848 C   0  0  0  0  0  0  0  0  0  0  0  0
   -0.2374   -0.3753    0.2470 C   0  0  0  0  0  0  0  0  0  0  0  0
   -0.5757    1.0180    0.6958 C   0  0  0  0  0  0  0  0  0  0  0  0
    0.2928    1.6235   -0.3096 C   0  0  0  0  0  0  0  0  0  0  0  0
    0.7821    2.6968   -0.5173 O   0  0  0  0  0  0  0  0  0  0  0  0
    0.3346    0.3239   -1.0091 C   0  0  0  0  0  0  0  0  0  0  0  0
    1.0729   -0.7386   -0.3028 C   0  0  0  0  0  0  0  0  0  0  0  0
    2.2614   -0.3185    0.3202 O   0  0  0  0  0  0  0  0  0  0  0  0
   -1.5111   -2.0616    0.8497 H   0  0  0  0  0  0  0  0  0  0  0  0
   -1.6544    1.2580    0.4865 H   0  0  0  0  0  0  0  0  0  0  0  0
   -0.3695    1.2345    1.7529 H   0  0  0  0  0  0  0  0  0  0  0  0
   -0.2925    0.1449   -1.8942 H   0  0  0  0  0  0  0  0  0  0  0  0
    1.1608   -1.7014   -0.8038 H   0  0  0  0  0  0  0  0  0  0  0  0
    2.1600   -0.5298    1.2718 H   0  0  0  0  0  0  0  0  0  0  0  0
  1  2  2  0
  2  3  1  0
  3  4  1  0
  4  5  1  0
  5  6  2  0
  5  7  1  0
  7  8  1  0
  8  9  1  0
  7  3  1  0
  8  3  1  0
  2 10  1  0
  4 11  1  0
  4 12  1  0
  7 13  1  0
  8 14  1  0
  9 15  1  0
M  END
