
     RDKit          3D

 19 19  0  0  0  0  0  0  0  0999 V2000
   -2.4980    0.7409   -1.7203 O   0  0  0  0  0  0  0  0  0  0  0  0
   -2.0459    0.5167   -0.6301 C   0  0  0  0  0  0  0  0  0  0  0  0
   -1.0222   -0.5340   -0.3737 C   0  0  0  0  0  0  0  0  0  0  0  0
   -1.6149   -1.6077    0.4348 C   0  0  0  0  0  0  0  0  0  0  0  0
   -1.0269   -2.3027    1.2331 O   0  0  0  0  0  0  0  0  0  0  0  0
    0.1570    0.1359    0.2771 C   0  0  0  0  0  0  0  0  0  0  0  0
    0.6991    1.1992   -0.6651 C   0  0  0  0  0  0  0  0  0  0  0  0
    2.0846    0.6930   -0.4019 C   0  0  0  0  0  0  0  0  0  0  0  0
    1.4635   -0.5715    0.1941 C   0  0  0  0  0  0  0  0  0  0  0  0
   -2.3859    1.0997    0.2377 H   0  0  0  0  0  0  0  0  0  0  0  0
   -0.7002   -0.9775   -1.3472 H   0  0  0  0  0  0  0  0  0  0  0  0
   -2.6762   -1.7938    0.3037 H   0  0  0  0  0  0  0  0  0  0  0  0
   -0.0665    0.5170    1.2894 H   0  0  0  0  0  0  0  0  0  0  0  0
    0.3993    1.0496   -1.7356 H   0  0  0  0  0  0  0  0  0  0  0  0
    0.4888    2.2322   -0.3414 H   0  0  0  0  0  0  0  0  0  0  0  0
    2.6476    0.4829   -1.3506 H   0  0  0  0  0  0  0  0  0  0  0  0
    2.6066    1.3343    0.3228 H   0  0  0  0  0  0  0  0  0  0  0  0
    1.5107   -1.4523   -0.4824 H   0  0  0  0  0  0  0  0  0  0  0  0
    1.9793   -0.7620    1.1734 H   0  0  0  0  0  0  0  0  0  0  0  0
  1  2  2  0
  2  3  1  0
  3  4  1  0
  4  5  2  0
  3  6  1  0
  6  7  1  0
  7  8  1  0
  8  9  1  0
  9  6  1  0
  2 10  1  0
  3 11  1  0
  4 12  1  0
  6 13  1  0
  7 14  1  0
  7 15  1  0
  8 16  1  0
  8 17  1  0
  9 18  1  0
  9 19  1  0
M  END
