
     RDKit          3D

 15 14  0  0  0  0  0  0  0  0999 V2000
    3.1230   -0.6066   -1.9903 O   0  0  0  0  0  0  0  0  0  0  0  0
    3.4421   -0.1809   -0.8673 C   0  0  0  0  0  0  0  0  0  0  0  0
    2.4197    0.1829    0.0856 C   0  0  0  0  0  0  0  0  0  0  0  0
    2.7189    0.6219    1.2433 O   0  0  0  0  0  0  0  0  0  0  0  0
    1.0124    0.0806   -0.1908 C   0  0  0  0  0  0  0  0  0  0  0  0
   -0.1809    0.0075   -0.4084 C   0  0  0  0  0  0  0  0  0  0  0  0
   -1.6185   -0.0815   -0.6447 C   0  0  0  0  0  0  0  0  0  0  0  0
   -2.4082    0.2302    0.6116 C   0  0  0  0  0  0  0  0  0  0  0  0
   -2.0451   -0.6957    1.5894 O   0  0  0  0  0  0  0  0  0  0  0  0
    4.4695   -0.0813   -0.6000 H   0  0  0  0  0  0  0  0  0  0  0  0
   -1.9230    0.6518   -1.4270 H   0  0  0  0  0  0  0  0  0  0  0  0
   -1.9256   -1.1113   -0.9560 H   0  0  0  0  0  0  0  0  0  0  0  0
   -3.4793    0.0659    0.3463 H   0  0  0  0  0  0  0  0  0  0  0  0
   -2.2085    1.2505    0.9711 H   0  0  0  0  0  0  0  0  0  0  0  0
   -1.3968   -0.3340    2.2374 H   0  0  0  0  0  0  0  0  0  0  0  0
  1  2  2  0
  2  3  1  0
  3  4  2  0
  3  5  1  0
  5  6  3  0
  6  7  1  0
  7  8  1  0
  8  9  1  0
  2 10  1  0
  7 11  1  0
  7 12  1  0
  8 13  1  0
  8 14  1  0
  9 15  1  0
M  END
