
     RDKit          3D

 15 16  0  0  0  0  0  0  0  0999 V2000
   -2.9873   -0.5433    0.2201 O   0  0  0  0  0  0  0  0  0  0  0  0
   -2.1440   -0.2146   -0.6036 C   0  0  0  0  0  0  0  0  0  0  0  0
   -0.8226   -0.0624   -0.3215 C   0  0  0  0  0  0  0  0  0  0  0  0
    0.1146   -1.0880    0.2383 C   0  0  0  0  0  0  0  0  0  0  0  0
    0.8919    0.1576    0.0363 C   0  0  0  0  0  0  0  0  0  0  0  0
    2.2233    0.3686    0.2132 C   0  0  0  0  0  0  0  0  0  0  0  0
    2.8085    0.2369    1.2773 O   0  0  0  0  0  0  0  0  0  0  0  0
   -0.2369    0.9087    0.6779 C   0  0  0  0  0  0  0  0  0  0  0  0
    0.1928    0.2983   -1.1613 O   0  0  0  0  0  0  0  0  0  0  0  0
   -2.5668   -0.0504   -1.6163 H   0  0  0  0  0  0  0  0  0  0  0  0
    0.4238   -1.9029   -0.4478 H   0  0  0  0  0  0  0  0  0  0  0  0
   -0.0706   -1.4291    1.2620 H   0  0  0  0  0  0  0  0  0  0  0  0
    2.8891    0.6828   -0.6147 H   0  0  0  0  0  0  0  0  0  0  0  0
   -0.3928    0.6604    1.7294 H   0  0  0  0  0  0  0  0  0  0  0  0
   -0.3231    1.9774    0.3947 H   0  0  0  0  0  0  0  0  0  0  0  0
  1  2  2  0
  2  3  1  0
  3  4  1  0
  4  5  1  0
  5  6  1  0
  6  7  2  0
  5  8  1  0
  5  9  1  0
  8  3  1  0
  9  3  1  0
  2 10  1  0
  4 11  1  0
  4 12  1  0
  6 13  1  0
  8 14  1  0
  8 15  1  0
M  END
