
     RDKit          3D

 14 14  0  0  0  0  0  0  0  0999 V2000
    1.4987   -1.6085    1.1804 O   0  0  0  0  0  0  0  0  0  0  0  0
    1.8451   -0.8231    0.3402 C   0  0  0  0  0  0  0  0  0  0  0  0
    0.9727    0.1809   -0.3146 C   0  0  0  0  0  0  0  0  0  0  0  0
   -0.4410    0.1442    0.1703 C   0  0  0  0  0  0  0  0  0  0  0  0
   -1.1845   -1.1120   -0.0124 C   0  0  0  0  0  0  0  0  0  0  0  0
   -2.3422   -1.1566    0.3775 O   0  0  0  0  0  0  0  0  0  0  0  0
   -1.1978    1.4635   -0.0320 C   0  0  0  0  0  0  0  0  0  0  0  0
   -0.8691    0.9539    1.2017 O   0  0  0  0  0  0  0  0  0  0  0  0
    2.8838   -0.8462    0.0304 H   0  0  0  0  0  0  0  0  0  0  0  0
    0.9634   -0.0675   -1.4011 H   0  0  0  0  0  0  0  0  0  0  0  0
    1.4205    1.1708   -0.1643 H   0  0  0  0  0  0  0  0  0  0  0  0
   -0.6903   -1.9386   -0.4771 H   0  0  0  0  0  0  0  0  0  0  0  0
   -2.2097    1.3198   -0.4424 H   0  0  0  0  0  0  0  0  0  0  0  0
   -0.6495    2.3194   -0.4566 H   0  0  0  0  0  0  0  0  0  0  0  0
  1  2  2  0
  2  3  1  0
  3  4  1  0
  4  5  1  0
  5  6  2  0
  4  7  1  0
  7  8  1  0
  8  4  1  0
  2  9  1  0
  3 10  1  0
  3 11  1  0
  5 12  1  0
  7 13  1  0
  7 14  1  0
M  END
