
     RDKit          3D

 17 18  0  0  0  0  0  0  0  0999 V2000
    2.7822   -0.2159    1.0778 O   0  0  0  0  0  0  0  0  0  0  0  0
    1.7768   -0.8665    0.8437 C   0  0  0  0  0  0  0  0  0  0  0  0
    1.0895   -0.5955   -0.4402 C   0  0  0  0  0  0  0  0  0  0  0  0
   -0.0465   -1.3857   -0.6180 O   0  0  0  0  0  0  0  0  0  0  0  0
   -1.0817   -0.5358   -0.9897 C   0  0  0  0  0  0  0  0  0  0  0  0
   -1.6322    0.1153    0.2646 C   0  0  0  0  0  0  0  0  0  0  0  0
   -0.4365    1.0041    0.6420 C   0  0  0  0  0  0  0  0  0  0  0  0
    0.4975    0.7891   -0.5104 C   0  0  0  0  0  0  0  0  0  0  0  0
   -0.4308    0.5846   -1.5635 O   0  0  0  0  0  0  0  0  0  0  0  0
    1.4662   -1.5793    1.5751 H   0  0  0  0  0  0  0  0  0  0  0  0
    1.7871   -0.7846   -1.2527 H   0  0  0  0  0  0  0  0  0  0  0  0
   -1.8267   -0.9702   -1.6326 H   0  0  0  0  0  0  0  0  0  0  0  0
   -2.4986    0.7492   -0.0389 H   0  0  0  0  0  0  0  0  0  0  0  0
   -1.8721   -0.6002    1.0460 H   0  0  0  0  0  0  0  0  0  0  0  0
   -0.0224    0.6355    1.6088 H   0  0  0  0  0  0  0  0  0  0  0  0
   -0.7497    2.0726    0.6959 H   0  0  0  0  0  0  0  0  0  0  0  0
    1.1979    1.5831   -0.7081 H   0  0  0  0  0  0  0  0  0  0  0  0
  1  2  2  0
  2  3  1  0
  3  4  1  0
  4  5  1  0
  5  6  1  0
  6  7  1  0
  7  8  1  0
  8  9  1  0
  8  3  1  0
  9  5  1  0
  2 10  1  0
  3 11  1  0
  5 12  1  0
  6 13  1  0
  6 14  1  0
  7 15  1  0
  7 16  1  0
  8 17  1  0
M  END
