
     RDKit          3D

 13 14  0  0  0  0  0  0  0  0999 V2000
    2.7138   -0.2518    0.7335 O   0  0  0  0  0  0  0  0  0  0  0  0
    1.8283   -0.0863   -0.1225 C   0  0  0  0  0  0  0  0  0  0  0  0
    0.5457    0.2044    0.2063 C   0  0  0  0  0  0  0  0  0  0  0  0
    0.0657    0.3519    1.5218 O   0  0  0  0  0  0  0  0  0  0  0  0
   -1.0922    0.5274    0.7645 C   0  0  0  0  0  0  0  0  0  0  0  0
   -0.2819    1.3252   -0.1230 C   0  0  0  0  0  0  0  0  0  0  0  0
   -0.3092    2.3310   -0.7524 O   0  0  0  0  0  0  0  0  0  0  0  0
   -0.6546   -0.6843    0.0152 C   0  0  0  0  0  0  0  0  0  0  0  0
   -1.0966   -0.8337   -1.2743 O   0  0  0  0  0  0  0  0  0  0  0  0
    2.2102   -0.2027   -1.1395 H   0  0  0  0  0  0  0  0  0  0  0  0
   -2.0090    0.7157    1.1440 H   0  0  0  0  0  0  0  0  0  0  0  0
   -0.6737   -1.6050    0.6347 H   0  0  0  0  0  0  0  0  0  0  0  0
   -1.2464   -1.7918   -1.4740 H   0  0  0  0  0  0  0  0  0  0  0  0
  1  2  2  0
  2  3  1  0
  3  4  1  0
  4  5  1  0
  5  6  1  0
  6  7  2  0
  5  8  1  0
  8  9  1  0
  6  3  1  0
  8  3  1  0
  2 10  1  0
  5 11  1  0
  8 12  1  0
  9 13  1  0
M  END
