
     RDKit          3D

 17 18  0  0  0  0  0  0  0  0999 V2000
    4.0877    0.7977   -0.5624 O   0  0  0  0  0  0  0  0  0  0  0  0
    2.9156    1.0870   -0.4119 C   0  0  0  0  0  0  0  0  0  0  0  0
    1.9838   -0.0131   -0.0591 C   0  0  0  0  0  0  0  0  0  0  0  0
    0.6740    0.4546    0.0836 O   0  0  0  0  0  0  0  0  0  0  0  0
   -0.1502   -0.6045    0.4107 C   0  0  0  0  0  0  0  0  0  0  0  0
   -1.4913   -0.6052   -0.2162 C   0  0  0  0  0  0  0  0  0  0  0  0
   -2.4530    0.5356   -0.0348 C   0  0  0  0  0  0  0  0  0  0  0  0
   -2.0482    0.7702    1.2633 O   0  0  0  0  0  0  0  0  0  0  0  0
   -1.3523   -0.4144    1.2553 C   0  0  0  0  0  0  0  0  0  0  0  0
    2.5495    2.1164   -0.5295 H   0  0  0  0  0  0  0  0  0  0  0  0
    2.2700   -0.4524    0.9219 H   0  0  0  0  0  0  0  0  0  0  0  0
    2.0579   -0.8244   -0.8065 H   0  0  0  0  0  0  0  0  0  0  0  0
    0.3284   -1.6096    0.5049 H   0  0  0  0  0  0  0  0  0  0  0  0
   -1.8701   -1.5284   -0.6595 H   0  0  0  0  0  0  0  0  0  0  0  0
   -3.5028    0.1753   -0.1268 H   0  0  0  0  0  0  0  0  0  0  0  0
   -2.2686    1.3466   -0.7637 H   0  0  0  0  0  0  0  0  0  0  0  0
   -1.7306   -1.2315    1.8738 H   0  0  0  0  0  0  0  0  0  0  0  0
  1  2  2  0
  2  3  1  0
  3  4  1  0
  4  5  1  0
  5  6  1  0
  6  7  1  0
  7  8  1  0
  8  9  1  0
  9  5  1  0
  9  6  1  0
  2 10  1  0
  3 11  1  0
  3 12  1  0
  5 13  1  0
  6 14  1  0
  7 15  1  0
  7 16  1  0
  9 17  1  0
M  END
