
     RDKit          3D

 19 20  0  0  0  0  0  0  0  0999 V2000
    3.3167   -0.0465   -0.5793 O   0  0  0  0  0  0  0  0  0  0  0  0
    2.2941    0.1054    0.0429 C   0  0  0  0  0  0  0  0  0  0  0  0
    0.9377    0.0303   -0.6062 C   0  0  0  0  0  0  0  0  0  0  0  0
    0.2118    1.3049   -0.2481 C   0  0  0  0  0  0  0  0  0  0  0  0
   -1.1554    1.0343    0.3416 C   0  0  0  0  0  0  0  0  0  0  0  0
   -1.2630   -0.3878    0.8282 C   0  0  0  0  0  0  0  0  0  0  0  0
   -1.1881   -1.2901   -0.3772 C   0  0  0  0  0  0  0  0  0  0  0  0
    0.2639   -1.1957   -0.0380 C   0  0  0  0  0  0  0  0  0  0  0  0
   -0.0487   -0.8866    1.3018 O   0  0  0  0  0  0  0  0  0  0  0  0
    2.2898    0.3052    1.1074 H   0  0  0  0  0  0  0  0  0  0  0  0
    1.0210   -0.0859   -1.7039 H   0  0  0  0  0  0  0  0  0  0  0  0
    0.1282    1.9449   -1.1596 H   0  0  0  0  0  0  0  0  0  0  0  0
    0.7834    1.9271    0.4873 H   0  0  0  0  0  0  0  0  0  0  0  0
   -1.3932    1.7659    1.1459 H   0  0  0  0  0  0  0  0  0  0  0  0
   -1.8994    1.2356   -0.4672 H   0  0  0  0  0  0  0  0  0  0  0  0
   -2.0529   -0.5903    1.5517 H   0  0  0  0  0  0  0  0  0  0  0  0
   -1.5999   -2.2777   -0.1660 H   0  0  0  0  0  0  0  0  0  0  0  0
   -1.5240   -0.8078   -1.3065 H   0  0  0  0  0  0  0  0  0  0  0  0
    0.8779   -2.0851   -0.1549 H   0  0  0  0  0  0  0  0  0  0  0  0
  1  2  2  0
  2  3  1  0
  3  4  1  0
  4  5  1  0
  5  6  1  0
  6  7  1  0
  7  8  1  0
  8  9  1  0
  8  3  1  0
  9  6  1  0
  2 10  1  0
  3 11  1  0
  4 12  1  0
  4 13  1  0
  5 14  1  0
  5 15  1  0
  6 16  1  0
  7 17  1  0
  7 18  1  0
  8 19  1  0
M  END
