
     RDKit          3D

 17 16  0  0  0  0  0  0  0  0999 V2000
    1.7942   -1.0958   -1.9907 O   0  0  0  0  0  0  0  0  0  0  0  0
    2.2479   -1.3052   -0.8913 C   0  0  0  0  0  0  0  0  0  0  0  0
    2.1884   -0.2564    0.1293 C   0  0  0  0  0  0  0  0  0  0  0  0
    2.7719   -0.7050    1.2963 O   0  0  0  0  0  0  0  0  0  0  0  0
    0.7769    0.0524    0.4813 C   0  0  0  0  0  0  0  0  0  0  0  0
   -0.3678    0.3076    0.7661 C   0  0  0  0  0  0  0  0  0  0  0  0
   -1.7505    0.6301    1.1234 C   0  0  0  0  0  0  0  0  0  0  0  0
   -2.4691    1.0408   -0.1682 C   0  0  0  0  0  0  0  0  0  0  0  0
   -2.3763   -0.0743   -1.0096 O   0  0  0  0  0  0  0  0  0  0  0  0
    2.6911   -2.2575   -0.6686 H   0  0  0  0  0  0  0  0  0  0  0  0
    2.6974    0.6873   -0.2146 H   0  0  0  0  0  0  0  0  0  0  0  0
    2.9967   -1.6548    1.1928 H   0  0  0  0  0  0  0  0  0  0  0  0
   -1.7019    1.5560    1.7379 H   0  0  0  0  0  0  0  0  0  0  0  0
   -2.2790   -0.2018    1.6166 H   0  0  0  0  0  0  0  0  0  0  0  0
   -3.5259    1.2193    0.0602 H   0  0  0  0  0  0  0  0  0  0  0  0
   -2.0269    1.9383   -0.6026 H   0  0  0  0  0  0  0  0  0  0  0  0
   -1.6672    0.1191   -1.6578 H   0  0  0  0  0  0  0  0  0  0  0  0
  1  2  2  0
  2  3  1  0
  3  4  1  0
  3  5  1  0
  5  6  3  0
  6  7  1  0
  7  8  1  0
  8  9  1  0
  2 10  1  0
  3 11  1  0
  4 12  1  0
  7 13  1  0
  7 14  1  0
  8 15  1  0
  8 16  1  0
  9 17  1  0
M  END
