
     RDKit          3D

 19 20  0  0  0  0  0  0  0  0999 V2000
    2.3789    1.8042    0.3020 O   0  0  0  0  0  0  0  0  0  0  0  0
    2.2558    0.6643    0.7088 C   0  0  0  0  0  0  0  0  0  0  0  0
    1.0366   -0.1040    0.4209 C   0  0  0  0  0  0  0  0  0  0  0  0
    1.1287   -0.9766   -0.8411 C   0  0  0  0  0  0  0  0  0  0  0  0
   -0.3559   -0.6651   -1.0237 C   0  0  0  0  0  0  0  0  0  0  0  0
   -1.1119   -1.3449   -0.1153 O   0  0  0  0  0  0  0  0  0  0  0  0
   -2.0336   -0.4362    0.4108 C   0  0  0  0  0  0  0  0  0  0  0  0
   -1.3070    0.8826    0.5251 C   0  0  0  0  0  0  0  0  0  0  0  0
   -0.0682    0.6449   -0.2767 C   0  0  0  0  0  0  0  0  0  0  0  0
    3.0330    0.1923    1.2868 H   0  0  0  0  0  0  0  0  0  0  0  0
    0.6462   -0.7373    1.2431 H   0  0  0  0  0  0  0  0  0  0  0  0
    1.3503   -2.0385   -0.6352 H   0  0  0  0  0  0  0  0  0  0  0  0
    1.7692   -0.5043   -1.6279 H   0  0  0  0  0  0  0  0  0  0  0  0
   -0.6992   -0.5567   -2.0411 H   0  0  0  0  0  0  0  0  0  0  0  0
   -2.8474   -0.3576   -0.3606 H   0  0  0  0  0  0  0  0  0  0  0  0
   -2.4522   -0.7733    1.3759 H   0  0  0  0  0  0  0  0  0  0  0  0
   -1.8932    1.6750    0.0137 H   0  0  0  0  0  0  0  0  0  0  0  0
   -1.0783    1.1629    1.5606 H   0  0  0  0  0  0  0  0  0  0  0  0
    0.2482    1.4683   -0.9262 H   0  0  0  0  0  0  0  0  0  0  0  0
  1  2  2  0
  2  3  1  0
  3  4  1  0
  4  5  1  0
  5  6  1  0
  6  7  1  0
  7  8  1  0
  8  9  1  0
  9  3  1  0
  9  5  1  0
  2 10  1  0
  3 11  1  0
  4 12  1  0
  4 13  1  0
  5 14  1  0
  7 15  1  0
  7 16  1  0
  8 17  1  0
  8 18  1  0
  9 19  1  0
M  END
