
     RDKit          3D

 17 18  0  0  0  0  0  0  0  0999 V2000
    2.8699   -1.0180   -0.7353 O   0  0  0  0  0  0  0  0  0  0  0  0
    2.6662   -0.0816    0.0040 C   0  0  0  0  0  0  0  0  0  0  0  0
    1.3904    0.0752    0.7255 C   0  0  0  0  0  0  0  0  0  0  0  0
    0.2623   -0.7932    0.2573 C   0  0  0  0  0  0  0  0  0  0  0  0
    0.2675   -0.0396   -0.9085 O   0  0  0  0  0  0  0  0  0  0  0  0
    0.3803    0.9494    0.0582 C   0  0  0  0  0  0  0  0  0  0  0  0
   -0.6782    0.2145    0.8214 C   0  0  0  0  0  0  0  0  0  0  0  0
   -2.0609    0.2582    0.2248 C   0  0  0  0  0  0  0  0  0  0  0  0
   -2.7100   -0.9666    0.3831 O   0  0  0  0  0  0  0  0  0  0  0  0
    3.4422    0.6625    0.1401 H   0  0  0  0  0  0  0  0  0  0  0  0
    1.4344    0.1623    1.8160 H   0  0  0  0  0  0  0  0  0  0  0  0
    0.2057   -1.7970    0.3229 H   0  0  0  0  0  0  0  0  0  0  0  0
    0.4362    1.9426   -0.0990 H   0  0  0  0  0  0  0  0  0  0  0  0
   -0.6106    0.3189    1.9085 H   0  0  0  0  0  0  0  0  0  0  0  0
   -2.6496    0.9892    0.8529 H   0  0  0  0  0  0  0  0  0  0  0  0
   -2.0906    0.6471   -0.7933 H   0  0  0  0  0  0  0  0  0  0  0  0
   -2.5552   -1.5238   -0.4102 H   0  0  0  0  0  0  0  0  0  0  0  0
  1  2  2  0
  2  3  1  0
  3  4  1  0
  4  5  1  0
  5  6  1  0
  6  7  1  0
  7  8  1  0
  8  9  1  0
  6  3  1  0
  7  4  1  0
  2 10  1  0
  3 11  1  0
  4 12  1  0
  6 13  1  0
  7 14  1  0
  8 15  1  0
  8 16  1  0
  9 17  1  0
M  END
