
     RDKit          3D

 15 14  0  0  0  0  0  0  0  0999 V2000
    1.9620    1.2377   -1.0638 O   0  0  0  0  0  0  0  0  0  0  0  0
    2.1884    0.1053   -0.6974 C   0  0  0  0  0  0  0  0  0  0  0  0
    1.5212   -0.5486    0.4844 C   0  0  0  0  0  0  0  0  0  0  0  0
    0.6130    0.2337    1.1192 O   0  0  0  0  0  0  0  0  0  0  0  0
   -0.4686    0.6924    0.4387 C   0  0  0  0  0  0  0  0  0  0  0  0
   -1.3574   -0.3689   -0.0854 C   0  0  0  0  0  0  0  0  0  0  0  0
   -1.0515   -1.5540    0.1647 O   0  0  0  0  0  0  0  0  0  0  0  0
   -2.5328   -0.0393   -0.8562 C   0  0  0  0  0  0  0  0  0  0  0  0
   -2.8980    1.1146   -1.1430 O   0  0  0  0  0  0  0  0  0  0  0  0
    2.9203   -0.4482   -1.2736 H   0  0  0  0  0  0  0  0  0  0  0  0
    1.2339   -1.5699    0.2281 H   0  0  0  0  0  0  0  0  0  0  0  0
    2.3737   -0.6803    1.2309 H   0  0  0  0  0  0  0  0  0  0  0  0
   -0.2265    1.4483   -0.3659 H   0  0  0  0  0  0  0  0  0  0  0  0
   -1.1100    1.2262    1.2143 H   0  0  0  0  0  0  0  0  0  0  0  0
   -3.1678   -0.8491   -1.2283 H   0  0  0  0  0  0  0  0  0  0  0  0
  1  2  2  0
  2  3  1  0
  3  4  1  0
  4  5  1  0
  5  6  1  0
  6  7  2  0
  6  8  1  0
  8  9  2  0
  2 10  1  0
  3 11  1  0
  3 12  1  0
  5 13  1  0
  5 14  1  0
  8 15  1  0
M  END
