
     RDKit          3D

 19 20  0  0  0  0  0  0  0  0999 V2000
    3.1656    0.2253    0.9642 O   0  0  0  0  0  0  0  0  0  0  0  0
    2.7461   -0.4069    0.0053 C   0  0  0  0  0  0  0  0  0  0  0  0
    1.3042   -0.4518   -0.3227 C   0  0  0  0  0  0  0  0  0  0  0  0
    0.5649    0.8253   -0.0863 C   0  0  0  0  0  0  0  0  0  0  0  0
   -0.6716    0.9965   -0.9146 C   0  0  0  0  0  0  0  0  0  0  0  0
   -1.5064   -0.2641   -0.6572 C   0  0  0  0  0  0  0  0  0  0  0  0
   -1.0783   -0.6467    0.7201 C   0  0  0  0  0  0  0  0  0  0  0  0
   -1.7779    0.1601    1.6484 O   0  0  0  0  0  0  0  0  0  0  0  0
    0.3795   -0.3201    0.8260 C   0  0  0  0  0  0  0  0  0  0  0  0
    3.4761   -0.9271   -0.5858 H   0  0  0  0  0  0  0  0  0  0  0  0
    1.0415   -1.0544   -1.2115 H   0  0  0  0  0  0  0  0  0  0  0  0
    1.0811    1.7042    0.3489 H   0  0  0  0  0  0  0  0  0  0  0  0
   -0.3519    0.9751   -1.9949 H   0  0  0  0  0  0  0  0  0  0  0  0
   -1.2384    1.9066   -0.7117 H   0  0  0  0  0  0  0  0  0  0  0  0
   -2.5884    0.0119   -0.7303 H   0  0  0  0  0  0  0  0  0  0  0  0
   -1.3283   -1.0221   -1.4274 H   0  0  0  0  0  0  0  0  0  0  0  0
   -1.3023   -1.6916    0.9904 H   0  0  0  0  0  0  0  0  0  0  0  0
   -2.7103    0.2949    1.2996 H   0  0  0  0  0  0  0  0  0  0  0  0
    0.7950   -0.3152    1.8397 H   0  0  0  0  0  0  0  0  0  0  0  0
  1  2  2  0
  2  3  1  0
  3  4  1  0
  4  5  1  0
  5  6  1  0
  6  7  1  0
  7  8  1  0
  7  9  1  0
  9  3  1  0
  9  4  1  0
  2 10  1  0
  3 11  1  0
  4 12  1  0
  5 13  1  0
  5 14  1  0
  6 15  1  0
  6 16  1  0
  7 17  1  0
  8 18  1  0
  9 19  1  0
M  END
