
     RDKit          3D

 16 17  0  0  0  0  0  0  0  0999 V2000
    2.5315    1.3040    0.0985 O   0  0  0  0  0  0  0  0  0  0  0  0
    1.9746    0.2115    0.2791 C   0  0  0  0  0  0  0  0  0  0  0  0
    0.5843    0.0666    0.1935 C   0  0  0  0  0  0  0  0  0  0  0  0
   -0.3022    0.1001    1.3710 C   0  0  0  0  0  0  0  0  0  0  0  0
   -1.5154   -0.0718    0.8406 C   0  0  0  0  0  0  0  0  0  0  0  0
   -1.2396   -0.1792   -0.6010 C   0  0  0  0  0  0  0  0  0  0  0  0
   -0.0164   -1.1114   -0.5898 C   0  0  0  0  0  0  0  0  0  0  0  0
   -0.2156    0.9218   -0.8005 C   0  0  0  0  0  0  0  0  0  0  0  0
    2.6488   -0.6056    0.5049 H   0  0  0  0  0  0  0  0  0  0  0  0
    0.0198    0.2354    2.3941 H   0  0  0  0  0  0  0  0  0  0  0  0
   -2.4930   -0.1274    1.2969 H   0  0  0  0  0  0  0  0  0  0  0  0
   -1.9909   -0.3437   -1.3117 H   0  0  0  0  0  0  0  0  0  0  0  0
   -0.2347   -1.9964    0.0189 H   0  0  0  0  0  0  0  0  0  0  0  0
    0.4522   -1.2582   -1.5633 H   0  0  0  0  0  0  0  0  0  0  0  0
   -0.4440    1.8791   -0.3342 H   0  0  0  0  0  0  0  0  0  0  0  0
    0.2405    0.9751   -1.7970 H   0  0  0  0  0  0  0  0  0  0  0  0
  1  2  2  0
  2  3  1  0
  3  4  1  0
  4  5  2  0
  5  6  1  0
  6  7  1  0
  6  8  1  0
  7  3  1  0
  8  3  1  0
  2  9  1  0
  4 10  1  0
  5 11  1  0
  6 12  1  0
  7 13  1  0
  7 14  1  0
  8 15  1  0
  8 16  1  0
M  END
