
     RDKit          3D

 19 20  0  0  0  0  0  0  0  0999 V2000
    3.3674   -0.6088    0.8966 O   0  0  0  0  0  0  0  0  0  0  0  0
    2.7028    0.1407    0.1549 C   0  0  0  0  0  0  0  0  0  0  0  0
    1.2833   -0.0603   -0.0872 C   0  0  0  0  0  0  0  0  0  0  0  0
    0.6060    0.7373   -0.8684 C   0  0  0  0  0  0  0  0  0  0  0  0
   -0.8158    0.5651   -1.1322 C   0  0  0  0  0  0  0  0  0  0  0  0
   -1.7935    1.2284   -0.2504 C   0  0  0  0  0  0  0  0  0  0  0  0
   -1.5631   -0.2526   -0.1706 C   0  0  0  0  0  0  0  0  0  0  0  0
   -0.7567   -0.7780    0.9867 C   0  0  0  0  0  0  0  0  0  0  0  0
    0.6122   -1.2045    0.5774 C   0  0  0  0  0  0  0  0  0  0  0  0
    3.1746    0.9772   -0.3381 H   0  0  0  0  0  0  0  0  0  0  0  0
    1.1180    1.5574   -1.3383 H   0  0  0  0  0  0  0  0  0  0  0  0
   -1.0930    0.5340   -2.2123 H   0  0  0  0  0  0  0  0  0  0  0  0
   -1.3897    1.8889    0.5275 H   0  0  0  0  0  0  0  0  0  0  0  0
   -2.7970    1.5449   -0.6285 H   0  0  0  0  0  0  0  0  0  0  0  0
   -2.3263   -0.9380   -0.5938 H   0  0  0  0  0  0  0  0  0  0  0  0
   -0.7366   -0.0488    1.8238 H   0  0  0  0  0  0  0  0  0  0  0  0
   -1.2766   -1.6867    1.4026 H   0  0  0  0  0  0  0  0  0  0  0  0
    0.5027   -2.0212   -0.1803 H   0  0  0  0  0  0  0  0  0  0  0  0
    1.1812   -1.5751    1.4305 H   0  0  0  0  0  0  0  0  0  0  0  0
  1  2  2  0
  2  3  1  0
  3  4  2  0
  4  5  1  0
  5  6  1  0
  6  7  1  0
  7  8  1  0
  8  9  1  0
  9  3  1  0
  7  5  1  0
  2 10  1  0
  4 11  1  0
  5 12  1  0
  6 13  1  0
  6 14  1  0
  7 15  1  0
  8 16  1  0
  8 17  1  0
  9 18  1  0
  9 19  1  0
M  END
