
     RDKit          3D

 17 17  0  0  0  0  0  0  0  0999 V2000
   -3.0444    0.2003    0.7889 O   0  0  0  0  0  0  0  0  0  0  0  0
   -2.1972   -0.4834    0.2406 C   0  0  0  0  0  0  0  0  0  0  0  0
   -0.7932   -0.0642    0.3010 C   0  0  0  0  0  0  0  0  0  0  0  0
    0.1736   -1.2165    0.3059 C   0  0  0  0  0  0  0  0  0  0  0  0
    1.5434   -0.6924    0.5781 C   0  0  0  0  0  0  0  0  0  0  0  0
    1.8922    0.5356    0.1581 C   0  0  0  0  0  0  0  0  0  0  0  0
    0.9466    1.3593   -0.5599 C   0  0  0  0  0  0  0  0  0  0  0  0
    1.2788    2.4985   -0.9245 O   0  0  0  0  0  0  0  0  0  0  0  0
   -0.4016    0.8500   -0.8567 C   0  0  0  0  0  0  0  0  0  0  0  0
   -2.5517   -1.3745   -0.2650 H   0  0  0  0  0  0  0  0  0  0  0  0
   -0.5905    0.5303    1.2283 H   0  0  0  0  0  0  0  0  0  0  0  0
   -0.1137   -1.9865    1.0491 H   0  0  0  0  0  0  0  0  0  0  0  0
    0.1565   -1.6486   -0.7298 H   0  0  0  0  0  0  0  0  0  0  0  0
    2.2777   -1.2795    1.1121 H   0  0  0  0  0  0  0  0  0  0  0  0
    2.9080    0.9049    0.3686 H   0  0  0  0  0  0  0  0  0  0  0  0
   -1.1507    1.6511   -1.0133 H   0  0  0  0  0  0  0  0  0  0  0  0
   -0.3336    0.2156   -1.7812 H   0  0  0  0  0  0  0  0  0  0  0  0
  1  2  2  0
  2  3  1  0
  3  4  1  0
  4  5  1  0
  5  6  2  0
  6  7  1  0
  7  8  2  0
  7  9  1  0
  9  3  1  0
  2 10  1  0
  3 11  1  0
  4 12  1  0
  4 13  1  0
  5 14  1  0
  6 15  1  0
  9 16  1  0
  9 17  1  0
M  END
