
     RDKit          3D

 17 18  0  0  0  0  0  0  0  0999 V2000
    2.8316   -1.0616   -0.0219 O   0  0  0  0  0  0  0  0  0  0  0  0
    1.7898   -0.8819   -0.6133 C   0  0  0  0  0  0  0  0  0  0  0  0
    0.5543   -0.7250    0.1520 C   0  0  0  0  0  0  0  0  0  0  0  0
   -0.6896   -0.7779   -0.7120 C   0  0  0  0  0  0  0  0  0  0  0  0
   -1.7381   -0.3011    0.2814 C   0  0  0  0  0  0  0  0  0  0  0  0
   -0.9706    0.9653    0.0048 C   0  0  0  0  0  0  0  0  0  0  0  0
   -0.7914    0.4714   -1.2967 O   0  0  0  0  0  0  0  0  0  0  0  0
    0.3706    0.7159    0.6699 C   0  0  0  0  0  0  0  0  0  0  0  0
    1.3739    1.4766    0.0968 O   0  0  0  0  0  0  0  0  0  0  0  0
    1.8565   -0.8500   -1.7046 H   0  0  0  0  0  0  0  0  0  0  0  0
    0.4273   -1.3774    1.0059 H   0  0  0  0  0  0  0  0  0  0  0  0
   -0.8900   -1.6560   -1.2786 H   0  0  0  0  0  0  0  0  0  0  0  0
   -2.7650   -0.3127   -0.0805 H   0  0  0  0  0  0  0  0  0  0  0  0
   -1.5548   -0.7675    1.2745 H   0  0  0  0  0  0  0  0  0  0  0  0
   -1.4422    1.9079    0.1329 H   0  0  0  0  0  0  0  0  0  0  0  0
    0.3317    0.7538    1.7591 H   0  0  0  0  0  0  0  0  0  0  0  0
    1.3060    2.4200    0.3301 H   0  0  0  0  0  0  0  0  0  0  0  0
  1  2  2  0
  2  3  1  0
  3  4  1  0
  4  5  1  0
  5  6  1  0
  6  7  1  0
  6  8  1  0
  8  9  1  0
  8  3  1  0
  7  4  1  0
  2 10  1  0
  3 11  1  0
  4 12  1  0
  5 13  1  0
  5 14  1  0
  6 15  1  0
  8 16  1  0
  9 17  1  0
M  END
