
     RDKit          3D

 17 18  0  0  0  0  0  0  0  0999 V2000
    3.3704   -0.0961    0.7219 O   0  0  0  0  0  0  0  0  0  0  0  0
    2.2845   -0.2654    0.1942 C   0  0  0  0  0  0  0  0  0  0  0  0
    1.7184    0.8572   -0.6353 C   0  0  0  0  0  0  0  0  0  0  0  0
    0.4845    0.4889   -1.1544 O   0  0  0  0  0  0  0  0  0  0  0  0
   -0.3596    0.2139   -0.1192 C   0  0  0  0  0  0  0  0  0  0  0  0
   -1.1171   -1.1279   -0.2424 C   0  0  0  0  0  0  0  0  0  0  0  0
   -2.0410   -0.3875    0.7036 C   0  0  0  0  0  0  0  0  0  0  0  0
   -2.8108    0.6527    0.4433 O   0  0  0  0  0  0  0  0  0  0  0  0
   -1.7564    0.7323   -0.3488 C   0  0  0  0  0  0  0  0  0  0  0  0
    1.7501   -1.1843    0.3171 H   0  0  0  0  0  0  0  0  0  0  0  0
    1.6548    1.7372    0.0472 H   0  0  0  0  0  0  0  0  0  0  0  0
    2.4512    1.1378   -1.4335 H   0  0  0  0  0  0  0  0  0  0  0  0
    0.0411    0.3197    0.8861 H   0  0  0  0  0  0  0  0  0  0  0  0
   -1.5144   -1.3164   -1.2462 H   0  0  0  0  0  0  0  0  0  0  0  0
   -0.6282   -1.9710    0.2352 H   0  0  0  0  0  0  0  0  0  0  0  0
   -1.4861   -0.2482    1.6859 H   0  0  0  0  0  0  0  0  0  0  0  0
   -2.0414    0.4569   -1.4157 H   0  0  0  0  0  0  0  0  0  0  0  0
  1  2  2  0
  2  3  1  0
  3  4  1  0
  4  5  1  0
  5  6  1  0
  6  7  1  0
  7  8  1  0
  8  9  1  0
  9  5  1  0
  9  7  1  0
  2 10  1  0
  3 11  1  0
  3 12  1  0
  5 13  1  0
  6 14  1  0
  6 15  1  0
  7 16  1  0
  9 17  1  0
M  END
