
     RDKit          3D

 19 20  0  0  0  0  0  0  0  0999 V2000
    1.7032    0.7262    1.8417 O   0  0  0  0  0  0  0  0  0  0  0  0
    0.9566   -0.1752    1.5014 C   0  0  0  0  0  0  0  0  0  0  0  0
    0.3335   -0.0986    0.1460 C   0  0  0  0  0  0  0  0  0  0  0  0
    1.3802    0.0495   -0.8943 C   0  0  0  0  0  0  0  0  0  0  0  0
    2.1543    1.2086   -0.7256 O   0  0  0  0  0  0  0  0  0  0  0  0
   -0.8433    0.8248    0.1107 C   0  0  0  0  0  0  0  0  0  0  0  0
   -1.3707    0.0216   -1.0113 C   0  0  0  0  0  0  0  0  0  0  0  0
   -0.8061   -1.0165   -0.0821 C   0  0  0  0  0  0  0  0  0  0  0  0
   -1.5101   -0.2236    0.9834 C   0  0  0  0  0  0  0  0  0  0  0  0
    0.7903   -0.9763    2.2014 H   0  0  0  0  0  0  0  0  0  0  0  0
    1.0209    0.0660   -1.9252 H   0  0  0  0  0  0  0  0  0  0  0  0
    2.1204   -0.7913   -0.7361 H   0  0  0  0  0  0  0  0  0  0  0  0
    2.9477    1.0741   -1.3236 H   0  0  0  0  0  0  0  0  0  0  0  0
   -0.8602    1.8104    0.2658 H   0  0  0  0  0  0  0  0  0  0  0  0
   -0.9685    0.1106   -2.0100 H   0  0  0  0  0  0  0  0  0  0  0  0
   -2.5000   -0.0412   -0.9551 H   0  0  0  0  0  0  0  0  0  0  0  0
   -0.8136   -2.0069   -0.2078 H   0  0  0  0  0  0  0  0  0  0  0  0
   -1.1367   -0.3077    1.9985 H   0  0  0  0  0  0  0  0  0  0  0  0
   -2.5979   -0.2545    0.8223 H   0  0  0  0  0  0  0  0  0  0  0  0
  1  2  2  0
  2  3  1  0
  3  4  1  0
  4  5  1  0
  3  6  1  0
  6  7  1  0
  7  8  1  0
  8  9  1  0
  8  3  1  0
  9  6  1  0
  2 10  1  0
  4 11  1  0
  4 12  1  0
  5 13  1  0
  6 14  1  0
  7 15  1  0
  7 16  1  0
  8 17  1  0
  9 18  1  0
  9 19  1  0
M  END
