
     RDKit          3D

 19 20  0  0  0  0  0  0  0  0999 V2000
   -1.7178   -1.9149    1.4896 O   0  0  0  0  0  0  0  0  0  0  0  0
   -2.2223   -1.0794    0.7573 C   0  0  0  0  0  0  0  0  0  0  0  0
   -1.4394   -0.3064   -0.2103 C   0  0  0  0  0  0  0  0  0  0  0  0
   -0.1462   -0.8967   -0.6745 C   0  0  0  0  0  0  0  0  0  0  0  0
    0.6257    0.3636   -0.3917 C   0  0  0  0  0  0  0  0  0  0  0  0
    1.9144    0.2843    0.3824 C   0  0  0  0  0  0  0  0  0  0  0  0
    2.8655   -0.4984   -0.2219 O   0  0  0  0  0  0  0  0  0  0  0  0
    0.0470    1.6937   -0.6060 C   0  0  0  0  0  0  0  0  0  0  0  0
   -0.6246    0.8453    0.3814 C   0  0  0  0  0  0  0  0  0  0  0  0
   -3.2926   -0.9318    0.8558 H   0  0  0  0  0  0  0  0  0  0  0  0
   -2.0564    0.1145   -1.0476 H   0  0  0  0  0  0  0  0  0  0  0  0
    0.1790   -1.6947    0.0513 H   0  0  0  0  0  0  0  0  0  0  0  0
   -0.1975   -1.2219   -1.7205 H   0  0  0  0  0  0  0  0  0  0  0  0
    1.7168   -0.0666    1.4322 H   0  0  0  0  0  0  0  0  0  0  0  0
    2.3232    1.3093    0.4890 H   0  0  0  0  0  0  0  0  0  0  0  0
    2.4265   -1.2994   -0.6069 H   0  0  0  0  0  0  0  0  0  0  0  0
   -0.5181    1.8410   -1.5711 H   0  0  0  0  0  0  0  0  0  0  0  0
    0.5910    2.5621   -0.2419 H   0  0  0  0  0  0  0  0  0  0  0  0
   -0.4743    0.8964    1.4534 H   0  0  0  0  0  0  0  0  0  0  0  0
  1  2  2  0
  2  3  1  0
  3  4  1  0
  4  5  1  0
  5  6  1  0
  6  7  1  0
  5  8  1  0
  8  9  1  0
  9  3  1  0
  9  5  1  0
  2 10  1  0
  3 11  1  0
  4 12  1  0
  4 13  1  0
  6 14  1  0
  6 15  1  0
  7 16  1  0
  8 17  1  0
  8 18  1  0
  9 19  1  0
M  END
