
     RDKit          3D

 19 20  0  0  0  0  0  0  0  0999 V2000
   -0.8522    2.6842    0.6841 O   0  0  0  0  0  0  0  0  0  0  0  0
   -1.0366    1.4996    0.9081 C   0  0  0  0  0  0  0  0  0  0  0  0
   -1.0089    0.5774   -0.2308 C   0  0  0  0  0  0  0  0  0  0  0  0
   -1.5939   -0.8062    0.0329 C   0  0  0  0  0  0  0  0  0  0  0  0
   -0.4888   -1.3275   -0.9029 C   0  0  0  0  0  0  0  0  0  0  0  0
    0.2837   -0.1146   -0.4677 C   0  0  0  0  0  0  0  0  0  0  0  0
    1.2155   -0.2970    0.6578 C   0  0  0  0  0  0  0  0  0  0  0  0
    2.1014    0.5089   -0.2636 C   0  0  0  0  0  0  0  0  0  0  0  0
    1.1848    0.4148   -1.3130 O   0  0  0  0  0  0  0  0  0  0  0  0
   -1.2079    1.2189    1.9400 H   0  0  0  0  0  0  0  0  0  0  0  0
   -1.4589    0.9702   -1.1675 H   0  0  0  0  0  0  0  0  0  0  0  0
   -2.6053   -0.9635   -0.3611 H   0  0  0  0  0  0  0  0  0  0  0  0
   -1.4364   -1.1478    1.0864 H   0  0  0  0  0  0  0  0  0  0  0  0
   -0.0177   -2.2618   -0.5442 H   0  0  0  0  0  0  0  0  0  0  0  0
   -0.8214   -1.3232   -1.9523 H   0  0  0  0  0  0  0  0  0  0  0  0
    0.8844    0.1910    1.5709 H   0  0  0  0  0  0  0  0  0  0  0  0
    1.5840   -1.3357    0.7277 H   0  0  0  0  0  0  0  0  0  0  0  0
    3.0390   -0.0131   -0.5625 H   0  0  0  0  0  0  0  0  0  0  0  0
    2.2352    1.5254    0.1577 H   0  0  0  0  0  0  0  0  0  0  0  0
  1  2  2  0
  2  3  1  0
  3  4  1  0
  4  5  1  0
  5  6  1  0
  6  7  1  0
  7  8  1  0
  8  9  1  0
  6  3  1  0
  9  6  1  0
  2 10  1  0
  3 11  1  0
  4 12  1  0
  4 13  1  0
  5 14  1  0
  5 15  1  0
  7 16  1  0
  7 17  1  0
  8 18  1  0
  8 19  1  0
M  END
