
     RDKit          3D

 17 18  0  0  0  0  0  0  0  0999 V2000
    0.9419   -2.1450   -0.7777 O   0  0  0  0  0  0  0  0  0  0  0  0
    1.6909   -1.1907   -0.7322 C   0  0  0  0  0  0  0  0  0  0  0  0
    1.2239    0.0833   -0.1511 C   0  0  0  0  0  0  0  0  0  0  0  0
    0.3587    0.0080    1.0305 C   0  0  0  0  0  0  0  0  0  0  0  0
   -0.7773   -0.9555    1.0345 C   0  0  0  0  0  0  0  0  0  0  0  0
   -1.3161   -0.3305   -0.2121 C   0  0  0  0  0  0  0  0  0  0  0  0
   -0.1340    0.5982   -0.3321 C   0  0  0  0  0  0  0  0  0  0  0  0
   -0.4360    2.0340   -0.3185 C   0  0  0  0  0  0  0  0  0  0  0  0
    0.1179    2.8827   -0.9696 O   0  0  0  0  0  0  0  0  0  0  0  0
    2.6931   -1.3364   -1.1352 H   0  0  0  0  0  0  0  0  0  0  0  0
    2.0249    0.8842   -0.2033 H   0  0  0  0  0  0  0  0  0  0  0  0
    0.4518    0.7478    1.8649 H   0  0  0  0  0  0  0  0  0  0  0  0
   -0.5704   -2.0217    0.9153 H   0  0  0  0  0  0  0  0  0  0  0  0
   -1.4211   -0.8216    1.9427 H   0  0  0  0  0  0  0  0  0  0  0  0
   -2.2795    0.1972   -0.1354 H   0  0  0  0  0  0  0  0  0  0  0  0
   -1.3275   -1.0091   -1.1134 H   0  0  0  0  0  0  0  0  0  0  0  0
   -1.2411    2.3750    0.3446 H   0  0  0  0  0  0  0  0  0  0  0  0
  1  2  2  0
  2  3  1  0
  3  4  1  0
  4  5  1  0
  5  6  1  0
  6  7  1  0
  7  8  1  0
  8  9  2  0
  7  3  1  0
  7  4  1  0
  2 10  1  0
  3 11  1  0
  4 12  1  0
  5 13  1  0
  5 14  1  0
  6 15  1  0
  6 16  1  0
  8 17  1  0
M  END
