
     RDKit          3D

 13 14  0  0  0  0  0  0  0  0999 V2000
    2.7301   -0.6444   -0.6113 O   0  0  0  0  0  0  0  0  0  0  0  0
    2.0768    0.3840   -0.2984 C   0  0  0  0  0  0  0  0  0  0  0  0
    0.6339    0.2703   -0.1791 C   0  0  0  0  0  0  0  0  0  0  0  0
   -0.2973    1.1645    0.1298 C   0  0  0  0  0  0  0  0  0  0  0  0
   -1.5314    0.2958    0.0769 C   0  0  0  0  0  0  0  0  0  0  0  0
   -1.2872   -0.4401   -1.0922 O   0  0  0  0  0  0  0  0  0  0  0  0
   -0.2032   -0.9540   -0.3877 C   0  0  0  0  0  0  0  0  0  0  0  0
   -1.0830   -0.8864    0.8040 C   0  0  0  0  0  0  0  0  0  0  0  0
   -1.2014   -1.5794    1.7806 O   0  0  0  0  0  0  0  0  0  0  0  0
    2.6270    1.2860   -0.1380 H   0  0  0  0  0  0  0  0  0  0  0  0
   -0.2485    2.2138    0.3605 H   0  0  0  0  0  0  0  0  0  0  0  0
   -2.4686    0.7442    0.2289 H   0  0  0  0  0  0  0  0  0  0  0  0
    0.2529   -1.8542   -0.6740 H   0  0  0  0  0  0  0  0  0  0  0  0
  1  2  2  0
  2  3  1  0
  3  4  2  0
  4  5  1  0
  5  6  1  0
  6  7  1  0
  7  8  1  0
  8  9  2  0
  7  3  1  0
  8  5  1  0
  2 10  1  0
  4 11  1  0
  5 12  1  0
  7 13  1  0
M  END
