
     RDKit          3D

 17 17  0  0  0  0  0  0  0  0999 V2000
    3.4414   -0.2866    1.6622 O   0  0  0  0  0  0  0  0  0  0  0  0
    3.2496    0.1311    0.4327 C   0  0  0  0  0  0  0  0  0  0  0  0
    1.8974    0.2707    0.1147 C   0  0  0  0  0  0  0  0  0  0  0  0
    1.3974   -1.3440    0.0852 C   0  0  0  0  0  0  0  0  0  0  0  0
   -0.0471   -0.9829    0.0752 C   0  0  0  0  0  0  0  0  0  0  0  0
   -1.5430   -0.5808    0.0638 C   0  0  0  0  0  0  0  0  0  0  0  0
   -3.1383   -0.1329    0.0700 C   0  0  0  0  0  0  0  0  0  0  0  0
   -3.0588    1.2073    0.0799 C   0  0  0  0  0  0  0  0  0  0  0  0
   -2.9042    0.6724    1.4314 O   0  0  0  0  0  0  0  0  0  0  0  0
    4.1400    0.2792   -0.1016 H   0  0  0  0  0  0  0  0  0  0  0  0
    1.2748    0.8522    0.8468 H   0  0  0  0  0  0  0  0  0  0  0  0
    1.6799    0.6910   -0.8708 H   0  0  0  0  0  0  0  0  0  0  0  0
    1.6143   -1.8095   -0.6808 H   0  0  0  0  0  0  0  0  0  0  0  0
    1.4470   -1.5825    1.1810 H   0  0  0  0  0  0  0  0  0  0  0  0
   -3.5939   -1.0130    0.3398 H   0  0  0  0  0  0  0  0  0  0  0  0
   -2.0693    1.6858   -0.3966 H   0  0  0  0  0  0  0  0  0  0  0  0
   -3.7872    1.9425   -0.0336 H   0  0  0  0  0  0  0  0  0  0  0  0
  1  2  2  0
  2  3  1  0
  3  4  1  0
  4  5  1  0
  5  6  3  0
  6  7  1  0
  7  8  1  0
  8  9  1  0
  9  7  1  0
  2 10  1  0
  3 11  1  0
  3 12  1  0
  4 13  1  0
  4 14  1  0
  7 15  1  0
  8 16  1  0
  8 17  1  0
M  END
