
     RDKit          3D

 15 16  0  0  0  0  0  0  0  0999 V2000
    1.8835   -1.6146   -0.4243 O   0  0  0  0  0  0  0  0  0  0  0  0
    1.6710   -0.4222   -0.7494 C   0  0  0  0  0  0  0  0  0  0  0  0
    0.7786    0.3886    0.1328 C   0  0  0  0  0  0  0  0  0  0  0  0
    1.2850    1.5248    0.6874 O   0  0  0  0  0  0  0  0  0  0  0  0
   -0.5876    0.7009   -0.4885 C   0  0  0  0  0  0  0  0  0  0  0  0
   -1.0741   -0.2432   -1.3430 O   0  0  0  0  0  0  0  0  0  0  0  0
   -1.0895   -1.2557   -0.3491 C   0  0  0  0  0  0  0  0  0  0  0  0
   -0.4337   -0.2444    0.6023 C   0  0  0  0  0  0  0  0  0  0  0  0
   -0.9886   -0.0750    1.8780 O   0  0  0  0  0  0  0  0  0  0  0  0
    2.1145   -0.0849   -1.6101 H   0  0  0  0  0  0  0  0  0  0  0  0
    0.7325    2.3365    0.6477 H   0  0  0  0  0  0  0  0  0  0  0  0
   -1.0656    1.6942   -0.3167 H   0  0  0  0  0  0  0  0  0  0  0  0
   -0.3867   -2.0461   -0.6197 H   0  0  0  0  0  0  0  0  0  0  0  0
   -2.1209   -1.5430   -0.1729 H   0  0  0  0  0  0  0  0  0  0  0  0
   -0.7183    0.8840    2.1256 H   0  0  0  0  0  0  0  0  0  0  0  0
  1  2  2  0
  2  3  1  0
  3  4  1  0
  3  5  1  0
  5  6  1  0
  6  7  1  0
  7  8  1  0
  8  9  1  0
  8  3  1  0
  8  5  1  0
  2 10  1  0
  4 11  1  0
  5 12  1  0
  7 13  1  0
  7 14  1  0
  9 15  1  0
M  END
