
     RDKit          3D

 14 15  0  0  0  0  0  0  0  0999 V2000
    2.7294    0.6532   -0.2926 O   0  0  0  0  0  0  0  0  0  0  0  0
    1.5288    0.8685   -0.4366 C   0  0  0  0  0  0  0  0  0  0  0  0
    0.4707    0.2180    0.3480 C   0  0  0  0  0  0  0  0  0  0  0  0
    0.5002   -1.1872    0.7564 C   0  0  0  0  0  0  0  0  0  0  0  0
   -0.3191   -0.8240   -0.4290 C   0  0  0  0  0  0  0  0  0  0  0  0
   -1.5178    0.0788   -0.2872 C   0  0  0  0  0  0  0  0  0  0  0  0
   -0.7361    0.9945    0.5808 C   0  0  0  0  0  0  0  0  0  0  0  0
   -1.0126    1.9886    1.2204 O   0  0  0  0  0  0  0  0  0  0  0  0
    1.2683    1.5905   -1.2003 H   0  0  0  0  0  0  0  0  0  0  0  0
   -0.0879   -1.4575    1.6603 H   0  0  0  0  0  0  0  0  0  0  0  0
    1.3367   -1.8689    0.5503 H   0  0  0  0  0  0  0  0  0  0  0  0
    0.0126   -1.1063   -1.4324 H   0  0  0  0  0  0  0  0  0  0  0  0
   -2.3417   -0.4497    0.2283 H   0  0  0  0  0  0  0  0  0  0  0  0
   -1.8316    0.5013   -1.2663 H   0  0  0  0  0  0  0  0  0  0  0  0
  1  2  2  0
  2  3  1  0
  3  4  1  0
  4  5  1  0
  5  6  1  0
  6  7  1  0
  7  8  2  0
  5  3  1  0
  7  3  1  0
  2  9  1  0
  4 10  1  0
  4 11  1  0
  5 12  1  0
  6 13  1  0
  6 14  1  0
M  END
