
     RDKit          3D

 17 18  0  0  0  0  0  0  0  0999 V2000
    2.8317    1.0556   -0.6200 O   0  0  0  0  0  0  0  0  0  0  0  0
    2.1548    0.3452    0.0880 C   0  0  0  0  0  0  0  0  0  0  0  0
    0.9396   -0.2620   -0.4932 C   0  0  0  0  0  0  0  0  0  0  0  0
    0.2971   -1.2347    0.4379 C   0  0  0  0  0  0  0  0  0  0  0  0
    0.7812   -2.1905    0.9465 O   0  0  0  0  0  0  0  0  0  0  0  0
   -1.0612   -0.7065    0.5543 C   0  0  0  0  0  0  0  0  0  0  0  0
   -0.7601    0.7732    0.8457 C   0  0  0  0  0  0  0  0  0  0  0  0
   -0.2046    0.7187   -0.5856 C   0  0  0  0  0  0  0  0  0  0  0  0
   -1.4038   -0.1912   -0.8398 C   0  0  0  0  0  0  0  0  0  0  0  0
    2.4790    0.1895    1.1237 H   0  0  0  0  0  0  0  0  0  0  0  0
    1.1918   -0.7199   -1.4669 H   0  0  0  0  0  0  0  0  0  0  0  0
   -1.8098   -1.1794    1.1240 H   0  0  0  0  0  0  0  0  0  0  0  0
   -0.0218    0.9488    1.6165 H   0  0  0  0  0  0  0  0  0  0  0  0
   -1.6860    1.3520    0.8420 H   0  0  0  0  0  0  0  0  0  0  0  0
   -0.1127    1.6156   -1.1252 H   0  0  0  0  0  0  0  0  0  0  0  0
   -1.2783   -0.9034   -1.6522 H   0  0  0  0  0  0  0  0  0  0  0  0
   -2.3370    0.3889   -0.7958 H   0  0  0  0  0  0  0  0  0  0  0  0
  1  2  2  0
  2  3  1  0
  3  4  1  0
  4  5  2  0
  4  6  1  0
  6  7  1  0
  7  8  1  0
  8  9  1  0
  8  3  1  0
  9  6  1  0
  2 10  1  0
  3 11  1  0
  6 12  1  0
  7 13  1  0
  7 14  1  0
  8 15  1  0
  9 16  1  0
  9 17  1  0
M  END
