
     RDKit          3D

 15 14  0  0  0  0  0  0  0  0999 V2000
   -1.6598   -1.2756    0.7164 O   0  0  0  0  0  0  0  0  0  0  0  0
   -2.0859   -0.2843    0.1908 C   0  0  0  0  0  0  0  0  0  0  0  0
   -1.2162    0.8480   -0.1389 C   0  0  0  0  0  0  0  0  0  0  0  0
    0.2226    0.6111    0.1855 C   0  0  0  0  0  0  0  0  0  0  0  0
    0.8390   -0.5230   -0.5635 C   0  0  0  0  0  0  0  0  0  0  0  0
    2.2669   -0.7250   -0.2099 C   0  0  0  0  0  0  0  0  0  0  0  0
    2.7773   -0.0038    0.6040 O   0  0  0  0  0  0  0  0  0  0  0  0
   -3.1364   -0.2346   -0.0406 H   0  0  0  0  0  0  0  0  0  0  0  0
   -1.3353    1.0305   -1.2572 H   0  0  0  0  0  0  0  0  0  0  0  0
   -1.5998    1.7809    0.3576 H   0  0  0  0  0  0  0  0  0  0  0  0
    0.7638    1.5788   -0.0169 H   0  0  0  0  0  0  0  0  0  0  0  0
    0.2965    0.4904    1.2878 H   0  0  0  0  0  0  0  0  0  0  0  0
    0.2596   -1.4508   -0.4276 H   0  0  0  0  0  0  0  0  0  0  0  0
    0.7872   -0.3360   -1.6815 H   0  0  0  0  0  0  0  0  0  0  0  0
    2.8205   -1.5066   -0.6822 H   0  0  0  0  0  0  0  0  0  0  0  0
  1  2  2  0
  2  3  1  0
  3  4  1  0
  4  5  1  0
  5  6  1  0
  6  7  2  0
  2  8  1  0
  3  9  1  0
  3 10  1  0
  4 11  1  0
  4 12  1  0
  5 13  1  0
  5 14  1  0
  6 15  1  0
M  END
