
     RDKit          3D

 13 13  0  0  0  0  0  0  0  0999 V2000
    2.3472   -0.9098    0.6242 O   0  0  0  0  0  0  0  0  0  0  0  0
    1.6858   -0.5599   -0.3186 C   0  0  0  0  0  0  0  0  0  0  0  0
    0.3477    0.0049   -0.0976 C   0  0  0  0  0  0  0  0  0  0  0  0
    0.4039    1.1384    0.8857 C   0  0  0  0  0  0  0  0  0  0  0  0
   -0.0997    2.2118    0.6117 O   0  0  0  0  0  0  0  0  0  0  0  0
   -0.3338    0.3779   -1.2539 O   0  0  0  0  0  0  0  0  0  0  0  0
   -1.5142    0.0166   -0.6133 C   0  0  0  0  0  0  0  0  0  0  0  0
   -0.7277   -0.9816    0.1590 C   0  0  0  0  0  0  0  0  0  0  0  0
   -0.9057   -2.0483    0.7058 O   0  0  0  0  0  0  0  0  0  0  0  0
    2.0643   -0.6569   -1.3136 H   0  0  0  0  0  0  0  0  0  0  0  0
    0.8957    1.0003    1.8450 H   0  0  0  0  0  0  0  0  0  0  0  0
   -1.8763    0.8309    0.0429 H   0  0  0  0  0  0  0  0  0  0  0  0
   -2.2872   -0.4242   -1.2772 H   0  0  0  0  0  0  0  0  0  0  0  0
  1  2  2  0
  2  3  1  0
  3  4  1  0
  4  5  2  0
  3  6  1  0
  6  7  1  0
  7  8  1  0
  8  9  2  0
  8  3  1  0
  2 10  1  0
  4 11  1  0
  7 12  1  0
  7 13  1  0
M  END
