
     RDKit          3D

 15 15  0  0  0  0  0  0  0  0999 V2000
    2.8534   -0.5151   -0.0193 O   0  0  0  0  0  0  0  0  0  0  0  0
    1.7631   -0.3733    0.5030 C   0  0  0  0  0  0  0  0  0  0  0  0
    0.6882    0.3532   -0.1937 C   0  0  0  0  0  0  0  0  0  0  0  0
   -0.2103   -0.6355   -0.9049 C   0  0  0  0  0  0  0  0  0  0  0  0
   -1.5582   -0.3634   -0.2536 C   0  0  0  0  0  0  0  0  0  0  0  0
   -1.4776    1.0059   -0.0032 O   0  0  0  0  0  0  0  0  0  0  0  0
   -0.2610    1.0660    0.7116 C   0  0  0  0  0  0  0  0  0  0  0  0
    1.6293   -0.8019    1.4883 H   0  0  0  0  0  0  0  0  0  0  0  0
    1.1389    1.0713   -0.9108 H   0  0  0  0  0  0  0  0  0  0  0  0
   -0.2700   -0.3632   -1.9657 H   0  0  0  0  0  0  0  0  0  0  0  0
    0.1458   -1.6599   -0.7375 H   0  0  0  0  0  0  0  0  0  0  0  0
   -1.5941   -0.8622    0.7416 H   0  0  0  0  0  0  0  0  0  0  0  0
   -2.4003   -0.6369   -0.9097 H   0  0  0  0  0  0  0  0  0  0  0  0
   -0.4425    0.5784    1.6749 H   0  0  0  0  0  0  0  0  0  0  0  0
   -0.0046    2.1365    0.7788 H   0  0  0  0  0  0  0  0  0  0  0  0
  1  2  2  0
  2  3  1  0
  3  4  1  0
  4  5  1  0
  5  6  1  0
  6  7  1  0
  7  3  1  0
  2  8  1  0
  3  9  1  0
  4 10  1  0
  4 11  1  0
  5 12  1  0
  5 13  1  0
  7 14  1  0
  7 15  1  0
M  END
