
     RDKit          3D

 17 16  0  0  0  0  0  0  0  0999 V2000
    2.0768   -1.2390   -1.0189 O   0  0  0  0  0  0  0  0  0  0  0  0
    2.5564   -0.1756   -0.7043 C   0  0  0  0  0  0  0  0  0  0  0  0
    1.8541    0.7988    0.1321 C   0  0  0  0  0  0  0  0  0  0  0  0
    0.5748    0.4600    0.5214 O   0  0  0  0  0  0  0  0  0  0  0  0
   -0.2932    0.3111   -0.5140 C   0  0  0  0  0  0  0  0  0  0  0  0
   -1.6959   -0.0562   -0.0622 C   0  0  0  0  0  0  0  0  0  0  0  0
   -2.2350    0.9154    0.7689 O   0  0  0  0  0  0  0  0  0  0  0  0
   -1.7089   -1.3924    0.5691 C   0  0  0  0  0  0  0  0  0  0  0  0
   -2.1588   -1.5154    1.6834 O   0  0  0  0  0  0  0  0  0  0  0  0
    3.5508    0.0576   -1.0624 H   0  0  0  0  0  0  0  0  0  0  0  0
    1.7723    1.7651   -0.4569 H   0  0  0  0  0  0  0  0  0  0  0  0
    2.4921    1.0037    1.0317 H   0  0  0  0  0  0  0  0  0  0  0  0
   -0.0270   -0.4224   -1.2811 H   0  0  0  0  0  0  0  0  0  0  0  0
   -0.3969    1.2994   -1.0258 H   0  0  0  0  0  0  0  0  0  0  0  0
   -2.3532   -0.1177   -0.9607 H   0  0  0  0  0  0  0  0  0  0  0  0
   -2.6817    0.5590    1.5520 H   0  0  0  0  0  0  0  0  0  0  0  0
   -1.3266   -2.2515    0.0556 H   0  0  0  0  0  0  0  0  0  0  0  0
  1  2  2  0
  2  3  1  0
  3  4  1  0
  4  5  1  0
  5  6  1  0
  6  7  1  0
  6  8  1  0
  8  9  2  0
  2 10  1  0
  3 11  1  0
  3 12  1  0
  5 13  1  0
  5 14  1  0
  6 15  1  0
  7 16  1  0
  8 17  1  0
M  END
