
     RDKit          3D

 15 15  0  0  0  0  0  0  0  0999 V2000
    2.6330    1.0184    0.6242 O   0  0  0  0  0  0  0  0  0  0  0  0
    1.9144    0.0870    0.9041 C   0  0  0  0  0  0  0  0  0  0  0  0
    0.8376   -0.3692   -0.0025 C   0  0  0  0  0  0  0  0  0  0  0  0
    0.1316   -1.4797    0.5482 O   0  0  0  0  0  0  0  0  0  0  0  0
   -1.1902   -1.4453    0.1424 C   0  0  0  0  0  0  0  0  0  0  0  0
   -2.0762   -2.2813    0.4091 O   0  0  0  0  0  0  0  0  0  0  0  0
   -1.3781   -0.2260   -0.6770 C   0  0  0  0  0  0  0  0  0  0  0  0
   -0.2684    0.6628   -0.0995 C   0  0  0  0  0  0  0  0  0  0  0  0
    0.0380    1.7133   -0.9237 O   0  0  0  0  0  0  0  0  0  0  0  0
    2.0546   -0.4322    1.8387 H   0  0  0  0  0  0  0  0  0  0  0  0
    1.2087   -0.6034   -1.0249 H   0  0  0  0  0  0  0  0  0  0  0  0
   -1.1131   -0.3850   -1.7494 H   0  0  0  0  0  0  0  0  0  0  0  0
   -2.3707    0.2335   -0.5458 H   0  0  0  0  0  0  0  0  0  0  0  0
   -0.5032    0.9633    0.9418 H   0  0  0  0  0  0  0  0  0  0  0  0
    0.0820    2.5436   -0.3856 H   0  0  0  0  0  0  0  0  0  0  0  0
  1  2  2  0
  2  3  1  0
  3  4  1  0
  4  5  1  0
  5  6  2  0
  5  7  1  0
  7  8  1  0
  8  9  1  0
  8  3  1  0
  2 10  1  0
  3 11  1  0
  7 12  1  0
  7 13  1  0
  8 14  1  0
  9 15  1  0
M  END
