
     RDKit          3D

 17 19  0  0  0  0  0  0  0  0999 V2000
   -2.5055   -1.6595   -0.8288 O   0  0  0  0  0  0  0  0  0  0  0  0
   -2.2558   -0.6579   -0.1976 C   0  0  0  0  0  0  0  0  0  0  0  0
   -1.0381    0.0888   -0.4695 C   0  0  0  0  0  0  0  0  0  0  0  0
   -0.2435    0.5713    0.7182 C   0  0  0  0  0  0  0  0  0  0  0  0
    0.0503   -0.8899    0.9681 C   0  0  0  0  0  0  0  0  0  0  0  0
    0.2518   -0.7059   -0.5288 C   0  0  0  0  0  0  0  0  0  0  0  0
    0.9139    0.5522   -0.2067 C   0  0  0  0  0  0  0  0  0  0  0  0
    2.1554    1.0430   -0.1864 C   0  0  0  0  0  0  0  0  0  0  0  0
    1.1233    1.4807   -1.1883 O   0  0  0  0  0  0  0  0  0  0  0  0
   -2.9426   -0.3313    0.5611 H   0  0  0  0  0  0  0  0  0  0  0  0
   -1.1017    0.7776   -1.3143 H   0  0  0  0  0  0  0  0  0  0  0  0
   -0.5216    1.2525    1.3938 H   0  0  0  0  0  0  0  0  0  0  0  0
    0.9635   -1.1038    1.5417 H   0  0  0  0  0  0  0  0  0  0  0  0
   -0.8139   -1.5056    1.2545 H   0  0  0  0  0  0  0  0  0  0  0  0
    0.4595   -1.4368   -1.1777 H   0  0  0  0  0  0  0  0  0  0  0  0
    3.0289    0.5794   -0.7199 H   0  0  0  0  0  0  0  0  0  0  0  0
    2.4759    1.9452    0.3804 H   0  0  0  0  0  0  0  0  0  0  0  0
  1  2  2  0
  2  3  1  0
  3  4  1  0
  4  5  1  0
  5  6  1  0
  6  7  1  0
  7  8  1  0
  8  9  1  0
  6  3  1  0
  9  7  1  0
  7  4  1  0
  2 10  1  0
  3 11  1  0
  4 12  1  0
  5 13  1  0
  5 14  1  0
  6 15  1  0
  8 16  1  0
  8 17  1  0
M  END
