
     RDKit          3D

 17 19  0  0  0  0  0  0  0  0999 V2000
   -2.6355   -1.4037    0.7604 O   0  0  0  0  0  0  0  0  0  0  0  0
   -1.6389   -0.7715    1.0531 C   0  0  0  0  0  0  0  0  0  0  0  0
   -0.7023   -0.3800    0.0049 C   0  0  0  0  0  0  0  0  0  0  0  0
   -1.1590    0.5402   -1.0676 C   0  0  0  0  0  0  0  0  0  0  0  0
   -0.0696    0.9211   -0.1145 C   0  0  0  0  0  0  0  0  0  0  0  0
   -0.2287    1.9532    0.7733 O   0  0  0  0  0  0  0  0  0  0  0  0
    1.2584    0.2986   -0.3686 C   0  0  0  0  0  0  0  0  0  0  0  0
    1.8283   -0.7380    0.4970 C   0  0  0  0  0  0  0  0  0  0  0  0
    0.5825   -1.0954   -0.2314 C   0  0  0  0  0  0  0  0  0  0  0  0
   -1.4693   -0.5135    2.0851 H   0  0  0  0  0  0  0  0  0  0  0  0
   -0.8653    0.3669   -2.1029 H   0  0  0  0  0  0  0  0  0  0  0  0
   -2.1052    1.1313   -0.9058 H   0  0  0  0  0  0  0  0  0  0  0  0
    0.2683    2.7421    0.3984 H   0  0  0  0  0  0  0  0  0  0  0  0
    1.6927    0.5153   -1.3843 H   0  0  0  0  0  0  0  0  0  0  0  0
    1.8431   -0.6029    1.5970 H   0  0  0  0  0  0  0  0  0  0  0  0
    2.7490   -1.2356    0.1239 H   0  0  0  0  0  0  0  0  0  0  0  0
    0.6515   -1.7281   -1.1179 H   0  0  0  0  0  0  0  0  0  0  0  0
  1  2  2  0
  2  3  1  0
  3  4  1  0
  4  5  1  0
  5  6  1  0
  5  7  1  0
  7  8  1  0
  8  9  1  0
  5  3  1  0
  9  7  1  0
  9  3  1  0
  2 10  1  0
  4 11  1  0
  4 12  1  0
  6 13  1  0
  7 14  1  0
  8 15  1  0
  8 16  1  0
  9 17  1  0
M  END
