
     RDKit          3D

 15 16  0  0  0  0  0  0  0  0999 V2000
    3.1129    0.2864    0.3375 O   0  0  0  0  0  0  0  0  0  0  0  0
    1.9313    0.4735    0.4966 C   0  0  0  0  0  0  0  0  0  0  0  0
    0.9481   -0.0409   -0.4744 C   0  0  0  0  0  0  0  0  0  0  0  0
   -0.1390    1.0021   -0.8988 C   0  0  0  0  0  0  0  0  0  0  0  0
   -0.4612   -0.2068   -0.1781 C   0  0  0  0  0  0  0  0  0  0  0  0
   -1.0771   -0.3068    1.1552 C   0  0  0  0  0  0  0  0  0  0  0  0
   -2.1317   -1.0302    0.4969 O   0  0  0  0  0  0  0  0  0  0  0  0
   -1.3212   -1.2764   -0.6018 C   0  0  0  0  0  0  0  0  0  0  0  0
   -1.3951   -2.1150   -1.5302 O   0  0  0  0  0  0  0  0  0  0  0  0
    1.6026    1.0222    1.3587 H   0  0  0  0  0  0  0  0  0  0  0  0
    1.3814   -0.5934   -1.3295 H   0  0  0  0  0  0  0  0  0  0  0  0
   -0.3733    1.0406   -1.9814 H   0  0  0  0  0  0  0  0  0  0  0  0
   -0.1338    1.9578   -0.3260 H   0  0  0  0  0  0  0  0  0  0  0  0
   -0.5470   -0.8963    1.9281 H   0  0  0  0  0  0  0  0  0  0  0  0
   -1.3969    0.6831    1.5473 H   0  0  0  0  0  0  0  0  0  0  0  0
  1  2  2  0
  2  3  1  0
  3  4  1  0
  4  5  1  0
  5  6  1  0
  6  7  1  0
  7  8  1  0
  8  9  2  0
  5  3  1  0
  8  5  1  0
  2 10  1  0
  3 11  1  0
  4 12  1  0
  4 13  1  0
  6 14  1  0
  6 15  1  0
M  END
