
     RDKit          3D

 19 20  0  0  0  0  0  0  0  0999 V2000
   -2.4883    1.2125   -1.3968 O   0  0  0  0  0  0  0  0  0  0  0  0
   -1.7531    1.3502   -0.4399 C   0  0  0  0  0  0  0  0  0  0  0  0
   -0.8987    0.2860    0.1443 C   0  0  0  0  0  0  0  0  0  0  0  0
    0.3220    0.7358    0.9041 C   0  0  0  0  0  0  0  0  0  0  0  0
    1.4343    0.2909   -0.0460 C   0  0  0  0  0  0  0  0  0  0  0  0
    2.6717    0.3219    0.5415 O   0  0  0  0  0  0  0  0  0  0  0  0
    0.9599   -1.1385   -0.3374 C   0  0  0  0  0  0  0  0  0  0  0  0
   -0.4845   -0.8789   -0.6973 C   0  0  0  0  0  0  0  0  0  0  0  0
   -1.4920   -1.0502    0.3739 C   0  0  0  0  0  0  0  0  0  0  0  0
   -1.7143    2.3251    0.0278 H   0  0  0  0  0  0  0  0  0  0  0  0
    0.3506    1.8232    1.0778 H   0  0  0  0  0  0  0  0  0  0  0  0
    0.4159    0.1708    1.8501 H   0  0  0  0  0  0  0  0  0  0  0  0
    1.3568    0.8419   -0.9890 H   0  0  0  0  0  0  0  0  0  0  0  0
    3.2996    0.7934   -0.0576 H   0  0  0  0  0  0  0  0  0  0  0  0
    1.5359   -1.6168   -1.1260 H   0  0  0  0  0  0  0  0  0  0  0  0
    0.9958   -1.6801    0.6427 H   0  0  0  0  0  0  0  0  0  0  0  0
   -0.7758   -0.9472   -1.7599 H   0  0  0  0  0  0  0  0  0  0  0  0
   -1.1689   -1.6931    1.2214 H   0  0  0  0  0  0  0  0  0  0  0  0
   -2.5669   -1.1470    0.0664 H   0  0  0  0  0  0  0  0  0  0  0  0
  1  2  2  0
  2  3  1  0
  3  4  1  0
  4  5  1  0
  5  6  1  0
  5  7  1  0
  7  8  1  0
  8  9  1  0
  8  3  1  0
  9  3  1  0
  2 10  1  0
  4 11  1  0
  4 12  1  0
  5 13  1  0
  6 14  1  0
  7 15  1  0
  7 16  1  0
  8 17  1  0
  9 18  1  0
  9 19  1  0
M  END
