
     RDKit          3D

 17 17  0  0  0  0  0  0  0  0999 V2000
    3.3977   -0.6695    0.3334 O   0  0  0  0  0  0  0  0  0  0  0  0
    2.3083   -0.2140    0.6374 C   0  0  0  0  0  0  0  0  0  0  0  0
    1.3076   -0.0066   -0.4274 C   0  0  0  0  0  0  0  0  0  0  0  0
    0.0319    0.5631    0.1598 C   0  0  0  0  0  0  0  0  0  0  0  0
   -1.0689    0.8236   -0.8056 C   0  0  0  0  0  0  0  0  0  0  0  0
   -1.7819   -0.4285   -0.3598 C   0  0  0  0  0  0  0  0  0  0  0  0
   -0.8379   -0.4830    0.8269 C   0  0  0  0  0  0  0  0  0  0  0  0
    2.1497    0.0096    1.6841 H   0  0  0  0  0  0  0  0  0  0  0  0
    1.7361    0.6233   -1.2140 H   0  0  0  0  0  0  0  0  0  0  0  0
    1.0957   -1.0105   -0.8669 H   0  0  0  0  0  0  0  0  0  0  0  0
    0.2714    1.3776    0.8618 H   0  0  0  0  0  0  0  0  0  0  0  0
   -0.8253    0.7619   -1.8839 H   0  0  0  0  0  0  0  0  0  0  0  0
   -1.6134    1.7730   -0.5893 H   0  0  0  0  0  0  0  0  0  0  0  0
   -2.8502   -0.2716   -0.1009 H   0  0  0  0  0  0  0  0  0  0  0  0
   -1.6020   -1.2927   -1.0360 H   0  0  0  0  0  0  0  0  0  0  0  0
   -1.3473   -0.1091    1.7500 H   0  0  0  0  0  0  0  0  0  0  0  0
   -0.3716   -1.4466    1.0304 H   0  0  0  0  0  0  0  0  0  0  0  0
  1  2  2  0
  2  3  1  0
  3  4  1  0
  4  5  1  0
  5  6  1  0
  6  7  1  0
  7  4  1  0
  2  8  1  0
  3  9  1  0
  3 10  1  0
  4 11  1  0
  5 12  1  0
  5 13  1  0
  6 14  1  0
  6 15  1  0
  7 16  1  0
  7 17  1  0
M  END
