
     RDKit          3D

 19 20  0  0  0  0  0  0  0  0999 V2000
    4.0035    0.1546    0.6750 O   0  0  0  0  0  0  0  0  0  0  0  0
    3.1840    0.6217   -0.0875 C   0  0  0  0  0  0  0  0  0  0  0  0
    1.9310   -0.0790   -0.3109 C   0  0  0  0  0  0  0  0  0  0  0  0
    0.8486    0.1454    0.7526 C   0  0  0  0  0  0  0  0  0  0  0  0
    0.0395   -0.1597   -0.4959 C   0  0  0  0  0  0  0  0  0  0  0  0
   -1.3273    0.3564   -0.5560 C   0  0  0  0  0  0  0  0  0  0  0  0
   -2.4037    0.0447    0.3732 C   0  0  0  0  0  0  0  0  0  0  0  0
   -2.3932   -0.7010   -0.9140 C   0  0  0  0  0  0  0  0  0  0  0  0
    1.0322    0.5132   -1.2004 O   0  0  0  0  0  0  0  0  0  0  0  0
    3.4186    1.5515   -0.5776 H   0  0  0  0  0  0  0  0  0  0  0  0
    1.9843   -1.1684   -0.5108 H   0  0  0  0  0  0  0  0  0  0  0  0
    0.8318    1.1919    1.0787 H   0  0  0  0  0  0  0  0  0  0  0  0
    0.7916   -0.6221    1.5228 H   0  0  0  0  0  0  0  0  0  0  0  0
    0.1206   -1.2388   -0.7189 H   0  0  0  0  0  0  0  0  0  0  0  0
   -1.4535    1.3188   -1.1356 H   0  0  0  0  0  0  0  0  0  0  0  0
   -2.1777   -0.4893    1.3157 H   0  0  0  0  0  0  0  0  0  0  0  0
   -3.2449    0.7715    0.4999 H   0  0  0  0  0  0  0  0  0  0  0  0
   -3.0945   -0.4533   -1.7305 H   0  0  0  0  0  0  0  0  0  0  0  0
   -2.0908   -1.7580   -0.8910 H   0  0  0  0  0  0  0  0  0  0  0  0
  1  2  2  0
  2  3  1  0
  3  4  1  0
  4  5  1  0
  5  6  1  0
  6  7  1  0
  7  8  1  0
  5  9  1  0
  9  3  1  0
  8  6  1  0
  2 10  1  0
  3 11  1  0
  4 12  1  0
  4 13  1  0
  5 14  1  0
  6 15  1  0
  7 16  1  0
  7 17  1  0
  8 18  1  0
  8 19  1  0
M  END
