
     RDKit          3D

 17 17  0  0  0  0  0  0  0  0999 V2000
    3.4378   -0.1979   -0.3183 O   0  0  0  0  0  0  0  0  0  0  0  0
    2.3791    0.3907   -0.5066 C   0  0  0  0  0  0  0  0  0  0  0  0
    1.1279   -0.3999   -0.4243 C   0  0  0  0  0  0  0  0  0  0  0  0
    0.8758   -0.9252    0.9746 C   0  0  0  0  0  0  0  0  0  0  0  0
   -0.5261   -1.0723    0.9481 O   0  0  0  0  0  0  0  0  0  0  0  0
   -0.8801    0.1721    0.3806 C   0  0  0  0  0  0  0  0  0  0  0  0
   -2.2595    0.1180   -0.2286 C   0  0  0  0  0  0  0  0  0  0  0  0
   -2.5345    1.3627   -0.7603 O   0  0  0  0  0  0  0  0  0  0  0  0
    0.0219    0.3875   -0.6565 O   0  0  0  0  0  0  0  0  0  0  0  0
    2.4183    1.4425   -0.7198 H   0  0  0  0  0  0  0  0  0  0  0  0
    1.1150   -1.2273   -1.1490 H   0  0  0  0  0  0  0  0  0  0  0  0
    1.0816   -0.0958    1.6971 H   0  0  0  0  0  0  0  0  0  0  0  0
    1.3979   -1.8519    1.2003 H   0  0  0  0  0  0  0  0  0  0  0  0
   -0.7455    0.9688    1.1094 H   0  0  0  0  0  0  0  0  0  0  0  0
   -2.9923   -0.2055    0.5195 H   0  0  0  0  0  0  0  0  0  0  0  0
   -2.2182   -0.6883   -1.0086 H   0  0  0  0  0  0  0  0  0  0  0  0
   -1.6991    1.8218   -1.0576 H   0  0  0  0  0  0  0  0  0  0  0  0
  1  2  2  0
  2  3  1  0
  3  4  1  0
  4  5  1  0
  5  6  1  0
  6  7  1  0
  7  8  1  0
  6  9  1  0
  9  3  1  0
  2 10  1  0
  3 11  1  0
  4 12  1  0
  4 13  1  0
  6 14  1  0
  7 15  1  0
  7 16  1  0
  8 17  1  0
M  END
