
     RDKit          3D

 14 14  0  0  0  0  0  0  0  0999 V2000
    2.4031   -1.1685    0.9077 O   0  0  0  0  0  0  0  0  0  0  0  0
    1.8672   -0.1998    0.4175 C   0  0  0  0  0  0  0  0  0  0  0  0
    0.7531   -0.3083   -0.5642 C   0  0  0  0  0  0  0  0  0  0  0  0
   -0.4743   -0.9160    0.0244 C   0  0  0  0  0  0  0  0  0  0  0  0
   -1.3106    0.2383    0.4630 C   0  0  0  0  0  0  0  0  0  0  0  0
   -0.6946    1.4292   -0.1771 C   0  0  0  0  0  0  0  0  0  0  0  0
   -1.1110    2.5996    0.0428 O   0  0  0  0  0  0  0  0  0  0  0  0
    0.3188    0.9730   -0.9700 O   0  0  0  0  0  0  0  0  0  0  0  0
    2.2170    0.7756    0.7095 H   0  0  0  0  0  0  0  0  0  0  0  0
    1.0596   -0.8590   -1.4810 H   0  0  0  0  0  0  0  0  0  0  0  0
   -1.0206   -1.4411   -0.8076 H   0  0  0  0  0  0  0  0  0  0  0  0
   -0.2853   -1.6690    0.8100 H   0  0  0  0  0  0  0  0  0  0  0  0
   -2.3670    0.1568    0.0952 H   0  0  0  0  0  0  0  0  0  0  0  0
   -1.3554    0.3892    1.5510 H   0  0  0  0  0  0  0  0  0  0  0  0
  1  2  2  0
  2  3  1  0
  3  4  1  0
  4  5  1  0
  5  6  1  0
  6  7  2  0
  6  8  1  0
  8  3  1  0
  2  9  1  0
  3 10  1  0
  4 11  1  0
  4 12  1  0
  5 13  1  0
  5 14  1  0
M  END
