
     RDKit          3D

 18 18  0  0  0  0  0  0  0  0999 V2000
    1.2329    1.5933   -0.3776 O   0  0  0  0  0  0  0  0  0  0  0  0
    2.0909    0.7920   -0.6989 C   0  0  0  0  0  0  0  0  0  0  0  0
    1.8647   -0.6389   -0.4074 C   0  0  0  0  0  0  0  0  0  0  0  0
    0.5512   -0.8794    0.2541 C   0  0  0  0  0  0  0  0  0  0  0  0
   -0.6291   -0.4544   -0.5508 C   0  0  0  0  0  0  0  0  0  0  0  0
   -2.0033   -0.6408   -0.0053 C   0  0  0  0  0  0  0  0  0  0  0  0
   -1.4151    0.7223    0.0100 C   0  0  0  0  0  0  0  0  0  0  0  0
   -1.7982    1.6611   -0.9469 O   0  0  0  0  0  0  0  0  0  0  0  0
    2.9762    1.1784   -1.1833 H   0  0  0  0  0  0  0  0  0  0  0  0
    2.6781   -0.9457    0.3048 H   0  0  0  0  0  0  0  0  0  0  0  0
    2.0175   -1.2105   -1.3318 H   0  0  0  0  0  0  0  0  0  0  0  0
    0.5290   -0.3545    1.2304 H   0  0  0  0  0  0  0  0  0  0  0  0
    0.4297   -1.9837    0.4582 H   0  0  0  0  0  0  0  0  0  0  0  0
   -0.5532   -0.5306   -1.6745 H   0  0  0  0  0  0  0  0  0  0  0  0
   -2.0713   -1.1953    0.9446 H   0  0  0  0  0  0  0  0  0  0  0  0
   -2.8294   -0.8131   -0.6953 H   0  0  0  0  0  0  0  0  0  0  0  0
   -1.1347    1.1427    0.9758 H   0  0  0  0  0  0  0  0  0  0  0  0
   -1.9359    2.5572   -0.5281 H   0  0  0  0  0  0  0  0  0  0  0  0
  1  2  2  0
  2  3  1  0
  3  4  1  0
  4  5  1  0
  5  6  1  0
  6  7  1  0
  7  8  1  0
  7  5  1  0
  2  9  1  0
  3 10  1  0
  3 11  1  0
  4 12  1  0
  4 13  1  0
  5 14  1  0
  6 15  1  0
  6 16  1  0
  7 17  1  0
  8 18  1  0
M  END
