
     RDKit          3D

 17 18  0  0  0  0  0  0  0  0999 V2000
    1.4095   -1.7571    0.5647 O   0  0  0  0  0  0  0  0  0  0  0  0
    2.0103   -0.8210    0.0635 C   0  0  0  0  0  0  0  0  0  0  0  0
    1.3279    0.3478   -0.5051 C   0  0  0  0  0  0  0  0  0  0  0  0
    0.0106    0.2517   -1.1686 C   0  0  0  0  0  0  0  0  0  0  0  0
   -1.0646   -0.6649   -0.6806 C   0  0  0  0  0  0  0  0  0  0  0  0
   -0.9798    0.0080    0.6644 C   0  0  0  0  0  0  0  0  0  0  0  0
   -0.7707   -0.8476    1.7292 O   0  0  0  0  0  0  0  0  0  0  0  0
    0.1570    0.8571    0.2295 C   0  0  0  0  0  0  0  0  0  0  0  0
    0.0122    2.2278    0.3751 O   0  0  0  0  0  0  0  0  0  0  0  0
    3.0920   -0.8972    0.0590 H   0  0  0  0  0  0  0  0  0  0  0  0
    1.9988    1.1325   -0.9325 H   0  0  0  0  0  0  0  0  0  0  0  0
   -0.2490    0.9372   -1.9949 H   0  0  0  0  0  0  0  0  0  0  0  0
   -0.8392   -1.7423   -0.6609 H   0  0  0  0  0  0  0  0  0  0  0  0
   -2.0307   -0.4825   -1.1885 H   0  0  0  0  0  0  0  0  0  0  0  0
   -1.9018    0.6196    0.8767 H   0  0  0  0  0  0  0  0  0  0  0  0
   -1.4003   -1.6060    1.6534 H   0  0  0  0  0  0  0  0  0  0  0  0
   -0.7820    2.4371    0.9156 H   0  0  0  0  0  0  0  0  0  0  0  0
  1  2  2  0
  2  3  1  0
  3  4  1  0
  4  5  1  0
  5  6  1  0
  6  7  1  0
  6  8  1  0
  8  9  1  0
  8  3  1  0
  8  4  1  0
  2 10  1  0
  3 11  1  0
  4 12  1  0
  5 13  1  0
  5 14  1  0
  6 15  1  0
  7 16  1  0
  9 17  1  0
M  END
