
     RDKit          3D

 17 17  0  0  0  0  0  0  0  0999 V2000
    2.8911   -0.8313    0.1377 O   0  0  0  0  0  0  0  0  0  0  0  0
    1.7771   -0.9678   -0.3378 C   0  0  0  0  0  0  0  0  0  0  0  0
    0.9777    0.2518   -0.5861 C   0  0  0  0  0  0  0  0  0  0  0  0
    1.6932    1.3821   -0.2121 O   0  0  0  0  0  0  0  0  0  0  0  0
   -0.3945    0.2107    0.0194 C   0  0  0  0  0  0  0  0  0  0  0  0
   -1.1844    1.4585   -0.2454 C   0  0  0  0  0  0  0  0  0  0  0  0
   -2.3204    1.5013    0.2190 O   0  0  0  0  0  0  0  0  0  0  0  0
   -1.1101   -1.1104   -0.0366 C   0  0  0  0  0  0  0  0  0  0  0  0
   -0.7017   -0.5135    1.2585 C   0  0  0  0  0  0  0  0  0  0  0  0
    1.4137   -1.9728   -0.5607 H   0  0  0  0  0  0  0  0  0  0  0  0
    0.8226    0.3543   -1.6990 H   0  0  0  0  0  0  0  0  0  0  0  0
    1.1358    2.1790   -0.1054 H   0  0  0  0  0  0  0  0  0  0  0  0
   -0.8192    2.2921   -0.8034 H   0  0  0  0  0  0  0  0  0  0  0  0
   -0.6141   -2.0177   -0.4159 H   0  0  0  0  0  0  0  0  0  0  0  0
   -2.1759   -1.0175   -0.3856 H   0  0  0  0  0  0  0  0  0  0  0  0
   -1.4764   -0.1077    1.9479 H   0  0  0  0  0  0  0  0  0  0  0  0
    0.0856   -1.0909    1.8056 H   0  0  0  0  0  0  0  0  0  0  0  0
  1  2  2  0
  2  3  1  0
  3  4  1  0
  3  5  1  0
  5  6  1  0
  6  7  2  0
  5  8  1  0
  8  9  1  0
  9  5  1  0
  2 10  1  0
  3 11  1  0
  4 12  1  0
  6 13  1  0
  8 14  1  0
  8 15  1  0
  9 16  1  0
  9 17  1  0
M  END
