
     RDKit          3D

 17 18  0  0  0  0  0  0  0  0999 V2000
    3.2180   -0.5364    0.4803 O   0  0  0  0  0  0  0  0  0  0  0  0
    2.6984    0.1938   -0.3461 C   0  0  0  0  0  0  0  0  0  0  0  0
    1.2445    0.3162   -0.5352 C   0  0  0  0  0  0  0  0  0  0  0  0
    0.3682   -0.8046   -0.1252 C   0  0  0  0  0  0  0  0  0  0  0  0
   -0.9338   -1.0061   -0.7616 C   0  0  0  0  0  0  0  0  0  0  0  0
   -1.9884   -0.3138   -0.3819 C   0  0  0  0  0  0  0  0  0  0  0  0
   -1.8523    0.6729    0.6948 C   0  0  0  0  0  0  0  0  0  0  0  0
   -0.5946    1.2247    0.7854 O   0  0  0  0  0  0  0  0  0  0  0  0
    0.4354    0.3321    0.7744 C   0  0  0  0  0  0  0  0  0  0  0  0
    3.3551    0.7811   -0.9712 H   0  0  0  0  0  0  0  0  0  0  0  0
    0.9362    1.0212   -1.3259 H   0  0  0  0  0  0  0  0  0  0  0  0
    0.8510   -1.7525    0.1993 H   0  0  0  0  0  0  0  0  0  0  0  0
   -1.0693   -1.7277   -1.5609 H   0  0  0  0  0  0  0  0  0  0  0  0
   -2.9759   -0.4440   -0.8401 H   0  0  0  0  0  0  0  0  0  0  0  0
   -2.1615    0.2486    1.6857 H   0  0  0  0  0  0  0  0  0  0  0  0
   -2.5614    1.5028    0.4937 H   0  0  0  0  0  0  0  0  0  0  0  0
    1.0306    0.2918    1.7344 H   0  0  0  0  0  0  0  0  0  0  0  0
  1  2  2  0
  2  3  1  0
  3  4  1  0
  4  5  1  0
  5  6  2  0
  6  7  1  0
  7  8  1  0
  8  9  1  0
  9  3  1  0
  9  4  1  0
  2 10  1  0
  3 11  1  0
  4 12  1  0
  5 13  1  0
  6 14  1  0
  7 15  1  0
  7 16  1  0
  9 17  1  0
M  END
