
     RDKit          3D

 14 14  0  0  0  0  0  0  0  0999 V2000
   -4.0357    0.6478    0.4822 O   0  0  0  0  0  0  0  0  0  0  0  0
   -2.8367    0.5283    0.6070 C   0  0  0  0  0  0  0  0  0  0  0  0
   -2.0708   -0.2442   -0.3661 C   0  0  0  0  0  0  0  0  0  0  0  0
   -0.6395   -0.2621   -0.0284 C   0  0  0  0  0  0  0  0  0  0  0  0
    0.5316   -0.2620    0.2600 C   0  0  0  0  0  0  0  0  0  0  0  0
    1.9667   -0.2692    0.6236 C   0  0  0  0  0  0  0  0  0  0  0  0
    2.8785    0.0269   -0.5387 C   0  0  0  0  0  0  0  0  0  0  0  0
    2.5466    0.9864    0.5303 O   0  0  0  0  0  0  0  0  0  0  0  0
   -2.3549    1.0013    1.4451 H   0  0  0  0  0  0  0  0  0  0  0  0
   -2.4862   -1.2935   -0.4132 H   0  0  0  0  0  0  0  0  0  0  0  0
   -2.1844    0.1513   -1.4170 H   0  0  0  0  0  0  0  0  0  0  0  0
    2.3028   -0.9797    1.4066 H   0  0  0  0  0  0  0  0  0  0  0  0
    3.9316   -0.2977   -0.5112 H   0  0  0  0  0  0  0  0  0  0  0  0
    2.4503    0.2664   -1.5114 H   0  0  0  0  0  0  0  0  0  0  0  0
  1  2  2  0
  2  3  1  0
  3  4  1  0
  4  5  3  0
  5  6  1  0
  6  7  1  0
  7  8  1  0
  8  6  1  0
  2  9  1  0
  3 10  1  0
  3 11  1  0
  6 12  1  0
  7 13  1  0
  7 14  1  0
M  END
