
     RDKit          3D

 21 22  0  0  0  0  0  0  0  0999 V2000
    3.4013   -0.8733    1.3182 O   0  0  0  0  0  0  0  0  0  0  0  0
    2.7973    0.0249    0.7588 C   0  0  0  0  0  0  0  0  0  0  0  0
    1.3553   -0.1449    0.5047 C   0  0  0  0  0  0  0  0  0  0  0  0
    0.6370    1.0489   -0.0328 C   0  0  0  0  0  0  0  0  0  0  0  0
   -0.0905    0.1534   -0.9698 C   0  0  0  0  0  0  0  0  0  0  0  0
   -1.3825   -0.4375   -0.5032 C   0  0  0  0  0  0  0  0  0  0  0  0
   -2.5053    0.4878   -0.1266 C   0  0  0  0  0  0  0  0  0  0  0  0
   -1.8349   -0.4016    0.8881 C   0  0  0  0  0  0  0  0  0  0  0  0
    1.0400   -0.8452   -0.8041 C   0  0  0  0  0  0  0  0  0  0  0  0
    3.3312    0.9199    0.4640 H   0  0  0  0  0  0  0  0  0  0  0  0
    0.8807   -0.6612    1.3599 H   0  0  0  0  0  0  0  0  0  0  0  0
    0.0390    1.6346    0.6838 H   0  0  0  0  0  0  0  0  0  0  0  0
    1.3544    1.7110   -0.5788 H   0  0  0  0  0  0  0  0  0  0  0  0
   -0.1828    0.5588   -2.0010 H   0  0  0  0  0  0  0  0  0  0  0  0
   -1.6890   -1.3458   -1.0973 H   0  0  0  0  0  0  0  0  0  0  0  0
   -2.3320    1.5756   -0.1113 H   0  0  0  0  0  0  0  0  0  0  0  0
   -3.5459    0.2198   -0.4658 H   0  0  0  0  0  0  0  0  0  0  0  0
   -2.4957   -1.2309    1.2628 H   0  0  0  0  0  0  0  0  0  0  0  0
   -1.3511    0.1416    1.7020 H   0  0  0  0  0  0  0  0  0  0  0  0
    0.7241   -1.8941   -0.7161 H   0  0  0  0  0  0  0  0  0  0  0  0
    1.8492   -0.6417   -1.5356 H   0  0  0  0  0  0  0  0  0  0  0  0
  1  2  2  0
  2  3  1  0
  3  4  1  0
  4  5  1  0
  5  6  1  0
  6  7  1  0
  7  8  1  0
  5  9  1  0
  9  3  1  0
  8  6  1  0
  2 10  1  0
  3 11  1  0
  4 12  1  0
  4 13  1  0
  5 14  1  0
  6 15  1  0
  7 16  1  0
  7 17  1  0
  8 18  1  0
  8 19  1  0
  9 20  1  0
  9 21  1  0
M  END
