
     RDKit          3D

 16 16  0  0  0  0  0  0  0  0999 V2000
    3.0642    1.3578    0.2314 O   0  0  0  0  0  0  0  0  0  0  0  0
    2.2376    0.6904    0.8087 C   0  0  0  0  0  0  0  0  0  0  0  0
    1.4536   -0.3251    0.0859 C   0  0  0  0  0  0  0  0  0  0  0  0
    0.1132    0.2076   -0.3494 C   0  0  0  0  0  0  0  0  0  0  0  0
   -0.7498   -0.7955   -1.1236 C   0  0  0  0  0  0  0  0  0  0  0  0
   -1.1369   -0.3446    0.2316 C   0  0  0  0  0  0  0  0  0  0  0  0
   -2.2989    0.5630    0.3607 C   0  0  0  0  0  0  0  0  0  0  0  0
   -3.1185    0.3995    1.2399 O   0  0  0  0  0  0  0  0  0  0  0  0
    2.0765    0.8470    1.8579 H   0  0  0  0  0  0  0  0  0  0  0  0
    1.3492   -1.2230    0.7542 H   0  0  0  0  0  0  0  0  0  0  0  0
    2.0278   -0.6749   -0.8077 H   0  0  0  0  0  0  0  0  0  0  0  0
    0.1149    1.2608   -0.6790 H   0  0  0  0  0  0  0  0  0  0  0  0
   -0.3533   -1.8193   -1.2655 H   0  0  0  0  0  0  0  0  0  0  0  0
   -1.2363   -0.3846   -2.0305 H   0  0  0  0  0  0  0  0  0  0  0  0
   -1.1038   -1.1437    1.0086 H   0  0  0  0  0  0  0  0  0  0  0  0
   -2.4395    1.3846   -0.3234 H   0  0  0  0  0  0  0  0  0  0  0  0
  1  2  2  0
  2  3  1  0
  3  4  1  0
  4  5  1  0
  5  6  1  0
  6  7  1  0
  7  8  2  0
  6  4  1  0
  2  9  1  0
  3 10  1  0
  3 11  1  0
  4 12  1  0
  5 13  1  0
  5 14  1  0
  6 15  1  0
  7 16  1  0
M  END
