
     RDKit          3D

 17 18  0  0  0  0  0  0  0  0999 V2000
    2.8861   -1.5183    0.1579 O   0  0  0  0  0  0  0  0  0  0  0  0
    2.0292   -0.6838    0.4714 C   0  0  0  0  0  0  0  0  0  0  0  0
    1.1091   -0.1461   -0.5448 C   0  0  0  0  0  0  0  0  0  0  0  0
    0.7949    1.3800   -0.4778 C   0  0  0  0  0  0  0  0  0  0  0  0
   -0.2011    0.4076   -0.2182 C   0  0  0  0  0  0  0  0  0  0  0  0
   -0.9560    0.1486    1.0208 C   0  0  0  0  0  0  0  0  0  0  0  0
   -1.7380   -0.8543    0.1605 C   0  0  0  0  0  0  0  0  0  0  0  0
   -1.3654    0.0319   -1.0089 C   0  0  0  0  0  0  0  0  0  0  0  0
   -1.8043    0.3139   -2.0937 O   0  0  0  0  0  0  0  0  0  0  0  0
    1.9750   -0.3634    1.5010 H   0  0  0  0  0  0  0  0  0  0  0  0
    1.2389   -0.5348   -1.5827 H   0  0  0  0  0  0  0  0  0  0  0  0
    1.2856    1.9020    0.3938 H   0  0  0  0  0  0  0  0  0  0  0  0
    0.8316    1.9204   -1.4523 H   0  0  0  0  0  0  0  0  0  0  0  0
   -0.4560   -0.2767    1.8856 H   0  0  0  0  0  0  0  0  0  0  0  0
   -1.6641    0.9981    1.2498 H   0  0  0  0  0  0  0  0  0  0  0  0
   -1.1650   -1.8097    0.1668 H   0  0  0  0  0  0  0  0  0  0  0  0
   -2.8005   -0.9156    0.3706 H   0  0  0  0  0  0  0  0  0  0  0  0
  1  2  2  0
  2  3  1  0
  3  4  1  0
  4  5  1  0
  5  6  1  0
  6  7  1  0
  7  8  1  0
  8  9  2  0
  5  3  1  0
  8  5  1  0
  2 10  1  0
  3 11  1  0
  4 12  1  0
  4 13  1  0
  6 14  1  0
  6 15  1  0
  7 16  1  0
  7 17  1  0
M  END
