
     RDKit          3D

 19 19  0  0  0  0  0  0  0  0999 V2000
    2.9945    0.3352    0.5951 O   0  0  0  0  0  0  0  0  0  0  0  0
    1.8487   -0.0222    0.7512 C   0  0  0  0  0  0  0  0  0  0  0  0
    0.7902    0.2053   -0.2571 C   0  0  0  0  0  0  0  0  0  0  0  0
    1.3791    0.8785   -1.3493 O   0  0  0  0  0  0  0  0  0  0  0  0
    0.1489   -1.0577   -0.7453 C   0  0  0  0  0  0  0  0  0  0  0  0
   -1.0008   -1.3114    0.2177 C   0  0  0  0  0  0  0  0  0  0  0  0
   -1.5147    0.0789    0.4571 C   0  0  0  0  0  0  0  0  0  0  0  0
   -0.3506    1.0072    0.3137 C   0  0  0  0  0  0  0  0  0  0  0  0
   -0.6591    2.0152   -0.5861 O   0  0  0  0  0  0  0  0  0  0  0  0
    1.5864   -0.5283    1.6638 H   0  0  0  0  0  0  0  0  0  0  0  0
    2.0371    0.2115   -1.7198 H   0  0  0  0  0  0  0  0  0  0  0  0
   -0.3222   -0.8455   -1.7337 H   0  0  0  0  0  0  0  0  0  0  0  0
    0.8482   -1.8961   -0.7957 H   0  0  0  0  0  0  0  0  0  0  0  0
   -1.7553   -1.9510   -0.2797 H   0  0  0  0  0  0  0  0  0  0  0  0
   -0.6585   -1.7753    1.1471 H   0  0  0  0  0  0  0  0  0  0  0  0
   -2.0019    0.1456    1.4605 H   0  0  0  0  0  0  0  0  0  0  0  0
   -2.3420    0.2984   -0.2762 H   0  0  0  0  0  0  0  0  0  0  0  0
   -0.0314    1.3799    1.3045 H   0  0  0  0  0  0  0  0  0  0  0  0
   -0.9966    2.8317   -0.1678 H   0  0  0  0  0  0  0  0  0  0  0  0
  1  2  2  0
  2  3  1  0
  3  4  1  0
  3  5  1  0
  5  6  1  0
  6  7  1  0
  7  8  1  0
  8  9  1  0
  8  3  1  0
  2 10  1  0
  4 11  1  0
  5 12  1  0
  5 13  1  0
  6 14  1  0
  6 15  1  0
  7 16  1  0
  7 17  1  0
  8 18  1  0
  9 19  1  0
M  END
