
     RDKit          3D

 12 11  0  0  0  0  0  0  0  0999 V2000
    4.4785   -0.0713   -1.1544 O   0  0  0  0  0  0  0  0  0  0  0  0
    3.9081   -0.7648   -0.2920 C   0  0  0  0  0  0  0  0  0  0  0  0
    2.4516   -0.5748   -0.0705 C   0  0  0  0  0  0  0  0  0  0  0  0
    1.3056   -0.4048    0.1019 C   0  0  0  0  0  0  0  0  0  0  0  0
   -0.1168   -0.1704    0.3055 C   0  0  0  0  0  0  0  0  0  0  0  0
   -1.2367    0.0338    0.4718 C   0  0  0  0  0  0  0  0  0  0  0  0
   -2.7019    0.3111    0.7143 C   0  0  0  0  0  0  0  0  0  0  0  0
   -2.8532    1.0916    1.8478 O   0  0  0  0  0  0  0  0  0  0  0  0
    4.4210   -1.4801    0.2865 H   0  0  0  0  0  0  0  0  0  0  0  0
   -3.1207    0.7990   -0.1735 H   0  0  0  0  0  0  0  0  0  0  0  0
   -3.1782   -0.6882    0.7713 H   0  0  0  0  0  0  0  0  0  0  0  0
   -3.3574    1.9189    1.5621 H   0  0  0  0  0  0  0  0  0  0  0  0
  1  2  2  0
  2  3  1  0
  3  4  3  0
  4  5  1  0
  5  6  3  0
  6  7  1  0
  7  8  1  0
  2  9  1  0
  7 10  1  0
  7 11  1  0
  8 12  1  0
M  END
