
     RDKit          3D

 21 21  0  0  0  0  0  0  0  0999 V2000
   -2.7194    1.5112   -0.2099 O   0  0  0  0  0  0  0  0  0  0  0  0
   -2.7590    0.3243   -0.0134 C   0  0  0  0  0  0  0  0  0  0  0  0
   -1.7404   -0.5391   -0.6436 C   0  0  0  0  0  0  0  0  0  0  0  0
   -0.4572   -0.3246    0.1288 C   0  0  0  0  0  0  0  0  0  0  0  0
   -0.1039    1.1246    0.0185 C   0  0  0  0  0  0  0  0  0  0  0  0
    1.3586    1.3840    0.1009 C   0  0  0  0  0  0  0  0  0  0  0  0
    2.2562    0.4651    0.3617 C   0  0  0  0  0  0  0  0  0  0  0  0
    1.8302   -0.9317    0.5953 C   0  0  0  0  0  0  0  0  0  0  0  0
    0.6745   -1.1547   -0.3922 C   0  0  0  0  0  0  0  0  0  0  0  0
   -3.5167   -0.1042    0.6060 H   0  0  0  0  0  0  0  0  0  0  0  0
   -1.6244   -0.2172   -1.7058 H   0  0  0  0  0  0  0  0  0  0  0  0
   -2.0574   -1.6108   -0.5726 H   0  0  0  0  0  0  0  0  0  0  0  0
   -0.5788   -0.5607    1.2049 H   0  0  0  0  0  0  0  0  0  0  0  0
   -0.6412    1.6779    0.8404 H   0  0  0  0  0  0  0  0  0  0  0  0
   -0.4566    1.5273   -0.9515 H   0  0  0  0  0  0  0  0  0  0  0  0
    1.6840    2.3951   -0.0673 H   0  0  0  0  0  0  0  0  0  0  0  0
    3.2951    0.7071    0.4086 H   0  0  0  0  0  0  0  0  0  0  0  0
    1.4248   -0.9650    1.6480 H   0  0  0  0  0  0  0  0  0  0  0  0
    2.6216   -1.6766    0.4817 H   0  0  0  0  0  0  0  0  0  0  0  0
    1.0458   -0.7978   -1.3867 H   0  0  0  0  0  0  0  0  0  0  0  0
    0.4641   -2.2343   -0.4516 H   0  0  0  0  0  0  0  0  0  0  0  0
  1  2  2  0
  2  3  1  0
  3  4  1  0
  4  5  1  0
  5  6  1  0
  6  7  2  0
  7  8  1  0
  8  9  1  0
  9  4  1  0
  2 10  1  0
  3 11  1  0
  3 12  1  0
  4 13  1  0
  5 14  1  0
  5 15  1  0
  6 16  1  0
  7 17  1  0
  8 18  1  0
  8 19  1  0
  9 20  1  0
  9 21  1  0
M  END
