
     RDKit          3D

 15 15  0  0  0  0  0  0  0  0999 V2000
    1.2560    0.1371   -2.0718 O   0  0  0  0  0  0  0  0  0  0  0  0
    0.7155   -0.6220   -1.2876 C   0  0  0  0  0  0  0  0  0  0  0  0
    0.2559   -0.0847   -0.0083 C   0  0  0  0  0  0  0  0  0  0  0  0
   -0.6778   -0.9466    0.7953 C   0  0  0  0  0  0  0  0  0  0  0  0
   -1.8429   -1.1987    0.0508 O   0  0  0  0  0  0  0  0  0  0  0  0
   -0.2612    1.3462   -0.0805 C   0  0  0  0  0  0  0  0  0  0  0  0
    1.1324    1.6932   -0.0945 O   0  0  0  0  0  0  0  0  0  0  0  0
    1.3328    0.5798    0.7188 C   0  0  0  0  0  0  0  0  0  0  0  0
    2.1639    0.4174    1.6500 O   0  0  0  0  0  0  0  0  0  0  0  0
    0.5895   -1.6519   -1.5468 H   0  0  0  0  0  0  0  0  0  0  0  0
   -0.2151   -1.9404    0.9798 H   0  0  0  0  0  0  0  0  0  0  0  0
   -0.9973   -0.4290    1.7072 H   0  0  0  0  0  0  0  0  0  0  0  0
   -1.9391   -0.5400   -0.6766 H   0  0  0  0  0  0  0  0  0  0  0  0
   -0.8032    1.5615   -0.9986 H   0  0  0  0  0  0  0  0  0  0  0  0
   -0.7095    1.6779    0.8627 H   0  0  0  0  0  0  0  0  0  0  0  0
  1  2  2  0
  2  3  1  0
  3  4  1  0
  4  5  1  0
  3  6  1  0
  6  7  1  0
  7  8  1  0
  8  9  2  0
  8  3  1  0
  2 10  1  0
  4 11  1  0
  4 12  1  0
  5 13  1  0
  6 14  1  0
  6 15  1  0
M  END
