
     RDKit          3D

 14 14  0  0  0  0  0  0  0  0999 V2000
   -1.3952   -1.7712    0.9449 O   0  0  0  0  0  0  0  0  0  0  0  0
   -1.5546   -1.0541   -0.0065 C   0  0  0  0  0  0  0  0  0  0  0  0
   -0.4319   -0.2342   -0.5382 C   0  0  0  0  0  0  0  0  0  0  0  0
   -0.4914    1.1578    0.1006 C   0  0  0  0  0  0  0  0  0  0  0  0
    0.9624    1.0425    0.3735 C   0  0  0  0  0  0  0  0  0  0  0  0
    1.7903    1.8928    0.5943 O   0  0  0  0  0  0  0  0  0  0  0  0
    0.8515   -0.4052    0.2488 C   0  0  0  0  0  0  0  0  0  0  0  0
    1.8563   -1.0934   -0.3617 O   0  0  0  0  0  0  0  0  0  0  0  0
   -2.5051   -0.9651   -0.5211 H   0  0  0  0  0  0  0  0  0  0  0  0
   -0.3240   -0.2275   -1.6270 H   0  0  0  0  0  0  0  0  0  0  0  0
   -0.7799    1.9210   -0.6366 H   0  0  0  0  0  0  0  0  0  0  0  0
   -1.0887    1.1765    1.0509 H   0  0  0  0  0  0  0  0  0  0  0  0
    0.6146   -0.8633    1.2486 H   0  0  0  0  0  0  0  0  0  0  0  0
    2.4959   -0.5766   -0.8706 H   0  0  0  0  0  0  0  0  0  0  0  0
  1  2  2  0
  2  3  1  0
  3  4  1  0
  4  5  1  0
  5  6  2  0
  5  7  1  0
  7  8  1  0
  7  3  1  0
  2  9  1  0
  3 10  1  0
  4 11  1  0
  4 12  1  0
  7 13  1  0
  8 14  1  0
M  END
