
     RDKit          3D

 19 19  0  0  0  0  0  0  0  0999 V2000
    3.7433    0.7902   -0.1239 O   0  0  0  0  0  0  0  0  0  0  0  0
    3.2368   -0.2977   -0.1893 C   0  0  0  0  0  0  0  0  0  0  0  0
    1.7872   -0.4364   -0.5480 C   0  0  0  0  0  0  0  0  0  0  0  0
    0.9909   -0.1162    0.6876 C   0  0  0  0  0  0  0  0  0  0  0  0
   -0.3649   -0.2040    0.5553 O   0  0  0  0  0  0  0  0  0  0  0  0
   -0.8212    0.6722   -0.4151 C   0  0  0  0  0  0  0  0  0  0  0  0
   -2.3289    0.6050   -0.5554 C   0  0  0  0  0  0  0  0  0  0  0  0
   -2.9714   -0.4581    0.2999 C   0  0  0  0  0  0  0  0  0  0  0  0
   -3.1107    0.9024    0.5584 O   0  0  0  0  0  0  0  0  0  0  0  0
    3.8254   -1.1723    0.0104 H   0  0  0  0  0  0  0  0  0  0  0  0
    1.5503    0.2809   -1.3643 H   0  0  0  0  0  0  0  0  0  0  0  0
    1.5714   -1.4482   -0.9326 H   0  0  0  0  0  0  0  0  0  0  0  0
    1.3181   -0.7817    1.5223 H   0  0  0  0  0  0  0  0  0  0  0  0
    1.3032    0.9331    0.9754 H   0  0  0  0  0  0  0  0  0  0  0  0
   -0.4470    1.6922   -0.2580 H   0  0  0  0  0  0  0  0  0  0  0  0
   -0.4404    0.2385   -1.3891 H   0  0  0  0  0  0  0  0  0  0  0  0
   -2.7001    0.8343   -1.5538 H   0  0  0  0  0  0  0  0  0  0  0  0
   -2.3552   -1.0378    1.0114 H   0  0  0  0  0  0  0  0  0  0  0  0
   -3.7868   -0.9963   -0.2044 H   0  0  0  0  0  0  0  0  0  0  0  0
  1  2  2  0
  2  3  1  0
  3  4  1  0
  4  5  1  0
  5  6  1  0
  6  7  1  0
  7  8  1  0
  8  9  1  0
  9  7  1  0
  2 10  1  0
  3 11  1  0
  3 12  1  0
  4 13  1  0
  4 14  1  0
  6 15  1  0
  6 16  1  0
  7 17  1  0
  8 18  1  0
  8 19  1  0
M  END
