
     RDKit          3D

 16 15  0  0  0  0  0  0  0  0999 V2000
    3.7709   -1.2664   -2.3187 O   0  0  0  0  0  0  0  0  0  0  0  0
    3.7058   -0.6548   -1.2208 C   0  0  0  0  0  0  0  0  0  0  0  0
    2.4561   -0.4705   -0.5372 C   0  0  0  0  0  0  0  0  0  0  0  0
    1.4167   -0.3098    0.0543 C   0  0  0  0  0  0  0  0  0  0  0  0
    0.1347   -0.1291    0.7800 C   0  0  0  0  0  0  0  0  0  0  0  0
   -0.9118    0.1040   -0.2945 C   0  0  0  0  0  0  0  0  0  0  0  0
   -2.2582    0.2985    0.3669 C   0  0  0  0  0  0  0  0  0  0  0  0
   -3.2621    0.5158   -0.5404 O   0  0  0  0  0  0  0  0  0  0  0  0
    4.6382   -0.2776   -0.8225 H   0  0  0  0  0  0  0  0  0  0  0  0
   -0.1278   -1.0165    1.3581 H   0  0  0  0  0  0  0  0  0  0  0  0
    0.2121    0.7298    1.4696 H   0  0  0  0  0  0  0  0  0  0  0  0
   -0.6540    1.0634   -0.7927 H   0  0  0  0  0  0  0  0  0  0  0  0
   -0.9011   -0.6699   -1.0639 H   0  0  0  0  0  0  0  0  0  0  0  0
   -2.5144   -0.5885    1.0071 H   0  0  0  0  0  0  0  0  0  0  0  0
   -2.1502    1.2086    1.0267 H   0  0  0  0  0  0  0  0  0  0  0  0
   -3.5550    1.4629   -0.5161 H   0  0  0  0  0  0  0  0  0  0  0  0
  1  2  2  0
  2  3  1  0
  3  4  3  0
  4  5  1  0
  5  6  1  0
  6  7  1  0
  7  8  1  0
  2  9  1  0
  5 10  1  0
  5 11  1  0
  6 12  1  0
  6 13  1  0
  7 14  1  0
  7 15  1  0
  8 16  1  0
M  END
