
     RDKit          3D

 17 17  0  0  0  0  0  0  0  0999 V2000
    4.8386    0.2528   -0.4273 O   0  0  0  0  0  0  0  0  0  0  0  0
    3.8069    0.8516   -0.0493 C   0  0  0  0  0  0  0  0  0  0  0  0
    2.5068    0.2704   -0.1482 C   0  0  0  0  0  0  0  0  0  0  0  0
    1.3954   -0.2300   -0.2316 C   0  0  0  0  0  0  0  0  0  0  0  0
    0.0782   -0.8499   -0.3325 C   0  0  0  0  0  0  0  0  0  0  0  0
   -0.9060   -0.1417    0.5338 C   0  0  0  0  0  0  0  0  0  0  0  0
   -2.2770   -0.8083    0.4116 C   0  0  0  0  0  0  0  0  0  0  0  0
   -2.4139   -0.1221   -0.8141 O   0  0  0  0  0  0  0  0  0  0  0  0
   -1.6699    0.9075   -0.2355 C   0  0  0  0  0  0  0  0  0  0  0  0
    3.9063    1.8391    0.3644 H   0  0  0  0  0  0  0  0  0  0  0  0
    0.2027   -1.9257   -0.0972 H   0  0  0  0  0  0  0  0  0  0  0  0
   -0.3140   -0.8215   -1.3828 H   0  0  0  0  0  0  0  0  0  0  0  0
   -0.6087    0.1111    1.5478 H   0  0  0  0  0  0  0  0  0  0  0  0
   -2.9552   -0.4470    1.1826 H   0  0  0  0  0  0  0  0  0  0  0  0
   -2.2167   -1.9063    0.2650 H   0  0  0  0  0  0  0  0  0  0  0  0
   -1.0276    1.4759   -0.9556 H   0  0  0  0  0  0  0  0  0  0  0  0
   -2.3456    1.5440    0.3689 H   0  0  0  0  0  0  0  0  0  0  0  0
  1  2  2  0
  2  3  1  0
  3  4  3  0
  4  5  1  0
  5  6  1  0
  6  7  1  0
  7  8  1  0
  8  9  1  0
  9  6  1  0
  2 10  1  0
  5 11  1  0
  5 12  1  0
  6 13  1  0
  7 14  1  0
  7 15  1  0
  9 16  1  0
  9 17  1  0
M  END
