
     RDKit          3D

 19 20  0  0  0  0  0  0  0  0999 V2000
    1.6095    2.5260   -0.0590 O   0  0  0  0  0  0  0  0  0  0  0  0
    1.7617    1.3760    0.3202 C   0  0  0  0  0  0  0  0  0  0  0  0
    0.7346    0.4191    0.1035 C   0  0  0  0  0  0  0  0  0  0  0  0
    0.9790   -1.0406    0.2141 C   0  0  0  0  0  0  0  0  0  0  0  0
   -0.4170   -1.5488   -0.2061 C   0  0  0  0  0  0  0  0  0  0  0  0
   -1.1360   -0.2325   -0.2957 C   0  0  0  0  0  0  0  0  0  0  0  0
   -2.4309   -0.1723   -0.5466 O   0  0  0  0  0  0  0  0  0  0  0  0
   -0.5750    0.5628    0.8917 C   0  0  0  0  0  0  0  0  0  0  0  0
   -0.1657    0.5902   -1.1305 C   0  0  0  0  0  0  0  0  0  0  0  0
    2.6941    1.1367    0.8145 H   0  0  0  0  0  0  0  0  0  0  0  0
    1.7658   -1.4478   -0.4153 H   0  0  0  0  0  0  0  0  0  0  0  0
    1.1172   -1.2828    1.3006 H   0  0  0  0  0  0  0  0  0  0  0  0
   -0.8287   -2.2410    0.5243 H   0  0  0  0  0  0  0  0  0  0  0  0
   -0.3257   -1.9575   -1.2254 H   0  0  0  0  0  0  0  0  0  0  0  0
   -3.0547    0.0132    0.1870 H   0  0  0  0  0  0  0  0  0  0  0  0
   -0.5436   -0.0073    1.8356 H   0  0  0  0  0  0  0  0  0  0  0  0
   -0.9556    1.5833    0.9444 H   0  0  0  0  0  0  0  0  0  0  0  0
    0.1989    0.0721   -2.0276 H   0  0  0  0  0  0  0  0  0  0  0  0
   -0.4278    1.6512   -1.2298 H   0  0  0  0  0  0  0  0  0  0  0  0
  1  2  2  0
  2  3  1  0
  3  4  1  0
  4  5  1  0
  5  6  1  0
  6  7  1  0
  6  8  1  0
  6  9  1  0
  8  3  1  0
  9  3  1  0
  2 10  1  0
  4 11  1  0
  4 12  1  0
  5 13  1  0
  5 14  1  0
  7 15  1  0
  8 16  1  0
  8 17  1  0
  9 18  1  0
  9 19  1  0
M  END
