
     RDKit          3D

 19 20  0  0  0  0  0  0  0  0999 V2000
    3.4875    0.8369    0.0389 O   0  0  0  0  0  0  0  0  0  0  0  0
    2.7646   -0.1287   -0.1038 C   0  0  0  0  0  0  0  0  0  0  0  0
    1.3577   -0.1610    0.3468 C   0  0  0  0  0  0  0  0  0  0  0  0
    1.0234    1.0535    0.9358 O   0  0  0  0  0  0  0  0  0  0  0  0
   -0.1092    1.1757    0.1250 C   0  0  0  0  0  0  0  0  0  0  0  0
   -1.3723    0.7783    0.8057 C   0  0  0  0  0  0  0  0  0  0  0  0
   -1.9038   -0.4439    0.0930 C   0  0  0  0  0  0  0  0  0  0  0  0
   -0.7362   -1.0284   -0.6696 C   0  0  0  0  0  0  0  0  0  0  0  0
    0.3259    0.0187   -0.7402 C   0  0  0  0  0  0  0  0  0  0  0  0
    3.1624   -1.0104   -0.5825 H   0  0  0  0  0  0  0  0  0  0  0  0
    1.1779   -1.0555    0.9767 H   0  0  0  0  0  0  0  0  0  0  0  0
   -0.1573    2.1124   -0.4448 H   0  0  0  0  0  0  0  0  0  0  0  0
   -2.0970    1.6339    0.6999 H   0  0  0  0  0  0  0  0  0  0  0  0
   -1.1666    0.5378    1.8488 H   0  0  0  0  0  0  0  0  0  0  0  0
   -2.6926   -0.1777   -0.6216 H   0  0  0  0  0  0  0  0  0  0  0  0
   -2.3115   -1.1686    0.8006 H   0  0  0  0  0  0  0  0  0  0  0  0
   -1.0648   -1.3312   -1.6772 H   0  0  0  0  0  0  0  0  0  0  0  0
   -0.3832   -1.9160   -0.0974 H   0  0  0  0  0  0  0  0  0  0  0  0
    0.6951    0.2743   -1.7343 H   0  0  0  0  0  0  0  0  0  0  0  0
  1  2  2  0
  2  3  1  0
  3  4  1  0
  4  5  1  0
  5  6  1  0
  6  7  1  0
  7  8  1  0
  8  9  1  0
  9  3  1  0
  9  5  1  0
  2 10  1  0
  3 11  1  0
  5 12  1  0
  6 13  1  0
  6 14  1  0
  7 15  1  0
  7 16  1  0
  8 17  1  0
  8 18  1  0
  9 19  1  0
M  END
