
     RDKit          3D

 19 19  0  0  0  0  0  0  0  0999 V2000
    3.4807   -0.3386   -0.0280 O   0  0  0  0  0  0  0  0  0  0  0  0
    2.4121   -0.7710    0.3654 C   0  0  0  0  0  0  0  0  0  0  0  0
    1.1231   -0.3313   -0.2364 C   0  0  0  0  0  0  0  0  0  0  0  0
    0.9378    1.1677   -0.1563 C   0  0  0  0  0  0  0  0  0  0  0  0
   -0.2827    1.4526    0.6191 C   0  0  0  0  0  0  0  0  0  0  0  0
   -1.4864    0.9007    0.5907 C   0  0  0  0  0  0  0  0  0  0  0  0
   -1.9906   -0.2223   -0.2703 C   0  0  0  0  0  0  0  0  0  0  0  0
   -0.9605   -1.3329   -0.3816 C   0  0  0  0  0  0  0  0  0  0  0  0
    0.1047   -1.0030    0.4297 O   0  0  0  0  0  0  0  0  0  0  0  0
    2.4652   -1.4944    1.1800 H   0  0  0  0  0  0  0  0  0  0  0  0
    1.0737   -0.6092   -1.3288 H   0  0  0  0  0  0  0  0  0  0  0  0
    1.8264    1.6202    0.3194 H   0  0  0  0  0  0  0  0  0  0  0  0
    0.8195    1.6251   -1.1594 H   0  0  0  0  0  0  0  0  0  0  0  0
   -0.1914    2.2469    1.3377 H   0  0  0  0  0  0  0  0  0  0  0  0
   -2.2146    1.3045    1.2761 H   0  0  0  0  0  0  0  0  0  0  0  0
   -2.9077   -0.6486    0.1776 H   0  0  0  0  0  0  0  0  0  0  0  0
   -2.1956    0.2049   -1.2821 H   0  0  0  0  0  0  0  0  0  0  0  0
   -0.6448   -1.4751   -1.4354 H   0  0  0  0  0  0  0  0  0  0  0  0
   -1.3689   -2.2962   -0.0174 H   0  0  0  0  0  0  0  0  0  0  0  0
  1  2  2  0
  2  3  1  0
  3  4  1  0
  4  5  1  0
  5  6  2  0
  6  7  1  0
  7  8  1  0
  8  9  1  0
  9  3  1  0
  2 10  1  0
  3 11  1  0
  4 12  1  0
  4 13  1  0
  5 14  1  0
  6 15  1  0
  7 16  1  0
  7 17  1  0
  8 18  1  0
  8 19  1  0
M  END
