
     RDKit          3D

 19 18  0  0  0  0  0  0  0  0999 V2000
    1.6929    0.3014   -2.1708 O   0  0  0  0  0  0  0  0  0  0  0  0
    2.3788    0.4873   -1.1460 C   0  0  0  0  0  0  0  0  0  0  0  0
    2.0787   -0.2792    0.0518 C   0  0  0  0  0  0  0  0  0  0  0  0
    2.7796   -0.0792    1.0728 O   0  0  0  0  0  0  0  0  0  0  0  0
    0.9670   -1.2743    0.0611 C   0  0  0  0  0  0  0  0  0  0  0  0
   -0.2812   -0.6897    0.6965 C   0  0  0  0  0  0  0  0  0  0  0  0
   -0.7449    0.5417   -0.0838 C   0  0  0  0  0  0  0  0  0  0  0  0
   -1.9947    1.0392    0.6389 C   0  0  0  0  0  0  0  0  0  0  0  0
   -2.9690    0.0335    0.6275 O   0  0  0  0  0  0  0  0  0  0  0  0
    3.1744    1.2035   -1.1597 H   0  0  0  0  0  0  0  0  0  0  0  0
    0.7174   -1.6086   -0.9482 H   0  0  0  0  0  0  0  0  0  0  0  0
    1.2706   -2.1351    0.6940 H   0  0  0  0  0  0  0  0  0  0  0  0
   -1.1045   -1.4211    0.6814 H   0  0  0  0  0  0  0  0  0  0  0  0
   -0.0676   -0.3082    1.7276 H   0  0  0  0  0  0  0  0  0  0  0  0
    0.0111    1.3434   -0.0132 H   0  0  0  0  0  0  0  0  0  0  0  0
   -0.9683    0.2670   -1.1253 H   0  0  0  0  0  0  0  0  0  0  0  0
   -2.4003    1.9272    0.1564 H   0  0  0  0  0  0  0  0  0  0  0  0
   -1.6759    1.2624    1.6910 H   0  0  0  0  0  0  0  0  0  0  0  0
   -2.8640   -0.6112    1.3626 H   0  0  0  0  0  0  0  0  0  0  0  0
  1  2  2  0
  2  3  1  0
  3  4  2  0
  3  5  1  0
  5  6  1  0
  6  7  1  0
  7  8  1  0
  8  9  1  0
  2 10  1  0
  5 11  1  0
  5 12  1  0
  6 13  1  0
  6 14  1  0
  7 15  1  0
  7 16  1  0
  8 17  1  0
  8 18  1  0
  9 19  1  0
M  END
