
     RDKit          3D

 18 18  0  0  0  0  0  0  0  0999 V2000
    2.2477    1.6718    0.4782 O   0  0  0  0  0  0  0  0  0  0  0  0
    2.2114    0.4731    0.2994 C   0  0  0  0  0  0  0  0  0  0  0  0
    1.5357   -0.0930   -0.8662 C   0  0  0  0  0  0  0  0  0  0  0  0
    0.0379   -0.1829   -0.7431 C   0  0  0  0  0  0  0  0  0  0  0  0
   -0.6422    1.0852   -0.5421 C   0  0  0  0  0  0  0  0  0  0  0  0
   -1.7201    0.8949    0.2051 C   0  0  0  0  0  0  0  0  0  0  0  0
   -1.8405   -0.5515    0.5675 C   0  0  0  0  0  0  0  0  0  0  0  0
   -0.3771   -0.9886    0.4649 C   0  0  0  0  0  0  0  0  0  0  0  0
    2.6934   -0.1682    1.0283 H   0  0  0  0  0  0  0  0  0  0  0  0
    1.8900   -1.1288   -1.1162 H   0  0  0  0  0  0  0  0  0  0  0  0
    1.7333    0.4915   -1.8128 H   0  0  0  0  0  0  0  0  0  0  0  0
   -0.3307   -0.6930   -1.6614 H   0  0  0  0  0  0  0  0  0  0  0  0
   -0.3256    2.0549   -0.9399 H   0  0  0  0  0  0  0  0  0  0  0  0
   -2.4040    1.6695    0.5060 H   0  0  0  0  0  0  0  0  0  0  0  0
   -2.2727   -0.7320    1.5494 H   0  0  0  0  0  0  0  0  0  0  0  0
   -2.3767   -1.1181   -0.2375 H   0  0  0  0  0  0  0  0  0  0  0  0
    0.2177   -0.6221    1.3160 H   0  0  0  0  0  0  0  0  0  0  0  0
   -0.2776   -2.0627    0.2598 H   0  0  0  0  0  0  0  0  0  0  0  0
  1  2  2  0
  2  3  1  0
  3  4  1  0
  4  5  1  0
  5  6  2  0
  6  7  1  0
  7  8  1  0
  8  4  1  0
  2  9  1  0
  3 10  1  0
  3 11  1  0
  4 12  1  0
  5 13  1  0
  6 14  1  0
  7 15  1  0
  7 16  1  0
  8 17  1  0
  8 18  1  0
M  END
