
     RDKit          3D

 19 19  0  0  0  0  0  0  0  0999 V2000
    3.2643    0.0505    0.9800 O   0  0  0  0  0  0  0  0  0  0  0  0
    2.3011    0.1630    0.2387 C   0  0  0  0  0  0  0  0  0  0  0  0
    0.9702    0.2333    0.8683 C   0  0  0  0  0  0  0  0  0  0  0  0
   -0.1506    0.3707   -0.1137 C   0  0  0  0  0  0  0  0  0  0  0  0
   -0.0640    1.5677   -0.9432 C   0  0  0  0  0  0  0  0  0  0  0  0
    0.8124    1.6470   -1.7885 O   0  0  0  0  0  0  0  0  0  0  0  0
   -0.4366   -0.8546   -0.9488 C   0  0  0  0  0  0  0  0  0  0  0  0
   -1.2996   -1.3410    0.2093 C   0  0  0  0  0  0  0  0  0  0  0  0
   -1.4803    0.1211    0.5693 C   0  0  0  0  0  0  0  0  0  0  0  0
    2.3920    0.2114   -0.8361 H   0  0  0  0  0  0  0  0  0  0  0  0
    0.8548   -0.6613    1.5159 H   0  0  0  0  0  0  0  0  0  0  0  0
    0.9426    1.1078    1.5527 H   0  0  0  0  0  0  0  0  0  0  0  0
   -0.7377    2.4248   -0.8693 H   0  0  0  0  0  0  0  0  0  0  0  0
   -1.0708   -0.5877   -1.8092 H   0  0  0  0  0  0  0  0  0  0  0  0
    0.4259   -1.4855   -1.1902 H   0  0  0  0  0  0  0  0  0  0  0  0
   -2.2436   -1.8243   -0.0937 H   0  0  0  0  0  0  0  0  0  0  0  0
   -0.6762   -1.9057    0.9357 H   0  0  0  0  0  0  0  0  0  0  0  0
   -2.3636    0.5193    0.0569 H   0  0  0  0  0  0  0  0  0  0  0  0
   -1.4402    0.2436    1.6658 H   0  0  0  0  0  0  0  0  0  0  0  0
  1  2  2  0
  2  3  1  0
  3  4  1  0
  4  5  1  0
  5  6  2  0
  4  7  1  0
  7  8  1  0
  8  9  1  0
  9  4  1  0
  2 10  1  0
  3 11  1  0
  3 12  1  0
  5 13  1  0
  7 14  1  0
  7 15  1  0
  8 16  1  0
  8 17  1  0
  9 18  1  0
  9 19  1  0
M  END
