
     RDKit          3D

 19 20  0  0  0  0  0  0  0  0999 V2000
    2.7661   -0.3469   -1.8183 O   0  0  0  0  0  0  0  0  0  0  0  0
    2.5125   -0.2397   -0.6319 C   0  0  0  0  0  0  0  0  0  0  0  0
    1.0946   -0.0346   -0.1835 C   0  0  0  0  0  0  0  0  0  0  0  0
    0.1419   -1.0513   -0.6801 C   0  0  0  0  0  0  0  0  0  0  0  0
   -1.2027   -1.0557   -0.0627 C   0  0  0  0  0  0  0  0  0  0  0  0
   -1.6535    0.1993    0.5697 C   0  0  0  0  0  0  0  0  0  0  0  0
   -0.8149    1.4057    0.2604 C   0  0  0  0  0  0  0  0  0  0  0  0
    0.6519    1.1147    0.4730 C   0  0  0  0  0  0  0  0  0  0  0  0
    1.0331    0.0671    1.2917 O   0  0  0  0  0  0  0  0  0  0  0  0
    3.3530   -0.3009    0.0504 H   0  0  0  0  0  0  0  0  0  0  0  0
    0.6107   -2.0631   -0.5331 H   0  0  0  0  0  0  0  0  0  0  0  0
    0.0653   -0.9450   -1.7980 H   0  0  0  0  0  0  0  0  0  0  0  0
   -1.2734   -1.8861    0.7000 H   0  0  0  0  0  0  0  0  0  0  0  0
   -1.9494   -1.3489   -0.8478 H   0  0  0  0  0  0  0  0  0  0  0  0
   -2.7053    0.4685    0.2515 H   0  0  0  0  0  0  0  0  0  0  0  0
   -1.7433    0.0846    1.6893 H   0  0  0  0  0  0  0  0  0  0  0  0
   -0.9785    1.6850   -0.8020 H   0  0  0  0  0  0  0  0  0  0  0  0
   -1.1827    2.2348    0.8992 H   0  0  0  0  0  0  0  0  0  0  0  0
    1.2746    2.0127    0.5451 H   0  0  0  0  0  0  0  0  0  0  0  0
  1  2  2  0
  2  3  1  0
  3  4  1  0
  4  5  1  0
  5  6  1  0
  6  7  1  0
  7  8  1  0
  8  9  1  0
  8  3  1  0
  9  3  1  0
  2 10  1  0
  4 11  1  0
  4 12  1  0
  5 13  1  0
  5 14  1  0
  6 15  1  0
  6 16  1  0
  7 17  1  0
  7 18  1  0
  8 19  1  0
M  END
