
     RDKit          3D

 21 21  0  0  0  0  0  0  0  0999 V2000
   -1.7117   -0.2968    2.1552 O   0  0  0  0  0  0  0  0  0  0  0  0
   -1.2804   -1.1568    1.4325 C   0  0  0  0  0  0  0  0  0  0  0  0
   -0.8406   -0.8115    0.0640 C   0  0  0  0  0  0  0  0  0  0  0  0
   -1.7253    0.2744   -0.4530 C   0  0  0  0  0  0  0  0  0  0  0  0
   -1.7237    1.4383    0.2813 O   0  0  0  0  0  0  0  0  0  0  0  0
    0.6113   -0.5793    0.0531 C   0  0  0  0  0  0  0  0  0  0  0  0
    1.2713   -0.2102   -1.2404 C   0  0  0  0  0  0  0  0  0  0  0  0
    2.1475    0.7547   -0.4277 C   0  0  0  0  0  0  0  0  0  0  0  0
    1.1963    0.5862    0.7662 C   0  0  0  0  0  0  0  0  0  0  0  0
   -1.2151   -2.1649    1.7770 H   0  0  0  0  0  0  0  0  0  0  0  0
   -1.0254   -1.7276   -0.5792 H   0  0  0  0  0  0  0  0  0  0  0  0
   -2.7732   -0.1251   -0.4215 H   0  0  0  0  0  0  0  0  0  0  0  0
   -1.5466    0.5431   -1.5088 H   0  0  0  0  0  0  0  0  0  0  0  0
   -2.6346    1.7315    0.5734 H   0  0  0  0  0  0  0  0  0  0  0  0
    1.1229   -1.5185    0.4318 H   0  0  0  0  0  0  0  0  0  0  0  0
    0.6529    0.2935   -1.9918 H   0  0  0  0  0  0  0  0  0  0  0  0
    1.9100   -0.9742   -1.7104 H   0  0  0  0  0  0  0  0  0  0  0  0
    3.1520    0.3855   -0.2294 H   0  0  0  0  0  0  0  0  0  0  0  0
    2.1154    1.7921   -0.7766 H   0  0  0  0  0  0  0  0  0  0  0  0
    0.5044    1.4177    0.8906 H   0  0  0  0  0  0  0  0  0  0  0  0
    1.7926    0.3481    1.6782 H   0  0  0  0  0  0  0  0  0  0  0  0
  1  2  2  0
  2  3  1  0
  3  4  1  0
  4  5  1  0
  3  6  1  0
  6  7  1  0
  7  8  1  0
  8  9  1  0
  9  6  1  0
  2 10  1  0
  3 11  1  0
  4 12  1  0
  4 13  1  0
  5 14  1  0
  6 15  1  0
  7 16  1  0
  7 17  1  0
  8 18  1  0
  8 19  1  0
  9 20  1  0
  9 21  1  0
M  END
