
     RDKit          3D

 19 20  0  0  0  0  0  0  0  0999 V2000
    3.1365    0.6856    0.7324 O   0  0  0  0  0  0  0  0  0  0  0  0
    2.4953    0.9312   -0.2631 C   0  0  0  0  0  0  0  0  0  0  0  0
    1.3740    0.0929   -0.7493 C   0  0  0  0  0  0  0  0  0  0  0  0
    1.3664   -1.3728   -0.5448 C   0  0  0  0  0  0  0  0  0  0  0  0
    0.5464   -0.5230    0.3416 C   0  0  0  0  0  0  0  0  0  0  0  0
   -0.9506   -0.4949    0.2502 C   0  0  0  0  0  0  0  0  0  0  0  0
   -1.4499    0.9321    0.1947 C   0  0  0  0  0  0  0  0  0  0  0  0
   -2.5176    0.1944   -0.6094 C   0  0  0  0  0  0  0  0  0  0  0  0
   -1.4759   -0.6575   -1.0312 O   0  0  0  0  0  0  0  0  0  0  0  0
    2.7523    1.8111   -0.8322 H   0  0  0  0  0  0  0  0  0  0  0  0
    0.9000    0.4585   -1.6673 H   0  0  0  0  0  0  0  0  0  0  0  0
    2.2861   -1.8704   -0.1222 H   0  0  0  0  0  0  0  0  0  0  0  0
    0.9030   -1.9963   -1.3336 H   0  0  0  0  0  0  0  0  0  0  0  0
    0.9146   -0.4407    1.3857 H   0  0  0  0  0  0  0  0  0  0  0  0
   -1.5058   -1.0831    0.9759 H   0  0  0  0  0  0  0  0  0  0  0  0
   -0.8054    1.5262   -0.4604 H   0  0  0  0  0  0  0  0  0  0  0  0
   -1.7822    1.3678    1.1344 H   0  0  0  0  0  0  0  0  0  0  0  0
   -3.2209   -0.3624    0.0314 H   0  0  0  0  0  0  0  0  0  0  0  0
   -2.9661    0.8012   -1.4088 H   0  0  0  0  0  0  0  0  0  0  0  0
  1  2  2  0
  2  3  1  0
  3  4  1  0
  4  5  1  0
  5  6  1  0
  6  7  1  0
  7  8  1  0
  8  9  1  0
  5  3  1  0
  9  6  1  0
  2 10  1  0
  3 11  1  0
  4 12  1  0
  4 13  1  0
  5 14  1  0
  6 15  1  0
  7 16  1  0
  7 17  1  0
  8 18  1  0
  8 19  1  0
M  END
