
     RDKit          3D

 14 15  0  0  0  0  0  0  0  0999 V2000
   -2.4082   -0.8706    0.3680 O   0  0  0  0  0  0  0  0  0  0  0  0
   -1.3822   -1.2041   -0.2030 C   0  0  0  0  0  0  0  0  0  0  0  0
   -0.3137   -0.2066   -0.3231 C   0  0  0  0  0  0  0  0  0  0  0  0
   -0.7677    1.2160   -0.4300 C   0  0  0  0  0  0  0  0  0  0  0  0
    0.0545    0.7508    0.7089 C   0  0  0  0  0  0  0  0  0  0  0  0
    1.4363    0.9127    0.5451 O   0  0  0  0  0  0  0  0  0  0  0  0
    1.8061   -0.3428    0.0504 C   0  0  0  0  0  0  0  0  0  0  0  0
    0.8709   -0.5649   -0.9704 O   0  0  0  0  0  0  0  0  0  0  0  0
   -1.3233   -2.2291   -0.5909 H   0  0  0  0  0  0  0  0  0  0  0  0
   -1.8231    1.4529   -0.2451 H   0  0  0  0  0  0  0  0  0  0  0  0
   -0.2829    1.8864   -1.1882 H   0  0  0  0  0  0  0  0  0  0  0  0
   -0.3612    0.6097    1.7187 H   0  0  0  0  0  0  0  0  0  0  0  0
    1.6558   -1.0598    0.8941 H   0  0  0  0  0  0  0  0  0  0  0  0
    2.8388   -0.3507   -0.3344 H   0  0  0  0  0  0  0  0  0  0  0  0
  1  2  2  0
  2  3  1  0
  3  4  1  0
  4  5  1  0
  5  6  1  0
  6  7  1  0
  7  8  1  0
  5  3  1  0
  8  3  1  0
  2  9  1  0
  4 10  1  0
  4 11  1  0
  5 12  1  0
  7 13  1  0
  7 14  1  0
M  END
