
     RDKit          3D

 19 19  0  0  0  0  0  0  0  0999 V2000
    2.7590    1.5297   -0.6897 O   0  0  0  0  0  0  0  0  0  0  0  0
    2.2150    0.4593   -0.5982 C   0  0  0  0  0  0  0  0  0  0  0  0
    1.8520   -0.0986    0.7221 C   0  0  0  0  0  0  0  0  0  0  0  0
    0.3845    0.0527    1.0549 C   0  0  0  0  0  0  0  0  0  0  0  0
   -0.4762   -0.6653    0.0357 C   0  0  0  0  0  0  0  0  0  0  0  0
   -1.9479   -0.5313    0.3578 C   0  0  0  0  0  0  0  0  0  0  0  0
   -2.0534    0.6476   -0.5436 C   0  0  0  0  0  0  0  0  0  0  0  0
   -2.7683    1.6118   -0.7418 O   0  0  0  0  0  0  0  0  0  0  0  0
   -0.7951    0.1368   -1.1974 C   0  0  0  0  0  0  0  0  0  0  0  0
    1.9788   -0.1248   -1.4824 H   0  0  0  0  0  0  0  0  0  0  0  0
    2.4273    0.4397    1.5073 H   0  0  0  0  0  0  0  0  0  0  0  0
    2.1460   -1.1678    0.7238 H   0  0  0  0  0  0  0  0  0  0  0  0
    0.1032    1.0883    1.2022 H   0  0  0  0  0  0  0  0  0  0  0  0
    0.2489   -0.5127    2.0163 H   0  0  0  0  0  0  0  0  0  0  0  0
   -0.1312   -1.6704   -0.2206 H   0  0  0  0  0  0  0  0  0  0  0  0
   -2.5516   -1.3686   -0.0533 H   0  0  0  0  0  0  0  0  0  0  0  0
   -2.1752   -0.2584    1.4171 H   0  0  0  0  0  0  0  0  0  0  0  0
   -1.0747   -0.5253   -2.0371 H   0  0  0  0  0  0  0  0  0  0  0  0
   -0.1410    0.9573   -1.4733 H   0  0  0  0  0  0  0  0  0  0  0  0
  1  2  2  0
  2  3  1  0
  3  4  1  0
  4  5  1  0
  5  6  1  0
  6  7  1  0
  7  8  2  0
  7  9  1  0
  9  5  1  0
  2 10  1  0
  3 11  1  0
  3 12  1  0
  4 13  1  0
  4 14  1  0
  5 15  1  0
  6 16  1  0
  6 17  1  0
  9 18  1  0
  9 19  1  0
M  END
