
     RDKit          3D

 16 16  0  0  0  0  0  0  0  0999 V2000
    2.7949    1.4163    0.5702 O   0  0  0  0  0  0  0  0  0  0  0  0
    2.2960    0.4132    0.0155 C   0  0  0  0  0  0  0  0  0  0  0  0
    0.8546    0.2251    0.0223 C   0  0  0  0  0  0  0  0  0  0  0  0
    0.0800    1.0992    0.6050 C   0  0  0  0  0  0  0  0  0  0  0  0
   -1.3857    0.8907    0.6021 C   0  0  0  0  0  0  0  0  0  0  0  0
   -1.5691   -0.4824    0.8796 O   0  0  0  0  0  0  0  0  0  0  0  0
   -1.1584   -1.1380   -0.2747 C   0  0  0  0  0  0  0  0  0  0  0  0
    0.2714   -0.9556   -0.6345 C   0  0  0  0  0  0  0  0  0  0  0  0
    2.9671   -0.2920   -0.4584 H   0  0  0  0  0  0  0  0  0  0  0  0
    0.5217    1.9534    1.0757 H   0  0  0  0  0  0  0  0  0  0  0  0
   -1.9167    1.4934    1.3599 H   0  0  0  0  0  0  0  0  0  0  0  0
   -1.8312    1.0395   -0.4091 H   0  0  0  0  0  0  0  0  0  0  0  0
   -1.4008   -2.2261   -0.1003 H   0  0  0  0  0  0  0  0  0  0  0  0
   -1.7703   -0.7569   -1.1401 H   0  0  0  0  0  0  0  0  0  0  0  0
    0.8431   -1.8792   -0.3804 H   0  0  0  0  0  0  0  0  0  0  0  0
    0.4035   -0.8006   -1.7328 H   0  0  0  0  0  0  0  0  0  0  0  0
  1  2  2  0
  2  3  1  0
  3  4  2  0
  4  5  1  0
  5  6  1  0
  6  7  1  0
  7  8  1  0
  8  3  1  0
  2  9  1  0
  4 10  1  0
  5 11  1  0
  5 12  1  0
  7 13  1  0
  7 14  1  0
  8 15  1  0
  8 16  1  0
M  END
