
     RDKit          3D

 17 18  0  0  0  0  0  0  0  0999 V2000
    3.3146   -0.2821    0.5289 O   0  0  0  0  0  0  0  0  0  0  0  0
    2.4356    0.5191    0.1442 C   0  0  0  0  0  0  0  0  0  0  0  0
    1.0631    0.1166   -0.1100 C   0  0  0  0  0  0  0  0  0  0  0  0
    0.1700    1.0361   -0.5230 C   0  0  0  0  0  0  0  0  0  0  0  0
   -1.1489    0.4607   -0.7275 C   0  0  0  0  0  0  0  0  0  0  0  0
   -2.3112    0.3693    0.0608 C   0  0  0  0  0  0  0  0  0  0  0  0
   -1.2678   -0.4249    0.5692 C   0  0  0  0  0  0  0  0  0  0  0  0
   -0.6605   -1.5618    0.1800 O   0  0  0  0  0  0  0  0  0  0  0  0
    0.7088   -1.3066    0.0992 C   0  0  0  0  0  0  0  0  0  0  0  0
    2.7081    1.5435   -0.0032 H   0  0  0  0  0  0  0  0  0  0  0  0
    0.4314    2.0521   -0.6716 H   0  0  0  0  0  0  0  0  0  0  0  0
   -1.1549   -0.1059   -1.7091 H   0  0  0  0  0  0  0  0  0  0  0  0
   -2.6476    1.2721    0.6397 H   0  0  0  0  0  0  0  0  0  0  0  0
   -3.2241   -0.1138   -0.3892 H   0  0  0  0  0  0  0  0  0  0  0  0
   -0.7549   -0.0264    1.4976 H   0  0  0  0  0  0  0  0  0  0  0  0
    1.1331   -1.6099    1.0770 H   0  0  0  0  0  0  0  0  0  0  0  0
    1.2052   -1.9382   -0.6630 H   0  0  0  0  0  0  0  0  0  0  0  0
  1  2  2  0
  2  3  1  0
  3  4  2  0
  4  5  1  0
  5  6  1  0
  6  7  1  0
  7  8  1  0
  8  9  1  0
  9  3  1  0
  7  5  1  0
  2 10  1  0
  4 11  1  0
  5 12  1  0
  6 13  1  0
  6 14  1  0
  7 15  1  0
  9 16  1  0
  9 17  1  0
M  END
