
     RDKit          3D

 19 20  0  0  0  0  0  0  0  0999 V2000
    3.4177    0.1941   -0.8364 O   0  0  0  0  0  0  0  0  0  0  0  0
    2.3687    0.5735   -0.3659 C   0  0  0  0  0  0  0  0  0  0  0  0
    1.5281   -0.3526    0.4414 C   0  0  0  0  0  0  0  0  0  0  0  0
    0.5754    0.3829    1.3269 C   0  0  0  0  0  0  0  0  0  0  0  0
   -0.5990    0.5584    0.7648 C   0  0  0  0  0  0  0  0  0  0  0  0
   -1.9861    0.8856    0.3735 C   0  0  0  0  0  0  0  0  0  0  0  0
   -1.9373   -0.4541   -0.4082 C   0  0  0  0  0  0  0  0  0  0  0  0
   -0.5046   -0.0430   -0.6388 C   0  0  0  0  0  0  0  0  0  0  0  0
    0.5512   -1.1059   -0.4805 C   0  0  0  0  0  0  0  0  0  0  0  0
    2.0648    1.5982   -0.5495 H   0  0  0  0  0  0  0  0  0  0  0  0
    2.1083   -1.1193    0.9747 H   0  0  0  0  0  0  0  0  0  0  0  0
    0.8898    0.7138    2.3320 H   0  0  0  0  0  0  0  0  0  0  0  0
   -2.0420    1.7041   -0.3613 H   0  0  0  0  0  0  0  0  0  0  0  0
   -2.7421    0.8772    1.1707 H   0  0  0  0  0  0  0  0  0  0  0  0
   -1.9752   -1.3342    0.2689 H   0  0  0  0  0  0  0  0  0  0  0  0
   -2.5903   -0.4686   -1.2770 H   0  0  0  0  0  0  0  0  0  0  0  0
   -0.3304    0.7266   -1.3879 H   0  0  0  0  0  0  0  0  0  0  0  0
    1.0789   -1.3651   -1.3958 H   0  0  0  0  0  0  0  0  0  0  0  0
    0.1243   -1.9718    0.0483 H   0  0  0  0  0  0  0  0  0  0  0  0
  1  2  2  0
  2  3  1  0
  3  4  1  0
  4  5  2  0
  5  6  1  0
  6  7  1  0
  7  8  1  0
  8  9  1  0
  9  3  1  0
  8  5  1  0
  2 10  1  0
  3 11  1  0
  4 12  1  0
  6 13  1  0
  6 14  1  0
  7 15  1  0
  7 16  1  0
  8 17  1  0
  9 18  1  0
  9 19  1  0
M  END
