
     RDKit          3D

 17 17  0  0  0  0  0  0  0  0999 V2000
   -3.1305    1.2012    0.9859 O   0  0  0  0  0  0  0  0  0  0  0  0
   -2.6705    0.1812    0.4268 C   0  0  0  0  0  0  0  0  0  0  0  0
   -1.2617    0.1773    0.0767 C   0  0  0  0  0  0  0  0  0  0  0  0
   -0.5413    1.2550    0.3690 C   0  0  0  0  0  0  0  0  0  0  0  0
    0.8896    1.5164    0.1292 C   0  0  0  0  0  0  0  0  0  0  0  0
    1.8106    0.5715   -0.0127 C   0  0  0  0  0  0  0  0  0  0  0  0
    1.7693   -0.9068    0.0112 C   0  0  0  0  0  0  0  0  0  0  0  0
    0.5476   -1.4600   -0.6107 C   0  0  0  0  0  0  0  0  0  0  0  0
   -0.6967   -1.0155   -0.5838 C   0  0  0  0  0  0  0  0  0  0  0  0
   -3.3402   -0.6346    0.2364 H   0  0  0  0  0  0  0  0  0  0  0  0
   -1.1125    2.0329    0.8494 H   0  0  0  0  0  0  0  0  0  0  0  0
    1.1680    2.5593    0.0737 H   0  0  0  0  0  0  0  0  0  0  0  0
    2.7980    1.0241   -0.1816 H   0  0  0  0  0  0  0  0  0  0  0  0
    2.6619   -1.2656   -0.5417 H   0  0  0  0  0  0  0  0  0  0  0  0
    1.8824   -1.2648    1.0763 H   0  0  0  0  0  0  0  0  0  0  0  0
    0.7000   -2.3883   -1.1865 H   0  0  0  0  0  0  0  0  0  0  0  0
   -1.4741   -1.5836   -1.1177 H   0  0  0  0  0  0  0  0  0  0  0  0
  1  2  2  0
  2  3  1  0
  3  4  2  0
  4  5  1  0
  5  6  2  0
  6  7  1  0
  7  8  1  0
  8  9  2  0
  9  3  1  0
  2 10  1  0
  4 11  1  0
  5 12  1  0
  6 13  1  0
  7 14  1  0
  7 15  1  0
  8 16  1  0
  9 17  1  0
M  END
