
     RDKit          3D

 17 18  0  0  0  0  0  0  0  0999 V2000
    2.3604   -1.6925    0.4622 O   0  0  0  0  0  0  0  0  0  0  0  0
    1.3256   -1.0777    0.6275 C   0  0  0  0  0  0  0  0  0  0  0  0
    1.0672    0.1009   -0.2153 C   0  0  0  0  0  0  0  0  0  0  0  0
    2.1896    0.6519   -0.8514 O   0  0  0  0  0  0  0  0  0  0  0  0
   -0.0582    1.0196    0.0331 C   0  0  0  0  0  0  0  0  0  0  0  0
   -1.1522    0.6696    1.0018 C   0  0  0  0  0  0  0  0  0  0  0  0
   -1.8714   -0.3725    0.5068 O   0  0  0  0  0  0  0  0  0  0  0  0
   -1.3058   -0.8570   -0.6277 C   0  0  0  0  0  0  0  0  0  0  0  0
   -0.1699    0.0398   -1.0389 C   0  0  0  0  0  0  0  0  0  0  0  0
    0.6510   -1.4369    1.3909 H   0  0  0  0  0  0  0  0  0  0  0  0
    2.5499    1.3400   -0.2487 H   0  0  0  0  0  0  0  0  0  0  0  0
    0.1302    2.0938   -0.1072 H   0  0  0  0  0  0  0  0  0  0  0  0
   -1.8439    1.5386    1.1263 H   0  0  0  0  0  0  0  0  0  0  0  0
   -0.7214    0.4452    1.9907 H   0  0  0  0  0  0  0  0  0  0  0  0
   -1.0110   -1.9013   -0.4886 H   0  0  0  0  0  0  0  0  0  0  0  0
   -2.0643   -0.8317   -1.4533 H   0  0  0  0  0  0  0  0  0  0  0  0
   -0.0757    0.2702   -2.1083 H   0  0  0  0  0  0  0  0  0  0  0  0
  1  2  2  0
  2  3  1  0
  3  4  1  0
  3  5  1  0
  5  6  1  0
  6  7  1  0
  7  8  1  0
  8  9  1  0
  9  3  1  0
  9  5  1  0
  2 10  1  0
  4 11  1  0
  5 12  1  0
  6 13  1  0
  6 14  1  0
  8 15  1  0
  8 16  1  0
  9 17  1  0
M  END
