
     RDKit          3D

 19 18  0  0  0  0  0  0  0  0999 V2000
    2.9480   -0.6472   -1.1518 O   0  0  0  0  0  0  0  0  0  0  0  0
    2.9630   -0.0206   -0.1266 C   0  0  0  0  0  0  0  0  0  0  0  0
    1.9918    0.9940    0.2992 C   0  0  0  0  0  0  0  0  0  0  0  0
    0.6581    0.3685    0.5758 C   0  0  0  0  0  0  0  0  0  0  0  0
    0.0189   -0.2813   -0.5780 C   0  0  0  0  0  0  0  0  0  0  0  0
    0.4594   -0.3101   -1.7015 O   0  0  0  0  0  0  0  0  0  0  0  0
   -1.2930   -0.9644   -0.3415 C   0  0  0  0  0  0  0  0  0  0  0  0
   -2.3138    0.1583   -0.1588 C   0  0  0  0  0  0  0  0  0  0  0  0
   -3.5719   -0.3778    0.0413 O   0  0  0  0  0  0  0  0  0  0  0  0
    3.8110   -0.2559    0.5504 H   0  0  0  0  0  0  0  0  0  0  0  0
    2.3306    1.4934    1.2242 H   0  0  0  0  0  0  0  0  0  0  0  0
    1.8874    1.8237   -0.4662 H   0  0  0  0  0  0  0  0  0  0  0  0
    0.7150   -0.4210    1.3649 H   0  0  0  0  0  0  0  0  0  0  0  0
   -0.0555    1.1451    0.9493 H   0  0  0  0  0  0  0  0  0  0  0  0
   -1.2533   -1.6154    0.5535 H   0  0  0  0  0  0  0  0  0  0  0  0
   -1.5673   -1.6115   -1.2003 H   0  0  0  0  0  0  0  0  0  0  0  0
   -2.0155    0.6788    0.7768 H   0  0  0  0  0  0  0  0  0  0  0  0
   -2.2286    0.8695   -0.9921 H   0  0  0  0  0  0  0  0  0  0  0  0
   -3.4843   -1.2859    0.3814 H   0  0  0  0  0  0  0  0  0  0  0  0
  1  2  2  0
  2  3  1  0
  3  4  1  0
  4  5  1  0
  5  6  2  0
  5  7  1  0
  7  8  1  0
  8  9  1  0
  2 10  1  0
  3 11  1  0
  3 12  1  0
  4 13  1  0
  4 14  1  0
  7 15  1  0
  7 16  1  0
  8 17  1  0
  8 18  1  0
  9 19  1  0
M  END
