
     RDKit          3D

 17 18  0  0  0  0  0  0  0  0999 V2000
    3.4406   -0.8771    0.8706 O   0  0  0  0  0  0  0  0  0  0  0  0
    2.6862   -0.3241    0.0920 C   0  0  0  0  0  0  0  0  0  0  0  0
    1.2335   -0.3969    0.2438 C   0  0  0  0  0  0  0  0  0  0  0  0
    0.4528    0.8596   -0.1443 C   0  0  0  0  0  0  0  0  0  0  0  0
   -0.5188    1.2101    0.7371 O   0  0  0  0  0  0  0  0  0  0  0  0
   -1.7887    0.8028    0.4375 C   0  0  0  0  0  0  0  0  0  0  0  0
   -1.7656   -0.6590    0.0839 C   0  0  0  0  0  0  0  0  0  0  0  0
   -0.9017   -0.9870   -0.9141 O   0  0  0  0  0  0  0  0  0  0  0  0
    0.3029   -0.3515   -0.9131 C   0  0  0  0  0  0  0  0  0  0  0  0
    3.1413    0.2260   -0.7210 H   0  0  0  0  0  0  0  0  0  0  0  0
    0.8600   -0.9901    1.1168 H   0  0  0  0  0  0  0  0  0  0  0  0
    1.0381    1.7008   -0.5647 H   0  0  0  0  0  0  0  0  0  0  0  0
   -2.4028    0.8919    1.3782 H   0  0  0  0  0  0  0  0  0  0  0  0
   -2.2983    1.4279   -0.3143 H   0  0  0  0  0  0  0  0  0  0  0  0
   -2.8108   -0.9340   -0.2061 H   0  0  0  0  0  0  0  0  0  0  0  0
   -1.4970   -1.2158    1.0042 H   0  0  0  0  0  0  0  0  0  0  0  0
    0.8284   -0.3837   -1.9135 H   0  0  0  0  0  0  0  0  0  0  0  0
  1  2  2  0
  2  3  1  0
  3  4  1  0
  4  5  1  0
  5  6  1  0
  6  7  1  0
  7  8  1  0
  8  9  1  0
  9  3  1  0
  9  4  1  0
  2 10  1  0
  3 11  1  0
  4 12  1  0
  6 13  1  0
  6 14  1  0
  7 15  1  0
  7 16  1  0
  9 17  1  0
M  END
