
     RDKit          3D

 17 19  0  0  0  0  0  0  0  0999 V2000
   -2.6168   -1.6633    0.4005 O   0  0  0  0  0  0  0  0  0  0  0  0
   -1.9390   -1.0672   -0.4058 C   0  0  0  0  0  0  0  0  0  0  0  0
   -0.7804   -0.2914    0.1028 C   0  0  0  0  0  0  0  0  0  0  0  0
   -1.0281    1.1331    0.2997 C   0  0  0  0  0  0  0  0  0  0  0  0
   -0.1198    0.7395   -0.7840 C   0  0  0  0  0  0  0  0  0  0  0  0
    1.2797    0.3197   -0.3255 C   0  0  0  0  0  0  0  0  0  0  0  0
    1.8188    1.4086    0.1855 O   0  0  0  0  0  0  0  0  0  0  0  0
    1.6446   -0.7708    0.6382 C   0  0  0  0  0  0  0  0  0  0  0  0
    0.5611   -0.8929   -0.1772 C   0  0  0  0  0  0  0  0  0  0  0  0
   -2.1985   -1.1215   -1.4462 H   0  0  0  0  0  0  0  0  0  0  0  0
   -1.9825    1.6031   -0.0164 H   0  0  0  0  0  0  0  0  0  0  0  0
   -0.6122    1.6042    1.2142 H   0  0  0  0  0  0  0  0  0  0  0  0
   -0.3356    0.8009   -1.8429 H   0  0  0  0  0  0  0  0  0  0  0  0
    1.5282    1.6478    1.1232 H   0  0  0  0  0  0  0  0  0  0  0  0
    1.5421   -0.6674    1.7376 H   0  0  0  0  0  0  0  0  0  0  0  0
    2.6560   -1.2026    0.3752 H   0  0  0  0  0  0  0  0  0  0  0  0
    0.5825   -1.5799   -1.0789 H   0  0  0  0  0  0  0  0  0  0  0  0
  1  2  2  0
  2  3  1  0
  3  4  1  0
  4  5  1  0
  5  6  1  0
  6  7  1  0
  6  8  1  0
  8  9  1  0
  5  3  1  0
  9  6  1  0
  9  3  1  0
  2 10  1  0
  4 11  1  0
  4 12  1  0
  5 13  1  0
  7 14  1  0
  8 15  1  0
  8 16  1  0
  9 17  1  0
M  END
