
     RDKit          3D

 19 20  0  0  0  0  0  0  0  0999 V2000
    2.5534    1.2611    0.7279 O   0  0  0  0  0  0  0  0  0  0  0  0
    2.8293    0.1637    0.2805 C   0  0  0  0  0  0  0  0  0  0  0  0
    1.7681   -0.6033   -0.4054 C   0  0  0  0  0  0  0  0  0  0  0  0
    0.4858    0.1578   -0.4197 C   0  0  0  0  0  0  0  0  0  0  0  0
   -0.6833   -0.5274   -1.0985 C   0  0  0  0  0  0  0  0  0  0  0  0
   -1.5210    0.0034   -0.0014 C   0  0  0  0  0  0  0  0  0  0  0  0
   -2.7928    0.4372    0.0945 C   0  0  0  0  0  0  0  0  0  0  0  0
   -1.8841    1.4199   -0.2967 O   0  0  0  0  0  0  0  0  0  0  0  0
   -0.3360    0.0233    0.8741 C   0  0  0  0  0  0  0  0  0  0  0  0
    3.8410   -0.1769    0.4173 H   0  0  0  0  0  0  0  0  0  0  0  0
    1.6367   -1.5674    0.1258 H   0  0  0  0  0  0  0  0  0  0  0  0
    2.0710   -0.8130   -1.4594 H   0  0  0  0  0  0  0  0  0  0  0  0
    0.5459    1.2153   -0.7390 H   0  0  0  0  0  0  0  0  0  0  0  0
   -0.5422   -1.6293   -1.0217 H   0  0  0  0  0  0  0  0  0  0  0  0
   -0.9001   -0.1803   -2.1223 H   0  0  0  0  0  0  0  0  0  0  0  0
   -3.5467    0.2367   -0.7175 H   0  0  0  0  0  0  0  0  0  0  0  0
   -3.3048    0.6043    1.0662 H   0  0  0  0  0  0  0  0  0  0  0  0
   -0.0481   -0.9269    1.3703 H   0  0  0  0  0  0  0  0  0  0  0  0
   -0.1721    0.9020    1.5254 H   0  0  0  0  0  0  0  0  0  0  0  0
  1  2  2  0
  2  3  1  0
  3  4  1  0
  4  5  1  0
  5  6  1  0
  6  7  1  0
  7  8  1  0
  6  9  1  0
  9  4  1  0
  8  6  1  0
  2 10  1  0
  3 11  1  0
  3 12  1  0
  4 13  1  0
  5 14  1  0
  5 15  1  0
  7 16  1  0
  7 17  1  0
  9 18  1  0
  9 19  1  0
M  END
