
     RDKit          3D

 17 17  0  0  0  0  0  0  0  0999 V2000
    2.8474    1.4542    0.9154 O   0  0  0  0  0  0  0  0  0  0  0  0
    2.4866    0.6008    0.1398 C   0  0  0  0  0  0  0  0  0  0  0  0
    1.0793    0.3858   -0.2070 C   0  0  0  0  0  0  0  0  0  0  0  0
    0.2351    1.2703    0.4570 O   0  0  0  0  0  0  0  0  0  0  0  0
   -1.0600    1.1276    0.0145 C   0  0  0  0  0  0  0  0  0  0  0  0
   -1.6653   -0.2167    0.3361 C   0  0  0  0  0  0  0  0  0  0  0  0
   -0.7857   -1.3356   -0.2376 C   0  0  0  0  0  0  0  0  0  0  0  0
    0.6129   -0.9852    0.0984 C   0  0  0  0  0  0  0  0  0  0  0  0
    1.3511   -1.7958    0.6071 O   0  0  0  0  0  0  0  0  0  0  0  0
    3.2373   -0.0311   -0.3175 H   0  0  0  0  0  0  0  0  0  0  0  0
    0.9911    0.5047   -1.3229 H   0  0  0  0  0  0  0  0  0  0  0  0
   -1.2126    1.3496   -1.0468 H   0  0  0  0  0  0  0  0  0  0  0  0
   -1.6757    1.8836    0.5830 H   0  0  0  0  0  0  0  0  0  0  0  0
   -1.8308   -0.3841    1.4056 H   0  0  0  0  0  0  0  0  0  0  0  0
   -2.6321   -0.2674   -0.2227 H   0  0  0  0  0  0  0  0  0  0  0  0
   -1.1047   -2.3078    0.1502 H   0  0  0  0  0  0  0  0  0  0  0  0
   -0.8740   -1.2530   -1.3526 H   0  0  0  0  0  0  0  0  0  0  0  0
  1  2  2  0
  2  3  1  0
  3  4  1  0
  4  5  1  0
  5  6  1  0
  6  7  1  0
  7  8  1  0
  8  9  2  0
  8  3  1  0
  2 10  1  0
  3 11  1  0
  5 12  1  0
  5 13  1  0
  6 14  1  0
  6 15  1  0
  7 16  1  0
  7 17  1  0
M  END
