
     RDKit          3D

 13 12  0  0  0  0  0  0  0  0999 V2000
    1.7529   -1.1640    0.2656 O   0  0  0  0  0  0  0  0  0  0  0  0
    1.9673   -0.1069   -0.2889 C   0  0  0  0  0  0  0  0  0  0  0  0
    0.9998    0.9979   -0.1282 C   0  0  0  0  0  0  0  0  0  0  0  0
   -0.1230    0.6448    0.5821 O   0  0  0  0  0  0  0  0  0  0  0  0
   -0.8700   -0.2879   -0.0622 C   0  0  0  0  0  0  0  0  0  0  0  0
   -2.0936   -0.6874    0.7041 C   0  0  0  0  0  0  0  0  0  0  0  0
   -2.3995   -0.2363    1.7855 O   0  0  0  0  0  0  0  0  0  0  0  0
    2.8757   -0.0142   -0.8901 H   0  0  0  0  0  0  0  0  0  0  0  0
    1.5334    1.8512    0.3615 H   0  0  0  0  0  0  0  0  0  0  0  0
    0.7289    1.3866   -1.1576 H   0  0  0  0  0  0  0  0  0  0  0  0
   -0.3498   -1.1759   -0.4215 H   0  0  0  0  0  0  0  0  0  0  0  0
   -1.2940    0.2217   -0.9883 H   0  0  0  0  0  0  0  0  0  0  0  0
   -2.7283   -1.4296    0.2379 H   0  0  0  0  0  0  0  0  0  0  0  0
  1  2  2  0
  2  3  1  0
  3  4  1  0
  4  5  1  0
  5  6  1  0
  6  7  2  0
  2  8  1  0
  3  9  1  0
  3 10  1  0
  5 11  1  0
  5 12  1  0
  6 13  1  0
M  END
