
     RDKit          3D

 13 14  0  0  0  0  0  0  0  0999 V2000
    3.1277    0.1787    0.1218 O   0  0  0  0  0  0  0  0  0  0  0  0
    2.0519   -0.2653    0.4595 C   0  0  0  0  0  0  0  0  0  0  0  0
    0.8275    0.3878   -0.0686 C   0  0  0  0  0  0  0  0  0  0  0  0
   -0.3367   -0.3545   -0.5218 C   0  0  0  0  0  0  0  0  0  0  0  0
   -1.7841   -0.1186   -0.0664 C   0  0  0  0  0  0  0  0  0  0  0  0
   -1.2175   -0.5011    1.1772 O   0  0  0  0  0  0  0  0  0  0  0  0
   -0.2791    0.4663    0.8296 C   0  0  0  0  0  0  0  0  0  0  0  0
    2.0574   -1.1156    1.1292 H   0  0  0  0  0  0  0  0  0  0  0  0
    1.0624    1.2588   -0.7520 H   0  0  0  0  0  0  0  0  0  0  0  0
   -0.1557   -1.4666   -0.3867 H   0  0  0  0  0  0  0  0  0  0  0  0
   -2.0577    0.9160   -0.1831 H   0  0  0  0  0  0  0  0  0  0  0  0
   -2.4699   -0.8436   -0.5009 H   0  0  0  0  0  0  0  0  0  0  0  0
   -0.8263    1.4578    0.7956 H   0  0  0  0  0  0  0  0  0  0  0  0
  1  2  2  0
  2  3  1  0
  3  4  1  0
  4  5  1  0
  5  6  1  0
  6  7  1  0
  7  3  1  0
  7  4  1  0
  2  8  1  0
  3  9  1  0
  4 10  1  0
  5 11  1  0
  5 12  1  0
  7 13  1  0
M  END
