
     RDKit          3D

 15 17  0  0  0  0  0  0  0  0999 V2000
    2.1515   -0.4329    1.5030 O   0  0  0  0  0  0  0  0  0  0  0  0
    1.9906   -0.5416    0.2952 C   0  0  0  0  0  0  0  0  0  0  0  0
    0.7503   -0.0955   -0.3553 C   0  0  0  0  0  0  0  0  0  0  0  0
   -0.3561   -1.1226   -0.3091 C   0  0  0  0  0  0  0  0  0  0  0  0
   -1.0776   -1.3199    0.8438 O   0  0  0  0  0  0  0  0  0  0  0  0
   -1.5549   -0.4140   -0.1333 C   0  0  0  0  0  0  0  0  0  0  0  0
   -1.2194    1.0231    0.2722 C   0  0  0  0  0  0  0  0  0  0  0  0
   -0.7112    1.7912   -0.7955 O   0  0  0  0  0  0  0  0  0  0  0  0
    0.1695    1.1456    0.2295 C   0  0  0  0  0  0  0  0  0  0  0  0
    2.8011   -0.9791   -0.2646 H   0  0  0  0  0  0  0  0  0  0  0  0
    0.9795    0.0616   -1.4486 H   0  0  0  0  0  0  0  0  0  0  0  0
   -0.2052   -1.9838   -0.9618 H   0  0  0  0  0  0  0  0  0  0  0  0
   -2.5632   -0.6021   -0.4909 H   0  0  0  0  0  0  0  0  0  0  0  0
   -1.9474    1.5329    0.9535 H   0  0  0  0  0  0  0  0  0  0  0  0
    0.7923    1.9372    0.6620 H   0  0  0  0  0  0  0  0  0  0  0  0
  1  2  2  0
  2  3  1  0
  3  4  1  0
  4  5  1  0
  5  6  1  0
  6  7  1  0
  7  8  1  0
  8  9  1  0
  9  3  1  0
  6  4  1  0
  9  7  1  0
  2 10  1  0
  3 11  1  0
  4 12  1  0
  6 13  1  0
  7 14  1  0
  9 15  1  0
M  END
