
     RDKit          3D

 17 17  0  0  0  0  0  0  0  0999 V2000
    4.1098   -0.0470    0.4691 O   0  0  0  0  0  0  0  0  0  0  0  0
    3.3233   -1.0157    0.3137 C   0  0  0  0  0  0  0  0  0  0  0  0
    1.9562   -0.7836   -0.0762 C   0  0  0  0  0  0  0  0  0  0  0  0
    0.8039   -0.5669   -0.4103 C   0  0  0  0  0  0  0  0  0  0  0  0
   -0.5784   -0.3107   -0.8370 C   0  0  0  0  0  0  0  0  0  0  0  0
   -1.6089   -0.7468    0.2032 C   0  0  0  0  0  0  0  0  0  0  0  0
   -1.5856    0.6655    0.7536 C   0  0  0  0  0  0  0  0  0  0  0  0
   -0.9837    1.0991   -0.5810 C   0  0  0  0  0  0  0  0  0  0  0  0
    0.0425    2.0249   -0.4612 O   0  0  0  0  0  0  0  0  0  0  0  0
    3.7013   -2.0035    0.4793 H   0  0  0  0  0  0  0  0  0  0  0  0
   -0.7852   -0.7227   -1.8395 H   0  0  0  0  0  0  0  0  0  0  0  0
   -1.2447   -1.5219    0.9076 H   0  0  0  0  0  0  0  0  0  0  0  0
   -2.5822   -1.0193   -0.2713 H   0  0  0  0  0  0  0  0  0  0  0  0
   -0.8979    0.8352    1.5823 H   0  0  0  0  0  0  0  0  0  0  0  0
   -2.6388    1.0173    0.9060 H   0  0  0  0  0  0  0  0  0  0  0  0
   -1.7535    1.4363   -1.2853 H   0  0  0  0  0  0  0  0  0  0  0  0
    0.7220    1.6597    0.1471 H   0  0  0  0  0  0  0  0  0  0  0  0
  1  2  2  0
  2  3  1  0
  3  4  3  0
  4  5  1  0
  5  6  1  0
  6  7  1  0
  7  8  1  0
  8  9  1  0
  8  5  1  0
  2 10  1  0
  5 11  1  0
  6 12  1  0
  6 13  1  0
  7 14  1  0
  7 15  1  0
  8 16  1  0
  9 17  1  0
M  END
