
     RDKit          3D

 17 18  0  0  0  0  0  0  0  0999 V2000
   -1.4213   -1.1843    1.7692 O   0  0  0  0  0  0  0  0  0  0  0  0
   -1.0125   -1.5432    0.6774 C   0  0  0  0  0  0  0  0  0  0  0  0
   -0.7377   -0.5236   -0.3371 C   0  0  0  0  0  0  0  0  0  0  0  0
    0.2318    0.5723    0.1641 C   0  0  0  0  0  0  0  0  0  0  0  0
    1.6600    0.2347   -0.1532 C   0  0  0  0  0  0  0  0  0  0  0  0
    2.0653   -0.9554    0.4297 O   0  0  0  0  0  0  0  0  0  0  0  0
   -0.4471    1.3442   -0.9450 C   0  0  0  0  0  0  0  0  0  0  0  0
   -1.7044    1.7404   -1.0206 O   0  0  0  0  0  0  0  0  0  0  0  0
   -1.6823    0.6547   -0.2799 C   0  0  0  0  0  0  0  0  0  0  0  0
   -0.8774   -2.6055    0.5266 H   0  0  0  0  0  0  0  0  0  0  0  0
   -0.5290   -0.8632   -1.3513 H   0  0  0  0  0  0  0  0  0  0  0  0
    0.0092    0.8660    1.1850 H   0  0  0  0  0  0  0  0  0  0  0  0
    1.8701    0.2070   -1.2351 H   0  0  0  0  0  0  0  0  0  0  0  0
    2.2990    1.0459    0.2941 H   0  0  0  0  0  0  0  0  0  0  0  0
    2.2201   -0.7725    1.3846 H   0  0  0  0  0  0  0  0  0  0  0  0
   -0.1223    0.8741   -1.9283 H   0  0  0  0  0  0  0  0  0  0  0  0
   -1.8218    0.9083    0.8199 H   0  0  0  0  0  0  0  0  0  0  0  0
  1  2  2  0
  2  3  1  0
  3  4  1  0
  4  5  1  0
  5  6  1  0
  4  7  1  0
  7  8  1  0
  8  9  1  0
  9  3  1  0
  9  7  1  0
  2 10  1  0
  3 11  1  0
  4 12  1  0
  5 13  1  0
  5 14  1  0
  6 15  1  0
  7 16  1  0
  9 17  1  0
M  END
