
     RDKit          3D

 17 18  0  0  0  0  0  0  0  0999 V2000
    2.5690    1.2494    0.9901 O   0  0  0  0  0  0  0  0  0  0  0  0
    2.2547    0.0711    0.8930 C   0  0  0  0  0  0  0  0  0  0  0  0
    1.4773   -0.4515   -0.2600 C   0  0  0  0  0  0  0  0  0  0  0  0
    0.0747   -0.1607   -0.0825 C   0  0  0  0  0  0  0  0  0  0  0  0
   -0.3817    1.2543    0.0404 C   0  0  0  0  0  0  0  0  0  0  0  0
   -1.6882    1.0705    0.3182 C   0  0  0  0  0  0  0  0  0  0  0  0
   -1.7695   -0.4329    0.2273 C   0  0  0  0  0  0  0  0  0  0  0  0
   -0.9525   -0.7303   -1.0219 C   0  0  0  0  0  0  0  0  0  0  0  0
   -0.6293   -0.7940    0.9409 O   0  0  0  0  0  0  0  0  0  0  0  0
    2.5530   -0.6164    1.6741 H   0  0  0  0  0  0  0  0  0  0  0  0
    1.6412   -1.5472   -0.2956 H   0  0  0  0  0  0  0  0  0  0  0  0
    1.9000   -0.0685   -1.2128 H   0  0  0  0  0  0  0  0  0  0  0  0
    0.1916    2.1647   -0.0677 H   0  0  0  0  0  0  0  0  0  0  0  0
   -2.4630    1.7898    0.5428 H   0  0  0  0  0  0  0  0  0  0  0  0
   -2.6895   -0.9149    0.3833 H   0  0  0  0  0  0  0  0  0  0  0  0
   -0.8255   -1.7974   -1.2112 H   0  0  0  0  0  0  0  0  0  0  0  0
   -1.2621   -0.0860   -1.8584 H   0  0  0  0  0  0  0  0  0  0  0  0
  1  2  2  0
  2  3  1  0
  3  4  1  0
  4  5  1  0
  5  6  2  0
  6  7  1  0
  7  8  1  0
  7  9  1  0
  8  4  1  0
  9  4  1  0
  2 10  1  0
  3 11  1  0
  3 12  1  0
  5 13  1  0
  6 14  1  0
  7 15  1  0
  8 16  1  0
  8 17  1  0
M  END
