
     RDKit          3D

 19 19  0  0  0  0  0  0  0  0999 V2000
   -2.5300   -0.6962    1.7908 O   0  0  0  0  0  0  0  0  0  0  0  0
   -1.3877   -0.3674    1.4761 C   0  0  0  0  0  0  0  0  0  0  0  0
   -0.9383   -0.2763    0.0595 C   0  0  0  0  0  0  0  0  0  0  0  0
   -2.0197   -0.6205   -0.7493 O   0  0  0  0  0  0  0  0  0  0  0  0
    0.1146   -1.3322   -0.1352 C   0  0  0  0  0  0  0  0  0  0  0  0
    1.4658   -0.9032    0.2710 C   0  0  0  0  0  0  0  0  0  0  0  0
    1.8626    0.3262    0.0105 C   0  0  0  0  0  0  0  0  0  0  0  0
    0.9314    1.2360   -0.6845 C   0  0  0  0  0  0  0  0  0  0  0  0
   -0.4965    1.1067   -0.2322 C   0  0  0  0  0  0  0  0  0  0  0  0
   -0.6320   -0.1214    2.2297 H   0  0  0  0  0  0  0  0  0  0  0  0
   -2.0295   -0.0832   -1.5803 H   0  0  0  0  0  0  0  0  0  0  0  0
   -0.1295   -2.2700    0.4053 H   0  0  0  0  0  0  0  0  0  0  0  0
    0.1937   -1.6388   -1.2193 H   0  0  0  0  0  0  0  0  0  0  0  0
    2.1252   -1.6117    0.7846 H   0  0  0  0  0  0  0  0  0  0  0  0
    2.8675    0.6689    0.3043 H   0  0  0  0  0  0  0  0  0  0  0  0
    1.3184    2.2708   -0.5787 H   0  0  0  0  0  0  0  0  0  0  0  0
    1.0340    1.0086   -1.7876 H   0  0  0  0  0  0  0  0  0  0  0  0
   -0.6146    1.7565    0.6578 H   0  0  0  0  0  0  0  0  0  0  0  0
   -1.1353    1.5470   -1.0227 H   0  0  0  0  0  0  0  0  0  0  0  0
  1  2  2  0
  2  3  1  0
  3  4  1  0
  3  5  1  0
  5  6  1  0
  6  7  2  0
  7  8  1  0
  8  9  1  0
  9  3  1  0
  2 10  1  0
  4 11  1  0
  5 12  1  0
  5 13  1  0
  6 14  1  0
  7 15  1  0
  8 16  1  0
  8 17  1  0
  9 18  1  0
  9 19  1  0
M  END
