
     RDKit          3D

 15 14  0  0  0  0  0  0  0  0999 V2000
    1.9363    0.9186    1.0246 O   0  0  0  0  0  0  0  0  0  0  0  0
    1.9741    0.5787   -0.1395 C   0  0  0  0  0  0  0  0  0  0  0  0
    0.8144   -0.0536   -0.7676 C   0  0  0  0  0  0  0  0  0  0  0  0
   -0.3582   -0.2107    0.1814 C   0  0  0  0  0  0  0  0  0  0  0  0
    0.0208   -1.0021    1.2638 O   0  0  0  0  0  0  0  0  0  0  0  0
   -0.8599    1.1000    0.6544 C   0  0  0  0  0  0  0  0  0  0  0  0
   -1.2454    1.9512   -0.1120 O   0  0  0  0  0  0  0  0  0  0  0  0
   -1.3961   -0.9619   -0.5657 C   0  0  0  0  0  0  0  0  0  0  0  0
   -1.7295   -2.0529   -0.1600 O   0  0  0  0  0  0  0  0  0  0  0  0
    2.8781    0.7577   -0.6808 H   0  0  0  0  0  0  0  0  0  0  0  0
    1.0781   -1.0932   -1.1072 H   0  0  0  0  0  0  0  0  0  0  0  0
    0.4432    0.4798   -1.6644 H   0  0  0  0  0  0  0  0  0  0  0  0
   -0.7957   -1.1344    1.8327 H   0  0  0  0  0  0  0  0  0  0  0  0
   -0.8806    1.2976    1.7139 H   0  0  0  0  0  0  0  0  0  0  0  0
   -1.8794   -0.5748   -1.4735 H   0  0  0  0  0  0  0  0  0  0  0  0
  1  2  2  0
  2  3  1  0
  3  4  1  0
  4  5  1  0
  4  6  1  0
  6  7  2  0
  4  8  1  0
  8  9  2  0
  2 10  1  0
  3 11  1  0
  3 12  1  0
  5 13  1  0
  6 14  1  0
  8 15  1  0
M  END
