
     RDKit          3D

 21 22  0  0  0  0  0  0  0  0999 V2000
    1.7829    1.8265    1.2239 O   0  0  0  0  0  0  0  0  0  0  0  0
    2.0836    0.8576    0.5707 C   0  0  0  0  0  0  0  0  0  0  0  0
    1.1783    0.3496   -0.4695 C   0  0  0  0  0  0  0  0  0  0  0  0
    1.4076   -1.1264   -0.8267 C   0  0  0  0  0  0  0  0  0  0  0  0
   -0.1089   -1.3284   -0.7293 C   0  0  0  0  0  0  0  0  0  0  0  0
   -0.1950    0.0212   -0.1229 C   0  0  0  0  0  0  0  0  0  0  0  0
   -1.3135    0.9109   -0.5483 C   0  0  0  0  0  0  0  0  0  0  0  0
   -2.0733    0.3273    0.6529 C   0  0  0  0  0  0  0  0  0  0  0  0
   -0.6810    0.1208    1.2736 C   0  0  0  0  0  0  0  0  0  0  0  0
    3.0191    0.3672    0.7544 H   0  0  0  0  0  0  0  0  0  0  0  0
    1.3225    0.9574   -1.4101 H   0  0  0  0  0  0  0  0  0  0  0  0
    1.9010   -1.6749   -0.0206 H   0  0  0  0  0  0  0  0  0  0  0  0
    1.7553   -1.3068   -1.8413 H   0  0  0  0  0  0  0  0  0  0  0  0
   -0.6175   -1.3477   -1.7215 H   0  0  0  0  0  0  0  0  0  0  0  0
   -0.4143   -2.1296   -0.0336 H   0  0  0  0  0  0  0  0  0  0  0  0
   -1.7050    0.6298   -1.5222 H   0  0  0  0  0  0  0  0  0  0  0  0
   -1.1399    1.9836   -0.4299 H   0  0  0  0  0  0  0  0  0  0  0  0
   -2.4729   -0.6524    0.3666 H   0  0  0  0  0  0  0  0  0  0  0  0
   -2.7134    1.0249    1.1792 H   0  0  0  0  0  0  0  0  0  0  0  0
   -0.4118    1.0266    1.8182 H   0  0  0  0  0  0  0  0  0  0  0  0
   -0.6036   -0.8373    1.8362 H   0  0  0  0  0  0  0  0  0  0  0  0
  1  2  2  0
  2  3  1  0
  3  4  1  0
  4  5  1  0
  5  6  1  0
  6  7  1  0
  7  8  1  0
  8  9  1  0
  6  3  1  0
  9  6  1  0
  2 10  1  0
  3 11  1  0
  4 12  1  0
  4 13  1  0
  5 14  1  0
  5 15  1  0
  7 16  1  0
  7 17  1  0
  8 18  1  0
  8 19  1  0
  9 20  1  0
  9 21  1  0
M  END
