
     RDKit          3D

 19 20  0  0  0  0  0  0  0  0999 V2000
   -2.6601    0.7477    1.2847 O   0  0  0  0  0  0  0  0  0  0  0  0
   -2.2278   -0.1811    0.6386 C   0  0  0  0  0  0  0  0  0  0  0  0
   -1.1289   -0.0323   -0.2997 C   0  0  0  0  0  0  0  0  0  0  0  0
   -0.2692    1.1950   -0.0414 C   0  0  0  0  0  0  0  0  0  0  0  0
    1.1257    0.7071   -0.2602 C   0  0  0  0  0  0  0  0  0  0  0  0
    1.4776   -0.1017    0.9970 C   0  0  0  0  0  0  0  0  0  0  0  0
    0.5427   -1.1349    0.9868 O   0  0  0  0  0  0  0  0  0  0  0  0
   -0.0982   -1.1518   -0.2189 C   0  0  0  0  0  0  0  0  0  0  0  0
    0.9357   -0.5150   -1.1714 C   0  0  0  0  0  0  0  0  0  0  0  0
   -2.6888   -1.1512    0.7776 H   0  0  0  0  0  0  0  0  0  0  0  0
   -1.5255    0.0603   -1.3255 H   0  0  0  0  0  0  0  0  0  0  0  0
   -0.4433    1.4964    1.0119 H   0  0  0  0  0  0  0  0  0  0  0  0
   -0.5584    2.0503   -0.6716 H   0  0  0  0  0  0  0  0  0  0  0  0
    1.8628    1.3947   -0.5761 H   0  0  0  0  0  0  0  0  0  0  0  0
    1.3070    0.5898    1.8482 H   0  0  0  0  0  0  0  0  0  0  0  0
    2.5095   -0.4342    0.8870 H   0  0  0  0  0  0  0  0  0  0  0  0
   -0.4512   -2.1036   -0.5685 H   0  0  0  0  0  0  0  0  0  0  0  0
    0.4958   -0.2616   -2.1265 H   0  0  0  0  0  0  0  0  0  0  0  0
    1.7944   -1.1738   -1.1719 H   0  0  0  0  0  0  0  0  0  0  0  0
  1  2  2  0
  2  3  1  0
  3  4  1  0
  4  5  1  0
  5  6  1  0
  6  7  1  0
  7  8  1  0
  8  9  1  0
  8  3  1  0
  9  5  1  0
  2 10  1  0
  3 11  1  0
  4 12  1  0
  4 13  1  0
  5 14  1  0
  6 15  1  0
  6 16  1  0
  8 17  1  0
  9 18  1  0
  9 19  1  0
M  END
