
     RDKit          3D

 17 18  0  0  0  0  0  0  0  0999 V2000
   -3.2007    0.2264   -0.4184 O   0  0  0  0  0  0  0  0  0  0  0  0
   -2.1348   -0.2857   -0.7317 C   0  0  0  0  0  0  0  0  0  0  0  0
   -0.9278    0.1963   -0.0149 C   0  0  0  0  0  0  0  0  0  0  0  0
   -1.1441    1.1686    0.9252 O   0  0  0  0  0  0  0  0  0  0  0  0
   -0.0659   -0.9193    0.5791 C   0  0  0  0  0  0  0  0  0  0  0  0
    1.1094   -0.2884   -0.0517 C   0  0  0  0  0  0  0  0  0  0  0  0
    2.2748    0.2136    0.4375 C   0  0  0  0  0  0  0  0  0  0  0  0
    2.2029   -0.9687   -0.4867 O   0  0  0  0  0  0  0  0  0  0  0  0
    0.1973    0.4471   -0.9947 C   0  0  0  0  0  0  0  0  0  0  0  0
   -2.1191   -1.0381   -1.4881 H   0  0  0  0  0  0  0  0  0  0  0  0
   -1.8391    1.8129    0.7341 H   0  0  0  0  0  0  0  0  0  0  0  0
   -0.1094   -0.9823    1.6724 H   0  0  0  0  0  0  0  0  0  0  0  0
   -0.3180   -1.9059    0.0967 H   0  0  0  0  0  0  0  0  0  0  0  0
    2.7713   -0.0750    1.4054 H   0  0  0  0  0  0  0  0  0  0  0  0
    2.8364    1.0362   -0.0621 H   0  0  0  0  0  0  0  0  0  0  0  0
    0.0708   -0.1491   -1.9262 H   0  0  0  0  0  0  0  0  0  0  0  0
    0.3959    1.5116   -1.1204 H   0  0  0  0  0  0  0  0  0  0  0  0
  1  2  2  0
  2  3  1  0
  3  4  1  0
  3  5  1  0
  5  6  1  0
  6  7  1  0
  7  8  1  0
  6  9  1  0
  9  3  1  0
  8  6  1  0
  2 10  1  0
  4 11  1  0
  5 12  1  0
  5 13  1  0
  7 14  1  0
  7 15  1  0
  9 16  1  0
  9 17  1  0
M  END
