
     RDKit          3D

 15 14  0  0  0  0  0  0  0  0999 V2000
   -2.4387   -1.2264   -0.2858 O   0  0  0  0  0  0  0  0  0  0  0  0
   -1.7508   -0.2957   -0.6606 C   0  0  0  0  0  0  0  0  0  0  0  0
   -0.7700    0.2916    0.2626 C   0  0  0  0  0  0  0  0  0  0  0  0
   -0.8115   -0.3670    1.4723 O   0  0  0  0  0  0  0  0  0  0  0  0
    0.6143    0.3226   -0.3371 C   0  0  0  0  0  0  0  0  0  0  0  0
    1.1067   -1.0281   -0.6809 C   0  0  0  0  0  0  0  0  0  0  0  0
    2.2137   -1.1182   -1.1726 O   0  0  0  0  0  0  0  0  0  0  0  0
    1.5550    0.9646    0.6154 C   0  0  0  0  0  0  0  0  0  0  0  0
    1.9822    0.3089    1.5259 O   0  0  0  0  0  0  0  0  0  0  0  0
   -1.8542    0.1062   -1.6717 H   0  0  0  0  0  0  0  0  0  0  0  0
   -1.0378    1.3689    0.4713 H   0  0  0  0  0  0  0  0  0  0  0  0
   -1.7354   -0.2821    1.8209 H   0  0  0  0  0  0  0  0  0  0  0  0
    0.5363    0.8901   -1.3015 H   0  0  0  0  0  0  0  0  0  0  0  0
    0.5553   -1.9424   -0.5276 H   0  0  0  0  0  0  0  0  0  0  0  0
    1.8349    2.0069    0.4692 H   0  0  0  0  0  0  0  0  0  0  0  0
  1  2  2  0
  2  3  1  0
  3  4  1  0
  3  5  1  0
  5  6  1  0
  6  7  2  0
  5  8  1  0
  8  9  2  0
  2 10  1  0
  3 11  1  0
  4 12  1  0
  5 13  1  0
  6 14  1  0
  8 15  1  0
M  END
