
     RDKit          3D

 15 15  0  0  0  0  0  0  0  0999 V2000
    2.7145    1.4685   -0.5554 O   0  0  0  0  0  0  0  0  0  0  0  0
    2.2536    0.3681   -0.1918 C   0  0  0  0  0  0  0  0  0  0  0  0
    0.8199    0.1779   -0.1808 C   0  0  0  0  0  0  0  0  0  0  0  0
   -0.0895    1.0664   -0.5235 C   0  0  0  0  0  0  0  0  0  0  0  0
   -1.4262    0.4641   -0.3662 C   0  0  0  0  0  0  0  0  0  0  0  0
   -1.1664   -0.5201    0.7549 C   0  0  0  0  0  0  0  0  0  0  0  0
    0.1600   -1.1015    0.2390 C   0  0  0  0  0  0  0  0  0  0  0  0
    2.8819   -0.4510    0.1161 H   0  0  0  0  0  0  0  0  0  0  0  0
    0.0945    2.0680   -0.8635 H   0  0  0  0  0  0  0  0  0  0  0  0
   -2.2156    1.1944   -0.1264 H   0  0  0  0  0  0  0  0  0  0  0  0
   -1.6658   -0.1456   -1.2644 H   0  0  0  0  0  0  0  0  0  0  0  0
   -1.9406   -1.2904    0.8193 H   0  0  0  0  0  0  0  0  0  0  0  0
   -1.0049    0.0312    1.7116 H   0  0  0  0  0  0  0  0  0  0  0  0
    0.6751   -1.6002    1.0564 H   0  0  0  0  0  0  0  0  0  0  0  0
   -0.0906   -1.7299   -0.6253 H   0  0  0  0  0  0  0  0  0  0  0  0
  1  2  2  0
  2  3  1  0
  3  4  2  0
  4  5  1  0
  5  6  1  0
  6  7  1  0
  7  3  1  0
  2  8  1  0
  4  9  1  0
  5 10  1  0
  5 11  1  0
  6 12  1  0
  6 13  1  0
  7 14  1  0
  7 15  1  0
M  END
