
     RDKit          3D

 17 18  0  0  0  0  0  0  0  0999 V2000
   -2.1801    2.4734   -0.2126 O   0  0  0  0  0  0  0  0  0  0  0  0
   -1.8807    1.3713    0.2228 C   0  0  0  0  0  0  0  0  0  0  0  0
   -0.6514    0.7033   -0.2615 C   0  0  0  0  0  0  0  0  0  0  0  0
   -0.8990   -0.6093   -0.8708 C   0  0  0  0  0  0  0  0  0  0  0  0
   -1.9476   -1.0422   -1.2283 O   0  0  0  0  0  0  0  0  0  0  0  0
    0.4054   -1.2744   -0.9482 C   0  0  0  0  0  0  0  0  0  0  0  0
    0.9833   -0.9598    0.4237 C   0  0  0  0  0  0  0  0  0  0  0  0
    1.7500    0.2728    0.6432 C   0  0  0  0  0  0  0  0  0  0  0  0
    0.2945    0.3475    0.8590 C   0  0  0  0  0  0  0  0  0  0  0  0
   -2.4919    0.8814    0.9480 H   0  0  0  0  0  0  0  0  0  0  0  0
   -0.1041    1.3213   -1.0021 H   0  0  0  0  0  0  0  0  0  0  0  0
    1.0126   -0.7441   -1.7104 H   0  0  0  0  0  0  0  0  0  0  0  0
    0.3421   -2.3609   -1.1334 H   0  0  0  0  0  0  0  0  0  0  0  0
    0.9770   -1.8045    1.1307 H   0  0  0  0  0  0  0  0  0  0  0  0
    2.3858    0.3245    1.5341 H   0  0  0  0  0  0  0  0  0  0  0  0
    2.1641    0.7743   -0.2606 H   0  0  0  0  0  0  0  0  0  0  0  0
   -0.1599    0.3254    1.8666 H   0  0  0  0  0  0  0  0  0  0  0  0
  1  2  2  0
  2  3  1  0
  3  4  1  0
  4  5  2  0
  4  6  1  0
  6  7  1  0
  7  8  1  0
  8  9  1  0
  9  3  1  0
  9  7  1  0
  2 10  1  0
  3 11  1  0
  6 12  1  0
  6 13  1  0
  7 14  1  0
  8 15  1  0
  8 16  1  0
  9 17  1  0
M  END
