
     RDKit          3D

 17 18  0  0  0  0  0  0  0  0999 V2000
    0.6022    1.6074    1.5647 O   0  0  0  0  0  0  0  0  0  0  0  0
    0.7398    1.7310    0.3632 C   0  0  0  0  0  0  0  0  0  0  0  0
    0.0402    0.8838   -0.6167 C   0  0  0  0  0  0  0  0  0  0  0  0
    0.5624   -0.5197   -0.7686 C   0  0  0  0  0  0  0  0  0  0  0  0
    1.6659   -0.8958    0.1157 C   0  0  0  0  0  0  0  0  0  0  0  0
    1.6451   -1.9377    0.7293 O   0  0  0  0  0  0  0  0  0  0  0  0
   -0.8000   -1.0290   -0.4142 C   0  0  0  0  0  0  0  0  0  0  0  0
   -1.2979   -0.7205    0.9447 C   0  0  0  0  0  0  0  0  0  0  0  0
   -1.2710    0.3898   -0.0703 C   0  0  0  0  0  0  0  0  0  0  0  0
    1.4135    2.5074    0.0319 H   0  0  0  0  0  0  0  0  0  0  0  0
   -0.1248    1.3929   -1.5829 H   0  0  0  0  0  0  0  0  0  0  0  0
    0.8037   -0.7458   -1.8473 H   0  0  0  0  0  0  0  0  0  0  0  0
    2.5117   -0.2432    0.2281 H   0  0  0  0  0  0  0  0  0  0  0  0
   -1.4091   -1.5043   -1.1881 H   0  0  0  0  0  0  0  0  0  0  0  0
   -2.3116   -1.0014    1.2728 H   0  0  0  0  0  0  0  0  0  0  0  0
   -0.5454   -0.6572    1.7398 H   0  0  0  0  0  0  0  0  0  0  0  0
   -2.2248    0.7424   -0.5021 H   0  0  0  0  0  0  0  0  0  0  0  0
  1  2  2  0
  2  3  1  0
  3  4  1  0
  4  5  1  0
  5  6  2  0
  4  7  1  0
  7  8  1  0
  8  9  1  0
  9  3  1  0
  9  7  1  0
  2 10  1  0
  3 11  1  0
  4 12  1  0
  5 13  1  0
  7 14  1  0
  8 15  1  0
  8 16  1  0
  9 17  1  0
M  END
