
     RDKit          3D

 19 20  0  0  0  0  0  0  0  0999 V2000
   -1.0340    2.2845    1.5966 O   0  0  0  0  0  0  0  0  0  0  0  0
   -0.1968    1.4081    1.4890 C   0  0  0  0  0  0  0  0  0  0  0  0
   -0.1863    0.5570    0.2942 C   0  0  0  0  0  0  0  0  0  0  0  0
   -1.5357   -0.0492   -0.0210 C   0  0  0  0  0  0  0  0  0  0  0  0
   -0.8387   -1.3505   -0.2979 C   0  0  0  0  0  0  0  0  0  0  0  0
    0.3793   -0.8127    0.4236 C   0  0  0  0  0  0  0  0  0  0  0  0
    1.5667   -0.8283   -0.5092 C   0  0  0  0  0  0  0  0  0  0  0  0
    1.2980    0.1297   -1.4527 O   0  0  0  0  0  0  0  0  0  0  0  0
    0.5374    1.1169   -0.9012 C   0  0  0  0  0  0  0  0  0  0  0  0
    0.5096    1.3047    2.3017 H   0  0  0  0  0  0  0  0  0  0  0  0
   -2.2161   -0.0830    0.8557 H   0  0  0  0  0  0  0  0  0  0  0  0
   -1.9646    0.4371   -0.9237 H   0  0  0  0  0  0  0  0  0  0  0  0
   -1.2544   -2.2480    0.1886 H   0  0  0  0  0  0  0  0  0  0  0  0
   -0.6892   -1.5470   -1.3867 H   0  0  0  0  0  0  0  0  0  0  0  0
    0.5500   -1.2144    1.4248 H   0  0  0  0  0  0  0  0  0  0  0  0
    1.5669   -1.8454   -0.9902 H   0  0  0  0  0  0  0  0  0  0  0  0
    2.5181   -0.7203    0.0169 H   0  0  0  0  0  0  0  0  0  0  0  0
   -0.2225    1.5296   -1.5988 H   0  0  0  0  0  0  0  0  0  0  0  0
    1.2124    1.9314   -0.5096 H   0  0  0  0  0  0  0  0  0  0  0  0
  1  2  2  0
  2  3  1  0
  3  4  1  0
  4  5  1  0
  5  6  1  0
  6  7  1  0
  7  8  1  0
  8  9  1  0
  6  3  1  0
  9  3  1  0
  2 10  1  0
  4 11  1  0
  4 12  1  0
  5 13  1  0
  5 14  1  0
  6 15  1  0
  7 16  1  0
  7 17  1  0
  9 18  1  0
  9 19  1  0
M  END
