
     RDKit          3D

 21 21  0  0  0  0  0  0  0  0999 V2000
    3.1345    0.1565   -0.6573 O   0  0  0  0  0  0  0  0  0  0  0  0
    2.5227    0.0864    0.3916 C   0  0  0  0  0  0  0  0  0  0  0  0
    1.0186    0.1621    0.3319 C   0  0  0  0  0  0  0  0  0  0  0  0
    0.4630   -1.1122   -0.3032 C   0  0  0  0  0  0  0  0  0  0  0  0
   -0.8754   -1.3860    0.3328 C   0  0  0  0  0  0  0  0  0  0  0  0
   -1.8940   -0.3892   -0.1403 C   0  0  0  0  0  0  0  0  0  0  0  0
   -1.4964    1.0427    0.1648 C   0  0  0  0  0  0  0  0  0  0  0  0
   -0.6299    1.5611   -0.7488 O   0  0  0  0  0  0  0  0  0  0  0  0
    0.6848    1.2949   -0.5808 C   0  0  0  0  0  0  0  0  0  0  0  0
    3.0217   -0.0254    1.3341 H   0  0  0  0  0  0  0  0  0  0  0  0
    0.6364    0.2701    1.3500 H   0  0  0  0  0  0  0  0  0  0  0  0
    0.3181   -0.9844   -1.3989 H   0  0  0  0  0  0  0  0  0  0  0  0
    1.1733   -1.9438   -0.1762 H   0  0  0  0  0  0  0  0  0  0  0  0
   -0.7445   -1.3249    1.4280 H   0  0  0  0  0  0  0  0  0  0  0  0
   -1.1989   -2.3804    0.0158 H   0  0  0  0  0  0  0  0  0  0  0  0
   -2.0571   -0.4592   -1.2151 H   0  0  0  0  0  0  0  0  0  0  0  0
   -2.8407   -0.5953    0.4011 H   0  0  0  0  0  0  0  0  0  0  0  0
   -2.4556    1.6373    0.0806 H   0  0  0  0  0  0  0  0  0  0  0  0
   -1.1888    1.1722    1.2283 H   0  0  0  0  0  0  0  0  0  0  0  0
    1.1191    1.0360   -1.5903 H   0  0  0  0  0  0  0  0  0  0  0  0
    1.2890    2.1814   -0.2482 H   0  0  0  0  0  0  0  0  0  0  0  0
  1  2  2  0
  2  3  1  0
  3  4  1  0
  4  5  1  0
  5  6  1  0
  6  7  1  0
  7  8  1  0
  8  9  1  0
  9  3  1  0
  2 10  1  0
  3 11  1  0
  4 12  1  0
  4 13  1  0
  5 14  1  0
  5 15  1  0
  6 16  1  0
  6 17  1  0
  7 18  1  0
  7 19  1  0
  9 20  1  0
  9 21  1  0
M  END
