
     RDKit          3D

 17 17  0  0  0  0  0  0  0  0999 V2000
    1.5746    2.5629    0.0971 O   0  0  0  0  0  0  0  0  0  0  0  0
    0.8227    1.6370    0.3452 C   0  0  0  0  0  0  0  0  0  0  0  0
    0.3454    0.7442   -0.7400 C   0  0  0  0  0  0  0  0  0  0  0  0
   -1.1792    0.5575   -0.7344 C   0  0  0  0  0  0  0  0  0  0  0  0
   -0.9228   -0.5224    0.3240 C   0  0  0  0  0  0  0  0  0  0  0  0
   -1.7822   -1.5906    0.2788 O   0  0  0  0  0  0  0  0  0  0  0  0
    0.4144   -0.7439   -0.3970 C   0  0  0  0  0  0  0  0  0  0  0  0
    1.5269   -1.1353    0.4718 C   0  0  0  0  0  0  0  0  0  0  0  0
    1.7202   -0.6170    1.5326 O   0  0  0  0  0  0  0  0  0  0  0  0
    0.5239    1.4989    1.3797 H   0  0  0  0  0  0  0  0  0  0  0  0
    0.7596    1.0129   -1.7099 H   0  0  0  0  0  0  0  0  0  0  0  0
   -1.4695    0.0823   -1.6807 H   0  0  0  0  0  0  0  0  0  0  0  0
   -1.7438    1.4197   -0.3890 H   0  0  0  0  0  0  0  0  0  0  0  0
   -0.7179   -0.1370    1.3268 H   0  0  0  0  0  0  0  0  0  0  0  0
   -2.3880   -1.5085    1.0796 H   0  0  0  0  0  0  0  0  0  0  0  0
    0.3174   -1.3396   -1.3274 H   0  0  0  0  0  0  0  0  0  0  0  0
    2.1982   -1.9212    0.1428 H   0  0  0  0  0  0  0  0  0  0  0  0
  1  2  2  0
  2  3  1  0
  3  4  1  0
  4  5  1  0
  5  6  1  0
  5  7  1  0
  7  8  1  0
  8  9  2  0
  7  3  1  0
  2 10  1  0
  3 11  1  0
  4 12  1  0
  4 13  1  0
  5 14  1  0
  6 15  1  0
  7 16  1  0
  8 17  1  0
M  END
