
     RDKit          3D

 12 11  0  0  0  0  0  0  0  0999 V2000
    0.9921    1.9182    0.8359 O   0  0  0  0  0  0  0  0  0  0  0  0
    1.2851    0.8518    0.3480 C   0  0  0  0  0  0  0  0  0  0  0  0
    0.3033    0.0638   -0.4310 C   0  0  0  0  0  0  0  0  0  0  0  0
    0.8257   -1.1214   -0.9046 O   0  0  0  0  0  0  0  0  0  0  0  0
   -0.9429   -0.2196    0.4082 C   0  0  0  0  0  0  0  0  0  0  0  0
   -1.9063   -0.8529   -0.3336 O   0  0  0  0  0  0  0  0  0  0  0  0
    2.2827    0.4794    0.4902 H   0  0  0  0  0  0  0  0  0  0  0  0
   -0.0504    0.7180   -1.2687 H   0  0  0  0  0  0  0  0  0  0  0  0
    1.4555   -1.5376   -0.2941 H   0  0  0  0  0  0  0  0  0  0  0  0
   -0.6798   -0.8677    1.2736 H   0  0  0  0  0  0  0  0  0  0  0  0
   -1.2706    0.7523    0.8333 H   0  0  0  0  0  0  0  0  0  0  0  0
   -2.2944   -0.1843   -0.9573 H   0  0  0  0  0  0  0  0  0  0  0  0
  1  2  2  0
  2  3  1  0
  3  4  1  0
  3  5  1  0
  5  6  1  0
  2  7  1  0
  3  8  1  0
  4  9  1  0
  5 10  1  0
  5 11  1  0
  6 12  1  0
M  END
