
     RDKit          3D

 19 20  0  0  0  0  0  0  0  0999 V2000
   -2.1928    1.5331    1.4351 O   0  0  0  0  0  0  0  0  0  0  0  0
   -2.0043    1.1980    0.2858 C   0  0  0  0  0  0  0  0  0  0  0  0
   -0.8429    0.3455   -0.0245 C   0  0  0  0  0  0  0  0  0  0  0  0
    0.2839    1.0100   -0.7499 C   0  0  0  0  0  0  0  0  0  0  0  0
    1.5373    0.1829   -0.7926 C   0  0  0  0  0  0  0  0  0  0  0  0
    1.8634   -0.4938    0.4574 C   0  0  0  0  0  0  0  0  0  0  0  0
    0.9032   -0.9235    1.2448 C   0  0  0  0  0  0  0  0  0  0  0  0
   -0.4965   -0.7355    0.8904 C   0  0  0  0  0  0  0  0  0  0  0  0
   -1.0562   -1.0986   -0.4396 C   0  0  0  0  0  0  0  0  0  0  0  0
   -2.6910    1.5337   -0.4714 H   0  0  0  0  0  0  0  0  0  0  0  0
   -0.0404    1.1643   -1.8055 H   0  0  0  0  0  0  0  0  0  0  0  0
    0.4860    2.0193   -0.3397 H   0  0  0  0  0  0  0  0  0  0  0  0
    1.5174   -0.5708   -1.6312 H   0  0  0  0  0  0  0  0  0  0  0  0
    2.3840    0.8731   -1.0542 H   0  0  0  0  0  0  0  0  0  0  0  0
    2.8976   -0.6438    0.7398 H   0  0  0  0  0  0  0  0  0  0  0  0
    1.1304   -1.4426    2.2014 H   0  0  0  0  0  0  0  0  0  0  0  0
   -1.2347   -0.9055    1.7291 H   0  0  0  0  0  0  0  0  0  0  0  0
   -2.0904   -1.4738   -0.5351 H   0  0  0  0  0  0  0  0  0  0  0  0
   -0.3541   -1.5721   -1.1402 H   0  0  0  0  0  0  0  0  0  0  0  0
  1  2  2  0
  2  3  1  0
  3  4  1  0
  4  5  1  0
  5  6  1  0
  6  7  2  0
  7  8  1  0
  8  9  1  0
  8  3  1  0
  9  3  1  0
  2 10  1  0
  4 11  1  0
  4 12  1  0
  5 13  1  0
  5 14  1  0
  6 15  1  0
  7 16  1  0
  8 17  1  0
  9 18  1  0
  9 19  1  0
M  END
