
     RDKit          3D

 17 17  0  0  0  0  0  0  0  0999 V2000
    3.6145   -0.1388   -0.4186 O   0  0  0  0  0  0  0  0  0  0  0  0
    2.4710    0.1757   -0.1592 C   0  0  0  0  0  0  0  0  0  0  0  0
    1.6695   -0.7336    0.7011 C   0  0  0  0  0  0  0  0  0  0  0  0
    0.3869   -0.2079    0.8882 O   0  0  0  0  0  0  0  0  0  0  0  0
   -0.2322   -0.0759   -0.3499 C   0  0  0  0  0  0  0  0  0  0  0  0
   -1.6256   -0.7012   -0.2771 C   0  0  0  0  0  0  0  0  0  0  0  0
   -2.0470    0.6449    0.3024 C   0  0  0  0  0  0  0  0  0  0  0  0
   -0.9065    1.2462   -0.4390 C   0  0  0  0  0  0  0  0  0  0  0  0
   -0.6059    2.3145   -0.9205 O   0  0  0  0  0  0  0  0  0  0  0  0
    2.0476    1.0945   -0.5451 H   0  0  0  0  0  0  0  0  0  0  0  0
    2.1107   -0.8376    1.7129 H   0  0  0  0  0  0  0  0  0  0  0  0
    1.5488   -1.6909    0.1795 H   0  0  0  0  0  0  0  0  0  0  0  0
    0.3452   -0.3848   -1.2226 H   0  0  0  0  0  0  0  0  0  0  0  0
   -1.7188   -1.5554    0.3947 H   0  0  0  0  0  0  0  0  0  0  0  0
   -2.1053   -0.8260   -1.2783 H   0  0  0  0  0  0  0  0  0  0  0  0
   -1.9114    0.6868    1.4211 H   0  0  0  0  0  0  0  0  0  0  0  0
   -3.0416    0.9895    0.0104 H   0  0  0  0  0  0  0  0  0  0  0  0
  1  2  2  0
  2  3  1  0
  3  4  1  0
  4  5  1  0
  5  6  1  0
  6  7  1  0
  7  8  1  0
  8  9  2  0
  8  5  1  0
  2 10  1  0
  3 11  1  0
  3 12  1  0
  5 13  1  0
  6 14  1  0
  6 15  1  0
  7 16  1  0
  7 17  1  0
M  END
