
     RDKit          3D

 14 14  0  0  0  0  0  0  0  0999 V2000
    1.9799   -0.2275    2.0518 O   0  0  0  0  0  0  0  0  0  0  0  0
    1.4452    0.1626    1.0083 C   0  0  0  0  0  0  0  0  0  0  0  0
    0.4762   -0.7177    0.3579 C   0  0  0  0  0  0  0  0  0  0  0  0
    0.1879   -0.6391   -1.1091 C   0  0  0  0  0  0  0  0  0  0  0  0
   -0.7469    0.0112   -0.1928 C   0  0  0  0  0  0  0  0  0  0  0  0
   -1.9375   -0.5874    0.2213 O   0  0  0  0  0  0  0  0  0  0  0  0
   -0.7264    1.5022   -0.1835 C   0  0  0  0  0  0  0  0  0  0  0  0
   -1.7737    2.1230   -0.1160 O   0  0  0  0  0  0  0  0  0  0  0  0
    1.7467    1.1387    0.6605 H   0  0  0  0  0  0  0  0  0  0  0  0
    0.3057   -1.7068    0.8396 H   0  0  0  0  0  0  0  0  0  0  0  0
    0.8897   -0.0141   -1.6880 H   0  0  0  0  0  0  0  0  0  0  0  0
   -0.1153   -1.5543   -1.6628 H   0  0  0  0  0  0  0  0  0  0  0  0
   -1.9177   -1.5622    0.0477 H   0  0  0  0  0  0  0  0  0  0  0  0
    0.1865    2.0716   -0.2349 H   0  0  0  0  0  0  0  0  0  0  0  0
  1  2  2  0
  2  3  1  0
  3  4  1  0
  4  5  1  0
  5  6  1  0
  5  7  1  0
  7  8  2  0
  5  3  1  0
  2  9  1  0
  3 10  1  0
  4 11  1  0
  4 12  1  0
  6 13  1  0
  7 14  1  0
M  END
