
     RDKit          3D

 15 14  0  0  0  0  0  0  0  0999 V2000
    3.3710   -0.4248   -0.4526 O   0  0  0  0  0  0  0  0  0  0  0  0
    2.7247    0.5896   -0.3838 C   0  0  0  0  0  0  0  0  0  0  0  0
    1.2424    0.6220   -0.2706 C   0  0  0  0  0  0  0  0  0  0  0  0
    0.6539   -0.7427   -0.2524 C   0  0  0  0  0  0  0  0  0  0  0  0
    1.3077   -1.7694   -0.3219 O   0  0  0  0  0  0  0  0  0  0  0  0
   -0.8224   -0.8763   -0.1429 C   0  0  0  0  0  0  0  0  0  0  0  0
   -1.4457    0.3911   -0.0710 O   0  0  0  0  0  0  0  0  0  0  0  0
   -2.8183    0.4685    0.0347 C   0  0  0  0  0  0  0  0  0  0  0  0
   -3.4970   -0.5900    0.0657 O   0  0  0  0  0  0  0  0  0  0  0  0
    3.2379    1.5440   -0.4041 H   0  0  0  0  0  0  0  0  0  0  0  0
    0.8465    1.1476   -1.1699 H   0  0  0  0  0  0  0  0  0  0  0  0
    0.9581    1.1127    0.6697 H   0  0  0  0  0  0  0  0  0  0  0  0
   -1.1311   -1.4893    0.7282 H   0  0  0  0  0  0  0  0  0  0  0  0
   -1.2554   -1.3792   -1.0485 H   0  0  0  0  0  0  0  0  0  0  0  0
   -3.3723    1.3962    0.0947 H   0  0  0  0  0  0  0  0  0  0  0  0
  1  2  2  0
  2  3  1  0
  3  4  1  0
  4  5  2  0
  4  6  1  0
  6  7  1  0
  7  8  1  0
  8  9  2  0
  2 10  1  0
  3 11  1  0
  3 12  1  0
  6 13  1  0
  6 14  1  0
  8 15  1  0
M  END
