
     RDKit          3D

 17 18  0  0  0  0  0  0  0  0999 V2000
    2.2611    0.4138    1.2908 O   0  0  0  0  0  0  0  0  0  0  0  0
    2.3449   -0.1476    0.1913 C   0  0  0  0  0  0  0  0  0  0  0  0
    1.1038   -0.3333   -0.6383 C   0  0  0  0  0  0  0  0  0  0  0  0
    0.1704    0.7177   -0.6462 C   0  0  0  0  0  0  0  0  0  0  0  0
   -0.7524    1.3177    0.3519 C   0  0  0  0  0  0  0  0  0  0  0  0
   -1.9281    0.5755    0.1169 O   0  0  0  0  0  0  0  0  0  0  0  0
   -1.5323   -0.6721   -0.4182 C   0  0  0  0  0  0  0  0  0  0  0  0
   -0.1010   -0.7217   -0.0351 C   0  0  0  0  0  0  0  0  0  0  0  0
   -0.0361   -0.7900    1.3864 O   0  0  0  0  0  0  0  0  0  0  0  0
    3.3234   -0.4681   -0.0949 H   0  0  0  0  0  0  0  0  0  0  0  0
    1.3726   -0.8614   -1.6029 H   0  0  0  0  0  0  0  0  0  0  0  0
   -0.2990    0.9075   -1.6648 H   0  0  0  0  0  0  0  0  0  0  0  0
   -0.4817    1.1803    1.3952 H   0  0  0  0  0  0  0  0  0  0  0  0
   -0.9726    2.3765    0.1114 H   0  0  0  0  0  0  0  0  0  0  0  0
   -1.6533   -0.5869   -1.5026 H   0  0  0  0  0  0  0  0  0  0  0  0
   -2.1298   -1.4745    0.0352 H   0  0  0  0  0  0  0  0  0  0  0  0
   -0.6898   -1.4334    1.7238 H   0  0  0  0  0  0  0  0  0  0  0  0
  1  2  2  0
  2  3  1  0
  3  4  1  0
  4  5  1  0
  5  6  1  0
  6  7  1  0
  7  8  1  0
  8  9  1  0
  8  3  1  0
  8  4  1  0
  2 10  1  0
  3 11  1  0
  4 12  1  0
  5 13  1  0
  5 14  1  0
  7 15  1  0
  7 16  1  0
  9 17  1  0
M  END
