
     RDKit          3D

 17 16  0  0  0  0  0  0  0  0999 V2000
    3.1299   -0.9195   -0.5674 O   0  0  0  0  0  0  0  0  0  0  0  0
    2.6759   -0.0100    0.1341 C   0  0  0  0  0  0  0  0  0  0  0  0
    1.2657   -0.0907    0.5671 C   0  0  0  0  0  0  0  0  0  0  0  0
    0.3004    0.3575   -0.5187 C   0  0  0  0  0  0  0  0  0  0  0  0
   -1.0957    0.2165    0.0705 C   0  0  0  0  0  0  0  0  0  0  0  0
   -1.3733   -1.1939    0.4603 C   0  0  0  0  0  0  0  0  0  0  0  0
   -1.6788   -1.4862    1.6039 O   0  0  0  0  0  0  0  0  0  0  0  0
   -2.1486    0.7820   -0.7783 C   0  0  0  0  0  0  0  0  0  0  0  0
   -2.1184    1.9607   -1.0742 O   0  0  0  0  0  0  0  0  0  0  0  0
    3.3586    0.7932    0.3833 H   0  0  0  0  0  0  0  0  0  0  0  0
    1.0721   -1.1486    0.8410 H   0  0  0  0  0  0  0  0  0  0  0  0
    1.0594    0.5075    1.4838 H   0  0  0  0  0  0  0  0  0  0  0  0
    0.4513   -0.2486   -1.4122 H   0  0  0  0  0  0  0  0  0  0  0  0
    0.4525    1.4259   -0.7687 H   0  0  0  0  0  0  0  0  0  0  0  0
   -1.0684    0.8379    1.0142 H   0  0  0  0  0  0  0  0  0  0  0  0
   -1.3084   -1.9882   -0.2684 H   0  0  0  0  0  0  0  0  0  0  0  0
   -2.9741    0.2045   -1.1702 H   0  0  0  0  0  0  0  0  0  0  0  0
  1  2  2  0
  2  3  1  0
  3  4  1  0
  4  5  1  0
  5  6  1  0
  6  7  2  0
  5  8  1  0
  8  9  2  0
  2 10  1  0
  3 11  1  0
  3 12  1  0
  4 13  1  0
  4 14  1  0
  5 15  1  0
  6 16  1  0
  8 17  1  0
M  END
