
     RDKit          3D

 12 12  0  0  0  0  0  0  0  0999 V2000
   -2.4389   -0.0088   -0.4195 O   0  0  0  0  0  0  0  0  0  0  0  0
   -1.4377   -0.6602   -0.2048 C   0  0  0  0  0  0  0  0  0  0  0  0
   -0.3977   -0.0490    0.6586 C   0  0  0  0  0  0  0  0  0  0  0  0
    0.2113    1.1081   -0.1065 C   0  0  0  0  0  0  0  0  0  0  0  0
    1.0899    0.4177   -0.9767 O   0  0  0  0  0  0  0  0  0  0  0  0
    1.5787   -0.6450   -0.2313 C   0  0  0  0  0  0  0  0  0  0  0  0
    2.6424   -1.2826   -0.4229 O   0  0  0  0  0  0  0  0  0  0  0  0
    0.7110   -0.9430    0.8106 O   0  0  0  0  0  0  0  0  0  0  0  0
   -1.3323   -1.6309   -0.6308 H   0  0  0  0  0  0  0  0  0  0  0  0
   -0.7967    0.2444    1.6390 H   0  0  0  0  0  0  0  0  0  0  0  0
   -0.5878    1.6432   -0.6509 H   0  0  0  0  0  0  0  0  0  0  0  0
    0.7579    1.8059    0.5352 H   0  0  0  0  0  0  0  0  0  0  0  0
  1  2  2  0
  2  3  1  0
  3  4  1  0
  4  5  1  0
  5  6  1  0
  6  7  2  0
  6  8  1  0
  8  3  1  0
  2  9  1  0
  3 10  1  0
  4 11  1  0
  4 12  1  0
M  END
