
     RDKit          3D

 17 18  0  0  0  0  0  0  0  0999 V2000
    2.6641    0.9082   -1.1960 O   0  0  0  0  0  0  0  0  0  0  0  0
    2.6273    0.1314   -0.2731 C   0  0  0  0  0  0  0  0  0  0  0  0
    1.3292   -0.3510    0.2380 C   0  0  0  0  0  0  0  0  0  0  0  0
    0.1406   -0.4357   -0.6510 C   0  0  0  0  0  0  0  0  0  0  0  0
   -1.1326   -0.8797    0.0140 C   0  0  0  0  0  0  0  0  0  0  0  0
   -2.2515   -0.9458   -0.7860 O   0  0  0  0  0  0  0  0  0  0  0  0
   -1.0958    0.3960    0.8301 C   0  0  0  0  0  0  0  0  0  0  0  0
   -2.0180    1.3462    0.3536 O   0  0  0  0  0  0  0  0  0  0  0  0
    0.2736    0.7370    0.3390 C   0  0  0  0  0  0  0  0  0  0  0  0
    3.5402   -0.2075    0.1747 H   0  0  0  0  0  0  0  0  0  0  0  0
    1.3234   -1.0686    1.0918 H   0  0  0  0  0  0  0  0  0  0  0  0
    0.1881   -0.2171   -1.7156 H   0  0  0  0  0  0  0  0  0  0  0  0
   -1.0227   -1.7748    0.6636 H   0  0  0  0  0  0  0  0  0  0  0  0
   -2.3483   -1.8571   -1.1619 H   0  0  0  0  0  0  0  0  0  0  0  0
   -1.1327    0.2591    1.9178 H   0  0  0  0  0  0  0  0  0  0  0  0
   -1.5556    2.2340    0.2814 H   0  0  0  0  0  0  0  0  0  0  0  0
    0.4708    1.7253   -0.1206 H   0  0  0  0  0  0  0  0  0  0  0  0
  1  2  2  0
  2  3  1  0
  3  4  1  0
  4  5  1  0
  5  6  1  0
  5  7  1  0
  7  8  1  0
  7  9  1  0
  9  3  1  0
  9  4  1  0
  2 10  1  0
  3 11  1  0
  4 12  1  0
  5 13  1  0
  6 14  1  0
  7 15  1  0
  8 16  1  0
  9 17  1  0
M  END
