
     RDKit          3D

 13 13  0  0  0  0  0  0  0  0999 V2000
   -2.0368    1.9329    0.2001 O   0  0  0  0  0  0  0  0  0  0  0  0
   -1.7206    0.7864    0.4660 C   0  0  0  0  0  0  0  0  0  0  0  0
   -0.6474    0.1576   -0.3218 C   0  0  0  0  0  0  0  0  0  0  0  0
    0.6127    0.9458   -0.2978 C   0  0  0  0  0  0  0  0  0  0  0  0
    0.7305    2.2152   -0.2555 O   0  0  0  0  0  0  0  0  0  0  0  0
    1.6963   -0.0295   -0.3326 C   0  0  0  0  0  0  0  0  0  0  0  0
    1.2203   -1.2380    0.0009 C   0  0  0  0  0  0  0  0  0  0  0  0
   -0.2071   -1.1274    0.2749 C   0  0  0  0  0  0  0  0  0  0  0  0
   -0.9305   -1.9487    0.8916 O   0  0  0  0  0  0  0  0  0  0  0  0
   -2.2212    0.2523    1.2622 H   0  0  0  0  0  0  0  0  0  0  0  0
   -1.0260    0.0246   -1.3591 H   0  0  0  0  0  0  0  0  0  0  0  0
    2.7373    0.2020   -0.5932 H   0  0  0  0  0  0  0  0  0  0  0  0
    1.7924   -2.1731    0.0642 H   0  0  0  0  0  0  0  0  0  0  0  0
  1  2  2  0
  2  3  1  0
  3  4  1  0
  4  5  2  0
  4  6  1  0
  6  7  2  0
  7  8  1  0
  8  9  2  0
  8  3  1  0
  2 10  1  0
  3 11  1  0
  6 12  1  0
  7 13  1  0
M  END
