
     RDKit          3D

 19 20  0  0  0  0  0  0  0  0999 V2000
   -3.6369    0.3270    0.0362 O   0  0  0  0  0  0  0  0  0  0  0  0
   -2.5536   -0.1763    0.2499 C   0  0  0  0  0  0  0  0  0  0  0  0
   -1.3779    0.7457    0.3034 C   0  0  0  0  0  0  0  0  0  0  0  0
   -0.1840    0.0303    0.5579 C   0  0  0  0  0  0  0  0  0  0  0  0
    0.0838   -0.9770   -0.4892 C   0  0  0  0  0  0  0  0  0  0  0  0
    1.4241   -0.3726   -0.7389 C   0  0  0  0  0  0  0  0  0  0  0  0
    2.4625   -1.2299   -1.0065 O   0  0  0  0  0  0  0  0  0  0  0  0
    1.2008   -0.1371    0.7630 C   0  0  0  0  0  0  0  0  0  0  0  0
    0.7476    1.0704    1.1640 C   0  0  0  0  0  0  0  0  0  0  0  0
   -2.4362   -1.2378    0.3953 H   0  0  0  0  0  0  0  0  0  0  0  0
   -1.6990    1.5857    0.9779 H   0  0  0  0  0  0  0  0  0  0  0  0
   -1.3544    1.2330   -0.7163 H   0  0  0  0  0  0  0  0  0  0  0  0
    0.1760   -2.0140   -0.0686 H   0  0  0  0  0  0  0  0  0  0  0  0
   -0.5061   -1.0086   -1.4024 H   0  0  0  0  0  0  0  0  0  0  0  0
    1.3907    0.5677   -1.3261 H   0  0  0  0  0  0  0  0  0  0  0  0
    3.3228   -0.7504   -0.8145 H   0  0  0  0  0  0  0  0  0  0  0  0
    1.5463   -1.0043    1.3602 H   0  0  0  0  0  0  0  0  0  0  0  0
    0.4113    1.3481    2.2069 H   0  0  0  0  0  0  0  0  0  0  0  0
    0.9821    1.9999    0.5818 H   0  0  0  0  0  0  0  0  0  0  0  0
  1  2  2  0
  2  3  1  0
  3  4  1  0
  4  5  1  0
  5  6  1  0
  6  7  1  0
  6  8  1  0
  8  9  1  0
  8  4  1  0
  9  4  1  0
  2 10  1  0
  3 11  1  0
  3 12  1  0
  5 13  1  0
  5 14  1  0
  6 15  1  0
  7 16  1  0
  8 17  1  0
  9 18  1  0
  9 19  1  0
M  END
