
     RDKit          3D

 17 17  0  0  0  0  0  0  0  0999 V2000
   -0.3287    1.7151    1.1746 O   0  0  0  0  0  0  0  0  0  0  0  0
   -0.2815    1.7762   -0.0466 C   0  0  0  0  0  0  0  0  0  0  0  0
    0.1389    0.5312   -0.7560 C   0  0  0  0  0  0  0  0  0  0  0  0
    1.3050   -0.0636    0.0508 C   0  0  0  0  0  0  0  0  0  0  0  0
    1.8410   -1.1617   -0.5984 O   0  0  0  0  0  0  0  0  0  0  0  0
    0.5425   -0.5312    1.2628 C   0  0  0  0  0  0  0  0  0  0  0  0
   -0.7105   -0.8038    0.9236 C   0  0  0  0  0  0  0  0  0  0  0  0
   -0.8986   -0.5473   -0.5277 C   0  0  0  0  0  0  0  0  0  0  0  0
   -2.1814   -0.1353   -0.8421 O   0  0  0  0  0  0  0  0  0  0  0  0
   -0.5367    2.6978   -0.5587 H   0  0  0  0  0  0  0  0  0  0  0  0
    0.3951    0.6885   -1.8003 H   0  0  0  0  0  0  0  0  0  0  0  0
    2.0294    0.7138    0.3056 H   0  0  0  0  0  0  0  0  0  0  0  0
    2.7046   -0.9814   -1.0354 H   0  0  0  0  0  0  0  0  0  0  0  0
    0.9295   -0.6407    2.2782 H   0  0  0  0  0  0  0  0  0  0  0  0
   -1.5139   -1.1603    1.5615 H   0  0  0  0  0  0  0  0  0  0  0  0
   -0.5966   -1.4463   -1.1146 H   0  0  0  0  0  0  0  0  0  0  0  0
   -2.8379   -0.6509   -0.2772 H   0  0  0  0  0  0  0  0  0  0  0  0
  1  2  2  0
  2  3  1  0
  3  4  1  0
  4  5  1  0
  4  6  1  0
  6  7  2  0
  7  8  1  0
  8  9  1  0
  8  3  1  0
  2 10  1  0
  3 11  1  0
  4 12  1  0
  5 13  1  0
  6 14  1  0
  7 15  1  0
  8 16  1  0
  9 17  1  0
M  END
