
     RDKit          3D

 15 17  0  0  0  0  0  0  0  0999 V2000
    2.8081   -1.0277    0.0406 O   0  0  0  0  0  0  0  0  0  0  0  0
    2.2659   -0.0612    0.5462 C   0  0  0  0  0  0  0  0  0  0  0  0
    0.7842   -0.0381    0.5543 C   0  0  0  0  0  0  0  0  0  0  0  0
    0.1143    1.0382    1.1172 O   0  0  0  0  0  0  0  0  0  0  0  0
   -0.8369    1.0010    0.1077 C   0  0  0  0  0  0  0  0  0  0  0  0
   -1.8590   -0.0869    0.4429 C   0  0  0  0  0  0  0  0  0  0  0  0
   -1.2894   -1.2937    0.1410 O   0  0  0  0  0  0  0  0  0  0  0  0
    0.0386   -1.1175   -0.1664 C   0  0  0  0  0  0  0  0  0  0  0  0
    0.1273    0.2223   -0.7220 C   0  0  0  0  0  0  0  0  0  0  0  0
    2.8080    0.7694    0.9834 H   0  0  0  0  0  0  0  0  0  0  0  0
   -1.2293    1.9336   -0.2663 H   0  0  0  0  0  0  0  0  0  0  0  0
   -2.7275    0.1161   -0.2403 H   0  0  0  0  0  0  0  0  0  0  0  0
   -2.1658   -0.0128    1.4964 H   0  0  0  0  0  0  0  0  0  0  0  0
    0.5969   -1.9907   -0.4614 H   0  0  0  0  0  0  0  0  0  0  0  0
    0.5647    0.5481   -1.6349 H   0  0  0  0  0  0  0  0  0  0  0  0
  1  2  2  0
  2  3  1  0
  3  4  1  0
  4  5  1  0
  5  6  1  0
  6  7  1  0
  7  8  1  0
  8  9  1  0
  8  3  1  0
  9  3  1  0
  9  5  1  0
  2 10  1  0
  5 11  1  0
  6 12  1  0
  6 13  1  0
  8 14  1  0
  9 15  1  0
M  END
