
     RDKit          3D

 17 18  0  0  0  0  0  0  0  0999 V2000
   -1.7949   -1.7305   -0.8415 O   0  0  0  0  0  0  0  0  0  0  0  0
   -1.7741   -0.8523   -0.0110 C   0  0  0  0  0  0  0  0  0  0  0  0
   -0.4974   -0.3748    0.4995 C   0  0  0  0  0  0  0  0  0  0  0  0
    0.7119   -1.3047    0.4933 C   0  0  0  0  0  0  0  0  0  0  0  0
    1.2145   -1.0593   -0.7952 O   0  0  0  0  0  0  0  0  0  0  0  0
    1.3438    0.3442   -0.7641 C   0  0  0  0  0  0  0  0  0  0  0  0
    0.0489    0.8639   -0.2494 C   0  0  0  0  0  0  0  0  0  0  0  0
   -0.8066    1.4929   -1.1447 O   0  0  0  0  0  0  0  0  0  0  0  0
   -0.3083    0.9198    1.1697 C   0  0  0  0  0  0  0  0  0  0  0  0
   -2.7073   -0.4470    0.3286 H   0  0  0  0  0  0  0  0  0  0  0  0
    0.4212   -2.3486    0.6464 H   0  0  0  0  0  0  0  0  0  0  0  0
    1.4405   -0.9603    1.2597 H   0  0  0  0  0  0  0  0  0  0  0  0
    1.4442    0.6432   -1.8407 H   0  0  0  0  0  0  0  0  0  0  0  0
    2.2177    0.5793   -0.1606 H   0  0  0  0  0  0  0  0  0  0  0  0
   -0.3008    1.7335   -1.9728 H   0  0  0  0  0  0  0  0  0  0  0  0
   -1.1676    1.5409    1.4537 H   0  0  0  0  0  0  0  0  0  0  0  0
    0.5142    0.9600    1.9290 H   0  0  0  0  0  0  0  0  0  0  0  0
  1  2  2  0
  2  3  1  0
  3  4  1  0
  4  5  1  0
  5  6  1  0
  6  7  1  0
  7  8  1  0
  7  9  1  0
  7  3  1  0
  9  3  1  0
  2 10  1  0
  4 11  1  0
  4 12  1  0
  6 13  1  0
  6 14  1  0
  8 15  1  0
  9 16  1  0
  9 17  1  0
M  END
