
     RDKit          3D

 17 18  0  0  0  0  0  0  0  0999 V2000
    3.0283   -0.8835    0.6504 O   0  0  0  0  0  0  0  0  0  0  0  0
    2.3442    0.1537    0.7986 C   0  0  0  0  0  0  0  0  0  0  0  0
    0.9350    0.1494    0.4588 C   0  0  0  0  0  0  0  0  0  0  0  0
    0.1626    1.2176    0.5951 C   0  0  0  0  0  0  0  0  0  0  0  0
   -1.2681    1.0273    0.1978 C   0  0  0  0  0  0  0  0  0  0  0  0
   -1.4770   -0.3634   -0.3061 C   0  0  0  0  0  0  0  0  0  0  0  0
   -0.4898   -0.8181   -1.3232 C   0  0  0  0  0  0  0  0  0  0  0  0
    0.3068   -1.0745   -0.0608 C   0  0  0  0  0  0  0  0  0  0  0  0
   -0.9240   -1.2553    0.6116 O   0  0  0  0  0  0  0  0  0  0  0  0
    2.7628    1.0689    1.1748 H   0  0  0  0  0  0  0  0  0  0  0  0
    0.5094    2.1706    0.9630 H   0  0  0  0  0  0  0  0  0  0  0  0
   -1.5929    1.8189   -0.4787 H   0  0  0  0  0  0  0  0  0  0  0  0
   -1.8593    1.1487    1.1430 H   0  0  0  0  0  0  0  0  0  0  0  0
   -2.5259   -0.5645   -0.5799 H   0  0  0  0  0  0  0  0  0  0  0  0
   -0.7887   -1.7742   -1.7729 H   0  0  0  0  0  0  0  0  0  0  0  0
   -0.0695   -0.0561   -2.0005 H   0  0  0  0  0  0  0  0  0  0  0  0
    0.9461   -1.9655   -0.0712 H   0  0  0  0  0  0  0  0  0  0  0  0
  1  2  2  0
  2  3  1  0
  3  4  2  0
  4  5  1  0
  5  6  1  0
  6  7  1  0
  7  8  1  0
  8  9  1  0
  8  3  1  0
  9  6  1  0
  2 10  1  0
  4 11  1  0
  5 12  1  0
  5 13  1  0
  6 14  1  0
  7 15  1  0
  7 16  1  0
  8 17  1  0
M  END
