
     RDKit          3D

 19 19  0  0  0  0  0  0  0  0999 V2000
   -1.4711    2.6910    0.7559 O   0  0  0  0  0  0  0  0  0  0  0  0
   -0.4734    2.1779    0.2915 C   0  0  0  0  0  0  0  0  0  0  0  0
   -0.3477    0.7104    0.3723 C   0  0  0  0  0  0  0  0  0  0  0  0
   -1.2439    0.0029   -0.6507 C   0  0  0  0  0  0  0  0  0  0  0  0
   -1.1232   -1.4666   -0.3953 C   0  0  0  0  0  0  0  0  0  0  0  0
    0.1397   -1.9567   -0.3647 O   0  0  0  0  0  0  0  0  0  0  0  0
    1.0667   -1.2684    0.3519 C   0  0  0  0  0  0  0  0  0  0  0  0
    1.0524    0.2309    0.0279 C   0  0  0  0  0  0  0  0  0  0  0  0
    2.0322    0.8979    0.6976 O   0  0  0  0  0  0  0  0  0  0  0  0
    0.2698    2.8180   -0.1560 H   0  0  0  0  0  0  0  0  0  0  0  0
   -0.6019    0.2885    1.3455 H   0  0  0  0  0  0  0  0  0  0  0  0
   -2.2926    0.2897   -0.5517 H   0  0  0  0  0  0  0  0  0  0  0  0
   -0.8035    0.2528   -1.6477 H   0  0  0  0  0  0  0  0  0  0  0  0
   -1.6686   -1.9745   -1.2457 H   0  0  0  0  0  0  0  0  0  0  0  0
   -1.7458   -1.7059    0.5034 H   0  0  0  0  0  0  0  0  0  0  0  0
    2.0857   -1.6150    0.0078 H   0  0  0  0  0  0  0  0  0  0  0  0
    1.0375   -1.3878    1.4358 H   0  0  0  0  0  0  0  0  0  0  0  0
    1.1915    0.2891   -1.0756 H   0  0  0  0  0  0  0  0  0  0  0  0
    2.8961    0.7259    0.2979 H   0  0  0  0  0  0  0  0  0  0  0  0
  1  2  2  0
  2  3  1  0
  3  4  1  0
  4  5  1  0
  5  6  1  0
  6  7  1  0
  7  8  1  0
  8  9  1  0
  8  3  1  0
  2 10  1  0
  3 11  1  0
  4 12  1  0
  4 13  1  0
  5 14  1  0
  5 15  1  0
  7 16  1  0
  7 17  1  0
  8 18  1  0
  9 19  1  0
M  END
