
     RDKit          3D

 15 15  0  0  0  0  0  0  0  0999 V2000
   -0.4305    2.7399   -0.1767 O   0  0  0  0  0  0  0  0  0  0  0  0
   -0.8524    1.6370   -0.4348 C   0  0  0  0  0  0  0  0  0  0  0  0
   -0.4133    0.4728    0.3194 C   0  0  0  0  0  0  0  0  0  0  0  0
   -1.3255   -0.7224    0.1350 C   0  0  0  0  0  0  0  0  0  0  0  0
   -0.4938   -1.7677    0.6717 O   0  0  0  0  0  0  0  0  0  0  0  0
    0.8285   -1.4718    0.3905 C   0  0  0  0  0  0  0  0  0  0  0  0
    1.7662   -2.2693    0.5856 O   0  0  0  0  0  0  0  0  0  0  0  0
    0.9104   -0.0984   -0.1576 C   0  0  0  0  0  0  0  0  0  0  0  0
    1.9906    0.6149    0.3172 O   0  0  0  0  0  0  0  0  0  0  0  0
   -1.5612    1.5321   -1.2353 H   0  0  0  0  0  0  0  0  0  0  0  0
   -0.3128    0.6526    1.4073 H   0  0  0  0  0  0  0  0  0  0  0  0
   -2.2685   -0.6307    0.6821 H   0  0  0  0  0  0  0  0  0  0  0  0
   -1.5174   -0.9120   -0.9487 H   0  0  0  0  0  0  0  0  0  0  0  0
    0.9083   -0.1494   -1.2838 H   0  0  0  0  0  0  0  0  0  0  0  0
    2.7714    0.3723   -0.2721 H   0  0  0  0  0  0  0  0  0  0  0  0
  1  2  2  0
  2  3  1  0
  3  4  1  0
  4  5  1  0
  5  6  1  0
  6  7  2  0
  6  8  1  0
  8  9  1  0
  8  3  1  0
  2 10  1  0
  3 11  1  0
  4 12  1  0
  4 13  1  0
  8 14  1  0
  9 15  1  0
M  END
