
     RDKit          3D

 17 17  0  0  0  0  0  0  0  0999 V2000
    2.3866    1.6236   -0.0212 O   0  0  0  0  0  0  0  0  0  0  0  0
    2.7337    0.4896   -0.4888 C   0  0  0  0  0  0  0  0  0  0  0  0
    1.9159   -0.7020   -0.3127 C   0  0  0  0  0  0  0  0  0  0  0  0
    2.3035   -1.7867   -0.8157 O   0  0  0  0  0  0  0  0  0  0  0  0
    0.6470   -0.6640    0.4274 C   0  0  0  0  0  0  0  0  0  0  0  0
   -0.4031    0.1435   -0.2659 C   0  0  0  0  0  0  0  0  0  0  0  0
   -1.6890    0.1407    0.5722 C   0  0  0  0  0  0  0  0  0  0  0  0
   -2.2388    0.2551   -0.8283 C   0  0  0  0  0  0  0  0  0  0  0  0
   -1.1075   -0.4290   -1.2838 O   0  0  0  0  0  0  0  0  0  0  0  0
    3.6616    0.4864   -1.0126 H   0  0  0  0  0  0  0  0  0  0  0  0
    0.2562   -1.7123    0.6179 H   0  0  0  0  0  0  0  0  0  0  0  0
    0.8198   -0.2453    1.4342 H   0  0  0  0  0  0  0  0  0  0  0  0
   -0.1116    1.2133   -0.4345 H   0  0  0  0  0  0  0  0  0  0  0  0
   -1.8858   -0.8577    0.9719 H   0  0  0  0  0  0  0  0  0  0  0  0
   -1.7945    1.0162    1.2204 H   0  0  0  0  0  0  0  0  0  0  0  0
   -3.1882   -0.2841   -0.9579 H   0  0  0  0  0  0  0  0  0  0  0  0
   -2.3058    1.3126   -1.1140 H   0  0  0  0  0  0  0  0  0  0  0  0
  1  2  2  0
  2  3  1  0
  3  4  2  0
  3  5  1  0
  5  6  1  0
  6  7  1  0
  7  8  1  0
  8  9  1  0
  9  6  1  0
  2 10  1  0
  5 11  1  0
  5 12  1  0
  6 13  1  0
  7 14  1  0
  7 15  1  0
  8 16  1  0
  8 17  1  0
M  END
