
     RDKit          3D

 19 20  0  0  0  0  0  0  0  0999 V2000
    3.1800    0.9887    1.0339 O   0  0  0  0  0  0  0  0  0  0  0  0
    2.6284    0.1292    0.3042 C   0  0  0  0  0  0  0  0  0  0  0  0
    1.1944    0.0049    0.2552 C   0  0  0  0  0  0  0  0  0  0  0  0
    0.4102    0.7905    0.9757 C   0  0  0  0  0  0  0  0  0  0  0  0
   -1.0060    0.8683    0.5753 C   0  0  0  0  0  0  0  0  0  0  0  0
   -1.0857    0.7914   -0.9533 C   0  0  0  0  0  0  0  0  0  0  0  0
   -0.9200   -0.7234   -0.7603 C   0  0  0  0  0  0  0  0  0  0  0  0
    0.5315   -1.0091   -0.6046 C   0  0  0  0  0  0  0  0  0  0  0  0
   -1.5627   -0.5456    0.5997 C   0  0  0  0  0  0  0  0  0  0  0  0
    3.2644   -0.5151   -0.2864 H   0  0  0  0  0  0  0  0  0  0  0  0
    0.7746    1.3547    1.8201 H   0  0  0  0  0  0  0  0  0  0  0  0
   -1.6221    1.6339    1.0351 H   0  0  0  0  0  0  0  0  0  0  0  0
   -2.0940    1.0655   -1.3051 H   0  0  0  0  0  0  0  0  0  0  0  0
   -0.2291    1.2686   -1.4273 H   0  0  0  0  0  0  0  0  0  0  0  0
   -1.4540   -1.3313   -1.4808 H   0  0  0  0  0  0  0  0  0  0  0  0
    0.6769   -1.9918   -0.1205 H   0  0  0  0  0  0  0  0  0  0  0  0
    1.0150   -0.9814   -1.6037 H   0  0  0  0  0  0  0  0  0  0  0  0
   -1.0484   -1.2216    1.3279 H   0  0  0  0  0  0  0  0  0  0  0  0
   -2.6533   -0.5765    0.6149 H   0  0  0  0  0  0  0  0  0  0  0  0
  1  2  2  0
  2  3  1  0
  3  4  2  0
  4  5  1  0
  5  6  1  0
  6  7  1  0
  7  8  1  0
  7  9  1  0
  8  3  1  0
  9  5  1  0
  2 10  1  0
  4 11  1  0
  5 12  1  0
  6 13  1  0
  6 14  1  0
  7 15  1  0
  8 16  1  0
  8 17  1  0
  9 18  1  0
  9 19  1  0
M  END
