
     RDKit          3D

 19 20  0  0  0  0  0  0  0  0999 V2000
   -0.7587   -3.0001    0.0558 O   0  0  0  0  0  0  0  0  0  0  0  0
   -1.3505   -1.9328    0.1437 C   0  0  0  0  0  0  0  0  0  0  0  0
   -0.6937   -0.6904   -0.2940 C   0  0  0  0  0  0  0  0  0  0  0  0
    0.5058   -0.2495    0.4907 C   0  0  0  0  0  0  0  0  0  0  0  0
    1.7815   -0.0911   -0.3038 C   0  0  0  0  0  0  0  0  0  0  0  0
    2.7733    0.3234    0.6072 O   0  0  0  0  0  0  0  0  0  0  0  0
   -0.1501    1.0523    0.7931 C   0  0  0  0  0  0  0  0  0  0  0  0
   -0.9352    1.8125   -0.1994 C   0  0  0  0  0  0  0  0  0  0  0  0
   -1.4266    0.5167    0.2851 C   0  0  0  0  0  0  0  0  0  0  0  0
   -2.3573   -1.9655    0.5523 H   0  0  0  0  0  0  0  0  0  0  0  0
   -0.6168   -0.5510   -1.3925 H   0  0  0  0  0  0  0  0  0  0  0  0
    0.6332   -0.9157    1.3799 H   0  0  0  0  0  0  0  0  0  0  0  0
    1.6352    0.7740   -1.0080 H   0  0  0  0  0  0  0  0  0  0  0  0
    2.1016   -1.0054   -0.7985 H   0  0  0  0  0  0  0  0  0  0  0  0
    3.2311   -0.4913    0.9399 H   0  0  0  0  0  0  0  0  0  0  0  0
   -0.0248    1.4783    1.7891 H   0  0  0  0  0  0  0  0  0  0  0  0
   -0.6440    1.8473   -1.2766 H   0  0  0  0  0  0  0  0  0  0  0  0
   -1.4361    2.7122    0.1541 H   0  0  0  0  0  0  0  0  0  0  0  0
   -2.2678    0.3762    0.9541 H   0  0  0  0  0  0  0  0  0  0  0  0
  1  2  2  0
  2  3  1  0
  3  4  1  0
  4  5  1  0
  5  6  1  0
  4  7  1  0
  7  8  1  0
  8  9  1  0
  9  3  1  0
  9  7  1  0
  2 10  1  0
  3 11  1  0
  4 12  1  0
  5 13  1  0
  5 14  1  0
  6 15  1  0
  7 16  1  0
  8 17  1  0
  8 18  1  0
  9 19  1  0
M  END
