
     RDKit          3D

 15 15  0  0  0  0  0  0  0  0999 V2000
    3.2173    0.9906    0.0532 O   0  0  0  0  0  0  0  0  0  0  0  0
    3.0014   -0.2319   -0.0900 C   0  0  0  0  0  0  0  0  0  0  0  0
    1.6516   -0.7419   -0.2018 C   0  0  0  0  0  0  0  0  0  0  0  0
    1.4426   -1.9728   -0.3456 O   0  0  0  0  0  0  0  0  0  0  0  0
    0.4936    0.1305   -0.1538 C   0  0  0  0  0  0  0  0  0  0  0  0
    0.6827    1.3620   -0.0106 O   0  0  0  0  0  0  0  0  0  0  0  0
   -0.8780   -0.3525   -0.2635 C   0  0  0  0  0  0  0  0  0  0  0  0
   -1.8731    0.3339    0.6990 C   0  0  0  0  0  0  0  0  0  0  0  0
   -1.9798    0.4897   -0.7815 C   0  0  0  0  0  0  0  0  0  0  0  0
    3.8460   -0.8917   -0.1276 H   0  0  0  0  0  0  0  0  0  0  0  0
   -0.9753   -1.4497   -0.3881 H   0  0  0  0  0  0  0  0  0  0  0  0
   -2.5765   -0.3417    1.2370 H   0  0  0  0  0  0  0  0  0  0  0  0
   -1.4946    1.1845    1.2960 H   0  0  0  0  0  0  0  0  0  0  0  0
   -1.7883    1.5184   -1.1599 H   0  0  0  0  0  0  0  0  0  0  0  0
   -2.7697   -0.0273   -1.3580 H   0  0  0  0  0  0  0  0  0  0  0  0
  1  2  2  0
  2  3  1  0
  3  4  2  0
  3  5  1  0
  5  6  2  0
  5  7  1  0
  7  8  1  0
  8  9  1  0
  9  7  1  0
  2 10  1  0
  7 11  1  0
  8 12  1  0
  8 13  1  0
  9 14  1  0
  9 15  1  0
M  END
