
     RDKit          3D

 12 13  0  0  0  0  0  0  0  0999 V2000
    2.0642   -0.8827    1.7004 O   0  0  0  0  0  0  0  0  0  0  0  0
    1.3523   -0.0583    1.1661 C   0  0  0  0  0  0  0  0  0  0  0  0
    0.3585   -0.3744    0.1551 C   0  0  0  0  0  0  0  0  0  0  0  0
    0.0690    0.7387   -0.8667 C   0  0  0  0  0  0  0  0  0  0  0  0
   -1.3495    0.3333   -0.7414 C   0  0  0  0  0  0  0  0  0  0  0  0
   -2.3783    0.7139   -1.2206 O   0  0  0  0  0  0  0  0  0  0  0  0
   -0.9494   -0.7027    0.1951 C   0  0  0  0  0  0  0  0  0  0  0  0
    0.1051   -1.6245   -0.3140 O   0  0  0  0  0  0  0  0  0  0  0  0
    1.4791    0.9739    1.4743 H   0  0  0  0  0  0  0  0  0  0  0  0
    0.5486    0.4210   -1.8323 H   0  0  0  0  0  0  0  0  0  0  0  0
    0.3267    1.7434   -0.5179 H   0  0  0  0  0  0  0  0  0  0  0  0
   -1.6263   -1.2817    0.8019 H   0  0  0  0  0  0  0  0  0  0  0  0
  1  2  2  0
  2  3  1  0
  3  4  1  0
  4  5  1  0
  5  6  2  0
  5  7  1  0
  7  8  1  0
  7  3  1  0
  8  3  1  0
  2  9  1  0
  4 10  1  0
  4 11  1  0
  7 12  1  0
M  END
