
     RDKit          3D

 21 22  0  0  0  0  0  0  0  0999 V2000
    3.6830    0.7515    0.7696 O   0  0  0  0  0  0  0  0  0  0  0  0
    2.9089    0.1990    0.0128 C   0  0  0  0  0  0  0  0  0  0  0  0
    1.4676    0.1492    0.3187 C   0  0  0  0  0  0  0  0  0  0  0  0
    0.6025   -0.9263   -0.2419 C   0  0  0  0  0  0  0  0  0  0  0  0
   -0.6077   -1.4116    0.4803 C   0  0  0  0  0  0  0  0  0  0  0  0
   -1.4799   -0.3152    1.0099 C   0  0  0  0  0  0  0  0  0  0  0  0
   -1.8666    0.5422   -0.1890 C   0  0  0  0  0  0  0  0  0  0  0  0
   -0.6481    1.2100   -0.7167 C   0  0  0  0  0  0  0  0  0  0  0  0
    0.5297    0.3460   -0.9114 C   0  0  0  0  0  0  0  0  0  0  0  0
    3.2994   -0.2503   -0.8811 H   0  0  0  0  0  0  0  0  0  0  0  0
    1.1507    0.6311    1.2492 H   0  0  0  0  0  0  0  0  0  0  0  0
    1.1667   -1.7482   -0.7552 H   0  0  0  0  0  0  0  0  0  0  0  0
   -1.2320   -1.9838   -0.2658 H   0  0  0  0  0  0  0  0  0  0  0  0
   -0.3290   -2.1582    1.2539 H   0  0  0  0  0  0  0  0  0  0  0  0
   -1.0387    0.2676    1.8199 H   0  0  0  0  0  0  0  0  0  0  0  0
   -2.4237   -0.7957    1.3761 H   0  0  0  0  0  0  0  0  0  0  0  0
   -2.5843    1.3391    0.1253 H   0  0  0  0  0  0  0  0  0  0  0  0
   -2.3665   -0.1192   -0.9165 H   0  0  0  0  0  0  0  0  0  0  0  0
   -0.9153    1.7758   -1.6574 H   0  0  0  0  0  0  0  0  0  0  0  0
   -0.3687    2.0258    0.0114 H   0  0  0  0  0  0  0  0  0  0  0  0
    1.0520    0.4713   -1.8921 H   0  0  0  0  0  0  0  0  0  0  0  0
  1  2  2  0
  2  3  1  0
  3  4  1  0
  4  5  1  0
  5  6  1  0
  6  7  1  0
  7  8  1  0
  8  9  1  0
  9  3  1  0
  9  4  1  0
  2 10  1  0
  3 11  1  0
  4 12  1  0
  5 13  1  0
  5 14  1  0
  6 15  1  0
  6 16  1  0
  7 17  1  0
  7 18  1  0
  8 19  1  0
  8 20  1  0
  9 21  1  0
M  END
