
     RDKit          3D

 14 15  0  0  0  0  0  0  0  0999 V2000
   -2.7193    0.9909   -0.3582 O   0  0  0  0  0  0  0  0  0  0  0  0
   -1.9565    0.0512   -0.4430 C   0  0  0  0  0  0  0  0  0  0  0  0
   -0.5111    0.2503   -0.4307 C   0  0  0  0  0  0  0  0  0  0  0  0
    0.0152    0.6613    0.9185 C   0  0  0  0  0  0  0  0  0  0  0  0
    1.2892    0.3140    0.9376 C   0  0  0  0  0  0  0  0  0  0  0  0
    1.6137   -0.2978   -0.3323 C   0  0  0  0  0  0  0  0  0  0  0  0
    1.3998   -1.4336   -0.9258 O   0  0  0  0  0  0  0  0  0  0  0  0
    0.2467   -1.0507   -0.4667 C   0  0  0  0  0  0  0  0  0  0  0  0
   -2.3481   -0.9563   -0.5297 H   0  0  0  0  0  0  0  0  0  0  0  0
   -0.1380    1.0005   -1.1471 H   0  0  0  0  0  0  0  0  0  0  0  0
   -0.5639    1.1333    1.6699 H   0  0  0  0  0  0  0  0  0  0  0  0
    1.9467    0.4727    1.7703 H   0  0  0  0  0  0  0  0  0  0  0  0
    1.7754    0.5222   -1.1115 H   0  0  0  0  0  0  0  0  0  0  0  0
   -0.0498   -1.6581    0.4486 H   0  0  0  0  0  0  0  0  0  0  0  0
  1  2  2  0
  2  3  1  0
  3  4  1  0
  4  5  2  0
  5  6  1  0
  6  7  1  0
  7  8  1  0
  8  3  1  0
  8  6  1  0
  2  9  1  0
  3 10  1  0
  4 11  1  0
  5 12  1  0
  6 13  1  0
  8 14  1  0
M  END
