
     RDKit          3D

 16 17  0  0  0  0  0  0  0  0999 V2000
    2.8935    0.8884   -0.3940 O   0  0  0  0  0  0  0  0  0  0  0  0
    1.7399    0.7841   -0.7405 C   0  0  0  0  0  0  0  0  0  0  0  0
    0.8730   -0.2893   -0.1900 C   0  0  0  0  0  0  0  0  0  0  0  0
   -0.5277   -0.3145   -0.6934 C   0  0  0  0  0  0  0  0  0  0  0  0
   -1.4871    0.7877   -0.5923 C   0  0  0  0  0  0  0  0  0  0  0  0
   -1.5987   -0.3519    0.3976 C   0  0  0  0  0  0  0  0  0  0  0  0
    1.0745   -0.6981    1.2454 C   0  0  0  0  0  0  0  0  0  0  0  0
    1.4937   -1.4927    0.1659 O   0  0  0  0  0  0  0  0  0  0  0  0
    1.3449    1.4773   -1.4534 H   0  0  0  0  0  0  0  0  0  0  0  0
   -0.7049   -1.0690   -1.5195 H   0  0  0  0  0  0  0  0  0  0  0  0
   -2.2368    0.8808   -1.4039 H   0  0  0  0  0  0  0  0  0  0  0  0
   -1.1603    1.7852   -0.1991 H   0  0  0  0  0  0  0  0  0  0  0  0
   -1.3843   -0.0828    1.4266 H   0  0  0  0  0  0  0  0  0  0  0  0
   -2.4240   -1.0837    0.2786 H   0  0  0  0  0  0  0  0  0  0  0  0
    1.8380   -0.1238    1.8030 H   0  0  0  0  0  0  0  0  0  0  0  0
    0.2664   -1.0977    1.8690 H   0  0  0  0  0  0  0  0  0  0  0  0
  1  2  2  0
  2  3  1  0
  3  4  1  0
  4  5  1  0
  5  6  1  0
  3  7  1  0
  7  8  1  0
  8  3  1  0
  6  4  1  0
  2  9  1  0
  4 10  1  0
  5 11  1  0
  5 12  1  0
  6 13  1  0
  6 14  1  0
  7 15  1  0
  7 16  1  0
M  END
