
     RDKit          3D

 17 19  0  0  0  0  0  0  0  0999 V2000
    3.3276    0.6228   -1.2820 O   0  0  0  0  0  0  0  0  0  0  0  0
    2.6287    0.0821   -0.4430 C   0  0  0  0  0  0  0  0  0  0  0  0
    1.3880    0.7844    0.0514 C   0  0  0  0  0  0  0  0  0  0  0  0
    0.2424   -0.1313    0.2523 C   0  0  0  0  0  0  0  0  0  0  0  0
    0.3262   -1.1998    1.1344 O   0  0  0  0  0  0  0  0  0  0  0  0
   -0.2430   -1.2473   -0.2645 C   0  0  0  0  0  0  0  0  0  0  0  0
   -1.6831   -0.8176   -0.1716 C   0  0  0  0  0  0  0  0  0  0  0  0
   -2.0527    0.4567   -0.8256 C   0  0  0  0  0  0  0  0  0  0  0  0
   -1.1265    0.5587    0.3262 C   0  0  0  0  0  0  0  0  0  0  0  0
    2.8095   -0.8833    0.0032 H   0  0  0  0  0  0  0  0  0  0  0  0
    1.6412    1.2551    1.0276 H   0  0  0  0  0  0  0  0  0  0  0  0
    1.1644    1.6214   -0.6505 H   0  0  0  0  0  0  0  0  0  0  0  0
    0.0506   -2.2076   -0.6692 H   0  0  0  0  0  0  0  0  0  0  0  0
   -2.3637   -1.3226    0.5620 H   0  0  0  0  0  0  0  0  0  0  0  0
   -3.0469    0.9258   -0.6481 H   0  0  0  0  0  0  0  0  0  0  0  0
   -1.6014    0.6435   -1.8305 H   0  0  0  0  0  0  0  0  0  0  0  0
   -1.4612    0.8591    1.3429 H   0  0  0  0  0  0  0  0  0  0  0  0
  1  2  2  0
  2  3  1  0
  3  4  1  0
  4  5  1  0
  5  6  1  0
  6  7  1  0
  7  8  1  0
  8  9  1  0
  6  4  1  0
  9  7  1  0
  9  4  1  0
  2 10  1  0
  3 11  1  0
  3 12  1  0
  6 13  1  0
  7 14  1  0
  8 15  1  0
  8 16  1  0
  9 17  1  0
M  END
