
     RDKit          3D

 14 13  0  0  0  0  0  0  0  0999 V2000
   -1.2744    2.4230    0.1744 O   0  0  0  0  0  0  0  0  0  0  0  0
   -1.8266    1.5268   -0.4388 C   0  0  0  0  0  0  0  0  0  0  0  0
   -1.7192    0.1224    0.0031 C   0  0  0  0  0  0  0  0  0  0  0  0
   -2.3976   -0.7624   -0.7943 O   0  0  0  0  0  0  0  0  0  0  0  0
   -0.3050   -0.2239    0.0534 C   0  0  0  0  0  0  0  0  0  0  0  0
    0.8720   -0.4973    0.0798 C   0  0  0  0  0  0  0  0  0  0  0  0
    2.3178   -0.8099    0.1100 C   0  0  0  0  0  0  0  0  0  0  0  0
    2.8135   -0.2862    1.2932 O   0  0  0  0  0  0  0  0  0  0  0  0
   -2.3917    1.8259   -1.3148 H   0  0  0  0  0  0  0  0  0  0  0  0
   -2.1916    0.0739    1.0231 H   0  0  0  0  0  0  0  0  0  0  0  0
   -2.6366   -1.5930   -0.3525 H   0  0  0  0  0  0  0  0  0  0  0  0
    2.4894   -1.9105    0.0828 H   0  0  0  0  0  0  0  0  0  0  0  0
    2.8102   -0.3633   -0.7605 H   0  0  0  0  0  0  0  0  0  0  0  0
    3.4396    0.4744    1.1244 H   0  0  0  0  0  0  0  0  0  0  0  0
  1  2  2  0
  2  3  1  0
  3  4  1  0
  3  5  1  0
  5  6  3  0
  6  7  1  0
  7  8  1  0
  2  9  1  0
  3 10  1  0
  4 11  1  0
  7 12  1  0
  7 13  1  0
  8 14  1  0
M  END
