
     RDKit          3D

 15 14  0  0  0  0  0  0  0  0999 V2000
    4.4343    0.8749   -1.0611 O   0  0  0  0  0  0  0  0  0  0  0  0
    3.5456    0.7377   -0.1759 C   0  0  0  0  0  0  0  0  0  0  0  0
    2.2171    0.2823   -0.4827 C   0  0  0  0  0  0  0  0  0  0  0  0
    1.0866   -0.1110   -0.7231 C   0  0  0  0  0  0  0  0  0  0  0  0
   -0.2544   -0.5647   -1.0020 C   0  0  0  0  0  0  0  0  0  0  0  0
   -1.2478   -0.1346    0.0856 C   0  0  0  0  0  0  0  0  0  0  0  0
   -1.2947    1.2347    0.1974 O   0  0  0  0  0  0  0  0  0  0  0  0
   -2.5713   -0.6453   -0.3454 C   0  0  0  0  0  0  0  0  0  0  0  0
   -3.4635    0.1593   -0.5308 O   0  0  0  0  0  0  0  0  0  0  0  0
    3.8061    0.9738    0.8409 H   0  0  0  0  0  0  0  0  0  0  0  0
   -0.6363   -0.2267   -1.9864 H   0  0  0  0  0  0  0  0  0  0  0  0
   -0.2392   -1.6893   -0.9376 H   0  0  0  0  0  0  0  0  0  0  0  0
   -0.8929   -0.6232    1.0164 H   0  0  0  0  0  0  0  0  0  0  0  0
   -1.7419    1.4507    1.0535 H   0  0  0  0  0  0  0  0  0  0  0  0
   -2.7477   -1.7187   -0.4949 H   0  0  0  0  0  0  0  0  0  0  0  0
  1  2  2  0
  2  3  1  0
  3  4  3  0
  4  5  1  0
  5  6  1  0
  6  7  1  0
  6  8  1  0
  8  9  2  0
  2 10  1  0
  5 11  1  0
  5 12  1  0
  6 13  1  0
  7 14  1  0
  8 15  1  0
M  END
