
     RDKit          3D

 19 20  0  0  0  0  0  0  0  0999 V2000
    3.1030    1.3850    0.6056 O   0  0  0  0  0  0  0  0  0  0  0  0
    2.5680    0.3041    0.5208 C   0  0  0  0  0  0  0  0  0  0  0  0
    1.3746    0.1440   -0.2915 C   0  0  0  0  0  0  0  0  0  0  0  0
    0.8485   -1.2682   -0.3285 C   0  0  0  0  0  0  0  0  0  0  0  0
   -0.2049   -1.1582    0.5860 O   0  0  0  0  0  0  0  0  0  0  0  0
   -0.9088   -0.0428    0.3284 C   0  0  0  0  0  0  0  0  0  0  0  0
   -2.2155   -0.6405    0.2707 C   0  0  0  0  0  0  0  0  0  0  0  0
   -2.0893    0.6832    0.0200 C   0  0  0  0  0  0  0  0  0  0  0  0
    0.1494    0.8828    0.2765 C   0  0  0  0  0  0  0  0  0  0  0  0
    2.9945   -0.5235    1.0561 H   0  0  0  0  0  0  0  0  0  0  0  0
    1.5872    0.4454   -1.3239 H   0  0  0  0  0  0  0  0  0  0  0  0
    1.6038   -1.9742    0.0186 H   0  0  0  0  0  0  0  0  0  0  0  0
    0.4315   -1.5061   -1.3326 H   0  0  0  0  0  0  0  0  0  0  0  0
   -2.7068   -0.9970    1.2295 H   0  0  0  0  0  0  0  0  0  0  0  0
   -2.5311   -1.3469   -0.5623 H   0  0  0  0  0  0  0  0  0  0  0  0
   -2.1908    1.1132   -1.0238 H   0  0  0  0  0  0  0  0  0  0  0  0
   -2.4262    1.4768    0.7572 H   0  0  0  0  0  0  0  0  0  0  0  0
    0.1319    1.8270   -0.2967 H   0  0  0  0  0  0  0  0  0  0  0  0
    0.4808    1.1961    1.3133 H   0  0  0  0  0  0  0  0  0  0  0  0
  1  2  2  0
  2  3  1  0
  3  4  1  0
  4  5  1  0
  5  6  1  0
  6  7  1  0
  7  8  1  0
  6  9  1  0
  9  3  1  0
  8  6  1  0
  2 10  1  0
  3 11  1  0
  4 12  1  0
  4 13  1  0
  7 14  1  0
  7 15  1  0
  8 16  1  0
  8 17  1  0
  9 18  1  0
  9 19  1  0
M  END
