
     RDKit          3D

 15 15  0  0  0  0  0  0  0  0999 V2000
    3.1700    1.6056   -0.0319 O   0  0  0  0  0  0  0  0  0  0  0  0
    3.1269    0.5493   -0.7169 C   0  0  0  0  0  0  0  0  0  0  0  0
    1.8921   -0.2165   -0.8386 C   0  0  0  0  0  0  0  0  0  0  0  0
    1.8526   -1.2575   -1.5145 O   0  0  0  0  0  0  0  0  0  0  0  0
    0.7654    0.2149   -0.2025 O   0  0  0  0  0  0  0  0  0  0  0  0
   -0.4898   -0.4418   -0.2458 C   0  0  0  0  0  0  0  0  0  0  0  0
   -1.6569    0.5432   -0.3759 C   0  0  0  0  0  0  0  0  0  0  0  0
   -1.4000   -0.2461    0.8952 C   0  0  0  0  0  0  0  0  0  0  0  0
   -2.4147   -1.1596    1.1802 O   0  0  0  0  0  0  0  0  0  0  0  0
    4.0473    0.2554   -1.1978 H   0  0  0  0  0  0  0  0  0  0  0  0
   -0.5810   -1.3812   -0.8383 H   0  0  0  0  0  0  0  0  0  0  0  0
   -1.4695    1.6108   -0.2884 H   0  0  0  0  0  0  0  0  0  0  0  0
   -2.4999    0.2704   -1.0286 H   0  0  0  0  0  0  0  0  0  0  0  0
   -1.0626    0.3107    1.8076 H   0  0  0  0  0  0  0  0  0  0  0  0
   -3.2798   -0.6576    1.1488 H   0  0  0  0  0  0  0  0  0  0  0  0
  1  2  2  0
  2  3  1  0
  3  4  2  0
  3  5  1  0
  5  6  1  0
  6  7  1  0
  7  8  1  0
  8  9  1  0
  8  6  1  0
  2 10  1  0
  6 11  1  0
  7 12  1  0
  7 13  1  0
  8 14  1  0
  9 15  1  0
M  END
