
     RDKit          3D

 12 13  0  0  0  0  0  0  0  0999 V2000
   -2.2323    0.9886   -0.6131 O   0  0  0  0  0  0  0  0  0  0  0  0
   -1.0642    1.1441   -0.3401 C   0  0  0  0  0  0  0  0  0  0  0  0
   -0.1945   -0.0131   -0.2064 C   0  0  0  0  0  0  0  0  0  0  0  0
    1.2368   -0.0032   -0.5601 C   0  0  0  0  0  0  0  0  0  0  0  0
    0.7956   -0.2097    0.8427 C   0  0  0  0  0  0  0  0  0  0  0  0
    0.2282   -1.4518    1.2046 O   0  0  0  0  0  0  0  0  0  0  0  0
   -0.7618   -1.2878    0.2469 C   0  0  0  0  0  0  0  0  0  0  0  0
   -1.7463   -1.9696   -0.0869 O   0  0  0  0  0  0  0  0  0  0  0  0
   -0.6863    2.1399   -0.2001 H   0  0  0  0  0  0  0  0  0  0  0  0
    1.7100    0.9930   -0.7494 H   0  0  0  0  0  0  0  0  0  0  0  0
    1.6468   -0.8511   -1.1447 H   0  0  0  0  0  0  0  0  0  0  0  0
    1.0680    0.5207    1.6065 H   0  0  0  0  0  0  0  0  0  0  0  0
  1  2  2  0
  2  3  1  0
  3  4  1  0
  4  5  1  0
  5  6  1  0
  6  7  1  0
  7  8  2  0
  5  3  1  0
  7  3  1  0
  2  9  1  0
  4 10  1  0
  4 11  1  0
  5 12  1  0
M  END
