
     RDKit          3D

 16 16  0  0  0  0  0  0  0  0999 V2000
    2.3462    0.2527   -1.3911 O   0  0  0  0  0  0  0  0  0  0  0  0
    1.1819    0.3807   -1.1077 C   0  0  0  0  0  0  0  0  0  0  0  0
    0.6499   -0.3275    0.0916 C   0  0  0  0  0  0  0  0  0  0  0  0
    1.6383   -1.0514    0.7092 O   0  0  0  0  0  0  0  0  0  0  0  0
   -0.5571   -1.1808   -0.2783 C   0  0  0  0  0  0  0  0  0  0  0  0
   -1.5723   -0.0937   -0.4971 C   0  0  0  0  0  0  0  0  0  0  0  0
   -1.2681    0.9570    0.2580 C   0  0  0  0  0  0  0  0  0  0  0  0
   -0.0376    0.6467    1.0280 C   0  0  0  0  0  0  0  0  0  0  0  0
    0.5414    1.0067   -1.7269 H   0  0  0  0  0  0  0  0  0  0  0  0
    2.2697   -0.4093    1.1213 H   0  0  0  0  0  0  0  0  0  0  0  0
   -0.3936   -1.7937   -1.1634 H   0  0  0  0  0  0  0  0  0  0  0  0
   -0.8332   -1.7487    0.6294 H   0  0  0  0  0  0  0  0  0  0  0  0
   -2.4011   -0.1750   -1.1610 H   0  0  0  0  0  0  0  0  0  0  0  0
   -1.7964    1.8792    0.3226 H   0  0  0  0  0  0  0  0  0  0  0  0
    0.5799    1.5409    1.2293 H   0  0  0  0  0  0  0  0  0  0  0  0
   -0.3478    0.1162    1.9358 H   0  0  0  0  0  0  0  0  0  0  0  0
  1  2  2  0
  2  3  1  0
  3  4  1  0
  3  5  1  0
  5  6  1  0
  6  7  2  0
  7  8  1  0
  8  3  1  0
  2  9  1  0
  4 10  1  0
  5 11  1  0
  5 12  1  0
  6 13  1  0
  7 14  1  0
  8 15  1  0
  8 16  1  0
M  END
