
     RDKit          3D

 15 16  0  0  0  0  0  0  0  0999 V2000
   -2.3773   -0.8133    0.1251 O   0  0  0  0  0  0  0  0  0  0  0  0
   -1.7618   -0.0366   -0.5842 C   0  0  0  0  0  0  0  0  0  0  0  0
   -0.9788    1.0413    0.0624 C   0  0  0  0  0  0  0  0  0  0  0  0
    0.4227    0.6590    0.4146 C   0  0  0  0  0  0  0  0  0  0  0  0
    1.3004    0.2465   -0.7068 C   0  0  0  0  0  0  0  0  0  0  0  0
    1.8593    0.8557   -1.5910 O   0  0  0  0  0  0  0  0  0  0  0  0
    1.2349   -1.1685   -0.3412 C   0  0  0  0  0  0  0  0  0  0  0  0
    0.0522   -1.7279    0.1132 O   0  0  0  0  0  0  0  0  0  0  0  0
    0.5019   -0.7398    0.9376 C   0  0  0  0  0  0  0  0  0  0  0  0
   -1.8205   -0.1768   -1.6579 H   0  0  0  0  0  0  0  0  0  0  0  0
   -1.0377    1.9973   -0.5079 H   0  0  0  0  0  0  0  0  0  0  0  0
   -1.5047    1.2692    1.0337 H   0  0  0  0  0  0  0  0  0  0  0  0
    0.8978    1.3695    1.1331 H   0  0  0  0  0  0  0  0  0  0  0  0
    2.1072   -1.8115   -0.2705 H   0  0  0  0  0  0  0  0  0  0  0  0
    1.1043   -0.9641    1.8397 H   0  0  0  0  0  0  0  0  0  0  0  0
  1  2  2  0
  2  3  1  0
  3  4  1  0
  4  5  1  0
  5  6  2  0
  5  7  1  0
  7  8  1  0
  8  9  1  0
  9  4  1  0
  9  7  1  0
  2 10  1  0
  3 11  1  0
  3 12  1  0
  4 13  1  0
  7 14  1  0
  9 15  1  0
M  END
