
     RDKit          3D

 18 17  0  0  0  0  0  0  0  0999 V2000
   -3.5536    0.9369   -1.1194 O   0  0  0  0  0  0  0  0  0  0  0  0
   -2.3969    0.7767   -0.8209 C   0  0  0  0  0  0  0  0  0  0  0  0
   -2.0580    0.3395    0.5465 C   0  0  0  0  0  0  0  0  0  0  0  0
   -0.7175    0.1885    0.7765 O   0  0  0  0  0  0  0  0  0  0  0  0
   -0.1205   -0.7545   -0.0561 C   0  0  0  0  0  0  0  0  0  0  0  0
    1.3399   -0.9146    0.1995 C   0  0  0  0  0  0  0  0  0  0  0  0
    2.1182    0.3601   -0.0037 C   0  0  0  0  0  0  0  0  0  0  0  0
    1.9458    0.7694   -1.3275 O   0  0  0  0  0  0  0  0  0  0  0  0
   -1.6279    0.9510   -1.5432 H   0  0  0  0  0  0  0  0  0  0  0  0
   -2.6028   -0.6074    0.8284 H   0  0  0  0  0  0  0  0  0  0  0  0
   -2.4138    1.1511    1.2433 H   0  0  0  0  0  0  0  0  0  0  0  0
   -0.6092   -1.7312    0.1437 H   0  0  0  0  0  0  0  0  0  0  0  0
   -0.2783   -0.5178   -1.1187 H   0  0  0  0  0  0  0  0  0  0  0  0
    1.7345   -1.6531   -0.5254 H   0  0  0  0  0  0  0  0  0  0  0  0
    1.4855   -1.3143    1.2221 H   0  0  0  0  0  0  0  0  0  0  0  0
    1.7484    1.1700    0.6524 H   0  0  0  0  0  0  0  0  0  0  0  0
    3.1870    0.1166    0.1692 H   0  0  0  0  0  0  0  0  0  0  0  0
    2.8192    0.7331   -1.8227 H   0  0  0  0  0  0  0  0  0  0  0  0
  1  2  2  0
  2  3  1  0
  3  4  1  0
  4  5  1  0
  5  6  1  0
  6  7  1  0
  7  8  1  0
  2  9  1  0
  3 10  1  0
  3 11  1  0
  5 12  1  0
  5 13  1  0
  6 14  1  0
  6 15  1  0
  7 16  1  0
  7 17  1  0
  8 18  1  0
M  END
