
     RDKit          3D

 19 20  0  0  0  0  0  0  0  0999 V2000
    2.6219   -0.3790   -0.6803 O   0  0  0  0  0  0  0  0  0  0  0  0
    2.2288    0.0731    0.3961 C   0  0  0  0  0  0  0  0  0  0  0  0
    0.7796    0.3154    0.6633 C   0  0  0  0  0  0  0  0  0  0  0  0
    0.2592    1.5112   -0.0405 C   0  0  0  0  0  0  0  0  0  0  0  0
   -0.9880    1.3976   -0.5800 O   0  0  0  0  0  0  0  0  0  0  0  0
   -1.4797    0.1321   -0.7047 C   0  0  0  0  0  0  0  0  0  0  0  0
   -0.4452   -0.8852   -1.1523 C   0  0  0  0  0  0  0  0  0  0  0  0
   -0.0163   -0.9173    0.3194 C   0  0  0  0  0  0  0  0  0  0  0  0
   -1.4739   -0.5955    0.6462 C   0  0  0  0  0  0  0  0  0  0  0  0
    3.0072    0.2840    1.1387 H   0  0  0  0  0  0  0  0  0  0  0  0
    0.6963    0.4325    1.7833 H   0  0  0  0  0  0  0  0  0  0  0  0
    0.9961    1.8478   -0.8267 H   0  0  0  0  0  0  0  0  0  0  0  0
    0.2495    2.3650    0.6991 H   0  0  0  0  0  0  0  0  0  0  0  0
   -2.4170    0.0866   -1.2515 H   0  0  0  0  0  0  0  0  0  0  0  0
   -0.9632   -1.8307   -1.4096 H   0  0  0  0  0  0  0  0  0  0  0  0
    0.3068   -0.5279   -1.8480 H   0  0  0  0  0  0  0  0  0  0  0  0
    0.3516   -1.8701    0.6792 H   0  0  0  0  0  0  0  0  0  0  0  0
   -1.6145    0.0607    1.5131 H   0  0  0  0  0  0  0  0  0  0  0  0
   -2.0992   -1.5001    0.6553 H   0  0  0  0  0  0  0  0  0  0  0  0
  1  2  2  0
  2  3  1  0
  3  4  1  0
  4  5  1  0
  5  6  1  0
  6  7  1  0
  7  8  1  0
  8  9  1  0
  8  3  1  0
  9  6  1  0
  2 10  1  0
  3 11  1  0
  4 12  1  0
  4 13  1  0
  6 14  1  0
  7 15  1  0
  7 16  1  0
  8 17  1  0
  9 18  1  0
  9 19  1  0
M  END
