
     RDKit          3D

 17 17  0  0  0  0  0  0  0  0999 V2000
    3.1800   -0.5543   -0.0105 O   0  0  0  0  0  0  0  0  0  0  0  0
    2.1258   -1.2280    0.1277 C   0  0  0  0  0  0  0  0  0  0  0  0
    0.8094   -0.6416   -0.1011 C   0  0  0  0  0  0  0  0  0  0  0  0
   -0.3437   -1.2721    0.0202 C   0  0  0  0  0  0  0  0  0  0  0  0
   -1.4722   -0.3534   -0.2930 C   0  0  0  0  0  0  0  0  0  0  0  0
   -2.5324   -0.4888    0.5734 O   0  0  0  0  0  0  0  0  0  0  0  0
   -0.8455    1.0120   -0.0614 C   0  0  0  0  0  0  0  0  0  0  0  0
    0.5782    0.7677   -0.5086 C   0  0  0  0  0  0  0  0  0  0  0  0
    1.3971    1.6629    0.1548 O   0  0  0  0  0  0  0  0  0  0  0  0
    2.2596   -2.2601    0.4245 H   0  0  0  0  0  0  0  0  0  0  0  0
   -0.4971   -2.3041    0.3030 H   0  0  0  0  0  0  0  0  0  0  0  0
   -1.8235   -0.4564   -1.3236 H   0  0  0  0  0  0  0  0  0  0  0  0
   -2.3111   -0.2727    1.5113 H   0  0  0  0  0  0  0  0  0  0  0  0
   -0.8427    1.1674    1.0355 H   0  0  0  0  0  0  0  0  0  0  0  0
   -1.3496    1.8028   -0.6284 H   0  0  0  0  0  0  0  0  0  0  0  0
    0.6977    0.9022   -1.6026 H   0  0  0  0  0  0  0  0  0  0  0  0
    0.9700    2.5166    0.3788 H   0  0  0  0  0  0  0  0  0  0  0  0
  1  2  2  0
  2  3  1  0
  3  4  2  0
  4  5  1  0
  5  6  1  0
  5  7  1  0
  7  8  1  0
  8  9  1  0
  8  3  1  0
  2 10  1  0
  4 11  1  0
  5 12  1  0
  6 13  1  0
  7 14  1  0
  7 15  1  0
  8 16  1  0
  9 17  1  0
M  END
