
     RDKit          3D

 17 18  0  0  0  0  0  0  0  0999 V2000
    1.9602   -0.3336    1.5764 O   0  0  0  0  0  0  0  0  0  0  0  0
    2.1264   -0.1847    0.3735 C   0  0  0  0  0  0  0  0  0  0  0  0
    0.9371   -0.4050   -0.5226 C   0  0  0  0  0  0  0  0  0  0  0  0
    1.3738   -0.9386   -1.7509 O   0  0  0  0  0  0  0  0  0  0  0  0
   -0.3048   -0.9063   -0.0344 C   0  0  0  0  0  0  0  0  0  0  0  0
   -1.7186   -0.4254   -0.3287 C   0  0  0  0  0  0  0  0  0  0  0  0
   -1.2212    0.7650    0.4949 C   0  0  0  0  0  0  0  0  0  0  0  0
   -0.9912    0.5060    1.8228 O   0  0  0  0  0  0  0  0  0  0  0  0
   -0.0741    0.5950   -0.4583 C   0  0  0  0  0  0  0  0  0  0  0  0
    3.0999    0.0857   -0.0174 H   0  0  0  0  0  0  0  0  0  0  0  0
    2.0604   -0.2825   -2.0668 H   0  0  0  0  0  0  0  0  0  0  0  0
   -0.2661   -1.0974    1.0706 H   0  0  0  0  0  0  0  0  0  0  0  0
   -1.8525   -0.1510   -1.3811 H   0  0  0  0  0  0  0  0  0  0  0  0
   -2.5009   -0.9833    0.1786 H   0  0  0  0  0  0  0  0  0  0  0  0
   -1.7692    1.6993    0.3480 H   0  0  0  0  0  0  0  0  0  0  0  0
   -0.3835    1.2144    2.1760 H   0  0  0  0  0  0  0  0  0  0  0  0
   -0.4759    0.8424   -1.4805 H   0  0  0  0  0  0  0  0  0  0  0  0
  1  2  2  0
  2  3  1  0
  3  4  1  0
  3  5  1  0
  5  6  1  0
  6  7  1  0
  7  8  1  0
  7  9  1  0
  9  3  1  0
  9  5  1  0
  2 10  1  0
  4 11  1  0
  5 12  1  0
  6 13  1  0
  6 14  1  0
  7 15  1  0
  8 16  1  0
  9 17  1  0
M  END
