
     RDKit          3D

 12 12  0  0  0  0  0  0  0  0999 V2000
    2.2715    0.1133    0.8785 O   0  0  0  0  0  0  0  0  0  0  0  0
    1.4112   -0.5930    0.4090 C   0  0  0  0  0  0  0  0  0  0  0  0
    0.3684   -0.0089   -0.4158 C   0  0  0  0  0  0  0  0  0  0  0  0
   -0.9996   -0.6372   -0.3575 C   0  0  0  0  0  0  0  0  0  0  0  0
   -1.5246    0.6668   -0.5232 O   0  0  0  0  0  0  0  0  0  0  0  0
   -0.4423    1.1114    0.2323 C   0  0  0  0  0  0  0  0  0  0  0  0
    1.4301   -1.6458    0.6089 H   0  0  0  0  0  0  0  0  0  0  0  0
    0.6213    0.2613   -1.4579 H   0  0  0  0  0  0  0  0  0  0  0  0
   -1.3193   -1.0143    0.6201 H   0  0  0  0  0  0  0  0  0  0  0  0
   -1.1515   -1.2992   -1.2254 H   0  0  0  0  0  0  0  0  0  0  0  0
   -0.6549    0.9648    1.2994 H   0  0  0  0  0  0  0  0  0  0  0  0
   -0.0101    2.0810   -0.0683 H   0  0  0  0  0  0  0  0  0  0  0  0
  1  2  2  0
  2  3  1  0
  3  4  1  0
  4  5  1  0
  5  6  1  0
  6  3  1  0
  2  7  1  0
  3  8  1  0
  4  9  1  0
  4 10  1  0
  6 11  1  0
  6 12  1  0
M  END
