
     RDKit          3D

 15 15  0  0  0  0  0  0  0  0999 V2000
   -2.8423   -0.2611    0.5810 O   0  0  0  0  0  0  0  0  0  0  0  0
   -1.8748   -0.5201   -0.0879 C   0  0  0  0  0  0  0  0  0  0  0  0
   -0.5657    0.1022    0.2421 C   0  0  0  0  0  0  0  0  0  0  0  0
   -0.6570    0.9390    1.3370 O   0  0  0  0  0  0  0  0  0  0  0  0
    0.0767    0.7599   -0.9495 C   0  0  0  0  0  0  0  0  0  0  0  0
    1.5230    0.6479   -0.6694 C   0  0  0  0  0  0  0  0  0  0  0  0
    1.7139   -0.3378    0.2021 C   0  0  0  0  0  0  0  0  0  0  0  0
    0.4394   -0.9399    0.5588 C   0  0  0  0  0  0  0  0  0  0  0  0
    0.2685   -2.0810    1.0246 O   0  0  0  0  0  0  0  0  0  0  0  0
   -1.9981   -1.2068   -0.9167 H   0  0  0  0  0  0  0  0  0  0  0  0
   -0.6542    0.3628    2.1428 H   0  0  0  0  0  0  0  0  0  0  0  0
   -0.1562    0.1049   -1.8339 H   0  0  0  0  0  0  0  0  0  0  0  0
   -0.2549    1.7989   -1.1085 H   0  0  0  0  0  0  0  0  0  0  0  0
    2.2883    1.2831   -1.1181 H   0  0  0  0  0  0  0  0  0  0  0  0
    2.6934   -0.6519    0.5955 H   0  0  0  0  0  0  0  0  0  0  0  0
  1  2  2  0
  2  3  1  0
  3  4  1  0
  3  5  1  0
  5  6  1  0
  6  7  2  0
  7  8  1  0
  8  9  2  0
  8  3  1  0
  2 10  1  0
  4 11  1  0
  5 12  1  0
  5 13  1  0
  6 14  1  0
  7 15  1  0
M  END
