
     RDKit          3D

 16 16  0  0  0  0  0  0  0  0999 V2000
    1.3576    2.0178   -0.8093 O   0  0  0  0  0  0  0  0  0  0  0  0
    0.7855    1.4722    0.1123 C   0  0  0  0  0  0  0  0  0  0  0  0
    0.0934    0.1879   -0.1259 C   0  0  0  0  0  0  0  0  0  0  0  0
    1.0464   -0.8667   -0.6437 C   0  0  0  0  0  0  0  0  0  0  0  0
    1.9839   -1.0748    0.3899 O   0  0  0  0  0  0  0  0  0  0  0  0
   -1.2200    0.2873   -0.8365 C   0  0  0  0  0  0  0  0  0  0  0  0
   -1.7300   -0.4965    0.3580 C   0  0  0  0  0  0  0  0  0  0  0  0
   -0.5184   -0.3083    1.0487 O   0  0  0  0  0  0  0  0  0  0  0  0
    0.7975    1.9388    1.0789 H   0  0  0  0  0  0  0  0  0  0  0  0
    0.5437   -1.8126   -0.8415 H   0  0  0  0  0  0  0  0  0  0  0  0
    1.6230   -0.5315   -1.5195 H   0  0  0  0  0  0  0  0  0  0  0  0
    2.6614   -0.3308    0.3545 H   0  0  0  0  0  0  0  0  0  0  0  0
   -1.6245    1.3224   -0.8530 H   0  0  0  0  0  0  0  0  0  0  0  0
   -1.3083   -0.2453   -1.8008 H   0  0  0  0  0  0  0  0  0  0  0  0
   -2.5799   -0.0136    0.8953 H   0  0  0  0  0  0  0  0  0  0  0  0
   -1.9110   -1.5462    0.0555 H   0  0  0  0  0  0  0  0  0  0  0  0
  1  2  2  0
  2  3  1  0
  3  4  1  0
  4  5  1  0
  3  6  1  0
  6  7  1  0
  7  8  1  0
  8  3  1  0
  2  9  1  0
  4 10  1  0
  4 11  1  0
  5 12  1  0
  6 13  1  0
  6 14  1  0
  7 15  1  0
  7 16  1  0
M  END
