
     RDKit          3D

 19 19  0  0  0  0  0  0  0  0999 V2000
    3.2655   -1.0195   -0.8084 O   0  0  0  0  0  0  0  0  0  0  0  0
    2.6955   -0.1384   -0.1148 C   0  0  0  0  0  0  0  0  0  0  0  0
    1.2419   -0.0383   -0.1187 C   0  0  0  0  0  0  0  0  0  0  0  0
    0.7153    0.9097    0.6328 C   0  0  0  0  0  0  0  0  0  0  0  0
   -0.7227    1.2677    0.8428 C   0  0  0  0  0  0  0  0  0  0  0  0
   -1.5872    0.4665   -0.1266 C   0  0  0  0  0  0  0  0  0  0  0  0
   -1.5599   -0.9921    0.1472 C   0  0  0  0  0  0  0  0  0  0  0  0
   -0.4768   -1.6797   -0.2766 O   0  0  0  0  0  0  0  0  0  0  0  0
    0.4841   -0.9981   -0.9562 C   0  0  0  0  0  0  0  0  0  0  0  0
    3.3222    0.5213    0.4672 H   0  0  0  0  0  0  0  0  0  0  0  0
    1.3782    1.5369    1.1901 H   0  0  0  0  0  0  0  0  0  0  0  0
   -0.8402    2.3239    0.5747 H   0  0  0  0  0  0  0  0  0  0  0  0
   -1.0311    1.0506    1.8853 H   0  0  0  0  0  0  0  0  0  0  0  0
   -2.6390    0.8216    0.0948 H   0  0  0  0  0  0  0  0  0  0  0  0
   -1.3841    0.7647   -1.1534 H   0  0  0  0  0  0  0  0  0  0  0  0
   -1.7185   -1.1477    1.2325 H   0  0  0  0  0  0  0  0  0  0  0  0
   -2.4729   -1.4422   -0.3435 H   0  0  0  0  0  0  0  0  0  0  0  0
    1.2292   -1.7581   -1.3217 H   0  0  0  0  0  0  0  0  0  0  0  0
    0.1006   -0.4487   -1.8473 H   0  0  0  0  0  0  0  0  0  0  0  0
  1  2  2  0
  2  3  1  0
  3  4  2  0
  4  5  1  0
  5  6  1  0
  6  7  1  0
  7  8  1  0
  8  9  1  0
  9  3  1  0
  2 10  1  0
  4 11  1  0
  5 12  1  0
  5 13  1  0
  6 14  1  0
  6 15  1  0
  7 16  1  0
  7 17  1  0
  9 18  1  0
  9 19  1  0
M  END
