
     RDKit          3D

 15 14  0  0  0  0  0  0  0  0999 V2000
   -3.6194    0.8174    0.6282 O   0  0  0  0  0  0  0  0  0  0  0  0
   -2.5223    0.4658    0.2542 C   0  0  0  0  0  0  0  0  0  0  0  0
   -1.8831   -0.8085    0.5896 C   0  0  0  0  0  0  0  0  0  0  0  0
   -0.6094   -0.9078   -0.0077 O   0  0  0  0  0  0  0  0  0  0  0  0
    0.4224   -0.0191    0.2462 C   0  0  0  0  0  0  0  0  0  0  0  0
    0.1886    0.9069    1.0447 O   0  0  0  0  0  0  0  0  0  0  0  0
    1.6946   -0.2629   -0.4581 C   0  0  0  0  0  0  0  0  0  0  0  0
    2.7502    0.6958   -0.1659 C   0  0  0  0  0  0  0  0  0  0  0  0
    3.3683    0.6771    0.8850 O   0  0  0  0  0  0  0  0  0  0  0  0
   -1.9741    1.1524   -0.3783 H   0  0  0  0  0  0  0  0  0  0  0  0
   -1.7840   -1.0042    1.6767 H   0  0  0  0  0  0  0  0  0  0  0  0
   -2.5354   -1.6472    0.2026 H   0  0  0  0  0  0  0  0  0  0  0  0
    1.4619   -0.2252   -1.5497 H   0  0  0  0  0  0  0  0  0  0  0  0
    2.0125   -1.3118   -0.1823 H   0  0  0  0  0  0  0  0  0  0  0  0
    3.0294    1.4712   -0.8814 H   0  0  0  0  0  0  0  0  0  0  0  0
  1  2  2  0
  2  3  1  0
  3  4  1  0
  4  5  1  0
  5  6  2  0
  5  7  1  0
  7  8  1  0
  8  9  2  0
  2 10  1  0
  3 11  1  0
  3 12  1  0
  7 13  1  0
  7 14  1  0
  8 15  1  0
M  END
