
     RDKit          3D

 19 20  0  0  0  0  0  0  0  0999 V2000
   -2.9395   -1.3969   -0.4577 O   0  0  0  0  0  0  0  0  0  0  0  0
   -2.2068   -0.4234   -0.3926 C   0  0  0  0  0  0  0  0  0  0  0  0
   -0.9869   -0.5347    0.4248 C   0  0  0  0  0  0  0  0  0  0  0  0
    0.0947   -1.3168   -0.2746 C   0  0  0  0  0  0  0  0  0  0  0  0
    1.2276   -0.3554   -0.5372 C   0  0  0  0  0  0  0  0  0  0  0  0
    2.4518   -0.9676   -0.4634 O   0  0  0  0  0  0  0  0  0  0  0  0
    1.0254    0.7543    0.4452 C   0  0  0  0  0  0  0  0  0  0  0  0
    0.0344    1.8116   -0.0424 C   0  0  0  0  0  0  0  0  0  0  0  0
   -0.4086    0.7515    0.8712 C   0  0  0  0  0  0  0  0  0  0  0  0
   -2.4935    0.4593   -0.9355 H   0  0  0  0  0  0  0  0  0  0  0  0
   -1.2634   -1.1369    1.3370 H   0  0  0  0  0  0  0  0  0  0  0  0
    0.4490   -2.1806    0.3066 H   0  0  0  0  0  0  0  0  0  0  0  0
   -0.3407   -1.7020   -1.2264 H   0  0  0  0  0  0  0  0  0  0  0  0
    1.1081    0.0450   -1.5651 H   0  0  0  0  0  0  0  0  0  0  0  0
    3.0916   -0.5508    0.1500 H   0  0  0  0  0  0  0  0  0  0  0  0
    1.7919    1.0280    1.1712 H   0  0  0  0  0  0  0  0  0  0  0  0
    0.2096    2.8156    0.3759 H   0  0  0  0  0  0  0  0  0  0  0  0
   -0.2208    1.8333   -1.1216 H   0  0  0  0  0  0  0  0  0  0  0  0
   -0.6238    1.0666    1.9344 H   0  0  0  0  0  0  0  0  0  0  0  0
  1  2  2  0
  2  3  1  0
  3  4  1  0
  4  5  1  0
  5  6  1  0
  5  7  1  0
  7  8  1  0
  8  9  1  0
  9  3  1  0
  9  7  1  0
  2 10  1  0
  3 11  1  0
  4 12  1  0
  4 13  1  0
  5 14  1  0
  6 15  1  0
  7 16  1  0
  8 17  1  0
  8 18  1  0
  9 19  1  0
M  END
