
     RDKit          3D

 17 18  0  0  0  0  0  0  0  0999 V2000
   -2.4151    1.8589   -0.4486 O   0  0  0  0  0  0  0  0  0  0  0  0
   -1.2408    1.5394   -0.3182 C   0  0  0  0  0  0  0  0  0  0  0  0
   -0.9275    0.3093    0.4478 C   0  0  0  0  0  0  0  0  0  0  0  0
   -1.9300   -0.4483    0.9945 O   0  0  0  0  0  0  0  0  0  0  0  0
   -1.4991   -1.6584    0.4226 C   0  0  0  0  0  0  0  0  0  0  0  0
   -0.3875   -0.8933   -0.2297 C   0  0  0  0  0  0  0  0  0  0  0  0
    0.4708   -0.0987    0.6955 C   0  0  0  0  0  0  0  0  0  0  0  0
    1.6206    0.6116    0.0584 C   0  0  0  0  0  0  0  0  0  0  0  0
    2.8008   -0.0100    0.4902 O   0  0  0  0  0  0  0  0  0  0  0  0
   -0.4416    2.1101   -0.7327 H   0  0  0  0  0  0  0  0  0  0  0  0
   -2.2200   -2.1583   -0.2269 H   0  0  0  0  0  0  0  0  0  0  0  0
   -1.0824   -2.2903    1.2532 H   0  0  0  0  0  0  0  0  0  0  0  0
   -0.2556   -0.8654   -1.3068 H   0  0  0  0  0  0  0  0  0  0  0  0
    0.6884   -0.4919    1.7149 H   0  0  0  0  0  0  0  0  0  0  0  0
    1.6382    1.7019    0.2820 H   0  0  0  0  0  0  0  0  0  0  0  0
    1.5945    0.5074   -1.0423 H   0  0  0  0  0  0  0  0  0  0  0  0
    3.5864    0.2760   -0.0501 H   0  0  0  0  0  0  0  0  0  0  0  0
  1  2  2  0
  2  3  1  0
  3  4  1  0
  4  5  1  0
  5  6  1  0
  6  7  1  0
  7  8  1  0
  8  9  1  0
  6  3  1  0
  7  3  1  0
  2 10  1  0
  5 11  1  0
  5 12  1  0
  6 13  1  0
  7 14  1  0
  8 15  1  0
  8 16  1  0
  9 17  1  0
M  END
