
     RDKit          3D

 17 19  0  0  0  0  0  0  0  0999 V2000
    2.6376   -0.7200    0.9863 O   0  0  0  0  0  0  0  0  0  0  0  0
    1.9047   -0.9724    0.0174 C   0  0  0  0  0  0  0  0  0  0  0  0
    0.6195   -0.3385   -0.0396 C   0  0  0  0  0  0  0  0  0  0  0  0
    0.5245    1.1328   -0.2934 C   0  0  0  0  0  0  0  0  0  0  0  0
   -0.9819    1.3429   -0.0556 C   0  0  0  0  0  0  0  0  0  0  0  0
   -1.4153   -0.0793    0.0964 C   0  0  0  0  0  0  0  0  0  0  0  0
   -0.4219   -0.6983    0.9845 C   0  0  0  0  0  0  0  0  0  0  0  0
   -0.5937   -1.8778    0.2691 O   0  0  0  0  0  0  0  0  0  0  0  0
   -0.5147   -0.9383   -0.7502 C   0  0  0  0  0  0  0  0  0  0  0  0
    2.3382   -1.6683   -0.6985 H   0  0  0  0  0  0  0  0  0  0  0  0
    0.6912    1.3980   -1.3594 H   0  0  0  0  0  0  0  0  0  0  0  0
    1.1290    1.7569    0.3683 H   0  0  0  0  0  0  0  0  0  0  0  0
   -1.0561    1.8330    0.9391 H   0  0  0  0  0  0  0  0  0  0  0  0
   -1.4532    1.8920   -0.8686 H   0  0  0  0  0  0  0  0  0  0  0  0
   -2.4553   -0.3181    0.1544 H   0  0  0  0  0  0  0  0  0  0  0  0
   -0.3157   -0.6227    1.9875 H   0  0  0  0  0  0  0  0  0  0  0  0
   -0.6367   -1.1219   -1.7376 H   0  0  0  0  0  0  0  0  0  0  0  0
  1  2  2  0
  2  3  1  0
  3  4  1  0
  4  5  1  0
  5  6  1  0
  6  7  1  0
  7  8  1  0
  8  9  1  0
  7  3  1  0
  9  3  1  0
  9  6  1  0
  2 10  1  0
  4 11  1  0
  4 12  1  0
  5 13  1  0
  5 14  1  0
  6 15  1  0
  7 16  1  0
  9 17  1  0
M  END
