
     RDKit          3D

 17 17  0  0  0  0  0  0  0  0999 V2000
    2.7385   -1.0862    0.6127 O   0  0  0  0  0  0  0  0  0  0  0  0
    2.4179   -0.0103    0.1561 C   0  0  0  0  0  0  0  0  0  0  0  0
    1.1635    0.0376   -0.6311 C   0  0  0  0  0  0  0  0  0  0  0  0
    0.9738    1.3370   -1.0602 O   0  0  0  0  0  0  0  0  0  0  0  0
    0.0268   -0.4831    0.1979 C   0  0  0  0  0  0  0  0  0  0  0  0
   -0.1797    0.2616    1.3335 O   0  0  0  0  0  0  0  0  0  0  0  0
   -1.4373    0.6526    0.8869 C   0  0  0  0  0  0  0  0  0  0  0  0
   -1.3465   -0.2626   -0.3236 C   0  0  0  0  0  0  0  0  0  0  0  0
   -2.2323   -1.3474   -0.1471 O   0  0  0  0  0  0  0  0  0  0  0  0
    3.0576    0.8322    0.3492 H   0  0  0  0  0  0  0  0  0  0  0  0
    1.3065   -0.5950   -1.5433 H   0  0  0  0  0  0  0  0  0  0  0  0
    0.6319    1.9425   -0.3555 H   0  0  0  0  0  0  0  0  0  0  0  0
    0.1946   -1.5705    0.4111 H   0  0  0  0  0  0  0  0  0  0  0  0
   -2.2258    0.3749    1.6183 H   0  0  0  0  0  0  0  0  0  0  0  0
   -1.5436    1.7178    0.6330 H   0  0  0  0  0  0  0  0  0  0  0  0
   -1.4543    0.2352   -1.2970 H   0  0  0  0  0  0  0  0  0  0  0  0
   -2.0915   -2.0363   -0.8410 H   0  0  0  0  0  0  0  0  0  0  0  0
  1  2  2  0
  2  3  1  0
  3  4  1  0
  3  5  1  0
  5  6  1  0
  6  7  1  0
  7  8  1  0
  8  9  1  0
  8  5  1  0
  2 10  1  0
  3 11  1  0
  4 12  1  0
  5 13  1  0
  7 14  1  0
  7 15  1  0
  8 16  1  0
  9 17  1  0
M  END
