
     RDKit          3D

 19 18  0  0  0  0  0  0  0  0999 V2000
    1.7225   -0.5783   -1.8713 O   0  0  0  0  0  0  0  0  0  0  0  0
    0.6673   -0.9354   -1.3552 C   0  0  0  0  0  0  0  0  0  0  0  0
    0.0928   -0.0810   -0.3124 C   0  0  0  0  0  0  0  0  0  0  0  0
   -0.2228    1.3045   -0.8942 C   0  0  0  0  0  0  0  0  0  0  0  0
   -0.7631    2.0322    0.1823 O   0  0  0  0  0  0  0  0  0  0  0  0
    1.1097    0.1749    0.7781 C   0  0  0  0  0  0  0  0  0  0  0  0
    1.5352   -1.0099    1.3855 O   0  0  0  0  0  0  0  0  0  0  0  0
   -1.1788   -0.6132    0.2577 C   0  0  0  0  0  0  0  0  0  0  0  0
   -1.0543   -1.8518    0.8441 O   0  0  0  0  0  0  0  0  0  0  0  0
    0.2439   -1.8655   -1.7198 H   0  0  0  0  0  0  0  0  0  0  0  0
    0.7169    1.7832   -1.2695 H   0  0  0  0  0  0  0  0  0  0  0  0
   -0.9565    1.2301   -1.7243 H   0  0  0  0  0  0  0  0  0  0  0  0
   -1.7048    2.2383   -0.0042 H   0  0  0  0  0  0  0  0  0  0  0  0
    2.0115    0.6292    0.3107 H   0  0  0  0  0  0  0  0  0  0  0  0
    0.7446    0.8307    1.5679 H   0  0  0  0  0  0  0  0  0  0  0  0
    2.3476   -0.7477    1.9248 H   0  0  0  0  0  0  0  0  0  0  0  0
   -1.5495    0.1387    1.0066 H   0  0  0  0  0  0  0  0  0  0  0  0
   -1.9238   -0.6864   -0.5702 H   0  0  0  0  0  0  0  0  0  0  0  0
   -1.8385   -1.9925    1.4635 H   0  0  0  0  0  0  0  0  0  0  0  0
  1  2  2  0
  2  3  1  0
  3  4  1  0
  4  5  1  0
  3  6  1  0
  6  7  1  0
  3  8  1  0
  8  9  1  0
  2 10  1  0
  4 11  1  0
  4 12  1  0
  5 13  1  0
  6 14  1  0
  6 15  1  0
  7 16  1  0
  8 17  1  0
  8 18  1  0
  9 19  1  0
M  END
