
     RDKit          3D

 17 18  0  0  0  0  0  0  0  0999 V2000
    2.6614   -1.2214   -0.8662 O   0  0  0  0  0  0  0  0  0  0  0  0
    2.2731   -0.3398   -0.1329 C   0  0  0  0  0  0  0  0  0  0  0  0
    0.8961   -0.3015    0.4204 C   0  0  0  0  0  0  0  0  0  0  0  0
    0.0661   -1.5301    0.4854 C   0  0  0  0  0  0  0  0  0  0  0  0
   -0.1892   -0.5542   -0.5603 C   0  0  0  0  0  0  0  0  0  0  0  0
   -1.0937    0.6102   -0.4243 C   0  0  0  0  0  0  0  0  0  0  0  0
   -2.4286    0.3010   -0.2739 O   0  0  0  0  0  0  0  0  0  0  0  0
   -0.5217    1.4064    0.6993 C   0  0  0  0  0  0  0  0  0  0  0  0
    0.5329    0.7308    1.2441 O   0  0  0  0  0  0  0  0  0  0  0  0
    2.9526    0.4587    0.1360 H   0  0  0  0  0  0  0  0  0  0  0  0
   -0.5491   -1.6559    1.3914 H   0  0  0  0  0  0  0  0  0  0  0  0
    0.5834   -2.4675    0.1876 H   0  0  0  0  0  0  0  0  0  0  0  0
    0.0963   -0.8229   -1.6127 H   0  0  0  0  0  0  0  0  0  0  0  0
   -1.0210    1.2517   -1.3499 H   0  0  0  0  0  0  0  0  0  0  0  0
   -2.8267    0.0868   -1.1607 H   0  0  0  0  0  0  0  0  0  0  0  0
   -1.2993    1.6336    1.4491 H   0  0  0  0  0  0  0  0  0  0  0  0
   -0.1326    2.4141    0.3676 H   0  0  0  0  0  0  0  0  0  0  0  0
  1  2  2  0
  2  3  1  0
  3  4  1  0
  4  5  1  0
  5  6  1  0
  6  7  1  0
  6  8  1  0
  8  9  1  0
  5  3  1  0
  9  3  1  0
  2 10  1  0
  4 11  1  0
  4 12  1  0
  5 13  1  0
  6 14  1  0
  7 15  1  0
  8 16  1  0
  8 17  1  0
M  END
