
     RDKit          3D

 13 13  0  0  0  0  0  0  0  0999 V2000
    2.7143   -0.9579    0.0164 O   0  0  0  0  0  0  0  0  0  0  0  0
    2.0321    0.0815   -0.1436 C   0  0  0  0  0  0  0  0  0  0  0  0
    0.5999    0.0216   -0.0485 C   0  0  0  0  0  0  0  0  0  0  0  0
   -0.2406    1.0407   -0.1954 C   0  0  0  0  0  0  0  0  0  0  0  0
   -1.6199    0.5334   -0.0174 C   0  0  0  0  0  0  0  0  0  0  0  0
   -1.5229   -0.8311   -0.1092 O   0  0  0  0  0  0  0  0  0  0  0  0
   -0.2258   -1.1796    0.2305 C   0  0  0  0  0  0  0  0  0  0  0  0
    2.5668    0.9940   -0.3502 H   0  0  0  0  0  0  0  0  0  0  0  0
    0.1016    2.0470   -0.4088 H   0  0  0  0  0  0  0  0  0  0  0  0
   -1.9624    0.8072    0.9863 H   0  0  0  0  0  0  0  0  0  0  0  0
   -2.3107    0.9041   -0.7975 H   0  0  0  0  0  0  0  0  0  0  0  0
    0.0875   -2.0025   -0.4524 H   0  0  0  0  0  0  0  0  0  0  0  0
   -0.2199   -1.4584    1.2895 H   0  0  0  0  0  0  0  0  0  0  0  0
  1  2  2  0
  2  3  1  0
  3  4  2  0
  4  5  1  0
  5  6  1  0
  6  7  1  0
  7  3  1  0
  2  8  1  0
  4  9  1  0
  5 10  1  0
  5 11  1  0
  7 12  1  0
  7 13  1  0
M  END
