
     RDKit          3D

 14 13  0  0  0  0  0  0  0  0999 V2000
    3.3887   -0.7684   -0.1150 O   0  0  0  0  0  0  0  0  0  0  0  0
    2.8792    0.0174    0.7180 C   0  0  0  0  0  0  0  0  0  0  0  0
    1.4677    0.3458    0.5696 C   0  0  0  0  0  0  0  0  0  0  0  0
    0.9033    1.1338    1.3829 O   0  0  0  0  0  0  0  0  0  0  0  0
    0.7376   -0.2040   -0.4633 O   0  0  0  0  0  0  0  0  0  0  0  0
   -0.6265    0.0722   -0.6581 C   0  0  0  0  0  0  0  0  0  0  0  0
   -1.5070   -0.3312    0.4801 C   0  0  0  0  0  0  0  0  0  0  0  0
   -2.8217    0.0179    0.1095 O   0  0  0  0  0  0  0  0  0  0  0  0
    3.4259    0.4603    1.5327 H   0  0  0  0  0  0  0  0  0  0  0  0
   -1.0018   -0.4126   -1.5957 H   0  0  0  0  0  0  0  0  0  0  0  0
   -0.6966    1.1722   -0.8572 H   0  0  0  0  0  0  0  0  0  0  0  0
   -1.2227    0.2284    1.3884 H   0  0  0  0  0  0  0  0  0  0  0  0
   -1.4409   -1.4314    0.6303 H   0  0  0  0  0  0  0  0  0  0  0  0
   -3.4853   -0.3004    0.7595 H   0  0  0  0  0  0  0  0  0  0  0  0
  1  2  2  0
  2  3  1  0
  3  4  2  0
  3  5  1  0
  5  6  1  0
  6  7  1  0
  7  8  1  0
  2  9  1  0
  6 10  1  0
  6 11  1  0
  7 12  1  0
  7 13  1  0
  8 14  1  0
M  END
