
     RDKit          3D

 17 18  0  0  0  0  0  0  0  0999 V2000
    1.8305   -1.4098    1.5692 O   0  0  0  0  0  0  0  0  0  0  0  0
    1.9083   -0.4626    0.8262 C   0  0  0  0  0  0  0  0  0  0  0  0
    0.7614    0.0640    0.0597 C   0  0  0  0  0  0  0  0  0  0  0  0
    0.2525    1.4049    0.4073 C   0  0  0  0  0  0  0  0  0  0  0  0
   -1.0425    1.4917    0.2398 C   0  0  0  0  0  0  0  0  0  0  0  0
   -1.5758    0.2121   -0.2457 C   0  0  0  0  0  0  0  0  0  0  0  0
   -0.4174   -0.7308   -0.2574 C   0  0  0  0  0  0  0  0  0  0  0  0
   -0.6268   -1.9939    0.2720 O   0  0  0  0  0  0  0  0  0  0  0  0
    0.5989   -0.4896   -1.3058 C   0  0  0  0  0  0  0  0  0  0  0  0
    2.8591    0.0240    0.7149 H   0  0  0  0  0  0  0  0  0  0  0  0
    0.8704    2.2263    0.7602 H   0  0  0  0  0  0  0  0  0  0  0  0
   -1.6659    2.4135    0.4380 H   0  0  0  0  0  0  0  0  0  0  0  0
   -2.4256   -0.1597    0.3725 H   0  0  0  0  0  0  0  0  0  0  0  0
   -1.9717    0.3970   -1.2804 H   0  0  0  0  0  0  0  0  0  0  0  0
   -0.9593   -1.8822    1.2114 H   0  0  0  0  0  0  0  0  0  0  0  0
    0.3032    0.1717   -2.1547 H   0  0  0  0  0  0  0  0  0  0  0  0
    1.3005   -1.2767   -1.6273 H   0  0  0  0  0  0  0  0  0  0  0  0
  1  2  2  0
  2  3  1  0
  3  4  1  0
  4  5  2  0
  5  6  1  0
  6  7  1  0
  7  8  1  0
  7  9  1  0
  7  3  1  0
  9  3  1  0
  2 10  1  0
  4 11  1  0
  5 12  1  0
  6 13  1  0
  6 14  1  0
  8 15  1  0
  9 16  1  0
  9 17  1  0
M  END
