
     RDKit          3D

 15 15  0  0  0  0  0  0  0  0999 V2000
    2.8850    1.3550    0.0046 O   0  0  0  0  0  0  0  0  0  0  0  0
    2.3020    0.2391   -0.0160 C   0  0  0  0  0  0  0  0  0  0  0  0
    0.8535    0.1202    0.0643 C   0  0  0  0  0  0  0  0  0  0  0  0
    0.0963    1.1957    0.1626 C   0  0  0  0  0  0  0  0  0  0  0  0
   -1.3705    0.9974    0.2400 C   0  0  0  0  0  0  0  0  0  0  0  0
   -2.1562    1.8867    0.5880 O   0  0  0  0  0  0  0  0  0  0  0  0
   -1.8351   -0.3641   -0.1354 C   0  0  0  0  0  0  0  0  0  0  0  0
   -1.0316   -1.2526    0.5748 O   0  0  0  0  0  0  0  0  0  0  0  0
    0.2541   -1.2376    0.0332 C   0  0  0  0  0  0  0  0  0  0  0  0
    2.9504   -0.6227   -0.0972 H   0  0  0  0  0  0  0  0  0  0  0  0
    0.4918    2.2014    0.1889 H   0  0  0  0  0  0  0  0  0  0  0  0
   -2.9104   -0.5113    0.0649 H   0  0  0  0  0  0  0  0  0  0  0  0
   -1.5975   -0.5441   -1.2197 H   0  0  0  0  0  0  0  0  0  0  0  0
    0.1581   -1.5227   -1.0345 H   0  0  0  0  0  0  0  0  0  0  0  0
    0.9102   -1.9404    0.5814 H   0  0  0  0  0  0  0  0  0  0  0  0
  1  2  2  0
  2  3  1  0
  3  4  2  0
  4  5  1  0
  5  6  2  0
  5  7  1  0
  7  8  1  0
  8  9  1  0
  9  3  1  0
  2 10  1  0
  4 11  1  0
  7 12  1  0
  7 13  1  0
  9 14  1  0
  9 15  1  0
M  END
