
     RDKit          3D

 19 21  0  0  0  0  0  0  0  0999 V2000
    2.3752    0.2261   -2.2923 O   0  0  0  0  0  0  0  0  0  0  0  0
    1.9386   -0.3700   -1.3129 C   0  0  0  0  0  0  0  0  0  0  0  0
    0.7384   -0.0500   -0.5759 C   0  0  0  0  0  0  0  0  0  0  0  0
    0.7377    0.9392    0.5722 C   0  0  0  0  0  0  0  0  0  0  0  0
   -0.6805    0.6638    1.0901 C   0  0  0  0  0  0  0  0  0  0  0  0
   -1.4655    0.7874   -0.1847 C   0  0  0  0  0  0  0  0  0  0  0  0
   -0.6293   -0.1431   -1.0815 C   0  0  0  0  0  0  0  0  0  0  0  0
   -0.1624   -1.1920   -0.1791 C   0  0  0  0  0  0  0  0  0  0  0  0
   -0.6090   -0.8330    1.2447 C   0  0  0  0  0  0  0  0  0  0  0  0
    2.5507   -1.2301   -0.9929 H   0  0  0  0  0  0  0  0  0  0  0  0
    1.4261    0.6183    1.3555 H   0  0  0  0  0  0  0  0  0  0  0  0
    0.8311    1.9757    0.2538 H   0  0  0  0  0  0  0  0  0  0  0  0
   -0.9823    1.2343    1.9226 H   0  0  0  0  0  0  0  0  0  0  0  0
   -1.4100    1.8187   -0.5839 H   0  0  0  0  0  0  0  0  0  0  0  0
   -2.5056    0.4117   -0.1007 H   0  0  0  0  0  0  0  0  0  0  0  0
   -0.9187   -0.2769   -2.1131 H   0  0  0  0  0  0  0  0  0  0  0  0
    0.0575   -2.2141   -0.4361 H   0  0  0  0  0  0  0  0  0  0  0  0
   -1.5430   -1.3078    1.5231 H   0  0  0  0  0  0  0  0  0  0  0  0
    0.2509   -1.0581    1.8909 H   0  0  0  0  0  0  0  0  0  0  0  0
  1  2  2  0
  2  3  1  0
  3  4  1  0
  4  5  1  0
  5  6  1  0
  6  7  1  0
  7  8  1  0
  8  9  1  0
  7  3  1  0
  8  3  1  0
  9  5  1  0
  2 10  1  0
  4 11  1  0
  4 12  1  0
  5 13  1  0
  6 14  1  0
  6 15  1  0
  7 16  1  0
  8 17  1  0
  9 18  1  0
  9 19  1  0
M  END
