
     RDKit          3D

 17 18  0  0  0  0  0  0  0  0999 V2000
   -1.6673   -0.2830    2.1801 O   0  0  0  0  0  0  0  0  0  0  0  0
   -1.9135    0.3989    1.2177 C   0  0  0  0  0  0  0  0  0  0  0  0
   -1.0868    0.3034    0.0072 C   0  0  0  0  0  0  0  0  0  0  0  0
   -1.4973    1.1579   -1.0258 O   0  0  0  0  0  0  0  0  0  0  0  0
   -0.7195   -1.1193   -0.3641 C   0  0  0  0  0  0  0  0  0  0  0  0
    0.2813   -0.1581    0.0907 C   0  0  0  0  0  0  0  0  0  0  0  0
    1.3902    0.1949   -0.8116 C   0  0  0  0  0  0  0  0  0  0  0  0
    2.1534    0.2229    0.4980 C   0  0  0  0  0  0  0  0  0  0  0  0
    1.0422   -0.2698    1.2043 O   0  0  0  0  0  0  0  0  0  0  0  0
   -2.7427    1.0762    1.2547 H   0  0  0  0  0  0  0  0  0  0  0  0
   -2.0012    0.6000   -1.6831 H   0  0  0  0  0  0  0  0  0  0  0  0
   -0.8013   -1.3342   -1.4607 H   0  0  0  0  0  0  0  0  0  0  0  0
   -0.9547   -1.9445    0.3270 H   0  0  0  0  0  0  0  0  0  0  0  0
    1.3565    1.1298   -1.3726 H   0  0  0  0  0  0  0  0  0  0  0  0
    1.7002   -0.7062   -1.4192 H   0  0  0  0  0  0  0  0  0  0  0  0
    2.4676    1.2422    0.8114 H   0  0  0  0  0  0  0  0  0  0  0  0
    2.9929   -0.5111    0.5459 H   0  0  0  0  0  0  0  0  0  0  0  0
  1  2  2  0
  2  3  1  0
  3  4  1  0
  3  5  1  0
  5  6  1  0
  6  7  1  0
  7  8  1  0
  8  9  1  0
  6  3  1  0
  9  6  1  0
  2 10  1  0
  4 11  1  0
  5 12  1  0
  5 13  1  0
  7 14  1  0
  7 15  1  0
  8 16  1  0
  8 17  1  0
M  END
