
     RDKit          3D

 17 18  0  0  0  0  0  0  0  0999 V2000
   -0.7540    2.2487   -0.5960 O   0  0  0  0  0  0  0  0  0  0  0  0
    0.2063    1.6383   -0.1467 C   0  0  0  0  0  0  0  0  0  0  0  0
    0.0999    0.1539    0.0085 C   0  0  0  0  0  0  0  0  0  0  0  0
    1.4253   -0.5476    0.1600 C   0  0  0  0  0  0  0  0  0  0  0  0
    2.2583   -0.3581   -0.9205 O   0  0  0  0  0  0  0  0  0  0  0  0
   -0.8685   -0.2688    1.1005 C   0  0  0  0  0  0  0  0  0  0  0  0
   -1.8501   -0.5915   -0.0018 C   0  0  0  0  0  0  0  0  0  0  0  0
   -1.4654   -1.6212   -0.8186 O   0  0  0  0  0  0  0  0  0  0  0  0
   -0.8247   -0.4123   -1.0266 C   0  0  0  0  0  0  0  0  0  0  0  0
    1.0716    2.2106    0.1098 H   0  0  0  0  0  0  0  0  0  0  0  0
    1.2094   -1.6221    0.3081 H   0  0  0  0  0  0  0  0  0  0  0  0
    1.9297   -0.1359    1.0590 H   0  0  0  0  0  0  0  0  0  0  0  0
    3.1762   -0.0362   -0.6621 H   0  0  0  0  0  0  0  0  0  0  0  0
   -0.5769   -1.2235    1.6080 H   0  0  0  0  0  0  0  0  0  0  0  0
   -1.1492    0.5224    1.7922 H   0  0  0  0  0  0  0  0  0  0  0  0
   -2.8391   -0.1410   -0.0297 H   0  0  0  0  0  0  0  0  0  0  0  0
   -1.0489    0.1844   -1.9441 H   0  0  0  0  0  0  0  0  0  0  0  0
  1  2  2  0
  2  3  1  0
  3  4  1  0
  4  5  1  0
  3  6  1  0
  6  7  1  0
  7  8  1  0
  8  9  1  0
  9  3  1  0
  9  7  1  0
  2 10  1  0
  4 11  1  0
  4 12  1  0
  5 13  1  0
  6 14  1  0
  6 15  1  0
  7 16  1  0
  9 17  1  0
M  END
