
     RDKit          3D

 17 18  0  0  0  0  0  0  0  0999 V2000
    2.1023   -0.9464    1.5850 O   0  0  0  0  0  0  0  0  0  0  0  0
    1.7516   -1.0490    0.4390 C   0  0  0  0  0  0  0  0  0  0  0  0
    1.0351    0.0080   -0.3253 C   0  0  0  0  0  0  0  0  0  0  0  0
    0.8296    1.1485    0.4980 O   0  0  0  0  0  0  0  0  0  0  0  0
   -0.2963    1.8761    0.0808 C   0  0  0  0  0  0  0  0  0  0  0  0
   -1.5066    1.1915    0.3674 O   0  0  0  0  0  0  0  0  0  0  0  0
   -1.1507   -0.0947    0.5604 C   0  0  0  0  0  0  0  0  0  0  0  0
   -1.2751   -1.2804   -0.1964 C   0  0  0  0  0  0  0  0  0  0  0  0
   -0.3205   -0.3903   -0.7399 C   0  0  0  0  0  0  0  0  0  0  0  0
    1.9672   -1.9719   -0.0842 H   0  0  0  0  0  0  0  0  0  0  0  0
    1.6757    0.3533   -1.1490 H   0  0  0  0  0  0  0  0  0  0  0  0
   -0.2573    2.8376    0.6191 H   0  0  0  0  0  0  0  0  0  0  0  0
   -0.1761    2.0456   -1.0056 H   0  0  0  0  0  0  0  0  0  0  0  0
   -0.5947   -0.1910    1.5420 H   0  0  0  0  0  0  0  0  0  0  0  0
   -0.9242   -2.2481    0.2399 H   0  0  0  0  0  0  0  0  0  0  0  0
   -2.2274   -1.4626   -0.7624 H   0  0  0  0  0  0  0  0  0  0  0  0
   -0.6325    0.1739   -1.6691 H   0  0  0  0  0  0  0  0  0  0  0  0
  1  2  2  0
  2  3  1  0
  3  4  1  0
  4  5  1  0
  5  6  1  0
  6  7  1  0
  7  8  1  0
  8  9  1  0
  9  3  1  0
  9  7  1  0
  2 10  1  0
  3 11  1  0
  5 12  1  0
  5 13  1  0
  7 14  1  0
  8 15  1  0
  8 16  1  0
  9 17  1  0
M  END
