
     RDKit          3D

 17 17  0  0  0  0  0  0  0  0999 V2000
    2.0371   -1.5372    0.8122 O   0  0  0  0  0  0  0  0  0  0  0  0
    2.0573   -0.5674    0.0960 C   0  0  0  0  0  0  0  0  0  0  0  0
    0.8488    0.2191   -0.2825 C   0  0  0  0  0  0  0  0  0  0  0  0
    1.2209    1.6581   -0.1759 C   0  0  0  0  0  0  0  0  0  0  0  0
    1.1646    2.4397   -1.0936 O   0  0  0  0  0  0  0  0  0  0  0  0
   -0.3256   -0.0483    0.5896 C   0  0  0  0  0  0  0  0  0  0  0  0
   -0.9442   -1.3692    0.7454 C   0  0  0  0  0  0  0  0  0  0  0  0
   -1.6181   -0.3311   -0.1120 C   0  0  0  0  0  0  0  0  0  0  0  0
   -2.7469    0.3376    0.4050 O   0  0  0  0  0  0  0  0  0  0  0  0
    3.0194   -0.2325   -0.3090 H   0  0  0  0  0  0  0  0  0  0  0  0
    0.6044   -0.0037   -1.3549 H   0  0  0  0  0  0  0  0  0  0  0  0
    1.5606    2.0097    0.7894 H   0  0  0  0  0  0  0  0  0  0  0  0
   -0.3754    0.6182    1.4953 H   0  0  0  0  0  0  0  0  0  0  0  0
   -0.5872   -2.2800    0.2362 H   0  0  0  0  0  0  0  0  0  0  0  0
   -1.5016   -1.5912    1.6808 H   0  0  0  0  0  0  0  0  0  0  0  0
   -1.6592   -0.5395   -1.1800 H   0  0  0  0  0  0  0  0  0  0  0  0
   -2.7547    1.2177   -0.0894 H   0  0  0  0  0  0  0  0  0  0  0  0
  1  2  2  0
  2  3  1  0
  3  4  1  0
  4  5  2  0
  3  6  1  0
  6  7  1  0
  7  8  1  0
  8  9  1  0
  8  6  1  0
  2 10  1  0
  3 11  1  0
  4 12  1  0
  6 13  1  0
  7 14  1  0
  7 15  1  0
  8 16  1  0
  9 17  1  0
M  END
