
     RDKit          3D

 17 17  0  0  0  0  0  0  0  0999 V2000
    1.8967    1.6265    0.3345 O   0  0  0  0  0  0  0  0  0  0  0  0
    1.9544    0.4309    0.4295 C   0  0  0  0  0  0  0  0  0  0  0  0
    0.9394   -0.4818   -0.2055 C   0  0  0  0  0  0  0  0  0  0  0  0
    1.2302   -1.8078    0.0516 O   0  0  0  0  0  0  0  0  0  0  0  0
   -0.4044   -0.0532    0.2853 C   0  0  0  0  0  0  0  0  0  0  0  0
   -0.5300   -0.2071    1.6438 O   0  0  0  0  0  0  0  0  0  0  0  0
   -0.8768    1.2167   -0.3204 C   0  0  0  0  0  0  0  0  0  0  0  0
   -2.1175    0.6945   -0.6679 O   0  0  0  0  0  0  0  0  0  0  0  0
   -1.5928   -0.5850   -0.4596 C   0  0  0  0  0  0  0  0  0  0  0  0
    2.7587   -0.0279    0.9883 H   0  0  0  0  0  0  0  0  0  0  0  0
    1.0360   -0.3165   -1.3069 H   0  0  0  0  0  0  0  0  0  0  0  0
    1.5689   -2.2975   -0.7617 H   0  0  0  0  0  0  0  0  0  0  0  0
   -1.0573    0.5046    2.0766 H   0  0  0  0  0  0  0  0  0  0  0  0
   -0.8950    2.0769    0.3651 H   0  0  0  0  0  0  0  0  0  0  0  0
   -0.3002    1.4977   -1.2345 H   0  0  0  0  0  0  0  0  0  0  0  0
   -1.3182   -1.1149   -1.4099 H   0  0  0  0  0  0  0  0  0  0  0  0
   -2.2922   -1.1561    0.1917 H   0  0  0  0  0  0  0  0  0  0  0  0
  1  2  2  0
  2  3  1  0
  3  4  1  0
  3  5  1  0
  5  6  1  0
  5  7  1  0
  7  8  1  0
  8  9  1  0
  9  5  1  0
  2 10  1  0
  3 11  1  0
  4 12  1  0
  6 13  1  0
  7 14  1  0
  7 15  1  0
  9 16  1  0
  9 17  1  0
M  END
