
     RDKit          3D

 17 17  0  0  0  0  0  0  0  0999 V2000
    3.2009    0.0348   -0.9284 O   0  0  0  0  0  0  0  0  0  0  0  0
    2.6673   -0.5162    0.0399 C   0  0  0  0  0  0  0  0  0  0  0  0
    1.2238   -0.2622    0.3010 C   0  0  0  0  0  0  0  0  0  0  0  0
    0.7968    1.1794    0.1754 C   0  0  0  0  0  0  0  0  0  0  0  0
    0.3604    0.1581   -0.8322 C   0  0  0  0  0  0  0  0  0  0  0  0
   -1.0591   -0.2198   -0.8947 C   0  0  0  0  0  0  0  0  0  0  0  0
   -1.5891   -0.4475   -1.9652 O   0  0  0  0  0  0  0  0  0  0  0  0
   -1.8922   -0.3370    0.3339 C   0  0  0  0  0  0  0  0  0  0  0  0
   -3.1836   -0.7002    0.0442 O   0  0  0  0  0  0  0  0  0  0  0  0
    3.2041   -1.1671    0.6948 H   0  0  0  0  0  0  0  0  0  0  0  0
    0.8014   -0.7810    1.1792 H   0  0  0  0  0  0  0  0  0  0  0  0
    0.0756    1.5762    0.9062 H   0  0  0  0  0  0  0  0  0  0  0  0
    1.5481    1.9275   -0.1390 H   0  0  0  0  0  0  0  0  0  0  0  0
    0.8933    0.2168   -1.8138 H   0  0  0  0  0  0  0  0  0  0  0  0
   -1.8134    0.6397    0.8650 H   0  0  0  0  0  0  0  0  0  0  0  0
   -1.4419   -1.1584    0.9385 H   0  0  0  0  0  0  0  0  0  0  0  0
   -3.7921   -0.1431    0.6043 H   0  0  0  0  0  0  0  0  0  0  0  0
  1  2  2  0
  2  3  1  0
  3  4  1  0
  4  5  1  0
  5  6  1  0
  6  7  2  0
  6  8  1  0
  8  9  1  0
  5  3  1  0
  2 10  1  0
  3 11  1  0
  4 12  1  0
  4 13  1  0
  5 14  1  0
  8 15  1  0
  8 16  1  0
  9 17  1  0
M  END
