
     RDKit          3D

 16 16  0  0  0  0  0  0  0  0999 V2000
   -2.0617    1.8552    0.4997 O   0  0  0  0  0  0  0  0  0  0  0  0
   -0.9376    1.4671    0.2304 C   0  0  0  0  0  0  0  0  0  0  0  0
   -0.7838    0.0737   -0.2109 C   0  0  0  0  0  0  0  0  0  0  0  0
    0.6253   -0.3326   -0.5230 C   0  0  0  0  0  0  0  0  0  0  0  0
    1.4330   -0.1448    0.7557 C   0  0  0  0  0  0  0  0  0  0  0  0
    2.7725   -0.5000    0.5671 O   0  0  0  0  0  0  0  0  0  0  0  0
   -1.9467   -0.7009   -0.5755 C   0  0  0  0  0  0  0  0  0  0  0  0
   -1.3774   -0.9285    0.7004 O   0  0  0  0  0  0  0  0  0  0  0  0
   -0.0908    2.1178    0.3121 H   0  0  0  0  0  0  0  0  0  0  0  0
    0.6885   -1.3683   -0.8920 H   0  0  0  0  0  0  0  0  0  0  0  0
    1.0552    0.3112   -1.3184 H   0  0  0  0  0  0  0  0  0  0  0  0
    1.0191   -0.8024    1.5456 H   0  0  0  0  0  0  0  0  0  0  0  0
    1.3372    0.8927    1.0959 H   0  0  0  0  0  0  0  0  0  0  0  0
    3.0038   -0.2119   -0.3614 H   0  0  0  0  0  0  0  0  0  0  0  0
   -2.9306   -0.1983   -0.5121 H   0  0  0  0  0  0  0  0  0  0  0  0
   -1.8061   -1.5300   -1.3135 H   0  0  0  0  0  0  0  0  0  0  0  0
  1  2  2  0
  2  3  1  0
  3  4  1  0
  4  5  1  0
  5  6  1  0
  3  7  1  0
  7  8  1  0
  8  3  1  0
  2  9  1  0
  4 10  1  0
  4 11  1  0
  5 12  1  0
  5 13  1  0
  6 14  1  0
  7 15  1  0
  7 16  1  0
M  END
