
     RDKit          3D

 19 20  0  0  0  0  0  0  0  0999 V2000
    3.0399   -0.1723    1.2274 O   0  0  0  0  0  0  0  0  0  0  0  0
    2.5727    0.0155    0.1145 C   0  0  0  0  0  0  0  0  0  0  0  0
    1.1540   -0.1324   -0.2245 C   0  0  0  0  0  0  0  0  0  0  0  0
    0.2651   -0.6984    0.8330 C   0  0  0  0  0  0  0  0  0  0  0  0
   -1.0017   -1.2204    0.1958 C   0  0  0  0  0  0  0  0  0  0  0  0
   -1.8887    0.0060   -0.0496 C   0  0  0  0  0  0  0  0  0  0  0  0
   -0.9861    0.9995   -0.7852 C   0  0  0  0  0  0  0  0  0  0  0  0
    0.2963    1.0792    0.0426 C   0  0  0  0  0  0  0  0  0  0  0  0
    0.0949    0.6030    1.3277 O   0  0  0  0  0  0  0  0  0  0  0  0
    3.2599    0.3111   -0.6690 H   0  0  0  0  0  0  0  0  0  0  0  0
    0.9263   -0.5638   -1.2156 H   0  0  0  0  0  0  0  0  0  0  0  0
    0.7399   -1.3711    1.5653 H   0  0  0  0  0  0  0  0  0  0  0  0
   -1.5159   -1.9774    0.7873 H   0  0  0  0  0  0  0  0  0  0  0  0
   -0.7217   -1.6014   -0.8202 H   0  0  0  0  0  0  0  0  0  0  0  0
   -2.7911   -0.2358   -0.6022 H   0  0  0  0  0  0  0  0  0  0  0  0
   -2.0629    0.4478    0.9505 H   0  0  0  0  0  0  0  0  0  0  0  0
   -0.7196    0.4868   -1.7505 H   0  0  0  0  0  0  0  0  0  0  0  0
   -1.4603    1.9695   -0.9264 H   0  0  0  0  0  0  0  0  0  0  0  0
    0.7989    2.0543   -0.0010 H   0  0  0  0  0  0  0  0  0  0  0  0
  1  2  2  0
  2  3  1  0
  3  4  1  0
  4  5  1  0
  5  6  1  0
  6  7  1  0
  7  8  1  0
  8  9  1  0
  8  3  1  0
  9  4  1  0
  2 10  1  0
  3 11  1  0
  4 12  1  0
  5 13  1  0
  5 14  1  0
  6 15  1  0
  6 16  1  0
  7 17  1  0
  7 18  1  0
  8 19  1  0
M  END
