
     RDKit          3D

 17 17  0  0  0  0  0  0  0  0999 V2000
   -1.8008   -2.3235   -0.6441 O   0  0  0  0  0  0  0  0  0  0  0  0
   -0.8264   -1.8568   -0.1319 C   0  0  0  0  0  0  0  0  0  0  0  0
   -0.6427   -0.4023   -0.1061 C   0  0  0  0  0  0  0  0  0  0  0  0
   -1.6553    0.3076   -0.7004 O   0  0  0  0  0  0  0  0  0  0  0  0
   -0.3521    0.1527    1.2665 C   0  0  0  0  0  0  0  0  0  0  0  0
    0.1768    1.4970    0.9210 C   0  0  0  0  0  0  0  0  0  0  0  0
    0.7543    1.4264   -0.2699 C   0  0  0  0  0  0  0  0  0  0  0  0
    0.6527    0.0310   -0.8053 C   0  0  0  0  0  0  0  0  0  0  0  0
    1.6579   -0.7820   -0.3117 O   0  0  0  0  0  0  0  0  0  0  0  0
   -0.0817   -2.5007    0.3113 H   0  0  0  0  0  0  0  0  0  0  0  0
   -1.4979    0.4660   -1.6577 H   0  0  0  0  0  0  0  0  0  0  0  0
   -1.2332    0.1847    1.9247 H   0  0  0  0  0  0  0  0  0  0  0  0
    0.4787   -0.4509    1.7372 H   0  0  0  0  0  0  0  0  0  0  0  0
    0.0908    2.3650    1.5519 H   0  0  0  0  0  0  0  0  0  0  0  0
    1.2371    2.2294   -0.8096 H   0  0  0  0  0  0  0  0  0  0  0  0
    0.5136   -0.0127   -1.8808 H   0  0  0  0  0  0  0  0  0  0  0  0
    2.5282   -0.3309   -0.3950 H   0  0  0  0  0  0  0  0  0  0  0  0
  1  2  2  0
  2  3  1  0
  3  4  1  0
  3  5  1  0
  5  6  1  0
  6  7  2  0
  7  8  1  0
  8  9  1  0
  8  3  1  0
  2 10  1  0
  4 11  1  0
  5 12  1  0
  5 13  1  0
  6 14  1  0
  7 15  1  0
  8 16  1  0
  9 17  1  0
M  END
