
     RDKit          3D

 19 19  0  0  0  0  0  0  0  0999 V2000
    2.7172   -1.4791    0.0240 O   0  0  0  0  0  0  0  0  0  0  0  0
    2.4081   -0.3162   -0.1309 C   0  0  0  0  0  0  0  0  0  0  0  0
    1.0999    0.1851    0.3532 C   0  0  0  0  0  0  0  0  0  0  0  0
    0.1902   -0.9619    0.7354 C   0  0  0  0  0  0  0  0  0  0  0  0
   -1.1905   -0.5976    0.3198 C   0  0  0  0  0  0  0  0  0  0  0  0
   -1.6242   -1.4301   -0.7205 O   0  0  0  0  0  0  0  0  0  0  0  0
   -1.1281    0.8042   -0.2528 C   0  0  0  0  0  0  0  0  0  0  0  0
   -1.4276    1.7553    0.6991 O   0  0  0  0  0  0  0  0  0  0  0  0
    0.3112    0.8773   -0.7168 C   0  0  0  0  0  0  0  0  0  0  0  0
    3.1045    0.3398   -0.6264 H   0  0  0  0  0  0  0  0  0  0  0  0
    1.2587    0.9001    1.1826 H   0  0  0  0  0  0  0  0  0  0  0  0
    0.2976   -1.2226    1.7984 H   0  0  0  0  0  0  0  0  0  0  0  0
    0.5453   -1.8460    0.1309 H   0  0  0  0  0  0  0  0  0  0  0  0
   -1.8591   -0.6356    1.1896 H   0  0  0  0  0  0  0  0  0  0  0  0
   -2.2243   -2.1439   -0.4107 H   0  0  0  0  0  0  0  0  0  0  0  0
   -1.7903    0.9240   -1.1140 H   0  0  0  0  0  0  0  0  0  0  0  0
   -1.6649    2.5914    0.2511 H   0  0  0  0  0  0  0  0  0  0  0  0
    0.5866    1.9395   -0.7885 H   0  0  0  0  0  0  0  0  0  0  0  0
    0.3898    0.3165   -1.6444 H   0  0  0  0  0  0  0  0  0  0  0  0
  1  2  2  0
  2  3  1  0
  3  4  1  0
  4  5  1  0
  5  6  1  0
  5  7  1  0
  7  8  1  0
  7  9  1  0
  9  3  1  0
  2 10  1  0
  3 11  1  0
  4 12  1  0
  4 13  1  0
  5 14  1  0
  6 15  1  0
  7 16  1  0
  8 17  1  0
  9 18  1  0
  9 19  1  0
M  END
