
     RDKit          3D

 19 19  0  0  0  0  0  0  0  0999 V2000
   -2.9493   -0.6931   -0.7339 O   0  0  0  0  0  0  0  0  0  0  0  0
   -1.8191   -0.8485   -0.3229 C   0  0  0  0  0  0  0  0  0  0  0  0
   -0.9107    0.3106   -0.2627 C   0  0  0  0  0  0  0  0  0  0  0  0
   -1.5445    1.4357   -0.7116 O   0  0  0  0  0  0  0  0  0  0  0  0
   -0.3515    0.5359    1.1267 C   0  0  0  0  0  0  0  0  0  0  0  0
    1.0225   -0.0497    1.1457 C   0  0  0  0  0  0  0  0  0  0  0  0
    1.2708   -0.6630   -0.2103 C   0  0  0  0  0  0  0  0  0  0  0  0
    2.6022   -0.5502   -0.5635 O   0  0  0  0  0  0  0  0  0  0  0  0
    0.3385    0.0746   -1.1150 C   0  0  0  0  0  0  0  0  0  0  0  0
   -1.5161   -1.8374   -0.0134 H   0  0  0  0  0  0  0  0  0  0  0  0
   -2.2439    1.7852   -0.1385 H   0  0  0  0  0  0  0  0  0  0  0  0
   -0.9935   -0.0418    1.8239 H   0  0  0  0  0  0  0  0  0  0  0  0
   -0.4045    1.5902    1.4458 H   0  0  0  0  0  0  0  0  0  0  0  0
    1.7735    0.7491    1.2842 H   0  0  0  0  0  0  0  0  0  0  0  0
    1.1483   -0.8578    1.9009 H   0  0  0  0  0  0  0  0  0  0  0  0
    1.0106   -1.7423   -0.2519 H   0  0  0  0  0  0  0  0  0  0  0  0
    2.8596    0.3269   -0.9115 H   0  0  0  0  0  0  0  0  0  0  0  0
    0.7224    1.0175   -1.5101 H   0  0  0  0  0  0  0  0  0  0  0  0
   -0.0152   -0.5417   -1.9818 H   0  0  0  0  0  0  0  0  0  0  0  0
  1  2  2  0
  2  3  1  0
  3  4  1  0
  3  5  1  0
  5  6  1  0
  6  7  1  0
  7  8  1  0
  7  9  1  0
  9  3  1  0
  2 10  1  0
  4 11  1  0
  5 12  1  0
  5 13  1  0
  6 14  1  0
  6 15  1  0
  7 16  1  0
  8 17  1  0
  9 18  1  0
  9 19  1  0
M  END
