
     RDKit          3D

 15 15  0  0  0  0  0  0  0  0999 V2000
    2.5483    1.1243    0.9183 O   0  0  0  0  0  0  0  0  0  0  0  0
    2.1445    1.0977   -0.2693 C   0  0  0  0  0  0  0  0  0  0  0  0
    0.9534    0.3008   -0.5626 C   0  0  0  0  0  0  0  0  0  0  0  0
    0.5432    0.2693   -1.7489 O   0  0  0  0  0  0  0  0  0  0  0  0
    0.2229   -0.4566    0.4574 C   0  0  0  0  0  0  0  0  0  0  0  0
   -0.9617   -1.1831   -0.1298 C   0  0  0  0  0  0  0  0  0  0  0  0
   -1.8317   -0.1152    0.4039 C   0  0  0  0  0  0  0  0  0  0  0  0
   -2.9760    0.2629    0.2144 O   0  0  0  0  0  0  0  0  0  0  0  0
   -0.7305    0.3547    1.3106 C   0  0  0  0  0  0  0  0  0  0  0  0
    2.6945    1.6599   -1.0012 H   0  0  0  0  0  0  0  0  0  0  0  0
    0.8491   -1.1698    1.0325 H   0  0  0  0  0  0  0  0  0  0  0  0
   -0.9612   -1.2906   -1.2335 H   0  0  0  0  0  0  0  0  0  0  0  0
   -1.1388   -2.1930    0.3248 H   0  0  0  0  0  0  0  0  0  0  0  0
   -0.7962   -0.1070    2.3222 H   0  0  0  0  0  0  0  0  0  0  0  0
   -0.5598    1.4457    1.3022 H   0  0  0  0  0  0  0  0  0  0  0  0
  1  2  2  0
  2  3  1  0
  3  4  2  0
  3  5  1  0
  5  6  1  0
  6  7  1  0
  7  8  2  0
  7  9  1  0
  9  5  1  0
  2 10  1  0
  5 11  1  0
  6 12  1  0
  6 13  1  0
  9 14  1  0
  9 15  1  0
M  END
