
     RDKit          3D

 17 18  0  0  0  0  0  0  0  0999 V2000
    2.4755    1.8758   -0.0460 O   0  0  0  0  0  0  0  0  0  0  0  0
    2.5411    0.7258    0.5031 C   0  0  0  0  0  0  0  0  0  0  0  0
    1.5046   -0.2822    0.3145 C   0  0  0  0  0  0  0  0  0  0  0  0
    1.6447   -1.3709    0.8820 O   0  0  0  0  0  0  0  0  0  0  0  0
    0.3659    0.0415   -0.5263 C   0  0  0  0  0  0  0  0  0  0  0  0
   -0.7044   -0.9762   -0.7223 C   0  0  0  0  0  0  0  0  0  0  0  0
   -1.5687    0.1959   -1.1514 C   0  0  0  0  0  0  0  0  0  0  0  0
   -0.8297    0.6913    0.0733 C   0  0  0  0  0  0  0  0  0  0  0  0
   -1.1705   -0.6469    0.6678 C   0  0  0  0  0  0  0  0  0  0  0  0
    3.4205    0.5579    1.1160 H   0  0  0  0  0  0  0  0  0  0  0  0
    0.6818    0.5551   -1.4719 H   0  0  0  0  0  0  0  0  0  0  0  0
   -0.6614   -1.8693   -1.1626 H   0  0  0  0  0  0  0  0  0  0  0  0
   -1.2947    0.6671   -2.1041 H   0  0  0  0  0  0  0  0  0  0  0  0
   -2.6418    0.0763   -0.9463 H   0  0  0  0  0  0  0  0  0  0  0  0
   -0.9213    1.5891    0.4978 H   0  0  0  0  0  0  0  0  0  0  0  0
   -0.5711   -1.0103    1.4964 H   0  0  0  0  0  0  0  0  0  0  0  0
   -2.2706   -0.8199    0.7381 H   0  0  0  0  0  0  0  0  0  0  0  0
  1  2  2  0
  2  3  1  0
  3  4  2  0
  3  5  1  0
  5  6  1  0
  6  7  1  0
  7  8  1  0
  8  9  1  0
  8  5  1  0
  9  6  1  0
  2 10  1  0
  5 11  1  0
  6 12  1  0
  7 13  1  0
  7 14  1  0
  8 15  1  0
  9 16  1  0
  9 17  1  0
M  END
