
     RDKit          3D

 19 20  0  0  0  0  0  0  0  0999 V2000
    3.0154    1.3992   -0.0027 O   0  0  0  0  0  0  0  0  0  0  0  0
    2.4288    0.4045    0.4693 C   0  0  0  0  0  0  0  0  0  0  0  0
    1.5208   -0.3930   -0.3930 C   0  0  0  0  0  0  0  0  0  0  0  0
    0.0865   -0.2955   -0.0588 C   0  0  0  0  0  0  0  0  0  0  0  0
   -0.8366   -1.1008   -0.9517 C   0  0  0  0  0  0  0  0  0  0  0  0
   -2.0734   -0.8348   -0.3747 O   0  0  0  0  0  0  0  0  0  0  0  0
   -2.0795    0.5545   -0.3138 C   0  0  0  0  0  0  0  0  0  0  0  0
   -0.6931    0.8939    0.2308 C   0  0  0  0  0  0  0  0  0  0  0  0
   -0.2710   -0.0137    1.3419 C   0  0  0  0  0  0  0  0  0  0  0  0
    2.6282    0.1888    1.5057 H   0  0  0  0  0  0  0  0  0  0  0  0
    1.6839   -0.0769   -1.4439 H   0  0  0  0  0  0  0  0  0  0  0  0
    1.8469   -1.4459   -0.2974 H   0  0  0  0  0  0  0  0  0  0  0  0
   -0.8191   -0.5901   -1.9394 H   0  0  0  0  0  0  0  0  0  0  0  0
   -0.5956   -2.1610   -1.0017 H   0  0  0  0  0  0  0  0  0  0  0  0
   -2.7987    0.8537    0.4551 H   0  0  0  0  0  0  0  0  0  0  0  0
   -2.2418    1.0264   -1.3066 H   0  0  0  0  0  0  0  0  0  0  0  0
   -0.3625    1.9393    0.2039 H   0  0  0  0  0  0  0  0  0  0  0  0
   -1.0052   -0.6618    1.8693 H   0  0  0  0  0  0  0  0  0  0  0  0
    0.5659    0.3131    2.0078 H   0  0  0  0  0  0  0  0  0  0  0  0
  1  2  2  0
  2  3  1  0
  3  4  1  0
  4  5  1  0
  5  6  1  0
  6  7  1  0
  7  8  1  0
  8  9  1  0
  8  4  1  0
  9  4  1  0
  2 10  1  0
  3 11  1  0
  3 12  1  0
  5 13  1  0
  5 14  1  0
  7 15  1  0
  7 16  1  0
  8 17  1  0
  9 18  1  0
  9 19  1  0
M  END
