
     RDKit          3D

 15 16  0  0  0  0  0  0  0  0999 V2000
    2.4325   -1.2984    0.3212 O   0  0  0  0  0  0  0  0  0  0  0  0
    1.7414   -0.5439   -0.3876 C   0  0  0  0  0  0  0  0  0  0  0  0
    0.4809   -0.1641   -0.1107 C   0  0  0  0  0  0  0  0  0  0  0  0
   -0.7494   -0.3167   -0.9653 C   0  0  0  0  0  0  0  0  0  0  0  0
   -1.2441    0.4124    0.2571 C   0  0  0  0  0  0  0  0  0  0  0  0
   -0.3761   -0.5367    1.0409 C   0  0  0  0  0  0  0  0  0  0  0  0
   -0.0086    1.2548    0.1275 C   0  0  0  0  0  0  0  0  0  0  0  0
    2.2828   -0.2139   -1.2831 H   0  0  0  0  0  0  0  0  0  0  0  0
   -1.1931   -1.3428   -0.9830 H   0  0  0  0  0  0  0  0  0  0  0  0
   -0.7603    0.2345   -1.9082 H   0  0  0  0  0  0  0  0  0  0  0  0
   -2.1755    0.7026    0.4621 H   0  0  0  0  0  0  0  0  0  0  0  0
   -0.7616   -1.5669    1.0481 H   0  0  0  0  0  0  0  0  0  0  0  0
   -0.0357   -0.1597    2.0251 H   0  0  0  0  0  0  0  0  0  0  0  0
    0.3453    1.6151    1.0892 H   0  0  0  0  0  0  0  0  0  0  0  0
    0.0216    1.9238   -0.7331 H   0  0  0  0  0  0  0  0  0  0  0  0
  1  2  2  0
  2  3  1  0
  3  4  1  0
  4  5  1  0
  5  6  1  0
  5  7  1  0
  6  3  1  0
  7  3  1  0
  2  8  1  0
  4  9  1  0
  4 10  1  0
  5 11  1  0
  6 12  1  0
  6 13  1  0
  7 14  1  0
  7 15  1  0
M  END
