
     RDKit          3D

 21 22  0  0  0  0  0  0  0  0999 V2000
    3.3547   -1.2061    0.1505 O   0  0  0  0  0  0  0  0  0  0  0  0
    2.6772   -0.3923    0.7299 C   0  0  0  0  0  0  0  0  0  0  0  0
    1.2918   -0.7159    1.1325 C   0  0  0  0  0  0  0  0  0  0  0  0
    0.4213   -0.5590   -0.0746 C   0  0  0  0  0  0  0  0  0  0  0  0
   -1.0585   -0.8466    0.1215 C   0  0  0  0  0  0  0  0  0  0  0  0
   -1.4835    0.0553    1.2414 C   0  0  0  0  0  0  0  0  0  0  0  0
   -0.7050    1.3222    0.8304 C   0  0  0  0  0  0  0  0  0  0  0  0
   -0.0573    0.8208   -0.4161 C   0  0  0  0  0  0  0  0  0  0  0  0
   -1.2454    0.0958   -1.0813 C   0  0  0  0  0  0  0  0  0  0  0  0
    3.0824    0.5741    0.9551 H   0  0  0  0  0  0  0  0  0  0  0  0
    1.0000   -0.0324    1.9424 H   0  0  0  0  0  0  0  0  0  0  0  0
    1.2140   -1.7412    1.5708 H   0  0  0  0  0  0  0  0  0  0  0  0
    0.7837   -1.0652   -0.9896 H   0  0  0  0  0  0  0  0  0  0  0  0
   -1.4151   -1.8335    0.0375 H   0  0  0  0  0  0  0  0  0  0  0  0
   -2.5657    0.2683    1.1228 H   0  0  0  0  0  0  0  0  0  0  0  0
   -1.2019   -0.2857    2.2359 H   0  0  0  0  0  0  0  0  0  0  0  0
   -0.0482    1.6660    1.6245 H   0  0  0  0  0  0  0  0  0  0  0  0
   -1.4136    2.1469    0.6084 H   0  0  0  0  0  0  0  0  0  0  0  0
    0.5226    1.4546   -1.0317 H   0  0  0  0  0  0  0  0  0  0  0  0
   -2.1818    0.6593   -1.0588 H   0  0  0  0  0  0  0  0  0  0  0  0
   -0.9719   -0.3854   -2.0474 H   0  0  0  0  0  0  0  0  0  0  0  0
  1  2  2  0
  2  3  1  0
  3  4  1  0
  4  5  1  0
  5  6  1  0
  6  7  1  0
  7  8  1  0
  8  9  1  0
  8  4  1  0
  9  5  1  0
  2 10  1  0
  3 11  1  0
  3 12  1  0
  4 13  1  0
  5 14  1  0
  6 15  1  0
  6 16  1  0
  7 17  1  0
  7 18  1  0
  8 19  1  0
  9 20  1  0
  9 21  1  0
M  END
