
     RDKit          3D

 19 20  0  0  0  0  0  0  0  0999 V2000
   -3.1321   -1.0934   -1.1913 O   0  0  0  0  0  0  0  0  0  0  0  0
   -1.9308   -1.2994   -1.1293 C   0  0  0  0  0  0  0  0  0  0  0  0
   -1.0776   -0.4328   -0.2473 C   0  0  0  0  0  0  0  0  0  0  0  0
    0.2421   -0.7633   -0.2653 O   0  0  0  0  0  0  0  0  0  0  0  0
    1.0733   -0.0108    0.5159 C   0  0  0  0  0  0  0  0  0  0  0  0
    2.3939   -0.5270    0.9756 C   0  0  0  0  0  0  0  0  0  0  0  0
    2.3600    0.4237   -0.1965 C   0  0  0  0  0  0  0  0  0  0  0  0
   -1.3277    1.0887   -0.3671 C   0  0  0  0  0  0  0  0  0  0  0  0
   -1.7514    0.2848    0.8354 C   0  0  0  0  0  0  0  0  0  0  0  0
   -1.5371   -2.0979   -1.7138 H   0  0  0  0  0  0  0  0  0  0  0  0
    0.6217    0.8037    1.0993 H   0  0  0  0  0  0  0  0  0  0  0  0
    2.6921   -1.5738    0.8382 H   0  0  0  0  0  0  0  0  0  0  0  0
    2.8124   -0.0639    1.8997 H   0  0  0  0  0  0  0  0  0  0  0  0
    2.7062    1.4521   -0.0909 H   0  0  0  0  0  0  0  0  0  0  0  0
    2.6029   -0.0573   -1.1672 H   0  0  0  0  0  0  0  0  0  0  0  0
   -0.4718    1.7599   -0.3323 H   0  0  0  0  0  0  0  0  0  0  0  0
   -2.1257    1.3930   -1.1028 H   0  0  0  0  0  0  0  0  0  0  0  0
   -2.8613    0.1145    0.9322 H   0  0  0  0  0  0  0  0  0  0  0  0
   -1.2890    0.5994    1.7717 H   0  0  0  0  0  0  0  0  0  0  0  0
  1  2  2  0
  2  3  1  0
  3  4  1  0
  4  5  1  0
  5  6  1  0
  6  7  1  0
  3  8  1  0
  8  9  1  0
  9  3  1  0
  7  5  1  0
  2 10  1  0
  5 11  1  0
  6 12  1  0
  6 13  1  0
  7 14  1  0
  7 15  1  0
  8 16  1  0
  8 17  1  0
  9 18  1  0
  9 19  1  0
M  END
