
     RDKit          3D

 21 22  0  0  0  0  0  0  0  0999 V2000
    3.1577    0.2671    1.3921 O   0  0  0  0  0  0  0  0  0  0  0  0
    2.3553    0.3414    0.4552 C   0  0  0  0  0  0  0  0  0  0  0  0
    1.1459   -0.5534    0.5968 C   0  0  0  0  0  0  0  0  0  0  0  0
    0.3030   -0.2853   -0.6203 C   0  0  0  0  0  0  0  0  0  0  0  0
   -0.0834    1.1482   -0.6303 C   0  0  0  0  0  0  0  0  0  0  0  0
   -0.9715    1.1303    0.6398 C   0  0  0  0  0  0  0  0  0  0  0  0
   -1.5076   -0.3074    0.7131 C   0  0  0  0  0  0  0  0  0  0  0  0
   -1.2005   -0.7623   -0.6419 C   0  0  0  0  0  0  0  0  0  0  0  0
   -0.1512   -1.4281   -1.2915 C   0  0  0  0  0  0  0  0  0  0  0  0
    2.5295    0.9969   -0.3787 H   0  0  0  0  0  0  0  0  0  0  0  0
    1.5596   -1.5855    0.6177 H   0  0  0  0  0  0  0  0  0  0  0  0
    0.7300   -0.2771    1.5544 H   0  0  0  0  0  0  0  0  0  0  0  0
    0.7137    1.8794   -0.5301 H   0  0  0  0  0  0  0  0  0  0  0  0
   -0.6930    1.3809   -1.5237 H   0  0  0  0  0  0  0  0  0  0  0  0
   -1.8059    1.8322    0.3835 H   0  0  0  0  0  0  0  0  0  0  0  0
   -0.4149    1.4179    1.5246 H   0  0  0  0  0  0  0  0  0  0  0  0
   -2.6280   -0.2019    0.8657 H   0  0  0  0  0  0  0  0  0  0  0  0
   -1.1813   -0.8837    1.5576 H   0  0  0  0  0  0  0  0  0  0  0  0
   -1.8763   -0.1907   -1.3629 H   0  0  0  0  0  0  0  0  0  0  0  0
    0.1026   -2.4614   -0.9115 H   0  0  0  0  0  0  0  0  0  0  0  0
   -0.0837   -1.4575   -2.4095 H   0  0  0  0  0  0  0  0  0  0  0  0
  1  2  2  0
  2  3  1  0
  3  4  1  0
  4  5  1  0
  5  6  1  0
  6  7  1  0
  7  8  1  0
  8  9  1  0
  8  4  1  0
  9  4  1  0
  2 10  1  0
  3 11  1  0
  3 12  1  0
  5 13  1  0
  5 14  1  0
  6 15  1  0
  6 16  1  0
  7 17  1  0
  7 18  1  0
  8 19  1  0
  9 20  1  0
  9 21  1  0
M  END
