
     RDKit          3D

 23 23  0  0  0  0  0  0  0  0999 V2000
    3.5204   -0.4220   -1.2425 O   0  0  0  0  0  0  0  0  0  0  0  0
    3.4430    0.1077   -0.1522 C   0  0  0  0  0  0  0  0  0  0  0  0
    2.1710    0.1780    0.5807 C   0  0  0  0  0  0  0  0  0  0  0  0
    1.1017   -0.4942   -0.2592 C   0  0  0  0  0  0  0  0  0  0  0  0
   -0.2481   -0.4641    0.4294 C   0  0  0  0  0  0  0  0  0  0  0  0
   -1.2328   -1.1581   -0.4936 C   0  0  0  0  0  0  0  0  0  0  0  0
   -2.5091   -0.3520   -0.4189 C   0  0  0  0  0  0  0  0  0  0  0  0
   -2.0725    1.0504   -0.0531 C   0  0  0  0  0  0  0  0  0  0  0  0
   -0.7458    0.9264    0.6385 C   0  0  0  0  0  0  0  0  0  0  0  0
    4.3284    0.5455    0.3065 H   0  0  0  0  0  0  0  0  0  0  0  0
    2.2951   -0.3302    1.5549 H   0  0  0  0  0  0  0  0  0  0  0  0
    1.9054    1.2302    0.8168 H   0  0  0  0  0  0  0  0  0  0  0  0
    1.4306   -1.5415   -0.4166 H   0  0  0  0  0  0  0  0  0  0  0  0
    1.0416   -0.0264   -1.2613 H   0  0  0  0  0  0  0  0  0  0  0  0
   -0.2223   -0.9798    1.4072 H   0  0  0  0  0  0  0  0  0  0  0  0
   -0.8965   -1.1504   -1.5523 H   0  0  0  0  0  0  0  0  0  0  0  0
   -1.3971   -2.1914   -0.1119 H   0  0  0  0  0  0  0  0  0  0  0  0
   -3.1738   -0.7466    0.3515 H   0  0  0  0  0  0  0  0  0  0  0  0
   -3.0091   -0.2847   -1.4094 H   0  0  0  0  0  0  0  0  0  0  0  0
   -2.8547    1.5242    0.5566 H   0  0  0  0  0  0  0  0  0  0  0  0
   -1.9289    1.6958   -0.9470 H   0  0  0  0  0  0  0  0  0  0  0  0
   -0.0300    1.7058    0.2740 H   0  0  0  0  0  0  0  0  0  0  0  0
   -0.9164    1.1772    1.7230 H   0  0  0  0  0  0  0  0  0  0  0  0
  1  2  2  0
  2  3  1  0
  3  4  1  0
  4  5  1  0
  5  6  1  0
  6  7  1  0
  7  8  1  0
  8  9  1  0
  9  5  1  0
  2 10  1  0
  3 11  1  0
  3 12  1  0
  4 13  1  0
  4 14  1  0
  5 15  1  0
  6 16  1  0
  6 17  1  0
  7 18  1  0
  7 19  1  0
  8 20  1  0
  8 21  1  0
  9 22  1  0
  9 23  1  0
M  END
