
     RDKit          3D

 17 17  0  0  0  0  0  0  0  0999 V2000
    0.1466    2.7300   -0.2887 O   0  0  0  0  0  0  0  0  0  0  0  0
   -0.8277    1.9775   -0.2073 C   0  0  0  0  0  0  0  0  0  0  0  0
   -0.8011    0.5372   -0.1044 C   0  0  0  0  0  0  0  0  0  0  0  0
    0.2813   -0.2185   -0.0807 C   0  0  0  0  0  0  0  0  0  0  0  0
    1.7152    0.1734   -0.1505 C   0  0  0  0  0  0  0  0  0  0  0  0
    2.4070   -0.2356    0.9863 O   0  0  0  0  0  0  0  0  0  0  0  0
   -0.1859   -1.6167    0.0431 C   0  0  0  0  0  0  0  0  0  0  0  0
   -1.4400   -1.5814   -0.5427 O   0  0  0  0  0  0  0  0  0  0  0  0
   -1.9903   -0.3890   -0.0123 C   0  0  0  0  0  0  0  0  0  0  0  0
   -1.8104    2.4798   -0.2159 H   0  0  0  0  0  0  0  0  0  0  0  0
    1.8797    1.2175   -0.3664 H   0  0  0  0  0  0  0  0  0  0  0  0
    2.1794   -0.4048   -1.0057 H   0  0  0  0  0  0  0  0  0  0  0  0
    3.3513   -0.0046    0.8750 H   0  0  0  0  0  0  0  0  0  0  0  0
   -0.3251   -1.8084    1.1390 H   0  0  0  0  0  0  0  0  0  0  0  0
    0.4960   -2.3422   -0.4273 H   0  0  0  0  0  0  0  0  0  0  0  0
   -2.7666    0.0128   -0.6716 H   0  0  0  0  0  0  0  0  0  0  0  0
   -2.3095   -0.5270    1.0301 H   0  0  0  0  0  0  0  0  0  0  0  0
  1  2  2  0
  2  3  1  0
  3  4  2  0
  4  5  1  0
  5  6  1  0
  4  7  1  0
  7  8  1  0
  8  9  1  0
  9  3  1  0
  2 10  1  0
  5 11  1  0
  5 12  1  0
  6 13  1  0
  7 14  1  0
  7 15  1  0
  9 16  1  0
  9 17  1  0
M  END
