
     RDKit          3D

 17 19  0  0  0  0  0  0  0  0999 V2000
    3.3020   -0.8102   -1.2306 O   0  0  0  0  0  0  0  0  0  0  0  0
    2.3318   -0.0203   -1.3276 C   0  0  0  0  0  0  0  0  0  0  0  0
    1.1244   -0.1724   -0.5319 C   0  0  0  0  0  0  0  0  0  0  0  0
    0.8825   -1.1361    0.3808 C   0  0  0  0  0  0  0  0  0  0  0  0
   -0.4690   -0.7801    0.8712 C   0  0  0  0  0  0  0  0  0  0  0  0
   -0.4181    0.7168    0.9556 C   0  0  0  0  0  0  0  0  0  0  0  0
   -1.8650    0.6946    0.5496 C   0  0  0  0  0  0  0  0  0  0  0  0
   -1.2299   -0.3341   -0.3375 C   0  0  0  0  0  0  0  0  0  0  0  0
   -0.0957    0.6349   -0.5036 C   0  0  0  0  0  0  0  0  0  0  0  0
    2.4152    0.7927   -2.0303 H   0  0  0  0  0  0  0  0  0  0  0  0
    1.5315   -1.9544    0.6652 H   0  0  0  0  0  0  0  0  0  0  0  0
   -0.9327   -1.3511    1.6324 H   0  0  0  0  0  0  0  0  0  0  0  0
    0.0142    1.2798    1.6576 H   0  0  0  0  0  0  0  0  0  0  0  0
   -2.4787    0.2456    1.3461 H   0  0  0  0  0  0  0  0  0  0  0  0
   -2.2413    1.6058    0.0712 H   0  0  0  0  0  0  0  0  0  0  0  0
   -1.6634   -0.8962   -1.0400 H   0  0  0  0  0  0  0  0  0  0  0  0
   -0.2078    1.4845   -1.1283 H   0  0  0  0  0  0  0  0  0  0  0  0
  1  2  2  0
  2  3  1  0
  3  4  2  0
  4  5  1  0
  5  6  1  0
  6  7  1  0
  7  8  1  0
  8  9  1  0
  9  3  1  0
  8  5  1  0
  9  6  1  0
  2 10  1  0
  4 11  1  0
  5 12  1  0
  6 13  1  0
  7 14  1  0
  7 15  1  0
  8 16  1  0
  9 17  1  0
M  END
