
     RDKit          3D

 19 19  0  0  0  0  0  0  0  0999 V2000
   -3.5010   -1.0329    0.1998 O   0  0  0  0  0  0  0  0  0  0  0  0
   -2.3603   -0.7415    0.5183 C   0  0  0  0  0  0  0  0  0  0  0  0
   -1.2620   -0.7731   -0.4579 C   0  0  0  0  0  0  0  0  0  0  0  0
    0.0393   -0.3678    0.2005 C   0  0  0  0  0  0  0  0  0  0  0  0
   -0.0496    1.0375    0.7682 C   0  0  0  0  0  0  0  0  0  0  0  0
   -0.3307    1.8937   -0.3103 O   0  0  0  0  0  0  0  0  0  0  0  0
    1.1483   -0.5263   -0.7781 C   0  0  0  0  0  0  0  0  0  0  0  0
    2.5219   -0.1761   -0.3193 C   0  0  0  0  0  0  0  0  0  0  0  0
    1.7822    0.6092   -1.3033 O   0  0  0  0  0  0  0  0  0  0  0  0
   -2.1640   -0.4552    1.5433 H   0  0  0  0  0  0  0  0  0  0  0  0
   -1.1063   -1.8018   -0.8530 H   0  0  0  0  0  0  0  0  0  0  0  0
   -1.5255   -0.1215   -1.3107 H   0  0  0  0  0  0  0  0  0  0  0  0
    0.2115   -1.0579    1.0470 H   0  0  0  0  0  0  0  0  0  0  0  0
    0.9422    1.3019    1.1692 H   0  0  0  0  0  0  0  0  0  0  0  0
   -0.8439    1.0995    1.5382 H   0  0  0  0  0  0  0  0  0  0  0  0
   -0.5869    2.7961    0.0529 H   0  0  0  0  0  0  0  0  0  0  0  0
    1.0520   -1.3343   -1.5244 H   0  0  0  0  0  0  0  0  0  0  0  0
    2.6841    0.4255    0.5749 H   0  0  0  0  0  0  0  0  0  0  0  0
    3.3486   -0.7749   -0.7555 H   0  0  0  0  0  0  0  0  0  0  0  0
  1  2  2  0
  2  3  1  0
  3  4  1  0
  4  5  1  0
  5  6  1  0
  4  7  1  0
  7  8  1  0
  8  9  1  0
  9  7  1  0
  2 10  1  0
  3 11  1  0
  3 12  1  0
  4 13  1  0
  5 14  1  0
  5 15  1  0
  6 16  1  0
  7 17  1  0
  8 18  1  0
  8 19  1  0
M  END
