
     RDKit          3D

 13 14  0  0  0  0  0  0  0  0999 V2000
   -2.8453    0.2818    0.1689 O   0  0  0  0  0  0  0  0  0  0  0  0
   -1.8605   -0.2703   -0.2986 C   0  0  0  0  0  0  0  0  0  0  0  0
   -0.5255    0.2389    0.1102 C   0  0  0  0  0  0  0  0  0  0  0  0
   -0.4924    1.5326    0.6654 O   0  0  0  0  0  0  0  0  0  0  0  0
    0.3452   -0.8006    0.7551 C   0  0  0  0  0  0  0  0  0  0  0  0
    1.6573   -0.4965    1.1498 O   0  0  0  0  0  0  0  0  0  0  0  0
    1.9786    0.2636    0.0162 C   0  0  0  0  0  0  0  0  0  0  0  0
    2.9778    0.9693   -0.2354 O   0  0  0  0  0  0  0  0  0  0  0  0
    0.7074   -0.1745   -0.5732 C   0  0  0  0  0  0  0  0  0  0  0  0
   -1.9687   -1.1002   -0.9860 H   0  0  0  0  0  0  0  0  0  0  0  0
   -0.7122    2.2252   -0.0021 H   0  0  0  0  0  0  0  0  0  0  0  0
    0.0439   -1.8653    0.7103 H   0  0  0  0  0  0  0  0  0  0  0  0
    0.6944   -0.8040   -1.4805 H   0  0  0  0  0  0  0  0  0  0  0  0
  1  2  2  0
  2  3  1  0
  3  4  1  0
  3  5  1  0
  5  6  1  0
  6  7  1  0
  7  8  2  0
  7  9  1  0
  9  3  1  0
  9  5  1  0
  2 10  1  0
  4 11  1  0
  5 12  1  0
  9 13  1  0
M  END
