
     RDKit          3D

 19 20  0  0  0  0  0  0  0  0999 V2000
    2.8340    1.4681   -1.0489 O   0  0  0  0  0  0  0  0  0  0  0  0
    2.7738    0.7294   -0.0939 C   0  0  0  0  0  0  0  0  0  0  0  0
    1.9154   -0.4603   -0.1322 C   0  0  0  0  0  0  0  0  0  0  0  0
    0.4716   -0.1390    0.0706 C   0  0  0  0  0  0  0  0  0  0  0  0
    0.0104    1.0925    0.2653 C   0  0  0  0  0  0  0  0  0  0  0  0
   -1.4528    1.1085    0.4352 C   0  0  0  0  0  0  0  0  0  0  0  0
   -1.8061   -0.3494    0.4984 C   0  0  0  0  0  0  0  0  0  0  0  0
   -1.7724   -1.0619   -0.8158 C   0  0  0  0  0  0  0  0  0  0  0  0
   -0.6101   -1.1339    0.0803 C   0  0  0  0  0  0  0  0  0  0  0  0
    3.3541    0.9536    0.7800 H   0  0  0  0  0  0  0  0  0  0  0  0
    2.2296   -1.1628    0.6868 H   0  0  0  0  0  0  0  0  0  0  0  0
    2.0617   -0.9912   -1.1172 H   0  0  0  0  0  0  0  0  0  0  0  0
    0.6125    2.0152    0.3025 H   0  0  0  0  0  0  0  0  0  0  0  0
   -1.7870    1.6575    1.3409 H   0  0  0  0  0  0  0  0  0  0  0  0
   -1.8985    1.5399   -0.5000 H   0  0  0  0  0  0  0  0  0  0  0  0
   -2.3855   -0.7483    1.3506 H   0  0  0  0  0  0  0  0  0  0  0  0
   -1.7690   -0.4364   -1.7455 H   0  0  0  0  0  0  0  0  0  0  0  0
   -2.3940   -1.9549   -0.9131 H   0  0  0  0  0  0  0  0  0  0  0  0
   -0.3880   -2.1267    0.5559 H   0  0  0  0  0  0  0  0  0  0  0  0
  1  2  2  0
  2  3  1  0
  3  4  1  0
  4  5  2  0
  5  6  1  0
  6  7  1  0
  7  8  1  0
  8  9  1  0
  9  4  1  0
  9  7  1  0
  2 10  1  0
  3 11  1  0
  3 12  1  0
  5 13  1  0
  6 14  1  0
  6 15  1  0
  7 16  1  0
  8 17  1  0
  8 18  1  0
  9 19  1  0
M  END
