
     RDKit          3D

 19 19  0  0  0  0  0  0  0  0999 V2000
   -2.8890    0.1342    1.5255 O   0  0  0  0  0  0  0  0  0  0  0  0
   -2.2459    0.5682    0.5845 C   0  0  0  0  0  0  0  0  0  0  0  0
   -0.8257    0.2285    0.4509 C   0  0  0  0  0  0  0  0  0  0  0  0
   -0.0726    1.2473   -0.4125 C   0  0  0  0  0  0  0  0  0  0  0  0
    1.3999    0.9601   -0.2289 C   0  0  0  0  0  0  0  0  0  0  0  0
    1.7156   -0.4662   -0.3670 C   0  0  0  0  0  0  0  0  0  0  0  0
    2.7358   -0.8374   -0.9257 O   0  0  0  0  0  0  0  0  0  0  0  0
    0.8208   -1.5356    0.1601 C   0  0  0  0  0  0  0  0  0  0  0  0
   -0.5955   -1.1192   -0.2007 C   0  0  0  0  0  0  0  0  0  0  0  0
   -2.7389    1.1938   -0.1295 H   0  0  0  0  0  0  0  0  0  0  0  0
   -0.3067    0.2620    1.4449 H   0  0  0  0  0  0  0  0  0  0  0  0
   -0.3049    2.2751   -0.0990 H   0  0  0  0  0  0  0  0  0  0  0  0
   -0.3051    1.0595   -1.4766 H   0  0  0  0  0  0  0  0  0  0  0  0
    1.9752    1.5446   -1.0000 H   0  0  0  0  0  0  0  0  0  0  0  0
    1.7277    1.3830    0.7588 H   0  0  0  0  0  0  0  0  0  0  0  0
    1.0808   -2.5245   -0.2139 H   0  0  0  0  0  0  0  0  0  0  0  0
    0.8615   -1.5483    1.2757 H   0  0  0  0  0  0  0  0  0  0  0  0
   -0.6895   -0.9706   -1.2960 H   0  0  0  0  0  0  0  0  0  0  0  0
   -1.3435   -1.8545    0.1494 H   0  0  0  0  0  0  0  0  0  0  0  0
  1  2  2  0
  2  3  1  0
  3  4  1  0
  4  5  1  0
  5  6  1  0
  6  7  2  0
  6  8  1  0
  8  9  1  0
  9  3  1  0
  2 10  1  0
  3 11  1  0
  4 12  1  0
  4 13  1  0
  5 14  1  0
  5 15  1  0
  8 16  1  0
  8 17  1  0
  9 18  1  0
  9 19  1  0
M  END
