
     RDKit          3D

 17 17  0  0  0  0  0  0  0  0999 V2000
    2.6824   -0.1519    1.6824 O   0  0  0  0  0  0  0  0  0  0  0  0
    2.3570    0.2008    0.5609 C   0  0  0  0  0  0  0  0  0  0  0  0
    1.1877   -0.3721   -0.1614 C   0  0  0  0  0  0  0  0  0  0  0  0
    1.1056    0.2567   -1.4141 O   0  0  0  0  0  0  0  0  0  0  0  0
   -0.0495   -0.1148    0.6309 C   0  0  0  0  0  0  0  0  0  0  0  0
   -1.3843   -0.5656    0.1713 C   0  0  0  0  0  0  0  0  0  0  0  0
   -2.3492   -0.7786    1.1690 O   0  0  0  0  0  0  0  0  0  0  0  0
   -1.0104    0.9125    0.0044 C   0  0  0  0  0  0  0  0  0  0  0  0
   -0.7799    1.3224   -1.2904 O   0  0  0  0  0  0  0  0  0  0  0  0
    2.9756    0.9676    0.1098 H   0  0  0  0  0  0  0  0  0  0  0  0
    1.3247   -1.4518   -0.3783 H   0  0  0  0  0  0  0  0  0  0  0  0
    0.9347   -0.3744   -2.1387 H   0  0  0  0  0  0  0  0  0  0  0  0
    0.1339   -0.0304    1.7317 H   0  0  0  0  0  0  0  0  0  0  0  0
   -1.4537   -1.1727   -0.7487 H   0  0  0  0  0  0  0  0  0  0  0  0
   -2.6647   -1.6989    1.1942 H   0  0  0  0  0  0  0  0  0  0  0  0
   -1.4364    1.6407    0.7260 H   0  0  0  0  0  0  0  0  0  0  0  0
   -1.5735    1.4104   -1.8490 H   0  0  0  0  0  0  0  0  0  0  0  0
  1  2  2  0
  2  3  1  0
  3  4  1  0
  3  5  1  0
  5  6  1  0
  6  7  1  0
  6  8  1  0
  8  9  1  0
  8  5  1  0
  2 10  1  0
  3 11  1  0
  4 12  1  0
  5 13  1  0
  6 14  1  0
  7 15  1  0
  8 16  1  0
  9 17  1  0
M  END
