
     RDKit          3D

 19 19  0  0  0  0  0  0  0  0999 V2000
   -3.0196    0.8144    1.5379 O   0  0  0  0  0  0  0  0  0  0  0  0
   -3.0002    0.3538    0.4231 C   0  0  0  0  0  0  0  0  0  0  0  0
   -1.7719   -0.2736   -0.0896 C   0  0  0  0  0  0  0  0  0  0  0  0
   -0.9457    0.6172   -1.0111 C   0  0  0  0  0  0  0  0  0  0  0  0
    0.1435    0.3737   -0.0379 C   0  0  0  0  0  0  0  0  0  0  0  0
    1.2252   -0.5902   -0.4458 C   0  0  0  0  0  0  0  0  0  0  0  0
    2.2078   -0.6543    0.7281 C   0  0  0  0  0  0  0  0  0  0  0  0
    2.6968    0.6361    0.9177 O   0  0  0  0  0  0  0  0  0  0  0  0
   -0.7514   -0.2464    0.8321 O   0  0  0  0  0  0  0  0  0  0  0  0
   -3.8808    0.4051   -0.1880 H   0  0  0  0  0  0  0  0  0  0  0  0
   -1.9301   -1.2420   -0.6102 H   0  0  0  0  0  0  0  0  0  0  0  0
   -1.3083    1.6845   -0.9981 H   0  0  0  0  0  0  0  0  0  0  0  0
   -0.8353    0.2648   -2.0317 H   0  0  0  0  0  0  0  0  0  0  0  0
    0.5538    1.3007    0.4211 H   0  0  0  0  0  0  0  0  0  0  0  0
    1.7417   -0.3076   -1.3668 H   0  0  0  0  0  0  0  0  0  0  0  0
    0.8149   -1.6093   -0.6015 H   0  0  0  0  0  0  0  0  0  0  0  0
    1.6100   -0.8928    1.6418 H   0  0  0  0  0  0  0  0  0  0  0  0
    2.9939   -1.4021    0.5661 H   0  0  0  0  0  0  0  0  0  0  0  0
    3.4556    0.7680    0.3127 H   0  0  0  0  0  0  0  0  0  0  0  0
  1  2  2  0
  2  3  1  0
  3  4  1  0
  4  5  1  0
  5  6  1  0
  6  7  1  0
  7  8  1  0
  5  9  1  0
  9  3  1  0
  2 10  1  0
  3 11  1  0
  4 12  1  0
  4 13  1  0
  5 14  1  0
  6 15  1  0
  6 16  1  0
  7 17  1  0
  7 18  1  0
  8 19  1  0
M  END
