
     RDKit          3D

 23 22  0  0  0  0  0  0  0  0999 V2000
   -3.0279    1.8783   -0.6273 O   0  0  0  0  0  0  0  0  0  0  0  0
   -2.7872    1.4162    0.4664 C   0  0  0  0  0  0  0  0  0  0  0  0
   -1.8855    0.2454    0.5638 C   0  0  0  0  0  0  0  0  0  0  0  0
   -1.4141   -0.1666   -0.8135 C   0  0  0  0  0  0  0  0  0  0  0  0
   -0.4964   -1.3596   -0.7041 C   0  0  0  0  0  0  0  0  0  0  0  0
    0.7237   -1.1040    0.1276 C   0  0  0  0  0  0  0  0  0  0  0  0
    1.5052    0.0237   -0.5015 C   0  0  0  0  0  0  0  0  0  0  0  0
    2.7588    0.3309    0.2922 C   0  0  0  0  0  0  0  0  0  0  0  0
    2.4931    0.7081    1.5933 O   0  0  0  0  0  0  0  0  0  0  0  0
   -3.2010    1.8198    1.3766 H   0  0  0  0  0  0  0  0  0  0  0  0
   -2.4798   -0.5956    1.0000 H   0  0  0  0  0  0  0  0  0  0  0  0
   -1.0472    0.4197    1.2525 H   0  0  0  0  0  0  0  0  0  0  0  0
   -0.9474    0.6791   -1.3513 H   0  0  0  0  0  0  0  0  0  0  0  0
   -2.3315   -0.4525   -1.4089 H   0  0  0  0  0  0  0  0  0  0  0  0
   -0.2100   -1.6521   -1.7351 H   0  0  0  0  0  0  0  0  0  0  0  0
   -1.0974   -2.2223   -0.3146 H   0  0  0  0  0  0  0  0  0  0  0  0
    0.4918   -0.9160    1.1863 H   0  0  0  0  0  0  0  0  0  0  0  0
    1.3211   -2.0487    0.1138 H   0  0  0  0  0  0  0  0  0  0  0  0
    0.9097    0.9487   -0.5941 H   0  0  0  0  0  0  0  0  0  0  0  0
    1.8311   -0.2863   -1.5129 H   0  0  0  0  0  0  0  0  0  0  0  0
    3.2458    1.2000   -0.2145 H   0  0  0  0  0  0  0  0  0  0  0  0
    3.4209   -0.5361    0.2067 H   0  0  0  0  0  0  0  0  0  0  0  0
    2.2241    1.6701    1.5985 H   0  0  0  0  0  0  0  0  0  0  0  0
  1  2  2  0
  2  3  1  0
  3  4  1  0
  4  5  1  0
  5  6  1  0
  6  7  1  0
  7  8  1  0
  8  9  1  0
  2 10  1  0
  3 11  1  0
  3 12  1  0
  4 13  1  0
  4 14  1  0
  5 15  1  0
  5 16  1  0
  6 17  1  0
  6 18  1  0
  7 19  1  0
  7 20  1  0
  8 21  1  0
  8 22  1  0
  9 23  1  0
M  END
