
     RDKit          3D

 15 15  0  0  0  0  0  0  0  0999 V2000
   -1.4956   -1.5531    0.7123 O   0  0  0  0  0  0  0  0  0  0  0  0
   -1.7945   -0.4401    0.3725 C   0  0  0  0  0  0  0  0  0  0  0  0
   -0.7592    0.6065    0.3583 C   0  0  0  0  0  0  0  0  0  0  0  0
   -1.2406    1.8408   -0.0532 O   0  0  0  0  0  0  0  0  0  0  0  0
    0.3407    0.1163   -0.5953 C   0  0  0  0  0  0  0  0  0  0  0  0
    1.1636   -0.9515    0.1006 C   0  0  0  0  0  0  0  0  0  0  0  0
    2.2046    0.0783    0.0616 C   0  0  0  0  0  0  0  0  0  0  0  0
    3.3973    0.2166    0.5010 O   0  0  0  0  0  0  0  0  0  0  0  0
    1.4374    0.9670   -0.6753 O   0  0  0  0  0  0  0  0  0  0  0  0
   -2.7945   -0.2092    0.0845 H   0  0  0  0  0  0  0  0  0  0  0  0
   -0.3531    0.7316    1.3769 H   0  0  0  0  0  0  0  0  0  0  0  0
   -2.1744    1.8292   -0.3456 H   0  0  0  0  0  0  0  0  0  0  0  0
   -0.0250   -0.1664   -1.5810 H   0  0  0  0  0  0  0  0  0  0  0  0
    1.3016   -1.8174   -0.5745 H   0  0  0  0  0  0  0  0  0  0  0  0
    0.7916   -1.2487    1.0828 H   0  0  0  0  0  0  0  0  0  0  0  0
  1  2  2  0
  2  3  1  0
  3  4  1  0
  3  5  1  0
  5  6  1  0
  6  7  1  0
  7  8  2  0
  7  9  1  0
  9  5  1  0
  2 10  1  0
  3 11  1  0
  4 12  1  0
  5 13  1  0
  6 14  1  0
  6 15  1  0
M  END
