
     RDKit          3D

 14 15  0  0  0  0  0  0  0  0999 V2000
    2.8450   -0.4090   -0.1582 O   0  0  0  0  0  0  0  0  0  0  0  0
    1.8981    0.0311    0.4694 C   0  0  0  0  0  0  0  0  0  0  0  0
    0.6407    0.3736   -0.2366 C   0  0  0  0  0  0  0  0  0  0  0  0
    0.5144    0.2076   -1.5855 O   0  0  0  0  0  0  0  0  0  0  0  0
   -0.0614   -0.8218   -0.8949 C   0  0  0  0  0  0  0  0  0  0  0  0
   -1.1760   -0.6116    0.0744 C   0  0  0  0  0  0  0  0  0  0  0  0
   -0.5901    0.7100    0.5288 C   0  0  0  0  0  0  0  0  0  0  0  0
   -1.3096    1.7472   -0.0814 O   0  0  0  0  0  0  0  0  0  0  0  0
    1.9248    0.1901    1.5420 H   0  0  0  0  0  0  0  0  0  0  0  0
    0.4662   -1.8020   -0.8731 H   0  0  0  0  0  0  0  0  0  0  0  0
   -2.1947   -0.5926   -0.2998 H   0  0  0  0  0  0  0  0  0  0  0  0
   -1.1094   -1.3383    0.9328 H   0  0  0  0  0  0  0  0  0  0  0  0
   -0.4625    0.8102    1.6202 H   0  0  0  0  0  0  0  0  0  0  0  0
   -1.3854    1.5054   -1.0381 H   0  0  0  0  0  0  0  0  0  0  0  0
  1  2  2  0
  2  3  1  0
  3  4  1  0
  4  5  1  0
  5  6  1  0
  6  7  1  0
  7  8  1  0
  5  3  1  0
  7  3  1  0
  2  9  1  0
  5 10  1  0
  6 11  1  0
  6 12  1  0
  7 13  1  0
  8 14  1  0
M  END
