
     RDKit          3D

 19 19  0  0  0  0  0  0  0  0999 V2000
    2.5411    1.9260    0.1178 O   0  0  0  0  0  0  0  0  0  0  0  0
    2.0498    0.9604   -0.4528 C   0  0  0  0  0  0  0  0  0  0  0  0
    2.1060   -0.3322    0.2728 C   0  0  0  0  0  0  0  0  0  0  0  0
    0.8028   -1.0565   -0.0061 C   0  0  0  0  0  0  0  0  0  0  0  0
   -0.3015   -0.1634    0.5173 C   0  0  0  0  0  0  0  0  0  0  0  0
   -0.3062    1.0631   -0.1156 O   0  0  0  0  0  0  0  0  0  0  0  0
   -1.5404    0.8252   -0.7179 C   0  0  0  0  0  0  0  0  0  0  0  0
   -1.6947   -0.4635    0.0953 C   0  0  0  0  0  0  0  0  0  0  0  0
   -2.5629   -0.3403    1.1867 O   0  0  0  0  0  0  0  0  0  0  0  0
    1.5894    0.9950   -1.4322 H   0  0  0  0  0  0  0  0  0  0  0  0
    2.0741   -0.1376    1.3866 H   0  0  0  0  0  0  0  0  0  0  0  0
    2.9872   -0.9342   -0.0017 H   0  0  0  0  0  0  0  0  0  0  0  0
    0.7437   -1.1793   -1.1146 H   0  0  0  0  0  0  0  0  0  0  0  0
    0.8008   -2.0529    0.4814 H   0  0  0  0  0  0  0  0  0  0  0  0
   -0.1517   -0.0031    1.6103 H   0  0  0  0  0  0  0  0  0  0  0  0
   -2.3263    1.5733   -0.4880 H   0  0  0  0  0  0  0  0  0  0  0  0
   -1.4810    0.6294   -1.8067 H   0  0  0  0  0  0  0  0  0  0  0  0
   -1.8961   -1.3597   -0.4894 H   0  0  0  0  0  0  0  0  0  0  0  0
   -3.4342    0.0505    0.9569 H   0  0  0  0  0  0  0  0  0  0  0  0
  1  2  2  0
  2  3  1  0
  3  4  1  0
  4  5  1  0
  5  6  1  0
  6  7  1  0
  7  8  1  0
  8  9  1  0
  8  5  1  0
  2 10  1  0
  3 11  1  0
  3 12  1  0
  4 13  1  0
  4 14  1  0
  5 15  1  0
  7 16  1  0
  7 17  1  0
  8 18  1  0
  9 19  1  0
M  END
