
     RDKit          3D

 17 18  0  0  0  0  0  0  0  0999 V2000
    2.5088   -0.7910    1.5023 O   0  0  0  0  0  0  0  0  0  0  0  0
    1.5898   -0.0664    1.1900 C   0  0  0  0  0  0  0  0  0  0  0  0
    0.7520   -0.3062    0.0140 C   0  0  0  0  0  0  0  0  0  0  0  0
    1.1891   -1.4734   -0.6520 O   0  0  0  0  0  0  0  0  0  0  0  0
    0.7521    0.8956   -0.9455 C   0  0  0  0  0  0  0  0  0  0  0  0
   -0.7662    0.9796   -0.8197 C   0  0  0  0  0  0  0  0  0  0  0  0
   -0.7037   -0.1486    0.1368 C   0  0  0  0  0  0  0  0  0  0  0  0
   -1.6392   -0.6062    1.0081 C   0  0  0  0  0  0  0  0  0  0  0  0
   -1.5328   -1.2941   -0.3098 O   0  0  0  0  0  0  0  0  0  0  0  0
    1.3900    0.7901    1.8141 H   0  0  0  0  0  0  0  0  0  0  0  0
    0.5085   -1.6924   -1.3469 H   0  0  0  0  0  0  0  0  0  0  0  0
    1.2037    1.7893   -0.4610 H   0  0  0  0  0  0  0  0  0  0  0  0
    1.1275    0.6758   -1.9482 H   0  0  0  0  0  0  0  0  0  0  0  0
   -1.1355    1.9166   -0.3517 H   0  0  0  0  0  0  0  0  0  0  0  0
   -1.2128    0.7832   -1.8080 H   0  0  0  0  0  0  0  0  0  0  0  0
   -2.6279   -0.1309    1.1466 H   0  0  0  0  0  0  0  0  0  0  0  0
   -1.4034   -1.3212    1.8310 H   0  0  0  0  0  0  0  0  0  0  0  0
  1  2  2  0
  2  3  1  0
  3  4  1  0
  3  5  1  0
  5  6  1  0
  6  7  1  0
  7  8  1  0
  8  9  1  0
  7  3  1  0
  9  7  1  0
  2 10  1  0
  4 11  1  0
  5 12  1  0
  5 13  1  0
  6 14  1  0
  6 15  1  0
  8 16  1  0
  8 17  1  0
M  END
