
     RDKit          3D

 17 18  0  0  0  0  0  0  0  0999 V2000
   -2.4034    1.3938    0.5258 O   0  0  0  0  0  0  0  0  0  0  0  0
   -1.4192    0.8418    0.9943 C   0  0  0  0  0  0  0  0  0  0  0  0
   -0.4877    0.1980    0.0778 C   0  0  0  0  0  0  0  0  0  0  0  0
    0.3383    1.1236   -0.7749 C   0  0  0  0  0  0  0  0  0  0  0  0
    1.6620    0.9633   -0.4076 O   0  0  0  0  0  0  0  0  0  0  0  0
    1.8223   -0.2953    0.1128 C   0  0  0  0  0  0  0  0  0  0  0  0
    0.4835   -0.7839    0.5830 C   0  0  0  0  0  0  0  0  0  0  0  0
    0.0330   -1.8018   -0.2871 O   0  0  0  0  0  0  0  0  0  0  0  0
   -1.0672   -0.9984   -0.6120 C   0  0  0  0  0  0  0  0  0  0  0  0
   -1.3182    0.8781    2.0817 H   0  0  0  0  0  0  0  0  0  0  0  0
    0.1637    1.0120   -1.8542 H   0  0  0  0  0  0  0  0  0  0  0  0
    0.0660    2.1811   -0.5251 H   0  0  0  0  0  0  0  0  0  0  0  0
    2.2554   -0.9409   -0.7030 H   0  0  0  0  0  0  0  0  0  0  0  0
    2.5758   -0.3466    0.9399 H   0  0  0  0  0  0  0  0  0  0  0  0
    0.4231   -1.0888    1.6449 H   0  0  0  0  0  0  0  0  0  0  0  0
   -1.9624   -1.4014   -0.0806 H   0  0  0  0  0  0  0  0  0  0  0  0
   -1.1649   -0.9347   -1.7156 H   0  0  0  0  0  0  0  0  0  0  0  0
  1  2  2  0
  2  3  1  0
  3  4  1  0
  4  5  1  0
  5  6  1  0
  6  7  1  0
  7  8  1  0
  8  9  1  0
  7  3  1  0
  9  3  1  0
  2 10  1  0
  4 11  1  0
  4 12  1  0
  6 13  1  0
  6 14  1  0
  7 15  1  0
  9 16  1  0
  9 17  1  0
M  END
