
     RDKit          3D

 17 16  0  0  0  0  0  0  0  0999 V2000
    3.8137    0.2216    0.9153 O   0  0  0  0  0  0  0  0  0  0  0  0
    2.8732   -0.0784    0.2005 C   0  0  0  0  0  0  0  0  0  0  0  0
    1.5074    0.1904    0.6919 C   0  0  0  0  0  0  0  0  0  0  0  0
    0.4509   -0.2262   -0.2837 C   0  0  0  0  0  0  0  0  0  0  0  0
   -0.9102    0.0866    0.3037 C   0  0  0  0  0  0  0  0  0  0  0  0
   -2.0319   -0.3066   -0.6247 C   0  0  0  0  0  0  0  0  0  0  0  0
   -3.2269    0.0245    0.0136 O   0  0  0  0  0  0  0  0  0  0  0  0
    3.0922   -0.5279   -0.7606 H   0  0  0  0  0  0  0  0  0  0  0  0
    1.4211    1.2844    0.8542 H   0  0  0  0  0  0  0  0  0  0  0  0
    1.2915   -0.3085    1.6590 H   0  0  0  0  0  0  0  0  0  0  0  0
    0.5448    0.3977   -1.2103 H   0  0  0  0  0  0  0  0  0  0  0  0
    0.5484   -1.2733   -0.5796 H   0  0  0  0  0  0  0  0  0  0  0  0
   -1.0738   -0.4333    1.2689 H   0  0  0  0  0  0  0  0  0  0  0  0
   -1.0225    1.1724    0.4988 H   0  0  0  0  0  0  0  0  0  0  0  0
   -2.0120   -1.4202   -0.6971 H   0  0  0  0  0  0  0  0  0  0  0  0
   -2.0114    0.1953   -1.5895 H   0  0  0  0  0  0  0  0  0  0  0  0
   -3.2545    1.0014    0.2252 H   0  0  0  0  0  0  0  0  0  0  0  0
  1  2  2  0
  2  3  1  0
  3  4  1  0
  4  5  1  0
  5  6  1  0
  6  7  1  0
  2  8  1  0
  3  9  1  0
  3 10  1  0
  4 11  1  0
  4 12  1  0
  5 13  1  0
  5 14  1  0
  6 15  1  0
  6 16  1  0
  7 17  1  0
M  END
