
     RDKit          3D

 19 20  0  0  0  0  0  0  0  0999 V2000
    2.9760    0.1546    0.6325 O   0  0  0  0  0  0  0  0  0  0  0  0
    2.1770   -0.4640   -0.0854 C   0  0  0  0  0  0  0  0  0  0  0  0
    0.7814   -0.1679   -0.1295 C   0  0  0  0  0  0  0  0  0  0  0  0
    0.3338    0.7751   -1.1819 C   0  0  0  0  0  0  0  0  0  0  0  0
   -0.7350    1.4754   -0.7490 C   0  0  0  0  0  0  0  0  0  0  0  0
   -1.1500    0.7677    0.4982 C   0  0  0  0  0  0  0  0  0  0  0  0
   -1.4974   -0.6449    0.1003 C   0  0  0  0  0  0  0  0  0  0  0  0
   -0.1591   -1.3454   -0.1474 C   0  0  0  0  0  0  0  0  0  0  0  0
    0.2368    0.5395    1.1236 C   0  0  0  0  0  0  0  0  0  0  0  0
    2.5991   -1.2477   -0.6822 H   0  0  0  0  0  0  0  0  0  0  0  0
    0.7912    0.8936   -2.1610 H   0  0  0  0  0  0  0  0  0  0  0  0
   -1.1416    2.3324   -1.2348 H   0  0  0  0  0  0  0  0  0  0  0  0
   -1.8381    1.2772    1.1224 H   0  0  0  0  0  0  0  0  0  0  0  0
   -2.0414   -0.6059   -0.8617 H   0  0  0  0  0  0  0  0  0  0  0  0
   -2.1077   -1.1709    0.8434 H   0  0  0  0  0  0  0  0  0  0  0  0
    0.0026   -1.9933    0.7369 H   0  0  0  0  0  0  0  0  0  0  0  0
   -0.1488   -1.8926   -1.1010 H   0  0  0  0  0  0  0  0  0  0  0  0
    0.7524    1.4775    1.3199 H   0  0  0  0  0  0  0  0  0  0  0  0
    0.1687   -0.1605    1.9568 H   0  0  0  0  0  0  0  0  0  0  0  0
  1  2  2  0
  2  3  1  0
  3  4  1  0
  4  5  2  0
  5  6  1  0
  6  7  1  0
  7  8  1  0
  6  9  1  0
  8  3  1  0
  9  3  1  0
  2 10  1  0
  4 11  1  0
  5 12  1  0
  6 13  1  0
  7 14  1  0
  7 15  1  0
  8 16  1  0
  8 17  1  0
  9 18  1  0
  9 19  1  0
M  END
