
     RDKit          3D

 19 20  0  0  0  0  0  0  0  0999 V2000
    2.4478    0.6793    0.8050 O   0  0  0  0  0  0  0  0  0  0  0  0
    1.7535    0.6983   -0.2084 C   0  0  0  0  0  0  0  0  0  0  0  0
    0.4435    0.0302   -0.2720 C   0  0  0  0  0  0  0  0  0  0  0  0
   -0.6635    0.8987   -0.8514 C   0  0  0  0  0  0  0  0  0  0  0  0
   -1.1646    1.5379    0.4517 C   0  0  0  0  0  0  0  0  0  0  0  0
   -1.2919    0.3878    1.2452 O   0  0  0  0  0  0  0  0  0  0  0  0
   -0.1327   -0.3287    1.0726 C   0  0  0  0  0  0  0  0  0  0  0  0
   -0.3157   -1.7494    0.5471 C   0  0  0  0  0  0  0  0  0  0  0  0
    0.4210   -1.3831   -0.7470 C   0  0  0  0  0  0  0  0  0  0  0  0
    2.0869    1.2205   -1.1168 H   0  0  0  0  0  0  0  0  0  0  0  0
   -1.4664    0.2710   -1.3117 H   0  0  0  0  0  0  0  0  0  0  0  0
   -0.2828    1.6388   -1.5539 H   0  0  0  0  0  0  0  0  0  0  0  0
   -2.1038    2.0422    0.2594 H   0  0  0  0  0  0  0  0  0  0  0  0
   -0.3702    2.2088    0.7969 H   0  0  0  0  0  0  0  0  0  0  0  0
    0.5997   -0.2993    1.9021 H   0  0  0  0  0  0  0  0  0  0  0  0
    0.2547   -2.5136    1.0744 H   0  0  0  0  0  0  0  0  0  0  0  0
   -1.3772   -1.9802    0.3828 H   0  0  0  0  0  0  0  0  0  0  0  0
    1.4194   -1.8359   -0.8453 H   0  0  0  0  0  0  0  0  0  0  0  0
   -0.2577   -1.5235   -1.6308 H   0  0  0  0  0  0  0  0  0  0  0  0
  1  2  2  0
  2  3  1  0
  3  4  1  0
  4  5  1  0
  5  6  1  0
  6  7  1  0
  7  8  1  0
  8  9  1  0
  7  3  1  0
  9  3  1  0
  2 10  1  0
  4 11  1  0
  4 12  1  0
  5 13  1  0
  5 14  1  0
  7 15  1  0
  8 16  1  0
  8 17  1  0
  9 18  1  0
  9 19  1  0
M  END
