
     RDKit          3D

 17 16  0  0  0  0  0  0  0  0999 V2000
    2.7764    1.8422    0.9905 O   0  0  0  0  0  0  0  0  0  0  0  0
    2.7078    0.6796    1.3661 C   0  0  0  0  0  0  0  0  0  0  0  0
    2.5056   -0.4197    0.4207 C   0  0  0  0  0  0  0  0  0  0  0  0
    1.0808   -0.4977    0.1391 C   0  0  0  0  0  0  0  0  0  0  0  0
   -0.1271   -0.5852   -0.1025 C   0  0  0  0  0  0  0  0  0  0  0  0
   -1.5568   -0.7097   -0.3738 C   0  0  0  0  0  0  0  0  0  0  0  0
   -2.1475   -1.6411    0.5099 O   0  0  0  0  0  0  0  0  0  0  0  0
   -2.1804    0.6409    0.0051 C   0  0  0  0  0  0  0  0  0  0  0  0
   -1.5908    1.5634   -0.8755 O   0  0  0  0  0  0  0  0  0  0  0  0
    2.7998    0.4869    2.4179 H   0  0  0  0  0  0  0  0  0  0  0  0
    3.0778   -0.1930   -0.5256 H   0  0  0  0  0  0  0  0  0  0  0  0
    2.8762   -1.3990    0.8045 H   0  0  0  0  0  0  0  0  0  0  0  0
   -1.7094   -0.9623   -1.4258 H   0  0  0  0  0  0  0  0  0  0  0  0
   -1.6212   -1.5649    1.3529 H   0  0  0  0  0  0  0  0  0  0  0  0
   -3.2758    0.6384   -0.0458 H   0  0  0  0  0  0  0  0  0  0  0  0
   -1.8131    0.8433    1.0380 H   0  0  0  0  0  0  0  0  0  0  0  0
   -1.8024    1.2778   -1.7900 H   0  0  0  0  0  0  0  0  0  0  0  0
  1  2  2  0
  2  3  1  0
  3  4  1  0
  4  5  3  0
  5  6  1  0
  6  7  1  0
  6  8  1  0
  8  9  1  0
  2 10  1  0
  3 11  1  0
  3 12  1  0
  6 13  1  0
  7 14  1  0
  8 15  1  0
  8 16  1  0
  9 17  1  0
M  END
