
     RDKit          3D

 15 15  0  0  0  0  0  0  0  0999 V2000
    4.0903   -1.4086   -0.8364 O   0  0  0  0  0  0  0  0  0  0  0  0
    3.3677   -0.3976   -0.9759 C   0  0  0  0  0  0  0  0  0  0  0  0
    2.0798   -0.3444   -0.3301 C   0  0  0  0  0  0  0  0  0  0  0  0
    1.0046   -0.3172    0.2140 C   0  0  0  0  0  0  0  0  0  0  0  0
   -0.3128   -0.2617    0.8949 C   0  0  0  0  0  0  0  0  0  0  0  0
   -0.8895    1.1457    0.6908 C   0  0  0  0  0  0  0  0  0  0  0  0
   -2.2499    0.8682    0.6735 O   0  0  0  0  0  0  0  0  0  0  0  0
   -2.3922   -0.3821    0.0792 C   0  0  0  0  0  0  0  0  0  0  0  0
   -1.1879   -1.0367    0.1752 O   0  0  0  0  0  0  0  0  0  0  0  0
    3.7407    0.4181   -1.5881 H   0  0  0  0  0  0  0  0  0  0  0  0
   -0.2384   -0.5031    1.9581 H   0  0  0  0  0  0  0  0  0  0  0  0
   -0.5065    1.4815   -0.3011 H   0  0  0  0  0  0  0  0  0  0  0  0
   -0.6002    1.8242    1.5121 H   0  0  0  0  0  0  0  0  0  0  0  0
   -2.6717   -0.1865   -0.9926 H   0  0  0  0  0  0  0  0  0  0  0  0
   -3.2340   -0.8999    0.5800 H   0  0  0  0  0  0  0  0  0  0  0  0
  1  2  2  0
  2  3  1  0
  3  4  3  0
  4  5  1  0
  5  6  1  0
  6  7  1  0
  7  8  1  0
  8  9  1  0
  9  5  1  0
  2 10  1  0
  5 11  1  0
  6 12  1  0
  6 13  1  0
  8 14  1  0
  8 15  1  0
M  END
