
     RDKit          3D

 15 15  0  0  0  0  0  0  0  0999 V2000
    2.7656   -1.1193   -0.1742 O   0  0  0  0  0  0  0  0  0  0  0  0
    2.2380    0.0200   -0.1092 C   0  0  0  0  0  0  0  0  0  0  0  0
    0.8016    0.1213    0.0381 C   0  0  0  0  0  0  0  0  0  0  0  0
    0.2370    1.3136    0.1074 C   0  0  0  0  0  0  0  0  0  0  0  0
   -1.2067    1.4750    0.2560 C   0  0  0  0  0  0  0  0  0  0  0  0
   -1.6981    2.6300    0.3175 O   0  0  0  0  0  0  0  0  0  0  0  0
   -1.9777    0.3233    0.3232 O   0  0  0  0  0  0  0  0  0  0  0  0
   -1.4670   -0.8677   -0.2354 C   0  0  0  0  0  0  0  0  0  0  0  0
   -0.0255   -1.0978    0.1104 C   0  0  0  0  0  0  0  0  0  0  0  0
    2.8299    0.9347   -0.1605 H   0  0  0  0  0  0  0  0  0  0  0  0
    0.8298    2.2396    0.0562 H   0  0  0  0  0  0  0  0  0  0  0  0
   -1.6183   -0.8513   -1.3396 H   0  0  0  0  0  0  0  0  0  0  0  0
   -2.0611   -1.7145    0.2157 H   0  0  0  0  0  0  0  0  0  0  0  0
    0.3585   -1.9059   -0.5688 H   0  0  0  0  0  0  0  0  0  0  0  0
   -0.0059   -1.5012    1.1631 H   0  0  0  0  0  0  0  0  0  0  0  0
  1  2  2  0
  2  3  1  0
  3  4  2  0
  4  5  1  0
  5  6  2  0
  5  7  1  0
  7  8  1  0
  8  9  1  0
  9  3  1  0
  2 10  1  0
  4 11  1  0
  8 12  1  0
  8 13  1  0
  9 14  1  0
  9 15  1  0
M  END
