
     RDKit          3D

 16 15  0  0  0  0  0  0  0  0999 V2000
    3.1217    0.1368    1.6327 O   0  0  0  0  0  0  0  0  0  0  0  0
    2.7726   -0.4990    0.6645 C   0  0  0  0  0  0  0  0  0  0  0  0
    1.7243    0.0272   -0.2292 C   0  0  0  0  0  0  0  0  0  0  0  0
    0.3583   -0.1922    0.2812 C   0  0  0  0  0  0  0  0  0  0  0  0
    0.0854   -0.7450    1.3376 O   0  0  0  0  0  0  0  0  0  0  0  0
   -0.7839    0.2902   -0.5402 C   0  0  0  0  0  0  0  0  0  0  0  0
   -2.1208    0.0023    0.0907 C   0  0  0  0  0  0  0  0  0  0  0  0
   -2.2919    0.5819    1.3263 O   0  0  0  0  0  0  0  0  0  0  0  0
    3.2407   -1.4471    0.4733 H   0  0  0  0  0  0  0  0  0  0  0  0
    1.8797   -0.4675   -1.2340 H   0  0  0  0  0  0  0  0  0  0  0  0
    1.8664    1.1177   -0.4377 H   0  0  0  0  0  0  0  0  0  0  0  0
   -0.6655    1.3846   -0.6686 H   0  0  0  0  0  0  0  0  0  0  0  0
   -0.7480   -0.2428   -1.5058 H   0  0  0  0  0  0  0  0  0  0  0  0
   -2.8987    0.3810   -0.5912 H   0  0  0  0  0  0  0  0  0  0  0  0
   -2.2588   -1.0906    0.1982 H   0  0  0  0  0  0  0  0  0  0  0  0
   -3.2814    0.7623    1.4328 H   0  0  0  0  0  0  0  0  0  0  0  0
  1  2  2  0
  2  3  1  0
  3  4  1  0
  4  5  2  0
  4  6  1  0
  6  7  1  0
  7  8  1  0
  2  9  1  0
  3 10  1  0
  3 11  1  0
  6 12  1  0
  6 13  1  0
  7 14  1  0
  7 15  1  0
  8 16  1  0
M  END
