
     RDKit          3D

 17 18  0  0  0  0  0  0  0  0999 V2000
    2.3768    1.4890   -0.2610 O   0  0  0  0  0  0  0  0  0  0  0  0
    1.8376    0.7202    0.5188 C   0  0  0  0  0  0  0  0  0  0  0  0
    0.4117    0.3435    0.3984 C   0  0  0  0  0  0  0  0  0  0  0  0
    0.1137   -1.1121    0.2974 C   0  0  0  0  0  0  0  0  0  0  0  0
   -0.8842   -1.5881    1.1605 O   0  0  0  0  0  0  0  0  0  0  0  0
   -0.4533   -0.9002   -1.0759 C   0  0  0  0  0  0  0  0  0  0  0  0
   -0.1620    0.5719   -1.0203 C   0  0  0  0  0  0  0  0  0  0  0  0
   -0.5852    1.3876    0.1342 C   0  0  0  0  0  0  0  0  0  0  0  0
   -1.9155    1.2625    0.5111 O   0  0  0  0  0  0  0  0  0  0  0  0
    2.4424    0.3211    1.3063 H   0  0  0  0  0  0  0  0  0  0  0  0
    0.9818   -1.7647    0.3511 H   0  0  0  0  0  0  0  0  0  0  0  0
   -1.0263   -2.5397    0.9209 H   0  0  0  0  0  0  0  0  0  0  0  0
    0.1819   -1.4174   -1.8464 H   0  0  0  0  0  0  0  0  0  0  0  0
   -1.5306   -1.1126   -1.1753 H   0  0  0  0  0  0  0  0  0  0  0  0
    0.4845    1.0203   -1.7707 H   0  0  0  0  0  0  0  0  0  0  0  0
   -0.2173    2.4289    0.1546 H   0  0  0  0  0  0  0  0  0  0  0  0
   -2.0562    0.8900    1.3963 H   0  0  0  0  0  0  0  0  0  0  0  0
  1  2  2  0
  2  3  1  0
  3  4  1  0
  4  5  1  0
  4  6  1  0
  6  7  1  0
  7  8  1  0
  8  9  1  0
  7  3  1  0
  8  3  1  0
  2 10  1  0
  4 11  1  0
  5 12  1  0
  6 13  1  0
  6 14  1  0
  7 15  1  0
  8 16  1  0
  9 17  1  0
M  END
