
     RDKit          3D

 17 18  0  0  0  0  0  0  0  0999 V2000
    3.3266    1.1643    0.0174 O   0  0  0  0  0  0  0  0  0  0  0  0
    2.8890    0.0634    0.2473 C   0  0  0  0  0  0  0  0  0  0  0  0
    1.5151   -0.2981   -0.1493 C   0  0  0  0  0  0  0  0  0  0  0  0
    1.2676    0.0831   -1.5297 O   0  0  0  0  0  0  0  0  0  0  0  0
    0.5999    0.7548   -0.5133 C   0  0  0  0  0  0  0  0  0  0  0  0
   -0.9084    0.6129   -0.4233 C   0  0  0  0  0  0  0  0  0  0  0  0
   -1.4241    0.3271    0.9441 C   0  0  0  0  0  0  0  0  0  0  0  0
   -1.4716   -0.7228   -0.1350 C   0  0  0  0  0  0  0  0  0  0  0  0
   -2.7735   -1.0208   -0.5710 O   0  0  0  0  0  0  0  0  0  0  0  0
    3.5091   -0.6735    0.7515 H   0  0  0  0  0  0  0  0  0  0  0  0
    1.1685   -1.3306    0.0908 H   0  0  0  0  0  0  0  0  0  0  0  0
    0.9292    1.8140   -0.3017 H   0  0  0  0  0  0  0  0  0  0  0  0
   -1.4499    1.3132   -1.0838 H   0  0  0  0  0  0  0  0  0  0  0  0
   -2.3589    0.8633    1.2099 H   0  0  0  0  0  0  0  0  0  0  0  0
   -0.7607    0.1279    1.7935 H   0  0  0  0  0  0  0  0  0  0  0  0
   -0.8516   -1.6147   -0.0025 H   0  0  0  0  0  0  0  0  0  0  0  0
   -3.2065   -1.4636    0.2265 H   0  0  0  0  0  0  0  0  0  0  0  0
  1  2  2  0
  2  3  1  0
  3  4  1  0
  4  5  1  0
  5  6  1  0
  6  7  1  0
  7  8  1  0
  8  9  1  0
  5  3  1  0
  8  6  1  0
  2 10  1  0
  3 11  1  0
  5 12  1  0
  6 13  1  0
  7 14  1  0
  7 15  1  0
  8 16  1  0
  9 17  1  0
M  END
