
     RDKit          3D

 14 14  0  0  0  0  0  0  0  0999 V2000
   -2.0551    0.6293   -1.2265 O   0  0  0  0  0  0  0  0  0  0  0  0
   -2.1740   -0.2158   -0.3659 C   0  0  0  0  0  0  0  0  0  0  0  0
   -1.1042   -0.4200    0.6217 C   0  0  0  0  0  0  0  0  0  0  0  0
    0.0655    0.4905    0.4334 C   0  0  0  0  0  0  0  0  0  0  0  0
    0.7331    0.4158   -0.7637 O   0  0  0  0  0  0  0  0  0  0  0  0
    1.9779    0.2103   -0.1728 C   0  0  0  0  0  0  0  0  0  0  0  0
    1.2714   -0.0698    1.1044 C   0  0  0  0  0  0  0  0  0  0  0  0
    1.6039   -0.5470    2.1754 O   0  0  0  0  0  0  0  0  0  0  0  0
   -3.0745   -0.8104   -0.3399 H   0  0  0  0  0  0  0  0  0  0  0  0
   -1.5351   -0.1846    1.6373 H   0  0  0  0  0  0  0  0  0  0  0  0
   -0.7246   -1.4600    0.6510 H   0  0  0  0  0  0  0  0  0  0  0  0
   -0.1409    1.5476    0.6940 H   0  0  0  0  0  0  0  0  0  0  0  0
    2.5149   -0.6845   -0.5816 H   0  0  0  0  0  0  0  0  0  0  0  0
    2.6418    1.0985   -0.1649 H   0  0  0  0  0  0  0  0  0  0  0  0
  1  2  2  0
  2  3  1  0
  3  4  1  0
  4  5  1  0
  5  6  1  0
  6  7  1  0
  7  8  2  0
  7  4  1  0
  2  9  1  0
  3 10  1  0
  3 11  1  0
  4 12  1  0
  6 13  1  0
  6 14  1  0
M  END
