
     RDKit          3D

 17 19  0  0  0  0  0  0  0  0999 V2000
    3.2119    0.0363    0.3991 O   0  0  0  0  0  0  0  0  0  0  0  0
    2.4148    0.7552   -0.2498 C   0  0  0  0  0  0  0  0  0  0  0  0
    0.9691    0.5736   -0.1404 C   0  0  0  0  0  0  0  0  0  0  0  0
    0.0611    1.2843   -0.7860 C   0  0  0  0  0  0  0  0  0  0  0  0
   -1.3001    0.7883   -0.4020 C   0  0  0  0  0  0  0  0  0  0  0  0
   -1.5106   -0.6800   -0.2979 C   0  0  0  0  0  0  0  0  0  0  0  0
   -0.3358   -1.5891   -0.0273 C   0  0  0  0  0  0  0  0  0  0  0  0
    0.3105   -0.4543    0.7315 C   0  0  0  0  0  0  0  0  0  0  0  0
   -1.0537    0.1437    0.8745 C   0  0  0  0  0  0  0  0  0  0  0  0
    2.8276    1.5139   -0.8932 H   0  0  0  0  0  0  0  0  0  0  0  0
    0.2448    2.0804   -1.4691 H   0  0  0  0  0  0  0  0  0  0  0  0
   -2.1722    1.4179   -0.5326 H   0  0  0  0  0  0  0  0  0  0  0  0
   -2.5284   -1.0530   -0.3543 H   0  0  0  0  0  0  0  0  0  0  0  0
   -0.5729   -2.4167    0.6666 H   0  0  0  0  0  0  0  0  0  0  0  0
    0.1770   -1.9101   -0.9471 H   0  0  0  0  0  0  0  0  0  0  0  0
    0.8484   -0.7150    1.6392 H   0  0  0  0  0  0  0  0  0  0  0  0
   -1.5915    0.2245    1.7888 H   0  0  0  0  0  0  0  0  0  0  0  0
  1  2  2  0
  2  3  1  0
  3  4  2  0
  4  5  1  0
  5  6  1  0
  6  7  1  0
  7  8  1  0
  8  9  1  0
  8  3  1  0
  9  5  1  0
  9  6  1  0
  2 10  1  0
  4 11  1  0
  5 12  1  0
  6 13  1  0
  7 14  1  0
  7 15  1  0
  8 16  1  0
  9 17  1  0
M  END
