
     RDKit          3D

 14 15  0  0  0  0  0  0  0  0999 V2000
   -2.7752    0.6194    0.3668 O   0  0  0  0  0  0  0  0  0  0  0  0
   -1.7907    0.9238   -0.2600 C   0  0  0  0  0  0  0  0  0  0  0  0
   -0.5853    0.0384   -0.0429 C   0  0  0  0  0  0  0  0  0  0  0  0
    0.7095    0.6248    0.4225 C   0  0  0  0  0  0  0  0  0  0  0  0
    2.0227    0.1834   -0.0055 C   0  0  0  0  0  0  0  0  0  0  0  0
    1.5231    1.3969   -0.3973 O   0  0  0  0  0  0  0  0  0  0  0  0
   -0.7780   -1.4385   -0.0117 C   0  0  0  0  0  0  0  0  0  0  0  0
   -0.4609   -0.7993   -1.1884 O   0  0  0  0  0  0  0  0  0  0  0  0
   -1.6450    1.7095   -0.9467 H   0  0  0  0  0  0  0  0  0  0  0  0
    0.6517    1.0710    1.4969 H   0  0  0  0  0  0  0  0  0  0  0  0
    2.0600   -0.6994   -0.7010 H   0  0  0  0  0  0  0  0  0  0  0  0
    2.8743    0.2571    0.7474 H   0  0  0  0  0  0  0  0  0  0  0  0
    0.0050   -2.0930    0.3686 H   0  0  0  0  0  0  0  0  0  0  0  0
   -1.8113   -1.7939    0.1515 H   0  0  0  0  0  0  0  0  0  0  0  0
  1  2  2  0
  2  3  1  0
  3  4  1  0
  4  5  1  0
  5  6  1  0
  3  7  1  0
  7  8  1  0
  8  3  1  0
  6  4  1  0
  2  9  1  0
  4 10  1  0
  5 11  1  0
  5 12  1  0
  7 13  1  0
  7 14  1  0
M  END
