
     RDKit          3D

 15 14  0  0  0  0  0  0  0  0999 V2000
    3.5655    1.0321    0.7990 O   0  0  0  0  0  0  0  0  0  0  0  0
    2.9050    0.7549   -0.1779 C   0  0  0  0  0  0  0  0  0  0  0  0
    2.1789   -0.5328   -0.3007 C   0  0  0  0  0  0  0  0  0  0  0  0
    0.7259   -0.2544   -0.1577 C   0  0  0  0  0  0  0  0  0  0  0  0
   -0.4560   -0.0318   -0.0367 C   0  0  0  0  0  0  0  0  0  0  0  0
   -1.8890    0.2612    0.1016 C   0  0  0  0  0  0  0  0  0  0  0  0
   -2.4253    0.1800   -1.1777 O   0  0  0  0  0  0  0  0  0  0  0  0
   -2.5084   -0.7350    1.0228 C   0  0  0  0  0  0  0  0  0  0  0  0
   -3.3334   -1.5370    0.6379 O   0  0  0  0  0  0  0  0  0  0  0  0
    2.8709    1.5151   -0.9763 H   0  0  0  0  0  0  0  0  0  0  0  0
    2.3308   -1.0716   -1.2422 H   0  0  0  0  0  0  0  0  0  0  0  0
    2.5209   -1.1742    0.5603 H   0  0  0  0  0  0  0  0  0  0  0  0
   -2.0870    1.2476    0.5550 H   0  0  0  0  0  0  0  0  0  0  0  0
   -2.2411    1.0247   -1.6691 H   0  0  0  0  0  0  0  0  0  0  0  0
   -2.1578   -0.6789    2.0616 H   0  0  0  0  0  0  0  0  0  0  0  0
  1  2  2  0
  2  3  1  0
  3  4  1  0
  4  5  3  0
  5  6  1  0
  6  7  1  0
  6  8  1  0
  8  9  2  0
  2 10  1  0
  3 11  1  0
  3 12  1  0
  6 13  1  0
  7 14  1  0
  8 15  1  0
M  END
