
     RDKit          3D

 18 18  0  0  0  0  0  0  0  0999 V2000
   -2.9057    0.3257    1.8803 O   0  0  0  0  0  0  0  0  0  0  0  0
   -2.5551   -0.1436    0.8273 C   0  0  0  0  0  0  0  0  0  0  0  0
   -1.3200    0.2904    0.1456 C   0  0  0  0  0  0  0  0  0  0  0  0
   -0.7509    1.2677    0.9591 O   0  0  0  0  0  0  0  0  0  0  0  0
   -0.3099   -0.8281    0.0423 C   0  0  0  0  0  0  0  0  0  0  0  0
    0.9043   -0.3071   -0.6721 C   0  0  0  0  0  0  0  0  0  0  0  0
    1.6973    0.8000   -0.1391 C   0  0  0  0  0  0  0  0  0  0  0  0
    2.2529   -0.6211   -0.1510 C   0  0  0  0  0  0  0  0  0  0  0  0
   -3.1607   -0.9033    0.3681 H   0  0  0  0  0  0  0  0  0  0  0  0
   -1.5273    0.7331   -0.8604 H   0  0  0  0  0  0  0  0  0  0  0  0
   -1.4990    1.8251    1.3045 H   0  0  0  0  0  0  0  0  0  0  0  0
   -0.7415   -1.7123   -0.4966 H   0  0  0  0  0  0  0  0  0  0  0  0
   -0.0720   -1.1195    1.1034 H   0  0  0  0  0  0  0  0  0  0  0  0
    0.8452   -0.3083   -1.8154 H   0  0  0  0  0  0  0  0  0  0  0  0
    2.2827    1.4717   -0.8229 H   0  0  0  0  0  0  0  0  0  0  0  0
    1.4832    1.2415    0.8379 H   0  0  0  0  0  0  0  0  0  0  0  0
    2.2911   -1.1342    0.8273 H   0  0  0  0  0  0  0  0  0  0  0  0
    3.0856   -0.8778   -0.8146 H   0  0  0  0  0  0  0  0  0  0  0  0
  1  2  2  0
  2  3  1  0
  3  4  1  0
  3  5  1  0
  5  6  1  0
  6  7  1  0
  7  8  1  0
  8  6  1  0
  2  9  1  0
  3 10  1  0
  4 11  1  0
  5 12  1  0
  5 13  1  0
  6 14  1  0
  7 15  1  0
  7 16  1  0
  8 17  1  0
  8 18  1  0
M  END
