
     RDKit          3D

 21 21  0  0  0  0  0  0  0  0999 V2000
    3.4480    0.1377   -0.4697 O   0  0  0  0  0  0  0  0  0  0  0  0
    2.5263    0.6927    0.1034 C   0  0  0  0  0  0  0  0  0  0  0  0
    1.1245    0.5605   -0.4247 C   0  0  0  0  0  0  0  0  0  0  0  0
    0.7924   -0.8983   -0.5135 C   0  0  0  0  0  0  0  0  0  0  0  0
   -0.0588   -1.3798    0.6389 C   0  0  0  0  0  0  0  0  0  0  0  0
   -1.4117   -0.7598    0.6853 C   0  0  0  0  0  0  0  0  0  0  0  0
   -1.6732    0.2178   -0.4296 C   0  0  0  0  0  0  0  0  0  0  0  0
   -0.9560    1.5106   -0.0600 C   0  0  0  0  0  0  0  0  0  0  0  0
    0.3066    1.2765    0.4042 O   0  0  0  0  0  0  0  0  0  0  0  0
    2.7665    1.2681    0.9865 H   0  0  0  0  0  0  0  0  0  0  0  0
    1.1701    0.9782   -1.4694 H   0  0  0  0  0  0  0  0  0  0  0  0
    1.7400   -1.5123   -0.4606 H   0  0  0  0  0  0  0  0  0  0  0  0
    0.3499   -1.1822   -1.5086 H   0  0  0  0  0  0  0  0  0  0  0  0
    0.5306   -1.2625    1.5576 H   0  0  0  0  0  0  0  0  0  0  0  0
   -0.1926   -2.4828    0.4858 H   0  0  0  0  0  0  0  0  0  0  0  0
   -2.2382   -1.4928    0.7621 H   0  0  0  0  0  0  0  0  0  0  0  0
   -1.4675   -0.1606    1.6410 H   0  0  0  0  0  0  0  0  0  0  0  0
   -1.4071   -0.1490   -1.4234 H   0  0  0  0  0  0  0  0  0  0  0  0
   -2.7687    0.4346   -0.4511 H   0  0  0  0  0  0  0  0  0  0  0  0
   -1.0301    2.2721   -0.8583 H   0  0  0  0  0  0  0  0  0  0  0  0
   -1.5510    1.9312    0.8041 H   0  0  0  0  0  0  0  0  0  0  0  0
  1  2  2  0
  2  3  1  0
  3  4  1  0
  4  5  1  0
  5  6  1  0
  6  7  1  0
  7  8  1  0
  8  9  1  0
  9  3  1  0
  2 10  1  0
  3 11  1  0
  4 12  1  0
  4 13  1  0
  5 14  1  0
  5 15  1  0
  6 16  1  0
  6 17  1  0
  7 18  1  0
  7 19  1  0
  8 20  1  0
  8 21  1  0
M  END
