
     RDKit          3D

 19 19  0  0  0  0  0  0  0  0999 V2000
    3.4087    0.3909    1.1993 O   0  0  0  0  0  0  0  0  0  0  0  0
    3.2316    0.5999   -0.0184 C   0  0  0  0  0  0  0  0  0  0  0  0
    1.9472    0.3120   -0.6135 C   0  0  0  0  0  0  0  0  0  0  0  0
    1.7694    0.5224   -1.8390 O   0  0  0  0  0  0  0  0  0  0  0  0
    0.8744   -0.2269    0.2523 C   0  0  0  0  0  0  0  0  0  0  0  0
   -0.4045   -0.4761   -0.5108 C   0  0  0  0  0  0  0  0  0  0  0  0
   -1.4611   -1.0271    0.4342 C   0  0  0  0  0  0  0  0  0  0  0  0
   -2.4243   -0.0045   -0.1308 C   0  0  0  0  0  0  0  0  0  0  0  0
   -1.2653    0.7322   -0.7222 C   0  0  0  0  0  0  0  0  0  0  0  0
    4.0508    0.9934   -0.5973 H   0  0  0  0  0  0  0  0  0  0  0  0
    0.6433    0.5472    1.0358 H   0  0  0  0  0  0  0  0  0  0  0  0
    1.2249   -1.1393    0.7767 H   0  0  0  0  0  0  0  0  0  0  0  0
   -0.2697   -1.0316   -1.4383 H   0  0  0  0  0  0  0  0  0  0  0  0
   -1.2518   -0.8114    1.5146 H   0  0  0  0  0  0  0  0  0  0  0  0
   -1.7288   -2.0686    0.2347 H   0  0  0  0  0  0  0  0  0  0  0  0
   -2.9421    0.5872    0.6403 H   0  0  0  0  0  0  0  0  0  0  0  0
   -3.0785   -0.4958   -0.8731 H   0  0  0  0  0  0  0  0  0  0  0  0
   -0.8791    1.5910   -0.1555 H   0  0  0  0  0  0  0  0  0  0  0  0
   -1.4452    1.0051   -1.7739 H   0  0  0  0  0  0  0  0  0  0  0  0
  1  2  2  0
  2  3  1  0
  3  4  2  0
  3  5  1  0
  5  6  1  0
  6  7  1  0
  7  8  1  0
  8  9  1  0
  9  6  1  0
  2 10  1  0
  5 11  1  0
  5 12  1  0
  6 13  1  0
  7 14  1  0
  7 15  1  0
  8 16  1  0
  8 17  1  0
  9 18  1  0
  9 19  1  0
M  END
