
     RDKit          3D

 16 17  0  0  0  0  0  0  0  0999 V2000
    2.1486   -1.2870    0.6722 O   0  0  0  0  0  0  0  0  0  0  0  0
    1.3894   -0.3572    0.8153 C   0  0  0  0  0  0  0  0  0  0  0  0
    0.6505    0.0933   -0.4045 C   0  0  0  0  0  0  0  0  0  0  0  0
   -0.0746   -1.0992   -0.9324 C   0  0  0  0  0  0  0  0  0  0  0  0
   -0.8498   -1.4090    0.2148 O   0  0  0  0  0  0  0  0  0  0  0  0
   -1.1457   -0.1789    0.8410 C   0  0  0  0  0  0  0  0  0  0  0  0
   -0.7357    0.8250   -0.1534 C   0  0  0  0  0  0  0  0  0  0  0  0
    0.4627    1.4752   -0.4890 C   0  0  0  0  0  0  0  0  0  0  0  0
    1.2963    0.0794    1.7959 H   0  0  0  0  0  0  0  0  0  0  0  0
   -0.8128   -0.8681   -1.7275 H   0  0  0  0  0  0  0  0  0  0  0  0
    0.6144   -1.9042   -1.1826 H   0  0  0  0  0  0  0  0  0  0  0  0
   -2.2722   -0.2032    0.9510 H   0  0  0  0  0  0  0  0  0  0  0  0
   -0.7157   -0.0878    1.8373 H   0  0  0  0  0  0  0  0  0  0  0  0
   -1.4676    0.7867   -1.0239 H   0  0  0  0  0  0  0  0  0  0  0  0
    0.6075    1.9653   -1.4955 H   0  0  0  0  0  0  0  0  0  0  0  0
    0.9047    2.1700    0.2813 H   0  0  0  0  0  0  0  0  0  0  0  0
  1  2  2  0
  2  3  1  0
  3  4  1  0
  4  5  1  0
  5  6  1  0
  6  7  1  0
  7  8  1  0
  7  3  1  0
  8  3  1  0
  2  9  1  0
  4 10  1  0
  4 11  1  0
  6 12  1  0
  6 13  1  0
  7 14  1  0
  8 15  1  0
  8 16  1  0
M  END
