
     RDKit          3D

 13 13  0  0  0  0  0  0  0  0999 V2000
    1.0499   -2.0641   -0.2286 O   0  0  0  0  0  0  0  0  0  0  0  0
    1.2674   -0.8942   -0.4199 C   0  0  0  0  0  0  0  0  0  0  0  0
    0.1794    0.0676   -0.1413 C   0  0  0  0  0  0  0  0  0  0  0  0
    0.5277    1.4791   -0.3813 C   0  0  0  0  0  0  0  0  0  0  0  0
    1.7095    1.8564   -0.4723 O   0  0  0  0  0  0  0  0  0  0  0  0
   -0.6340   -0.2808    1.0773 C   0  0  0  0  0  0  0  0  0  0  0  0
   -1.2391   -0.3281   -0.2817 C   0  0  0  0  0  0  0  0  0  0  0  0
    2.2157   -0.5758   -0.7807 H   0  0  0  0  0  0  0  0  0  0  0  0
   -0.2300    2.2315   -0.4868 H   0  0  0  0  0  0  0  0  0  0  0  0
   -0.7960    0.5776    1.7638 H   0  0  0  0  0  0  0  0  0  0  0  0
   -0.5337   -1.2499    1.5663 H   0  0  0  0  0  0  0  0  0  0  0  0
   -1.9654    0.4848   -0.5002 H   0  0  0  0  0  0  0  0  0  0  0  0
   -1.5514   -1.3042   -0.7147 H   0  0  0  0  0  0  0  0  0  0  0  0
  1  2  2  0
  2  3  1  0
  3  4  1  0
  4  5  2  0
  3  6  1  0
  6  7  1  0
  7  3  1  0
  2  8  1  0
  4  9  1  0
  6 10  1  0
  6 11  1  0
  7 12  1  0
  7 13  1  0
M  END
