
     RDKit          3D

 15 16  0  0  0  0  0  0  0  0999 V2000
    0.9730   -0.4861    1.9112 O   0  0  0  0  0  0  0  0  0  0  0  0
    1.2679    0.2091    0.9788 C   0  0  0  0  0  0  0  0  0  0  0  0
    0.5840   -0.0164   -0.3558 C   0  0  0  0  0  0  0  0  0  0  0  0
   -0.0643    1.2822   -0.7074 C   0  0  0  0  0  0  0  0  0  0  0  0
   -0.9131    1.3672    0.4703 O   0  0  0  0  0  0  0  0  0  0  0  0
   -1.2342    0.0723    0.8542 C   0  0  0  0  0  0  0  0  0  0  0  0
   -1.7559   -0.2607    1.9214 O   0  0  0  0  0  0  0  0  0  0  0  0
   -0.8251   -0.7498   -0.2538 C   0  0  0  0  0  0  0  0  0  0  0  0
    0.3693   -1.3534   -0.6769 C   0  0  0  0  0  0  0  0  0  0  0  0
    1.9895    0.9748    1.0563 H   0  0  0  0  0  0  0  0  0  0  0  0
    0.6240    2.1191   -0.7629 H   0  0  0  0  0  0  0  0  0  0  0  0
   -0.7663    1.2208   -1.5496 H   0  0  0  0  0  0  0  0  0  0  0  0
   -1.5384   -0.5237   -1.1156 H   0  0  0  0  0  0  0  0  0  0  0  0
    0.7905   -2.1748   -0.0250 H   0  0  0  0  0  0  0  0  0  0  0  0
    0.4991   -1.6807   -1.7453 H   0  0  0  0  0  0  0  0  0  0  0  0
  1  2  2  0
  2  3  1  0
  3  4  1  0
  4  5  1  0
  5  6  1  0
  6  7  2  0
  6  8  1  0
  8  9  1  0
  8  3  1  0
  9  3  1  0
  2 10  1  0
  4 11  1  0
  4 12  1  0
  8 13  1  0
  9 14  1  0
  9 15  1  0
M  END
