
     RDKit          3D

 17 18  0  0  0  0  0  0  0  0999 V2000
    2.8096   -0.4603   -0.9094 O   0  0  0  0  0  0  0  0  0  0  0  0
    1.7036   -0.7814   -0.5213 C   0  0  0  0  0  0  0  0  0  0  0  0
    1.0349   -0.0370    0.5484 C   0  0  0  0  0  0  0  0  0  0  0  0
   -0.0579   -0.7983    1.2004 C   0  0  0  0  0  0  0  0  0  0  0  0
   -1.2715   -0.8499    0.7147 C   0  0  0  0  0  0  0  0  0  0  0  0
   -1.6415   -0.1530   -0.5208 C   0  0  0  0  0  0  0  0  0  0  0  0
   -2.0056    1.1902   -0.4760 O   0  0  0  0  0  0  0  0  0  0  0  0
   -0.7064    0.8821   -0.9092 C   0  0  0  0  0  0  0  0  0  0  0  0
    0.3844    1.2475    0.0382 C   0  0  0  0  0  0  0  0  0  0  0  0
    1.2397   -1.6337   -0.9971 H   0  0  0  0  0  0  0  0  0  0  0  0
    1.7977    0.2892    1.2872 H   0  0  0  0  0  0  0  0  0  0  0  0
    0.2100   -1.3248    2.1275 H   0  0  0  0  0  0  0  0  0  0  0  0
   -2.0252   -1.4247    1.2412 H   0  0  0  0  0  0  0  0  0  0  0  0
   -2.1265   -0.7997   -1.2952 H   0  0  0  0  0  0  0  0  0  0  0  0
   -0.4874    0.9746   -1.9944 H   0  0  0  0  0  0  0  0  0  0  0  0
    0.0213    1.7867    0.9494 H   0  0  0  0  0  0  0  0  0  0  0  0
    1.1210    1.8925   -0.4836 H   0  0  0  0  0  0  0  0  0  0  0  0
  1  2  2  0
  2  3  1  0
  3  4  1  0
  4  5  2  0
  5  6  1  0
  6  7  1  0
  7  8  1  0
  8  9  1  0
  9  3  1  0
  8  6  1  0
  2 10  1  0
  3 11  1  0
  4 12  1  0
  5 13  1  0
  6 14  1  0
  8 15  1  0
  9 16  1  0
  9 17  1  0
M  END
