
     RDKit          3D

 19 20  0  0  0  0  0  0  0  0999 V2000
   -1.8575   -0.1166    2.0056 O   0  0  0  0  0  0  0  0  0  0  0  0
   -0.9939   -0.7022    1.3871 C   0  0  0  0  0  0  0  0  0  0  0  0
   -0.4749   -0.1832    0.0983 C   0  0  0  0  0  0  0  0  0  0  0  0
   -1.5318    0.6330   -0.6471 C   0  0  0  0  0  0  0  0  0  0  0  0
   -1.9432    1.7208    0.1055 O   0  0  0  0  0  0  0  0  0  0  0  0
    0.1934   -1.2019   -0.7817 C   0  0  0  0  0  0  0  0  0  0  0  0
    1.4083   -0.3151   -0.8311 C   0  0  0  0  0  0  0  0  0  0  0  0
    2.0966   -0.0170    0.4365 C   0  0  0  0  0  0  0  0  0  0  0  0
    0.7814    0.6310    0.2182 C   0  0  0  0  0  0  0  0  0  0  0  0
   -0.5989   -1.6212    1.7896 H   0  0  0  0  0  0  0  0  0  0  0  0
   -2.4157   -0.0321   -0.8261 H   0  0  0  0  0  0  0  0  0  0  0  0
   -1.0911    1.0164   -1.5769 H   0  0  0  0  0  0  0  0  0  0  0  0
   -1.2424    2.0050    0.7463 H   0  0  0  0  0  0  0  0  0  0  0  0
    0.3281   -2.1518   -0.2150 H   0  0  0  0  0  0  0  0  0  0  0  0
   -0.2967   -1.4045   -1.7461 H   0  0  0  0  0  0  0  0  0  0  0  0
    1.7474    0.1380   -1.7613 H   0  0  0  0  0  0  0  0  0  0  0  0
    2.9761    0.6364    0.3749 H   0  0  0  0  0  0  0  0  0  0  0  0
    2.1437   -0.7408    1.2714 H   0  0  0  0  0  0  0  0  0  0  0  0
    0.7712    1.7058   -0.0482 H   0  0  0  0  0  0  0  0  0  0  0  0
  1  2  2  0
  2  3  1  0
  3  4  1  0
  4  5  1  0
  3  6  1  0
  6  7  1  0
  7  8  1  0
  8  9  1  0
  9  3  1  0
  9  7  1  0
  2 10  1  0
  4 11  1  0
  4 12  1  0
  5 13  1  0
  6 14  1  0
  6 15  1  0
  7 16  1  0
  8 17  1  0
  8 18  1  0
  9 19  1  0
M  END
