
     RDKit          3D

 17 18  0  0  0  0  0  0  0  0999 V2000
    4.6699    0.8422    0.7709 O   0  0  0  0  0  0  0  0  0  0  0  0
    3.7004    0.1282    1.1330 C   0  0  0  0  0  0  0  0  0  0  0  0
    2.3679    0.3160    0.6262 C   0  0  0  0  0  0  0  0  0  0  0  0
    1.2330    0.4590    0.2094 C   0  0  0  0  0  0  0  0  0  0  0  0
   -0.1195    0.6488   -0.3021 C   0  0  0  0  0  0  0  0  0  0  0  0
   -0.4626   -0.4412   -1.3133 C   0  0  0  0  0  0  0  0  0  0  0  0
   -1.6897   -0.8285   -0.5356 C   0  0  0  0  0  0  0  0  0  0  0  0
   -2.5919    0.2087    0.0213 C   0  0  0  0  0  0  0  0  0  0  0  0
   -1.2139    0.1319    0.5659 C   0  0  0  0  0  0  0  0  0  0  0  0
    3.9187   -0.6473    1.8559 H   0  0  0  0  0  0  0  0  0  0  0  0
   -0.3379    1.6494   -0.7126 H   0  0  0  0  0  0  0  0  0  0  0  0
    0.2826   -1.2630   -1.3500 H   0  0  0  0  0  0  0  0  0  0  0  0
   -0.6372   -0.0256   -2.3263 H   0  0  0  0  0  0  0  0  0  0  0  0
   -1.8525   -1.8774   -0.2611 H   0  0  0  0  0  0  0  0  0  0  0  0
   -2.7979    1.1417   -0.5794 H   0  0  0  0  0  0  0  0  0  0  0  0
   -3.4660   -0.1454    0.5686 H   0  0  0  0  0  0  0  0  0  0  0  0
   -1.0034   -0.2976    1.5634 H   0  0  0  0  0  0  0  0  0  0  0  0
  1  2  2  0
  2  3  1  0
  3  4  3  0
  4  5  1  0
  5  6  1  0
  6  7  1  0
  7  8  1  0
  8  9  1  0
  9  5  1  0
  9  7  1  0
  2 10  1  0
  5 11  1  0
  6 12  1  0
  6 13  1  0
  7 14  1  0
  8 15  1  0
  8 16  1  0
  9 17  1  0
M  END
