
     RDKit          3D

 17 19  0  0  0  0  0  0  0  0999 V2000
    2.7859   -0.2734    1.0716 O   0  0  0  0  0  0  0  0  0  0  0  0
    2.0053   -0.7389    0.2706 C   0  0  0  0  0  0  0  0  0  0  0  0
    0.7096   -0.1665   -0.1090 C   0  0  0  0  0  0  0  0  0  0  0  0
   -0.3734   -1.1521   -0.3966 C   0  0  0  0  0  0  0  0  0  0  0  0
   -1.6947   -0.5097   -0.0576 C   0  0  0  0  0  0  0  0  0  0  0  0
   -2.0002    0.6059   -0.8060 O   0  0  0  0  0  0  0  0  0  0  0  0
   -1.4603    0.7083    0.5213 C   0  0  0  0  0  0  0  0  0  0  0  0
    0.0418    0.9143    0.6158 C   0  0  0  0  0  0  0  0  0  0  0  0
    0.7209    1.2047   -0.6520 C   0  0  0  0  0  0  0  0  0  0  0  0
    2.2991   -1.6628   -0.2041 H   0  0  0  0  0  0  0  0  0  0  0  0
   -0.2410   -2.0086    0.3089 H   0  0  0  0  0  0  0  0  0  0  0  0
   -0.3528   -1.5760   -1.4136 H   0  0  0  0  0  0  0  0  0  0  0  0
   -2.5266   -1.1914    0.2744 H   0  0  0  0  0  0  0  0  0  0  0  0
   -2.0465    1.4027    1.1236 H   0  0  0  0  0  0  0  0  0  0  0  0
    0.3894    1.1961    1.5984 H   0  0  0  0  0  0  0  0  0  0  0  0
    0.0874    1.4846   -1.5362 H   0  0  0  0  0  0  0  0  0  0  0  0
    1.6561    1.7627   -0.6096 H   0  0  0  0  0  0  0  0  0  0  0  0
  1  2  2  0
  2  3  1  0
  3  4  1  0
  4  5  1  0
  5  6  1  0
  6  7  1  0
  7  8  1  0
  8  9  1  0
  8  3  1  0
  9  3  1  0
  7  5  1  0
  2 10  1  0
  4 11  1  0
  4 12  1  0
  5 13  1  0
  7 14  1  0
  8 15  1  0
  9 16  1  0
  9 17  1  0
M  END
