
     RDKit          3D

 17 18  0  0  0  0  0  0  0  0999 V2000
   -3.0728   -1.6242   -0.2468 O   0  0  0  0  0  0  0  0  0  0  0  0
   -2.0443   -1.0005   -0.5340 C   0  0  0  0  0  0  0  0  0  0  0  0
   -1.4314   -0.0683    0.4491 C   0  0  0  0  0  0  0  0  0  0  0  0
   -0.9102    1.2524   -0.1226 C   0  0  0  0  0  0  0  0  0  0  0  0
    0.0163    0.2348    0.4238 C   0  0  0  0  0  0  0  0  0  0  0  0
    0.5879    0.5553    1.6572 O   0  0  0  0  0  0  0  0  0  0  0  0
    0.9529   -0.4107   -0.5366 C   0  0  0  0  0  0  0  0  0  0  0  0
    2.3925   -0.4973   -0.0828 C   0  0  0  0  0  0  0  0  0  0  0  0
    1.5739   -1.6147   -0.2263 O   0  0  0  0  0  0  0  0  0  0  0  0
   -1.6387   -1.1713   -1.5056 H   0  0  0  0  0  0  0  0  0  0  0  0
   -1.9587    0.0111    1.4182 H   0  0  0  0  0  0  0  0  0  0  0  0
   -1.0457    1.3867   -1.2183 H   0  0  0  0  0  0  0  0  0  0  0  0
   -1.0710    2.1717    0.4564 H   0  0  0  0  0  0  0  0  0  0  0  0
    0.9790    1.4622    1.5446 H   0  0  0  0  0  0  0  0  0  0  0  0
    0.8178   -0.1523   -1.6240 H   0  0  0  0  0  0  0  0  0  0  0  0
    2.6562   -0.2241    0.9567 H   0  0  0  0  0  0  0  0  0  0  0  0
    3.1963   -0.3110   -0.8089 H   0  0  0  0  0  0  0  0  0  0  0  0
  1  2  2  0
  2  3  1  0
  3  4  1  0
  4  5  1  0
  5  6  1  0
  5  7  1  0
  7  8  1  0
  8  9  1  0
  5  3  1  0
  9  7  1  0
  2 10  1  0
  3 11  1  0
  4 12  1  0
  4 13  1  0
  6 14  1  0
  7 15  1  0
  8 16  1  0
  8 17  1  0
M  END
