
     RDKit          3D

 15 17  0  0  0  0  0  0  0  0999 V2000
    2.9011   -0.7895   -0.1998 O   0  0  0  0  0  0  0  0  0  0  0  0
    1.8512   -0.7253    0.3751 C   0  0  0  0  0  0  0  0  0  0  0  0
    0.8840    0.3882    0.2059 C   0  0  0  0  0  0  0  0  0  0  0  0
    1.1438    1.4315   -0.6375 O   0  0  0  0  0  0  0  0  0  0  0  0
    0.3429    0.4838   -1.2237 C   0  0  0  0  0  0  0  0  0  0  0  0
   -1.0420    0.2083   -0.7486 C   0  0  0  0  0  0  0  0  0  0  0  0
   -1.2941   -0.9064    0.1994 C   0  0  0  0  0  0  0  0  0  0  0  0
   -0.5194    0.2394    0.6765 C   0  0  0  0  0  0  0  0  0  0  0  0
   -1.1085    1.2527    1.4474 O   0  0  0  0  0  0  0  0  0  0  0  0
    1.5885   -1.5189    1.0555 H   0  0  0  0  0  0  0  0  0  0  0  0
    0.8163   -0.1053   -2.0114 H   0  0  0  0  0  0  0  0  0  0  0  0
   -1.8958    0.8392   -1.0306 H   0  0  0  0  0  0  0  0  0  0  0  0
   -0.7844   -1.8638    0.0243 H   0  0  0  0  0  0  0  0  0  0  0  0
   -2.3221   -1.0104    0.5876 H   0  0  0  0  0  0  0  0  0  0  0  0
   -0.5616    2.0766    1.2801 H   0  0  0  0  0  0  0  0  0  0  0  0
  1  2  2  0
  2  3  1  0
  3  4  1  0
  4  5  1  0
  5  6  1  0
  6  7  1  0
  7  8  1  0
  8  9  1  0
  5  3  1  0
  8  6  1  0
  8  3  1  0
  2 10  1  0
  5 11  1  0
  6 12  1  0
  7 13  1  0
  7 14  1  0
  9 15  1  0
M  END
