
     RDKit          3D

 15 15  0  0  0  0  0  0  0  0999 V2000
   -1.9755    0.8426    1.3684 O   0  0  0  0  0  0  0  0  0  0  0  0
   -2.3311    0.2031    0.3895 C   0  0  0  0  0  0  0  0  0  0  0  0
   -1.3731   -0.3650   -0.6036 C   0  0  0  0  0  0  0  0  0  0  0  0
    0.0317   -0.0557   -0.2496 C   0  0  0  0  0  0  0  0  0  0  0  0
    0.9758   -0.9276   -0.0065 C   0  0  0  0  0  0  0  0  0  0  0  0
    2.2323   -0.2076    0.3080 C   0  0  0  0  0  0  0  0  0  0  0  0
    1.9111    1.1695    0.2200 O   0  0  0  0  0  0  0  0  0  0  0  0
    0.5718    1.2699   -0.1194 C   0  0  0  0  0  0  0  0  0  0  0  0
    0.0022    2.3805   -0.2690 O   0  0  0  0  0  0  0  0  0  0  0  0
   -3.3828    0.0186    0.1991 H   0  0  0  0  0  0  0  0  0  0  0  0
   -1.6511    0.0436   -1.5939 H   0  0  0  0  0  0  0  0  0  0  0  0
   -1.5437   -1.4570   -0.6544 H   0  0  0  0  0  0  0  0  0  0  0  0
    0.8983   -2.0002   -0.0209 H   0  0  0  0  0  0  0  0  0  0  0  0
    2.5674   -0.4124    1.3655 H   0  0  0  0  0  0  0  0  0  0  0  0
    3.0665   -0.5025   -0.3333 H   0  0  0  0  0  0  0  0  0  0  0  0
  1  2  2  0
  2  3  1  0
  3  4  1  0
  4  5  2  0
  5  6  1  0
  6  7  1  0
  7  8  1  0
  8  9  2  0
  8  4  1  0
  2 10  1  0
  3 11  1  0
  3 12  1  0
  5 13  1  0
  6 14  1  0
  6 15  1  0
M  END
