
     RDKit          3D

 17 19  0  0  0  0  0  0  0  0999 V2000
   -1.5598    1.7532    1.6540 O   0  0  0  0  0  0  0  0  0  0  0  0
   -1.4695    1.5282    0.4588 C   0  0  0  0  0  0  0  0  0  0  0  0
   -0.5715    0.4346   -0.0111 C   0  0  0  0  0  0  0  0  0  0  0  0
   -1.0256   -0.3393   -1.2001 C   0  0  0  0  0  0  0  0  0  0  0  0
   -0.9455   -0.9761    0.1706 C   0  0  0  0  0  0  0  0  0  0  0  0
    0.1687   -1.7411    0.3716 O   0  0  0  0  0  0  0  0  0  0  0  0
    1.2480   -0.9463    0.6082 C   0  0  0  0  0  0  0  0  0  0  0  0
    1.9263   -0.1465   -0.4334 C   0  0  0  0  0  0  0  0  0  0  0  0
    0.8809    0.4803    0.3794 C   0  0  0  0  0  0  0  0  0  0  0  0
   -2.0571    2.1459   -0.2125 H   0  0  0  0  0  0  0  0  0  0  0  0
   -2.0364   -0.1550   -1.5554 H   0  0  0  0  0  0  0  0  0  0  0  0
   -0.2873   -0.6641   -1.9830 H   0  0  0  0  0  0  0  0  0  0  0  0
   -1.8846   -1.1790    0.7232 H   0  0  0  0  0  0  0  0  0  0  0  0
    1.8418   -1.2372    1.5153 H   0  0  0  0  0  0  0  0  0  0  0  0
    1.7134   -0.2668   -1.5105 H   0  0  0  0  0  0  0  0  0  0  0  0
    2.9699    0.1614   -0.2141 H   0  0  0  0  0  0  0  0  0  0  0  0
    1.0884    1.1479    1.2390 H   0  0  0  0  0  0  0  0  0  0  0  0
  1  2  2  0
  2  3  1  0
  3  4  1  0
  4  5  1  0
  5  6  1  0
  6  7  1  0
  7  8  1  0
  8  9  1  0
  5  3  1  0
  9  7  1  0
  9  3  1  0
  2 10  1  0
  4 11  1  0
  4 12  1  0
  5 13  1  0
  7 14  1  0
  8 15  1  0
  8 16  1  0
  9 17  1  0
M  END
