
     RDKit          3D

 17 18  0  0  0  0  0  0  0  0999 V2000
   -2.8951    1.5317   -0.5027 O   0  0  0  0  0  0  0  0  0  0  0  0
   -1.7159    1.5719   -0.0282 C   0  0  0  0  0  0  0  0  0  0  0  0
   -0.8793    0.3934    0.1085 C   0  0  0  0  0  0  0  0  0  0  0  0
   -1.2667   -0.8183   -0.2460 C   0  0  0  0  0  0  0  0  0  0  0  0
   -0.0890   -1.7464    0.0608 C   0  0  0  0  0  0  0  0  0  0  0  0
    0.9512   -0.7597   -0.3858 C   0  0  0  0  0  0  0  0  0  0  0  0
    1.7562    0.2110    0.2114 C   0  0  0  0  0  0  0  0  0  0  0  0
    2.2449    1.3120   -0.5274 O   0  0  0  0  0  0  0  0  0  0  0  0
    0.4343    0.2872    0.6586 C   0  0  0  0  0  0  0  0  0  0  0  0
   -1.3638    2.5472    0.2731 H   0  0  0  0  0  0  0  0  0  0  0  0
   -2.1863   -1.1904   -0.6690 H   0  0  0  0  0  0  0  0  0  0  0  0
    0.0007   -1.9338    1.1297 H   0  0  0  0  0  0  0  0  0  0  0  0
   -0.1410   -2.6301   -0.5689 H   0  0  0  0  0  0  0  0  0  0  0  0
    0.7184   -0.5330   -1.4767 H   0  0  0  0  0  0  0  0  0  0  0  0
    2.5810   -0.1327    0.8970 H   0  0  0  0  0  0  0  0  0  0  0  0
    1.5431    1.9946   -0.6624 H   0  0  0  0  0  0  0  0  0  0  0  0
    0.3074   -0.1046    1.7279 H   0  0  0  0  0  0  0  0  0  0  0  0
  1  2  2  0
  2  3  1  0
  3  4  2  0
  4  5  1  0
  5  6  1  0
  6  7  1  0
  7  8  1  0
  7  9  1  0
  9  3  1  0
  9  6  1  0
  2 10  1  0
  4 11  1  0
  5 12  1  0
  5 13  1  0
  6 14  1  0
  7 15  1  0
  8 16  1  0
  9 17  1  0
M  END
