
     RDKit          3D

 19 19  0  0  0  0  0  0  0  0999 V2000
    2.3475    1.5106   -1.3830 O   0  0  0  0  0  0  0  0  0  0  0  0
    2.4130    0.5804   -0.6002 C   0  0  0  0  0  0  0  0  0  0  0  0
    1.2174   -0.2895   -0.4671 C   0  0  0  0  0  0  0  0  0  0  0  0
    1.3954   -1.3283    0.4571 O   0  0  0  0  0  0  0  0  0  0  0  0
    1.1315   -0.3867    1.4645 C   0  0  0  0  0  0  0  0  0  0  0  0
    0.2242    0.3122    0.4616 C   0  0  0  0  0  0  0  0  0  0  0  0
   -1.1648   -0.2131    0.4405 C   0  0  0  0  0  0  0  0  0  0  0  0
   -1.7809   -0.0284   -0.9505 C   0  0  0  0  0  0  0  0  0  0  0  0
   -3.0942   -0.5346   -0.9385 O   0  0  0  0  0  0  0  0  0  0  0  0
    3.3328    0.4504   -0.0569 H   0  0  0  0  0  0  0  0  0  0  0  0
    0.8432   -0.6672   -1.4401 H   0  0  0  0  0  0  0  0  0  0  0  0
    0.5561   -0.7693    2.3142 H   0  0  0  0  0  0  0  0  0  0  0  0
    1.9902    0.2687    1.6979 H   0  0  0  0  0  0  0  0  0  0  0  0
    0.2638    1.4102    0.5942 H   0  0  0  0  0  0  0  0  0  0  0  0
   -1.7748    0.3914    1.1454 H   0  0  0  0  0  0  0  0  0  0  0  0
   -1.2411   -1.2729    0.7385 H   0  0  0  0  0  0  0  0  0  0  0  0
   -1.7503    1.0375   -1.2245 H   0  0  0  0  0  0  0  0  0  0  0  0
   -1.1797   -0.5915   -1.6906 H   0  0  0  0  0  0  0  0  0  0  0  0
   -3.7293    0.1202   -0.5623 H   0  0  0  0  0  0  0  0  0  0  0  0
  1  2  2  0
  2  3  1  0
  3  4  1  0
  4  5  1  0
  5  6  1  0
  6  7  1  0
  7  8  1  0
  8  9  1  0
  6  3  1  0
  2 10  1  0
  3 11  1  0
  5 12  1  0
  5 13  1  0
  6 14  1  0
  7 15  1  0
  7 16  1  0
  8 17  1  0
  8 18  1  0
  9 19  1  0
M  END
