
     RDKit          3D

 15 17  0  0  0  0  0  0  0  0999 V2000
   -2.9741    1.0603    0.4692 O   0  0  0  0  0  0  0  0  0  0  0  0
   -2.2953    0.1533    0.0229 C   0  0  0  0  0  0  0  0  0  0  0  0
   -0.8380    0.1579    0.2012 C   0  0  0  0  0  0  0  0  0  0  0  0
   -0.2204    1.1799    0.8705 O   0  0  0  0  0  0  0  0  0  0  0  0
    0.9271    1.0765    0.0901 C   0  0  0  0  0  0  0  0  0  0  0  0
    1.7937   -0.0102    0.6627 C   0  0  0  0  0  0  0  0  0  0  0  0
    1.2468   -1.1878    0.4373 C   0  0  0  0  0  0  0  0  0  0  0  0
   -0.0277   -1.0040   -0.3015 C   0  0  0  0  0  0  0  0  0  0  0  0
    0.1147    0.3143   -0.9019 C   0  0  0  0  0  0  0  0  0  0  0  0
   -2.8220   -0.6348   -0.4995 H   0  0  0  0  0  0  0  0  0  0  0  0
    1.4226    1.9845   -0.2126 H   0  0  0  0  0  0  0  0  0  0  0  0
    2.7196    0.2093    1.1738 H   0  0  0  0  0  0  0  0  0  0  0  0
    1.6137   -2.1544    0.7165 H   0  0  0  0  0  0  0  0  0  0  0  0
   -0.4937   -1.7970   -0.8551 H   0  0  0  0  0  0  0  0  0  0  0  0
   -0.1670    0.6522   -1.8734 H   0  0  0  0  0  0  0  0  0  0  0  0
  1  2  2  0
  2  3  1  0
  3  4  1  0
  4  5  1  0
  5  6  1  0
  6  7  2  0
  7  8  1  0
  8  9  1  0
  8  3  1  0
  9  3  1  0
  9  5  1  0
  2 10  1  0
  5 11  1  0
  6 12  1  0
  7 13  1  0
  8 14  1  0
  9 15  1  0
M  END
