
     RDKit          3D

 15 15  0  0  0  0  0  0  0  0999 V2000
   -2.1914   -1.4715    0.4073 O   0  0  0  0  0  0  0  0  0  0  0  0
   -1.6063   -0.9986   -0.5349 C   0  0  0  0  0  0  0  0  0  0  0  0
   -0.5563   -0.0010   -0.3083 C   0  0  0  0  0  0  0  0  0  0  0  0
   -0.9418    1.0898    0.6252 C   0  0  0  0  0  0  0  0  0  0  0  0
   -1.4892    0.8202    1.6857 O   0  0  0  0  0  0  0  0  0  0  0  0
    0.0631    0.4889   -1.4456 O   0  0  0  0  0  0  0  0  0  0  0  0
    1.2095    0.6543   -0.6750 C   0  0  0  0  0  0  0  0  0  0  0  0
    0.7853   -0.5670    0.1095 C   0  0  0  0  0  0  0  0  0  0  0  0
    1.0340   -0.5248    1.4657 O   0  0  0  0  0  0  0  0  0  0  0  0
   -1.8468   -1.3005   -1.5346 H   0  0  0  0  0  0  0  0  0  0  0  0
   -0.7351    2.1078    0.3577 H   0  0  0  0  0  0  0  0  0  0  0  0
    1.1602    1.6019   -0.1208 H   0  0  0  0  0  0  0  0  0  0  0  0
    2.1625    0.5452   -1.2274 H   0  0  0  0  0  0  0  0  0  0  0  0
    1.0323   -1.5013   -0.4181 H   0  0  0  0  0  0  0  0  0  0  0  0
    1.9202   -0.9436    1.6135 H   0  0  0  0  0  0  0  0  0  0  0  0
  1  2  2  0
  2  3  1  0
  3  4  1  0
  4  5  2  0
  3  6  1  0
  6  7  1  0
  7  8  1  0
  8  9  1  0
  8  3  1  0
  2 10  1  0
  4 11  1  0
  7 12  1  0
  7 13  1  0
  8 14  1  0
  9 15  1  0
M  END
