
     RDKit          3D

 15 18  0  0  0  0  0  0  0  0999 V2000
    2.4934    1.1952    0.3220 O   0  0  0  0  0  0  0  0  0  0  0  0
    1.9875    0.0670    0.4909 C   0  0  0  0  0  0  0  0  0  0  0  0
    0.7072   -0.2321    0.2586 C   0  0  0  0  0  0  0  0  0  0  0  0
   -0.1089   -0.8346   -0.9153 C   0  0  0  0  0  0  0  0  0  0  0  0
   -1.5126   -0.3496   -0.2081 C   0  0  0  0  0  0  0  0  0  0  0  0
   -0.6796   -1.1147    0.1031 C   0  0  0  0  0  0  0  0  0  0  0  0
   -0.2123    0.4930   -0.0706 C   0  0  0  0  0  0  0  0  0  0  0  0
   -0.5160    1.1758   -1.1788 O   0  0  0  0  0  0  0  0  0  0  0  0
   -0.6380    0.2913    0.9933 C   0  0  0  0  0  0  0  0  0  0  0  0
    2.7544   -0.6468    0.8606 H   0  0  0  0  0  0  0  0  0  0  0  0
    0.0347   -0.4927   -1.9191 H   0  0  0  0  0  0  0  0  0  0  0  0
   -2.1365    0.2882   -0.7726 H   0  0  0  0  0  0  0  0  0  0  0  0
   -0.4040   -1.6390    1.0138 H   0  0  0  0  0  0  0  0  0  0  0  0
   -0.9523    2.0177   -0.9359 H   0  0  0  0  0  0  0  0  0  0  0  0
   -0.8168   -0.2187    1.9579 H   0  0  0  0  0  0  0  0  0  0  0  0
  1  2  2  0
  2  3  1  0
  3  4  1  0
  4  5  1  0
  5  6  1  0
  6  7  1  0
  7  8  1  0
  7  9  1  0
  7  3  1  0
  9  3  1  0
  6  4  1  0
  9  5  1  0
  2 10  1  0
  4 11  1  0
  5 12  1  0
  6 13  1  0
  8 14  1  0
  9 15  1  0
M  END
