
     RDKit          3D

 17 19  0  0  0  0  0  0  0  0999 V2000
    1.4198   -0.8526    1.6201 O   0  0  0  0  0  0  0  0  0  0  0  0
    1.8708   -0.1562    0.7321 C   0  0  0  0  0  0  0  0  0  0  0  0
    1.6968   -0.4203   -0.7112 C   0  0  0  0  0  0  0  0  0  0  0  0
    0.2985    0.1034   -1.0770 C   0  0  0  0  0  0  0  0  0  0  0  0
   -0.7787   -0.4875   -0.3921 C   0  0  0  0  0  0  0  0  0  0  0  0
   -1.2362   -0.4270    1.0141 C   0  0  0  0  0  0  0  0  0  0  0  0
   -1.8944    0.5964    1.6808 O   0  0  0  0  0  0  0  0  0  0  0  0
   -1.8599    0.8258    0.3690 C   0  0  0  0  0  0  0  0  0  0  0  0
   -0.4541    1.0198   -0.2216 C   0  0  0  0  0  0  0  0  0  0  0  0
    2.4450    0.7268    1.0143 H   0  0  0  0  0  0  0  0  0  0  0  0
    1.7832   -1.5087   -0.9501 H   0  0  0  0  0  0  0  0  0  0  0  0
    2.4777    0.0785   -1.2947 H   0  0  0  0  0  0  0  0  0  0  0  0
    0.2774    0.3864   -2.1590 H   0  0  0  0  0  0  0  0  0  0  0  0
   -1.6876   -0.6244   -1.0797 H   0  0  0  0  0  0  0  0  0  0  0  0
   -1.8832   -1.3327    1.2397 H   0  0  0  0  0  0  0  0  0  0  0  0
   -2.6961    0.6686   -0.3246 H   0  0  0  0  0  0  0  0  0  0  0  0
    0.2210    1.4038    0.5399 H   0  0  0  0  0  0  0  0  0  0  0  0
  1  2  2  0
  2  3  1  0
  3  4  1  0
  4  5  1  0
  5  6  1  0
  6  7  1  0
  7  8  1  0
  8  9  1  0
  9  4  1  0
  9  5  1  0
  8  6  1  0
  2 10  1  0
  3 11  1  0
  3 12  1  0
  4 13  1  0
  5 14  1  0
  6 15  1  0
  8 16  1  0
  9 17  1  0
M  END
