
     RDKit          3D

 14 13  0  0  0  0  0  0  0  0999 V2000
   -1.7957    1.2933   -0.9831 O   0  0  0  0  0  0  0  0  0  0  0  0
   -1.9625    0.6000   -0.0047 C   0  0  0  0  0  0  0  0  0  0  0  0
   -1.0992   -0.4884    0.4583 C   0  0  0  0  0  0  0  0  0  0  0  0
    0.1071   -0.7602   -0.3591 C   0  0  0  0  0  0  0  0  0  0  0  0
    1.0632    0.3297   -0.4993 C   0  0  0  0  0  0  0  0  0  0  0  0
    0.8003    1.2280   -1.3688 O   0  0  0  0  0  0  0  0  0  0  0  0
    2.2757    0.4909    0.2482 C   0  0  0  0  0  0  0  0  0  0  0  0
    2.5694   -0.3706    1.1123 O   0  0  0  0  0  0  0  0  0  0  0  0
   -2.8482    0.8153    0.5859 H   0  0  0  0  0  0  0  0  0  0  0  0
   -0.7560   -0.2610    1.5088 H   0  0  0  0  0  0  0  0  0  0  0  0
   -1.6510   -1.4635    0.5662 H   0  0  0  0  0  0  0  0  0  0  0  0
    0.5821   -1.6968    0.0142 H   0  0  0  0  0  0  0  0  0  0  0  0
   -0.2454   -1.0261   -1.3978 H   0  0  0  0  0  0  0  0  0  0  0  0
    2.9602    1.3095    0.1187 H   0  0  0  0  0  0  0  0  0  0  0  0
  1  2  2  0
  2  3  1  0
  3  4  1  0
  4  5  1  0
  5  6  2  0
  5  7  1  0
  7  8  2  0
  2  9  1  0
  3 10  1  0
  3 11  1  0
  4 12  1  0
  4 13  1  0
  7 14  1  0
M  END
