
     RDKit          3D

 17 16  0  0  0  0  0  0  0  0999 V2000
    2.0754    0.5793    1.5654 O   0  0  0  0  0  0  0  0  0  0  0  0
    1.7240   -0.3530    0.8742 C   0  0  0  0  0  0  0  0  0  0  0  0
    1.2297   -0.1659   -0.4906 C   0  0  0  0  0  0  0  0  0  0  0  0
   -0.2006    0.3319   -0.5498 C   0  0  0  0  0  0  0  0  0  0  0  0
   -0.5254    0.4599   -1.8997 O   0  0  0  0  0  0  0  0  0  0  0  0
   -0.3808    1.6189    0.1545 C   0  0  0  0  0  0  0  0  0  0  0  0
   -0.7635    2.6085   -0.4353 O   0  0  0  0  0  0  0  0  0  0  0  0
   -1.1637   -0.6627    0.0520 C   0  0  0  0  0  0  0  0  0  0  0  0
   -0.9344   -0.8725    1.4064 O   0  0  0  0  0  0  0  0  0  0  0  0
    1.7800   -1.3492    1.2847 H   0  0  0  0  0  0  0  0  0  0  0  0
    1.2905   -1.0660   -1.1216 H   0  0  0  0  0  0  0  0  0  0  0  0
    1.8394    0.6152   -1.0304 H   0  0  0  0  0  0  0  0  0  0  0  0
   -0.6348   -0.4713   -2.2504 H   0  0  0  0  0  0  0  0  0  0  0  0
   -0.1744    1.7012    1.2093 H   0  0  0  0  0  0  0  0  0  0  0  0
   -1.1965   -1.6223   -0.5282 H   0  0  0  0  0  0  0  0  0  0  0  0
   -2.1816   -0.2238   -0.0524 H   0  0  0  0  0  0  0  0  0  0  0  0
   -1.7833   -1.1283    1.8121 H   0  0  0  0  0  0  0  0  0  0  0  0
  1  2  2  0
  2  3  1  0
  3  4  1  0
  4  5  1  0
  4  6  1  0
  6  7  2  0
  4  8  1  0
  8  9  1  0
  2 10  1  0
  3 11  1  0
  3 12  1  0
  5 13  1  0
  6 14  1  0
  8 15  1  0
  8 16  1  0
  9 17  1  0
M  END
