
     RDKit          3D

 17 17  0  0  0  0  0  0  0  0999 V2000
    3.5904    0.3175   -0.3893 O   0  0  0  0  0  0  0  0  0  0  0  0
    2.5247   -0.2574   -0.2457 C   0  0  0  0  0  0  0  0  0  0  0  0
    1.2942    0.5606   -0.4154 C   0  0  0  0  0  0  0  0  0  0  0  0
    0.0426   -0.2589   -0.2139 C   0  0  0  0  0  0  0  0  0  0  0  0
   -0.0270   -0.8565    1.1365 C   0  0  0  0  0  0  0  0  0  0  0  0
    0.3521   -0.2500    2.1102 O   0  0  0  0  0  0  0  0  0  0  0  0
   -1.1298    0.7212   -0.2907 C   0  0  0  0  0  0  0  0  0  0  0  0
   -2.4702    0.0366   -0.1043 C   0  0  0  0  0  0  0  0  0  0  0  0
   -2.0350    0.6115   -1.3078 O   0  0  0  0  0  0  0  0  0  0  0  0
    2.4890   -1.3222   -0.0041 H   0  0  0  0  0  0  0  0  0  0  0  0
    1.2501    1.4213    0.2788 H   0  0  0  0  0  0  0  0  0  0  0  0
    1.2250    0.9904   -1.4493 H   0  0  0  0  0  0  0  0  0  0  0  0
   -0.0606   -1.0574   -0.9846 H   0  0  0  0  0  0  0  0  0  0  0  0
   -0.4207   -1.8465    1.2573 H   0  0  0  0  0  0  0  0  0  0  0  0
   -0.9372    1.6635    0.2377 H   0  0  0  0  0  0  0  0  0  0  0  0
   -2.5267   -1.0671   -0.1599 H   0  0  0  0  0  0  0  0  0  0  0  0
   -3.1609    0.5934    0.5446 H   0  0  0  0  0  0  0  0  0  0  0  0
  1  2  2  0
  2  3  1  0
  3  4  1  0
  4  5  1  0
  5  6  2  0
  4  7  1  0
  7  8  1  0
  8  9  1  0
  9  7  1  0
  2 10  1  0
  3 11  1  0
  3 12  1  0
  4 13  1  0
  5 14  1  0
  7 15  1  0
  8 16  1  0
  8 17  1  0
M  END
