
     RDKit          3D

 18 18  0  0  0  0  0  0  0  0999 V2000
    2.9256   -0.5581   -0.3047 O   0  0  0  0  0  0  0  0  0  0  0  0
    2.2069    0.4367   -0.2557 C   0  0  0  0  0  0  0  0  0  0  0  0
    0.7980    0.2857   -0.6693 C   0  0  0  0  0  0  0  0  0  0  0  0
    0.3736   -1.1492   -0.9103 C   0  0  0  0  0  0  0  0  0  0  0  0
    0.0083   -1.2174    0.5721 C   0  0  0  0  0  0  0  0  0  0  0  0
   -0.1350    0.2756    0.5482 C   0  0  0  0  0  0  0  0  0  0  0  0
   -1.4831    0.7956    0.1213 C   0  0  0  0  0  0  0  0  0  0  0  0
   -2.4048    0.8297    1.1438 O   0  0  0  0  0  0  0  0  0  0  0  0
    2.5508    1.4073    0.0718 H   0  0  0  0  0  0  0  0  0  0  0  0
    0.5078    1.0019   -1.4392 H   0  0  0  0  0  0  0  0  0  0  0  0
    1.2474   -1.7476   -1.1932 H   0  0  0  0  0  0  0  0  0  0  0  0
   -0.5329   -1.2676   -1.5112 H   0  0  0  0  0  0  0  0  0  0  0  0
    0.9234   -1.5092    1.1340 H   0  0  0  0  0  0  0  0  0  0  0  0
   -0.9035   -1.7574    0.8079 H   0  0  0  0  0  0  0  0  0  0  0  0
    0.3132    0.7899    1.3935 H   0  0  0  0  0  0  0  0  0  0  0  0
   -1.8724    0.2283   -0.7353 H   0  0  0  0  0  0  0  0  0  0  0  0
   -1.3182    1.8543   -0.2144 H   0  0  0  0  0  0  0  0  0  0  0  0
   -3.2053    1.3013    0.8054 H   0  0  0  0  0  0  0  0  0  0  0  0
  1  2  2  0
  2  3  1  0
  3  4  1  0
  4  5  1  0
  5  6  1  0
  6  7  1  0
  7  8  1  0
  6  3  1  0
  2  9  1  0
  3 10  1  0
  4 11  1  0
  4 12  1  0
  5 13  1  0
  5 14  1  0
  6 15  1  0
  7 16  1  0
  7 17  1  0
  8 18  1  0
M  END
