
     RDKit          3D

 18 18  0  0  0  0  0  0  0  0999 V2000
    3.9426   -0.1039   -0.3714 O   0  0  0  0  0  0  0  0  0  0  0  0
    2.7526   -0.3372   -0.3501 C   0  0  0  0  0  0  0  0  0  0  0  0
    1.8322    0.6980   -0.8733 C   0  0  0  0  0  0  0  0  0  0  0  0
    0.4990    0.3357   -0.7701 O   0  0  0  0  0  0  0  0  0  0  0  0
    0.1845    0.1655    0.5465 C   0  0  0  0  0  0  0  0  0  0  0  0
   -1.2479   -0.2299    0.7866 C   0  0  0  0  0  0  0  0  0  0  0  0
   -2.2428    0.8145    0.2602 C   0  0  0  0  0  0  0  0  0  0  0  0
   -2.1778   -0.5698   -0.2781 C   0  0  0  0  0  0  0  0  0  0  0  0
    2.3665   -1.2616    0.0327 H   0  0  0  0  0  0  0  0  0  0  0  0
    2.1281    0.8858   -1.9371 H   0  0  0  0  0  0  0  0  0  0  0  0
    2.0171    1.6335   -0.2669 H   0  0  0  0  0  0  0  0  0  0  0  0
    0.3002    1.1793    1.0357 H   0  0  0  0  0  0  0  0  0  0  0  0
    0.8274   -0.5392    1.0714 H   0  0  0  0  0  0  0  0  0  0  0  0
   -1.4282   -0.6510    1.7979 H   0  0  0  0  0  0  0  0  0  0  0  0
   -1.8809    1.6140   -0.3861 H   0  0  0  0  0  0  0  0  0  0  0  0
   -3.0116    1.1024    1.0187 H   0  0  0  0  0  0  0  0  0  0  0  0
   -3.0339   -1.2451   -0.0086 H   0  0  0  0  0  0  0  0  0  0  0  0
   -1.8274   -0.7202   -1.3078 H   0  0  0  0  0  0  0  0  0  0  0  0
  1  2  2  0
  2  3  1  0
  3  4  1  0
  4  5  1  0
  5  6  1  0
  6  7  1  0
  7  8  1  0
  8  6  1  0
  2  9  1  0
  3 10  1  0
  3 11  1  0
  5 12  1  0
  5 13  1  0
  6 14  1  0
  7 15  1  0
  7 16  1  0
  8 17  1  0
  8 18  1  0
M  END
