
     RDKit          3D

 19 20  0  0  0  0  0  0  0  0999 V2000
    1.4691   -0.8038    2.3644 O   0  0  0  0  0  0  0  0  0  0  0  0
    0.4771   -0.8836    1.6971 C   0  0  0  0  0  0  0  0  0  0  0  0
    0.3661   -0.3778    0.3081 C   0  0  0  0  0  0  0  0  0  0  0  0
   -0.9725   -0.5699   -0.3765 C   0  0  0  0  0  0  0  0  0  0  0  0
   -2.2227   -0.0241    0.1336 C   0  0  0  0  0  0  0  0  0  0  0  0
   -1.5399    0.6952   -1.0135 C   0  0  0  0  0  0  0  0  0  0  0  0
    1.6041   -0.6798   -0.5144 C   0  0  0  0  0  0  0  0  0  0  0  0
    1.1888    0.7396   -0.1698 C   0  0  0  0  0  0  0  0  0  0  0  0
    2.0295    1.4478    0.6860 O   0  0  0  0  0  0  0  0  0  0  0  0
   -0.3924   -1.3545    2.1362 H   0  0  0  0  0  0  0  0  0  0  0  0
   -1.0015   -1.4998   -1.0088 H   0  0  0  0  0  0  0  0  0  0  0  0
   -3.1484   -0.5965   -0.0890 H   0  0  0  0  0  0  0  0  0  0  0  0
   -2.2746    0.5151    1.1028 H   0  0  0  0  0  0  0  0  0  0  0  0
   -1.1127    1.6834   -0.7609 H   0  0  0  0  0  0  0  0  0  0  0  0
   -1.9649    0.5495   -2.0418 H   0  0  0  0  0  0  0  0  0  0  0  0
    2.5098   -1.0313   -0.0162 H   0  0  0  0  0  0  0  0  0  0  0  0
    1.4142   -1.0641   -1.5258 H   0  0  0  0  0  0  0  0  0  0  0  0
    0.8629    1.3590   -1.0312 H   0  0  0  0  0  0  0  0  0  0  0  0
    2.7080    1.8955    0.1196 H   0  0  0  0  0  0  0  0  0  0  0  0
  1  2  2  0
  2  3  1  0
  3  4  1  0
  4  5  1  0
  5  6  1  0
  3  7  1  0
  7  8  1  0
  8  9  1  0
  8  3  1  0
  6  4  1  0
  2 10  1  0
  4 11  1  0
  5 12  1  0
  5 13  1  0
  6 14  1  0
  6 15  1  0
  7 16  1  0
  7 17  1  0
  8 18  1  0
  9 19  1  0
M  END
