
     RDKit          3D

 18 19  0  0  0  0  0  0  0  0999 V2000
    1.8232   -1.1417   -1.3171 O   0  0  0  0  0  0  0  0  0  0  0  0
    1.9172   -0.7551   -0.1750 C   0  0  0  0  0  0  0  0  0  0  0  0
    0.9587    0.1587    0.4394 C   0  0  0  0  0  0  0  0  0  0  0  0
    0.6961    1.4528   -0.3516 C   0  0  0  0  0  0  0  0  0  0  0  0
   -0.7305    1.3715    0.2191 C   0  0  0  0  0  0  0  0  0  0  0  0
   -0.4769   -0.0952    0.2856 C   0  0  0  0  0  0  0  0  0  0  0  0
   -1.0653   -0.9774   -0.7393 C   0  0  0  0  0  0  0  0  0  0  0  0
   -1.3080   -1.1209    0.7749 C   0  0  0  0  0  0  0  0  0  0  0  0
    2.7799   -1.1318    0.3970 H   0  0  0  0  0  0  0  0  0  0  0  0
    1.2635    0.4667    1.4682 H   0  0  0  0  0  0  0  0  0  0  0  0
    0.6930    1.1993   -1.4193 H   0  0  0  0  0  0  0  0  0  0  0  0
    1.2732    2.3095   -0.0182 H   0  0  0  0  0  0  0  0  0  0  0  0
   -1.5182    1.6222   -0.4850 H   0  0  0  0  0  0  0  0  0  0  0  0
   -0.7251    1.9009    1.1953 H   0  0  0  0  0  0  0  0  0  0  0  0
   -0.5089   -1.7800   -1.2428 H   0  0  0  0  0  0  0  0  0  0  0  0
   -1.8707   -0.5077   -1.3418 H   0  0  0  0  0  0  0  0  0  0  0  0
   -2.3596   -0.9405    1.0581 H   0  0  0  0  0  0  0  0  0  0  0  0
   -0.8415   -2.0313    1.2528 H   0  0  0  0  0  0  0  0  0  0  0  0
  1  2  2  0
  2  3  1  0
  3  4  1  0
  4  5  1  0
  5  6  1  0
  6  7  1  0
  7  8  1  0
  6  3  1  0
  8  6  1  0
  2  9  1  0
  3 10  1  0
  4 11  1  0
  4 12  1  0
  5 13  1  0
  5 14  1  0
  7 15  1  0
  7 16  1  0
  8 17  1  0
  8 18  1  0
M  END
