
     RDKit          3D

 17 18  0  0  0  0  0  0  0  0999 V2000
   -2.1793   -1.2614   -1.2652 O   0  0  0  0  0  0  0  0  0  0  0  0
   -1.5644   -1.3384   -0.2237 C   0  0  0  0  0  0  0  0  0  0  0  0
   -0.5599   -0.3592    0.1465 C   0  0  0  0  0  0  0  0  0  0  0  0
    0.6361   -0.8623    0.8750 C   0  0  0  0  0  0  0  0  0  0  0  0
    1.7427   -0.2621    0.4483 C   0  0  0  0  0  0  0  0  0  0  0  0
    1.3833    0.7043   -0.6123 C   0  0  0  0  0  0  0  0  0  0  0  0
   -0.0315    0.4637   -1.0047 C   0  0  0  0  0  0  0  0  0  0  0  0
   -0.9325    1.4701   -0.6333 O   0  0  0  0  0  0  0  0  0  0  0  0
   -1.0376    0.9637    0.6839 C   0  0  0  0  0  0  0  0  0  0  0  0
   -1.7898   -2.1660    0.4258 H   0  0  0  0  0  0  0  0  0  0  0  0
    0.5486   -1.6260    1.6484 H   0  0  0  0  0  0  0  0  0  0  0  0
    2.7214   -0.4928    0.8567 H   0  0  0  0  0  0  0  0  0  0  0  0
    1.5530    1.7709   -0.2904 H   0  0  0  0  0  0  0  0  0  0  0  0
    2.0933    0.5210   -1.4714 H   0  0  0  0  0  0  0  0  0  0  0  0
   -0.2234    0.0762   -2.0112 H   0  0  0  0  0  0  0  0  0  0  0  0
   -0.2977    1.4633    1.3467 H   0  0  0  0  0  0  0  0  0  0  0  0
   -2.0623    0.9352    1.0810 H   0  0  0  0  0  0  0  0  0  0  0  0
  1  2  2  0
  2  3  1  0
  3  4  1  0
  4  5  2  0
  5  6  1  0
  6  7  1  0
  7  8  1  0
  8  9  1  0
  7  3  1  0
  9  3  1  0
  2 10  1  0
  4 11  1  0
  5 12  1  0
  6 13  1  0
  6 14  1  0
  7 15  1  0
  9 16  1  0
  9 17  1  0
M  END
