
     RDKit          3D

 19 20  0  0  0  0  0  0  0  0999 V2000
   -1.7850    2.3918    0.3389 O   0  0  0  0  0  0  0  0  0  0  0  0
   -0.7879    1.8450   -0.0897 C   0  0  0  0  0  0  0  0  0  0  0  0
   -0.5404    0.3949    0.1152 C   0  0  0  0  0  0  0  0  0  0  0  0
    0.7357   -0.1477   -0.4706 C   0  0  0  0  0  0  0  0  0  0  0  0
    0.8020    0.0177   -1.8676 O   0  0  0  0  0  0  0  0  0  0  0  0
    2.0130   -0.0681    0.2729 C   0  0  0  0  0  0  0  0  0  0  0  0
    1.2831   -1.3733    0.1143 C   0  0  0  0  0  0  0  0  0  0  0  0
   -1.3081   -0.3648    1.1286 C   0  0  0  0  0  0  0  0  0  0  0  0
   -1.7670   -0.4545   -0.2863 C   0  0  0  0  0  0  0  0  0  0  0  0
   -0.0728    2.4438   -0.6318 H   0  0  0  0  0  0  0  0  0  0  0  0
    0.8866    1.0027   -2.0025 H   0  0  0  0  0  0  0  0  0  0  0  0
    1.9867    0.4613    1.2585 H   0  0  0  0  0  0  0  0  0  0  0  0
    2.9267    0.1095   -0.3306 H   0  0  0  0  0  0  0  0  0  0  0  0
    1.7701   -2.0731   -0.6024 H   0  0  0  0  0  0  0  0  0  0  0  0
    0.9906   -1.8422    1.0457 H   0  0  0  0  0  0  0  0  0  0  0  0
   -0.8916   -1.2866    1.5445 H   0  0  0  0  0  0  0  0  0  0  0  0
   -1.9130    0.2552    1.8453 H   0  0  0  0  0  0  0  0  0  0  0  0
   -2.7153    0.0524   -0.4987 H   0  0  0  0  0  0  0  0  0  0  0  0
   -1.6132   -1.3639   -0.8837 H   0  0  0  0  0  0  0  0  0  0  0  0
  1  2  2  0
  2  3  1  0
  3  4  1  0
  4  5  1  0
  4  6  1  0
  6  7  1  0
  3  8  1  0
  8  9  1  0
  9  3  1  0
  7  4  1  0
  2 10  1  0
  5 11  1  0
  6 12  1  0
  6 13  1  0
  7 14  1  0
  7 15  1  0
  8 16  1  0
  8 17  1  0
  9 18  1  0
  9 19  1  0
M  END
