
     RDKit          3D

 19 21  0  0  0  0  0  0  0  0999 V2000
    1.8903    2.4673   -0.0752 O   0  0  0  0  0  0  0  0  0  0  0  0
    0.9781    1.8913    0.4757 C   0  0  0  0  0  0  0  0  0  0  0  0
    0.4197    0.6300    0.0183 C   0  0  0  0  0  0  0  0  0  0  0  0
   -0.8491    0.6909   -0.7947 C   0  0  0  0  0  0  0  0  0  0  0  0
   -1.7932   -0.3159   -0.1931 C   0  0  0  0  0  0  0  0  0  0  0  0
   -0.8232   -1.2936    0.4612 C   0  0  0  0  0  0  0  0  0  0  0  0
    0.5423   -1.4547   -0.0452 C   0  0  0  0  0  0  0  0  0  0  0  0
    1.3681   -0.3571   -0.6151 C   0  0  0  0  0  0  0  0  0  0  0  0
    0.1580   -0.4269    1.0596 C   0  0  0  0  0  0  0  0  0  0  0  0
    0.5540    2.3456    1.3632 H   0  0  0  0  0  0  0  0  0  0  0  0
   -0.6662    0.3517   -1.8537 H   0  0  0  0  0  0  0  0  0  0  0  0
   -1.3017    1.7023   -0.8216 H   0  0  0  0  0  0  0  0  0  0  0  0
   -2.3772    0.2184    0.5909 H   0  0  0  0  0  0  0  0  0  0  0  0
   -2.4466   -0.7972   -0.9161 H   0  0  0  0  0  0  0  0  0  0  0  0
   -1.3020   -2.1574    0.9084 H   0  0  0  0  0  0  0  0  0  0  0  0
    1.0929   -2.3461    0.2700 H   0  0  0  0  0  0  0  0  0  0  0  0
    1.4601   -0.2971   -1.7057 H   0  0  0  0  0  0  0  0  0  0  0  0
    2.3574   -0.3067   -0.0733 H   0  0  0  0  0  0  0  0  0  0  0  0
    0.7382   -0.5447    1.9464 H   0  0  0  0  0  0  0  0  0  0  0  0
  1  2  2  0
  2  3  1  0
  3  4  1  0
  4  5  1  0
  5  6  1  0
  6  7  1  0
  7  8  1  0
  7  9  1  0
  8  3  1  0
  9  3  1  0
  9  6  1  0
  2 10  1  0
  4 11  1  0
  4 12  1  0
  5 13  1  0
  5 14  1  0
  6 15  1  0
  7 16  1  0
  8 17  1  0
  8 18  1  0
  9 19  1  0
M  END
