
     RDKit          3D

 19 19  0  0  0  0  0  0  0  0999 V2000
    3.6607   -0.9781   -0.6318 O   0  0  0  0  0  0  0  0  0  0  0  0
    3.0503   -0.1425   -0.0216 C   0  0  0  0  0  0  0  0  0  0  0  0
    1.6774    0.2940   -0.4070 C   0  0  0  0  0  0  0  0  0  0  0  0
    0.6374   -0.7101    0.0900 C   0  0  0  0  0  0  0  0  0  0  0  0
   -0.7106   -0.1392   -0.3750 C   0  0  0  0  0  0  0  0  0  0  0  0
   -0.9033    0.0306   -1.7282 O   0  0  0  0  0  0  0  0  0  0  0  0
   -1.1509    0.9890    0.5478 C   0  0  0  0  0  0  0  0  0  0  0  0
   -1.8577   -0.3619    0.4932 C   0  0  0  0  0  0  0  0  0  0  0  0
   -3.1781   -0.2358    0.0490 O   0  0  0  0  0  0  0  0  0  0  0  0
    3.4929    0.3379    0.8599 H   0  0  0  0  0  0  0  0  0  0  0  0
    1.4556    1.3009    0.0172 H   0  0  0  0  0  0  0  0  0  0  0  0
    1.5513    0.3834   -1.5149 H   0  0  0  0  0  0  0  0  0  0  0  0
    0.8244   -1.7162   -0.2902 H   0  0  0  0  0  0  0  0  0  0  0  0
    0.6792   -0.6965    1.2001 H   0  0  0  0  0  0  0  0  0  0  0  0
   -1.6370   -0.5876   -2.0140 H   0  0  0  0  0  0  0  0  0  0  0  0
   -1.5962    1.8567    0.0196 H   0  0  0  0  0  0  0  0  0  0  0  0
   -0.6011    1.2149    1.4642 H   0  0  0  0  0  0  0  0  0  0  0  0
   -1.7156   -1.0018    1.4114 H   0  0  0  0  0  0  0  0  0  0  0  0
   -3.6787    0.1624    0.8303 H   0  0  0  0  0  0  0  0  0  0  0  0
  1  2  2  0
  2  3  1  0
  3  4  1  0
  4  5  1  0
  5  6  1  0
  5  7  1  0
  7  8  1  0
  8  9  1  0
  8  5  1  0
  2 10  1  0
  3 11  1  0
  3 12  1  0
  4 13  1  0
  4 14  1  0
  6 15  1  0
  7 16  1  0
  7 17  1  0
  8 18  1  0
  9 19  1  0
M  END
