
     RDKit          3D

 16 16  0  0  0  0  0  0  0  0999 V2000
    1.9693   -1.7863   -0.0139 O   0  0  0  0  0  0  0  0  0  0  0  0
    1.7570   -0.7590   -0.6154 C   0  0  0  0  0  0  0  0  0  0  0  0
    1.3414    0.4848    0.0585 C   0  0  0  0  0  0  0  0  0  0  0  0
   -0.1287    0.5219    0.3831 C   0  0  0  0  0  0  0  0  0  0  0  0
   -0.5753    1.6710    1.0196 O   0  0  0  0  0  0  0  0  0  0  0  0
   -0.8103   -0.7503    0.6263 C   0  0  0  0  0  0  0  0  0  0  0  0
   -1.0896   -0.0071   -0.6463 C   0  0  0  0  0  0  0  0  0  0  0  0
   -2.3672    0.5450   -0.7212 O   0  0  0  0  0  0  0  0  0  0  0  0
    1.8781   -0.7622   -1.6810 H   0  0  0  0  0  0  0  0  0  0  0  0
    1.5983    1.4021   -0.5105 H   0  0  0  0  0  0  0  0  0  0  0  0
    1.8752    0.5135    1.0532 H   0  0  0  0  0  0  0  0  0  0  0  0
    0.0827    2.0552    1.6449 H   0  0  0  0  0  0  0  0  0  0  0  0
   -1.6273   -0.8344    1.3984 H   0  0  0  0  0  0  0  0  0  0  0  0
   -0.3073   -1.7230    0.4702 H   0  0  0  0  0  0  0  0  0  0  0  0
   -0.6123   -0.3551   -1.5876 H   0  0  0  0  0  0  0  0  0  0  0  0
   -2.9840   -0.2161   -0.8783 H   0  0  0  0  0  0  0  0  0  0  0  0
  1  2  2  0
  2  3  1  0
  3  4  1  0
  4  5  1  0
  4  6  1  0
  6  7  1  0
  7  8  1  0
  7  4  1  0
  2  9  1  0
  3 10  1  0
  3 11  1  0
  5 12  1  0
  6 13  1  0
  6 14  1  0
  7 15  1  0
  8 16  1  0
M  END
