
     RDKit          3D

 19 19  0  0  0  0  0  0  0  0999 V2000
    3.4097    1.0519   -0.3820 O   0  0  0  0  0  0  0  0  0  0  0  0
    3.1612    0.0460    0.2324 C   0  0  0  0  0  0  0  0  0  0  0  0
    1.7670   -0.4015    0.3931 C   0  0  0  0  0  0  0  0  0  0  0  0
    0.8679    0.5892   -0.3123 C   0  0  0  0  0  0  0  0  0  0  0  0
   -0.5643    0.2078   -0.1967 C   0  0  0  0  0  0  0  0  0  0  0  0
   -1.4275   -0.0646   -1.1613 C   0  0  0  0  0  0  0  0  0  0  0  0
   -2.7352   -0.3918   -0.5502 C   0  0  0  0  0  0  0  0  0  0  0  0
   -2.4677   -0.6277    0.7743 O   0  0  0  0  0  0  0  0  0  0  0  0
   -1.2990    0.0615    1.0917 C   0  0  0  0  0  0  0  0  0  0  0  0
    3.9590   -0.5289    0.6661 H   0  0  0  0  0  0  0  0  0  0  0  0
    1.6162   -1.4068   -0.1045 H   0  0  0  0  0  0  0  0  0  0  0  0
    1.4618   -0.5091    1.4522 H   0  0  0  0  0  0  0  0  0  0  0  0
    1.1197    0.5902   -1.3983 H   0  0  0  0  0  0  0  0  0  0  0  0
    1.0795    1.5872    0.1046 H   0  0  0  0  0  0  0  0  0  0  0  0
   -1.1454   -0.0321   -2.2168 H   0  0  0  0  0  0  0  0  0  0  0  0
   -3.3780    0.5234   -0.6818 H   0  0  0  0  0  0  0  0  0  0  0  0
   -3.2169   -1.2728   -1.0524 H   0  0  0  0  0  0  0  0  0  0  0  0
   -0.7018   -0.4854    1.8347 H   0  0  0  0  0  0  0  0  0  0  0  0
   -1.5062    1.0634    1.5072 H   0  0  0  0  0  0  0  0  0  0  0  0
  1  2  2  0
  2  3  1  0
  3  4  1  0
  4  5  1  0
  5  6  2  0
  6  7  1  0
  7  8  1  0
  8  9  1  0
  9  5  1  0
  2 10  1  0
  3 11  1  0
  3 12  1  0
  4 13  1  0
  4 14  1  0
  6 15  1  0
  7 16  1  0
  7 17  1  0
  9 18  1  0
  9 19  1  0
M  END
