
     RDKit          3D

 17 16  0  0  0  0  0  0  0  0999 V2000
    4.7050   -0.7616    1.0497 O   0  0  0  0  0  0  0  0  0  0  0  0
    3.9770   -0.1925    0.1660 C   0  0  0  0  0  0  0  0  0  0  0  0
    2.5595   -0.2391    0.4005 C   0  0  0  0  0  0  0  0  0  0  0  0
    1.3647   -0.2637    0.5963 C   0  0  0  0  0  0  0  0  0  0  0  0
   -0.0578   -0.3155    0.8383 C   0  0  0  0  0  0  0  0  0  0  0  0
   -0.7864    0.2195   -0.3782 C   0  0  0  0  0  0  0  0  0  0  0  0
   -0.4066    1.5464   -0.6266 O   0  0  0  0  0  0  0  0  0  0  0  0
   -2.2708    0.2013   -0.0304 C   0  0  0  0  0  0  0  0  0  0  0  0
   -3.0575    0.6977   -1.0446 O   0  0  0  0  0  0  0  0  0  0  0  0
    4.4216    0.2877   -0.6957 H   0  0  0  0  0  0  0  0  0  0  0  0
   -0.3892    0.2309    1.7362 H   0  0  0  0  0  0  0  0  0  0  0  0
   -0.3499   -1.3809    0.9414 H   0  0  0  0  0  0  0  0  0  0  0  0
   -0.5946   -0.4381   -1.2262 H   0  0  0  0  0  0  0  0  0  0  0  0
   -0.4484    1.6638   -1.6110 H   0  0  0  0  0  0  0  0  0  0  0  0
   -2.3816    0.8207    0.8886 H   0  0  0  0  0  0  0  0  0  0  0  0
   -2.5483   -0.8459    0.2557 H   0  0  0  0  0  0  0  0  0  0  0  0
   -3.7367    0.0282   -1.2599 H   0  0  0  0  0  0  0  0  0  0  0  0
  1  2  2  0
  2  3  1  0
  3  4  3  0
  4  5  1  0
  5  6  1  0
  6  7  1  0
  6  8  1  0
  8  9  1  0
  2 10  1  0
  5 11  1  0
  5 12  1  0
  6 13  1  0
  7 14  1  0
  8 15  1  0
  8 16  1  0
  9 17  1  0
M  END
