
     RDKit          3D

 17 18  0  0  0  0  0  0  0  0999 V2000
   -2.4930   -1.8181    0.5923 O   0  0  0  0  0  0  0  0  0  0  0  0
   -1.3032   -1.8026    0.3457 C   0  0  0  0  0  0  0  0  0  0  0  0
   -0.5829   -0.5739    0.2465 C   0  0  0  0  0  0  0  0  0  0  0  0
    0.6877   -0.5069    1.0582 C   0  0  0  0  0  0  0  0  0  0  0  0
    1.5599    0.3073    0.4483 C   0  0  0  0  0  0  0  0  0  0  0  0
    0.7659    0.9449   -0.6357 C   0  0  0  0  0  0  0  0  0  0  0  0
   -0.3994    1.6248    0.0548 C   0  0  0  0  0  0  0  0  0  0  0  0
   -1.2810    0.5923    0.4394 O   0  0  0  0  0  0  0  0  0  0  0  0
    0.0254   -0.3039   -1.1460 C   0  0  0  0  0  0  0  0  0  0  0  0
   -0.7940   -2.7480    0.2011 H   0  0  0  0  0  0  0  0  0  0  0  0
    0.8610   -1.0346    1.9845 H   0  0  0  0  0  0  0  0  0  0  0  0
    2.5891    0.4932    0.6498 H   0  0  0  0  0  0  0  0  0  0  0  0
    1.2859    1.4953   -1.3695 H   0  0  0  0  0  0  0  0  0  0  0  0
    0.0003    2.1270    0.9600 H   0  0  0  0  0  0  0  0  0  0  0  0
   -0.8806    2.3769   -0.5687 H   0  0  0  0  0  0  0  0  0  0  0  0
    0.7001   -1.1137   -1.3858 H   0  0  0  0  0  0  0  0  0  0  0  0
   -0.7414   -0.0599   -1.8749 H   0  0  0  0  0  0  0  0  0  0  0  0
  1  2  2  0
  2  3  1  0
  3  4  1  0
  4  5  2  0
  5  6  1  0
  6  7  1  0
  7  8  1  0
  6  9  1  0
  8  3  1  0
  9  3  1  0
  2 10  1  0
  4 11  1  0
  5 12  1  0
  6 13  1  0
  7 14  1  0
  7 15  1  0
  9 16  1  0
  9 17  1  0
M  END
