
     RDKit          3D

 15 15  0  0  0  0  0  0  0  0999 V2000
    2.8544   -0.3028   -0.0038 O   0  0  0  0  0  0  0  0  0  0  0  0
    1.6817   -0.5724   -0.1924 C   0  0  0  0  0  0  0  0  0  0  0  0
    0.6561    0.4031    0.2632 C   0  0  0  0  0  0  0  0  0  0  0  0
    1.2365    1.4959    0.8483 O   0  0  0  0  0  0  0  0  0  0  0  0
   -0.2265   -0.3412    1.2149 C   0  0  0  0  0  0  0  0  0  0  0  0
   -1.3264   -0.7415    0.5964 C   0  0  0  0  0  0  0  0  0  0  0  0
   -1.3150   -0.3184   -0.8304 C   0  0  0  0  0  0  0  0  0  0  0  0
   -0.2959    0.7528   -0.8226 C   0  0  0  0  0  0  0  0  0  0  0  0
   -0.2779    1.7095   -1.5714 O   0  0  0  0  0  0  0  0  0  0  0  0
    1.4208   -1.5069   -0.6826 H   0  0  0  0  0  0  0  0  0  0  0  0
    0.9944    2.3620    0.4792 H   0  0  0  0  0  0  0  0  0  0  0  0
   -0.0147   -0.5320    2.2506 H   0  0  0  0  0  0  0  0  0  0  0  0
   -2.1074   -1.3001    1.0964 H   0  0  0  0  0  0  0  0  0  0  0  0
   -2.3221    0.0355   -1.1450 H   0  0  0  0  0  0  0  0  0  0  0  0
   -0.9578   -1.1436   -1.5009 H   0  0  0  0  0  0  0  0  0  0  0  0
  1  2  2  0
  2  3  1  0
  3  4  1  0
  3  5  1  0
  5  6  2  0
  6  7  1  0
  7  8  1  0
  8  9  2  0
  8  3  1  0
  2 10  1  0
  4 11  1  0
  5 12  1  0
  6 13  1  0
  7 14  1  0
  7 15  1  0
M  END
