
     RDKit          3D

 17 18  0  0  0  0  0  0  0  0999 V2000
    1.8213   -1.9874   -0.0188 O   0  0  0  0  0  0  0  0  0  0  0  0
    2.4255   -0.9459    0.0565 C   0  0  0  0  0  0  0  0  0  0  0  0
    1.7100    0.3142    0.2575 C   0  0  0  0  0  0  0  0  0  0  0  0
    0.2178    0.1539    0.3503 C   0  0  0  0  0  0  0  0  0  0  0  0
   -0.6078    1.3697    0.5550 C   0  0  0  0  0  0  0  0  0  0  0  0
   -1.8797    1.1153    0.3072 C   0  0  0  0  0  0  0  0  0  0  0  0
   -2.0127   -0.3072   -0.0881 C   0  0  0  0  0  0  0  0  0  0  0  0
   -0.6009   -0.8391   -0.0857 C   0  0  0  0  0  0  0  0  0  0  0  0
   -0.1054   -0.9650    1.2537 O   0  0  0  0  0  0  0  0  0  0  0  0
    3.4934   -0.9565   -0.0259 H   0  0  0  0  0  0  0  0  0  0  0  0
    2.1027    0.8095    1.1762 H   0  0  0  0  0  0  0  0  0  0  0  0
    1.9050    1.0541   -0.5689 H   0  0  0  0  0  0  0  0  0  0  0  0
   -0.2361    2.3304    0.8621 H   0  0  0  0  0  0  0  0  0  0  0  0
   -2.7154    1.8444    0.3815 H   0  0  0  0  0  0  0  0  0  0  0  0
   -2.6423   -0.8809    0.6485 H   0  0  0  0  0  0  0  0  0  0  0  0
   -2.5102   -0.4288   -1.0699 H   0  0  0  0  0  0  0  0  0  0  0  0
   -0.3653   -1.6808   -0.7771 H   0  0  0  0  0  0  0  0  0  0  0  0
  1  2  2  0
  2  3  1  0
  3  4  1  0
  4  5  1  0
  5  6  2  0
  6  7  1  0
  7  8  1  0
  8  9  1  0
  8  4  1  0
  9  4  1  0
  2 10  1  0
  3 11  1  0
  3 12  1  0
  5 13  1  0
  6 14  1  0
  7 15  1  0
  7 16  1  0
  8 17  1  0
M  END
