
     RDKit          3D

 21 21  0  0  0  0  0  0  0  0999 V2000
    3.5158    0.2344    0.0796 O   0  0  0  0  0  0  0  0  0  0  0  0
    2.5383   -0.4118    0.3569 C   0  0  0  0  0  0  0  0  0  0  0  0
    1.2450   -0.1586   -0.3116 C   0  0  0  0  0  0  0  0  0  0  0  0
    0.3670   -1.3427   -0.1918 C   0  0  0  0  0  0  0  0  0  0  0  0
   -1.0937   -1.0925   -0.2412 C   0  0  0  0  0  0  0  0  0  0  0  0
   -1.5619    0.1683    0.3849 C   0  0  0  0  0  0  0  0  0  0  0  0
   -2.8748    0.4095   -0.0268 O   0  0  0  0  0  0  0  0  0  0  0  0
   -0.7293    1.3325   -0.0993 C   0  0  0  0  0  0  0  0  0  0  0  0
    0.6832    1.0978    0.3014 C   0  0  0  0  0  0  0  0  0  0  0  0
    2.6000   -1.1816    1.0966 H   0  0  0  0  0  0  0  0  0  0  0  0
    1.4353    0.0700   -1.4011 H   0  0  0  0  0  0  0  0  0  0  0  0
    0.6336   -1.9149    0.7367 H   0  0  0  0  0  0  0  0  0  0  0  0
    0.6082   -2.0513   -1.0342 H   0  0  0  0  0  0  0  0  0  0  0  0
   -1.4898   -1.1331   -1.2967 H   0  0  0  0  0  0  0  0  0  0  0  0
   -1.6002   -1.9511    0.2865 H   0  0  0  0  0  0  0  0  0  0  0  0
   -1.5905    0.1028    1.4972 H   0  0  0  0  0  0  0  0  0  0  0  0
   -2.9638    1.2158   -0.5729 H   0  0  0  0  0  0  0  0  0  0  0  0
   -0.7895    1.3371   -1.2022 H   0  0  0  0  0  0  0  0  0  0  0  0
   -1.0985    2.2462    0.3728 H   0  0  0  0  0  0  0  0  0  0  0  0
    1.2987    1.9483   -0.1092 H   0  0  0  0  0  0  0  0  0  0  0  0
    0.8669    1.0750    1.3744 H   0  0  0  0  0  0  0  0  0  0  0  0
  1  2  2  0
  2  3  1  0
  3  4  1  0
  4  5  1  0
  5  6  1  0
  6  7  1  0
  6  8  1  0
  8  9  1  0
  9  3  1  0
  2 10  1  0
  3 11  1  0
  4 12  1  0
  4 13  1  0
  5 14  1  0
  5 15  1  0
  6 16  1  0
  7 17  1  0
  8 18  1  0
  8 19  1  0
  9 20  1  0
  9 21  1  0
M  END
