
     RDKit          3D

 13 14  0  0  0  0  0  0  0  0999 V2000
   -2.6992    0.5676   -0.4518 O   0  0  0  0  0  0  0  0  0  0  0  0
   -1.8406   -0.1017    0.1046 C   0  0  0  0  0  0  0  0  0  0  0  0
   -0.6742   -0.5593   -0.7004 C   0  0  0  0  0  0  0  0  0  0  0  0
    0.1447   -1.3054    0.2023 O   0  0  0  0  0  0  0  0  0  0  0  0
    1.3207   -0.6533    0.4479 C   0  0  0  0  0  0  0  0  0  0  0  0
    2.2143   -1.1053    1.2113 O   0  0  0  0  0  0  0  0  0  0  0  0
    1.3947    0.6210   -0.2875 C   0  0  0  0  0  0  0  0  0  0  0  0
    0.3732    1.5551   -0.1267 O   0  0  0  0  0  0  0  0  0  0  0  0
    0.1682    0.6197   -1.1147 C   0  0  0  0  0  0  0  0  0  0  0  0
   -1.9854   -0.3166    1.1435 H   0  0  0  0  0  0  0  0  0  0  0  0
   -0.9816   -1.1942   -1.5643 H   0  0  0  0  0  0  0  0  0  0  0  0
    2.3391    0.9644   -0.7272 H   0  0  0  0  0  0  0  0  0  0  0  0
    0.2261    0.9080   -2.1764 H   0  0  0  0  0  0  0  0  0  0  0  0
  1  2  2  0
  2  3  1  0
  3  4  1  0
  4  5  1  0
  5  6  2  0
  5  7  1  0
  7  8  1  0
  8  9  1  0
  9  3  1  0
  9  7  1  0
  2 10  1  0
  3 11  1  0
  7 12  1  0
  9 13  1  0
M  END
