
     RDKit          3D

 17 18  0  0  0  0  0  0  0  0999 V2000
   -1.9200    0.5768    1.7231 O   0  0  0  0  0  0  0  0  0  0  0  0
   -2.1348    0.3440    0.5574 C   0  0  0  0  0  0  0  0  0  0  0  0
   -1.2646   -0.6106   -0.1571 C   0  0  0  0  0  0  0  0  0  0  0  0
   -0.1610   -1.1223    0.7130 C   0  0  0  0  0  0  0  0  0  0  0  0
    0.9699   -0.4630    0.5417 C   0  0  0  0  0  0  0  0  0  0  0  0
    2.3222    0.1632    0.4822 C   0  0  0  0  0  0  0  0  0  0  0  0
    2.0107    0.3568   -0.9000 O   0  0  0  0  0  0  0  0  0  0  0  0
    0.7440    0.6448   -0.4799 C   0  0  0  0  0  0  0  0  0  0  0  0
   -0.4357    0.0988   -1.2511 C   0  0  0  0  0  0  0  0  0  0  0  0
   -2.9399    0.7975   -0.0126 H   0  0  0  0  0  0  0  0  0  0  0  0
   -1.8147   -1.4500   -0.6294 H   0  0  0  0  0  0  0  0  0  0  0  0
   -0.2191   -1.9420    1.4273 H   0  0  0  0  0  0  0  0  0  0  0  0
    3.1319   -0.5449    0.6506 H   0  0  0  0  0  0  0  0  0  0  0  0
    2.3490    1.1288    0.9890 H   0  0  0  0  0  0  0  0  0  0  0  0
    0.5913    1.6303   -0.0291 H   0  0  0  0  0  0  0  0  0  0  0  0
   -1.0567    0.9650   -1.5590 H   0  0  0  0  0  0  0  0  0  0  0  0
   -0.1726   -0.5733   -2.0658 H   0  0  0  0  0  0  0  0  0  0  0  0
  1  2  2  0
  2  3  1  0
  3  4  1  0
  4  5  2  0
  5  6  1  0
  6  7  1  0
  7  8  1  0
  8  9  1  0
  9  3  1  0
  8  5  1  0
  2 10  1  0
  3 11  1  0
  4 12  1  0
  6 13  1  0
  6 14  1  0
  8 15  1  0
  9 16  1  0
  9 17  1  0
M  END
