
     RDKit          3D

 15 15  0  0  0  0  0  0  0  0999 V2000
   -0.0111    1.5126    1.3428 O   0  0  0  0  0  0  0  0  0  0  0  0
   -0.1365    1.7438    0.1702 C   0  0  0  0  0  0  0  0  0  0  0  0
   -0.1827    0.6752   -0.8131 C   0  0  0  0  0  0  0  0  0  0  0  0
   -0.7909   -0.6125   -0.4298 C   0  0  0  0  0  0  0  0  0  0  0  0
   -1.3267   -0.8363    0.9113 C   0  0  0  0  0  0  0  0  0  0  0  0
   -2.4145   -1.3895    1.0803 O   0  0  0  0  0  0  0  0  0  0  0  0
    0.6470   -0.5712   -0.7300 C   0  0  0  0  0  0  0  0  0  0  0  0
    1.6915   -0.5458    0.2830 C   0  0  0  0  0  0  0  0  0  0  0  0
    2.7852   -1.0187    0.0257 O   0  0  0  0  0  0  0  0  0  0  0  0
   -0.2135    2.7748   -0.1245 H   0  0  0  0  0  0  0  0  0  0  0  0
   -0.2984    1.0384   -1.8751 H   0  0  0  0  0  0  0  0  0  0  0  0
   -1.4651   -1.0297   -1.2415 H   0  0  0  0  0  0  0  0  0  0  0  0
   -0.8321   -0.5476    1.8267 H   0  0  0  0  0  0  0  0  0  0  0  0
    0.9518   -1.0579   -1.7052 H   0  0  0  0  0  0  0  0  0  0  0  0
    1.5958   -0.1357    1.2792 H   0  0  0  0  0  0  0  0  0  0  0  0
  1  2  2  0
  2  3  1  0
  3  4  1  0
  4  5  1  0
  5  6  2  0
  4  7  1  0
  7  8  1  0
  8  9  2  0
  7  3  1  0
  2 10  1  0
  3 11  1  0
  4 12  1  0
  5 13  1  0
  7 14  1  0
  8 15  1  0
M  END
