
     RDKit          3D

 15 15  0  0  0  0  0  0  0  0999 V2000
    5.2013    1.4381   -1.5358 O   0  0  0  0  0  0  0  0  0  0  0  0
    4.7092    1.5552   -0.4327 C   0  0  0  0  0  0  0  0  0  0  0  0
    3.1820    0.9128   -0.3855 C   0  0  0  0  0  0  0  0  0  0  0  0
    2.0268    0.4476   -0.3391 C   0  0  0  0  0  0  0  0  0  0  0  0
    0.6771   -0.0803   -0.3056 C   0  0  0  0  0  0  0  0  0  0  0  0
   -0.2350   -0.4235   -0.2848 C   0  0  0  0  0  0  0  0  0  0  0  0
   -1.5571   -0.9108   -0.2325 C   0  0  0  0  0  0  0  0  0  0  0  0
   -2.5721   -0.6134    0.7951 C   0  0  0  0  0  0  0  0  0  0  0  0
   -2.8243   -0.3779   -0.6638 C   0  0  0  0  0  0  0  0  0  0  0  0
    4.9052    1.9040    0.5248 H   0  0  0  0  0  0  0  0  0  0  0  0
   -1.5593   -2.1563   -0.3954 H   0  0  0  0  0  0  0  0  0  0  0  0
   -2.2580    0.1329    1.5462 H   0  0  0  0  0  0  0  0  0  0  0  0
   -3.0995   -1.4826    1.3195 H   0  0  0  0  0  0  0  0  0  0  0  0
   -2.9433    0.6835   -1.0091 H   0  0  0  0  0  0  0  0  0  0  0  0
   -3.6529   -1.0293   -1.1345 H   0  0  0  0  0  0  0  0  0  0  0  0
  1  2  2  0
  2  3  1  0
  3  4  3  0
  4  5  1  0
  5  6  3  0
  6  7  1  0
  7  8  1  0
  8  9  1  0
  9  7  1  0
  2 10  1  0
  7 11  1  0
  8 12  1  0
  8 13  1  0
  9 14  1  0
  9 15  1  0
M  END
