
     RDKit          3D

 17 18  0  0  0  0  0  0  0  0999 V2000
    2.7104    1.3758   -0.6555 O   0  0  0  0  0  0  0  0  0  0  0  0
    2.7024    0.5199    0.2724 C   0  0  0  0  0  0  0  0  0  0  0  0
    1.5497   -0.3468    0.4025 C   0  0  0  0  0  0  0  0  0  0  0  0
    1.5292   -1.2021    1.3211 O   0  0  0  0  0  0  0  0  0  0  0  0
    0.4016   -0.2693   -0.4942 C   0  0  0  0  0  0  0  0  0  0  0  0
   -0.3272    1.0532   -0.5280 C   0  0  0  0  0  0  0  0  0  0  0  0
   -1.6527    0.3990   -0.2729 C   0  0  0  0  0  0  0  0  0  0  0  0
   -2.0019   -0.9255   -0.8106 C   0  0  0  0  0  0  0  0  0  0  0  0
   -0.8489   -0.8706    0.1103 C   0  0  0  0  0  0  0  0  0  0  0  0
    3.5223    0.4279    0.9525 H   0  0  0  0  0  0  0  0  0  0  0  0
    0.5426   -0.6423   -1.5252 H   0  0  0  0  0  0  0  0  0  0  0  0
   -0.2947    1.5950   -1.4930 H   0  0  0  0  0  0  0  0  0  0  0  0
    0.0356    1.7299    0.2864 H   0  0  0  0  0  0  0  0  0  0  0  0
   -2.2905    0.8407    0.4975 H   0  0  0  0  0  0  0  0  0  0  0  0
   -2.9134   -1.3896   -0.4352 H   0  0  0  0  0  0  0  0  0  0  0  0
   -1.7671   -1.1784   -1.8616 H   0  0  0  0  0  0  0  0  0  0  0  0
   -0.8976   -1.1169    1.1683 H   0  0  0  0  0  0  0  0  0  0  0  0
  1  2  2  0
  2  3  1  0
  3  4  2  0
  3  5  1  0
  5  6  1  0
  6  7  1  0
  7  8  1  0
  8  9  1  0
  9  5  1  0
  9  7  1  0
  2 10  1  0
  5 11  1  0
  6 12  1  0
  6 13  1  0
  7 14  1  0
  8 15  1  0
  8 16  1  0
  9 17  1  0
M  END
