
     RDKit          3D

 16 16  0  0  0  0  0  0  0  0999 V2000
    3.1118   -0.4214   -0.1062 O   0  0  0  0  0  0  0  0  0  0  0  0
    2.1950    0.3625    0.0699 C   0  0  0  0  0  0  0  0  0  0  0  0
    0.8667    0.0014   -0.4392 C   0  0  0  0  0  0  0  0  0  0  0  0
    0.1555   -1.0974    0.3681 C   0  0  0  0  0  0  0  0  0  0  0  0
   -1.1319   -0.3903   -0.0766 C   0  0  0  0  0  0  0  0  0  0  0  0
   -2.1499   -0.4115    0.8396 O   0  0  0  0  0  0  0  0  0  0  0  0
   -0.2726    0.8837   -0.0137 C   0  0  0  0  0  0  0  0  0  0  0  0
   -0.6645    1.8447   -0.9277 O   0  0  0  0  0  0  0  0  0  0  0  0
    2.3660    1.3024    0.5915 H   0  0  0  0  0  0  0  0  0  0  0  0
    0.7882   -0.2364   -1.5112 H   0  0  0  0  0  0  0  0  0  0  0  0
    0.2923   -2.0970   -0.0447 H   0  0  0  0  0  0  0  0  0  0  0  0
    0.3507   -0.9504    1.4433 H   0  0  0  0  0  0  0  0  0  0  0  0
   -1.3566   -0.7013   -1.1057 H   0  0  0  0  0  0  0  0  0  0  0  0
   -2.6601   -1.2267    0.7329 H   0  0  0  0  0  0  0  0  0  0  0  0
   -0.2408    1.2112    1.0421 H   0  0  0  0  0  0  0  0  0  0  0  0
   -1.6498    1.9263   -0.8626 H   0  0  0  0  0  0  0  0  0  0  0  0
  1  2  2  0
  2  3  1  0
  3  4  1  0
  4  5  1  0
  5  6  1  0
  5  7  1  0
  7  8  1  0
  7  3  1  0
  2  9  1  0
  3 10  1  0
  4 11  1  0
  4 12  1  0
  5 13  1  0
  6 14  1  0
  7 15  1  0
  8 16  1  0
M  END
