
     RDKit          3D

 19 20  0  0  0  0  0  0  0  0999 V2000
    3.0871    0.5960   -0.8721 O   0  0  0  0  0  0  0  0  0  0  0  0
    2.5206   -0.3118   -0.2669 C   0  0  0  0  0  0  0  0  0  0  0  0
    1.4862    0.0525    0.7375 C   0  0  0  0  0  0  0  0  0  0  0  0
    0.2063    0.3882    0.0314 C   0  0  0  0  0  0  0  0  0  0  0  0
    0.3074    1.4292   -0.8371 O   0  0  0  0  0  0  0  0  0  0  0  0
   -0.3762   -0.9242   -0.5416 C   0  0  0  0  0  0  0  0  0  0  0  0
   -1.6150   -0.0508   -0.5670 C   0  0  0  0  0  0  0  0  0  0  0  0
   -2.4007    0.4147    0.5222 C   0  0  0  0  0  0  0  0  0  0  0  0
   -1.0339    0.2639    0.8775 C   0  0  0  0  0  0  0  0  0  0  0  0
    2.7755   -1.3549   -0.4669 H   0  0  0  0  0  0  0  0  0  0  0  0
    1.8419    0.8586    1.4064 H   0  0  0  0  0  0  0  0  0  0  0  0
    1.3405   -0.8387    1.3789 H   0  0  0  0  0  0  0  0  0  0  0  0
    0.5653    1.0803   -1.7301 H   0  0  0  0  0  0  0  0  0  0  0  0
   -0.0110   -1.1913   -1.5261 H   0  0  0  0  0  0  0  0  0  0  0  0
   -0.3687   -1.6839    0.2482 H   0  0  0  0  0  0  0  0  0  0  0  0
   -1.4101    0.7633   -1.3322 H   0  0  0  0  0  0  0  0  0  0  0  0
   -2.8159    1.4676    0.5668 H   0  0  0  0  0  0  0  0  0  0  0  0
   -3.2227   -0.2891    0.8581 H   0  0  0  0  0  0  0  0  0  0  0  0
   -0.8765   -0.6700    1.5130 H   0  0  0  0  0  0  0  0  0  0  0  0
  1  2  2  0
  2  3  1  0
  3  4  1  0
  4  5  1  0
  4  6  1  0
  6  7  1  0
  7  8  1  0
  8  9  1  0
  9  4  1  0
  9  7  1  0
  2 10  1  0
  3 11  1  0
  3 12  1  0
  5 13  1  0
  6 14  1  0
  6 15  1  0
  7 16  1  0
  8 17  1  0
  8 18  1  0
  9 19  1  0
M  END
