
     RDKit          3D

 17 18  0  0  0  0  0  0  0  0999 V2000
    1.8408    1.5728   -0.1335 O   0  0  0  0  0  0  0  0  0  0  0  0
    1.7678    0.4663    0.3459 C   0  0  0  0  0  0  0  0  0  0  0  0
    1.1968   -0.6540   -0.4106 C   0  0  0  0  0  0  0  0  0  0  0  0
    0.7609   -0.3180   -1.7000 O   0  0  0  0  0  0  0  0  0  0  0  0
   -0.5568   -0.2047   -1.2440 C   0  0  0  0  0  0  0  0  0  0  0  0
   -0.8360    1.1209   -0.6432 C   0  0  0  0  0  0  0  0  0  0  0  0
   -1.0186    1.0001    0.6600 C   0  0  0  0  0  0  0  0  0  0  0  0
   -0.8832   -0.4095    1.0698 C   0  0  0  0  0  0  0  0  0  0  0  0
   -0.1961   -1.0755   -0.0681 C   0  0  0  0  0  0  0  0  0  0  0  0
    2.1281    0.3045    1.3431 H   0  0  0  0  0  0  0  0  0  0  0  0
    1.8898   -1.5176   -0.4897 H   0  0  0  0  0  0  0  0  0  0  0  0
   -1.3360   -0.6218   -1.8717 H   0  0  0  0  0  0  0  0  0  0  0  0
   -0.8844    2.0706   -1.2022 H   0  0  0  0  0  0  0  0  0  0  0  0
   -1.2422    1.8251    1.3625 H   0  0  0  0  0  0  0  0  0  0  0  0
   -0.3361   -0.5327    2.0279 H   0  0  0  0  0  0  0  0  0  0  0  0
   -1.9009   -0.8727    1.1436 H   0  0  0  0  0  0  0  0  0  0  0  0
   -0.3939   -2.1536   -0.1899 H   0  0  0  0  0  0  0  0  0  0  0  0
  1  2  2  0
  2  3  1  0
  3  4  1  0
  4  5  1  0
  5  6  1  0
  6  7  2  0
  7  8  1  0
  8  9  1  0
  9  3  1  0
  9  5  1  0
  2 10  1  0
  3 11  1  0
  5 12  1  0
  6 13  1  0
  7 14  1  0
  8 15  1  0
  8 16  1  0
  9 17  1  0
M  END
