
     RDKit          3D

 17 17  0  0  0  0  0  0  0  0999 V2000
   -2.1138    0.9230    1.5698 O   0  0  0  0  0  0  0  0  0  0  0  0
   -1.4887    1.1297    0.5590 C   0  0  0  0  0  0  0  0  0  0  0  0
   -0.6196    0.0667    0.0181 C   0  0  0  0  0  0  0  0  0  0  0  0
   -1.4471   -1.1692   -0.1308 C   0  0  0  0  0  0  0  0  0  0  0  0
   -2.5792   -1.0624   -0.5590 O   0  0  0  0  0  0  0  0  0  0  0  0
    0.0387    0.4394   -1.2515 C   0  0  0  0  0  0  0  0  0  0  0  0
    1.3531    0.2490   -1.1853 C   0  0  0  0  0  0  0  0  0  0  0  0
    1.7609   -0.2755    0.1311 C   0  0  0  0  0  0  0  0  0  0  0  0
    0.5270   -0.1499    0.9639 C   0  0  0  0  0  0  0  0  0  0  0  0
   -1.5728    2.0786    0.0698 H   0  0  0  0  0  0  0  0  0  0  0  0
   -1.0839   -2.1573    0.1257 H   0  0  0  0  0  0  0  0  0  0  0  0
   -0.5074    0.8171   -2.1105 H   0  0  0  0  0  0  0  0  0  0  0  0
    2.0094    0.4654   -2.0193 H   0  0  0  0  0  0  0  0  0  0  0  0
    2.1012   -1.3365    0.0525 H   0  0  0  0  0  0  0  0  0  0  0  0
    2.6321    0.2950    0.5364 H   0  0  0  0  0  0  0  0  0  0  0  0
    0.3580   -1.0562    1.5982 H   0  0  0  0  0  0  0  0  0  0  0  0
    0.6320    0.7431    1.6321 H   0  0  0  0  0  0  0  0  0  0  0  0
  1  2  2  0
  2  3  1  0
  3  4  1  0
  4  5  2  0
  3  6  1  0
  6  7  2  0
  7  8  1  0
  8  9  1  0
  9  3  1  0
  2 10  1  0
  4 11  1  0
  6 12  1  0
  7 13  1  0
  8 14  1  0
  8 15  1  0
  9 16  1  0
  9 17  1  0
M  END
