
     RDKit          3D

 17 19  0  0  0  0  0  0  0  0999 V2000
    2.2337   -1.4361   -1.2034 O   0  0  0  0  0  0  0  0  0  0  0  0
    1.9727   -0.4848   -0.4867 C   0  0  0  0  0  0  0  0  0  0  0  0
    0.6351   -0.2089   -0.1051 C   0  0  0  0  0  0  0  0  0  0  0  0
   -0.1594    0.8232   -0.9175 C   0  0  0  0  0  0  0  0  0  0  0  0
   -1.0107    0.8776    0.3557 C   0  0  0  0  0  0  0  0  0  0  0  0
    0.3289    0.6510    1.0760 C   0  0  0  0  0  0  0  0  0  0  0  0
   -1.6085   -0.4776    0.3890 C   0  0  0  0  0  0  0  0  0  0  0  0
   -1.0817   -1.4843    1.1862 O   0  0  0  0  0  0  0  0  0  0  0  0
   -0.3717   -1.3205    0.0157 C   0  0  0  0  0  0  0  0  0  0  0  0
    2.8132    0.1213   -0.1686 H   0  0  0  0  0  0  0  0  0  0  0  0
    0.4186    1.7304   -1.0773 H   0  0  0  0  0  0  0  0  0  0  0  0
   -0.7038    0.3948   -1.7717 H   0  0  0  0  0  0  0  0  0  0  0  0
   -1.5487    1.7556    0.5675 H   0  0  0  0  0  0  0  0  0  0  0  0
    0.8540    1.6511    1.0747 H   0  0  0  0  0  0  0  0  0  0  0  0
    0.2293    0.1751    2.0483 H   0  0  0  0  0  0  0  0  0  0  0  0
   -2.5145   -0.7438   -0.1624 H   0  0  0  0  0  0  0  0  0  0  0  0
   -0.4865   -2.0243   -0.8205 H   0  0  0  0  0  0  0  0  0  0  0  0
  1  2  2  0
  2  3  1  0
  3  4  1  0
  4  5  1  0
  5  6  1  0
  5  7  1  0
  7  8  1  0
  8  9  1  0
  6  3  1  0
  9  7  1  0
  9  3  1  0
  2 10  1  0
  4 11  1  0
  4 12  1  0
  5 13  1  0
  6 14  1  0
  6 15  1  0
  7 16  1  0
  9 17  1  0
M  END
