
     RDKit          3D

 17 17  0  0  0  0  0  0  0  0999 V2000
    1.1595    0.6722    2.0450 O   0  0  0  0  0  0  0  0  0  0  0  0
    1.6993    0.6485    0.9539 C   0  0  0  0  0  0  0  0  0  0  0  0
    1.5318   -0.4265   -0.0269 C   0  0  0  0  0  0  0  0  0  0  0  0
    2.2889   -0.1302   -1.1551 O   0  0  0  0  0  0  0  0  0  0  0  0
    0.0987   -0.6388   -0.4462 C   0  0  0  0  0  0  0  0  0  0  0  0
   -0.4249    0.4676   -1.0430 O   0  0  0  0  0  0  0  0  0  0  0  0
   -1.5768    0.8424   -0.3759 C   0  0  0  0  0  0  0  0  0  0  0  0
   -1.8618   -0.3051    0.5621 C   0  0  0  0  0  0  0  0  0  0  0  0
   -0.6406   -0.9648    0.6642 O   0  0  0  0  0  0  0  0  0  0  0  0
    2.3394    1.5076    0.7420 H   0  0  0  0  0  0  0  0  0  0  0  0
    1.9239   -1.3886    0.4082 H   0  0  0  0  0  0  0  0  0  0  0  0
    2.1117   -0.7392   -1.9065 H   0  0  0  0  0  0  0  0  0  0  0  0
    0.0382   -1.4903   -1.1538 H   0  0  0  0  0  0  0  0  0  0  0  0
   -2.3720    1.0352   -1.0998 H   0  0  0  0  0  0  0  0  0  0  0  0
   -1.4512    1.7885    0.2078 H   0  0  0  0  0  0  0  0  0  0  0  0
   -2.6459   -0.9196    0.0984 H   0  0  0  0  0  0  0  0  0  0  0  0
   -2.2182    0.0411    1.5355 H   0  0  0  0  0  0  0  0  0  0  0  0
  1  2  2  0
  2  3  1  0
  3  4  1  0
  3  5  1  0
  5  6  1  0
  6  7  1  0
  7  8  1  0
  8  9  1  0
  9  5  1  0
  2 10  1  0
  3 11  1  0
  4 12  1  0
  5 13  1  0
  7 14  1  0
  7 15  1  0
  8 16  1  0
  8 17  1  0
M  END
