
     RDKit          3D

 16 17  0  0  0  0  0  0  0  0999 V2000
    1.8038    0.4135    1.9093 O   0  0  0  0  0  0  0  0  0  0  0  0
    1.5350   -0.1420    0.8625 C   0  0  0  0  0  0  0  0  0  0  0  0
    0.9795    0.5449   -0.2909 C   0  0  0  0  0  0  0  0  0  0  0  0
   -0.3525    1.1829   -0.1843 C   0  0  0  0  0  0  0  0  0  0  0  0
   -1.2248    0.1982    0.5788 C   0  0  0  0  0  0  0  0  0  0  0  0
   -0.7628   -1.0712   -0.1684 C   0  0  0  0  0  0  0  0  0  0  0  0
    0.1467   -0.3825   -1.1543 C   0  0  0  0  0  0  0  0  0  0  0  0
   -0.5900    0.7530   -1.5116 O   0  0  0  0  0  0  0  0  0  0  0  0
    1.7260   -1.2046    0.8037 H   0  0  0  0  0  0  0  0  0  0  0  0
    1.7016    1.1627   -0.8406 H   0  0  0  0  0  0  0  0  0  0  0  0
   -0.4621    2.2231    0.0206 H   0  0  0  0  0  0  0  0  0  0  0  0
   -0.9658    0.1476    1.6386 H   0  0  0  0  0  0  0  0  0  0  0  0
   -2.2969    0.3936    0.3806 H   0  0  0  0  0  0  0  0  0  0  0  0
   -1.6422   -1.5335   -0.6378 H   0  0  0  0  0  0  0  0  0  0  0  0
   -0.2217   -1.7388    0.5100 H   0  0  0  0  0  0  0  0  0  0  0  0
    0.6261   -0.9467   -1.9160 H   0  0  0  0  0  0  0  0  0  0  0  0
  1  2  2  0
  2  3  1  0
  3  4  1  0
  4  5  1  0
  5  6  1  0
  6  7  1  0
  7  8  1  0
  7  3  1  0
  8  4  1  0
  2  9  1  0
  3 10  1  0
  4 11  1  0
  5 12  1  0
  5 13  1  0
  6 14  1  0
  6 15  1  0
  7 16  1  0
M  END
