
     RDKit          3D

 14 15  0  0  0  0  0  0  0  0999 V2000
    2.6902   -0.6910   -0.7165 O   0  0  0  0  0  0  0  0  0  0  0  0
    1.8339    0.1456   -0.5401 C   0  0  0  0  0  0  0  0  0  0  0  0
    0.6956   -0.1464    0.3300 C   0  0  0  0  0  0  0  0  0  0  0  0
   -0.4677   -0.8487   -0.3325 C   0  0  0  0  0  0  0  0  0  0  0  0
   -1.2869   -0.2971    0.7959 C   0  0  0  0  0  0  0  0  0  0  0  0
   -0.4211    0.8577    0.3392 C   0  0  0  0  0  0  0  0  0  0  0  0
   -0.7125    0.4141   -1.0044 C   0  0  0  0  0  0  0  0  0  0  0  0
   -0.9968    0.8763   -2.0659 O   0  0  0  0  0  0  0  0  0  0  0  0
    1.9263    1.0976   -1.0311 H   0  0  0  0  0  0  0  0  0  0  0  0
    0.9609   -0.5292    1.3164 H   0  0  0  0  0  0  0  0  0  0  0  0
   -0.4678   -1.7815   -0.6924 H   0  0  0  0  0  0  0  0  0  0  0  0
   -2.3473   -0.2383    0.5492 H   0  0  0  0  0  0  0  0  0  0  0  0
   -0.9954   -0.6335    1.7933 H   0  0  0  0  0  0  0  0  0  0  0  0
   -0.4114    1.7745    0.7401 H   0  0  0  0  0  0  0  0  0  0  0  0
  1  2  2  0
  2  3  1  0
  3  4  1  0
  4  5  1  0
  5  6  1  0
  6  7  1  0
  7  8  2  0
  6  3  1  0
  7  4  1  0
  2  9  1  0
  3 10  1  0
  4 11  1  0
  5 12  1  0
  5 13  1  0
  6 14  1  0
M  END
