
     RDKit          3D

 14 15  0  0  0  0  0  0  0  0999 V2000
    2.5308   -1.5294    0.3937 O   0  0  0  0  0  0  0  0  0  0  0  0
    2.2073   -0.3246    0.2314 C   0  0  0  0  0  0  0  0  0  0  0  0
    0.8183   -0.0149   -0.0705 C   0  0  0  0  0  0  0  0  0  0  0  0
    0.2339    1.1740   -0.2835 C   0  0  0  0  0  0  0  0  0  0  0  0
   -1.1846    0.7329   -0.5255 C   0  0  0  0  0  0  0  0  0  0  0  0
   -1.3970   -0.2385    0.5912 C   0  0  0  0  0  0  0  0  0  0  0  0
   -0.3368   -0.9342   -0.2261 C   0  0  0  0  0  0  0  0  0  0  0  0
   -0.9681   -0.3710   -1.3521 O   0  0  0  0  0  0  0  0  0  0  0  0
    2.9248    0.4643    0.3102 H   0  0  0  0  0  0  0  0  0  0  0  0
    0.6539    2.1671   -0.2830 H   0  0  0  0  0  0  0  0  0  0  0  0
   -1.9057    1.4563   -0.7785 H   0  0  0  0  0  0  0  0  0  0  0  0
   -2.3706   -0.7544    0.6283 H   0  0  0  0  0  0  0  0  0  0  0  0
   -0.9974    0.1479    1.5350 H   0  0  0  0  0  0  0  0  0  0  0  0
   -0.2089   -1.9755   -0.1706 H   0  0  0  0  0  0  0  0  0  0  0  0
  1  2  2  0
  2  3  1  0
  3  4  2  0
  4  5  1  0
  5  6  1  0
  6  7  1  0
  7  8  1  0
  7  3  1  0
  8  5  1  0
  2  9  1  0
  4 10  1  0
  5 11  1  0
  6 12  1  0
  6 13  1  0
  7 14  1  0
M  END
