
     RDKit          3D

 14 14  0  0  0  0  0  0  0  0999 V2000
    2.3612    0.1361    0.7808 O   0  0  0  0  0  0  0  0  0  0  0  0
    1.8838   -0.6471   -0.0231 C   0  0  0  0  0  0  0  0  0  0  0  0
    0.4851   -0.6150   -0.4706 C   0  0  0  0  0  0  0  0  0  0  0  0
   -0.0405    0.7998   -0.6987 C   0  0  0  0  0  0  0  0  0  0  0  0
    0.7463    1.8721   -0.3072 O   0  0  0  0  0  0  0  0  0  0  0  0
   -0.5932   -0.0837    0.3996 C   0  0  0  0  0  0  0  0  0  0  0  0
   -1.9734   -0.5515    0.1640 C   0  0  0  0  0  0  0  0  0  0  0  0
   -2.3113   -0.9535   -0.9166 O   0  0  0  0  0  0  0  0  0  0  0  0
    2.5492   -1.4054   -0.4192 H   0  0  0  0  0  0  0  0  0  0  0  0
    0.1958   -1.3889   -1.2030 H   0  0  0  0  0  0  0  0  0  0  0  0
   -0.6284    0.9215   -1.6394 H   0  0  0  0  0  0  0  0  0  0  0  0
    0.3865    2.1810    0.5692 H   0  0  0  0  0  0  0  0  0  0  0  0
   -0.3803    0.2670    1.4272 H   0  0  0  0  0  0  0  0  0  0  0  0
   -2.6806   -0.5323    0.9647 H   0  0  0  0  0  0  0  0  0  0  0  0
  1  2  2  0
  2  3  1  0
  3  4  1  0
  4  5  1  0
  4  6  1  0
  6  7  1  0
  7  8  2  0
  6  3  1  0
  2  9  1  0
  3 10  1  0
  4 11  1  0
  5 12  1  0
  6 13  1  0
  7 14  1  0
M  END
