
     RDKit          3D

 15 16  0  0  0  0  0  0  0  0999 V2000
    2.0041   -1.7909    0.5517 O   0  0  0  0  0  0  0  0  0  0  0  0
    2.4426   -0.6316    0.4209 C   0  0  0  0  0  0  0  0  0  0  0  0
    1.5312    0.4828    0.4404 C   0  0  0  0  0  0  0  0  0  0  0  0
    1.9989    1.6415    0.3064 O   0  0  0  0  0  0  0  0  0  0  0  0
    0.0660    0.3751    0.6076 C   0  0  0  0  0  0  0  0  0  0  0  0
   -0.4499   -0.8861    0.7542 O   0  0  0  0  0  0  0  0  0  0  0  0
   -1.6025   -0.4440    0.0802 C   0  0  0  0  0  0  0  0  0  0  0  0
   -1.4654   -0.3441   -1.3774 C   0  0  0  0  0  0  0  0  0  0  0  0
   -0.7676    0.6959   -0.5878 C   0  0  0  0  0  0  0  0  0  0  0  0
    3.4893   -0.4799    0.2961 H   0  0  0  0  0  0  0  0  0  0  0  0
   -0.2531    1.0101    1.4847 H   0  0  0  0  0  0  0  0  0  0  0  0
   -2.4609   -0.0897    0.6513 H   0  0  0  0  0  0  0  0  0  0  0  0
   -0.8887   -1.1679   -1.8808 H   0  0  0  0  0  0  0  0  0  0  0  0
   -2.3786   -0.0722   -1.9389 H   0  0  0  0  0  0  0  0  0  0  0  0
   -1.2655    1.7010   -0.5975 H   0  0  0  0  0  0  0  0  0  0  0  0
  1  2  2  0
  2  3  1  0
  3  4  2  0
  3  5  1  0
  5  6  1  0
  6  7  1  0
  7  8  1  0
  8  9  1  0
  9  5  1  0
  9  7  1  0
  2 10  1  0
  5 11  1  0
  7 12  1  0
  8 13  1  0
  8 14  1  0
  9 15  1  0
M  END
