
     RDKit          3D

 13 13  0  0  0  0  0  0  0  0999 V2000
    2.7156    0.4495    0.5007 O   0  0  0  0  0  0  0  0  0  0  0  0
    2.2883   -0.2373   -0.4561 C   0  0  0  0  0  0  0  0  0  0  0  0
    0.8509   -0.3791   -0.6037 C   0  0  0  0  0  0  0  0  0  0  0  0
    0.4571   -1.0801   -1.5818 O   0  0  0  0  0  0  0  0  0  0  0  0
   -0.0807    0.2556    0.3297 C   0  0  0  0  0  0  0  0  0  0  0  0
   -1.3877    0.7685   -0.1488 C   0  0  0  0  0  0  0  0  0  0  0  0
   -1.3423   -0.4497    0.7337 C   0  0  0  0  0  0  0  0  0  0  0  0
    3.0118   -0.6851   -1.1171 H   0  0  0  0  0  0  0  0  0  0  0  0
    0.3831    0.8431    1.1444 H   0  0  0  0  0  0  0  0  0  0  0  0
   -1.8236    1.6955    0.2851 H   0  0  0  0  0  0  0  0  0  0  0  0
   -1.7538    0.5593   -1.1722 H   0  0  0  0  0  0  0  0  0  0  0  0
   -1.5833   -1.4406    0.3191 H   0  0  0  0  0  0  0  0  0  0  0  0
   -1.7354   -0.2997    1.7670 H   0  0  0  0  0  0  0  0  0  0  0  0
  1  2  2  0
  2  3  1  0
  3  4  2  0
  3  5  1  0
  5  6  1  0
  6  7  1  0
  7  5  1  0
  2  8  1  0
  5  9  1  0
  6 10  1  0
  6 11  1  0
  7 12  1  0
  7 13  1  0
M  END
