
     RDKit          3D

 17 17  0  0  0  0  0  0  0  0999 V2000
    4.3084   -1.3693    0.9621 O   0  0  0  0  0  0  0  0  0  0  0  0
    3.0957   -1.4788    1.2681 C   0  0  0  0  0  0  0  0  0  0  0  0
    2.1416   -0.4147    1.1650 C   0  0  0  0  0  0  0  0  0  0  0  0
    1.3387    0.4924    1.0577 C   0  0  0  0  0  0  0  0  0  0  0  0
    0.3543    1.5731    0.9433 C   0  0  0  0  0  0  0  0  0  0  0  0
   -0.8957    0.9846    0.8060 O   0  0  0  0  0  0  0  0  0  0  0  0
   -0.8982    0.1952   -0.3346 C   0  0  0  0  0  0  0  0  0  0  0  0
   -2.1973    0.3354   -1.1534 C   0  0  0  0  0  0  0  0  0  0  0  0
   -1.8750   -0.9194   -0.4075 C   0  0  0  0  0  0  0  0  0  0  0  0
    2.7552   -2.4358    1.6309 H   0  0  0  0  0  0  0  0  0  0  0  0
    0.6174    2.2051    0.0692 H   0  0  0  0  0  0  0  0  0  0  0  0
    0.3438    2.2090    1.8736 H   0  0  0  0  0  0  0  0  0  0  0  0
    0.0398    0.1809   -0.8911 H   0  0  0  0  0  0  0  0  0  0  0  0
   -2.0300    0.3864   -2.2444 H   0  0  0  0  0  0  0  0  0  0  0  0
   -3.0096    0.9603   -0.7398 H   0  0  0  0  0  0  0  0  0  0  0  0
   -1.6328   -1.7911   -1.0305 H   0  0  0  0  0  0  0  0  0  0  0  0
   -2.4562   -1.1132    0.5274 H   0  0  0  0  0  0  0  0  0  0  0  0
  1  2  2  0
  2  3  1  0
  3  4  3  0
  4  5  1  0
  5  6  1  0
  6  7  1  0
  7  8  1  0
  8  9  1  0
  9  7  1  0
  2 10  1  0
  5 11  1  0
  5 12  1  0
  7 13  1  0
  8 14  1  0
  8 15  1  0
  9 16  1  0
  9 17  1  0
M  END
