
     RDKit          3D

 17 18  0  0  0  0  0  0  0  0999 V2000
    3.3062   -0.4958   -1.2481 O   0  0  0  0  0  0  0  0  0  0  0  0
    2.4579    0.1314   -0.6469 C   0  0  0  0  0  0  0  0  0  0  0  0
    1.1995   -0.5500   -0.2702 C   0  0  0  0  0  0  0  0  0  0  0  0
    0.6529   -0.2807    1.1386 C   0  0  0  0  0  0  0  0  0  0  0  0
   -0.0158    0.1756   -0.0700 C   0  0  0  0  0  0  0  0  0  0  0  0
   -0.2738    1.4932   -0.2355 O   0  0  0  0  0  0  0  0  0  0  0  0
   -1.6117    1.2071    0.0738 C   0  0  0  0  0  0  0  0  0  0  0  0
   -1.3873   -0.1870   -0.4558 C   0  0  0  0  0  0  0  0  0  0  0  0
   -1.9173   -1.2087    0.3164 O   0  0  0  0  0  0  0  0  0  0  0  0
    2.5928    1.1795   -0.3756 H   0  0  0  0  0  0  0  0  0  0  0  0
    1.1264   -1.6141   -0.5758 H   0  0  0  0  0  0  0  0  0  0  0  0
    0.1932   -1.1153    1.6893 H   0  0  0  0  0  0  0  0  0  0  0  0
    1.1765    0.4697    1.7567 H   0  0  0  0  0  0  0  0  0  0  0  0
   -2.2951    1.8421   -0.5190 H   0  0  0  0  0  0  0  0  0  0  0  0
   -1.7754    1.2351    1.1600 H   0  0  0  0  0  0  0  0  0  0  0  0
   -1.6397   -0.2331   -1.5291 H   0  0  0  0  0  0  0  0  0  0  0  0
   -1.7892   -2.0490   -0.2088 H   0  0  0  0  0  0  0  0  0  0  0  0
  1  2  2  0
  2  3  1  0
  3  4  1  0
  4  5  1  0
  5  6  1  0
  6  7  1  0
  7  8  1  0
  8  9  1  0
  5  3  1  0
  8  5  1  0
  2 10  1  0
  3 11  1  0
  4 12  1  0
  4 13  1  0
  7 14  1  0
  7 15  1  0
  8 16  1  0
  9 17  1  0
M  END
