
     RDKit          3D

 13 14  0  0  0  0  0  0  0  0999 V2000
    2.8486   -0.4416    0.4811 O   0  0  0  0  0  0  0  0  0  0  0  0
    1.9024   -0.1855   -0.2228 C   0  0  0  0  0  0  0  0  0  0  0  0
    0.6907    0.3606    0.3530 C   0  0  0  0  0  0  0  0  0  0  0  0
    0.5339    0.6176    1.6891 O   0  0  0  0  0  0  0  0  0  0  0  0
   -0.2272   -0.3558    1.0876 C   0  0  0  0  0  0  0  0  0  0  0  0
   -1.3213    0.0231    0.1141 C   0  0  0  0  0  0  0  0  0  0  0  0
   -1.6476   -0.9922   -0.7849 O   0  0  0  0  0  0  0  0  0  0  0  0
   -0.3684    0.9576   -0.5208 C   0  0  0  0  0  0  0  0  0  0  0  0
   -0.3043    1.8389   -1.3539 O   0  0  0  0  0  0  0  0  0  0  0  0
    1.9755   -0.3690   -1.2762 H   0  0  0  0  0  0  0  0  0  0  0  0
   -0.2146   -1.3384    1.5609 H   0  0  0  0  0  0  0  0  0  0  0  0
   -2.2048    0.4685    0.5818 H   0  0  0  0  0  0  0  0  0  0  0  0
   -1.6628   -0.5838   -1.7089 H   0  0  0  0  0  0  0  0  0  0  0  0
  1  2  2  0
  2  3  1  0
  3  4  1  0
  4  5  1  0
  5  6  1  0
  6  7  1  0
  6  8  1  0
  8  9  2  0
  5  3  1  0
  8  3  1  0
  2 10  1  0
  5 11  1  0
  6 12  1  0
  7 13  1  0
M  END
