
     RDKit          3D

 15 15  0  0  0  0  0  0  0  0999 V2000
    2.2659    0.4444   -1.3964 O   0  0  0  0  0  0  0  0  0  0  0  0
    1.5370   -0.4457   -1.0740 C   0  0  0  0  0  0  0  0  0  0  0  0
    0.4977   -0.2874   -0.0426 C   0  0  0  0  0  0  0  0  0  0  0  0
    0.9517    0.4484    1.1466 C   0  0  0  0  0  0  0  0  0  0  0  0
    0.6896   -0.1729    2.2525 O   0  0  0  0  0  0  0  0  0  0  0  0
   -0.7659   -1.0034    0.0271 C   0  0  0  0  0  0  0  0  0  0  0  0
   -1.5066   -1.0062    1.2469 O   0  0  0  0  0  0  0  0  0  0  0  0
   -0.7700    0.3163   -0.6526 C   0  0  0  0  0  0  0  0  0  0  0  0
   -1.3010    1.4185   -0.0391 O   0  0  0  0  0  0  0  0  0  0  0  0
    1.6719   -1.4512   -1.5745 H   0  0  0  0  0  0  0  0  0  0  0  0
    1.4415    1.3858    1.2522 H   0  0  0  0  0  0  0  0  0  0  0  0
   -1.0587   -1.8790   -0.5872 H   0  0  0  0  0  0  0  0  0  0  0  0
   -2.2172   -0.3413    1.1944 H   0  0  0  0  0  0  0  0  0  0  0  0
   -0.7504    0.3832   -1.7591 H   0  0  0  0  0  0  0  0  0  0  0  0
   -0.6856    2.1904    0.0059 H   0  0  0  0  0  0  0  0  0  0  0  0
  1  2  2  0
  2  3  1  0
  3  4  1  0
  4  5  2  0
  3  6  1  0
  6  7  1  0
  6  8  1  0
  8  9  1  0
  8  3  1  0
  2 10  1  0
  4 11  1  0
  6 12  1  0
  7 13  1  0
  8 14  1  0
  9 15  1  0
M  END
