
     RDKit          3D

 13 14  0  0  0  0  0  0  0  0999 V2000
    3.0606   -0.7869   -0.6019 O   0  0  0  0  0  0  0  0  0  0  0  0
    1.9398   -0.8565   -0.1447 C   0  0  0  0  0  0  0  0  0  0  0  0
    1.0310    0.2998   -0.2168 C   0  0  0  0  0  0  0  0  0  0  0  0
    0.5170    0.7076    1.1425 O   0  0  0  0  0  0  0  0  0  0  0  0
   -0.2793    0.2499    0.1352 C   0  0  0  0  0  0  0  0  0  0  0  0
   -1.4781    0.9917   -0.3474 C   0  0  0  0  0  0  0  0  0  0  0  0
   -2.2517    0.0865    0.4349 O   0  0  0  0  0  0  0  0  0  0  0  0
   -1.2303   -0.8275    0.2884 C   0  0  0  0  0  0  0  0  0  0  0  0
   -1.1726   -2.0699    0.2904 O   0  0  0  0  0  0  0  0  0  0  0  0
    1.6176   -1.7936    0.3217 H   0  0  0  0  0  0  0  0  0  0  0  0
    1.4808    1.1989   -0.7184 H   0  0  0  0  0  0  0  0  0  0  0  0
   -1.6632    0.7532   -1.4343 H   0  0  0  0  0  0  0  0  0  0  0  0
   -1.5715    2.0468   -0.0873 H   0  0  0  0  0  0  0  0  0  0  0  0
  1  2  2  0
  2  3  1  0
  3  4  1  0
  4  5  1  0
  5  6  1  0
  6  7  1  0
  7  8  1  0
  8  9  2  0
  5  3  1  0
  8  5  1  0
  2 10  1  0
  3 11  1  0
  6 12  1  0
  6 13  1  0
M  END
