
     RDKit          3D

 19 20  0  0  0  0  0  0  0  0999 V2000
    3.9985    0.6442   -0.2755 O   0  0  0  0  0  0  0  0  0  0  0  0
    2.8146    0.6408    0.0392 C   0  0  0  0  0  0  0  0  0  0  0  0
    1.9003   -0.3716   -0.5351 C   0  0  0  0  0  0  0  0  0  0  0  0
    0.5031   -0.2294   -0.0459 C   0  0  0  0  0  0  0  0  0  0  0  0
    0.0692    0.6743    0.8016 C   0  0  0  0  0  0  0  0  0  0  0  0
   -1.3588    0.4705    1.0191 C   0  0  0  0  0  0  0  0  0  0  0  0
   -2.3248    0.6646   -0.1442 C   0  0  0  0  0  0  0  0  0  0  0  0
   -1.8173   -0.6718    0.1970 C   0  0  0  0  0  0  0  0  0  0  0  0
   -0.5903   -1.1427   -0.4918 C   0  0  0  0  0  0  0  0  0  0  0  0
    2.5436    1.4193    0.7421 H   0  0  0  0  0  0  0  0  0  0  0  0
    2.2552   -1.3700   -0.1647 H   0  0  0  0  0  0  0  0  0  0  0  0
    1.9419   -0.3525   -1.6434 H   0  0  0  0  0  0  0  0  0  0  0  0
    0.6334    1.4560    1.2830 H   0  0  0  0  0  0  0  0  0  0  0  0
   -1.7679    0.4945    2.0562 H   0  0  0  0  0  0  0  0  0  0  0  0
   -1.9361    1.2229   -1.0409 H   0  0  0  0  0  0  0  0  0  0  0  0
   -3.3037    1.0495    0.1820 H   0  0  0  0  0  0  0  0  0  0  0  0
   -2.5467   -1.4120    0.6207 H   0  0  0  0  0  0  0  0  0  0  0  0
   -0.6993   -0.9878   -1.5899 H   0  0  0  0  0  0  0  0  0  0  0  0
   -0.3148   -2.1991   -0.2732 H   0  0  0  0  0  0  0  0  0  0  0  0
  1  2  2  0
  2  3  1  0
  3  4  1  0
  4  5  2  0
  5  6  1  0
  6  7  1  0
  7  8  1  0
  8  9  1  0
  9  4  1  0
  8  6  1  0
  2 10  1  0
  3 11  1  0
  3 12  1  0
  5 13  1  0
  6 14  1  0
  7 15  1  0
  7 16  1  0
  8 17  1  0
  9 18  1  0
  9 19  1  0
M  END
