
     RDKit          3D

 16 16  0  0  0  0  0  0  0  0999 V2000
    3.0334    1.1303    0.1788 O   0  0  0  0  0  0  0  0  0  0  0  0
    2.3953    0.0476    0.1415 C   0  0  0  0  0  0  0  0  0  0  0  0
    0.9453   -0.0086   -0.0104 C   0  0  0  0  0  0  0  0  0  0  0  0
    0.2345    1.1010   -0.1165 C   0  0  0  0  0  0  0  0  0  0  0  0
   -1.2180    0.9701   -0.2665 C   0  0  0  0  0  0  0  0  0  0  0  0
   -1.7824   -0.3081    0.2474 C   0  0  0  0  0  0  0  0  0  0  0  0
   -1.0039   -1.3940    0.2114 O   0  0  0  0  0  0  0  0  0  0  0  0
    0.3046   -1.3073   -0.0420 C   0  0  0  0  0  0  0  0  0  0  0  0
    2.9829   -0.8534    0.2287 H   0  0  0  0  0  0  0  0  0  0  0  0
    0.7260    2.0574   -0.0911 H   0  0  0  0  0  0  0  0  0  0  0  0
   -1.4702    1.1070   -1.3571 H   0  0  0  0  0  0  0  0  0  0  0  0
   -1.6810    1.8424    0.2616 H   0  0  0  0  0  0  0  0  0  0  0  0
   -2.7266   -0.5116   -0.3089 H   0  0  0  0  0  0  0  0  0  0  0  0
   -2.1094   -0.1204    1.3116 H   0  0  0  0  0  0  0  0  0  0  0  0
    0.8636   -1.9860    0.6667 H   0  0  0  0  0  0  0  0  0  0  0  0
    0.5059   -1.7665   -1.0553 H   0  0  0  0  0  0  0  0  0  0  0  0
  1  2  2  0
  2  3  1  0
  3  4  2  0
  4  5  1  0
  5  6  1  0
  6  7  1  0
  7  8  1  0
  8  3  1  0
  2  9  1  0
  4 10  1  0
  5 11  1  0
  5 12  1  0
  6 13  1  0
  6 14  1  0
  8 15  1  0
  8 16  1  0
M  END
