
     RDKit          3D

 17 18  0  0  0  0  0  0  0  0999 V2000
   -2.9896   -1.3148    0.5308 O   0  0  0  0  0  0  0  0  0  0  0  0
   -2.1609   -0.6276   -0.0401 C   0  0  0  0  0  0  0  0  0  0  0  0
   -0.9565   -0.1482    0.7119 C   0  0  0  0  0  0  0  0  0  0  0  0
   -0.7559    1.2694    0.3309 C   0  0  0  0  0  0  0  0  0  0  0  0
    0.2607    1.3611   -0.5001 C   0  0  0  0  0  0  0  0  0  0  0  0
    0.8562    0.0383   -0.7734 C   0  0  0  0  0  0  0  0  0  0  0  0
    2.0736   -0.2160    0.0700 C   0  0  0  0  0  0  0  0  0  0  0  0
    1.3413   -0.9243    1.0183 O   0  0  0  0  0  0  0  0  0  0  0  0
    0.2201   -0.9276    0.2016 C   0  0  0  0  0  0  0  0  0  0  0  0
   -2.2392   -0.3339   -1.0782 H   0  0  0  0  0  0  0  0  0  0  0  0
   -1.0941   -0.2479    1.8054 H   0  0  0  0  0  0  0  0  0  0  0  0
   -1.3589    2.0780    0.6900 H   0  0  0  0  0  0  0  0  0  0  0  0
    0.6186    2.2828   -0.9306 H   0  0  0  0  0  0  0  0  0  0  0  0
    0.8894   -0.2883   -1.8129 H   0  0  0  0  0  0  0  0  0  0  0  0
    2.4830    0.7063    0.5292 H   0  0  0  0  0  0  0  0  0  0  0  0
    2.8194   -0.8057   -0.4894 H   0  0  0  0  0  0  0  0  0  0  0  0
   -0.0072   -1.9014   -0.2634 H   0  0  0  0  0  0  0  0  0  0  0  0
  1  2  2  0
  2  3  1  0
  3  4  1  0
  4  5  2  0
  5  6  1  0
  6  7  1  0
  7  8  1  0
  8  9  1  0
  9  3  1  0
  9  6  1  0
  2 10  1  0
  3 11  1  0
  4 12  1  0
  5 13  1  0
  6 14  1  0
  7 15  1  0
  7 16  1  0
  9 17  1  0
M  END
