
     RDKit          3D

 21 21  0  0  0  0  0  0  0  0999 V2000
    3.1922    0.3973    0.0171 O   0  0  0  0  0  0  0  0  0  0  0  0
    2.4206   -0.5088   -0.2494 C   0  0  0  0  0  0  0  0  0  0  0  0
    1.0299   -0.3818    0.2616 C   0  0  0  0  0  0  0  0  0  0  0  0
    0.0635   -1.2516   -0.5030 C   0  0  0  0  0  0  0  0  0  0  0  0
   -1.1785   -1.3004    0.3647 C   0  0  0  0  0  0  0  0  0  0  0  0
   -1.8089    0.0470    0.3584 C   0  0  0  0  0  0  0  0  0  0  0  0
   -0.9282    1.1824    0.0467 C   0  0  0  0  0  0  0  0  0  0  0  0
    0.5234    1.0188    0.2061 C   0  0  0  0  0  0  0  0  0  0  0  0
    1.2096    1.6478   -0.8606 O   0  0  0  0  0  0  0  0  0  0  0  0
    2.6900   -1.3799   -0.8253 H   0  0  0  0  0  0  0  0  0  0  0  0
    1.0623   -0.6899    1.3334 H   0  0  0  0  0  0  0  0  0  0  0  0
    0.4511   -2.2299   -0.7716 H   0  0  0  0  0  0  0  0  0  0  0  0
   -0.2363   -0.6891   -1.4286 H   0  0  0  0  0  0  0  0  0  0  0  0
   -0.8631   -1.5801    1.4113 H   0  0  0  0  0  0  0  0  0  0  0  0
   -1.8779   -2.1089    0.0373 H   0  0  0  0  0  0  0  0  0  0  0  0
   -2.6676   -0.0031   -0.3766 H   0  0  0  0  0  0  0  0  0  0  0  0
   -2.3311    0.1760    1.3522 H   0  0  0  0  0  0  0  0  0  0  0  0
   -1.2515    2.0555    0.6898 H   0  0  0  0  0  0  0  0  0  0  0  0
   -1.1484    1.5407   -1.0023 H   0  0  0  0  0  0  0  0  0  0  0  0
    0.9067    1.5495    1.1246 H   0  0  0  0  0  0  0  0  0  0  0  0
    0.7421    2.5087   -1.0036 H   0  0  0  0  0  0  0  0  0  0  0  0
  1  2  2  0
  2  3  1  0
  3  4  1  0
  4  5  1  0
  5  6  1  0
  6  7  1  0
  7  8  1  0
  8  9  1  0
  8  3  1  0
  2 10  1  0
  3 11  1  0
  4 12  1  0
  4 13  1  0
  5 14  1  0
  5 15  1  0
  6 16  1  0
  6 17  1  0
  7 18  1  0
  7 19  1  0
  8 20  1  0
  9 21  1  0
M  END
