
     RDKit          3D

 19 19  0  0  0  0  0  0  0  0999 V2000
    2.7999    1.2611    0.8983 O   0  0  0  0  0  0  0  0  0  0  0  0
    2.0001    1.0282    0.0092 C   0  0  0  0  0  0  0  0  0  0  0  0
    1.7391   -0.3676   -0.3577 C   0  0  0  0  0  0  0  0  0  0  0  0
    2.4853   -1.2390    0.4091 O   0  0  0  0  0  0  0  0  0  0  0  0
    0.2771   -0.7276   -0.3695 C   0  0  0  0  0  0  0  0  0  0  0  0
   -0.5447    0.1122   -1.3633 C   0  0  0  0  0  0  0  0  0  0  0  0
   -0.7602    0.1724    0.1535 C   0  0  0  0  0  0  0  0  0  0  0  0
   -2.0561   -0.3981    0.6301 C   0  0  0  0  0  0  0  0  0  0  0  0
   -2.9182    0.5950    1.0901 O   0  0  0  0  0  0  0  0  0  0  0  0
    1.5208    1.8823   -0.4658 H   0  0  0  0  0  0  0  0  0  0  0  0
    2.1001   -0.4985   -1.4202 H   0  0  0  0  0  0  0  0  0  0  0  0
    2.5158   -1.0192    1.3573 H   0  0  0  0  0  0  0  0  0  0  0  0
    0.0789   -1.8145   -0.3719 H   0  0  0  0  0  0  0  0  0  0  0  0
   -1.3048   -0.4335   -1.9662 H   0  0  0  0  0  0  0  0  0  0  0  0
   -0.0609    0.9952   -1.8172 H   0  0  0  0  0  0  0  0  0  0  0  0
   -0.5066    1.1564    0.6238 H   0  0  0  0  0  0  0  0  0  0  0  0
   -1.9004   -1.1329    1.4516 H   0  0  0  0  0  0  0  0  0  0  0  0
   -2.5479   -0.9634   -0.1875 H   0  0  0  0  0  0  0  0  0  0  0  0
   -2.9174    1.3915    0.5057 H   0  0  0  0  0  0  0  0  0  0  0  0
  1  2  2  0
  2  3  1  0
  3  4  1  0
  3  5  1  0
  5  6  1  0
  6  7  1  0
  7  8  1  0
  8  9  1  0
  7  5  1  0
  2 10  1  0
  3 11  1  0
  4 12  1  0
  5 13  1  0
  6 14  1  0
  6 15  1  0
  7 16  1  0
  8 17  1  0
  8 18  1  0
  9 19  1  0
M  END
