
     RDKit          3D

 21 21  0  0  0  0  0  0  0  0999 V2000
    4.1244    0.0346    0.2758 O   0  0  0  0  0  0  0  0  0  0  0  0
    3.0919   -0.5002   -0.0896 C   0  0  0  0  0  0  0  0  0  0  0  0
    1.8996    0.3421   -0.2378 C   0  0  0  0  0  0  0  0  0  0  0  0
    1.0492    0.4877    1.0283 C   0  0  0  0  0  0  0  0  0  0  0  0
   -0.1485    0.5160    0.1015 C   0  0  0  0  0  0  0  0  0  0  0  0
   -1.3730   -0.1865    0.6312 C   0  0  0  0  0  0  0  0  0  0  0  0
   -2.4473   -0.0355   -0.4528 C   0  0  0  0  0  0  0  0  0  0  0  0
   -3.6273   -0.6432   -0.0820 O   0  0  0  0  0  0  0  0  0  0  0  0
    0.6951   -0.3406   -0.8526 C   0  0  0  0  0  0  0  0  0  0  0  0
    3.1355   -1.5666   -0.2782 H   0  0  0  0  0  0  0  0  0  0  0  0
    2.0584    1.3533   -0.6610 H   0  0  0  0  0  0  0  0  0  0  0  0
    1.0277   -0.4635    1.6262 H   0  0  0  0  0  0  0  0  0  0  0  0
    1.2103    1.4065    1.5884 H   0  0  0  0  0  0  0  0  0  0  0  0
   -0.3345    1.4950   -0.3732 H   0  0  0  0  0  0  0  0  0  0  0  0
   -1.2067   -1.2340    0.8711 H   0  0  0  0  0  0  0  0  0  0  0  0
   -1.7208    0.3801    1.5193 H   0  0  0  0  0  0  0  0  0  0  0  0
   -2.0140   -0.4386   -1.3834 H   0  0  0  0  0  0  0  0  0  0  0  0
   -2.6044    1.0614   -0.5673 H   0  0  0  0  0  0  0  0  0  0  0  0
   -4.0033   -0.0993    0.6740 H   0  0  0  0  0  0  0  0  0  0  0  0
    0.6669   -1.4206   -0.5750 H   0  0  0  0  0  0  0  0  0  0  0  0
    0.5207   -0.1482   -1.9146 H   0  0  0  0  0  0  0  0  0  0  0  0
  1  2  2  0
  2  3  1  0
  3  4  1  0
  4  5  1  0
  5  6  1  0
  6  7  1  0
  7  8  1  0
  5  9  1  0
  9  3  1  0
  2 10  1  0
  3 11  1  0
  4 12  1  0
  4 13  1  0
  5 14  1  0
  6 15  1  0
  6 16  1  0
  7 17  1  0
  7 18  1  0
  8 19  1  0
  9 20  1  0
  9 21  1  0
M  END
