
     RDKit          3D

 19 20  0  0  0  0  0  0  0  0999 V2000
    2.2671    1.5690    0.8071 O   0  0  0  0  0  0  0  0  0  0  0  0
    2.1269    0.3969    0.5445 C   0  0  0  0  0  0  0  0  0  0  0  0
    1.6969   -0.0064   -0.8016 C   0  0  0  0  0  0  0  0  0  0  0  0
    0.3493   -0.6778   -0.7506 C   0  0  0  0  0  0  0  0  0  0  0  0
    0.3108   -1.8210    0.0330 O   0  0  0  0  0  0  0  0  0  0  0  0
   -0.8369   -1.4118    0.6784 C   0  0  0  0  0  0  0  0  0  0  0  0
   -0.7496   -0.1094   -0.0079 C   0  0  0  0  0  0  0  0  0  0  0  0
   -0.9260    1.1913    0.5913 C   0  0  0  0  0  0  0  0  0  0  0  0
   -1.8771    0.6576   -0.5056 C   0  0  0  0  0  0  0  0  0  0  0  0
    2.2988   -0.4225    1.2589 H   0  0  0  0  0  0  0  0  0  0  0  0
    2.4303   -0.7692   -1.1690 H   0  0  0  0  0  0  0  0  0  0  0  0
    1.7235    0.8263   -1.5347 H   0  0  0  0  0  0  0  0  0  0  0  0
    0.0209   -0.9945   -1.7932 H   0  0  0  0  0  0  0  0  0  0  0  0
   -1.6820   -2.0677    0.3732 H   0  0  0  0  0  0  0  0  0  0  0  0
   -0.7022   -1.3641    1.7909 H   0  0  0  0  0  0  0  0  0  0  0  0
   -1.4500    1.3004    1.5910 H   0  0  0  0  0  0  0  0  0  0  0  0
   -0.3459    2.0840    0.3458 H   0  0  0  0  0  0  0  0  0  0  0  0
   -2.9140    0.4514   -0.2340 H   0  0  0  0  0  0  0  0  0  0  0  0
   -1.7407    1.1674   -1.4881 H   0  0  0  0  0  0  0  0  0  0  0  0
  1  2  2  0
  2  3  1  0
  3  4  1  0
  4  5  1  0
  5  6  1  0
  6  7  1  0
  7  8  1  0
  8  9  1  0
  7  4  1  0
  9  7  1  0
  2 10  1  0
  3 11  1  0
  3 12  1  0
  4 13  1  0
  6 14  1  0
  6 15  1  0
  8 16  1  0
  8 17  1  0
  9 18  1  0
  9 19  1  0
M  END
