
     RDKit          3D

 17 17  0  0  0  0  0  0  0  0999 V2000
   -2.9676    1.6360   -0.3295 O   0  0  0  0  0  0  0  0  0  0  0  0
   -2.8614    0.4345   -0.1641 C   0  0  0  0  0  0  0  0  0  0  0  0
   -1.6617   -0.2005    0.4269 C   0  0  0  0  0  0  0  0  0  0  0  0
   -0.5590   -0.2359   -0.5690 C   0  0  0  0  0  0  0  0  0  0  0  0
   -0.7721    0.2342   -1.6728 O   0  0  0  0  0  0  0  0  0  0  0  0
    0.7711   -0.8058   -0.2951 C   0  0  0  0  0  0  0  0  0  0  0  0
    1.7163    0.0273    0.5112 C   0  0  0  0  0  0  0  0  0  0  0  0
    2.1705    0.4486   -0.8417 C   0  0  0  0  0  0  0  0  0  0  0  0
    1.6232   -0.7167   -1.3906 O   0  0  0  0  0  0  0  0  0  0  0  0
   -3.7048   -0.1703   -0.4760 H   0  0  0  0  0  0  0  0  0  0  0  0
   -1.3059    0.4614    1.2549 H   0  0  0  0  0  0  0  0  0  0  0  0
   -1.9003   -1.1791    0.8653 H   0  0  0  0  0  0  0  0  0  0  0  0
    0.7474   -1.8610    0.0525 H   0  0  0  0  0  0  0  0  0  0  0  0
    1.2652    0.7850    1.1656 H   0  0  0  0  0  0  0  0  0  0  0  0
    2.4978   -0.6142    1.0027 H   0  0  0  0  0  0  0  0  0  0  0  0
    1.6650    1.3334   -1.2876 H   0  0  0  0  0  0  0  0  0  0  0  0
    3.2763    0.4230   -1.0183 H   0  0  0  0  0  0  0  0  0  0  0  0
  1  2  2  0
  2  3  1  0
  3  4  1  0
  4  5  2  0
  4  6  1  0
  6  7  1  0
  7  8  1  0
  8  9  1  0
  9  6  1  0
  2 10  1  0
  3 11  1  0
  3 12  1  0
  6 13  1  0
  7 14  1  0
  7 15  1  0
  8 16  1  0
  8 17  1  0
M  END
