
     RDKit          3D

 19 20  0  0  0  0  0  0  0  0999 V2000
   -0.1328    2.7099    0.3993 O   0  0  0  0  0  0  0  0  0  0  0  0
    0.6821    1.8254    0.2763 C   0  0  0  0  0  0  0  0  0  0  0  0
    0.2302    0.4231    0.3284 C   0  0  0  0  0  0  0  0  0  0  0  0
   -1.1297    0.2788   -0.2824 C   0  0  0  0  0  0  0  0  0  0  0  0
   -1.7322   -1.1129   -0.3029 C   0  0  0  0  0  0  0  0  0  0  0  0
   -2.3204   -0.0262    0.5282 C   0  0  0  0  0  0  0  0  0  0  0  0
    1.2340   -0.5517   -0.2141 C   0  0  0  0  0  0  0  0  0  0  0  0
    2.5727   -0.5843    0.4820 C   0  0  0  0  0  0  0  0  0  0  0  0
    2.3858   -0.1381   -0.8219 O   0  0  0  0  0  0  0  0  0  0  0  0
    1.7203    2.0446    0.1310 H   0  0  0  0  0  0  0  0  0  0  0  0
    0.1123    0.1725    1.4244 H   0  0  0  0  0  0  0  0  0  0  0  0
   -1.3126    0.9469   -1.1722 H   0  0  0  0  0  0  0  0  0  0  0  0
   -2.1904   -1.3819   -1.2843 H   0  0  0  0  0  0  0  0  0  0  0  0
   -1.1871   -1.9489    0.1537 H   0  0  0  0  0  0  0  0  0  0  0  0
   -2.2784   -0.1372    1.6326 H   0  0  0  0  0  0  0  0  0  0  0  0
   -3.3081    0.3473    0.1849 H   0  0  0  0  0  0  0  0  0  0  0  0
    0.8041   -1.5227   -0.5096 H   0  0  0  0  0  0  0  0  0  0  0  0
    3.0042   -1.5778    0.6750 H   0  0  0  0  0  0  0  0  0  0  0  0
    2.8461    0.2331    1.1823 H   0  0  0  0  0  0  0  0  0  0  0  0
  1  2  2  0
  2  3  1  0
  3  4  1  0
  4  5  1  0
  5  6  1  0
  3  7  1  0
  7  8  1  0
  8  9  1  0
  6  4  1  0
  9  7  1  0
  2 10  1  0
  3 11  1  0
  4 12  1  0
  5 13  1  0
  5 14  1  0
  6 15  1  0
  6 16  1  0
  7 17  1  0
  8 18  1  0
  8 19  1  0
M  END
