
     RDKit          3D

 19 20  0  0  0  0  0  0  0  0999 V2000
    3.1333    0.1547   -1.5613 O   0  0  0  0  0  0  0  0  0  0  0  0
    2.3405    0.3834   -0.6401 C   0  0  0  0  0  0  0  0  0  0  0  0
    1.3303   -0.6120   -0.1992 C   0  0  0  0  0  0  0  0  0  0  0  0
    1.0709   -0.8016    1.2614 C   0  0  0  0  0  0  0  0  0  0  0  0
    0.0496   -0.1879    0.3917 C   0  0  0  0  0  0  0  0  0  0  0  0
   -0.3450    1.2199    0.5091 C   0  0  0  0  0  0  0  0  0  0  0  0
   -1.4880    1.4195   -0.1077 C   0  0  0  0  0  0  0  0  0  0  0  0
   -1.9838    0.1349   -0.7137 C   0  0  0  0  0  0  0  0  0  0  0  0
   -1.1718   -0.9362   -0.0503 C   0  0  0  0  0  0  0  0  0  0  0  0
    2.4445    1.3635   -0.1858 H   0  0  0  0  0  0  0  0  0  0  0  0
    1.3673   -1.5640   -0.7783 H   0  0  0  0  0  0  0  0  0  0  0  0
    1.6109   -0.0853    1.9206 H   0  0  0  0  0  0  0  0  0  0  0  0
    0.9393   -1.8288    1.6588 H   0  0  0  0  0  0  0  0  0  0  0  0
    0.2137    1.9909    1.0250 H   0  0  0  0  0  0  0  0  0  0  0  0
   -2.0626    2.3386   -0.2157 H   0  0  0  0  0  0  0  0  0  0  0  0
   -3.0389    0.0143   -0.4375 H   0  0  0  0  0  0  0  0  0  0  0  0
   -1.8074    0.1426   -1.8022 H   0  0  0  0  0  0  0  0  0  0  0  0
   -1.6899   -1.4586    0.7583 H   0  0  0  0  0  0  0  0  0  0  0  0
   -0.9130   -1.6879   -0.8330 H   0  0  0  0  0  0  0  0  0  0  0  0
  1  2  2  0
  2  3  1  0
  3  4  1  0
  4  5  1  0
  5  6  1  0
  6  7  2  0
  7  8  1  0
  8  9  1  0
  5  3  1  0
  9  5  1  0
  2 10  1  0
  3 11  1  0
  4 12  1  0
  4 13  1  0
  6 14  1  0
  7 15  1  0
  8 16  1  0
  8 17  1  0
  9 18  1  0
  9 19  1  0
M  END
