
     RDKit          3D

 12 12  0  0  0  0  0  0  0  0999 V2000
    2.0196   -0.4375    0.7423 O   0  0  0  0  0  0  0  0  0  0  0  0
    1.1059   -1.0597    0.2306 C   0  0  0  0  0  0  0  0  0  0  0  0
   -0.1456   -0.3487   -0.1414 C   0  0  0  0  0  0  0  0  0  0  0  0
   -1.1594   -1.0882   -0.7195 O   0  0  0  0  0  0  0  0  0  0  0  0
   -0.5527    0.6956    0.8833 C   0  0  0  0  0  0  0  0  0  0  0  0
   -0.0905    1.0913   -0.4827 C   0  0  0  0  0  0  0  0  0  0  0  0
    1.1454   -2.1222    0.0235 H   0  0  0  0  0  0  0  0  0  0  0  0
   -0.9203   -1.4657   -1.5987 H   0  0  0  0  0  0  0  0  0  0  0  0
    0.1367    0.9526    1.7032 H   0  0  0  0  0  0  0  0  0  0  0  0
   -1.6259    0.7682    1.1282 H   0  0  0  0  0  0  0  0  0  0  0  0
    0.9344    1.5037   -0.6162 H   0  0  0  0  0  0  0  0  0  0  0  0
   -0.8476    1.5104   -1.1526 H   0  0  0  0  0  0  0  0  0  0  0  0
  1  2  2  0
  2  3  1  0
  3  4  1  0
  3  5  1  0
  5  6  1  0
  6  3  1  0
  2  7  1  0
  4  8  1  0
  5  9  1  0
  5 10  1  0
  6 11  1  0
  6 12  1  0
M  END
