
     RDKit          3D

 18 18  0  0  0  0  0  0  0  0999 V2000
    3.8932    0.1780    1.2451 O   0  0  0  0  0  0  0  0  0  0  0  0
    2.9833    0.1745    0.4347 C   0  0  0  0  0  0  0  0  0  0  0  0
    1.5938   -0.1188    0.8914 C   0  0  0  0  0  0  0  0  0  0  0  0
    0.6961   -0.0526   -0.3182 C   0  0  0  0  0  0  0  0  0  0  0  0
   -0.7258   -0.3368    0.0550 C   0  0  0  0  0  0  0  0  0  0  0  0
   -1.6700   -0.2846   -1.1147 C   0  0  0  0  0  0  0  0  0  0  0  0
   -2.5721    0.2270    0.0072 C   0  0  0  0  0  0  0  0  0  0  0  0
   -1.4051    0.7931    0.5680 O   0  0  0  0  0  0  0  0  0  0  0  0
    3.2421    0.3898   -0.5961 H   0  0  0  0  0  0  0  0  0  0  0  0
    1.2960    0.6829    1.6064 H   0  0  0  0  0  0  0  0  0  0  0  0
    1.5322   -1.1014    1.4078 H   0  0  0  0  0  0  0  0  0  0  0  0
    0.7495    0.9853   -0.7115 H   0  0  0  0  0  0  0  0  0  0  0  0
    1.0308   -0.8059   -1.0597 H   0  0  0  0  0  0  0  0  0  0  0  0
   -0.8973   -1.2475    0.6581 H   0  0  0  0  0  0  0  0  0  0  0  0
   -1.9766   -1.2675   -1.5282 H   0  0  0  0  0  0  0  0  0  0  0  0
   -1.4664    0.4888   -1.8701 H   0  0  0  0  0  0  0  0  0  0  0  0
   -3.3055    0.9879   -0.2995 H   0  0  0  0  0  0  0  0  0  0  0  0
   -2.9983   -0.5890    0.6244 H   0  0  0  0  0  0  0  0  0  0  0  0
  1  2  2  0
  2  3  1  0
  3  4  1  0
  4  5  1  0
  5  6  1  0
  6  7  1  0
  7  8  1  0
  8  5  1  0
  2  9  1  0
  3 10  1  0
  3 11  1  0
  4 12  1  0
  4 13  1  0
  5 14  1  0
  6 15  1  0
  6 16  1  0
  7 17  1  0
  7 18  1  0
M  END
