
     RDKit          3D

 19 19  0  0  0  0  0  0  0  0999 V2000
    2.8076    0.3942   -1.3340 O   0  0  0  0  0  0  0  0  0  0  0  0
    2.6888   -0.0982   -0.2181 C   0  0  0  0  0  0  0  0  0  0  0  0
    1.6319    0.4335    0.6916 C   0  0  0  0  0  0  0  0  0  0  0  0
    0.2641    0.3949    0.0385 C   0  0  0  0  0  0  0  0  0  0  0  0
   -0.1466   -1.0119   -0.3252 C   0  0  0  0  0  0  0  0  0  0  0  0
   -1.6492   -0.9936   -0.5174 C   0  0  0  0  0  0  0  0  0  0  0  0
   -2.1529    0.2825   -0.6710 O   0  0  0  0  0  0  0  0  0  0  0  0
   -1.8247    1.1282    0.3654 C   0  0  0  0  0  0  0  0  0  0  0  0
   -0.6342    0.8504    1.0029 O   0  0  0  0  0  0  0  0  0  0  0  0
    3.3319   -0.9061    0.1056 H   0  0  0  0  0  0  0  0  0  0  0  0
    1.8337    1.5096    0.9411 H   0  0  0  0  0  0  0  0  0  0  0  0
    1.5962   -0.1303    1.6445 H   0  0  0  0  0  0  0  0  0  0  0  0
    0.2220    0.9893   -0.8884 H   0  0  0  0  0  0  0  0  0  0  0  0
    0.0995   -1.7264    0.5026 H   0  0  0  0  0  0  0  0  0  0  0  0
    0.3570   -1.3536   -1.2237 H   0  0  0  0  0  0  0  0  0  0  0  0
   -1.8867   -1.5490   -1.4728 H   0  0  0  0  0  0  0  0  0  0  0  0
   -2.1988   -1.5488    0.2757 H   0  0  0  0  0  0  0  0  0  0  0  0
   -2.6252    1.1700    1.1405 H   0  0  0  0  0  0  0  0  0  0  0  0
   -1.7143    2.1654   -0.0579 H   0  0  0  0  0  0  0  0  0  0  0  0
  1  2  2  0
  2  3  1  0
  3  4  1  0
  4  5  1  0
  5  6  1  0
  6  7  1  0
  7  8  1  0
  8  9  1  0
  9  4  1  0
  2 10  1  0
  3 11  1  0
  3 12  1  0
  4 13  1  0
  5 14  1  0
  5 15  1  0
  6 16  1  0
  6 17  1  0
  8 18  1  0
  8 19  1  0
M  END
