
     RDKit          3D

 15 15  0  0  0  0  0  0  0  0999 V2000
    2.5087   -0.6893   -1.1938 O   0  0  0  0  0  0  0  0  0  0  0  0
    1.9435    0.1615   -0.5267 C   0  0  0  0  0  0  0  0  0  0  0  0
    0.4829    0.1796   -0.5308 C   0  0  0  0  0  0  0  0  0  0  0  0
   -0.1256    1.0443    0.5332 C   0  0  0  0  0  0  0  0  0  0  0  0
   -1.5264    0.5660    0.5164 C   0  0  0  0  0  0  0  0  0  0  0  0
   -1.5247   -0.7052    0.1560 C   0  0  0  0  0  0  0  0  0  0  0  0
   -0.1135   -1.1726   -0.0973 C   0  0  0  0  0  0  0  0  0  0  0  0
    2.5422    0.8680    0.0405 H   0  0  0  0  0  0  0  0  0  0  0  0
    0.0327    0.4322   -1.5014 H   0  0  0  0  0  0  0  0  0  0  0  0
    0.2770    0.7684    1.5474 H   0  0  0  0  0  0  0  0  0  0  0  0
   -0.0279    2.1230    0.3434 H   0  0  0  0  0  0  0  0  0  0  0  0
   -2.3894    1.1807    0.7639 H   0  0  0  0  0  0  0  0  0  0  0  0
   -2.3702   -1.3740    0.0388 H   0  0  0  0  0  0  0  0  0  0  0  0
    0.3336   -1.5207    0.8453 H   0  0  0  0  0  0  0  0  0  0  0  0
   -0.0429   -1.8621   -0.9348 H   0  0  0  0  0  0  0  0  0  0  0  0
  1  2  2  0
  2  3  1  0
  3  4  1  0
  4  5  1  0
  5  6  2  0
  6  7  1  0
  7  3  1  0
  2  8  1  0
  3  9  1  0
  4 10  1  0
  4 11  1  0
  5 12  1  0
  6 13  1  0
  7 14  1  0
  7 15  1  0
M  END
