
     RDKit          3D

 15 15  0  0  0  0  0  0  0  0999 V2000
    3.2896    0.2463   -0.3630 O   0  0  0  0  0  0  0  0  0  0  0  0
    2.1804    0.4701    0.0736 C   0  0  0  0  0  0  0  0  0  0  0  0
    1.1950   -0.6533    0.2520 C   0  0  0  0  0  0  0  0  0  0  0  0
   -0.1096   -0.1289    0.8069 C   0  0  0  0  0  0  0  0  0  0  0  0
   -0.7949    0.8894   -0.0428 C   0  0  0  0  0  0  0  0  0  0  0  0
   -1.3540   -0.5326    0.1071 C   0  0  0  0  0  0  0  0  0  0  0  0
   -2.5696   -0.5838    0.7462 O   0  0  0  0  0  0  0  0  0  0  0  0
    1.8809    1.4720    0.3407 H   0  0  0  0  0  0  0  0  0  0  0  0
    1.6399   -1.4156    0.9181 H   0  0  0  0  0  0  0  0  0  0  0  0
    1.0554   -1.0885   -0.7585 H   0  0  0  0  0  0  0  0  0  0  0  0
   -0.1545   -0.0226    1.9033 H   0  0  0  0  0  0  0  0  0  0  0  0
   -0.4258    1.1388   -1.0528 H   0  0  0  0  0  0  0  0  0  0  0  0
   -1.2981    1.7007    0.5224 H   0  0  0  0  0  0  0  0  0  0  0  0
   -1.2748   -1.2092   -0.7702 H   0  0  0  0  0  0  0  0  0  0  0  0
   -3.2599   -0.2827    0.0905 H   0  0  0  0  0  0  0  0  0  0  0  0
  1  2  2  0
  2  3  1  0
  3  4  1  0
  4  5  1  0
  5  6  1  0
  6  7  1  0
  6  4  1  0
  2  8  1  0
  3  9  1  0
  3 10  1  0
  4 11  1  0
  5 12  1  0
  5 13  1  0
  6 14  1  0
  7 15  1  0
M  END
