
     RDKit          3D

 17 18  0  0  0  0  0  0  0  0999 V2000
   -2.6589    0.8227   -0.9300 O   0  0  0  0  0  0  0  0  0  0  0  0
   -1.8218    1.1746   -0.1264 C   0  0  0  0  0  0  0  0  0  0  0  0
   -0.8311    0.2395    0.3936 C   0  0  0  0  0  0  0  0  0  0  0  0
   -1.1456   -1.2510    0.4604 C   0  0  0  0  0  0  0  0  0  0  0  0
    0.2931   -1.4809   -0.0155 C   0  0  0  0  0  0  0  0  0  0  0  0
    0.4761    0.0168    0.1185 C   0  0  0  0  0  0  0  0  0  0  0  0
    1.4897    0.7322   -0.6943 C   0  0  0  0  0  0  0  0  0  0  0  0
    2.6761    0.8857    0.0492 O   0  0  0  0  0  0  0  0  0  0  0  0
    0.1143    0.6437    1.3032 O   0  0  0  0  0  0  0  0  0  0  0  0
   -1.8120    2.2042    0.2101 H   0  0  0  0  0  0  0  0  0  0  0  0
   -1.9213   -1.5906   -0.2227 H   0  0  0  0  0  0  0  0  0  0  0  0
   -1.2624   -1.6173    1.5052 H   0  0  0  0  0  0  0  0  0  0  0  0
    0.2528   -1.7800   -1.0811 H   0  0  0  0  0  0  0  0  0  0  0  0
    0.9094   -2.0774    0.6543 H   0  0  0  0  0  0  0  0  0  0  0  0
    1.1704    1.7849   -0.9346 H   0  0  0  0  0  0  0  0  0  0  0  0
    1.6806    0.2521   -1.6755 H   0  0  0  0  0  0  0  0  0  0  0  0
    2.3906    1.0408    0.9857 H   0  0  0  0  0  0  0  0  0  0  0  0
  1  2  2  0
  2  3  1  0
  3  4  1  0
  4  5  1  0
  5  6  1  0
  6  7  1  0
  7  8  1  0
  6  9  1  0
  6  3  1  0
  9  3  1  0
  2 10  1  0
  4 11  1  0
  4 12  1  0
  5 13  1  0
  5 14  1  0
  7 15  1  0
  7 16  1  0
  8 17  1  0
M  END
