
     RDKit          3D

 19 19  0  0  0  0  0  0  0  0999 V2000
    3.7519    0.6517   -0.5709 O   0  0  0  0  0  0  0  0  0  0  0  0
    2.7002    0.0691   -0.4297 C   0  0  0  0  0  0  0  0  0  0  0  0
    1.4330    0.8461   -0.3371 C   0  0  0  0  0  0  0  0  0  0  0  0
    0.2619   -0.0789   -0.1660 C   0  0  0  0  0  0  0  0  0  0  0  0
    0.2739   -0.9530    1.0393 C   0  0  0  0  0  0  0  0  0  0  0  0
   -0.5065   -0.0514    1.7708 O   0  0  0  0  0  0  0  0  0  0  0  0
   -0.9296    0.4747    0.5480 C   0  0  0  0  0  0  0  0  0  0  0  0
   -2.2206   -0.1227    0.0256 C   0  0  0  0  0  0  0  0  0  0  0  0
   -2.4813    0.5242   -1.1979 O   0  0  0  0  0  0  0  0  0  0  0  0
    2.7292   -1.0011   -0.3766 H   0  0  0  0  0  0  0  0  0  0  0  0
    1.3507    1.4241   -1.2802 H   0  0  0  0  0  0  0  0  0  0  0  0
    1.4816    1.5292    0.5357 H   0  0  0  0  0  0  0  0  0  0  0  0
    0.0424   -0.6016   -1.1090 H   0  0  0  0  0  0  0  0  0  0  0  0
   -0.2626   -1.9186    0.8751 H   0  0  0  0  0  0  0  0  0  0  0  0
    1.2803   -1.1444    1.4702 H   0  0  0  0  0  0  0  0  0  0  0  0
   -1.0250    1.5935    0.5439 H   0  0  0  0  0  0  0  0  0  0  0  0
   -2.0596   -1.1905   -0.1744 H   0  0  0  0  0  0  0  0  0  0  0  0
   -3.0623    0.0673    0.7259 H   0  0  0  0  0  0  0  0  0  0  0  0
   -2.7574   -0.1177   -1.8928 H   0  0  0  0  0  0  0  0  0  0  0  0
  1  2  2  0
  2  3  1  0
  3  4  1  0
  4  5  1  0
  5  6  1  0
  6  7  1  0
  7  8  1  0
  8  9  1  0
  7  4  1  0
  2 10  1  0
  3 11  1  0
  3 12  1  0
  4 13  1  0
  5 14  1  0
  5 15  1  0
  7 16  1  0
  8 17  1  0
  8 18  1  0
  9 19  1  0
M  END
