
     RDKit          3D

 19 19  0  0  0  0  0  0  0  0999 V2000
   -2.5185   -0.4958   -1.8077 O   0  0  0  0  0  0  0  0  0  0  0  0
   -2.6360    0.2187   -0.8400 C   0  0  0  0  0  0  0  0  0  0  0  0
   -1.6993    0.1465    0.3396 C   0  0  0  0  0  0  0  0  0  0  0  0
   -0.6489   -0.9029    0.1305 C   0  0  0  0  0  0  0  0  0  0  0  0
    0.3255   -1.0049    1.3151 C   0  0  0  0  0  0  0  0  0  0  0  0
    0.7748   -0.5886   -0.0350 C   0  0  0  0  0  0  0  0  0  0  0  0
    1.2599    0.7998   -0.3144 C   0  0  0  0  0  0  0  0  0  0  0  0
    2.7302    0.8901   -0.4446 C   0  0  0  0  0  0  0  0  0  0  0  0
    3.3134    1.9293   -0.6706 O   0  0  0  0  0  0  0  0  0  0  0  0
   -3.4502    0.9324   -0.8360 H   0  0  0  0  0  0  0  0  0  0  0  0
   -1.3047    1.1563    0.4885 H   0  0  0  0  0  0  0  0  0  0  0  0
   -2.3269   -0.1687    1.1990 H   0  0  0  0  0  0  0  0  0  0  0  0
   -1.0626   -1.8751   -0.2340 H   0  0  0  0  0  0  0  0  0  0  0  0
    0.5401   -2.0420    1.6739 H   0  0  0  0  0  0  0  0  0  0  0  0
    0.2712   -0.2694    2.1172 H   0  0  0  0  0  0  0  0  0  0  0  0
    1.3756   -1.3748   -0.5824 H   0  0  0  0  0  0  0  0  0  0  0  0
    0.9548    1.5241    0.4654 H   0  0  0  0  0  0  0  0  0  0  0  0
    0.7748    1.1251   -1.2809 H   0  0  0  0  0  0  0  0  0  0  0  0
    3.3267   -0.0001   -0.3363 H   0  0  0  0  0  0  0  0  0  0  0  0
  1  2  2  0
  2  3  1  0
  3  4  1  0
  4  5  1  0
  5  6  1  0
  6  7  1  0
  7  8  1  0
  8  9  2  0
  6  4  1  0
  2 10  1  0
  3 11  1  0
  3 12  1  0
  4 13  1  0
  5 14  1  0
  5 15  1  0
  6 16  1  0
  7 17  1  0
  7 18  1  0
  8 19  1  0
M  END
