
     RDKit          3D

 17 18  0  0  0  0  0  0  0  0999 V2000
    2.4068    1.5632    0.2590 O   0  0  0  0  0  0  0  0  0  0  0  0
    2.0109    0.4553    0.5723 C   0  0  0  0  0  0  0  0  0  0  0  0
    0.8454   -0.1128   -0.1208 C   0  0  0  0  0  0  0  0  0  0  0  0
    0.8620   -1.6265   -0.2476 C   0  0  0  0  0  0  0  0  0  0  0  0
   -0.1515   -0.9112    0.5983 C   0  0  0  0  0  0  0  0  0  0  0  0
   -1.4237   -0.9058    0.1344 O   0  0  0  0  0  0  0  0  0  0  0  0
   -1.9262    0.2820   -0.3000 C   0  0  0  0  0  0  0  0  0  0  0  0
   -0.8404    1.3125   -0.4789 C   0  0  0  0  0  0  0  0  0  0  0  0
    0.2184    0.6263   -1.1200 O   0  0  0  0  0  0  0  0  0  0  0  0
    2.5490   -0.0571    1.3567 H   0  0  0  0  0  0  0  0  0  0  0  0
    1.6754   -2.1794    0.2429 H   0  0  0  0  0  0  0  0  0  0  0  0
    0.5994   -1.9805   -1.2555 H   0  0  0  0  0  0  0  0  0  0  0  0
   -0.0115   -1.0606    1.6881 H   0  0  0  0  0  0  0  0  0  0  0  0
   -2.7628    0.6922    0.2958 H   0  0  0  0  0  0  0  0  0  0  0  0
   -2.3578    0.1086   -1.3288 H   0  0  0  0  0  0  0  0  0  0  0  0
   -0.5201    1.6084    0.5599 H   0  0  0  0  0  0  0  0  0  0  0  0
   -1.1733    2.1853   -1.0501 H   0  0  0  0  0  0  0  0  0  0  0  0
  1  2  2  0
  2  3  1  0
  3  4  1  0
  4  5  1  0
  5  6  1  0
  6  7  1  0
  7  8  1  0
  8  9  1  0
  5  3  1  0
  9  3  1  0
  2 10  1  0
  4 11  1  0
  4 12  1  0
  5 13  1  0
  7 14  1  0
  7 15  1  0
  8 16  1  0
  8 17  1  0
M  END
