
     RDKit          3D

 17 17  0  0  0  0  0  0  0  0999 V2000
    2.7114    1.0040   -0.3846 O   0  0  0  0  0  0  0  0  0  0  0  0
    2.0893   -0.0030   -0.6655 C   0  0  0  0  0  0  0  0  0  0  0  0
    0.9710   -0.4081    0.2321 C   0  0  0  0  0  0  0  0  0  0  0  0
   -0.1213   -0.9788   -0.6200 C   0  0  0  0  0  0  0  0  0  0  0  0
   -1.4898   -0.7142   -0.0239 C   0  0  0  0  0  0  0  0  0  0  0  0
   -1.6754    0.7496    0.0442 C   0  0  0  0  0  0  0  0  0  0  0  0
   -0.6955    1.4672    0.5601 C   0  0  0  0  0  0  0  0  0  0  0  0
    0.4882    0.7560    1.0193 C   0  0  0  0  0  0  0  0  0  0  0  0
    1.1021    1.1261    2.0808 O   0  0  0  0  0  0  0  0  0  0  0  0
    2.3662   -0.5643   -1.5483 H   0  0  0  0  0  0  0  0  0  0  0  0
    1.3809   -1.1805    0.9349 H   0  0  0  0  0  0  0  0  0  0  0  0
    0.0197   -2.0960   -0.6394 H   0  0  0  0  0  0  0  0  0  0  0  0
   -0.1066   -0.5843   -1.6577 H   0  0  0  0  0  0  0  0  0  0  0  0
   -2.2257   -1.2123   -0.6857 H   0  0  0  0  0  0  0  0  0  0  0  0
   -1.5169   -1.1849    0.9970 H   0  0  0  0  0  0  0  0  0  0  0  0
   -2.5632    1.2611   -0.3027 H   0  0  0  0  0  0  0  0  0  0  0  0
   -0.7344    2.5623    0.6593 H   0  0  0  0  0  0  0  0  0  0  0  0
  1  2  2  0
  2  3  1  0
  3  4  1  0
  4  5  1  0
  5  6  1  0
  6  7  2  0
  7  8  1  0
  8  9  2  0
  8  3  1  0
  2 10  1  0
  3 11  1  0
  4 12  1  0
  4 13  1  0
  5 14  1  0
  5 15  1  0
  6 16  1  0
  7 17  1  0
M  END
