
     RDKit          3D

 17 18  0  0  0  0  0  0  0  0999 V2000
   -2.1077   -1.6587    1.6870 O   0  0  0  0  0  0  0  0  0  0  0  0
   -1.8691   -1.1044    0.6302 C   0  0  0  0  0  0  0  0  0  0  0  0
   -0.8527   -0.0510    0.5238 C   0  0  0  0  0  0  0  0  0  0  0  0
   -1.2463    1.1911   -0.2237 C   0  0  0  0  0  0  0  0  0  0  0  0
    0.0472    1.0868   -0.9967 C   0  0  0  0  0  0  0  0  0  0  0  0
    0.1582   -0.0434   -1.7704 O   0  0  0  0  0  0  0  0  0  0  0  0
    0.2746   -0.3199   -0.4363 C   0  0  0  0  0  0  0  0  0  0  0  0
    1.6233   -0.7000    0.0632 C   0  0  0  0  0  0  0  0  0  0  0  0
    2.5182    0.3387   -0.1813 O   0  0  0  0  0  0  0  0  0  0  0  0
   -2.4391   -1.4203   -0.2328 H   0  0  0  0  0  0  0  0  0  0  0  0
   -0.4244    0.2397    1.5159 H   0  0  0  0  0  0  0  0  0  0  0  0
   -1.3476    2.0956    0.4086 H   0  0  0  0  0  0  0  0  0  0  0  0
   -2.1215    1.0823   -0.8935 H   0  0  0  0  0  0  0  0  0  0  0  0
    0.8510    1.7994   -0.8618 H   0  0  0  0  0  0  0  0  0  0  0  0
    1.9431   -1.6247   -0.4767 H   0  0  0  0  0  0  0  0  0  0  0  0
    1.5689   -0.8897    1.1635 H   0  0  0  0  0  0  0  0  0  0  0  0
    3.4241   -0.0216    0.0811 H   0  0  0  0  0  0  0  0  0  0  0  0
  1  2  2  0
  2  3  1  0
  3  4  1  0
  4  5  1  0
  5  6  1  0
  6  7  1  0
  7  8  1  0
  8  9  1  0
  7  3  1  0
  7  5  1  0
  2 10  1  0
  3 11  1  0
  4 12  1  0
  4 13  1  0
  5 14  1  0
  8 15  1  0
  8 16  1  0
  9 17  1  0
M  END
