
     RDKit          3D

 19 20  0  0  0  0  0  0  0  0999 V2000
    1.6583    2.7158    0.8721 O   0  0  0  0  0  0  0  0  0  0  0  0
    2.0763    1.6075    0.3870 C   0  0  0  0  0  0  0  0  0  0  0  0
    1.0684    0.6287    0.0091 C   0  0  0  0  0  0  0  0  0  0  0  0
   -0.2366    0.7037    0.0885 C   0  0  0  0  0  0  0  0  0  0  0  0
   -1.6397    1.0841    0.3018 C   0  0  0  0  0  0  0  0  0  0  0  0
   -1.8280   -0.4162    0.6478 C   0  0  0  0  0  0  0  0  0  0  0  0
   -0.8460   -0.5697   -0.4850 C   0  0  0  0  0  0  0  0  0  0  0  0
    0.2433   -1.5843   -0.3605 C   0  0  0  0  0  0  0  0  0  0  0  0
    1.4765   -0.7105   -0.5392 C   0  0  0  0  0  0  0  0  0  0  0  0
    3.1280    1.4170    0.2678 H   0  0  0  0  0  0  0  0  0  0  0  0
   -1.8561    1.7445    1.1573 H   0  0  0  0  0  0  0  0  0  0  0  0
   -2.1561    1.3315   -0.6440 H   0  0  0  0  0  0  0  0  0  0  0  0
   -1.4133   -0.5827    1.6392 H   0  0  0  0  0  0  0  0  0  0  0  0
   -2.8473   -0.7715    0.4395 H   0  0  0  0  0  0  0  0  0  0  0  0
   -1.3002   -0.4316   -1.4698 H   0  0  0  0  0  0  0  0  0  0  0  0
    0.2027   -2.2500   -1.2448 H   0  0  0  0  0  0  0  0  0  0  0  0
    0.2450   -2.1921    0.5341 H   0  0  0  0  0  0  0  0  0  0  0  0
    1.7308   -0.5547   -1.6063 H   0  0  0  0  0  0  0  0  0  0  0  0
    2.2939   -1.1694    0.0053 H   0  0  0  0  0  0  0  0  0  0  0  0
  1  2  2  0
  2  3  1  0
  3  4  2  0
  4  5  1  0
  5  6  1  0
  6  7  1  0
  7  8  1  0
  8  9  1  0
  9  3  1  0
  7  4  1  0
  2 10  1  0
  5 11  1  0
  5 12  1  0
  6 13  1  0
  6 14  1  0
  7 15  1  0
  8 16  1  0
  8 17  1  0
  9 18  1  0
  9 19  1  0
M  END
