
     RDKit          3D

 19 20  0  0  0  0  0  0  0  0999 V2000
    2.1577    1.9537    0.2698 O   0  0  0  0  0  0  0  0  0  0  0  0
    2.4305    0.8523   -0.1717 C   0  0  0  0  0  0  0  0  0  0  0  0
    1.5026   -0.2133   -0.5367 C   0  0  0  0  0  0  0  0  0  0  0  0
    0.0717    0.0432   -0.3625 C   0  0  0  0  0  0  0  0  0  0  0  0
   -0.7854   -1.1107   -0.7656 C   0  0  0  0  0  0  0  0  0  0  0  0
   -1.3911   -1.1223    0.6337 C   0  0  0  0  0  0  0  0  0  0  0  0
   -0.5900    0.1178    0.9261 C   0  0  0  0  0  0  0  0  0  0  0  0
   -1.2567    1.3402    0.3735 C   0  0  0  0  0  0  0  0  0  0  0  0
   -0.3578    1.3011   -0.6995 O   0  0  0  0  0  0  0  0  0  0  0  0
    3.4898    0.6580   -0.3022 H   0  0  0  0  0  0  0  0  0  0  0  0
    1.8243   -1.1429    0.0190 H   0  0  0  0  0  0  0  0  0  0  0  0
    1.6936   -0.4691   -1.6149 H   0  0  0  0  0  0  0  0  0  0  0  0
   -1.4868   -0.8106   -1.5670 H   0  0  0  0  0  0  0  0  0  0  0  0
   -0.2388   -2.0373   -0.9765 H   0  0  0  0  0  0  0  0  0  0  0  0
   -2.4826   -0.9915    0.5512 H   0  0  0  0  0  0  0  0  0  0  0  0
   -1.0674   -1.9629    1.2720 H   0  0  0  0  0  0  0  0  0  0  0  0
   -0.0711    0.1831    1.8614 H   0  0  0  0  0  0  0  0  0  0  0  0
   -1.1444    2.1932    1.0574 H   0  0  0  0  0  0  0  0  0  0  0  0
   -2.2982    1.2181    0.0324 H   0  0  0  0  0  0  0  0  0  0  0  0
  1  2  2  0
  2  3  1  0
  3  4  1  0
  4  5  1  0
  5  6  1  0
  6  7  1  0
  7  8  1  0
  8  9  1  0
  7  4  1  0
  9  4  1  0
  2 10  1  0
  3 11  1  0
  3 12  1  0
  5 13  1  0
  5 14  1  0
  6 15  1  0
  6 16  1  0
  7 17  1  0
  8 18  1  0
  8 19  1  0
M  END
