
     RDKit          3D

 15 17  0  0  0  0  0  0  0  0999 V2000
   -1.4998   -1.4018    1.1610 O   0  0  0  0  0  0  0  0  0  0  0  0
   -1.4653   -0.9463    0.0328 C   0  0  0  0  0  0  0  0  0  0  0  0
   -0.9811    0.4064   -0.2114 C   0  0  0  0  0  0  0  0  0  0  0  0
    0.0682    0.9239    0.7315 C   0  0  0  0  0  0  0  0  0  0  0  0
    0.5326    1.6857   -0.3520 O   0  0  0  0  0  0  0  0  0  0  0  0
    0.1785    0.5664   -1.1436 C   0  0  0  0  0  0  0  0  0  0  0  0
    1.2353   -0.4235   -0.7096 C   0  0  0  0  0  0  0  0  0  0  0  0
    2.2982    0.0020    0.0536 O   0  0  0  0  0  0  0  0  0  0  0  0
    1.1384   -0.1487    0.8055 C   0  0  0  0  0  0  0  0  0  0  0  0
   -1.7990   -1.5567   -0.7949 H   0  0  0  0  0  0  0  0  0  0  0  0
   -1.7354    1.1894   -0.4011 H   0  0  0  0  0  0  0  0  0  0  0  0
   -0.2178    1.4288    1.6221 H   0  0  0  0  0  0  0  0  0  0  0  0
    0.0170    0.7338   -2.1832 H   0  0  0  0  0  0  0  0  0  0  0  0
    1.2219   -1.4526   -1.0570 H   0  0  0  0  0  0  0  0  0  0  0  0
    1.0083   -1.0068    1.4754 H   0  0  0  0  0  0  0  0  0  0  0  0
  1  2  2  0
  2  3  1  0
  3  4  1  0
  4  5  1  0
  5  6  1  0
  6  7  1  0
  7  8  1  0
  8  9  1  0
  6  3  1  0
  9  7  1  0
  9  4  1  0
  2 10  1  0
  3 11  1  0
  4 12  1  0
  6 13  1  0
  7 14  1  0
  9 15  1  0
M  END
