
     RDKit          3D

 15 15  0  0  0  0  0  0  0  0999 V2000
    3.8027   -0.5860   -0.2050 O   0  0  0  0  0  0  0  0  0  0  0  0
    2.7874    0.0877   -0.1685 C   0  0  0  0  0  0  0  0  0  0  0  0
    1.4626   -0.5781   -0.0221 C   0  0  0  0  0  0  0  0  0  0  0  0
    0.4520    0.3927   -0.0050 O   0  0  0  0  0  0  0  0  0  0  0  0
   -0.7905   -0.1811    0.1291 C   0  0  0  0  0  0  0  0  0  0  0  0
   -1.8846    0.6170    0.7645 C   0  0  0  0  0  0  0  0  0  0  0  0
   -1.9516    0.3782   -0.6854 C   0  0  0  0  0  0  0  0  0  0  0  0
    2.8530    1.1681   -0.2428 H   0  0  0  0  0  0  0  0  0  0  0  0
    1.4061   -1.1726    0.8974 H   0  0  0  0  0  0  0  0  0  0  0  0
    1.2905   -1.2981   -0.8727 H   0  0  0  0  0  0  0  0  0  0  0  0
   -0.8135   -1.2855    0.2016 H   0  0  0  0  0  0  0  0  0  0  0  0
   -2.5593    0.0035    1.4225 H   0  0  0  0  0  0  0  0  0  0  0  0
   -1.6785    1.6078    1.2090 H   0  0  0  0  0  0  0  0  0  0  0  0
   -1.6402    1.1617   -1.4008 H   0  0  0  0  0  0  0  0  0  0  0  0
   -2.7363   -0.3152   -1.0415 H   0  0  0  0  0  0  0  0  0  0  0  0
  1  2  2  0
  2  3  1  0
  3  4  1  0
  4  5  1  0
  5  6  1  0
  6  7  1  0
  7  5  1  0
  2  8  1  0
  3  9  1  0
  3 10  1  0
  5 11  1  0
  6 12  1  0
  6 13  1  0
  7 14  1  0
  7 15  1  0
M  END
