
     RDKit          3D

 19 20  0  0  0  0  0  0  0  0999 V2000
    3.6712    1.2084   -0.5316 O   0  0  0  0  0  0  0  0  0  0  0  0
    2.5615    0.8685   -0.1397 C   0  0  0  0  0  0  0  0  0  0  0  0
    2.2291   -0.6027   -0.0948 C   0  0  0  0  0  0  0  0  0  0  0  0
    0.9246   -0.7450    0.3796 O   0  0  0  0  0  0  0  0  0  0  0  0
    0.0021   -0.0956   -0.4472 C   0  0  0  0  0  0  0  0  0  0  0  0
   -1.0917   -1.1028   -0.8027 C   0  0  0  0  0  0  0  0  0  0  0  0
   -1.8778   -0.4821    0.3481 C   0  0  0  0  0  0  0  0  0  0  0  0
   -2.3680    0.8729    0.0640 C   0  0  0  0  0  0  0  0  0  0  0  0
   -0.9331    0.7476    0.3412 C   0  0  0  0  0  0  0  0  0  0  0  0
    1.8365    1.6142    0.1677 H   0  0  0  0  0  0  0  0  0  0  0  0
    2.4007   -1.0893   -1.0603 H   0  0  0  0  0  0  0  0  0  0  0  0
    2.9015   -1.0325    0.6695 H   0  0  0  0  0  0  0  0  0  0  0  0
    0.4496    0.4136   -1.3235 H   0  0  0  0  0  0  0  0  0  0  0  0
   -1.5827   -0.8815   -1.7900 H   0  0  0  0  0  0  0  0  0  0  0  0
   -0.8170   -2.1480   -0.6692 H   0  0  0  0  0  0  0  0  0  0  0  0
   -2.0063   -1.0163    1.2788 H   0  0  0  0  0  0  0  0  0  0  0  0
   -2.7629    1.0336   -0.9728 H   0  0  0  0  0  0  0  0  0  0  0  0
   -2.9819    1.3478    0.8481 H   0  0  0  0  0  0  0  0  0  0  0  0
   -0.5554    1.0893    1.3254 H   0  0  0  0  0  0  0  0  0  0  0  0
  1  2  2  0
  2  3  1  0
  3  4  1  0
  4  5  1  0
  5  6  1  0
  6  7  1  0
  7  8  1  0
  8  9  1  0
  9  5  1  0
  9  7  1  0
  2 10  1  0
  3 11  1  0
  3 12  1  0
  5 13  1  0
  6 14  1  0
  6 15  1  0
  7 16  1  0
  8 17  1  0
  8 18  1  0
  9 19  1  0
M  END
