
     RDKit          3D

 21 20  0  0  0  0  0  0  0  0999 V2000
   -3.6686    1.5611   -0.1020 O   0  0  0  0  0  0  0  0  0  0  0  0
   -3.8844    0.3586   -0.0937 C   0  0  0  0  0  0  0  0  0  0  0  0
   -2.7912   -0.6556   -0.0354 C   0  0  0  0  0  0  0  0  0  0  0  0
   -1.4869    0.0956    0.0064 C   0  0  0  0  0  0  0  0  0  0  0  0
   -0.3790   -0.7339    0.0626 O   0  0  0  0  0  0  0  0  0  0  0  0
    0.7485    0.0897    0.0961 C   0  0  0  0  0  0  0  0  0  0  0  0
    1.9992   -0.7609    0.1583 C   0  0  0  0  0  0  0  0  0  0  0  0
    3.2074    0.1515    0.1936 C   0  0  0  0  0  0  0  0  0  0  0  0
    3.1661    0.9124   -0.9874 O   0  0  0  0  0  0  0  0  0  0  0  0
   -4.9148    0.0252   -0.1305 H   0  0  0  0  0  0  0  0  0  0  0  0
   -2.9091   -1.3394    0.8275 H   0  0  0  0  0  0  0  0  0  0  0  0
   -2.8258   -1.2722   -0.9777 H   0  0  0  0  0  0  0  0  0  0  0  0
   -1.5050    0.7614    0.8679 H   0  0  0  0  0  0  0  0  0  0  0  0
   -1.4396    0.7234   -0.9117 H   0  0  0  0  0  0  0  0  0  0  0  0
    0.7122    0.8013    0.9620 H   0  0  0  0  0  0  0  0  0  0  0  0
    0.7577    0.7185   -0.8168 H   0  0  0  0  0  0  0  0  0  0  0  0
    1.9854   -1.3089    1.1220 H   0  0  0  0  0  0  0  0  0  0  0  0
    1.9948   -1.4076   -0.7261 H   0  0  0  0  0  0  0  0  0  0  0  0
    3.1041    0.8775    1.0218 H   0  0  0  0  0  0  0  0  0  0  0  0
    4.1498   -0.3903    0.2855 H   0  0  0  0  0  0  0  0  0  0  0  0
    3.9793    0.7925   -1.5225 H   0  0  0  0  0  0  0  0  0  0  0  0
  1  2  2  0
  2  3  1  0
  3  4  1  0
  4  5  1  0
  5  6  1  0
  6  7  1  0
  7  8  1  0
  8  9  1  0
  2 10  1  0
  3 11  1  0
  3 12  1  0
  4 13  1  0
  4 14  1  0
  6 15  1  0
  6 16  1  0
  7 17  1  0
  7 18  1  0
  8 19  1  0
  8 20  1  0
  9 21  1  0
M  END
