
     RDKit          3D

 17 18  0  0  0  0  0  0  0  0999 V2000
   -1.6840    1.9194    1.0841 O   0  0  0  0  0  0  0  0  0  0  0  0
   -0.6183    1.8383    0.5146 C   0  0  0  0  0  0  0  0  0  0  0  0
   -0.3532    0.8327   -0.5752 C   0  0  0  0  0  0  0  0  0  0  0  0
   -1.3697   -0.3023   -0.5337 C   0  0  0  0  0  0  0  0  0  0  0  0
   -0.4206   -1.1630    0.2359 C   0  0  0  0  0  0  0  0  0  0  0  0
    0.4267   -0.6416    1.3184 C   0  0  0  0  0  0  0  0  0  0  0  0
    0.6659   -0.1565   -0.0486 C   0  0  0  0  0  0  0  0  0  0  0  0
    1.7965   -0.5733   -0.8747 C   0  0  0  0  0  0  0  0  0  0  0  0
    1.6776   -1.2451   -1.8864 O   0  0  0  0  0  0  0  0  0  0  0  0
    0.1576    2.5275    0.8197 H   0  0  0  0  0  0  0  0  0  0  0  0
   -0.1643    1.2521   -1.5603 H   0  0  0  0  0  0  0  0  0  0  0  0
   -2.2830    0.0245   -0.0434 H   0  0  0  0  0  0  0  0  0  0  0  0
   -1.5553   -0.6476   -1.5917 H   0  0  0  0  0  0  0  0  0  0  0  0
   -0.2872   -2.2125   -0.0624 H   0  0  0  0  0  0  0  0  0  0  0  0
    0.0446    0.1331    2.0369 H   0  0  0  0  0  0  0  0  0  0  0  0
    1.1723   -1.3159    1.7400 H   0  0  0  0  0  0  0  0  0  0  0  0
    2.7945   -0.2698   -0.5732 H   0  0  0  0  0  0  0  0  0  0  0  0
  1  2  2  0
  2  3  1  0
  3  4  1  0
  4  5  1  0
  5  6  1  0
  6  7  1  0
  7  8  1  0
  8  9  2  0
  7  3  1  0
  7  5  1  0
  2 10  1  0
  3 11  1  0
  4 12  1  0
  4 13  1  0
  5 14  1  0
  6 15  1  0
  6 16  1  0
  8 17  1  0
M  END
