
     RDKit          3D

 17 17  0  0  0  0  0  0  0  0999 V2000
    2.0293    1.4330    1.2607 O   0  0  0  0  0  0  0  0  0  0  0  0
    2.3291    0.9470    0.1885 C   0  0  0  0  0  0  0  0  0  0  0  0
    1.6172   -0.2081   -0.4124 C   0  0  0  0  0  0  0  0  0  0  0  0
    2.2055   -0.5133   -1.6328 O   0  0  0  0  0  0  0  0  0  0  0  0
    0.1307    0.1132   -0.5837 C   0  0  0  0  0  0  0  0  0  0  0  0
   -0.6023   -0.9442   -1.1291 O   0  0  0  0  0  0  0  0  0  0  0  0
   -0.7854   -0.5229    0.2861 C   0  0  0  0  0  0  0  0  0  0  0  0
   -2.2312   -0.1550    0.4711 C   0  0  0  0  0  0  0  0  0  0  0  0
   -2.5042    0.2558    1.7739 O   0  0  0  0  0  0  0  0  0  0  0  0
    3.1578    1.3829   -0.3503 H   0  0  0  0  0  0  0  0  0  0  0  0
    1.7125   -1.1013    0.2736 H   0  0  0  0  0  0  0  0  0  0  0  0
    1.6749   -1.1905   -2.1351 H   0  0  0  0  0  0  0  0  0  0  0  0
   -0.0567    1.0681   -1.1109 H   0  0  0  0  0  0  0  0  0  0  0  0
   -0.4267   -1.3069    0.9833 H   0  0  0  0  0  0  0  0  0  0  0  0
   -2.8732   -1.0639    0.2986 H   0  0  0  0  0  0  0  0  0  0  0  0
   -2.5837    0.5954   -0.2566 H   0  0  0  0  0  0  0  0  0  0  0  0
   -2.7938    1.2107    1.7535 H   0  0  0  0  0  0  0  0  0  0  0  0
  1  2  2  0
  2  3  1  0
  3  4  1  0
  3  5  1  0
  5  6  1  0
  6  7  1  0
  7  8  1  0
  8  9  1  0
  7  5  1  0
  2 10  1  0
  3 11  1  0
  4 12  1  0
  5 13  1  0
  7 14  1  0
  8 15  1  0
  8 16  1  0
  9 17  1  0
M  END
