
     RDKit          3D

 17 18  0  0  0  0  0  0  0  0999 V2000
    2.8076   -1.2580    0.7988 O   0  0  0  0  0  0  0  0  0  0  0  0
    2.2369   -0.7939   -0.1954 C   0  0  0  0  0  0  0  0  0  0  0  0
    1.5783    0.5165   -0.1813 C   0  0  0  0  0  0  0  0  0  0  0  0
    0.1012    0.4810   -0.1513 C   0  0  0  0  0  0  0  0  0  0  0  0
   -0.4226    1.8632   -0.1372 O   0  0  0  0  0  0  0  0  0  0  0  0
   -0.8855    0.8186   -0.9981 C   0  0  0  0  0  0  0  0  0  0  0  0
   -1.9002   -0.0560   -0.2845 C   0  0  0  0  0  0  0  0  0  0  0  0
   -0.7157   -0.5008    0.5930 C   0  0  0  0  0  0  0  0  0  0  0  0
   -0.9033   -0.2815    1.9439 O   0  0  0  0  0  0  0  0  0  0  0  0
    2.2860   -1.4638   -1.0579 H   0  0  0  0  0  0  0  0  0  0  0  0
    1.9276    1.1191   -1.0441 H   0  0  0  0  0  0  0  0  0  0  0  0
    1.9270    1.0742    0.7301 H   0  0  0  0  0  0  0  0  0  0  0  0
   -1.0190    1.0605   -2.0546 H   0  0  0  0  0  0  0  0  0  0  0  0
   -2.3696   -0.8359   -0.8815 H   0  0  0  0  0  0  0  0  0  0  0  0
   -2.5764    0.5574    0.3463 H   0  0  0  0  0  0  0  0  0  0  0  0
   -0.3861   -1.5369    0.3215 H   0  0  0  0  0  0  0  0  0  0  0  0
   -1.6860   -0.7637    2.2524 H   0  0  0  0  0  0  0  0  0  0  0  0
  1  2  2  0
  2  3  1  0
  3  4  1  0
  4  5  1  0
  5  6  1  0
  6  7  1  0
  7  8  1  0
  8  9  1  0
  6  4  1  0
  8  4  1  0
  2 10  1  0
  3 11  1  0
  3 12  1  0
  6 13  1  0
  7 14  1  0
  7 15  1  0
  8 16  1  0
  9 17  1  0
M  END
