
     RDKit          3D

 19 20  0  0  0  0  0  0  0  0999 V2000
   -1.3393    2.3165    1.1465 O   0  0  0  0  0  0  0  0  0  0  0  0
   -1.5012    1.3966    0.3760 C   0  0  0  0  0  0  0  0  0  0  0  0
   -0.8511    0.1153    0.6151 C   0  0  0  0  0  0  0  0  0  0  0  0
   -1.2588   -1.0033   -0.3178 C   0  0  0  0  0  0  0  0  0  0  0  0
    0.0243   -1.6620    0.1052 C   0  0  0  0  0  0  0  0  0  0  0  0
    0.3988   -0.2087   -0.0957 C   0  0  0  0  0  0  0  0  0  0  0  0
    1.6514    0.3283    0.0272 C   0  0  0  0  0  0  0  0  0  0  0  0
    1.6822    1.6952   -0.2483 O   0  0  0  0  0  0  0  0  0  0  0  0
   -0.4281   -0.2950   -1.3540 C   0  0  0  0  0  0  0  0  0  0  0  0
   -2.1314    1.5488   -0.4813 H   0  0  0  0  0  0  0  0  0  0  0  0
   -0.8896   -0.2369    1.6721 H   0  0  0  0  0  0  0  0  0  0  0  0
   -2.1617   -1.4088   -0.4200 H   0  0  0  0  0  0  0  0  0  0  0  0
    0.0359   -2.0100    1.1385 H   0  0  0  0  0  0  0  0  0  0  0  0
    0.4792   -2.2984   -0.6548 H   0  0  0  0  0  0  0  0  0  0  0  0
    2.3837   -0.1260   -0.7052 H   0  0  0  0  0  0  0  0  0  0  0  0
    2.1136    0.1920    1.0105 H   0  0  0  0  0  0  0  0  0  0  0  0
    2.5783    2.0147    0.0774 H   0  0  0  0  0  0  0  0  0  0  0  0
    0.0343   -1.0008   -2.0615 H   0  0  0  0  0  0  0  0  0  0  0  0
   -0.8207    0.6424   -1.7538 H   0  0  0  0  0  0  0  0  0  0  0  0
  1  2  2  0
  2  3  1  0
  3  4  1  0
  4  5  1  0
  5  6  1  0
  6  7  1  0
  7  8  1  0
  6  9  1  0
  6  3  1  0
  9  4  1  0
  2 10  1  0
  3 11  1  0
  4 12  1  0
  5 13  1  0
  5 14  1  0
  7 15  1  0
  7 16  1  0
  8 17  1  0
  9 18  1  0
  9 19  1  0
M  END
