
     RDKit          3D

 19 20  0  0  0  0  0  0  0  0999 V2000
   -1.6490    2.5376    0.8244 O   0  0  0  0  0  0  0  0  0  0  0  0
   -1.5837    1.5238    0.1436 C   0  0  0  0  0  0  0  0  0  0  0  0
   -0.7537    0.3782    0.5666 C   0  0  0  0  0  0  0  0  0  0  0  0
   -1.4297   -0.9749    0.5010 C   0  0  0  0  0  0  0  0  0  0  0  0
   -0.1095   -1.4963   -0.0552 C   0  0  0  0  0  0  0  0  0  0  0  0
    0.1813   -1.0261   -1.4194 C   0  0  0  0  0  0  0  0  0  0  0  0
    0.3435   -0.0344   -0.3523 C   0  0  0  0  0  0  0  0  0  0  0  0
    1.7425    0.3356    0.0670 C   0  0  0  0  0  0  0  0  0  0  0  0
    1.8087    1.7273    0.1740 O   0  0  0  0  0  0  0  0  0  0  0  0
   -2.1527    1.5048   -0.7684 H   0  0  0  0  0  0  0  0  0  0  0  0
   -0.3623    0.5241    1.6060 H   0  0  0  0  0  0  0  0  0  0  0  0
   -1.7194   -1.4189    1.4510 H   0  0  0  0  0  0  0  0  0  0  0  0
   -2.2545   -0.9520   -0.2639 H   0  0  0  0  0  0  0  0  0  0  0  0
    0.5415   -2.1094    0.5487 H   0  0  0  0  0  0  0  0  0  0  0  0
    1.1046   -1.3978   -1.8942 H   0  0  0  0  0  0  0  0  0  0  0  0
   -0.7034   -1.0296   -2.1100 H   0  0  0  0  0  0  0  0  0  0  0  0
    1.9885   -0.1344    1.0252 H   0  0  0  0  0  0  0  0  0  0  0  0
    2.4277    0.0307   -0.7624 H   0  0  0  0  0  0  0  0  0  0  0  0
    2.5796    2.0117    0.7183 H   0  0  0  0  0  0  0  0  0  0  0  0
  1  2  2  0
  2  3  1  0
  3  4  1  0
  4  5  1  0
  5  6  1  0
  6  7  1  0
  7  8  1  0
  8  9  1  0
  7  3  1  0
  7  5  1  0
  2 10  1  0
  3 11  1  0
  4 12  1  0
  4 13  1  0
  5 14  1  0
  6 15  1  0
  6 16  1  0
  8 17  1  0
  8 18  1  0
  9 19  1  0
M  END
