
     RDKit          3D

 16 16  0  0  0  0  0  0  0  0999 V2000
    2.5028   -0.7544    1.2275 O   0  0  0  0  0  0  0  0  0  0  0  0
    2.4976    0.2048    0.4180 C   0  0  0  0  0  0  0  0  0  0  0  0
    1.3749    0.5345   -0.4383 C   0  0  0  0  0  0  0  0  0  0  0  0
    1.4275    1.5049   -1.2274 O   0  0  0  0  0  0  0  0  0  0  0  0
    0.1610   -0.2736   -0.3849 C   0  0  0  0  0  0  0  0  0  0  0  0
   -0.5447   -0.3331    0.9524 C   0  0  0  0  0  0  0  0  0  0  0  0
   -1.8552   -0.3847    0.1545 C   0  0  0  0  0  0  0  0  0  0  0  0
   -1.0967    0.3761   -0.9427 C   0  0  0  0  0  0  0  0  0  0  0  0
    3.3971    0.8015    0.3801 H   0  0  0  0  0  0  0  0  0  0  0  0
    0.2379   -1.3068   -0.7973 H   0  0  0  0  0  0  0  0  0  0  0  0
   -0.3604   -1.2609    1.5289 H   0  0  0  0  0  0  0  0  0  0  0  0
   -0.4828    0.6064    1.5109 H   0  0  0  0  0  0  0  0  0  0  0  0
   -2.6880    0.1566    0.5995 H   0  0  0  0  0  0  0  0  0  0  0  0
   -2.0621   -1.4138   -0.2217 H   0  0  0  0  0  0  0  0  0  0  0  0
   -1.1463    1.4742   -0.7919 H   0  0  0  0  0  0  0  0  0  0  0  0
   -1.3625    0.0683   -1.9675 H   0  0  0  0  0  0  0  0  0  0  0  0
  1  2  2  0
  2  3  1  0
  3  4  2  0
  3  5  1  0
  5  6  1  0
  6  7  1  0
  7  8  1  0
  8  5  1  0
  2  9  1  0
  5 10  1  0
  6 11  1  0
  6 12  1  0
  7 13  1  0
  7 14  1  0
  8 15  1  0
  8 16  1  0
M  END
