
     RDKit          3D

 17 17  0  0  0  0  0  0  0  0999 V2000
   -2.6782    1.6033   -0.5621 O   0  0  0  0  0  0  0  0  0  0  0  0
   -2.4955    0.4274   -0.3591 C   0  0  0  0  0  0  0  0  0  0  0  0
   -1.2172   -0.2375   -0.5886 C   0  0  0  0  0  0  0  0  0  0  0  0
   -0.1776    0.5545   -1.0658 O   0  0  0  0  0  0  0  0  0  0  0  0
    0.6829   -0.3034   -0.3803 C   0  0  0  0  0  0  0  0  0  0  0  0
    1.9759    0.3093    0.0724 C   0  0  0  0  0  0  0  0  0  0  0  0
    2.7505    0.8005   -0.9436 O   0  0  0  0  0  0  0  0  0  0  0  0
   -0.3910   -0.3544    0.6988 C   0  0  0  0  0  0  0  0  0  0  0  0
   -0.5382   -1.5699    1.3150 O   0  0  0  0  0  0  0  0  0  0  0  0
   -3.3236   -0.1569    0.0109 H   0  0  0  0  0  0  0  0  0  0  0  0
   -1.2247   -1.1983   -1.1215 H   0  0  0  0  0  0  0  0  0  0  0  0
    0.7688   -1.3213   -0.8235 H   0  0  0  0  0  0  0  0  0  0  0  0
    1.7351    1.1582    0.7610 H   0  0  0  0  0  0  0  0  0  0  0  0
    2.5515   -0.4861    0.5898 H   0  0  0  0  0  0  0  0  0  0  0  0
    2.4752    1.7025   -1.2498 H   0  0  0  0  0  0  0  0  0  0  0  0
   -0.4490    0.5488    1.3372 H   0  0  0  0  0  0  0  0  0  0  0  0
   -0.4448   -1.4769    2.3092 H   0  0  0  0  0  0  0  0  0  0  0  0
  1  2  2  0
  2  3  1  0
  3  4  1  0
  4  5  1  0
  5  6  1  0
  6  7  1  0
  5  8  1  0
  8  9  1  0
  8  3  1  0
  2 10  1  0
  3 11  1  0
  5 12  1  0
  6 13  1  0
  6 14  1  0
  7 15  1  0
  8 16  1  0
  9 17  1  0
M  END
