
     RDKit          3D

 15 15  0  0  0  0  0  0  0  0999 V2000
    2.9768    1.0636    0.4616 O   0  0  0  0  0  0  0  0  0  0  0  0
    2.2710    0.1306    0.1663 C   0  0  0  0  0  0  0  0  0  0  0  0
    1.0243    0.3578   -0.5913 C   0  0  0  0  0  0  0  0  0  0  0  0
    0.3805   -0.8326   -0.8181 O   0  0  0  0  0  0  0  0  0  0  0  0
   -0.5541   -1.1645    0.1582 C   0  0  0  0  0  0  0  0  0  0  0  0
   -1.7012   -0.1605   -0.0511 C   0  0  0  0  0  0  0  0  0  0  0  0
   -1.1190    1.1507    0.3420 C   0  0  0  0  0  0  0  0  0  0  0  0
   -1.8415    1.9786    0.9222 O   0  0  0  0  0  0  0  0  0  0  0  0
    0.2178    1.3410    0.0178 O   0  0  0  0  0  0  0  0  0  0  0  0
    2.5630   -0.8575    0.4614 H   0  0  0  0  0  0  0  0  0  0  0  0
    1.3026    0.7791   -1.6022 H   0  0  0  0  0  0  0  0  0  0  0  0
   -0.1422   -1.0145    1.1848 H   0  0  0  0  0  0  0  0  0  0  0  0
   -0.9026   -2.1894   -0.0133 H   0  0  0  0  0  0  0  0  0  0  0  0
   -2.5912   -0.4334    0.5234 H   0  0  0  0  0  0  0  0  0  0  0  0
   -1.8841   -0.1489   -1.1616 H   0  0  0  0  0  0  0  0  0  0  0  0
  1  2  2  0
  2  3  1  0
  3  4  1  0
  4  5  1  0
  5  6  1  0
  6  7  1  0
  7  8  2  0
  7  9  1  0
  9  3  1  0
  2 10  1  0
  3 11  1  0
  5 12  1  0
  5 13  1  0
  6 14  1  0
  6 15  1  0
M  END
