
     RDKit          3D

 21 21  0  0  0  0  0  0  0  0999 V2000
    4.2423    1.1190   -0.2104 O   0  0  0  0  0  0  0  0  0  0  0  0
    3.1733    0.7054    0.1871 C   0  0  0  0  0  0  0  0  0  0  0  0
    2.8382   -0.7275    0.0302 C   0  0  0  0  0  0  0  0  0  0  0  0
    1.6038   -1.0893    0.5020 O   0  0  0  0  0  0  0  0  0  0  0  0
    0.5717   -0.4181   -0.1465 C   0  0  0  0  0  0  0  0  0  0  0  0
   -0.7544   -0.8535    0.4083 C   0  0  0  0  0  0  0  0  0  0  0  0
   -1.9345   -0.2067   -0.2039 C   0  0  0  0  0  0  0  0  0  0  0  0
   -2.1889    1.2344   -0.1995 C   0  0  0  0  0  0  0  0  0  0  0  0
   -2.9880    0.4059    0.7197 C   0  0  0  0  0  0  0  0  0  0  0  0
    2.4904    1.3980    0.6480 H   0  0  0  0  0  0  0  0  0  0  0  0
    2.9755   -0.9863   -1.0579 H   0  0  0  0  0  0  0  0  0  0  0  0
    3.5940   -1.3344    0.6103 H   0  0  0  0  0  0  0  0  0  0  0  0
    0.5770   -0.6884   -1.2375 H   0  0  0  0  0  0  0  0  0  0  0  0
    0.7636    0.6451   -0.0830 H   0  0  0  0  0  0  0  0  0  0  0  0
   -0.8190   -1.9561    0.2871 H   0  0  0  0  0  0  0  0  0  0  0  0
   -0.7602   -0.6646    1.4999 H   0  0  0  0  0  0  0  0  0  0  0  0
   -2.4064   -0.8003   -1.0417 H   0  0  0  0  0  0  0  0  0  0  0  0
   -1.4637    1.9750    0.2025 H   0  0  0  0  0  0  0  0  0  0  0  0
   -2.7535    1.6614   -1.0787 H   0  0  0  0  0  0  0  0  0  0  0  0
   -4.0488    0.2385    0.5092 H   0  0  0  0  0  0  0  0  0  0  0  0
   -2.7125    0.3425    1.8098 H   0  0  0  0  0  0  0  0  0  0  0  0
  1  2  2  0
  2  3  1  0
  3  4  1  0
  4  5  1  0
  5  6  1  0
  6  7  1  0
  7  8  1  0
  8  9  1  0
  9  7  1  0
  2 10  1  0
  3 11  1  0
  3 12  1  0
  5 13  1  0
  5 14  1  0
  6 15  1  0
  6 16  1  0
  7 17  1  0
  8 18  1  0
  8 19  1  0
  9 20  1  0
  9 21  1  0
M  END
