
     RDKit          3D

 19 21  0  0  0  0  0  0  0  0999 V2000
   -1.7371   -1.3293    1.4649 O   0  0  0  0  0  0  0  0  0  0  0  0
   -1.9903   -1.0717    0.3113 C   0  0  0  0  0  0  0  0  0  0  0  0
   -1.3233    0.0178   -0.3853 C   0  0  0  0  0  0  0  0  0  0  0  0
    0.0148   -0.2897   -1.0183 C   0  0  0  0  0  0  0  0  0  0  0  0
    0.9712   -1.0556   -0.1542 C   0  0  0  0  0  0  0  0  0  0  0  0
    1.6033   -0.1157    0.8117 C   0  0  0  0  0  0  0  0  0  0  0  0
    0.7868    1.1552    0.6560 C   0  0  0  0  0  0  0  0  0  0  0  0
   -0.6647    1.0714    0.4280 C   0  0  0  0  0  0  0  0  0  0  0  0
    0.3626    1.1367   -0.7252 C   0  0  0  0  0  0  0  0  0  0  0  0
   -2.7329   -1.6801   -0.1909 H   0  0  0  0  0  0  0  0  0  0  0  0
   -1.9807    0.4944   -1.1694 H   0  0  0  0  0  0  0  0  0  0  0  0
   -0.0190   -0.5779   -2.0864 H   0  0  0  0  0  0  0  0  0  0  0  0
    1.7407   -1.4996   -0.8365 H   0  0  0  0  0  0  0  0  0  0  0  0
    0.4918   -1.9304    0.3521 H   0  0  0  0  0  0  0  0  0  0  0  0
    1.6467   -0.4695    1.8482 H   0  0  0  0  0  0  0  0  0  0  0  0
    2.6302    0.1446    0.4243 H   0  0  0  0  0  0  0  0  0  0  0  0
    1.1698    2.1002    1.0751 H   0  0  0  0  0  0  0  0  0  0  0  0
   -1.2701    1.9653    0.6242 H   0  0  0  0  0  0  0  0  0  0  0  0
    0.3001    1.9341   -1.4296 H   0  0  0  0  0  0  0  0  0  0  0  0
  1  2  2  0
  2  3  1  0
  3  4  1  0
  4  5  1  0
  5  6  1  0
  6  7  1  0
  7  8  1  0
  8  9  1  0
  8  3  1  0
  9  4  1  0
  9  7  1  0
  2 10  1  0
  3 11  1  0
  4 12  1  0
  5 13  1  0
  5 14  1  0
  6 15  1  0
  6 16  1  0
  7 17  1  0
  8 18  1  0
  9 19  1  0
M  END
