
     RDKit          3D

 17 18  0  0  0  0  0  0  0  0999 V2000
   -3.1672   -0.2343   -0.1250 O   0  0  0  0  0  0  0  0  0  0  0  0
   -2.0710    0.1971   -0.4262 C   0  0  0  0  0  0  0  0  0  0  0  0
   -0.8513   -0.2278    0.3192 C   0  0  0  0  0  0  0  0  0  0  0  0
   -1.1646   -1.1260    1.3307 O   0  0  0  0  0  0  0  0  0  0  0  0
   -0.0864    0.9958    0.7656 C   0  0  0  0  0  0  0  0  0  0  0  0
    0.7847    0.7755   -0.4643 C   0  0  0  0  0  0  0  0  0  0  0  0
    1.6652   -0.4023   -0.3723 C   0  0  0  0  0  0  0  0  0  0  0  0
    2.2890   -0.6444    0.8499 O   0  0  0  0  0  0  0  0  0  0  0  0
    0.2421   -0.6838   -0.5790 C   0  0  0  0  0  0  0  0  0  0  0  0
   -1.9893    0.9052   -1.2559 H   0  0  0  0  0  0  0  0  0  0  0  0
   -1.6686   -1.8665    0.8986 H   0  0  0  0  0  0  0  0  0  0  0  0
    0.4661    0.8023    1.7193 H   0  0  0  0  0  0  0  0  0  0  0  0
   -0.6365    1.9344    0.7283 H   0  0  0  0  0  0  0  0  0  0  0  0
    0.6841    1.4083   -1.3352 H   0  0  0  0  0  0  0  0  0  0  0  0
    2.3315   -0.5726   -1.2429 H   0  0  0  0  0  0  0  0  0  0  0  0
    3.2639   -0.7004    0.7757 H   0  0  0  0  0  0  0  0  0  0  0  0
   -0.0919   -0.9994   -1.5863 H   0  0  0  0  0  0  0  0  0  0  0  0
  1  2  2  0
  2  3  1  0
  3  4  1  0
  3  5  1  0
  5  6  1  0
  6  7  1  0
  7  8  1  0
  7  9  1  0
  9  3  1  0
  9  6  1  0
  2 10  1  0
  4 11  1  0
  5 12  1  0
  5 13  1  0
  6 14  1  0
  7 15  1  0
  8 16  1  0
  9 17  1  0
M  END
