
     RDKit          3D

 21 21  0  0  0  0  0  0  0  0999 V2000
   -2.9833    2.1577   -0.1010 O   0  0  0  0  0  0  0  0  0  0  0  0
   -2.4880    1.0912   -0.4218 C   0  0  0  0  0  0  0  0  0  0  0  0
   -2.2788    0.0656    0.6204 C   0  0  0  0  0  0  0  0  0  0  0  0
   -1.6576   -1.1750    0.0163 C   0  0  0  0  0  0  0  0  0  0  0  0
   -0.3195   -0.8806   -0.6197 C   0  0  0  0  0  0  0  0  0  0  0  0
    0.5452   -0.3858    0.3311 O   0  0  0  0  0  0  0  0  0  0  0  0
    1.7699   -0.1103   -0.2239 C   0  0  0  0  0  0  0  0  0  0  0  0
    3.0082   -0.0605    0.5874 C   0  0  0  0  0  0  0  0  0  0  0  0
    2.3907    1.2336    0.2523 C   0  0  0  0  0  0  0  0  0  0  0  0
   -2.2297    0.9650   -1.4696 H   0  0  0  0  0  0  0  0  0  0  0  0
   -3.2799   -0.2319    0.9988 H   0  0  0  0  0  0  0  0  0  0  0  0
   -1.6735    0.4365    1.4840 H   0  0  0  0  0  0  0  0  0  0  0  0
   -1.4858   -1.9453    0.7934 H   0  0  0  0  0  0  0  0  0  0  0  0
   -2.3461   -1.5856   -0.7294 H   0  0  0  0  0  0  0  0  0  0  0  0
   -0.4255   -0.2525   -1.5059 H   0  0  0  0  0  0  0  0  0  0  0  0
    0.0816   -1.8706   -0.9642 H   0  0  0  0  0  0  0  0  0  0  0  0
    1.8664   -0.3195   -1.3000 H   0  0  0  0  0  0  0  0  0  0  0  0
    2.9830   -0.3633    1.6612 H   0  0  0  0  0  0  0  0  0  0  0  0
    3.9324   -0.4213    0.0833 H   0  0  0  0  0  0  0  0  0  0  0  0
    2.7408    1.8823   -0.5499 H   0  0  0  0  0  0  0  0  0  0  0  0
    1.8495    1.7702    1.0572 H   0  0  0  0  0  0  0  0  0  0  0  0
  1  2  2  0
  2  3  1  0
  3  4  1  0
  4  5  1  0
  5  6  1  0
  6  7  1  0
  7  8  1  0
  8  9  1  0
  9  7  1  0
  2 10  1  0
  3 11  1  0
  3 12  1  0
  4 13  1  0
  4 14  1  0
  5 15  1  0
  5 16  1  0
  7 17  1  0
  8 18  1  0
  8 19  1  0
  9 20  1  0
  9 21  1  0
M  END
