
     RDKit          3D

 17 18  0  0  0  0  0  0  0  0999 V2000
    0.0458   -1.8226   -1.9647 O   0  0  0  0  0  0  0  0  0  0  0  0
   -0.3683   -1.6123   -0.8398 C   0  0  0  0  0  0  0  0  0  0  0  0
   -0.4287   -0.2374   -0.2803 C   0  0  0  0  0  0  0  0  0  0  0  0
   -1.7356    0.0634    0.4242 C   0  0  0  0  0  0  0  0  0  0  0  0
   -1.6055    1.1957    1.1866 O   0  0  0  0  0  0  0  0  0  0  0  0
    0.0155    0.7555   -1.1285 O   0  0  0  0  0  0  0  0  0  0  0  0
    1.2407    0.9997   -0.5387 C   0  0  0  0  0  0  0  0  0  0  0  0
    2.0779   -0.0787   -0.0032 C   0  0  0  0  0  0  0  0  0  0  0  0
    0.7563    0.0995    0.6300 C   0  0  0  0  0  0  0  0  0  0  0  0
   -0.6916   -2.4658   -0.2612 H   0  0  0  0  0  0  0  0  0  0  0  0
   -2.5526    0.1629   -0.3221 H   0  0  0  0  0  0  0  0  0  0  0  0
   -1.9862   -0.8450    1.0219 H   0  0  0  0  0  0  0  0  0  0  0  0
   -2.0302    1.9785    0.7441 H   0  0  0  0  0  0  0  0  0  0  0  0
    1.5227    2.0431   -0.2705 H   0  0  0  0  0  0  0  0  0  0  0  0
    2.2041   -1.0569   -0.5508 H   0  0  0  0  0  0  0  0  0  0  0  0
    2.9491    0.1911    0.5910 H   0  0  0  0  0  0  0  0  0  0  0  0
    0.5864    0.6293    1.5622 H   0  0  0  0  0  0  0  0  0  0  0  0
  1  2  2  0
  2  3  1  0
  3  4  1  0
  4  5  1  0
  3  6  1  0
  6  7  1  0
  7  8  1  0
  8  9  1  0
  9  3  1  0
  9  7  1  0
  2 10  1  0
  4 11  1  0
  4 12  1  0
  5 13  1  0
  7 14  1  0
  8 15  1  0
  8 16  1  0
  9 17  1  0
M  END
