
     RDKit          3D

 19 20  0  0  0  0  0  0  0  0999 V2000
   -3.7927    0.6201    0.9960 O   0  0  0  0  0  0  0  0  0  0  0  0
   -2.8935    0.3406    0.2440 C   0  0  0  0  0  0  0  0  0  0  0  0
   -1.4627    0.2004    0.6793 C   0  0  0  0  0  0  0  0  0  0  0  0
   -0.5023    0.7015   -0.2662 C   0  0  0  0  0  0  0  0  0  0  0  0
    0.2595    0.0600   -1.3621 C   0  0  0  0  0  0  0  0  0  0  0  0
    0.8580   -0.7573   -0.2367 C   0  0  0  0  0  0  0  0  0  0  0  0
    1.8759   -0.1888    0.6423 C   0  0  0  0  0  0  0  0  0  0  0  0
    3.0399    0.2422    0.0146 O   0  0  0  0  0  0  0  0  0  0  0  0
   -0.5636   -0.7857    0.2055 C   0  0  0  0  0  0  0  0  0  0  0  0
   -3.0837    0.1708   -0.8215 H   0  0  0  0  0  0  0  0  0  0  0  0
   -1.3926    0.3898    1.7985 H   0  0  0  0  0  0  0  0  0  0  0  0
    0.1780    1.4102    0.2414 H   0  0  0  0  0  0  0  0  0  0  0  0
    0.9304    0.7046   -1.9104 H   0  0  0  0  0  0  0  0  0  0  0  0
   -0.4096   -0.5637   -1.9847 H   0  0  0  0  0  0  0  0  0  0  0  0
    1.1992   -1.7322   -0.6827 H   0  0  0  0  0  0  0  0  0  0  0  0
    2.2530   -1.0498    1.2960 H   0  0  0  0  0  0  0  0  0  0  0  0
    1.4725    0.5055    1.3968 H   0  0  0  0  0  0  0  0  0  0  0  0
    3.1651    1.2123    0.2546 H   0  0  0  0  0  0  0  0  0  0  0  0
   -1.1309   -1.4804   -0.5048 H   0  0  0  0  0  0  0  0  0  0  0  0
  1  2  2  0
  2  3  1  0
  3  4  1  0
  4  5  1  0
  5  6  1  0
  6  7  1  0
  7  8  1  0
  6  9  1  0
  9  3  1  0
  9  4  1  0
  2 10  1  0
  3 11  1  0
  4 12  1  0
  5 13  1  0
  5 14  1  0
  6 15  1  0
  7 16  1  0
  7 17  1  0
  8 18  1  0
  9 19  1  0
M  END
