
     RDKit          3D

 17 19  0  0  0  0  0  0  0  0999 V2000
    2.8808    1.0910    0.0333 O   0  0  0  0  0  0  0  0  0  0  0  0
    2.2587    0.1764   -0.4750 C   0  0  0  0  0  0  0  0  0  0  0  0
    1.1383   -0.4229    0.2466 C   0  0  0  0  0  0  0  0  0  0  0  0
    0.5033   -1.4411   -0.4048 O   0  0  0  0  0  0  0  0  0  0  0  0
   -0.8436   -1.4260   -0.0696 C   0  0  0  0  0  0  0  0  0  0  0  0
   -1.5352   -0.1288   -0.5087 C   0  0  0  0  0  0  0  0  0  0  0  0
   -0.7003    1.1305   -0.5660 C   0  0  0  0  0  0  0  0  0  0  0  0
    0.0677    0.5894    0.6350 C   0  0  0  0  0  0  0  0  0  0  0  0
   -1.0993   -0.3349    0.8630 C   0  0  0  0  0  0  0  0  0  0  0  0
    2.5685   -0.1592   -1.4579 H   0  0  0  0  0  0  0  0  0  0  0  0
    1.5347   -0.8325    1.2104 H   0  0  0  0  0  0  0  0  0  0  0  0
   -1.4553   -2.3181   -0.1035 H   0  0  0  0  0  0  0  0  0  0  0  0
   -2.5588   -0.1532   -0.8603 H   0  0  0  0  0  0  0  0  0  0  0  0
   -1.2832    2.0148   -0.2325 H   0  0  0  0  0  0  0  0  0  0  0  0
   -0.1134    1.2667   -1.4743 H   0  0  0  0  0  0  0  0  0  0  0  0
    0.3204    1.2949    1.4112 H   0  0  0  0  0  0  0  0  0  0  0  0
   -1.6834   -0.3469    1.7531 H   0  0  0  0  0  0  0  0  0  0  0  0
  1  2  2  0
  2  3  1  0
  3  4  1  0
  4  5  1  0
  5  6  1  0
  6  7  1  0
  7  8  1  0
  8  9  1  0
  8  3  1  0
  9  5  1  0
  9  6  1  0
  2 10  1  0
  3 11  1  0
  5 12  1  0
  6 13  1  0
  7 14  1  0
  7 15  1  0
  8 16  1  0
  9 17  1  0
M  END
