
     RDKit          3D

 19 19  0  0  0  0  0  0  0  0999 V2000
    1.8110   -2.4146   -0.4670 O   0  0  0  0  0  0  0  0  0  0  0  0
    1.6790   -1.4109    0.1803 C   0  0  0  0  0  0  0  0  0  0  0  0
    0.8628   -0.2843   -0.3222 C   0  0  0  0  0  0  0  0  0  0  0  0
    1.4089    0.9928    0.2754 C   0  0  0  0  0  0  0  0  0  0  0  0
    2.7415    1.0932   -0.1474 O   0  0  0  0  0  0  0  0  0  0  0  0
   -0.5706   -0.5326    0.0867 C   0  0  0  0  0  0  0  0  0  0  0  0
   -1.4964    0.5626   -0.3772 C   0  0  0  0  0  0  0  0  0  0  0  0
   -2.9406    0.3433    0.0168 C   0  0  0  0  0  0  0  0  0  0  0  0
   -2.4524    0.2833   -1.3196 O   0  0  0  0  0  0  0  0  0  0  0  0
    2.1577   -1.3242    1.1380 H   0  0  0  0  0  0  0  0  0  0  0  0
    0.8870   -0.2461   -1.4344 H   0  0  0  0  0  0  0  0  0  0  0  0
    1.4282    0.8662    1.3769 H   0  0  0  0  0  0  0  0  0  0  0  0
    0.8418    1.8854   -0.0457 H   0  0  0  0  0  0  0  0  0  0  0  0
    3.1159    0.1757   -0.0653 H   0  0  0  0  0  0  0  0  0  0  0  0
   -0.8905   -1.4671   -0.4199 H   0  0  0  0  0  0  0  0  0  0  0  0
   -0.5706   -0.6662    1.1856 H   0  0  0  0  0  0  0  0  0  0  0  0
   -1.1807    1.6192   -0.3034 H   0  0  0  0  0  0  0  0  0  0  0  0
   -3.5738    1.1913    0.2846 H   0  0  0  0  0  0  0  0  0  0  0  0
   -3.2582   -0.6671    0.3578 H   0  0  0  0  0  0  0  0  0  0  0  0
  1  2  2  0
  2  3  1  0
  3  4  1  0
  4  5  1  0
  3  6  1  0
  6  7  1  0
  7  8  1  0
  8  9  1  0
  9  7  1  0
  2 10  1  0
  3 11  1  0
  4 12  1  0
  4 13  1  0
  5 14  1  0
  6 15  1  0
  6 16  1  0
  7 17  1  0
  8 18  1  0
  8 19  1  0
M  END
