
     RDKit          3D

 17 18  0  0  0  0  0  0  0  0999 V2000
   -1.4297    2.5141    0.9449 O   0  0  0  0  0  0  0  0  0  0  0  0
   -0.8353    2.0652   -0.0092 C   0  0  0  0  0  0  0  0  0  0  0  0
   -0.2486    0.7503    0.0346 C   0  0  0  0  0  0  0  0  0  0  0  0
    1.2472    0.7297   -0.0330 C   0  0  0  0  0  0  0  0  0  0  0  0
    1.6112   -0.3957    0.5747 C   0  0  0  0  0  0  0  0  0  0  0  0
    0.3437   -1.0565    0.9706 C   0  0  0  0  0  0  0  0  0  0  0  0
   -0.4149   -1.5737   -0.2364 C   0  0  0  0  0  0  0  0  0  0  0  0
   -0.7746   -0.2514   -0.9321 C   0  0  0  0  0  0  0  0  0  0  0  0
   -0.4445    0.0844    1.2690 O   0  0  0  0  0  0  0  0  0  0  0  0
   -0.7588    2.6807   -0.8929 H   0  0  0  0  0  0  0  0  0  0  0  0
    1.8943    1.4738   -0.4819 H   0  0  0  0  0  0  0  0  0  0  0  0
    2.6474   -0.6839    0.7054 H   0  0  0  0  0  0  0  0  0  0  0  0
    0.4179   -1.7508    1.7905 H   0  0  0  0  0  0  0  0  0  0  0  0
    0.1973   -2.2117   -0.8686 H   0  0  0  0  0  0  0  0  0  0  0  0
   -1.3445   -2.0283    0.1409 H   0  0  0  0  0  0  0  0  0  0  0  0
   -1.8675   -0.1959   -1.0876 H   0  0  0  0  0  0  0  0  0  0  0  0
   -0.2408   -0.1504   -1.8891 H   0  0  0  0  0  0  0  0  0  0  0  0
  1  2  2  0
  2  3  1  0
  3  4  1  0
  4  5  2  0
  5  6  1  0
  6  7  1  0
  7  8  1  0
  6  9  1  0
  8  3  1  0
  9  3  1  0
  2 10  1  0
  4 11  1  0
  5 12  1  0
  6 13  1  0
  7 14  1  0
  7 15  1  0
  8 16  1  0
  8 17  1  0
M  END
