
     RDKit          3D

 14 15  0  0  0  0  0  0  0  0999 V2000
   -2.2000   -0.9044   -1.0369 O   0  0  0  0  0  0  0  0  0  0  0  0
   -1.8511   -0.4499    0.0357 C   0  0  0  0  0  0  0  0  0  0  0  0
   -0.4716   -0.0393    0.3453 C   0  0  0  0  0  0  0  0  0  0  0  0
   -0.2532    0.4550    1.6121 O   0  0  0  0  0  0  0  0  0  0  0  0
    0.2725    0.6987   -0.7126 C   0  0  0  0  0  0  0  0  0  0  0  0
    1.5422    0.1742   -0.0948 C   0  0  0  0  0  0  0  0  0  0  0  0
    0.5739   -0.9577   -0.2134 C   0  0  0  0  0  0  0  0  0  0  0  0
    0.2496   -0.4599   -1.4613 O   0  0  0  0  0  0  0  0  0  0  0  0
   -2.6083   -0.3448    0.8031 H   0  0  0  0  0  0  0  0  0  0  0  0
   -0.2808    1.4406    1.5643 H   0  0  0  0  0  0  0  0  0  0  0  0
    0.1173    1.6410   -1.0352 H   0  0  0  0  0  0  0  0  0  0  0  0
    2.4200    0.1193   -0.7604 H   0  0  0  0  0  0  0  0  0  0  0  0
    1.7628    0.5489    0.9153 H   0  0  0  0  0  0  0  0  0  0  0  0
    0.7266   -1.9218    0.0387 H   0  0  0  0  0  0  0  0  0  0  0  0
  1  2  2  0
  2  3  1  0
  3  4  1  0
  3  5  1  0
  5  6  1  0
  6  7  1  0
  7  8  1  0
  7  3  1  0
  8  5  1  0
  2  9  1  0
  4 10  1  0
  5 11  1  0
  6 12  1  0
  6 13  1  0
  7 14  1  0
M  END
