
     RDKit          3D

 17 17  0  0  0  0  0  0  0  0999 V2000
    1.6866    2.0652    0.3521 O   0  0  0  0  0  0  0  0  0  0  0  0
    2.0329    1.0590   -0.3099 C   0  0  0  0  0  0  0  0  0  0  0  0
    1.4646   -0.2194    0.0086 C   0  0  0  0  0  0  0  0  0  0  0  0
    1.8999   -1.1920   -0.7092 O   0  0  0  0  0  0  0  0  0  0  0  0
    0.4852   -0.5423    1.0166 C   0  0  0  0  0  0  0  0  0  0  0  0
    0.3366   -1.9542    1.0779 O   0  0  0  0  0  0  0  0  0  0  0  0
   -0.8837    0.0185    0.8659 C   0  0  0  0  0  0  0  0  0  0  0  0
   -1.6322   -0.4042   -0.4261 C   0  0  0  0  0  0  0  0  0  0  0  0
   -1.3356    1.0312   -0.0639 C   0  0  0  0  0  0  0  0  0  0  0  0
    2.7491    1.2205   -1.0913 H   0  0  0  0  0  0  0  0  0  0  0  0
    0.8759   -0.2513    2.0120 H   0  0  0  0  0  0  0  0  0  0  0  0
    0.5272   -2.2819    0.1569 H   0  0  0  0  0  0  0  0  0  0  0  0
   -1.5079   -0.1402    1.7958 H   0  0  0  0  0  0  0  0  0  0  0  0
   -1.0225   -0.8155   -1.2463 H   0  0  0  0  0  0  0  0  0  0  0  0
   -2.6508   -0.8110   -0.3066 H   0  0  0  0  0  0  0  0  0  0  0  0
   -2.2816    1.5926    0.2083 H   0  0  0  0  0  0  0  0  0  0  0  0
   -0.7436    1.6249   -0.7595 H   0  0  0  0  0  0  0  0  0  0  0  0
  1  2  2  0
  2  3  1  0
  3  4  2  0
  3  5  1  0
  5  6  1  0
  5  7  1  0
  7  8  1  0
  8  9  1  0
  9  7  1  0
  2 10  1  0
  5 11  1  0
  6 12  1  0
  7 13  1  0
  8 14  1  0
  8 15  1  0
  9 16  1  0
  9 17  1  0
M  END
