
     RDKit          3D

 19 20  0  0  0  0  0  0  0  0999 V2000
   -2.1947   -1.9070    0.5194 O   0  0  0  0  0  0  0  0  0  0  0  0
   -2.2214   -0.7137    0.3845 C   0  0  0  0  0  0  0  0  0  0  0  0
   -1.1842    0.0409   -0.4097 C   0  0  0  0  0  0  0  0  0  0  0  0
   -0.8210    1.3018    0.2684 C   0  0  0  0  0  0  0  0  0  0  0  0
    0.4073    1.3767    0.8302 O   0  0  0  0  0  0  0  0  0  0  0  0
    1.4578    0.9043    0.1184 C   0  0  0  0  0  0  0  0  0  0  0  0
    2.0626   -0.3855    0.6859 C   0  0  0  0  0  0  0  0  0  0  0  0
    1.2936   -0.3395   -0.6115 C   0  0  0  0  0  0  0  0  0  0  0  0
   -0.0774   -0.9092   -0.6833 C   0  0  0  0  0  0  0  0  0  0  0  0
   -3.0004   -0.1051    0.8307 H   0  0  0  0  0  0  0  0  0  0  0  0
   -1.7170    0.3099   -1.3703 H   0  0  0  0  0  0  0  0  0  0  0  0
   -0.9495    2.1986   -0.4069 H   0  0  0  0  0  0  0  0  0  0  0  0
   -1.5682    1.4919    1.0965 H   0  0  0  0  0  0  0  0  0  0  0  0
    2.1484    1.6607   -0.2989 H   0  0  0  0  0  0  0  0  0  0  0  0
    1.5773   -0.8591    1.5504 H   0  0  0  0  0  0  0  0  0  0  0  0
    3.1505   -0.3884    0.6941 H   0  0  0  0  0  0  0  0  0  0  0  0
    1.9674   -0.5103   -1.4990 H   0  0  0  0  0  0  0  0  0  0  0  0
   -0.2390   -1.3598   -1.7027 H   0  0  0  0  0  0  0  0  0  0  0  0
   -0.0919   -1.8071    0.0040 H   0  0  0  0  0  0  0  0  0  0  0  0
  1  2  2  0
  2  3  1  0
  3  4  1  0
  4  5  1  0
  5  6  1  0
  6  7  1  0
  7  8  1  0
  8  9  1  0
  9  3  1  0
  8  6  1  0
  2 10  1  0
  3 11  1  0
  4 12  1  0
  4 13  1  0
  6 14  1  0
  7 15  1  0
  7 16  1  0
  8 17  1  0
  9 18  1  0
  9 19  1  0
M  END
