
     RDKit          3D

 19 21  0  0  0  0  0  0  0  0999 V2000
   -1.8549    2.1268    0.6881 O   0  0  0  0  0  0  0  0  0  0  0  0
   -1.1357    1.6889   -0.2259 C   0  0  0  0  0  0  0  0  0  0  0  0
   -0.6993    0.4175   -0.2799 C   0  0  0  0  0  0  0  0  0  0  0  0
   -1.4003   -0.7917   -0.8455 C   0  0  0  0  0  0  0  0  0  0  0  0
   -0.1081   -1.3366   -0.2898 C   0  0  0  0  0  0  0  0  0  0  0  0
    0.5382   -0.1216   -0.9090 C   0  0  0  0  0  0  0  0  0  0  0  0
    1.6773    0.2829   -0.0080 C   0  0  0  0  0  0  0  0  0  0  0  0
    1.0357   -0.0794    1.3445 C   0  0  0  0  0  0  0  0  0  0  0  0
   -0.3333   -0.4595    0.8947 C   0  0  0  0  0  0  0  0  0  0  0  0
   -0.9033    2.4659   -0.9782 H   0  0  0  0  0  0  0  0  0  0  0  0
   -2.2878   -1.1410   -0.3206 H   0  0  0  0  0  0  0  0  0  0  0  0
   -1.3894   -0.8153   -1.9351 H   0  0  0  0  0  0  0  0  0  0  0  0
    0.2189   -2.2796   -0.3279 H   0  0  0  0  0  0  0  0  0  0  0  0
    0.6711   -0.0880   -1.9669 H   0  0  0  0  0  0  0  0  0  0  0  0
    1.8392    1.3782    0.0016 H   0  0  0  0  0  0  0  0  0  0  0  0
    2.5722   -0.3082   -0.2017 H   0  0  0  0  0  0  0  0  0  0  0  0
    1.0782    0.7534    2.0495 H   0  0  0  0  0  0  0  0  0  0  0  0
    1.5733   -0.9904    1.7010 H   0  0  0  0  0  0  0  0  0  0  0  0
   -1.0920   -0.7023    1.6092 H   0  0  0  0  0  0  0  0  0  0  0  0
  1  2  2  0
  2  3  1  0
  3  4  1  0
  4  5  1  0
  5  6  1  0
  6  7  1  0
  7  8  1  0
  8  9  1  0
  6  3  1  0
  9  3  1  0
  9  5  1  0
  2 10  1  0
  4 11  1  0
  4 12  1  0
  5 13  1  0
  6 14  1  0
  7 15  1  0
  7 16  1  0
  8 17  1  0
  8 18  1  0
  9 19  1  0
M  END
