
     RDKit          3D

 19 19  0  0  0  0  0  0  0  0999 V2000
    2.1500   -0.5769   -1.7458 O   0  0  0  0  0  0  0  0  0  0  0  0
    2.3991   -0.1321   -0.6174 C   0  0  0  0  0  0  0  0  0  0  0  0
    1.5999   -0.4992    0.5790 C   0  0  0  0  0  0  0  0  0  0  0  0
    0.3432    0.3338    0.6221 C   0  0  0  0  0  0  0  0  0  0  0  0
   -0.4194    0.0006    1.7413 O   0  0  0  0  0  0  0  0  0  0  0  0
   -0.5158    0.1935   -0.5867 C   0  0  0  0  0  0  0  0  0  0  0  0
   -1.7552    1.0852   -0.4205 C   0  0  0  0  0  0  0  0  0  0  0  0
   -2.2198    0.0781    0.4539 O   0  0  0  0  0  0  0  0  0  0  0  0
   -1.6266   -0.8267   -0.4606 C   0  0  0  0  0  0  0  0  0  0  0  0
    3.2275    0.5512   -0.4807 H   0  0  0  0  0  0  0  0  0  0  0  0
    2.1875   -0.2610    1.4832 H   0  0  0  0  0  0  0  0  0  0  0  0
    1.3790   -1.5875    0.6001 H   0  0  0  0  0  0  0  0  0  0  0  0
    0.6669    1.4023    0.7929 H   0  0  0  0  0  0  0  0  0  0  0  0
    0.0937   -0.6437    2.2904 H   0  0  0  0  0  0  0  0  0  0  0  0
   -0.0628    0.3139   -1.5647 H   0  0  0  0  0  0  0  0  0  0  0  0
   -1.4852    2.0275    0.0745 H   0  0  0  0  0  0  0  0  0  0  0  0
   -2.3370    1.1684   -1.3449 H   0  0  0  0  0  0  0  0  0  0  0  0
   -2.2682   -0.8334   -1.3757 H   0  0  0  0  0  0  0  0  0  0  0  0
   -1.3568   -1.7939   -0.0405 H   0  0  0  0  0  0  0  0  0  0  0  0
  1  2  2  0
  2  3  1  0
  3  4  1  0
  4  5  1  0
  4  6  1  0
  6  7  1  0
  7  8  1  0
  8  9  1  0
  9  6  1  0
  2 10  1  0
  3 11  1  0
  3 12  1  0
  4 13  1  0
  5 14  1  0
  6 15  1  0
  7 16  1  0
  7 17  1  0
  9 18  1  0
  9 19  1  0
M  END
