
     RDKit          3D

 17 17  0  0  0  0  0  0  0  0999 V2000
   -3.3643   -1.2928   -0.3858 O   0  0  0  0  0  0  0  0  0  0  0  0
   -2.3305   -0.8367    0.0385 C   0  0  0  0  0  0  0  0  0  0  0  0
   -2.0509    0.6189   -0.1070 C   0  0  0  0  0  0  0  0  0  0  0  0
   -0.8189    0.9653    0.4371 O   0  0  0  0  0  0  0  0  0  0  0  0
    0.1677    0.2650   -0.2095 C   0  0  0  0  0  0  0  0  0  0  0  0
    1.4033    1.1547   -0.5756 C   0  0  0  0  0  0  0  0  0  0  0  0
    1.4754   -0.0219    0.4158 C   0  0  0  0  0  0  0  0  0  0  0  0
    2.2236   -1.2001   -0.0882 C   0  0  0  0  0  0  0  0  0  0  0  0
    2.0563   -1.6937   -1.1841 O   0  0  0  0  0  0  0  0  0  0  0  0
   -1.5702   -1.4379    0.5334 H   0  0  0  0  0  0  0  0  0  0  0  0
   -2.8585    1.2229    0.3643 H   0  0  0  0  0  0  0  0  0  0  0  0
   -2.0950    0.8343   -1.2094 H   0  0  0  0  0  0  0  0  0  0  0  0
   -0.1545   -0.4217   -1.0117 H   0  0  0  0  0  0  0  0  0  0  0  0
    1.4157    2.1744   -0.2010 H   0  0  0  0  0  0  0  0  0  0  0  0
    1.8187    0.9799   -1.5851 H   0  0  0  0  0  0  0  0  0  0  0  0
    1.7213    0.3323    1.4339 H   0  0  0  0  0  0  0  0  0  0  0  0
    2.9608   -1.6429    0.5616 H   0  0  0  0  0  0  0  0  0  0  0  0
  1  2  2  0
  2  3  1  0
  3  4  1  0
  4  5  1  0
  5  6  1  0
  6  7  1  0
  7  8  1  0
  8  9  2  0
  7  5  1  0
  2 10  1  0
  3 11  1  0
  3 12  1  0
  5 13  1  0
  6 14  1  0
  6 15  1  0
  7 16  1  0
  8 17  1  0
M  END
