
     RDKit          3D

 19 20  0  0  0  0  0  0  0  0999 V2000
   -1.7216    2.6932    0.3396 O   0  0  0  0  0  0  0  0  0  0  0  0
   -0.9423    1.9902   -0.2296 C   0  0  0  0  0  0  0  0  0  0  0  0
   -0.7102    0.5320    0.0139 C   0  0  0  0  0  0  0  0  0  0  0  0
    0.6522    0.2012    0.4892 C   0  0  0  0  0  0  0  0  0  0  0  0
    1.8532    0.3696   -0.3166 C   0  0  0  0  0  0  0  0  0  0  0  0
    1.4445   -0.9766    0.2501 C   0  0  0  0  0  0  0  0  0  0  0  0
    1.1712   -1.9707   -0.6489 O   0  0  0  0  0  0  0  0  0  0  0  0
   -1.8297   -0.3842    0.3782 C   0  0  0  0  0  0  0  0  0  0  0  0
   -1.3575   -0.3253   -1.0370 C   0  0  0  0  0  0  0  0  0  0  0  0
   -0.3244    2.4561   -1.0331 H   0  0  0  0  0  0  0  0  0  0  0  0
    0.7615    0.6091    1.5714 H   0  0  0  0  0  0  0  0  0  0  0  0
    2.7364    0.8822    0.1390 H   0  0  0  0  0  0  0  0  0  0  0  0
    1.8836    0.4235   -1.4133 H   0  0  0  0  0  0  0  0  0  0  0  0
    2.0996   -1.3399    1.1027 H   0  0  0  0  0  0  0  0  0  0  0  0
    1.5812   -2.8463   -0.4277 H   0  0  0  0  0  0  0  0  0  0  0  0
   -1.6000   -1.3323    0.9487 H   0  0  0  0  0  0  0  0  0  0  0  0
   -2.8716   -0.0322    0.6109 H   0  0  0  0  0  0  0  0  0  0  0  0
   -0.8103   -1.1438   -1.5023 H   0  0  0  0  0  0  0  0  0  0  0  0
   -2.0156    0.1942   -1.7417 H   0  0  0  0  0  0  0  0  0  0  0  0
  1  2  2  0
  2  3  1  0
  3  4  1  0
  4  5  1  0
  5  6  1  0
  6  7  1  0
  3  8  1  0
  8  9  1  0
  9  3  1  0
  6  4  1  0
  2 10  1  0
  4 11  1  0
  5 12  1  0
  5 13  1  0
  6 14  1  0
  7 15  1  0
  8 16  1  0
  8 17  1  0
  9 18  1  0
  9 19  1  0
M  END
