
     RDKit          3D

 17 19  0  0  0  0  0  0  0  0999 V2000
    3.3799    1.4100    0.3836 O   0  0  0  0  0  0  0  0  0  0  0  0
    2.6093    0.7417   -0.2623 C   0  0  0  0  0  0  0  0  0  0  0  0
    1.2043    0.6133    0.1720 C   0  0  0  0  0  0  0  0  0  0  0  0
    0.5888   -0.7304    0.0096 C   0  0  0  0  0  0  0  0  0  0  0  0
   -0.7978   -0.8840    0.5761 C   0  0  0  0  0  0  0  0  0  0  0  0
   -1.8980   -1.1391   -0.3508 C   0  0  0  0  0  0  0  0  0  0  0  0
   -1.2609    0.2312   -0.2756 C   0  0  0  0  0  0  0  0  0  0  0  0
   -1.9769    1.2931    0.2100 O   0  0  0  0  0  0  0  0  0  0  0  0
    0.1164    0.4058   -0.8185 C   0  0  0  0  0  0  0  0  0  0  0  0
    2.9770    0.2558   -1.1440 H   0  0  0  0  0  0  0  0  0  0  0  0
    0.8976    1.1487    1.0997 H   0  0  0  0  0  0  0  0  0  0  0  0
    1.0856   -1.5545   -0.4983 H   0  0  0  0  0  0  0  0  0  0  0  0
   -0.8871   -0.8518    1.6631 H   0  0  0  0  0  0  0  0  0  0  0  0
   -2.9157   -1.2136    0.0848 H   0  0  0  0  0  0  0  0  0  0  0  0
   -1.6935   -1.7020   -1.2809 H   0  0  0  0  0  0  0  0  0  0  0  0
   -1.7412    1.4971    1.1460 H   0  0  0  0  0  0  0  0  0  0  0  0
    0.3122    0.4787   -1.8971 H   0  0  0  0  0  0  0  0  0  0  0  0
  1  2  2  0
  2  3  1  0
  3  4  1  0
  4  5  1  0
  5  6  1  0
  6  7  1  0
  7  8  1  0
  7  9  1  0
  9  3  1  0
  9  4  1  0
  7  5  1  0
  2 10  1  0
  3 11  1  0
  4 12  1  0
  5 13  1  0
  6 14  1  0
  6 15  1  0
  8 16  1  0
  9 17  1  0
M  END
