
     RDKit          3D

 19 20  0  0  0  0  0  0  0  0999 V2000
    2.7758    1.2727   -0.0799 O   0  0  0  0  0  0  0  0  0  0  0  0
    2.3731    0.1565    0.1616 C   0  0  0  0  0  0  0  0  0  0  0  0
    0.9495   -0.0264    0.4874 C   0  0  0  0  0  0  0  0  0  0  0  0
    0.0549    1.1550    0.0945 C   0  0  0  0  0  0  0  0  0  0  0  0
   -1.2260    0.9429    0.8404 C   0  0  0  0  0  0  0  0  0  0  0  0
   -1.6819   -0.3033    0.9284 C   0  0  0  0  0  0  0  0  0  0  0  0
   -1.1438   -1.2932   -0.0459 C   0  0  0  0  0  0  0  0  0  0  0  0
    0.1798   -0.8136   -0.5751 C   0  0  0  0  0  0  0  0  0  0  0  0
   -0.0381    0.5316   -1.2786 C   0  0  0  0  0  0  0  0  0  0  0  0
    3.0060   -0.7242    0.1518 H   0  0  0  0  0  0  0  0  0  0  0  0
    0.7314   -0.3958    1.5219 H   0  0  0  0  0  0  0  0  0  0  0  0
    0.5051    2.1326    0.1706 H   0  0  0  0  0  0  0  0  0  0  0  0
   -1.7863    1.7354    1.3009 H   0  0  0  0  0  0  0  0  0  0  0  0
   -2.4134   -0.6277    1.6621 H   0  0  0  0  0  0  0  0  0  0  0  0
   -1.8399   -1.3346   -0.9308 H   0  0  0  0  0  0  0  0  0  0  0  0
   -1.0328   -2.2946    0.3735 H   0  0  0  0  0  0  0  0  0  0  0  0
    0.7982   -1.5236   -1.1099 H   0  0  0  0  0  0  0  0  0  0  0  0
   -1.0262    0.5668   -1.7590 H   0  0  0  0  0  0  0  0  0  0  0  0
    0.8148    0.8436   -1.9139 H   0  0  0  0  0  0  0  0  0  0  0  0
  1  2  2  0
  2  3  1  0
  3  4  1  0
  4  5  1  0
  5  6  2  0
  6  7  1  0
  7  8  1  0
  8  9  1  0
  8  3  1  0
  9  4  1  0
  2 10  1  0
  3 11  1  0
  4 12  1  0
  5 13  1  0
  6 14  1  0
  7 15  1  0
  7 16  1  0
  8 17  1  0
  9 18  1  0
  9 19  1  0
M  END
