
     RDKit          3D

 17 18  0  0  0  0  0  0  0  0999 V2000
   -1.8316    1.3358   -1.8237 O   0  0  0  0  0  0  0  0  0  0  0  0
   -1.5821    1.5502   -0.6664 C   0  0  0  0  0  0  0  0  0  0  0  0
   -0.7421    0.6472    0.1131 C   0  0  0  0  0  0  0  0  0  0  0  0
   -1.3079   -0.7995    0.1143 C   0  0  0  0  0  0  0  0  0  0  0  0
   -0.1052   -1.4815    0.7272 C   0  0  0  0  0  0  0  0  0  0  0  0
    0.9909   -0.8102    0.4588 C   0  0  0  0  0  0  0  0  0  0  0  0
    2.3324   -0.1924    0.2616 C   0  0  0  0  0  0  0  0  0  0  0  0
    1.7021    1.0540   -0.0343 O   0  0  0  0  0  0  0  0  0  0  0  0
    0.5970    0.3603   -0.4544 C   0  0  0  0  0  0  0  0  0  0  0  0
   -1.9848    2.4413   -0.1613 H   0  0  0  0  0  0  0  0  0  0  0  0
   -0.6658    0.9173    1.1695 H   0  0  0  0  0  0  0  0  0  0  0  0
   -2.1843   -0.8295    0.7619 H   0  0  0  0  0  0  0  0  0  0  0  0
   -1.5290   -1.1443   -0.8879 H   0  0  0  0  0  0  0  0  0  0  0  0
   -0.1941   -2.3927    1.2969 H   0  0  0  0  0  0  0  0  0  0  0  0
    2.9395   -0.5908   -0.5496 H   0  0  0  0  0  0  0  0  0  0  0  0
    2.9436   -0.0801    1.1772 H   0  0  0  0  0  0  0  0  0  0  0  0
    0.6214    0.0150   -1.5029 H   0  0  0  0  0  0  0  0  0  0  0  0
  1  2  2  0
  2  3  1  0
  3  4  1  0
  4  5  1  0
  5  6  2  0
  6  7  1  0
  7  8  1  0
  8  9  1  0
  9  3  1  0
  9  6  1  0
  2 10  1  0
  3 11  1  0
  4 12  1  0
  4 13  1  0
  5 14  1  0
  7 15  1  0
  7 16  1  0
  9 17  1  0
M  END
