
     RDKit          3D

 19 19  0  0  0  0  0  0  0  0999 V2000
   -3.2482    0.3842   -0.8079 O   0  0  0  0  0  0  0  0  0  0  0  0
   -2.2603    0.5177   -0.1237 C   0  0  0  0  0  0  0  0  0  0  0  0
   -0.9645   -0.1752   -0.4659 C   0  0  0  0  0  0  0  0  0  0  0  0
   -0.6636   -1.1243    0.6358 C   0  0  0  0  0  0  0  0  0  0  0  0
    0.7449   -1.5148    0.7579 C   0  0  0  0  0  0  0  0  0  0  0  0
    1.6760   -0.7383    0.2570 C   0  0  0  0  0  0  0  0  0  0  0  0
    1.4476    0.5376   -0.4446 C   0  0  0  0  0  0  0  0  0  0  0  0
    2.1021    1.5370    0.2908 O   0  0  0  0  0  0  0  0  0  0  0  0
    0.0431    0.9000   -0.6761 C   0  0  0  0  0  0  0  0  0  0  0  0
   -2.2498    1.1317    0.7585 H   0  0  0  0  0  0  0  0  0  0  0  0
   -1.1412   -0.7471   -1.4235 H   0  0  0  0  0  0  0  0  0  0  0  0
   -1.2485   -2.0691    0.4307 H   0  0  0  0  0  0  0  0  0  0  0  0
   -1.1043   -0.7423    1.5958 H   0  0  0  0  0  0  0  0  0  0  0  0
    0.9720   -2.4527    1.2695 H   0  0  0  0  0  0  0  0  0  0  0  0
    2.7033   -1.0702    0.3724 H   0  0  0  0  0  0  0  0  0  0  0  0
    2.0210    0.4734   -1.4155 H   0  0  0  0  0  0  0  0  0  0  0  0
    1.4616    2.0878    0.8026 H   0  0  0  0  0  0  0  0  0  0  0  0
   -0.0709    1.2522   -1.7452 H   0  0  0  0  0  0  0  0  0  0  0  0
   -0.2204    1.8123   -0.0685 H   0  0  0  0  0  0  0  0  0  0  0  0
  1  2  2  0
  2  3  1  0
  3  4  1  0
  4  5  1  0
  5  6  2  0
  6  7  1  0
  7  8  1  0
  7  9  1  0
  9  3  1  0
  2 10  1  0
  3 11  1  0
  4 12  1  0
  4 13  1  0
  5 14  1  0
  6 15  1  0
  7 16  1  0
  8 17  1  0
  9 18  1  0
  9 19  1  0
M  END
