
     RDKit          3D

 16 17  0  0  0  0  0  0  0  0999 V2000
   -2.7091    0.2004   -0.4076 O   0  0  0  0  0  0  0  0  0  0  0  0
   -2.1498   -0.1640    0.6040 C   0  0  0  0  0  0  0  0  0  0  0  0
   -0.6664   -0.2142    0.6164 C   0  0  0  0  0  0  0  0  0  0  0  0
   -0.2013   -0.8901   -0.6947 C   0  0  0  0  0  0  0  0  0  0  0  0
    1.0858   -0.1902   -0.3099 C   0  0  0  0  0  0  0  0  0  0  0  0
    1.5475   -0.8281    0.8743 O   0  0  0  0  0  0  0  0  0  0  0  0
    1.3798    1.1991   -0.3031 C   0  0  0  0  0  0  0  0  0  0  0  0
    0.0042    0.9493   -0.0759 C   0  0  0  0  0  0  0  0  0  0  0  0
   -2.7313   -0.4397    1.4599 H   0  0  0  0  0  0  0  0  0  0  0  0
   -0.2269   -0.5951    1.5287 H   0  0  0  0  0  0  0  0  0  0  0  0
   -0.1410   -1.9701   -0.6523 H   0  0  0  0  0  0  0  0  0  0  0  0
   -0.7403   -0.4347   -1.5351 H   0  0  0  0  0  0  0  0  0  0  0  0
    2.4778   -1.1270    0.6391 H   0  0  0  0  0  0  0  0  0  0  0  0
    1.9374    1.7212    0.5343 H   0  0  0  0  0  0  0  0  0  0  0  0
    1.7670    1.6292   -1.2777 H   0  0  0  0  0  0  0  0  0  0  0  0
   -0.6333    1.1541   -1.0001 H   0  0  0  0  0  0  0  0  0  0  0  0
  1  2  2  0
  2  3  1  0
  3  4  1  0
  4  5  1  0
  5  6  1  0
  5  7  1  0
  7  8  1  0
  8  3  1  0
  8  5  1  0
  2  9  1  0
  3 10  1  0
  4 11  1  0
  4 12  1  0
  6 13  1  0
  7 14  1  0
  7 15  1  0
  8 16  1  0
M  END
