
     RDKit          3D

 17 18  0  0  0  0  0  0  0  0999 V2000
    2.8530    0.3595   -0.9028 O   0  0  0  0  0  0  0  0  0  0  0  0
    2.1044    0.8060   -0.0748 C   0  0  0  0  0  0  0  0  0  0  0  0
    1.2609   -0.1073    0.7329 C   0  0  0  0  0  0  0  0  0  0  0  0
    1.4413   -1.4293    0.4262 O   0  0  0  0  0  0  0  0  0  0  0  0
   -0.1715    0.3241    0.5982 C   0  0  0  0  0  0  0  0  0  0  0  0
   -0.7461    0.3184   -0.7811 C   0  0  0  0  0  0  0  0  0  0  0  0
   -2.0882    0.1961   -0.1324 C   0  0  0  0  0  0  0  0  0  0  0  0
   -1.1792   -0.7882    0.5134 C   0  0  0  0  0  0  0  0  0  0  0  0
   -0.6530   -1.0581   -0.7363 O   0  0  0  0  0  0  0  0  0  0  0  0
    2.0654    1.8770    0.0609 H   0  0  0  0  0  0  0  0  0  0  0  0
    1.5178    0.0328    1.8241 H   0  0  0  0  0  0  0  0  0  0  0  0
    1.1880   -2.0333    1.1481 H   0  0  0  0  0  0  0  0  0  0  0  0
   -0.5052    1.1514    1.2182 H   0  0  0  0  0  0  0  0  0  0  0  0
   -0.4952    0.9244   -1.5476 H   0  0  0  0  0  0  0  0  0  0  0  0
   -2.2835    1.0522    0.5426 H   0  0  0  0  0  0  0  0  0  0  0  0
   -2.9119   -0.1742   -0.7346 H   0  0  0  0  0  0  0  0  0  0  0  0
   -1.3967   -1.4515    1.2402 H   0  0  0  0  0  0  0  0  0  0  0  0
  1  2  2  0
  2  3  1  0
  3  4  1  0
  3  5  1  0
  5  6  1  0
  6  7  1  0
  7  8  1  0
  8  9  1  0
  8  5  1  0
  9  6  1  0
  2 10  1  0
  3 11  1  0
  4 12  1  0
  5 13  1  0
  6 14  1  0
  7 15  1  0
  7 16  1  0
  8 17  1  0
M  END
