
     RDKit          3D

 15 15  0  0  0  0  0  0  0  0999 V2000
   -2.4632    0.4631    1.4081 O   0  0  0  0  0  0  0  0  0  0  0  0
   -1.3230    0.1319    1.2261 C   0  0  0  0  0  0  0  0  0  0  0  0
   -0.5903    0.2500   -0.0606 C   0  0  0  0  0  0  0  0  0  0  0  0
   -1.3622    0.7931   -1.0654 O   0  0  0  0  0  0  0  0  0  0  0  0
    0.5564    1.1682    0.1717 C   0  0  0  0  0  0  0  0  0  0  0  0
    1.6982    0.5968   -0.1032 C   0  0  0  0  0  0  0  0  0  0  0  0
    1.4932   -0.7671   -0.5535 C   0  0  0  0  0  0  0  0  0  0  0  0
    2.3384   -1.5852   -0.9742 O   0  0  0  0  0  0  0  0  0  0  0  0
    0.0463   -1.0590   -0.4318 C   0  0  0  0  0  0  0  0  0  0  0  0
   -0.7749   -0.2887    2.0633 H   0  0  0  0  0  0  0  0  0  0  0  0
   -2.1950    0.2983   -1.2408 H   0  0  0  0  0  0  0  0  0  0  0  0
    0.3833    2.1928    0.5329 H   0  0  0  0  0  0  0  0  0  0  0  0
    2.6566    1.1056    0.0028 H   0  0  0  0  0  0  0  0  0  0  0  0
   -0.0837   -1.7964    0.3761 H   0  0  0  0  0  0  0  0  0  0  0  0
   -0.3802   -1.5035   -1.3514 H   0  0  0  0  0  0  0  0  0  0  0  0
  1  2  2  0
  2  3  1  0
  3  4  1  0
  3  5  1  0
  5  6  2  0
  6  7  1  0
  7  8  2  0
  7  9  1  0
  9  3  1  0
  2 10  1  0
  4 11  1  0
  5 12  1  0
  6 13  1  0
  9 14  1  0
  9 15  1  0
M  END
