
     RDKit          3D

 19 20  0  0  0  0  0  0  0  0999 V2000
    2.4032   -1.8895   -0.2016 O   0  0  0  0  0  0  0  0  0  0  0  0
    1.9228   -1.1010   -0.9747 C   0  0  0  0  0  0  0  0  0  0  0  0
    1.5853    0.2485   -0.5744 C   0  0  0  0  0  0  0  0  0  0  0  0
    1.8283    0.6245    0.7354 O   0  0  0  0  0  0  0  0  0  0  0  0
    0.8204    1.5861    0.5538 C   0  0  0  0  0  0  0  0  0  0  0  0
    0.1382    0.5709   -0.3444 C   0  0  0  0  0  0  0  0  0  0  0  0
   -0.6479   -0.3927    0.4841 C   0  0  0  0  0  0  0  0  0  0  0  0
   -2.1074    0.0158    0.6645 C   0  0  0  0  0  0  0  0  0  0  0  0
   -1.7383   -1.2187   -0.0764 C   0  0  0  0  0  0  0  0  0  0  0  0
    1.7459   -1.4192   -1.9809 H   0  0  0  0  0  0  0  0  0  0  0  0
    2.0200    1.0397   -1.2527 H   0  0  0  0  0  0  0  0  0  0  0  0
    1.1889    2.4627   -0.0352 H   0  0  0  0  0  0  0  0  0  0  0  0
    0.2641    1.8440    1.4693 H   0  0  0  0  0  0  0  0  0  0  0  0
   -0.4194    0.9855   -1.1861 H   0  0  0  0  0  0  0  0  0  0  0  0
   -0.1509   -0.7314    1.4169 H   0  0  0  0  0  0  0  0  0  0  0  0
   -2.5322   -0.0570    1.7065 H   0  0  0  0  0  0  0  0  0  0  0  0
   -2.5036    0.8564    0.0689 H   0  0  0  0  0  0  0  0  0  0  0  0
   -1.8879   -2.2103    0.3984 H   0  0  0  0  0  0  0  0  0  0  0  0
   -1.9294   -1.2142   -1.1840 H   0  0  0  0  0  0  0  0  0  0  0  0
  1  2  2  0
  2  3  1  0
  3  4  1  0
  4  5  1  0
  5  6  1  0
  6  7  1  0
  7  8  1  0
  8  9  1  0
  6  3  1  0
  9  7  1  0
  2 10  1  0
  3 11  1  0
  5 12  1  0
  5 13  1  0
  6 14  1  0
  7 15  1  0
  8 16  1  0
  8 17  1  0
  9 18  1  0
  9 19  1  0
M  END
