
     RDKit          3D

 13 13  0  0  0  0  0  0  0  0999 V2000
   -2.6702   -0.4724   -0.6940 O   0  0  0  0  0  0  0  0  0  0  0  0
   -1.8709   -0.6943    0.1867 C   0  0  0  0  0  0  0  0  0  0  0  0
   -0.4456   -0.6022   -0.0930 C   0  0  0  0  0  0  0  0  0  0  0  0
   -0.1058    0.8722   -0.3470 C   0  0  0  0  0  0  0  0  0  0  0  0
    1.3873    0.8225   -0.2081 C   0  0  0  0  0  0  0  0  0  0  0  0
    2.2293    1.6152   -0.7323 O   0  0  0  0  0  0  0  0  0  0  0  0
    1.6349   -0.3300    0.6548 C   0  0  0  0  0  0  0  0  0  0  0  0
    2.7930   -0.7273    1.0156 O   0  0  0  0  0  0  0  0  0  0  0  0
    0.3984   -0.8750    0.9830 O   0  0  0  0  0  0  0  0  0  0  0  0
   -2.2397   -0.9559    1.1605 H   0  0  0  0  0  0  0  0  0  0  0  0
   -0.1100   -1.2262   -0.9511 H   0  0  0  0  0  0  0  0  0  0  0  0
   -0.5753    1.4714    0.4419 H   0  0  0  0  0  0  0  0  0  0  0  0
   -0.4254    1.1020   -1.3575 H   0  0  0  0  0  0  0  0  0  0  0  0
  1  2  2  0
  2  3  1  0
  3  4  1  0
  4  5  1  0
  5  6  2  0
  5  7  1  0
  7  8  2  0
  7  9  1  0
  9  3  1  0
  2 10  1  0
  3 11  1  0
  4 12  1  0
  4 13  1  0
M  END
