
     RDKit          3D

 19 19  0  0  0  0  0  0  0  0999 V2000
    3.5851   -0.2864    0.0365 O   0  0  0  0  0  0  0  0  0  0  0  0
    2.5662    0.3184   -0.2217 C   0  0  0  0  0  0  0  0  0  0  0  0
    1.2934   -0.1222    0.3934 C   0  0  0  0  0  0  0  0  0  0  0  0
    0.3126    1.0051    0.6198 C   0  0  0  0  0  0  0  0  0  0  0  0
   -0.6827    0.2491   -0.2306 C   0  0  0  0  0  0  0  0  0  0  0  0
   -1.1712    1.0687   -1.2297 O   0  0  0  0  0  0  0  0  0  0  0  0
   -1.8075   -0.4096    0.5336 C   0  0  0  0  0  0  0  0  0  0  0  0
   -2.5380   -1.1654   -0.3886 O   0  0  0  0  0  0  0  0  0  0  0  0
    0.3644   -0.7460   -0.6316 C   0  0  0  0  0  0  0  0  0  0  0  0
    2.5784    1.1649   -0.8881 H   0  0  0  0  0  0  0  0  0  0  0  0
    1.3987   -0.7021    1.3371 H   0  0  0  0  0  0  0  0  0  0  0  0
    0.6856    1.9522    0.1310 H   0  0  0  0  0  0  0  0  0  0  0  0
   -0.0133    1.1709    1.6470 H   0  0  0  0  0  0  0  0  0  0  0  0
   -1.6378    1.8252   -0.7741 H   0  0  0  0  0  0  0  0  0  0  0  0
   -2.4385    0.3048    1.0814 H   0  0  0  0  0  0  0  0  0  0  0  0
   -1.3489   -1.1667    1.2326 H   0  0  0  0  0  0  0  0  0  0  0  0
   -2.0314   -1.9713   -0.6386 H   0  0  0  0  0  0  0  0  0  0  0  0
    0.1679   -1.8005   -0.3308 H   0  0  0  0  0  0  0  0  0  0  0  0
    0.7170   -0.6892   -1.6785 H   0  0  0  0  0  0  0  0  0  0  0  0
  1  2  2  0
  2  3  1  0
  3  4  1  0
  4  5  1  0
  5  6  1  0
  5  7  1  0
  7  8  1  0
  5  9  1  0
  9  3  1  0
  2 10  1  0
  3 11  1  0
  4 12  1  0
  4 13  1  0
  6 14  1  0
  7 15  1  0
  7 16  1  0
  8 17  1  0
  9 18  1  0
  9 19  1  0
M  END
