
     RDKit          3D

 17 17  0  0  0  0  0  0  0  0999 V2000
    3.3306   -0.3169   -0.5626 O   0  0  0  0  0  0  0  0  0  0  0  0
    2.6827    0.7154   -0.6351 C   0  0  0  0  0  0  0  0  0  0  0  0
    1.3052    0.7768   -0.0726 C   0  0  0  0  0  0  0  0  0  0  0  0
    0.7300    1.8727   -0.1648 O   0  0  0  0  0  0  0  0  0  0  0  0
    0.8256   -0.4649    0.5064 C   0  0  0  0  0  0  0  0  0  0  0  0
   -0.5608   -0.6343    0.9363 C   0  0  0  0  0  0  0  0  0  0  0  0
   -1.6763   -0.6061   -0.0146 C   0  0  0  0  0  0  0  0  0  0  0  0
   -2.1084    0.5014   -0.9119 C   0  0  0  0  0  0  0  0  0  0  0  0
   -1.4229   -0.5851   -1.3921 O   0  0  0  0  0  0  0  0  0  0  0  0
    3.1219    1.5955   -1.1177 H   0  0  0  0  0  0  0  0  0  0  0  0
    1.4605   -0.6859    1.4428 H   0  0  0  0  0  0  0  0  0  0  0  0
    1.0779   -1.2928   -0.2196 H   0  0  0  0  0  0  0  0  0  0  0  0
   -0.8101    0.0460    1.8238 H   0  0  0  0  0  0  0  0  0  0  0  0
   -0.5883   -1.6578    1.4757 H   0  0  0  0  0  0  0  0  0  0  0  0
   -2.5348   -1.3105    0.2462 H   0  0  0  0  0  0  0  0  0  0  0  0
   -3.2186    0.5776   -1.1555 H   0  0  0  0  0  0  0  0  0  0  0  0
   -1.6141    1.4690   -0.9324 H   0  0  0  0  0  0  0  0  0  0  0  0
  1  2  2  0
  2  3  1  0
  3  4  2  0
  3  5  1  0
  5  6  1  0
  6  7  1  0
  7  8  1  0
  8  9  1  0
  9  7  1  0
  2 10  1  0
  5 11  1  0
  5 12  1  0
  6 13  1  0
  6 14  1  0
  7 15  1  0
  8 16  1  0
  8 17  1  0
M  END
