
     RDKit          3D

 17 18  0  0  0  0  0  0  0  0999 V2000
    2.9017    0.9323   -0.2446 O   0  0  0  0  0  0  0  0  0  0  0  0
    2.1871    0.0923    0.2677 C   0  0  0  0  0  0  0  0  0  0  0  0
    0.9616   -0.4357   -0.3801 C   0  0  0  0  0  0  0  0  0  0  0  0
    0.3217   -1.3875    0.4125 O   0  0  0  0  0  0  0  0  0  0  0  0
   -1.0219   -1.1263    0.4321 C   0  0  0  0  0  0  0  0  0  0  0  0
   -1.2771   -0.3439   -0.8734 C   0  0  0  0  0  0  0  0  0  0  0  0
   -0.1016    0.6072   -0.5744 C   0  0  0  0  0  0  0  0  0  0  0  0
   -0.5499    1.0265    0.8210 C   0  0  0  0  0  0  0  0  0  0  0  0
   -1.2302   -0.0716    1.3505 O   0  0  0  0  0  0  0  0  0  0  0  0
    2.4721   -0.2804    1.2470 H   0  0  0  0  0  0  0  0  0  0  0  0
    1.1934   -0.8689   -1.3668 H   0  0  0  0  0  0  0  0  0  0  0  0
   -1.6874   -1.9511    0.5662 H   0  0  0  0  0  0  0  0  0  0  0  0
   -2.2306    0.1808   -0.8524 H   0  0  0  0  0  0  0  0  0  0  0  0
   -1.0846   -0.9757   -1.7352 H   0  0  0  0  0  0  0  0  0  0  0  0
    0.0545    1.3721   -1.2794 H   0  0  0  0  0  0  0  0  0  0  0  0
    0.3199    1.3102    1.4619 H   0  0  0  0  0  0  0  0  0  0  0  0
   -1.2286    1.9193    0.7474 H   0  0  0  0  0  0  0  0  0  0  0  0
  1  2  2  0
  2  3  1  0
  3  4  1  0
  4  5  1  0
  5  6  1  0
  6  7  1  0
  7  8  1  0
  8  9  1  0
  7  3  1  0
  9  5  1  0
  2 10  1  0
  3 11  1  0
  5 12  1  0
  6 13  1  0
  6 14  1  0
  7 15  1  0
  8 16  1  0
  8 17  1  0
M  END
