
     RDKit          3D

 17 17  0  0  0  0  0  0  0  0999 V2000
    2.7674   -0.5606    1.3590 O   0  0  0  0  0  0  0  0  0  0  0  0
    2.3366   -0.2960    0.2559 C   0  0  0  0  0  0  0  0  0  0  0  0
    1.0599   -0.7194   -0.3246 C   0  0  0  0  0  0  0  0  0  0  0  0
    0.0340    0.3866   -0.3855 C   0  0  0  0  0  0  0  0  0  0  0  0
   -0.3300    0.9653    0.9497 C   0  0  0  0  0  0  0  0  0  0  0  0
   -1.4202    0.2094    1.4337 O   0  0  0  0  0  0  0  0  0  0  0  0
   -2.0962   -0.3087    0.3570 C   0  0  0  0  0  0  0  0  0  0  0  0
   -3.2269   -0.8398    0.3571 O   0  0  0  0  0  0  0  0  0  0  0  0
   -1.2761   -0.1525   -0.8805 C   0  0  0  0  0  0  0  0  0  0  0  0
    2.9898    0.3344   -0.3801 H   0  0  0  0  0  0  0  0  0  0  0  0
    1.2443   -1.0699   -1.3592 H   0  0  0  0  0  0  0  0  0  0  0  0
    0.6456   -1.5598    0.2794 H   0  0  0  0  0  0  0  0  0  0  0  0
    0.3841    1.1629   -1.1053 H   0  0  0  0  0  0  0  0  0  0  0  0
    0.5022    1.0052    1.6698 H   0  0  0  0  0  0  0  0  0  0  0  0
   -0.7383    2.0018    0.7281 H   0  0  0  0  0  0  0  0  0  0  0  0
   -1.7893    0.5494   -1.5701 H   0  0  0  0  0  0  0  0  0  0  0  0
   -1.0869   -1.1083   -1.3843 H   0  0  0  0  0  0  0  0  0  0  0  0
  1  2  2  0
  2  3  1  0
  3  4  1  0
  4  5  1  0
  5  6  1  0
  6  7  1  0
  7  8  2  0
  7  9  1  0
  9  4  1  0
  2 10  1  0
  3 11  1  0
  3 12  1  0
  4 13  1  0
  5 14  1  0
  5 15  1  0
  9 16  1  0
  9 17  1  0
M  END
