
     RDKit          3D

 17 18  0  0  0  0  0  0  0  0999 V2000
    3.0256    1.0634    0.9759 O   0  0  0  0  0  0  0  0  0  0  0  0
    2.4473    0.1171    0.4018 C   0  0  0  0  0  0  0  0  0  0  0  0
    1.0584    0.1739   -0.0082 C   0  0  0  0  0  0  0  0  0  0  0  0
    0.2785    1.2139    0.1807 C   0  0  0  0  0  0  0  0  0  0  0  0
   -1.1728    1.0453   -0.0401 C   0  0  0  0  0  0  0  0  0  0  0  0
   -1.5565   -0.2293    0.7109 C   0  0  0  0  0  0  0  0  0  0  0  0
   -1.0755   -0.8235   -0.5703 C   0  0  0  0  0  0  0  0  0  0  0  0
    0.3967   -0.9886   -0.6981 C   0  0  0  0  0  0  0  0  0  0  0  0
   -1.4401    0.3580   -1.2265 O   0  0  0  0  0  0  0  0  0  0  0  0
    3.0073   -0.7777    0.2046 H   0  0  0  0  0  0  0  0  0  0  0  0
    0.6474    2.1663    0.4844 H   0  0  0  0  0  0  0  0  0  0  0  0
   -1.8083    1.9054    0.1588 H   0  0  0  0  0  0  0  0  0  0  0  0
   -2.6370   -0.3354    0.8302 H   0  0  0  0  0  0  0  0  0  0  0  0
   -0.9316   -0.3750    1.6062 H   0  0  0  0  0  0  0  0  0  0  0  0
   -1.6956   -1.6958   -0.8640 H   0  0  0  0  0  0  0  0  0  0  0  0
    0.7952   -1.9509   -0.3659 H   0  0  0  0  0  0  0  0  0  0  0  0
    0.6610   -0.8671   -1.7804 H   0  0  0  0  0  0  0  0  0  0  0  0
  1  2  2  0
  2  3  1  0
  3  4  2  0
  4  5  1  0
  5  6  1  0
  6  7  1  0
  7  8  1  0
  7  9  1  0
  8  3  1  0
  9  5  1  0
  2 10  1  0
  4 11  1  0
  5 12  1  0
  6 13  1  0
  6 14  1  0
  7 15  1  0
  8 16  1  0
  8 17  1  0
M  END
