
     RDKit          3D

 19 19  0  0  0  0  0  0  0  0999 V2000
    3.0986    1.4281    0.5185 O   0  0  0  0  0  0  0  0  0  0  0  0
    2.8477    0.3234    0.0862 C   0  0  0  0  0  0  0  0  0  0  0  0
    2.0099   -0.5807    0.9078 C   0  0  0  0  0  0  0  0  0  0  0  0
    0.5474   -0.2605    0.8077 C   0  0  0  0  0  0  0  0  0  0  0  0
    0.0384   -0.3708   -0.5818 C   0  0  0  0  0  0  0  0  0  0  0  0
    0.8456   -0.6966   -1.4366 O   0  0  0  0  0  0  0  0  0  0  0  0
   -1.3741   -0.1049   -0.9432 C   0  0  0  0  0  0  0  0  0  0  0  0
   -2.4712   -0.2912    0.0158 C   0  0  0  0  0  0  0  0  0  0  0  0
   -2.0496    1.0922   -0.3158 C   0  0  0  0  0  0  0  0  0  0  0  0
    3.2303    0.0207   -0.8714 H   0  0  0  0  0  0  0  0  0  0  0  0
    2.2161   -1.6315    0.5981 H   0  0  0  0  0  0  0  0  0  0  0  0
    2.2872   -0.5125    1.9848 H   0  0  0  0  0  0  0  0  0  0  0  0
   -0.0131   -1.0345    1.3992 H   0  0  0  0  0  0  0  0  0  0  0  0
    0.3849    0.7195    1.2546 H   0  0  0  0  0  0  0  0  0  0  0  0
   -1.6214   -0.2239   -2.0216 H   0  0  0  0  0  0  0  0  0  0  0  0
   -3.4592   -0.6674   -0.3499 H   0  0  0  0  0  0  0  0  0  0  0  0
   -2.2718   -0.6165    1.0727 H   0  0  0  0  0  0  0  0  0  0  0  0
   -2.7741    1.6912   -0.9239 H   0  0  0  0  0  0  0  0  0  0  0  0
   -1.4717    1.7156    0.3871 H   0  0  0  0  0  0  0  0  0  0  0  0
  1  2  2  0
  2  3  1  0
  3  4  1  0
  4  5  1  0
  5  6  2  0
  5  7  1  0
  7  8  1  0
  8  9  1  0
  9  7  1  0
  2 10  1  0
  3 11  1  0
  3 12  1  0
  4 13  1  0
  4 14  1  0
  7 15  1  0
  8 16  1  0
  8 17  1  0
  9 18  1  0
  9 19  1  0
M  END
