
     RDKit          3D

 19 19  0  0  0  0  0  0  0  0999 V2000
    2.7094    0.6392   -1.4500 O   0  0  0  0  0  0  0  0  0  0  0  0
    2.2061    0.1750   -0.4287 C   0  0  0  0  0  0  0  0  0  0  0  0
    0.7442    0.0332   -0.3496 C   0  0  0  0  0  0  0  0  0  0  0  0
    0.3139   -1.3142    0.1896 C   0  0  0  0  0  0  0  0  0  0  0  0
   -1.1714   -1.4332   -0.0267 C   0  0  0  0  0  0  0  0  0  0  0  0
   -1.8852   -0.1338    0.0334 C   0  0  0  0  0  0  0  0  0  0  0  0
   -1.3341    1.0330    0.3178 C   0  0  0  0  0  0  0  0  0  0  0  0
    0.1262    1.0646    0.6049 C   0  0  0  0  0  0  0  0  0  0  0  0
    0.7114    2.2775    0.3159 O   0  0  0  0  0  0  0  0  0  0  0  0
    2.8458   -0.1130    0.3741 H   0  0  0  0  0  0  0  0  0  0  0  0
    0.2695    0.1809   -1.3532 H   0  0  0  0  0  0  0  0  0  0  0  0
    0.5702   -1.3245    1.2781 H   0  0  0  0  0  0  0  0  0  0  0  0
    0.8878   -2.1063   -0.3324 H   0  0  0  0  0  0  0  0  0  0  0  0
   -1.2987   -1.8409   -1.0735 H   0  0  0  0  0  0  0  0  0  0  0  0
   -1.6240   -2.1661    0.7025 H   0  0  0  0  0  0  0  0  0  0  0  0
   -2.9402   -0.1441   -0.1722 H   0  0  0  0  0  0  0  0  0  0  0  0
   -1.9047    1.9438    0.3463 H   0  0  0  0  0  0  0  0  0  0  0  0
    0.3022    0.7246    1.6420 H   0  0  0  0  0  0  0  0  0  0  0  0
    0.4715    2.5045   -0.6184 H   0  0  0  0  0  0  0  0  0  0  0  0
  1  2  2  0
  2  3  1  0
  3  4  1  0
  4  5  1  0
  5  6  1  0
  6  7  2  0
  7  8  1  0
  8  9  1  0
  8  3  1  0
  2 10  1  0
  3 11  1  0
  4 12  1  0
  4 13  1  0
  5 14  1  0
  5 15  1  0
  6 16  1  0
  7 17  1  0
  8 18  1  0
  9 19  1  0
M  END
