
     RDKit          3D

 15 17  0  0  0  0  0  0  0  0999 V2000
    1.8032    2.7119    0.0941 O   0  0  0  0  0  0  0  0  0  0  0  0
    0.9904    1.8718   -0.2156 C   0  0  0  0  0  0  0  0  0  0  0  0
    0.8030    0.6846    0.6277 C   0  0  0  0  0  0  0  0  0  0  0  0
   -0.5518    0.1306    0.8516 C   0  0  0  0  0  0  0  0  0  0  0  0
   -1.5230   -0.0334   -0.2701 C   0  0  0  0  0  0  0  0  0  0  0  0
   -1.1558    0.3163   -1.5440 O   0  0  0  0  0  0  0  0  0  0  0  0
   -0.4636   -0.7743   -1.0945 C   0  0  0  0  0  0  0  0  0  0  0  0
    0.4558   -0.6324    0.0699 C   0  0  0  0  0  0  0  0  0  0  0  0
    1.0679   -1.7556    0.6024 O   0  0  0  0  0  0  0  0  0  0  0  0
    0.3988    1.9840   -1.1072 H   0  0  0  0  0  0  0  0  0  0  0  0
    1.4591    0.6532    1.5302 H   0  0  0  0  0  0  0  0  0  0  0  0
   -0.8593   -0.1786    1.8609 H   0  0  0  0  0  0  0  0  0  0  0  0
   -2.4481   -0.6159   -0.0875 H   0  0  0  0  0  0  0  0  0  0  0  0
   -0.7052   -1.7851   -1.4669 H   0  0  0  0  0  0  0  0  0  0  0  0
    0.7286   -2.5771    0.1491 H   0  0  0  0  0  0  0  0  0  0  0  0
  1  2  2  0
  2  3  1  0
  3  4  1  0
  4  5  1  0
  5  6  1  0
  6  7  1  0
  7  8  1  0
  8  9  1  0
  8  3  1  0
  8  4  1  0
  7  5  1  0
  2 10  1  0
  3 11  1  0
  4 12  1  0
  5 13  1  0
  7 14  1  0
  9 15  1  0
M  END
