
     RDKit          3D

 19 20  0  0  0  0  0  0  0  0999 V2000
   -3.5344    0.9035    0.3672 O   0  0  0  0  0  0  0  0  0  0  0  0
   -2.9602   -0.1529    0.4642 C   0  0  0  0  0  0  0  0  0  0  0  0
   -1.4886   -0.1954    0.6279 C   0  0  0  0  0  0  0  0  0  0  0  0
   -0.8054   -0.0155   -0.6759 C   0  0  0  0  0  0  0  0  0  0  0  0
    0.6629   -0.0445   -0.6998 C   0  0  0  0  0  0  0  0  0  0  0  0
    1.3161    0.9927    0.1265 C   0  0  0  0  0  0  0  0  0  0  0  0
    2.5686    0.1714    0.0109 C   0  0  0  0  0  0  0  0  0  0  0  0
    1.4315   -0.7436    0.3665 C   0  0  0  0  0  0  0  0  0  0  0  0
    1.0368    0.2238    1.2393 O   0  0  0  0  0  0  0  0  0  0  0  0
   -3.5149   -1.0665    0.4319 H   0  0  0  0  0  0  0  0  0  0  0  0
   -1.2258    0.5688    1.3892 H   0  0  0  0  0  0  0  0  0  0  0  0
   -1.2184   -1.1911    1.0268 H   0  0  0  0  0  0  0  0  0  0  0  0
   -1.1896   -0.7774   -1.4109 H   0  0  0  0  0  0  0  0  0  0  0  0
   -1.1712    0.9633   -1.1064 H   0  0  0  0  0  0  0  0  0  0  0  0
    1.1412   -0.2486   -1.6945 H   0  0  0  0  0  0  0  0  0  0  0  0
    1.2520    1.9954    0.0474 H   0  0  0  0  0  0  0  0  0  0  0  0
    3.3425    0.3294    0.7515 H   0  0  0  0  0  0  0  0  0  0  0  0
    2.8598    0.0284   -1.0396 H   0  0  0  0  0  0  0  0  0  0  0  0
    1.4971   -1.7413    0.5142 H   0  0  0  0  0  0  0  0  0  0  0  0
  1  2  2  0
  2  3  1  0
  3  4  1  0
  4  5  1  0
  5  6  1  0
  6  7  1  0
  7  8  1  0
  8  9  1  0
  8  5  1  0
  9  6  1  0
  2 10  1  0
  3 11  1  0
  3 12  1  0
  4 13  1  0
  4 14  1  0
  5 15  1  0
  6 16  1  0
  7 17  1  0
  7 18  1  0
  8 19  1  0
M  END
