
     RDKit          3D

 16 16  0  0  0  0  0  0  0  0999 V2000
   -2.0322    1.4996   -0.7286 O   0  0  0  0  0  0  0  0  0  0  0  0
   -1.9170    1.0281    0.3939 C   0  0  0  0  0  0  0  0  0  0  0  0
   -0.8395    0.0405    0.6584 C   0  0  0  0  0  0  0  0  0  0  0  0
   -0.7922   -0.4302    1.9483 O   0  0  0  0  0  0  0  0  0  0  0  0
   -0.5370   -0.9948   -0.4108 C   0  0  0  0  0  0  0  0  0  0  0  0
    0.3782    0.1514   -0.1826 C   0  0  0  0  0  0  0  0  0  0  0  0
    1.7384   -0.1095    0.4366 C   0  0  0  0  0  0  0  0  0  0  0  0
    2.6801    0.0657   -0.5766 O   0  0  0  0  0  0  0  0  0  0  0  0
   -2.6004    1.3372    1.1753 H   0  0  0  0  0  0  0  0  0  0  0  0
   -1.6301   -0.9384    2.1177 H   0  0  0  0  0  0  0  0  0  0  0  0
   -0.2636   -2.0244   -0.0814 H   0  0  0  0  0  0  0  0  0  0  0  0
   -1.2754   -0.9953   -1.2342 H   0  0  0  0  0  0  0  0  0  0  0  0
    0.3668    0.9155   -0.9939 H   0  0  0  0  0  0  0  0  0  0  0  0
    1.9684    0.5979    1.2437 H   0  0  0  0  0  0  0  0  0  0  0  0
    1.8460   -1.1714    0.7741 H   0  0  0  0  0  0  0  0  0  0  0  0
    2.9095    1.0282   -0.5808 H   0  0  0  0  0  0  0  0  0  0  0  0
  1  2  2  0
  2  3  1  0
  3  4  1  0
  3  5  1  0
  5  6  1  0
  6  7  1  0
  7  8  1  0
  6  3  1  0
  2  9  1  0
  4 10  1  0
  5 11  1  0
  5 12  1  0
  6 13  1  0
  7 14  1  0
  7 15  1  0
  8 16  1  0
M  END
