
     RDKit          3D

 17 18  0  0  0  0  0  0  0  0999 V2000
    1.3278   -0.1333   -1.9687 O   0  0  0  0  0  0  0  0  0  0  0  0
    1.6353    0.0223   -0.7979 C   0  0  0  0  0  0  0  0  0  0  0  0
    0.6900    0.1356    0.3127 C   0  0  0  0  0  0  0  0  0  0  0  0
    1.4177    0.3050    1.4967 O   0  0  0  0  0  0  0  0  0  0  0  0
   -0.1631   -1.0894    0.5076 C   0  0  0  0  0  0  0  0  0  0  0  0
   -1.3867   -0.8057   -0.2640 C   0  0  0  0  0  0  0  0  0  0  0  0
   -1.2602   -0.3473   -1.5445 O   0  0  0  0  0  0  0  0  0  0  0  0
   -1.4353    0.6119   -0.5617 C   0  0  0  0  0  0  0  0  0  0  0  0
   -0.2805    1.2746    0.1039 C   0  0  0  0  0  0  0  0  0  0  0  0
    2.7056    0.0740   -0.6220 H   0  0  0  0  0  0  0  0  0  0  0  0
    2.0399   -0.4901    1.5230 H   0  0  0  0  0  0  0  0  0  0  0  0
    0.3628   -2.0260    0.2550 H   0  0  0  0  0  0  0  0  0  0  0  0
   -0.4305   -1.1635    1.5866 H   0  0  0  0  0  0  0  0  0  0  0  0
   -2.3000   -1.3284    0.0764 H   0  0  0  0  0  0  0  0  0  0  0  0
   -2.3870    1.1937   -0.6345 H   0  0  0  0  0  0  0  0  0  0  0  0
    0.1047    2.0652   -0.5380 H   0  0  0  0  0  0  0  0  0  0  0  0
   -0.6405    1.7014    1.0695 H   0  0  0  0  0  0  0  0  0  0  0  0
  1  2  2  0
  2  3  1  0
  3  4  1  0
  3  5  1  0
  5  6  1  0
  6  7  1  0
  7  8  1  0
  8  9  1  0
  9  3  1  0
  8  6  1  0
  2 10  1  0
  4 11  1  0
  5 12  1  0
  5 13  1  0
  6 14  1  0
  8 15  1  0
  9 16  1  0
  9 17  1  0
M  END
