
     RDKit          3D

 19 20  0  0  0  0  0  0  0  0999 V2000
    3.5020    0.5793    0.5379 O   0  0  0  0  0  0  0  0  0  0  0  0
    2.4208    0.0240    0.7584 C   0  0  0  0  0  0  0  0  0  0  0  0
    1.5474   -0.3009   -0.3928 C   0  0  0  0  0  0  0  0  0  0  0  0
    0.3350    0.6090   -0.2745 C   0  0  0  0  0  0  0  0  0  0  0  0
   -0.7004    0.4397   -1.3316 C   0  0  0  0  0  0  0  0  0  0  0  0
   -1.5458   -0.3270   -0.3402 C   0  0  0  0  0  0  0  0  0  0  0  0
   -2.0470    0.4477    0.8063 C   0  0  0  0  0  0  0  0  0  0  0  0
   -0.6267    0.0343    0.7389 C   0  0  0  0  0  0  0  0  0  0  0  0
   -0.1195   -0.9253    1.5997 O   0  0  0  0  0  0  0  0  0  0  0  0
    2.1503   -0.2035    1.7593 H   0  0  0  0  0  0  0  0  0  0  0  0
    2.0892   -0.1525   -1.3461 H   0  0  0  0  0  0  0  0  0  0  0  0
    1.2013   -1.3292   -0.3004 H   0  0  0  0  0  0  0  0  0  0  0  0
    0.5788    1.6569    0.0059 H   0  0  0  0  0  0  0  0  0  0  0  0
   -1.2555    1.3638   -1.6503 H   0  0  0  0  0  0  0  0  0  0  0  0
   -0.3475   -0.1638   -2.2097 H   0  0  0  0  0  0  0  0  0  0  0  0
   -1.8563   -1.3682   -0.5629 H   0  0  0  0  0  0  0  0  0  0  0  0
   -2.6292   -0.0579    1.6104 H   0  0  0  0  0  0  0  0  0  0  0  0
   -2.3716    1.4859    0.6248 H   0  0  0  0  0  0  0  0  0  0  0  0
   -0.3254   -1.8125    1.2551 H   0  0  0  0  0  0  0  0  0  0  0  0
  1  2  2  0
  2  3  1  0
  3  4  1  0
  4  5  1  0
  5  6  1  0
  6  7  1  0
  7  8  1  0
  8  9  1  0
  8  4  1  0
  8  6  1  0
  2 10  1  0
  3 11  1  0
  3 12  1  0
  4 13  1  0
  5 14  1  0
  5 15  1  0
  6 16  1  0
  7 17  1  0
  7 18  1  0
  9 19  1  0
M  END
