
     RDKit          3D

 17 19  0  0  0  0  0  0  0  0999 V2000
    2.6195    1.4691   -0.3366 O   0  0  0  0  0  0  0  0  0  0  0  0
    1.7777    0.7125    0.1197 C   0  0  0  0  0  0  0  0  0  0  0  0
    0.8063    0.0045   -0.7653 C   0  0  0  0  0  0  0  0  0  0  0  0
   -0.5299    0.6876   -0.7020 C   0  0  0  0  0  0  0  0  0  0  0  0
   -0.9214    1.2061    0.6391 C   0  0  0  0  0  0  0  0  0  0  0  0
   -1.3794   -0.1173    0.2269 C   0  0  0  0  0  0  0  0  0  0  0  0
   -0.6923   -1.3880    0.5200 C   0  0  0  0  0  0  0  0  0  0  0  0
    0.5261   -1.4674    1.1297 O   0  0  0  0  0  0  0  0  0  0  0  0
    0.5357   -1.3930   -0.2549 C   0  0  0  0  0  0  0  0  0  0  0  0
    1.7768    0.5855    1.1973 H   0  0  0  0  0  0  0  0  0  0  0  0
    1.2126   -0.0334   -1.7884 H   0  0  0  0  0  0  0  0  0  0  0  0
   -0.9337    1.1236   -1.6263 H   0  0  0  0  0  0  0  0  0  0  0  0
   -0.1539    1.3799    1.4229 H   0  0  0  0  0  0  0  0  0  0  0  0
   -1.6746    2.0302    0.6129 H   0  0  0  0  0  0  0  0  0  0  0  0
   -2.4403   -0.2221   -0.1105 H   0  0  0  0  0  0  0  0  0  0  0  0
   -1.3020   -2.3193    0.5889 H   0  0  0  0  0  0  0  0  0  0  0  0
    0.7728   -2.2585   -0.8734 H   0  0  0  0  0  0  0  0  0  0  0  0
  1  2  2  0
  2  3  1  0
  3  4  1  0
  4  5  1  0
  5  6  1  0
  6  7  1  0
  7  8  1  0
  8  9  1  0
  9  3  1  0
  6  4  1  0
  9  7  1  0
  2 10  1  0
  3 11  1  0
  4 12  1  0
  5 13  1  0
  5 14  1  0
  6 15  1  0
  7 16  1  0
  9 17  1  0
M  END
