
     RDKit          3D

 18 17  0  0  0  0  0  0  0  0999 V2000
    3.2460    1.3951   -0.6328 O   0  0  0  0  0  0  0  0  0  0  0  0
    2.5996    0.4330   -0.2766 C   0  0  0  0  0  0  0  0  0  0  0  0
    1.1231    0.5803    0.0518 C   0  0  0  0  0  0  0  0  0  0  0  0
    0.5868   -0.7583    0.3932 C   0  0  0  0  0  0  0  0  0  0  0  0
   -0.8495   -0.8435    0.7670 C   0  0  0  0  0  0  0  0  0  0  0  0
   -1.8251   -0.4006   -0.2872 C   0  0  0  0  0  0  0  0  0  0  0  0
   -1.6852    1.0198   -0.6751 C   0  0  0  0  0  0  0  0  0  0  0  0
   -1.6949    1.8451    0.2668 O   0  0  0  0  0  0  0  0  0  0  0  0
    3.0787   -0.5191   -0.1943 H   0  0  0  0  0  0  0  0  0  0  0  0
    1.0391    1.3608    0.8273 H   0  0  0  0  0  0  0  0  0  0  0  0
    0.6983    1.0229   -0.8756 H   0  0  0  0  0  0  0  0  0  0  0  0
    1.1803   -1.1677    1.2559 H   0  0  0  0  0  0  0  0  0  0  0  0
    0.8044   -1.4529   -0.4697 H   0  0  0  0  0  0  0  0  0  0  0  0
   -1.1164   -1.9138    1.0113 H   0  0  0  0  0  0  0  0  0  0  0  0
   -1.0103   -0.3110    1.7495 H   0  0  0  0  0  0  0  0  0  0  0  0
   -2.8858   -0.5192    0.0623 H   0  0  0  0  0  0  0  0  0  0  0  0
   -1.7096   -1.1004   -1.1340 H   0  0  0  0  0  0  0  0  0  0  0  0
   -1.5795    1.3295   -1.6977 H   0  0  0  0  0  0  0  0  0  0  0  0
  1  2  2  0
  2  3  1  0
  3  4  1  0
  4  5  1  0
  5  6  1  0
  6  7  1  0
  7  8  2  0
  2  9  1  0
  3 10  1  0
  3 11  1  0
  4 12  1  0
  4 13  1  0
  5 14  1  0
  5 15  1  0
  6 16  1  0
  6 17  1  0
  7 18  1  0
M  END
