
     RDKit          3D

 17 18  0  0  0  0  0  0  0  0999 V2000
    2.4892   -0.3068    1.1260 O   0  0  0  0  0  0  0  0  0  0  0  0
    2.2678    0.0362   -0.0217 C   0  0  0  0  0  0  0  0  0  0  0  0
    0.8785    0.0506   -0.4928 C   0  0  0  0  0  0  0  0  0  0  0  0
    0.6757    0.4549   -1.8276 O   0  0  0  0  0  0  0  0  0  0  0  0
   -0.0126   -1.0154    0.0196 C   0  0  0  0  0  0  0  0  0  0  0  0
   -1.3847   -1.0573   -0.6214 C   0  0  0  0  0  0  0  0  0  0  0  0
   -1.6322    0.3222   -0.0338 C   0  0  0  0  0  0  0  0  0  0  0  0
   -0.2200    0.3920    0.4282 C   0  0  0  0  0  0  0  0  0  0  0  0
    0.0856    0.8180    1.7145 O   0  0  0  0  0  0  0  0  0  0  0  0
    3.0722    0.3236   -0.6795 H   0  0  0  0  0  0  0  0  0  0  0  0
    0.8509    1.4066   -1.8870 H   0  0  0  0  0  0  0  0  0  0  0  0
    0.3096   -1.8024    0.6963 H   0  0  0  0  0  0  0  0  0  0  0  0
   -2.0516   -1.8460   -0.2809 H   0  0  0  0  0  0  0  0  0  0  0  0
   -1.2721   -0.9469   -1.7262 H   0  0  0  0  0  0  0  0  0  0  0  0
   -2.4147    0.2507    0.7427 H   0  0  0  0  0  0  0  0  0  0  0  0
   -1.8595    1.1130   -0.7718 H   0  0  0  0  0  0  0  0  0  0  0  0
    0.2180    1.8069    1.6527 H   0  0  0  0  0  0  0  0  0  0  0  0
  1  2  2  0
  2  3  1  0
  3  4  1  0
  3  5  1  0
  5  6  1  0
  6  7  1  0
  7  8  1  0
  8  9  1  0
  8  3  1  0
  8  5  1  0
  2 10  1  0
  4 11  1  0
  5 12  1  0
  6 13  1  0
  6 14  1  0
  7 15  1  0
  7 16  1  0
  9 17  1  0
M  END
