
     RDKit          3D

 17 16  0  0  0  0  0  0  0  0999 V2000
   -2.5332    1.2422    0.9392 O   0  0  0  0  0  0  0  0  0  0  0  0
   -2.2730    0.6444   -0.1191 C   0  0  0  0  0  0  0  0  0  0  0  0
   -1.5917   -0.6804    0.0451 C   0  0  0  0  0  0  0  0  0  0  0  0
   -0.3171   -0.5499    0.8800 C   0  0  0  0  0  0  0  0  0  0  0  0
    0.2199   -1.8353    0.9621 O   0  0  0  0  0  0  0  0  0  0  0  0
    0.6981    0.2733    0.1024 C   0  0  0  0  0  0  0  0  0  0  0  0
    1.9188    0.2763    0.7915 O   0  0  0  0  0  0  0  0  0  0  0  0
    2.9736    0.9808    0.2341 C   0  0  0  0  0  0  0  0  0  0  0  0
    2.8056    1.5798   -0.8535 O   0  0  0  0  0  0  0  0  0  0  0  0
   -2.5283    1.0664   -1.0897 H   0  0  0  0  0  0  0  0  0  0  0  0
   -2.2834   -1.2616    0.7284 H   0  0  0  0  0  0  0  0  0  0  0  0
   -1.4157   -1.1607   -0.9182 H   0  0  0  0  0  0  0  0  0  0  0  0
   -0.5860   -0.1053    1.8411 H   0  0  0  0  0  0  0  0  0  0  0  0
   -0.2623   -2.4815    0.4166 H   0  0  0  0  0  0  0  0  0  0  0  0
    0.3623    1.2963   -0.0771 H   0  0  0  0  0  0  0  0  0  0  0  0
    0.8828   -0.3075   -0.8412 H   0  0  0  0  0  0  0  0  0  0  0  0
    3.9295    1.0226    0.7222 H   0  0  0  0  0  0  0  0  0  0  0  0
  1  2  2  0
  2  3  1  0
  3  4  1  0
  4  5  1  0
  4  6  1  0
  6  7  1  0
  7  8  1  0
  8  9  2  0
  2 10  1  0
  3 11  1  0
  3 12  1  0
  4 13  1  0
  5 14  1  0
  6 15  1  0
  6 16  1  0
  8 17  1  0
M  END
