
     RDKit          3D

 17 16  0  0  0  0  0  0  0  0999 V2000
    2.7045   -0.8610    0.9788 O   0  0  0  0  0  0  0  0  0  0  0  0
    1.6358   -0.9797    0.4085 C   0  0  0  0  0  0  0  0  0  0  0  0
    0.9668    0.2251   -0.0764 C   0  0  0  0  0  0  0  0  0  0  0  0
    1.7308    1.3404    0.2283 O   0  0  0  0  0  0  0  0  0  0  0  0
   -0.4529    0.3739    0.4148 C   0  0  0  0  0  0  0  0  0  0  0  0
   -1.0270    1.6293   -0.1409 C   0  0  0  0  0  0  0  0  0  0  0  0
   -0.7088    2.6804    0.4074 O   0  0  0  0  0  0  0  0  0  0  0  0
   -1.3345   -0.7572    0.0141 C   0  0  0  0  0  0  0  0  0  0  0  0
   -1.3825   -0.8497   -1.3916 O   0  0  0  0  0  0  0  0  0  0  0  0
    1.2637   -1.9927    0.3072 H   0  0  0  0  0  0  0  0  0  0  0  0
    0.9226    0.1489   -1.2024 H   0  0  0  0  0  0  0  0  0  0  0  0
    2.5997    1.0664    0.5887 H   0  0  0  0  0  0  0  0  0  0  0  0
   -0.3960    0.4001    1.5298 H   0  0  0  0  0  0  0  0  0  0  0  0
   -1.6996    1.6513   -0.9911 H   0  0  0  0  0  0  0  0  0  0  0  0
   -1.0792   -1.7275    0.4785 H   0  0  0  0  0  0  0  0  0  0  0  0
   -2.3698   -0.5126    0.3280 H   0  0  0  0  0  0  0  0  0  0  0  0
   -1.3737   -1.8355   -1.6003 H   0  0  0  0  0  0  0  0  0  0  0  0
  1  2  2  0
  2  3  1  0
  3  4  1  0
  3  5  1  0
  5  6  1  0
  6  7  2  0
  5  8  1  0
  8  9  1  0
  2 10  1  0
  3 11  1  0
  4 12  1  0
  5 13  1  0
  6 14  1  0
  8 15  1  0
  8 16  1  0
  9 17  1  0
M  END
