
     RDKit          3D

 15 16  0  0  0  0  0  0  0  0999 V2000
   -2.8649   -0.5990    0.5917 O   0  0  0  0  0  0  0  0  0  0  0  0
   -2.2827    0.4202    0.2566 C   0  0  0  0  0  0  0  0  0  0  0  0
   -1.0494    0.2672   -0.5284 C   0  0  0  0  0  0  0  0  0  0  0  0
   -0.3852    1.3969   -0.9118 O   0  0  0  0  0  0  0  0  0  0  0  0
    0.7672    0.5720   -0.9160 C   0  0  0  0  0  0  0  0  0  0  0  0
    1.4034    0.4716    0.3903 C   0  0  0  0  0  0  0  0  0  0  0  0
    2.6200   -0.2518    0.4013 O   0  0  0  0  0  0  0  0  0  0  0  0
    0.1186   -0.2209    0.2413 C   0  0  0  0  0  0  0  0  0  0  0  0
    0.2511   -1.6243    0.2013 O   0  0  0  0  0  0  0  0  0  0  0  0
   -2.7212    1.3534    0.5643 H   0  0  0  0  0  0  0  0  0  0  0  0
   -1.2627   -0.3622   -1.4402 H   0  0  0  0  0  0  0  0  0  0  0  0
    0.9632   -0.0565   -1.7782 H   0  0  0  0  0  0  0  0  0  0  0  0
    1.4409    1.3673    1.0172 H   0  0  0  0  0  0  0  0  0  0  0  0
    2.6784   -0.8427   -0.4159 H   0  0  0  0  0  0  0  0  0  0  0  0
    0.3233   -1.8912    1.1675 H   0  0  0  0  0  0  0  0  0  0  0  0
  1  2  2  0
  2  3  1  0
  3  4  1  0
  4  5  1  0
  5  6  1  0
  6  7  1  0
  6  8  1  0
  8  9  1  0
  8  3  1  0
  8  5  1  0
  2 10  1  0
  3 11  1  0
  5 12  1  0
  6 13  1  0
  7 14  1  0
  9 15  1  0
M  END
