
     RDKit          3D

 19 18  0  0  0  0  0  0  0  0999 V2000
   -4.3659    0.2186    0.2113 O   0  0  0  0  0  0  0  0  0  0  0  0
   -3.2798    0.0951   -0.2883 C   0  0  0  0  0  0  0  0  0  0  0  0
   -2.0799    0.3580    0.5495 C   0  0  0  0  0  0  0  0  0  0  0  0
   -0.7968    0.1530   -0.2338 C   0  0  0  0  0  0  0  0  0  0  0  0
    0.3453    0.4451    0.7179 C   0  0  0  0  0  0  0  0  0  0  0  0
    1.6645    0.2931    0.1136 C   0  0  0  0  0  0  0  0  0  0  0  0
    2.1212    1.1583   -0.5999 O   0  0  0  0  0  0  0  0  0  0  0  0
    2.4681   -0.9207    0.3614 C   0  0  0  0  0  0  0  0  0  0  0  0
    3.7030   -0.8814   -0.3049 O   0  0  0  0  0  0  0  0  0  0  0  0
   -3.1862   -0.1993   -1.3187 H   0  0  0  0  0  0  0  0  0  0  0  0
   -2.0503    1.3885    0.9498 H   0  0  0  0  0  0  0  0  0  0  0  0
   -2.0925   -0.3910    1.3744 H   0  0  0  0  0  0  0  0  0  0  0  0
   -0.8007   -0.9176   -0.5597 H   0  0  0  0  0  0  0  0  0  0  0  0
   -0.8304    0.8248   -1.0947 H   0  0  0  0  0  0  0  0  0  0  0  0
    0.1679    1.4644    1.1314 H   0  0  0  0  0  0  0  0  0  0  0  0
    0.2050   -0.2546    1.5880 H   0  0  0  0  0  0  0  0  0  0  0  0
    2.7061   -0.9449    1.4483 H   0  0  0  0  0  0  0  0  0  0  0  0
    1.9794   -1.8580    0.0317 H   0  0  0  0  0  0  0  0  0  0  0  0
    4.1219   -0.0315   -0.0653 H   0  0  0  0  0  0  0  0  0  0  0  0
  1  2  2  0
  2  3  1  0
  3  4  1  0
  4  5  1  0
  5  6  1  0
  6  7  2  0
  6  8  1  0
  8  9  1  0
  2 10  1  0
  3 11  1  0
  3 12  1  0
  4 13  1  0
  4 14  1  0
  5 15  1  0
  5 16  1  0
  8 17  1  0
  8 18  1  0
  9 19  1  0
M  END
