
     RDKit          3D

 19 19  0  0  0  0  0  0  0  0999 V2000
   -3.1450   -1.6207    1.1020 O   0  0  0  0  0  0  0  0  0  0  0  0
   -2.5555   -0.7022    0.5641 C   0  0  0  0  0  0  0  0  0  0  0  0
   -1.1108   -0.7439    0.2176 C   0  0  0  0  0  0  0  0  0  0  0  0
   -0.6546   -0.2013   -1.1137 C   0  0  0  0  0  0  0  0  0  0  0  0
   -0.3702    0.5369    0.1364 C   0  0  0  0  0  0  0  0  0  0  0  0
   -1.1799    1.6866    0.3153 O   0  0  0  0  0  0  0  0  0  0  0  0
    0.9952    0.7016    0.7030 C   0  0  0  0  0  0  0  0  0  0  0  0
    2.0515   -0.1886    0.1495 C   0  0  0  0  0  0  0  0  0  0  0  0
    2.2662   -0.0524   -1.2004 O   0  0  0  0  0  0  0  0  0  0  0  0
   -3.1343    0.2019    0.3268 H   0  0  0  0  0  0  0  0  0  0  0  0
   -0.6223   -1.6947    0.4973 H   0  0  0  0  0  0  0  0  0  0  0  0
   -1.5206    0.1292   -1.7592 H   0  0  0  0  0  0  0  0  0  0  0  0
    0.0972   -0.7346   -1.6939 H   0  0  0  0  0  0  0  0  0  0  0  0
   -0.8389    2.4137   -0.2365 H   0  0  0  0  0  0  0  0  0  0  0  0
    0.9219    0.4667    1.8060 H   0  0  0  0  0  0  0  0  0  0  0  0
    1.2844    1.7772    0.6728 H   0  0  0  0  0  0  0  0  0  0  0  0
    1.8351   -1.2309    0.4597 H   0  0  0  0  0  0  0  0  0  0  0  0
    3.0106    0.0930    0.6600 H   0  0  0  0  0  0  0  0  0  0  0  0
    2.6700   -0.8375   -1.6067 H   0  0  0  0  0  0  0  0  0  0  0  0
  1  2  2  0
  2  3  1  0
  3  4  1  0
  4  5  1  0
  5  6  1  0
  5  7  1  0
  7  8  1  0
  8  9  1  0
  5  3  1  0
  2 10  1  0
  3 11  1  0
  4 12  1  0
  4 13  1  0
  6 14  1  0
  7 15  1  0
  7 16  1  0
  8 17  1  0
  8 18  1  0
  9 19  1  0
M  END
