
     RDKit          3D

 17 18  0  0  0  0  0  0  0  0999 V2000
   -2.3281   -0.4162    2.0429 O   0  0  0  0  0  0  0  0  0  0  0  0
   -2.3553   -0.2827    0.8324 C   0  0  0  0  0  0  0  0  0  0  0  0
   -1.1687   -0.5782    0.0239 C   0  0  0  0  0  0  0  0  0  0  0  0
   -0.8200    0.5142   -0.9333 C   0  0  0  0  0  0  0  0  0  0  0  0
    0.3384    1.1801   -0.8669 C   0  0  0  0  0  0  0  0  0  0  0  0
    1.2093    0.7505    0.2019 C   0  0  0  0  0  0  0  0  0  0  0  0
    2.2736   -0.1646    0.3131 C   0  0  0  0  0  0  0  0  0  0  0  0
    1.0413   -0.8127    0.0914 C   0  0  0  0  0  0  0  0  0  0  0  0
   -0.0828   -1.0054    0.8045 O   0  0  0  0  0  0  0  0  0  0  0  0
   -3.2584    0.0553    0.3520 H   0  0  0  0  0  0  0  0  0  0  0  0
   -1.4142   -1.4694   -0.6257 H   0  0  0  0  0  0  0  0  0  0  0  0
   -1.5821    0.7194   -1.6822 H   0  0  0  0  0  0  0  0  0  0  0  0
    0.5401    1.9496   -1.5711 H   0  0  0  0  0  0  0  0  0  0  0  0
    0.8506    1.2114    1.1745 H   0  0  0  0  0  0  0  0  0  0  0  0
    2.8147   -0.2434    1.2987 H   0  0  0  0  0  0  0  0  0  0  0  0
    3.0531   -0.1821   -0.5024 H   0  0  0  0  0  0  0  0  0  0  0  0
    0.8886   -1.2258   -0.9535 H   0  0  0  0  0  0  0  0  0  0  0  0
  1  2  2  0
  2  3  1  0
  3  4  1  0
  4  5  2  0
  5  6  1  0
  6  7  1  0
  7  8  1  0
  8  9  1  0
  9  3  1  0
  8  6  1  0
  2 10  1  0
  3 11  1  0
  4 12  1  0
  5 13  1  0
  6 14  1  0
  7 15  1  0
  7 16  1  0
  8 17  1  0
M  END
