
     RDKit          3D

 21 20  0  0  0  0  0  0  0  0999 V2000
    3.4083    1.3854    0.0032 O   0  0  0  0  0  0  0  0  0  0  0  0
    3.2168    0.2562   -0.4419 C   0  0  0  0  0  0  0  0  0  0  0  0
    1.7941   -0.1818   -0.5165 C   0  0  0  0  0  0  0  0  0  0  0  0
    1.1692   -0.0456    0.8591 C   0  0  0  0  0  0  0  0  0  0  0  0
   -0.2802   -0.4839    0.8023 C   0  0  0  0  0  0  0  0  0  0  0  0
   -1.1028    0.3440   -0.1471 C   0  0  0  0  0  0  0  0  0  0  0  0
   -1.0787    1.6994    0.2750 O   0  0  0  0  0  0  0  0  0  0  0  0
   -2.5535   -0.1102    0.0022 C   0  0  0  0  0  0  0  0  0  0  0  0
   -2.7028   -1.4335   -0.3911 O   0  0  0  0  0  0  0  0  0  0  0  0
    4.0550   -0.3786   -0.7595 H   0  0  0  0  0  0  0  0  0  0  0  0
    1.7017   -1.2087   -0.8931 H   0  0  0  0  0  0  0  0  0  0  0  0
    1.2566    0.5262   -1.2161 H   0  0  0  0  0  0  0  0  0  0  0  0
    1.3444    0.9230    1.3093 H   0  0  0  0  0  0  0  0  0  0  0  0
    1.6740   -0.8262    1.4913 H   0  0  0  0  0  0  0  0  0  0  0  0
   -0.2829   -1.5307    0.4046 H   0  0  0  0  0  0  0  0  0  0  0  0
   -0.7161   -0.4917    1.8154 H   0  0  0  0  0  0  0  0  0  0  0  0
   -0.7522    0.2366   -1.1707 H   0  0  0  0  0  0  0  0  0  0  0  0
   -1.3941    2.2847   -0.4636 H   0  0  0  0  0  0  0  0  0  0  0  0
   -3.1758    0.5299   -0.6362 H   0  0  0  0  0  0  0  0  0  0  0  0
   -2.8632    0.0496    1.0482 H   0  0  0  0  0  0  0  0  0  0  0  0
   -2.7177   -1.5441   -1.3748 H   0  0  0  0  0  0  0  0  0  0  0  0
  1  2  2  0
  2  3  1  0
  3  4  1  0
  4  5  1  0
  5  6  1  0
  6  7  1  0
  6  8  1  0
  8  9  1  0
  2 10  1  0
  3 11  1  0
  3 12  1  0
  4 13  1  0
  4 14  1  0
  5 15  1  0
  5 16  1  0
  6 17  1  0
  7 18  1  0
  8 19  1  0
  8 20  1  0
  9 21  1  0
M  END
