
     RDKit          3D

 15 16  0  0  0  0  0  0  0  0999 V2000
    2.6595    0.9058   -1.0686 O   0  0  0  0  0  0  0  0  0  0  0  0
    1.8715    0.9546   -0.1464 C   0  0  0  0  0  0  0  0  0  0  0  0
    0.6087    0.2977   -0.1964 C   0  0  0  0  0  0  0  0  0  0  0  0
    0.1704   -0.5612    0.9802 C   0  0  0  0  0  0  0  0  0  0  0  0
   -1.1012   -1.1279    0.3148 C   0  0  0  0  0  0  0  0  0  0  0  0
   -1.0732   -0.2229   -0.9090 C   0  0  0  0  0  0  0  0  0  0  0  0
    0.2607   -0.4255   -1.3371 O   0  0  0  0  0  0  0  0  0  0  0  0
   -0.6261    1.0987   -0.4376 C   0  0  0  0  0  0  0  0  0  0  0  0
   -0.9604    2.2475   -0.2807 O   0  0  0  0  0  0  0  0  0  0  0  0
    2.1707    1.5240    0.7251 H   0  0  0  0  0  0  0  0  0  0  0  0
   -0.0983    0.1215    1.8082 H   0  0  0  0  0  0  0  0  0  0  0  0
    0.8781   -1.3431    1.2343 H   0  0  0  0  0  0  0  0  0  0  0  0
   -1.9822   -0.9777    0.9403 H   0  0  0  0  0  0  0  0  0  0  0  0
   -0.9342   -2.1787    0.0036 H   0  0  0  0  0  0  0  0  0  0  0  0
   -1.8443   -0.3127   -1.6306 H   0  0  0  0  0  0  0  0  0  0  0  0
  1  2  2  0
  2  3  1  0
  3  4  1  0
  4  5  1  0
  5  6  1  0
  6  7  1  0
  6  8  1  0
  8  9  2  0
  7  3  1  0
  8  3  1  0
  2 10  1  0
  4 11  1  0
  4 12  1  0
  5 13  1  0
  5 14  1  0
  6 15  1  0
M  END
