
     RDKit          3D

 19 20  0  0  0  0  0  0  0  0999 V2000
   -3.3595   -0.4510   -0.0445 O   0  0  0  0  0  0  0  0  0  0  0  0
   -2.2790    0.0891    0.1596 C   0  0  0  0  0  0  0  0  0  0  0  0
   -1.0199   -0.3810   -0.4558 C   0  0  0  0  0  0  0  0  0  0  0  0
   -0.2004    0.7309   -1.0563 C   0  0  0  0  0  0  0  0  0  0  0  0
    0.9316    1.1687   -0.1326 C   0  0  0  0  0  0  0  0  0  0  0  0
    1.8907    0.0221   -0.0104 C   0  0  0  0  0  0  0  0  0  0  0  0
    0.9295   -0.3267    1.0893 C   0  0  0  0  0  0  0  0  0  0  0  0
   -0.1818   -1.1825    0.5373 C   0  0  0  0  0  0  0  0  0  0  0  0
    0.5018    1.0086    1.1751 O   0  0  0  0  0  0  0  0  0  0  0  0
   -2.3151    0.9507    0.8352 H   0  0  0  0  0  0  0  0  0  0  0  0
   -1.3150   -1.0935   -1.2752 H   0  0  0  0  0  0  0  0  0  0  0  0
    0.3166    0.3486   -1.9849 H   0  0  0  0  0  0  0  0  0  0  0  0
   -0.8235    1.5894   -1.3726 H   0  0  0  0  0  0  0  0  0  0  0  0
    1.3418    2.1424   -0.3829 H   0  0  0  0  0  0  0  0  0  0  0  0
    2.8965    0.2426    0.3528 H   0  0  0  0  0  0  0  0  0  0  0  0
    1.8441   -0.6834   -0.8888 H   0  0  0  0  0  0  0  0  0  0  0  0
    1.3465   -0.6349    2.0465 H   0  0  0  0  0  0  0  0  0  0  0  0
   -0.7961   -1.5083    1.4064 H   0  0  0  0  0  0  0  0  0  0  0  0
    0.2910   -2.0318    0.0018 H   0  0  0  0  0  0  0  0  0  0  0  0
  1  2  2  0
  2  3  1  0
  3  4  1  0
  4  5  1  0
  5  6  1  0
  6  7  1  0
  7  8  1  0
  7  9  1  0
  8  3  1  0
  9  5  1  0
  2 10  1  0
  3 11  1  0
  4 12  1  0
  4 13  1  0
  5 14  1  0
  6 15  1  0
  6 16  1  0
  7 17  1  0
  8 18  1  0
  8 19  1  0
M  END
