
     RDKit          3D

 18 18  0  0  0  0  0  0  0  0999 V2000
    3.6074   -0.0843   -0.1614 O   0  0  0  0  0  0  0  0  0  0  0  0
    2.4774   -0.4923   -0.3134 C   0  0  0  0  0  0  0  0  0  0  0  0
    1.3425    0.2750    0.2016 C   0  0  0  0  0  0  0  0  0  0  0  0
    0.1438   -0.5723    0.6470 C   0  0  0  0  0  0  0  0  0  0  0  0
   -0.7161    0.5613    0.1200 C   0  0  0  0  0  0  0  0  0  0  0  0
   -2.0211    0.1165   -0.4838 C   0  0  0  0  0  0  0  0  0  0  0  0
   -2.7341   -0.5495    0.5241 O   0  0  0  0  0  0  0  0  0  0  0  0
    0.3979    0.8175   -0.8828 C   0  0  0  0  0  0  0  0  0  0  0  0
    2.2955   -1.4212   -0.8275 H   0  0  0  0  0  0  0  0  0  0  0  0
    1.5565    1.0808    0.9132 H   0  0  0  0  0  0  0  0  0  0  0  0
    0.0132   -1.4545   -0.0237 H   0  0  0  0  0  0  0  0  0  0  0  0
    0.0847   -0.7573    1.7175 H   0  0  0  0  0  0  0  0  0  0  0  0
   -0.8031    1.3930    0.8128 H   0  0  0  0  0  0  0  0  0  0  0  0
   -2.6198    0.9944   -0.7617 H   0  0  0  0  0  0  0  0  0  0  0  0
   -1.8773   -0.5906   -1.3258 H   0  0  0  0  0  0  0  0  0  0  0  0
   -2.1747   -1.2878    0.9054 H   0  0  0  0  0  0  0  0  0  0  0  0
    0.4264    0.1030   -1.7285 H   0  0  0  0  0  0  0  0  0  0  0  0
    0.6010    1.8684   -1.1111 H   0  0  0  0  0  0  0  0  0  0  0  0
  1  2  2  0
  2  3  1  0
  3  4  1  0
  4  5  1  0
  5  6  1  0
  6  7  1  0
  5  8  1  0
  8  3  1  0
  2  9  1  0
  3 10  1  0
  4 11  1  0
  4 12  1  0
  5 13  1  0
  6 14  1  0
  6 15  1  0
  7 16  1  0
  8 17  1  0
  8 18  1  0
M  END
