
     RDKit          3D

 15 17  0  0  0  0  0  0  0  0999 V2000
   -0.9003    1.9408    0.9473 O   0  0  0  0  0  0  0  0  0  0  0  0
   -1.5303    0.9424    0.7227 C   0  0  0  0  0  0  0  0  0  0  0  0
   -0.9392   -0.2269    0.0624 C   0  0  0  0  0  0  0  0  0  0  0  0
   -1.8846   -1.3044   -0.0907 O   0  0  0  0  0  0  0  0  0  0  0  0
    0.0278   -0.1798   -1.0246 C   0  0  0  0  0  0  0  0  0  0  0  0
    1.3783    0.5012   -0.9385 C   0  0  0  0  0  0  0  0  0  0  0  0
    1.3490    1.5954   -0.1300 O   0  0  0  0  0  0  0  0  0  0  0  0
    1.5226    0.2593    0.3792 C   0  0  0  0  0  0  0  0  0  0  0  0
    0.3952   -0.6991    0.3966 C   0  0  0  0  0  0  0  0  0  0  0  0
   -2.5658    0.9495    1.0352 H   0  0  0  0  0  0  0  0  0  0  0  0
   -1.8772   -1.7446    0.7984 H   0  0  0  0  0  0  0  0  0  0  0  0
   -0.0453   -0.9256   -1.8502 H   0  0  0  0  0  0  0  0  0  0  0  0
    2.0644    0.3964   -1.7810 H   0  0  0  0  0  0  0  0  0  0  0  0
    2.3166    0.2682    1.1273 H   0  0  0  0  0  0  0  0  0  0  0  0
    0.6889   -1.7727    0.3458 H   0  0  0  0  0  0  0  0  0  0  0  0
  1  2  2  0
  2  3  1  0
  3  4  1  0
  3  5  1  0
  5  6  1  0
  6  7  1  0
  7  8  1  0
  8  9  1  0
  9  3  1  0
  9  5  1  0
  8  6  1  0
  2 10  1  0
  4 11  1  0
  5 12  1  0
  6 13  1  0
  8 14  1  0
  9 15  1  0
M  END
