
     RDKit          3D

 17 18  0  0  0  0  0  0  0  0999 V2000
    3.1295   -1.0644    0.4142 O   0  0  0  0  0  0  0  0  0  0  0  0
    2.4153   -0.2820   -0.2460 C   0  0  0  0  0  0  0  0  0  0  0  0
    0.9753   -0.2291   -0.0227 C   0  0  0  0  0  0  0  0  0  0  0  0
    0.2659   -0.9606    0.8598 C   0  0  0  0  0  0  0  0  0  0  0  0
   -1.1913   -0.7361    0.6159 C   0  0  0  0  0  0  0  0  0  0  0  0
   -1.1443   -0.4297   -0.8962 C   0  0  0  0  0  0  0  0  0  0  0  0
   -0.0329    0.6157   -0.6901 C   0  0  0  0  0  0  0  0  0  0  0  0
   -0.7129    1.4210    0.4128 C   0  0  0  0  0  0  0  0  0  0  0  0
   -1.5735    0.5346    1.0682 O   0  0  0  0  0  0  0  0  0  0  0  0
    2.8250    0.3706   -0.9904 H   0  0  0  0  0  0  0  0  0  0  0  0
    0.6622   -1.6124    1.6297 H   0  0  0  0  0  0  0  0  0  0  0  0
   -1.8369   -1.5356    0.8767 H   0  0  0  0  0  0  0  0  0  0  0  0
   -2.0832    0.0270   -1.2060 H   0  0  0  0  0  0  0  0  0  0  0  0
   -0.8079   -1.2805   -1.4763 H   0  0  0  0  0  0  0  0  0  0  0  0
    0.2494    1.1479   -1.5548 H   0  0  0  0  0  0  0  0  0  0  0  0
   -1.2130    2.3119    0.0367 H   0  0  0  0  0  0  0  0  0  0  0  0
    0.0734    1.7018    1.1687 H   0  0  0  0  0  0  0  0  0  0  0  0
  1  2  2  0
  2  3  1  0
  3  4  2  0
  4  5  1  0
  5  6  1  0
  6  7  1  0
  7  8  1  0
  8  9  1  0
  7  3  1  0
  9  5  1  0
  2 10  1  0
  4 11  1  0
  5 12  1  0
  6 13  1  0
  6 14  1  0
  7 15  1  0
  8 16  1  0
  8 17  1  0
M  END
