
     RDKit          3D

 17 18  0  0  0  0  0  0  0  0999 V2000
    2.6054    0.3122   -0.9132 O   0  0  0  0  0  0  0  0  0  0  0  0
    1.9075   -0.5899   -0.4894 C   0  0  0  0  0  0  0  0  0  0  0  0
    0.9376   -0.2919    0.5915 C   0  0  0  0  0  0  0  0  0  0  0  0
    0.9589    1.0172    0.9848 O   0  0  0  0  0  0  0  0  0  0  0  0
   -0.1539    1.6575    0.4944 C   0  0  0  0  0  0  0  0  0  0  0  0
   -1.2114    0.6301    0.2553 C   0  0  0  0  0  0  0  0  0  0  0  0
   -1.0917   -0.1523   -1.0233 C   0  0  0  0  0  0  0  0  0  0  0  0
   -0.4704   -0.6623    0.2249 C   0  0  0  0  0  0  0  0  0  0  0  0
   -1.0431   -1.7976    0.7985 O   0  0  0  0  0  0  0  0  0  0  0  0
    2.0321   -1.5687   -0.9265 H   0  0  0  0  0  0  0  0  0  0  0  0
    1.2154   -0.9226    1.4790 H   0  0  0  0  0  0  0  0  0  0  0  0
   -0.4897    2.5016    1.1283 H   0  0  0  0  0  0  0  0  0  0  0  0
    0.0889    2.1181   -0.5050 H   0  0  0  0  0  0  0  0  0  0  0  0
   -2.1912    0.7064    0.7672 H   0  0  0  0  0  0  0  0  0  0  0  0
   -0.4906    0.3239   -1.8174 H   0  0  0  0  0  0  0  0  0  0  0  0
   -1.9726   -0.6901   -1.4012 H   0  0  0  0  0  0  0  0  0  0  0  0
   -0.6313   -2.5915    0.3520 H   0  0  0  0  0  0  0  0  0  0  0  0
  1  2  2  0
  2  3  1  0
  3  4  1  0
  4  5  1  0
  5  6  1  0
  6  7  1  0
  7  8  1  0
  8  9  1  0
  8  3  1  0
  8  6  1  0
  2 10  1  0
  3 11  1  0
  5 12  1  0
  5 13  1  0
  6 14  1  0
  7 15  1  0
  7 16  1  0
  9 17  1  0
M  END
