
     RDKit          3D

 19 20  0  0  0  0  0  0  0  0999 V2000
    3.0381    1.0899    0.3192 O   0  0  0  0  0  0  0  0  0  0  0  0
    2.6401    0.0642   -0.2239 C   0  0  0  0  0  0  0  0  0  0  0  0
    1.2167    0.0372   -0.6592 C   0  0  0  0  0  0  0  0  0  0  0  0
    0.5011   -1.2707   -0.4179 C   0  0  0  0  0  0  0  0  0  0  0  0
   -0.3960   -0.6172    0.5744 C   0  0  0  0  0  0  0  0  0  0  0  0
   -1.8092   -0.3284    0.1109 C   0  0  0  0  0  0  0  0  0  0  0  0
   -1.8708    1.1849    0.3561 C   0  0  0  0  0  0  0  0  0  0  0  0
   -0.6366    1.5709   -0.1967 O   0  0  0  0  0  0  0  0  0  0  0  0
    0.2857    0.7015    0.3316 C   0  0  0  0  0  0  0  0  0  0  0  0
    3.3025   -0.7777   -0.3751 H   0  0  0  0  0  0  0  0  0  0  0  0
    1.0629    0.3388   -1.7226 H   0  0  0  0  0  0  0  0  0  0  0  0
    1.2171   -2.0282    0.0124 H   0  0  0  0  0  0  0  0  0  0  0  0
    0.0278   -1.7301   -1.3066 H   0  0  0  0  0  0  0  0  0  0  0  0
   -0.2917   -1.0542    1.5669 H   0  0  0  0  0  0  0  0  0  0  0  0
   -2.5766   -0.8133    0.7226 H   0  0  0  0  0  0  0  0  0  0  0  0
   -1.9461   -0.4950   -0.9721 H   0  0  0  0  0  0  0  0  0  0  0  0
   -2.7196    1.6535   -0.1373 H   0  0  0  0  0  0  0  0  0  0  0  0
   -1.8304    1.3781    1.4573 H   0  0  0  0  0  0  0  0  0  0  0  0
    0.7850    1.0959    1.2411 H   0  0  0  0  0  0  0  0  0  0  0  0
  1  2  2  0
  2  3  1  0
  3  4  1  0
  4  5  1  0
  5  6  1  0
  6  7  1  0
  7  8  1  0
  8  9  1  0
  9  3  1  0
  9  5  1  0
  2 10  1  0
  3 11  1  0
  4 12  1  0
  4 13  1  0
  5 14  1  0
  6 15  1  0
  6 16  1  0
  7 17  1  0
  7 18  1  0
  9 19  1  0
M  END
