
     RDKit          3D

 15 15  0  0  0  0  0  0  0  0999 V2000
    3.8357   -1.1525    1.1532 O   0  0  0  0  0  0  0  0  0  0  0  0
    3.3879   -0.4318    0.2303 C   0  0  0  0  0  0  0  0  0  0  0  0
    1.9728   -0.3181    0.0034 C   0  0  0  0  0  0  0  0  0  0  0  0
    0.7730   -0.2207   -0.2104 C   0  0  0  0  0  0  0  0  0  0  0  0
   -0.6329   -0.0952   -0.4815 C   0  0  0  0  0  0  0  0  0  0  0  0
   -0.9878   -0.1609   -1.8097 O   0  0  0  0  0  0  0  0  0  0  0  0
   -1.5212   -0.9025    0.4591 C   0  0  0  0  0  0  0  0  0  0  0  0
   -1.2415    0.1007    1.4177 O   0  0  0  0  0  0  0  0  0  0  0  0
   -1.2792    0.9994    0.3243 C   0  0  0  0  0  0  0  0  0  0  0  0
    4.0305    0.1274   -0.4260 H   0  0  0  0  0  0  0  0  0  0  0  0
   -1.5350    0.6048   -2.1127 H   0  0  0  0  0  0  0  0  0  0  0  0
   -2.5789   -0.8276    0.1863 H   0  0  0  0  0  0  0  0  0  0  0  0
   -1.1314   -1.8951    0.7307 H   0  0  0  0  0  0  0  0  0  0  0  0
   -2.3723    1.1318    0.0748 H   0  0  0  0  0  0  0  0  0  0  0  0
   -0.7197    1.9200    0.4604 H   0  0  0  0  0  0  0  0  0  0  0  0
  1  2  2  0
  2  3  1  0
  3  4  3  0
  4  5  1  0
  5  6  1  0
  5  7  1  0
  7  8  1  0
  8  9  1  0
  9  5  1  0
  2 10  1  0
  6 11  1  0
  7 12  1  0
  7 13  1  0
  9 14  1  0
  9 15  1  0
M  END
