
     RDKit          3D

 17 18  0  0  0  0  0  0  0  0999 V2000
    1.4813    2.2751    0.1041 O   0  0  0  0  0  0  0  0  0  0  0  0
    0.3322    1.8986    0.0086 C   0  0  0  0  0  0  0  0  0  0  0  0
   -0.0857    0.4904   -0.2099 C   0  0  0  0  0  0  0  0  0  0  0  0
    0.9175   -0.5006    0.2494 C   0  0  0  0  0  0  0  0  0  0  0  0
    2.2659   -0.6014   -0.2434 C   0  0  0  0  0  0  0  0  0  0  0  0
    1.3157   -1.3842   -0.8757 O   0  0  0  0  0  0  0  0  0  0  0  0
   -1.3775    0.2743    0.5589 C   0  0  0  0  0  0  0  0  0  0  0  0
   -2.0141   -1.0714    0.5052 C   0  0  0  0  0  0  0  0  0  0  0  0
   -2.5616    0.1074   -0.1718 O   0  0  0  0  0  0  0  0  0  0  0  0
   -0.4480    2.6387    0.0877 H   0  0  0  0  0  0  0  0  0  0  0  0
   -0.3312    0.4272   -1.3086 H   0  0  0  0  0  0  0  0  0  0  0  0
    0.6427   -1.1438    1.1228 H   0  0  0  0  0  0  0  0  0  0  0  0
    3.0054   -1.1579    0.3518 H   0  0  0  0  0  0  0  0  0  0  0  0
    2.6901    0.2326   -0.8423 H   0  0  0  0  0  0  0  0  0  0  0  0
   -1.4549    0.7748    1.5528 H   0  0  0  0  0  0  0  0  0  0  0  0
   -2.6268   -1.4449    1.3364 H   0  0  0  0  0  0  0  0  0  0  0  0
   -1.7509   -1.8150   -0.2599 H   0  0  0  0  0  0  0  0  0  0  0  0
  1  2  2  0
  2  3  1  0
  3  4  1  0
  4  5  1  0
  5  6  1  0
  3  7  1  0
  7  8  1  0
  8  9  1  0
  6  4  1  0
  9  7  1  0
  2 10  1  0
  3 11  1  0
  4 12  1  0
  5 13  1  0
  5 14  1  0
  7 15  1  0
  8 16  1  0
  8 17  1  0
M  END
