
     RDKit          3D

 17 18  0  0  0  0  0  0  0  0999 V2000
    1.7052    1.6753    0.8335 O   0  0  0  0  0  0  0  0  0  0  0  0
    1.4252    1.0804   -0.1944 C   0  0  0  0  0  0  0  0  0  0  0  0
    1.3948   -0.3702   -0.3097 C   0  0  0  0  0  0  0  0  0  0  0  0
    0.1438   -1.0869    0.0189 C   0  0  0  0  0  0  0  0  0  0  0  0
   -0.9863   -0.6370   -0.8752 C   0  0  0  0  0  0  0  0  0  0  0  0
   -1.0598    0.7732   -0.2871 C   0  0  0  0  0  0  0  0  0  0  0  0
   -0.8654    0.6035    1.0154 C   0  0  0  0  0  0  0  0  0  0  0  0
   -0.6840   -0.7907    1.2761 C   0  0  0  0  0  0  0  0  0  0  0  0
    0.1975   -1.7367    1.1431 O   0  0  0  0  0  0  0  0  0  0  0  0
    1.1914    1.7072   -1.0496 H   0  0  0  0  0  0  0  0  0  0  0  0
    2.3000   -0.7508    0.2548 H   0  0  0  0  0  0  0  0  0  0  0  0
    1.6478   -0.6784   -1.3726 H   0  0  0  0  0  0  0  0  0  0  0  0
   -0.6595   -0.5167   -1.9004 H   0  0  0  0  0  0  0  0  0  0  0  0
   -1.9171   -1.1701   -0.7021 H   0  0  0  0  0  0  0  0  0  0  0  0
   -1.2345    1.6864   -0.8478 H   0  0  0  0  0  0  0  0  0  0  0  0
   -0.8733    1.4913    1.6796 H   0  0  0  0  0  0  0  0  0  0  0  0
   -1.7258   -1.2796    1.3177 H   0  0  0  0  0  0  0  0  0  0  0  0
  1  2  2  0
  2  3  1  0
  3  4  1  0
  4  5  1  0
  5  6  1  0
  6  7  2  0
  7  8  1  0
  8  9  1  0
  8  4  1  0
  9  4  1  0
  2 10  1  0
  3 11  1  0
  3 12  1  0
  5 13  1  0
  5 14  1  0
  6 15  1  0
  7 16  1  0
  8 17  1  0
M  END
