
     RDKit          3D

 19 19  0  0  0  0  0  0  0  0999 V2000
    2.7920   -1.1216    0.1992 O   0  0  0  0  0  0  0  0  0  0  0  0
    3.6862   -0.5375   -0.9601 C   0  0  0  0  0  0  0  0  0  0  0  0
    3.0945    0.8142   -0.8871 C   0  0  0  0  0  0  0  0  0  0  0  0
    1.4861    0.2560   -0.7226 C   0  0  0  0  0  0  0  0  0  0  0  0
    0.1968   -0.1920   -0.6147 C   0  0  0  0  0  0  0  0  0  0  0  0
   -1.1057   -0.6198   -0.5071 C   0  0  0  0  0  0  0  0  0  0  0  0
   -2.0472    0.5641   -0.8112 C   0  0  0  0  0  0  0  0  0  0  0  0
   -2.6200    0.3452    0.5726 C   0  0  0  0  0  0  0  0  0  0  0  0
   -1.4547   -0.5834    0.9756 C   0  0  0  0  0  0  0  0  0  0  0  0
    4.0921   -1.4369   -1.0213 H   0  0  0  0  0  0  0  0  0  0  0  0
    3.0910    1.1985    0.2234 H   0  0  0  0  0  0  0  0  0  0  0  0
    3.0508    1.5212   -1.5117 H   0  0  0  0  0  0  0  0  0  0  0  0
   -1.3151   -1.4502   -1.1632 H   0  0  0  0  0  0  0  0  0  0  0  0
   -1.5101    1.4884   -1.0038 H   0  0  0  0  0  0  0  0  0  0  0  0
   -2.7790    0.2979   -1.6135 H   0  0  0  0  0  0  0  0  0  0  0  0
   -3.5240   -0.3141    0.5252 H   0  0  0  0  0  0  0  0  0  0  0  0
   -2.7042    1.2895    1.1059 H   0  0  0  0  0  0  0  0  0  0  0  0
   -0.7202    0.0193    1.5966 H   0  0  0  0  0  0  0  0  0  0  0  0
   -1.7093   -1.5386    1.4230 H   0  0  0  0  0  0  0  0  0  0  0  0
  1  2  2  0
  2  3  1  0
  3  4  1  0
  4  5  3  0
  5  6  1  0
  6  7  1  0
  7  8  1  0
  8  9  1  0
  9  6  1  0
  2 10  1  0
  3 11  1  0
  3 12  1  0
  6 13  1  0
  7 14  1  0
  7 15  1  0
  8 16  1  0
  8 17  1  0
  9 18  1  0
  9 19  1  0
M  END
