
     RDKit          3D

 17 18  0  0  0  0  0  0  0  0999 V2000
    2.5154    1.3839    1.1847 O   0  0  0  0  0  0  0  0  0  0  0  0
    1.5297    1.2527    0.4535 C   0  0  0  0  0  0  0  0  0  0  0  0
    0.8067   -0.0171    0.5380 C   0  0  0  0  0  0  0  0  0  0  0  0
    1.3013   -1.0480   -0.4841 C   0  0  0  0  0  0  0  0  0  0  0  0
   -0.0190   -0.9687   -1.1971 C   0  0  0  0  0  0  0  0  0  0  0  0
   -0.4402   -1.4248   -2.2209 O   0  0  0  0  0  0  0  0  0  0  0  0
   -0.5097   -0.1285   -0.1212 C   0  0  0  0  0  0  0  0  0  0  0  0
   -1.5084    0.9126   -0.2169 C   0  0  0  0  0  0  0  0  0  0  0  0
   -1.7451   -0.3407    0.6236 C   0  0  0  0  0  0  0  0  0  0  0  0
    1.2939    2.0885   -0.1803 H   0  0  0  0  0  0  0  0  0  0  0  0
    0.8017   -0.4764    1.5402 H   0  0  0  0  0  0  0  0  0  0  0  0
    2.1526   -0.6916   -1.0748 H   0  0  0  0  0  0  0  0  0  0  0  0
    1.4631   -2.0437   -0.0785 H   0  0  0  0  0  0  0  0  0  0  0  0
   -1.3273    1.8484    0.3681 H   0  0  0  0  0  0  0  0  0  0  0  0
   -2.1951    1.0024   -1.0693 H   0  0  0  0  0  0  0  0  0  0  0  0
   -1.6788   -0.2304    1.7269 H   0  0  0  0  0  0  0  0  0  0  0  0
   -2.4408   -1.1186    0.2081 H   0  0  0  0  0  0  0  0  0  0  0  0
  1  2  2  0
  2  3  1  0
  3  4  1  0
  4  5  1  0
  5  6  2  0
  5  7  1  0
  7  8  1  0
  8  9  1  0
  7  3  1  0
  9  7  1  0
  2 10  1  0
  3 11  1  0
  4 12  1  0
  4 13  1  0
  8 14  1  0
  8 15  1  0
  9 16  1  0
  9 17  1  0
M  END
