
     RDKit          3D

 14 14  0  0  0  0  0  0  0  0999 V2000
   -1.8493    0.6087    1.3101 O   0  0  0  0  0  0  0  0  0  0  0  0
   -0.8634    1.1074    0.7839 C   0  0  0  0  0  0  0  0  0  0  0  0
    0.1560    0.3155    0.0673 C   0  0  0  0  0  0  0  0  0  0  0  0
    1.2828    1.1069   -0.5049 C   0  0  0  0  0  0  0  0  0  0  0  0
    2.2036    0.6002   -1.1246 O   0  0  0  0  0  0  0  0  0  0  0  0
    0.5661   -1.0175    0.6198 C   0  0  0  0  0  0  0  0  0  0  0  0
   -0.2410   -0.9112   -0.6567 C   0  0  0  0  0  0  0  0  0  0  0  0
   -1.5020   -1.4442   -0.5815 O   0  0  0  0  0  0  0  0  0  0  0  0
   -0.7825    2.1881    0.8778 H   0  0  0  0  0  0  0  0  0  0  0  0
    1.3298    2.1898   -0.3902 H   0  0  0  0  0  0  0  0  0  0  0  0
    1.5945   -1.3822    0.4636 H   0  0  0  0  0  0  0  0  0  0  0  0
    0.0600   -1.4163    1.5271 H   0  0  0  0  0  0  0  0  0  0  0  0
    0.2780   -1.1097   -1.6281 H   0  0  0  0  0  0  0  0  0  0  0  0
   -2.2327   -0.8355   -0.7636 H   0  0  0  0  0  0  0  0  0  0  0  0
  1  2  2  0
  2  3  1  0
  3  4  1  0
  4  5  2  0
  3  6  1  0
  6  7  1  0
  7  8  1  0
  7  3  1  0
  2  9  1  0
  4 10  1  0
  6 11  1  0
  6 12  1  0
  7 13  1  0
  8 14  1  0
M  END
