
     RDKit          3D

 17 18  0  0  0  0  0  0  0  0999 V2000
    2.0526   -1.8095    0.3844 O   0  0  0  0  0  0  0  0  0  0  0  0
    1.9708   -0.7799   -0.2623 C   0  0  0  0  0  0  0  0  0  0  0  0
    1.1119    0.2912    0.2477 C   0  0  0  0  0  0  0  0  0  0  0  0
    1.0536    1.4479   -0.5303 O   0  0  0  0  0  0  0  0  0  0  0  0
   -0.2655    1.6187   -0.0392 C   0  0  0  0  0  0  0  0  0  0  0  0
   -0.3379    0.1599    0.0527 C   0  0  0  0  0  0  0  0  0  0  0  0
   -0.9086   -0.6518   -1.0064 C   0  0  0  0  0  0  0  0  0  0  0  0
   -1.4015   -1.5280   -0.0128 O   0  0  0  0  0  0  0  0  0  0  0  0
   -1.1844   -0.5476    0.9831 C   0  0  0  0  0  0  0  0  0  0  0  0
    2.5277   -0.6992   -1.1743 H   0  0  0  0  0  0  0  0  0  0  0  0
    1.3627    0.5977    1.3007 H   0  0  0  0  0  0  0  0  0  0  0  0
   -0.1748    2.1171    0.9624 H   0  0  0  0  0  0  0  0  0  0  0  0
   -0.9332    2.1505   -0.7342 H   0  0  0  0  0  0  0  0  0  0  0  0
   -1.7889   -0.1613   -1.4980 H   0  0  0  0  0  0  0  0  0  0  0  0
   -0.2651   -1.1255   -1.7549 H   0  0  0  0  0  0  0  0  0  0  0  0
   -2.1760   -0.0978    1.2247 H   0  0  0  0  0  0  0  0  0  0  0  0
   -0.6434   -0.9825    1.8568 H   0  0  0  0  0  0  0  0  0  0  0  0
  1  2  2  0
  2  3  1  0
  3  4  1  0
  4  5  1  0
  5  6  1  0
  6  7  1  0
  7  8  1  0
  8  9  1  0
  6  3  1  0
  9  6  1  0
  2 10  1  0
  3 11  1  0
  5 12  1  0
  5 13  1  0
  7 14  1  0
  7 15  1  0
  9 16  1  0
  9 17  1  0
M  END
