
     RDKit          3D

 17 17  0  0  0  0  0  0  0  0999 V2000
   -2.7164    0.1829   -0.7689 O   0  0  0  0  0  0  0  0  0  0  0  0
   -1.9562   -0.7238   -0.5175 C   0  0  0  0  0  0  0  0  0  0  0  0
   -0.7360   -0.5045    0.3003 C   0  0  0  0  0  0  0  0  0  0  0  0
   -0.3249    0.9570    0.2978 C   0  0  0  0  0  0  0  0  0  0  0  0
   -0.6888    1.6897    1.3853 O   0  0  0  0  0  0  0  0  0  0  0  0
    1.1002    0.4818    0.2239 C   0  0  0  0  0  0  0  0  0  0  0  0
    1.8550    1.2148   -0.6732 O   0  0  0  0  0  0  0  0  0  0  0  0
    0.5592   -0.7906   -0.4454 C   0  0  0  0  0  0  0  0  0  0  0  0
    1.2164   -1.9475   -0.0274 O   0  0  0  0  0  0  0  0  0  0  0  0
   -2.1504   -1.7281   -0.8875 H   0  0  0  0  0  0  0  0  0  0  0  0
   -0.7083   -0.9978    1.2758 H   0  0  0  0  0  0  0  0  0  0  0  0
   -0.6153    1.4376   -0.6431 H   0  0  0  0  0  0  0  0  0  0  0  0
   -0.3808    1.3862    2.2504 H   0  0  0  0  0  0  0  0  0  0  0  0
    1.5832    0.2026    1.1580 H   0  0  0  0  0  0  0  0  0  0  0  0
    1.3033    1.4961   -1.4224 H   0  0  0  0  0  0  0  0  0  0  0  0
    0.4702   -0.6727   -1.5418 H   0  0  0  0  0  0  0  0  0  0  0  0
    2.1897   -1.6838    0.0358 H   0  0  0  0  0  0  0  0  0  0  0  0
  1  2  2  0
  2  3  1  0
  3  4  1  0
  4  5  1  0
  4  6  1  0
  6  7  1  0
  6  8  1  0
  8  9  1  0
  8  3  1  0
  2 10  1  0
  3 11  1  0
  4 12  1  0
  5 13  1  0
  6 14  1  0
  7 15  1  0
  8 16  1  0
  9 17  1  0
M  END
