
     RDKit          3D

 19 19  0  0  0  0  0  0  0  0999 V2000
   -3.8342    1.0970    0.1273 O   0  0  0  0  0  0  0  0  0  0  0  0
   -3.3579    0.0118   -0.1275 C   0  0  0  0  0  0  0  0  0  0  0  0
   -1.8719   -0.2573    0.0233 C   0  0  0  0  0  0  0  0  0  0  0  0
   -1.2954    0.8876    0.4609 O   0  0  0  0  0  0  0  0  0  0  0  0
    0.0223    0.9386    0.7374 C   0  0  0  0  0  0  0  0  0  0  0  0
    0.9962    0.6057   -0.3342 C   0  0  0  0  0  0  0  0  0  0  0  0
    1.0899   -0.6914   -1.0011 C   0  0  0  0  0  0  0  0  0  0  0  0
    2.1358   -0.3153    0.0641 C   0  0  0  0  0  0  0  0  0  0  0  0
    3.4047    0.0586   -0.3626 O   0  0  0  0  0  0  0  0  0  0  0  0
   -3.9984   -0.7807   -0.4682 H   0  0  0  0  0  0  0  0  0  0  0  0
   -1.6925   -1.1702    0.5991 H   0  0  0  0  0  0  0  0  0  0  0  0
   -1.5777   -0.5078   -1.0461 H   0  0  0  0  0  0  0  0  0  0  0  0
    0.2575    2.0117    1.0449 H   0  0  0  0  0  0  0  0  0  0  0  0
    0.3108    0.3565    1.6557 H   0  0  0  0  0  0  0  0  0  0  0  0
    1.2858    1.4914   -0.9883 H   0  0  0  0  0  0  0  0  0  0  0  0
    0.4544   -1.5371   -0.7156 H   0  0  0  0  0  0  0  0  0  0  0  0
    1.5400   -0.7282   -2.0221 H   0  0  0  0  0  0  0  0  0  0  0  0
    2.0824   -0.8493    1.0231 H   0  0  0  0  0  0  0  0  0  0  0  0
    4.0481   -0.6217   -0.0168 H   0  0  0  0  0  0  0  0  0  0  0  0
  1  2  2  0
  2  3  1  0
  3  4  1  0
  4  5  1  0
  5  6  1  0
  6  7  1  0
  7  8  1  0
  8  9  1  0
  8  6  1  0
  2 10  1  0
  3 11  1  0
  3 12  1  0
  5 13  1  0
  5 14  1  0
  6 15  1  0
  7 16  1  0
  7 17  1  0
  8 18  1  0
  9 19  1  0
M  END
