
     RDKit          3D

 13 14  0  0  0  0  0  0  0  0999 V2000
   -0.8730    0.8561    2.0220 O   0  0  0  0  0  0  0  0  0  0  0  0
   -1.3535    0.3731    0.9907 C   0  0  0  0  0  0  0  0  0  0  0  0
   -0.7394    0.6074   -0.3510 C   0  0  0  0  0  0  0  0  0  0  0  0
   -1.4127    0.0143   -1.2912 O   0  0  0  0  0  0  0  0  0  0  0  0
   -0.2857   -0.6159   -1.1614 C   0  0  0  0  0  0  0  0  0  0  0  0
    0.6001   -1.1629   -0.1851 C   0  0  0  0  0  0  0  0  0  0  0  0
    1.2263   -0.1679    0.4310 C   0  0  0  0  0  0  0  0  0  0  0  0
    0.6700    1.0470   -0.2056 C   0  0  0  0  0  0  0  0  0  0  0  0
    1.2535    2.0865   -0.5022 O   0  0  0  0  0  0  0  0  0  0  0  0
   -2.2434   -0.2375    1.0524 H   0  0  0  0  0  0  0  0  0  0  0  0
    0.3455   -0.3878   -2.1144 H   0  0  0  0  0  0  0  0  0  0  0  0
    0.8090   -2.1983    0.0950 H   0  0  0  0  0  0  0  0  0  0  0  0
    2.0031   -0.2141    1.2197 H   0  0  0  0  0  0  0  0  0  0  0  0
  1  2  2  0
  2  3  1  0
  3  4  1  0
  4  5  1  0
  5  6  1  0
  6  7  2  0
  7  8  1  0
  8  9  2  0
  5  3  1  0
  8  3  1  0
  2 10  1  0
  5 11  1  0
  6 12  1  0
  7 13  1  0
M  END
