
     RDKit          3D

 17 17  0  0  0  0  0  0  0  0999 V2000
   -2.1905    2.0068    0.7771 O   0  0  0  0  0  0  0  0  0  0  0  0
   -1.0704    1.7972    0.3234 C   0  0  0  0  0  0  0  0  0  0  0  0
   -0.7300    0.4950   -0.2476 C   0  0  0  0  0  0  0  0  0  0  0  0
   -1.8367   -0.3497   -0.1669 O   0  0  0  0  0  0  0  0  0  0  0  0
   -1.2516   -1.5899   -0.3834 C   0  0  0  0  0  0  0  0  0  0  0  0
   -0.0138   -1.5904    0.2091 O   0  0  0  0  0  0  0  0  0  0  0  0
    0.3044   -0.2666    0.5222 C   0  0  0  0  0  0  0  0  0  0  0  0
    1.7108   -0.0120    0.0045 C   0  0  0  0  0  0  0  0  0  0  0  0
    1.7768   -0.2012   -1.3562 O   0  0  0  0  0  0  0  0  0  0  0  0
   -0.3915    2.6456    0.3894 H   0  0  0  0  0  0  0  0  0  0  0  0
   -0.3791    0.5599   -1.2980 H   0  0  0  0  0  0  0  0  0  0  0  0
   -1.8482   -2.4166    0.0418 H   0  0  0  0  0  0  0  0  0  0  0  0
   -1.1288   -1.7158   -1.4815 H   0  0  0  0  0  0  0  0  0  0  0  0
    0.2434   -0.1518    1.6118 H   0  0  0  0  0  0  0  0  0  0  0  0
    1.9844    1.0202    0.2466 H   0  0  0  0  0  0  0  0  0  0  0  0
    2.4210   -0.6958    0.5130 H   0  0  0  0  0  0  0  0  0  0  0  0
    2.3997    0.4650   -1.7363 H   0  0  0  0  0  0  0  0  0  0  0  0
  1  2  2  0
  2  3  1  0
  3  4  1  0
  4  5  1  0
  5  6  1  0
  6  7  1  0
  7  8  1  0
  8  9  1  0
  7  3  1  0
  2 10  1  0
  3 11  1  0
  5 12  1  0
  5 13  1  0
  7 14  1  0
  8 15  1  0
  8 16  1  0
  9 17  1  0
M  END
