
     RDKit          3D

 15 17  0  0  0  0  0  0  0  0999 V2000
    2.7915   -0.3175    0.6846 O   0  0  0  0  0  0  0  0  0  0  0  0
    2.0659   -0.5376   -0.2644 C   0  0  0  0  0  0  0  0  0  0  0  0
    0.6860   -0.1050   -0.3324 C   0  0  0  0  0  0  0  0  0  0  0  0
    0.4113    1.3349    0.0264 C   0  0  0  0  0  0  0  0  0  0  0  0
   -0.8340    1.4421    0.4642 C   0  0  0  0  0  0  0  0  0  0  0  0
   -1.4959    0.1087    0.4398 C   0  0  0  0  0  0  0  0  0  0  0  0
   -1.1707   -0.7333   -0.7405 C   0  0  0  0  0  0  0  0  0  0  0  0
   -0.0360   -0.4146   -1.4613 O   0  0  0  0  0  0  0  0  0  0  0  0
   -0.3444   -0.8038    0.4757 C   0  0  0  0  0  0  0  0  0  0  0  0
    2.5291   -1.0987   -1.0899 H   0  0  0  0  0  0  0  0  0  0  0  0
    1.1067    2.1507   -0.0560 H   0  0  0  0  0  0  0  0  0  0  0  0
   -1.3179    2.3445    0.7935 H   0  0  0  0  0  0  0  0  0  0  0  0
   -2.3268   -0.1036    1.1045 H   0  0  0  0  0  0  0  0  0  0  0  0
   -1.8332   -1.5570   -1.0625 H   0  0  0  0  0  0  0  0  0  0  0  0
   -0.2313   -1.7097    1.0182 H   0  0  0  0  0  0  0  0  0  0  0  0
  1  2  2  0
  2  3  1  0
  3  4  1  0
  4  5  2  0
  5  6  1  0
  6  7  1  0
  7  8  1  0
  7  9  1  0
  8  3  1  0
  9  3  1  0
  9  6  1  0
  2 10  1  0
  4 11  1  0
  5 12  1  0
  6 13  1  0
  7 14  1  0
  9 15  1  0
M  END
