
     RDKit          3D

 19 19  0  0  0  0  0  0  0  0999 V2000
    3.4012    0.1525   -0.2894 O   0  0  0  0  0  0  0  0  0  0  0  0
    2.4083    0.9115   -0.2456 C   0  0  0  0  0  0  0  0  0  0  0  0
    1.0279    0.4416   -0.1448 C   0  0  0  0  0  0  0  0  0  0  0  0
    0.1091    1.3868   -0.1106 C   0  0  0  0  0  0  0  0  0  0  0  0
   -1.3595    1.3053   -0.0146 C   0  0  0  0  0  0  0  0  0  0  0  0
   -1.7688    0.1132    0.7483 C   0  0  0  0  0  0  0  0  0  0  0  0
   -1.3699   -1.1253    0.5752 C   0  0  0  0  0  0  0  0  0  0  0  0
   -0.3853   -1.6099   -0.4630 C   0  0  0  0  0  0  0  0  0  0  0  0
    0.9313   -1.0355   -0.0983 C   0  0  0  0  0  0  0  0  0  0  0  0
    2.5651    1.9733   -0.2833 H   0  0  0  0  0  0  0  0  0  0  0  0
    0.4936    2.3973   -0.1615 H   0  0  0  0  0  0  0  0  0  0  0  0
   -1.7982    2.2355    0.4173 H   0  0  0  0  0  0  0  0  0  0  0  0
   -1.8116    1.1649   -1.0442 H   0  0  0  0  0  0  0  0  0  0  0  0
   -2.4719    0.2807    1.5325 H   0  0  0  0  0  0  0  0  0  0  0  0
   -1.7861   -1.8489    1.2344 H   0  0  0  0  0  0  0  0  0  0  0  0
   -0.3254   -2.6946   -0.5092 H   0  0  0  0  0  0  0  0  0  0  0  0
   -0.7434   -1.1934   -1.4258 H   0  0  0  0  0  0  0  0  0  0  0  0
    1.7406   -1.5322   -0.6870 H   0  0  0  0  0  0  0  0  0  0  0  0
    1.1431   -1.3228    0.9698 H   0  0  0  0  0  0  0  0  0  0  0  0
  1  2  2  0
  2  3  1  0
  3  4  2  0
  4  5  1  0
  5  6  1  0
  6  7  2  0
  7  8  1  0
  8  9  1  0
  9  3  1  0
  2 10  1  0
  4 11  1  0
  5 12  1  0
  5 13  1  0
  6 14  1  0
  7 15  1  0
  8 16  1  0
  8 17  1  0
  9 18  1  0
  9 19  1  0
M  END
