
     RDKit          3D

 17 19  0  0  0  0  0  0  0  0999 V2000
    2.9032    0.2497    0.3534 O   0  0  0  0  0  0  0  0  0  0  0  0
    1.8844    0.5668   -0.2269 C   0  0  0  0  0  0  0  0  0  0  0  0
    0.6554   -0.1012    0.0234 C   0  0  0  0  0  0  0  0  0  0  0  0
    0.5898   -1.5673    0.1149 C   0  0  0  0  0  0  0  0  0  0  0  0
   -0.7172   -1.7914    0.3943 C   0  0  0  0  0  0  0  0  0  0  0  0
   -1.2958   -0.4440    0.3717 C   0  0  0  0  0  0  0  0  0  0  0  0
   -0.5742    0.2732   -0.7366 C   0  0  0  0  0  0  0  0  0  0  0  0
   -0.6342    1.4929    0.1285 C   0  0  0  0  0  0  0  0  0  0  0  0
   -0.2786    0.3925    1.0884 C   0  0  0  0  0  0  0  0  0  0  0  0
    1.9418    1.3919   -0.9569 H   0  0  0  0  0  0  0  0  0  0  0  0
    1.3938   -2.2816   -0.0117 H   0  0  0  0  0  0  0  0  0  0  0  0
   -1.2218   -2.7295    0.5882 H   0  0  0  0  0  0  0  0  0  0  0  0
   -2.3305   -0.2823    0.5250 H   0  0  0  0  0  0  0  0  0  0  0  0
   -0.7466    0.2000   -1.7188 H   0  0  0  0  0  0  0  0  0  0  0  0
    0.1769    2.2384   -0.0174 H   0  0  0  0  0  0  0  0  0  0  0  0
   -1.6320    1.9303    0.2158 H   0  0  0  0  0  0  0  0  0  0  0  0
   -0.1145    0.4616    2.0700 H   0  0  0  0  0  0  0  0  0  0  0  0
  1  2  2  0
  2  3  1  0
  3  4  1  0
  4  5  2  0
  5  6  1  0
  6  7  1  0
  7  8  1  0
  8  9  1  0
  7  3  1  0
  9  3  1  0
  9  6  1  0
  2 10  1  0
  4 11  1  0
  5 12  1  0
  6 13  1  0
  7 14  1  0
  8 15  1  0
  8 16  1  0
  9 17  1  0
M  END
