
     RDKit          3D

 15 15  0  0  0  0  0  0  0  0999 V2000
    1.4014   -1.7138   -1.2860 O   0  0  0  0  0  0  0  0  0  0  0  0
    1.3815   -0.7369   -0.5599 C   0  0  0  0  0  0  0  0  0  0  0  0
    0.5187   -0.6277    0.6257 C   0  0  0  0  0  0  0  0  0  0  0  0
    0.7419    0.6082    1.2253 O   0  0  0  0  0  0  0  0  0  0  0  0
    0.1664    1.5454    0.3540 C   0  0  0  0  0  0  0  0  0  0  0  0
   -1.0621    0.8645   -0.1276 C   0  0  0  0  0  0  0  0  0  0  0  0
   -1.9628    1.3783   -0.7340 O   0  0  0  0  0  0  0  0  0  0  0  0
   -0.9488   -0.5328    0.2821 C   0  0  0  0  0  0  0  0  0  0  0  0
   -1.3814   -1.4593   -0.6131 O   0  0  0  0  0  0  0  0  0  0  0  0
    2.0374    0.0819   -0.8145 H   0  0  0  0  0  0  0  0  0  0  0  0
    0.7203   -1.4069    1.3869 H   0  0  0  0  0  0  0  0  0  0  0  0
    0.8721    1.7287   -0.4697 H   0  0  0  0  0  0  0  0  0  0  0  0
   -0.0560    2.4373    0.9628 H   0  0  0  0  0  0  0  0  0  0  0  0
   -1.5074   -0.6685    1.2311 H   0  0  0  0  0  0  0  0  0  0  0  0
   -0.9211   -1.4982   -1.4630 H   0  0  0  0  0  0  0  0  0  0  0  0
  1  2  2  0
  2  3  1  0
  3  4  1  0
  4  5  1  0
  5  6  1  0
  6  7  2  0
  6  8  1  0
  8  9  1  0
  8  3  1  0
  2 10  1  0
  3 11  1  0
  5 12  1  0
  5 13  1  0
  8 14  1  0
  9 15  1  0
M  END
