
     RDKit          3D

 17 19  0  0  0  0  0  0  0  0999 V2000
    3.2245    0.7193   -0.2257 O   0  0  0  0  0  0  0  0  0  0  0  0
    2.3618    0.0554    0.2807 C   0  0  0  0  0  0  0  0  0  0  0  0
    1.0409    0.6351    0.5545 C   0  0  0  0  0  0  0  0  0  0  0  0
    0.0220    0.5474   -0.5448 C   0  0  0  0  0  0  0  0  0  0  0  0
   -1.0294    0.5943    0.5072 C   0  0  0  0  0  0  0  0  0  0  0  0
   -2.0923   -0.3013   -0.0435 C   0  0  0  0  0  0  0  0  0  0  0  0
   -1.3010   -1.3767   -0.5156 O   0  0  0  0  0  0  0  0  0  0  0  0
   -0.0151   -0.9354   -0.2668 C   0  0  0  0  0  0  0  0  0  0  0  0
    0.0146   -0.3142    1.0960 C   0  0  0  0  0  0  0  0  0  0  0  0
    2.5860   -0.9720    0.5261 H   0  0  0  0  0  0  0  0  0  0  0  0
    1.0320    1.6559    0.9911 H   0  0  0  0  0  0  0  0  0  0  0  0
    0.0430    0.9889   -1.4403 H   0  0  0  0  0  0  0  0  0  0  0  0
   -1.2800    1.5017    0.9967 H   0  0  0  0  0  0  0  0  0  0  0  0
   -2.8352   -0.6239    0.6838 H   0  0  0  0  0  0  0  0  0  0  0  0
   -2.5835    0.1285   -0.9599 H   0  0  0  0  0  0  0  0  0  0  0  0
    0.8150   -1.5341   -0.5875 H   0  0  0  0  0  0  0  0  0  0  0  0
   -0.0034   -0.7690    1.9844 H   0  0  0  0  0  0  0  0  0  0  0  0
  1  2  2  0
  2  3  1  0
  3  4  1  0
  4  5  1  0
  5  6  1  0
  6  7  1  0
  7  8  1  0
  8  9  1  0
  9  3  1  0
  8  4  1  0
  9  5  1  0
  2 10  1  0
  3 11  1  0
  4 12  1  0
  5 13  1  0
  6 14  1  0
  6 15  1  0
  8 16  1  0
  9 17  1  0
M  END
