
     RDKit          3D

 15 16  0  0  0  0  0  0  0  0999 V2000
   -2.4063   -0.2818    1.2289 O   0  0  0  0  0  0  0  0  0  0  0  0
   -2.3785    0.0109    0.0375 C   0  0  0  0  0  0  0  0  0  0  0  0
   -1.1074    0.1727   -0.6768 C   0  0  0  0  0  0  0  0  0  0  0  0
    0.1080   -0.0240    0.0695 C   0  0  0  0  0  0  0  0  0  0  0  0
    1.4060    0.1535   -0.7097 C   0  0  0  0  0  0  0  0  0  0  0  0
    2.0908   -0.4107    0.5082 C   0  0  0  0  0  0  0  0  0  0  0  0
    3.2435   -0.6186    0.7283 O   0  0  0  0  0  0  0  0  0  0  0  0
    0.7218   -0.5142    1.1112 C   0  0  0  0  0  0  0  0  0  0  0  0
    0.1641    0.8789    1.2501 O   0  0  0  0  0  0  0  0  0  0  0  0
   -3.3261    0.1438   -0.4610 H   0  0  0  0  0  0  0  0  0  0  0  0
   -1.0987    1.2192   -1.1071 H   0  0  0  0  0  0  0  0  0  0  0  0
   -1.1380   -0.4901   -1.5715 H   0  0  0  0  0  0  0  0  0  0  0  0
    1.4891   -0.4748   -1.5916 H   0  0  0  0  0  0  0  0  0  0  0  0
    1.6016    1.2184   -0.8904 H   0  0  0  0  0  0  0  0  0  0  0  0
    0.6300   -0.9831    2.0745 H   0  0  0  0  0  0  0  0  0  0  0  0
  1  2  2  0
  2  3  1  0
  3  4  1  0
  4  5  1  0
  5  6  1  0
  6  7  2  0
  6  8  1  0
  8  9  1  0
  8  4  1  0
  9  4  1  0
  2 10  1  0
  3 11  1  0
  3 12  1  0
  5 13  1  0
  5 14  1  0
  8 15  1  0
M  END
