
     RDKit          3D

 15 16  0  0  0  0  0  0  0  0999 V2000
   -2.8795   -0.2103   -0.5338 O   0  0  0  0  0  0  0  0  0  0  0  0
   -1.8730   -0.8820   -0.5368 C   0  0  0  0  0  0  0  0  0  0  0  0
   -0.8037   -0.6131    0.4459 C   0  0  0  0  0  0  0  0  0  0  0  0
    0.2454   -1.5424    0.2128 O   0  0  0  0  0  0  0  0  0  0  0  0
    1.3295   -0.9368   -0.3506 C   0  0  0  0  0  0  0  0  0  0  0  0
    2.3961   -1.4805   -0.6828 O   0  0  0  0  0  0  0  0  0  0  0  0
    1.0204    0.4924   -0.5021 C   0  0  0  0  0  0  0  0  0  0  0  0
    1.0071    1.2497    0.7669 C   0  0  0  0  0  0  0  0  0  0  0  0
   -0.2669    0.7574    0.2316 C   0  0  0  0  0  0  0  0  0  0  0  0
   -1.7827   -1.6663   -1.2636 H   0  0  0  0  0  0  0  0  0  0  0  0
   -1.1497   -0.7977    1.4963 H   0  0  0  0  0  0  0  0  0  0  0  0
    1.0844    0.9903   -1.4832 H   0  0  0  0  0  0  0  0  0  0  0  0
    1.1711    2.3411    0.7084 H   0  0  0  0  0  0  0  0  0  0  0  0
    1.4909    0.8056    1.6735 H   0  0  0  0  0  0  0  0  0  0  0  0
   -0.9893    1.4929   -0.1826 H   0  0  0  0  0  0  0  0  0  0  0  0
  1  2  2  0
  2  3  1  0
  3  4  1  0
  4  5  1  0
  5  6  2  0
  5  7  1  0
  7  8  1  0
  8  9  1  0
  9  3  1  0
  9  7  1  0
  2 10  1  0
  3 11  1  0
  7 12  1  0
  8 13  1  0
  8 14  1  0
  9 15  1  0
M  END
