
     RDKit          3D

 23 23  0  0  0  0  0  0  0  0999 V2000
   -4.2106    0.0208   -0.2815 O   0  0  0  0  0  0  0  0  0  0  0  0
   -3.5295    0.8410    0.2833 C   0  0  0  0  0  0  0  0  0  0  0  0
   -2.0737    0.6211    0.4335 C   0  0  0  0  0  0  0  0  0  0  0  0
   -1.6646   -0.6823   -0.1895 C   0  0  0  0  0  0  0  0  0  0  0  0
   -0.2115   -0.9901   -0.0790 C   0  0  0  0  0  0  0  0  0  0  0  0
    0.6106    0.0707   -0.7570 C   0  0  0  0  0  0  0  0  0  0  0  0
    2.0935   -0.2776   -0.6338 C   0  0  0  0  0  0  0  0  0  0  0  0
    2.5763   -0.3771    0.7810 C   0  0  0  0  0  0  0  0  0  0  0  0
    2.9994    0.7512   -0.1184 C   0  0  0  0  0  0  0  0  0  0  0  0
   -3.9804    1.7302    0.6766 H   0  0  0  0  0  0  0  0  0  0  0  0
   -1.8599    0.5201    1.5382 H   0  0  0  0  0  0  0  0  0  0  0  0
   -1.4976    1.4763    0.0217 H   0  0  0  0  0  0  0  0  0  0  0  0
   -1.9569   -0.6060   -1.2763 H   0  0  0  0  0  0  0  0  0  0  0  0
   -2.3008   -1.5194    0.1932 H   0  0  0  0  0  0  0  0  0  0  0  0
    0.0102   -1.9802   -0.5471 H   0  0  0  0  0  0  0  0  0  0  0  0
    0.0310   -1.0276    1.0167 H   0  0  0  0  0  0  0  0  0  0  0  0
    0.4542    1.0420   -0.2077 H   0  0  0  0  0  0  0  0  0  0  0  0
    0.2901    0.1771   -1.8048 H   0  0  0  0  0  0  0  0  0  0  0  0
    2.4213   -1.0554   -1.3721 H   0  0  0  0  0  0  0  0  0  0  0  0
    1.9193   -0.0839    1.6122 H   0  0  0  0  0  0  0  0  0  0  0  0
    3.2658   -1.2052    0.9863 H   0  0  0  0  0  0  0  0  0  0  0  0
    2.5463    1.7563    0.0618 H   0  0  0  0  0  0  0  0  0  0  0  0
    4.0674    0.7979   -0.3372 H   0  0  0  0  0  0  0  0  0  0  0  0
  1  2  2  0
  2  3  1  0
  3  4  1  0
  4  5  1  0
  5  6  1  0
  6  7  1  0
  7  8  1  0
  8  9  1  0
  9  7  1  0
  2 10  1  0
  3 11  1  0
  3 12  1  0
  4 13  1  0
  4 14  1  0
  5 15  1  0
  5 16  1  0
  6 17  1  0
  6 18  1  0
  7 19  1  0
  8 20  1  0
  8 21  1  0
  9 22  1  0
  9 23  1  0
M  END
