
     RDKit          3D

 15 14  0  0  0  0  0  0  0  0999 V2000
    4.1304   -0.5708    0.8225 O   0  0  0  0  0  0  0  0  0  0  0  0
    3.4455   -1.1584   -0.0219 C   0  0  0  0  0  0  0  0  0  0  0  0
    2.1263   -0.7962   -0.4528 C   0  0  0  0  0  0  0  0  0  0  0  0
    0.9554   -0.4760   -0.8576 C   0  0  0  0  0  0  0  0  0  0  0  0
   -0.2627   -0.1610   -1.2935 C   0  0  0  0  0  0  0  0  0  0  0  0
   -0.8282   -0.5171   -2.3279 O   0  0  0  0  0  0  0  0  0  0  0  0
   -1.1001    0.7726   -0.4245 C   0  0  0  0  0  0  0  0  0  0  0  0
   -1.8432    0.1757    0.6751 C   0  0  0  0  0  0  0  0  0  0  0  0
   -2.4715    1.2554    1.4130 O   0  0  0  0  0  0  0  0  0  0  0  0
    3.9181   -2.0724   -0.4984 H   0  0  0  0  0  0  0  0  0  0  0  0
   -0.3395    1.5395   -0.0602 H   0  0  0  0  0  0  0  0  0  0  0  0
   -1.7774    1.3649   -1.1403 H   0  0  0  0  0  0  0  0  0  0  0  0
   -1.3363   -0.4426    1.3778 H   0  0  0  0  0  0  0  0  0  0  0  0
   -2.7595   -0.3847    0.3084 H   0  0  0  0  0  0  0  0  0  0  0  0
   -1.8573    1.4712    2.1765 H   0  0  0  0  0  0  0  0  0  0  0  0
  1  2  2  0
  2  3  1  0
  3  4  3  0
  4  5  1  0
  5  6  2  0
  5  7  1  0
  7  8  1  0
  8  9  1  0
  2 10  1  0
  7 11  1  0
  7 12  1  0
  8 13  1  0
  8 14  1  0
  9 15  1  0
M  END
