
     RDKit          3D

 19 19  0  0  0  0  0  0  0  0999 V2000
    3.0320    1.3411    0.0124 O   0  0  0  0  0  0  0  0  0  0  0  0
    2.5191    0.2437   -0.3110 C   0  0  0  0  0  0  0  0  0  0  0  0
    1.0986    0.0552   -0.0989 C   0  0  0  0  0  0  0  0  0  0  0  0
    0.4563    1.0803    0.4284 C   0  0  0  0  0  0  0  0  0  0  0  0
   -0.9908    1.1676    0.7530 C   0  0  0  0  0  0  0  0  0  0  0  0
   -1.7469    0.5635   -0.3993 C   0  0  0  0  0  0  0  0  0  0  0  0
   -1.8121   -0.7889   -0.4022 O   0  0  0  0  0  0  0  0  0  0  0  0
   -0.7842   -1.4666    0.1802 C   0  0  0  0  0  0  0  0  0  0  0  0
    0.5546   -1.2643   -0.5023 C   0  0  0  0  0  0  0  0  0  0  0  0
    3.1254   -0.5263   -0.7319 H   0  0  0  0  0  0  0  0  0  0  0  0
    1.0564    1.9465    0.6444 H   0  0  0  0  0  0  0  0  0  0  0  0
   -1.2318    0.6893    1.7200 H   0  0  0  0  0  0  0  0  0  0  0  0
   -1.3241    2.2256    0.8387 H   0  0  0  0  0  0  0  0  0  0  0  0
   -2.7470    1.0372   -0.4557 H   0  0  0  0  0  0  0  0  0  0  0  0
   -1.2138    0.9045   -1.3339 H   0  0  0  0  0  0  0  0  0  0  0  0
   -1.0353   -2.5590    0.1329 H   0  0  0  0  0  0  0  0  0  0  0  0
   -0.6412   -1.2382    1.2465 H   0  0  0  0  0  0  0  0  0  0  0  0
    1.2253   -2.0588   -0.1091 H   0  0  0  0  0  0  0  0  0  0  0  0
    0.4595   -1.3523   -1.6119 H   0  0  0  0  0  0  0  0  0  0  0  0
  1  2  2  0
  2  3  1  0
  3  4  2  0
  4  5  1  0
  5  6  1  0
  6  7  1  0
  7  8  1  0
  8  9  1  0
  9  3  1  0
  2 10  1  0
  4 11  1  0
  5 12  1  0
  5 13  1  0
  6 14  1  0
  6 15  1  0
  8 16  1  0
  8 17  1  0
  9 18  1  0
  9 19  1  0
M  END
