
     RDKit          3D

 17 17  0  0  0  0  0  0  0  0999 V2000
    2.6143    0.6071   -1.2190 O   0  0  0  0  0  0  0  0  0  0  0  0
    1.4439    0.7502   -0.9308 C   0  0  0  0  0  0  0  0  0  0  0  0
    0.9424    0.1248    0.3149 C   0  0  0  0  0  0  0  0  0  0  0  0
   -0.2761    0.8010    0.8535 C   0  0  0  0  0  0  0  0  0  0  0  0
   -1.5374    0.4580    0.1365 C   0  0  0  0  0  0  0  0  0  0  0  0
   -1.4749   -0.7743   -0.6550 C   0  0  0  0  0  0  0  0  0  0  0  0
   -2.3040   -0.9405   -1.5989 O   0  0  0  0  0  0  0  0  0  0  0  0
   -0.5046   -1.7123   -0.3351 O   0  0  0  0  0  0  0  0  0  0  0  0
    0.7727   -1.3687    0.1722 C   0  0  0  0  0  0  0  0  0  0  0  0
    0.7961    1.3169   -1.5679 H   0  0  0  0  0  0  0  0  0  0  0  0
    1.7593    0.2710    1.0823 H   0  0  0  0  0  0  0  0  0  0  0  0
   -0.3667    0.5025    1.9350 H   0  0  0  0  0  0  0  0  0  0  0  0
   -0.0994    1.8967    0.8111 H   0  0  0  0  0  0  0  0  0  0  0  0
   -2.3831    0.3302    0.8743 H   0  0  0  0  0  0  0  0  0  0  0  0
   -1.8450    1.3025   -0.5093 H   0  0  0  0  0  0  0  0  0  0  0  0
    0.9099   -1.8166    1.1681 H   0  0  0  0  0  0  0  0  0  0  0  0
    1.5526   -1.7484   -0.5318 H   0  0  0  0  0  0  0  0  0  0  0  0
  1  2  2  0
  2  3  1  0
  3  4  1  0
  4  5  1  0
  5  6  1  0
  6  7  2  0
  6  8  1  0
  8  9  1  0
  9  3  1  0
  2 10  1  0
  3 11  1  0
  4 12  1  0
  4 13  1  0
  5 14  1  0
  5 15  1  0
  9 16  1  0
  9 17  1  0
M  END
