
     RDKit          3D

 17 17  0  0  0  0  0  0  0  0999 V2000
    2.0236   -0.2130    1.3511 O   0  0  0  0  0  0  0  0  0  0  0  0
    2.7971    0.0530    0.4484 C   0  0  0  0  0  0  0  0  0  0  0  0
    2.3030    0.2164   -0.9243 C   0  0  0  0  0  0  0  0  0  0  0  0
    0.8466    0.0283   -1.0520 C   0  0  0  0  0  0  0  0  0  0  0  0
    0.3185    0.1464   -2.1886 O   0  0  0  0  0  0  0  0  0  0  0  0
   -0.0027   -0.2730   -0.0060 O   0  0  0  0  0  0  0  0  0  0  0  0
   -1.3881   -0.4530   -0.1212 C   0  0  0  0  0  0  0  0  0  0  0  0
   -2.1404   -1.4138    0.6920 C   0  0  0  0  0  0  0  0  0  0  0  0
   -2.3302    0.1064    0.8900 C   0  0  0  0  0  0  0  0  0  0  0  0
    3.8402    0.1590    0.7083 H   0  0  0  0  0  0  0  0  0  0  0  0
    2.6381    1.2131   -1.3011 H   0  0  0  0  0  0  0  0  0  0  0  0
    2.8446   -0.5283   -1.5636 H   0  0  0  0  0  0  0  0  0  0  0  0
   -1.7527   -0.3250   -1.1769 H   0  0  0  0  0  0  0  0  0  0  0  0
   -1.6809   -1.9630    1.5526 H   0  0  0  0  0  0  0  0  0  0  0  0
   -3.0325   -1.9298    0.2908 H   0  0  0  0  0  0  0  0  0  0  0  0
   -3.3133    0.5256    0.5653 H   0  0  0  0  0  0  0  0  0  0  0  0
   -1.9708    0.5372    1.8351 H   0  0  0  0  0  0  0  0  0  0  0  0
  1  2  2  0
  2  3  1  0
  3  4  1  0
  4  5  2  0
  4  6  1  0
  6  7  1  0
  7  8  1  0
  8  9  1  0
  9  7  1  0
  2 10  1  0
  3 11  1  0
  3 12  1  0
  7 13  1  0
  8 14  1  0
  8 15  1  0
  9 16  1  0
  9 17  1  0
M  END
