
     RDKit          3D

 16 17  0  0  0  0  0  0  0  0999 V2000
    1.5644   -1.3472    1.9288 O   0  0  0  0  0  0  0  0  0  0  0  0
    1.8432   -0.6301    0.9875 C   0  0  0  0  0  0  0  0  0  0  0  0
    0.8396   -0.4122   -0.0551 C   0  0  0  0  0  0  0  0  0  0  0  0
    0.8792    1.0415   -0.5336 C   0  0  0  0  0  0  0  0  0  0  0  0
   -0.3606    1.2782   -0.9645 C   0  0  0  0  0  0  0  0  0  0  0  0
   -1.1424    0.0962   -0.7956 C   0  0  0  0  0  0  0  0  0  0  0  0
   -1.8297   -0.6003    0.2070 C   0  0  0  0  0  0  0  0  0  0  0  0
   -0.5174   -0.3047    0.5808 C   0  0  0  0  0  0  0  0  0  0  0  0
    2.8355   -0.1707    0.9502 H   0  0  0  0  0  0  0  0  0  0  0  0
    0.8617   -1.0941   -0.9032 H   0  0  0  0  0  0  0  0  0  0  0  0
    1.7440    1.6984   -0.5101 H   0  0  0  0  0  0  0  0  0  0  0  0
   -0.5861    2.2785   -1.3595 H   0  0  0  0  0  0  0  0  0  0  0  0
   -0.8867   -0.5922   -1.6756 H   0  0  0  0  0  0  0  0  0  0  0  0
   -2.1083   -1.6889    0.0998 H   0  0  0  0  0  0  0  0  0  0  0  0
   -2.7001   -0.0763    0.6875 H   0  0  0  0  0  0  0  0  0  0  0  0
   -0.4364    0.5239    1.3558 H   0  0  0  0  0  0  0  0  0  0  0  0
  1  2  2  0
  2  3  1  0
  3  4  1  0
  4  5  2  0
  5  6  1  0
  6  7  1  0
  7  8  1  0
  8  3  1  0
  8  6  1  0
  2  9  1  0
  3 10  1  0
  4 11  1  0
  5 12  1  0
  6 13  1  0
  7 14  1  0
  7 15  1  0
  8 16  1  0
M  END
