
     RDKit          3D

 19 20  0  0  0  0  0  0  0  0999 V2000
    2.4381   -1.8422    0.2848 O   0  0  0  0  0  0  0  0  0  0  0  0
    2.4133   -0.6500    0.4887 C   0  0  0  0  0  0  0  0  0  0  0  0
    1.6900    0.2464   -0.4393 C   0  0  0  0  0  0  0  0  0  0  0  0
    0.2363    0.2344   -0.2935 C   0  0  0  0  0  0  0  0  0  0  0  0
   -0.5095   -1.0720   -0.5022 C   0  0  0  0  0  0  0  0  0  0  0  0
   -1.9044   -0.5500   -0.0885 C   0  0  0  0  0  0  0  0  0  0  0  0
   -1.4918    0.8879    0.1611 C   0  0  0  0  0  0  0  0  0  0  0  0
   -0.5938    1.2527   -1.0059 C   0  0  0  0  0  0  0  0  0  0  0  0
   -0.3116    0.7355    0.8987 O   0  0  0  0  0  0  0  0  0  0  0  0
    2.9269   -0.2680    1.3537 H   0  0  0  0  0  0  0  0  0  0  0  0
    2.0425    1.3074   -0.3954 H   0  0  0  0  0  0  0  0  0  0  0  0
    1.9256   -0.0660   -1.5014 H   0  0  0  0  0  0  0  0  0  0  0  0
   -0.1671   -1.8909    0.1341 H   0  0  0  0  0  0  0  0  0  0  0  0
   -0.5355   -1.3783   -1.5671 H   0  0  0  0  0  0  0  0  0  0  0  0
   -2.1495   -1.0395    0.8679 H   0  0  0  0  0  0  0  0  0  0  0  0
   -2.6246   -0.6748   -0.8950 H   0  0  0  0  0  0  0  0  0  0  0  0
   -2.2181    1.5873    0.4996 H   0  0  0  0  0  0  0  0  0  0  0  0
   -0.2274    2.2768   -0.9491 H   0  0  0  0  0  0  0  0  0  0  0  0
   -0.9394    0.9032   -1.9996 H   0  0  0  0  0  0  0  0  0  0  0  0
  1  2  2  0
  2  3  1  0
  3  4  1  0
  4  5  1  0
  5  6  1  0
  6  7  1  0
  7  8  1  0
  7  9  1  0
  8  4  1  0
  9  4  1  0
  2 10  1  0
  3 11  1  0
  3 12  1  0
  5 13  1  0
  5 14  1  0
  6 15  1  0
  6 16  1  0
  7 17  1  0
  8 18  1  0
  8 19  1  0
M  END
