
     RDKit          3D

 17 16  0  0  0  0  0  0  0  0999 V2000
    2.4542    1.0505   -2.1033 O   0  0  0  0  0  0  0  0  0  0  0  0
    2.5838    0.5617   -0.9936 C   0  0  0  0  0  0  0  0  0  0  0  0
    1.4176    0.4989   -0.0642 C   0  0  0  0  0  0  0  0  0  0  0  0
    0.5096   -0.6260   -0.4171 C   0  0  0  0  0  0  0  0  0  0  0  0
    0.8105   -1.3138   -1.3908 O   0  0  0  0  0  0  0  0  0  0  0  0
   -0.7014   -0.9137    0.3607 C   0  0  0  0  0  0  0  0  0  0  0  0
   -1.3402   -2.0386   -0.2144 O   0  0  0  0  0  0  0  0  0  0  0  0
   -1.7158    0.2053    0.3870 C   0  0  0  0  0  0  0  0  0  0  0  0
   -1.2009    1.3684    0.9433 O   0  0  0  0  0  0  0  0  0  0  0  0
    3.5694    0.1907   -0.7411 H   0  0  0  0  0  0  0  0  0  0  0  0
    1.8129    0.3126    0.9545 H   0  0  0  0  0  0  0  0  0  0  0  0
    0.8792    1.4923   -0.0706 H   0  0  0  0  0  0  0  0  0  0  0  0
   -0.4514   -1.2277    1.3955 H   0  0  0  0  0  0  0  0  0  0  0  0
   -2.3155   -1.9796   -0.0692 H   0  0  0  0  0  0  0  0  0  0  0  0
   -2.1447    0.4026   -0.6149 H   0  0  0  0  0  0  0  0  0  0  0  0
   -2.5417   -0.1444    1.0412 H   0  0  0  0  0  0  0  0  0  0  0  0
   -1.6256    2.1607    0.5320 H   0  0  0  0  0  0  0  0  0  0  0  0
  1  2  2  0
  2  3  1  0
  3  4  1  0
  4  5  2  0
  4  6  1  0
  6  7  1  0
  6  8  1  0
  8  9  1  0
  2 10  1  0
  3 11  1  0
  3 12  1  0
  6 13  1  0
  7 14  1  0
  8 15  1  0
  8 16  1  0
  9 17  1  0
M  END
