
     RDKit          3D

 17 19  0  0  0  0  0  0  0  0999 V2000
    1.3531   -2.0440    1.7924 O   0  0  0  0  0  0  0  0  0  0  0  0
    1.4230   -1.3228    0.7971 C   0  0  0  0  0  0  0  0  0  0  0  0
    0.3119   -0.6052    0.3271 C   0  0  0  0  0  0  0  0  0  0  0  0
   -0.8099   -0.0148    1.0899 C   0  0  0  0  0  0  0  0  0  0  0  0
   -1.6914   -0.3389   -0.1300 C   0  0  0  0  0  0  0  0  0  0  0  0
   -0.3819   -0.5109   -0.9034 C   0  0  0  0  0  0  0  0  0  0  0  0
    0.6141    0.5477   -0.6864 C   0  0  0  0  0  0  0  0  0  0  0  0
    0.3524    1.6970    0.2355 C   0  0  0  0  0  0  0  0  0  0  0  0
   -0.5995    1.3373    1.1441 O   0  0  0  0  0  0  0  0  0  0  0  0
    2.4029   -1.2966    0.3300 H   0  0  0  0  0  0  0  0  0  0  0  0
   -1.1544   -0.5200    1.9909 H   0  0  0  0  0  0  0  0  0  0  0  0
   -2.2317    0.5188   -0.5297 H   0  0  0  0  0  0  0  0  0  0  0  0
   -2.2901   -1.2454   -0.0247 H   0  0  0  0  0  0  0  0  0  0  0  0
   -0.3157   -1.1956   -1.7296 H   0  0  0  0  0  0  0  0  0  0  0  0
    1.5602    0.4687   -1.2137 H   0  0  0  0  0  0  0  0  0  0  0  0
    1.3094    1.8886    0.8004 H   0  0  0  0  0  0  0  0  0  0  0  0
    0.1476    2.6360   -0.3097 H   0  0  0  0  0  0  0  0  0  0  0  0
  1  2  2  0
  2  3  1  0
  3  4  1  0
  4  5  1  0
  5  6  1  0
  6  7  1  0
  7  8  1  0
  8  9  1  0
  6  3  1  0
  7  3  1  0
  9  4  1  0
  2 10  1  0
  4 11  1  0
  5 12  1  0
  5 13  1  0
  6 14  1  0
  7 15  1  0
  8 16  1  0
  8 17  1  0
M  END
