
     RDKit          3D

 14 15  0  0  0  0  0  0  0  0999 V2000
   -2.3054    0.0628    1.2397 O   0  0  0  0  0  0  0  0  0  0  0  0
   -2.0967    0.1029    0.0514 C   0  0  0  0  0  0  0  0  0  0  0  0
   -0.7682   -0.2417   -0.4891 C   0  0  0  0  0  0  0  0  0  0  0  0
    0.2551    0.7910   -0.1663 C   0  0  0  0  0  0  0  0  0  0  0  0
    0.1169    0.3988    1.1621 O   0  0  0  0  0  0  0  0  0  0  0  0
    0.1879   -0.8380    0.4971 C   0  0  0  0  0  0  0  0  0  0  0  0
    1.3031   -0.2696   -0.2904 C   0  0  0  0  0  0  0  0  0  0  0  0
    2.4195   -0.0161    0.5012 O   0  0  0  0  0  0  0  0  0  0  0  0
   -2.8863    0.3919   -0.6124 H   0  0  0  0  0  0  0  0  0  0  0  0
   -0.7461   -0.6741   -1.5043 H   0  0  0  0  0  0  0  0  0  0  0  0
    0.3054    1.7404   -0.5043 H   0  0  0  0  0  0  0  0  0  0  0  0
    0.1169   -1.7355    0.9458 H   0  0  0  0  0  0  0  0  0  0  0  0
    1.5041   -0.6704   -1.2880 H   0  0  0  0  0  0  0  0  0  0  0  0
    2.5939    0.9575    0.4576 H   0  0  0  0  0  0  0  0  0  0  0  0
  1  2  2  0
  2  3  1  0
  3  4  1  0
  4  5  1  0
  5  6  1  0
  6  7  1  0
  7  8  1  0
  6  3  1  0
  7  4  1  0
  2  9  1  0
  3 10  1  0
  4 11  1  0
  6 12  1  0
  7 13  1  0
  8 14  1  0
M  END
