
     RDKit          3D

 17 18  0  0  0  0  0  0  0  0999 V2000
    3.4980   -0.2706   -1.0812 O   0  0  0  0  0  0  0  0  0  0  0  0
    2.4734    0.1162   -0.5597 C   0  0  0  0  0  0  0  0  0  0  0  0
    1.4407   -0.8128    0.0083 C   0  0  0  0  0  0  0  0  0  0  0  0
    0.9550   -0.3914    1.2811 O   0  0  0  0  0  0  0  0  0  0  0  0
    0.1269   -0.3567    0.1842 C   0  0  0  0  0  0  0  0  0  0  0  0
   -0.4109    0.9767   -0.3146 C   0  0  0  0  0  0  0  0  0  0  0  0
   -1.8279    0.9364    0.1511 C   0  0  0  0  0  0  0  0  0  0  0  0
   -2.1992   -0.3564    0.3702 O   0  0  0  0  0  0  0  0  0  0  0  0
   -1.1350   -1.1920    0.1608 C   0  0  0  0  0  0  0  0  0  0  0  0
    2.3010    1.1795   -0.5040 H   0  0  0  0  0  0  0  0  0  0  0  0
    1.6624   -1.9038   -0.0722 H   0  0  0  0  0  0  0  0  0  0  0  0
    0.1712    1.8328    0.0433 H   0  0  0  0  0  0  0  0  0  0  0  0
   -0.4041    0.8935   -1.4410 H   0  0  0  0  0  0  0  0  0  0  0  0
   -1.8899    1.5008    1.1111 H   0  0  0  0  0  0  0  0  0  0  0  0
   -2.4727    1.4803   -0.5796 H   0  0  0  0  0  0  0  0  0  0  0  0
   -1.0940   -2.0056    0.8993 H   0  0  0  0  0  0  0  0  0  0  0  0
   -1.1948   -1.6270   -0.8798 H   0  0  0  0  0  0  0  0  0  0  0  0
  1  2  2  0
  2  3  1  0
  3  4  1  0
  4  5  1  0
  5  6  1  0
  6  7  1  0
  7  8  1  0
  8  9  1  0
  5  3  1  0
  9  5  1  0
  2 10  1  0
  3 11  1  0
  6 12  1  0
  6 13  1  0
  7 14  1  0
  7 15  1  0
  9 16  1  0
  9 17  1  0
M  END
