
     RDKit          3D

 19 19  0  0  0  0  0  0  0  0999 V2000
    4.7038    0.4797   -1.5895 O   0  0  0  0  0  0  0  0  0  0  0  0
    3.5359    0.8406   -1.8917 C   0  0  0  0  0  0  0  0  0  0  0  0
    2.3906    0.4974   -1.0907 C   0  0  0  0  0  0  0  0  0  0  0  0
    1.4302    0.2093   -0.3932 C   0  0  0  0  0  0  0  0  0  0  0  0
    0.2886   -0.1148    0.4521 C   0  0  0  0  0  0  0  0  0  0  0  0
   -0.6714    1.0193    0.6053 C   0  0  0  0  0  0  0  0  0  0  0  0
   -1.9320    0.3173    1.0654 C   0  0  0  0  0  0  0  0  0  0  0  0
   -1.8218   -1.1151    0.5904 C   0  0  0  0  0  0  0  0  0  0  0  0
   -0.5327   -1.1742   -0.2258 C   0  0  0  0  0  0  0  0  0  0  0  0
    3.4194    1.4250   -2.7850 H   0  0  0  0  0  0  0  0  0  0  0  0
    0.5741   -0.4969    1.4412 H   0  0  0  0  0  0  0  0  0  0  0  0
   -0.8765    1.5220   -0.3689 H   0  0  0  0  0  0  0  0  0  0  0  0
   -0.2962    1.7361    1.3662 H   0  0  0  0  0  0  0  0  0  0  0  0
   -2.8460    0.7910    0.6290 H   0  0  0  0  0  0  0  0  0  0  0  0
   -2.0696    0.3812    2.1727 H   0  0  0  0  0  0  0  0  0  0  0  0
   -2.6950   -1.4416    0.0139 H   0  0  0  0  0  0  0  0  0  0  0  0
   -1.7619   -1.7847    1.4839 H   0  0  0  0  0  0  0  0  0  0  0  0
   -0.0464   -2.1696   -0.1488 H   0  0  0  0  0  0  0  0  0  0  0  0
   -0.7930   -0.9221   -1.2762 H   0  0  0  0  0  0  0  0  0  0  0  0
  1  2  2  0
  2  3  1  0
  3  4  3  0
  4  5  1  0
  5  6  1  0
  6  7  1  0
  7  8  1  0
  8  9  1  0
  9  5  1  0
  2 10  1  0
  5 11  1  0
  6 12  1  0
  6 13  1  0
  7 14  1  0
  7 15  1  0
  8 16  1  0
  8 17  1  0
  9 18  1  0
  9 19  1  0
M  END
