
     RDKit          3D

 17 17  0  0  0  0  0  0  0  0999 V2000
   -2.1663    1.6471   -0.3374 O   0  0  0  0  0  0  0  0  0  0  0  0
   -1.0047    1.7771   -0.0806 C   0  0  0  0  0  0  0  0  0  0  0  0
   -0.3188    0.7407    0.7290 C   0  0  0  0  0  0  0  0  0  0  0  0
   -1.1800   -0.2527    1.0689 O   0  0  0  0  0  0  0  0  0  0  0  0
   -1.1207   -1.3962    0.3333 C   0  0  0  0  0  0  0  0  0  0  0  0
   -0.7032   -1.2238   -0.9792 O   0  0  0  0  0  0  0  0  0  0  0  0
    0.6091   -0.7708   -1.0454 C   0  0  0  0  0  0  0  0  0  0  0  0
    0.9083    0.2946   -0.0213 C   0  0  0  0  0  0  0  0  0  0  0  0
    1.9222   -0.1044    0.8600 O   0  0  0  0  0  0  0  0  0  0  0  0
   -0.4372    2.6339   -0.4241 H   0  0  0  0  0  0  0  0  0  0  0  0
    0.0484    1.2088    1.6906 H   0  0  0  0  0  0  0  0  0  0  0  0
   -0.4974   -2.1396    0.8876 H   0  0  0  0  0  0  0  0  0  0  0  0
   -2.1645   -1.8161    0.2714 H   0  0  0  0  0  0  0  0  0  0  0  0
    0.7524   -0.3998   -2.0960 H   0  0  0  0  0  0  0  0  0  0  0  0
    1.2545   -1.6707   -0.8717 H   0  0  0  0  0  0  0  0  0  0  0  0
    1.2926    1.1815   -0.5698 H   0  0  0  0  0  0  0  0  0  0  0  0
    2.8054    0.2903    0.5847 H   0  0  0  0  0  0  0  0  0  0  0  0
  1  2  2  0
  2  3  1  0
  3  4  1  0
  4  5  1  0
  5  6  1  0
  6  7  1  0
  7  8  1  0
  8  9  1  0
  8  3  1  0
  2 10  1  0
  3 11  1  0
  5 12  1  0
  5 13  1  0
  7 14  1  0
  7 15  1  0
  8 16  1  0
  9 17  1  0
M  END
