
     RDKit          3D

 14 14  0  0  0  0  0  0  0  0999 V2000
    2.7781   -1.0117   -0.7696 O   0  0  0  0  0  0  0  0  0  0  0  0
    2.2008   -0.1293   -0.0986 C   0  0  0  0  0  0  0  0  0  0  0  0
    0.7493   -0.0906   -0.0093 C   0  0  0  0  0  0  0  0  0  0  0  0
   -0.0480   -0.9469   -0.6034 C   0  0  0  0  0  0  0  0  0  0  0  0
   -1.4464   -0.6048   -0.2923 C   0  0  0  0  0  0  0  0  0  0  0  0
   -1.3458    0.8160    0.0609 C   0  0  0  0  0  0  0  0  0  0  0  0
   -2.1422    1.6634   -0.1770 O   0  0  0  0  0  0  0  0  0  0  0  0
   -0.0559    0.9317    0.7609 C   0  0  0  0  0  0  0  0  0  0  0  0
    2.7998    0.6003    0.4109 H   0  0  0  0  0  0  0  0  0  0  0  0
    0.2176   -1.8012   -1.2416 H   0  0  0  0  0  0  0  0  0  0  0  0
   -1.7708   -1.1454    0.6268 H   0  0  0  0  0  0  0  0  0  0  0  0
   -2.1340   -0.7964   -1.1439 H   0  0  0  0  0  0  0  0  0  0  0  0
    0.4034    1.9316    0.6850 H   0  0  0  0  0  0  0  0  0  0  0  0
   -0.2059    0.5833    1.7914 H   0  0  0  0  0  0  0  0  0  0  0  0
  1  2  2  0
  2  3  1  0
  3  4  2  0
  4  5  1  0
  5  6  1  0
  6  7  2  0
  6  8  1  0
  8  3  1  0
  2  9  1  0
  4 10  1  0
  5 11  1  0
  5 12  1  0
  8 13  1  0
  8 14  1  0
M  END
