
     RDKit          3D

 17 18  0  0  0  0  0  0  0  0999 V2000
    4.0917   -0.1760    1.8284 O   0  0  0  0  0  0  0  0  0  0  0  0
    3.5961    0.5369    0.9257 C   0  0  0  0  0  0  0  0  0  0  0  0
    2.1937    0.3225    0.5692 C   0  0  0  0  0  0  0  0  0  0  0  0
    1.0525    0.1551    0.2591 C   0  0  0  0  0  0  0  0  0  0  0  0
   -0.2202   -0.0218   -0.0731 C   0  0  0  0  0  0  0  0  0  0  0  0
   -0.9856    0.6337   -1.1575 C   0  0  0  0  0  0  0  0  0  0  0  0
   -1.9877   -0.3066   -0.5068 C   0  0  0  0  0  0  0  0  0  0  0  0
   -0.8688   -1.3079   -0.4909 C   0  0  0  0  0  0  0  0  0  0  0  0
   -1.4201    0.1981    0.8006 C   0  0  0  0  0  0  0  0  0  0  0  0
    4.1709    1.2914    0.4155 H   0  0  0  0  0  0  0  0  0  0  0  0
   -1.2785    1.6919   -1.0048 H   0  0  0  0  0  0  0  0  0  0  0  0
   -0.7135    0.3758   -2.1908 H   0  0  0  0  0  0  0  0  0  0  0  0
   -2.9409   -0.4300   -0.7542 H   0  0  0  0  0  0  0  0  0  0  0  0
   -0.5967   -1.6275   -1.5086 H   0  0  0  0  0  0  0  0  0  0  0  0
   -0.9518   -2.0902    0.2749 H   0  0  0  0  0  0  0  0  0  0  0  0
   -1.4991   -0.4956    1.6449 H   0  0  0  0  0  0  0  0  0  0  0  0
   -1.6421    1.2503    0.9685 H   0  0  0  0  0  0  0  0  0  0  0  0
  1  2  2  0
  2  3  1  0
  3  4  3  0
  4  5  1  0
  5  6  1  0
  6  7  1  0
  7  8  1  0
  7  9  1  0
  8  5  1  0
  9  5  1  0
  2 10  1  0
  6 11  1  0
  6 12  1  0
  7 13  1  0
  8 14  1  0
  8 15  1  0
  9 16  1  0
  9 17  1  0
M  END
