
     RDKit          3D

 17 17  0  0  0  0  0  0  0  0999 V2000
    4.6851    0.6224    1.0544 O   0  0  0  0  0  0  0  0  0  0  0  0
    3.8105   -0.1504    0.6177 C   0  0  0  0  0  0  0  0  0  0  0  0
    2.3980    0.1720    0.6143 C   0  0  0  0  0  0  0  0  0  0  0  0
    1.2177    0.4231    0.6224 C   0  0  0  0  0  0  0  0  0  0  0  0
   -0.2269    0.7357    0.6406 C   0  0  0  0  0  0  0  0  0  0  0  0
   -0.8374    0.0437   -0.5407 C   0  0  0  0  0  0  0  0  0  0  0  0
   -0.3184    0.4378   -1.7760 O   0  0  0  0  0  0  0  0  0  0  0  0
   -2.3707   -0.0155   -0.4786 C   0  0  0  0  0  0  0  0  0  0  0  0
   -1.5189   -1.2476   -0.4455 C   0  0  0  0  0  0  0  0  0  0  0  0
    4.1189   -1.1125    0.2198 H   0  0  0  0  0  0  0  0  0  0  0  0
   -0.3495    1.8324    0.4784 H   0  0  0  0  0  0  0  0  0  0  0  0
   -0.7107    0.3841    1.5718 H   0  0  0  0  0  0  0  0  0  0  0  0
   -0.9965    1.0158   -2.2008 H   0  0  0  0  0  0  0  0  0  0  0  0
   -2.9130    0.2269   -1.4164 H   0  0  0  0  0  0  0  0  0  0  0  0
   -2.8775    0.3412    0.4216 H   0  0  0  0  0  0  0  0  0  0  0  0
   -1.5185   -1.8806   -1.3761 H   0  0  0  0  0  0  0  0  0  0  0  0
   -1.5922   -1.8284    0.4873 H   0  0  0  0  0  0  0  0  0  0  0  0
  1  2  2  0
  2  3  1  0
  3  4  3  0
  4  5  1  0
  5  6  1  0
  6  7  1  0
  6  8  1  0
  8  9  1  0
  9  6  1  0
  2 10  1  0
  5 11  1  0
  5 12  1  0
  7 13  1  0
  8 14  1  0
  8 15  1  0
  9 16  1  0
  9 17  1  0
M  END
