
     RDKit          3D

 16 17  0  0  0  0  0  0  0  0999 V2000
    1.8270   -2.0750   -0.4847 O   0  0  0  0  0  0  0  0  0  0  0  0
    1.4286   -0.9263   -0.6578 C   0  0  0  0  0  0  0  0  0  0  0  0
    0.4114   -0.3809    0.2457 C   0  0  0  0  0  0  0  0  0  0  0  0
   -0.9430   -1.0370    0.3612 C   0  0  0  0  0  0  0  0  0  0  0  0
   -1.5481    0.2563   -0.1669 C   0  0  0  0  0  0  0  0  0  0  0  0
   -0.2239    0.9311   -0.0399 C   0  0  0  0  0  0  0  0  0  0  0  0
    0.1877    1.7267   -1.0911 O   0  0  0  0  0  0  0  0  0  0  0  0
    0.6500    0.7595    1.1432 C   0  0  0  0  0  0  0  0  0  0  0  0
    1.8801   -0.3991   -1.4922 H   0  0  0  0  0  0  0  0  0  0  0  0
   -1.1161   -1.9258   -0.2405 H   0  0  0  0  0  0  0  0  0  0  0  0
   -1.2172   -1.1272    1.4407 H   0  0  0  0  0  0  0  0  0  0  0  0
   -2.3894    0.6552    0.3979 H   0  0  0  0  0  0  0  0  0  0  0  0
   -1.7999    0.0998   -1.2558 H   0  0  0  0  0  0  0  0  0  0  0  0
    1.0618    1.4715   -1.4730 H   0  0  0  0  0  0  0  0  0  0  0  0
    1.5850    1.3192    1.1414 H   0  0  0  0  0  0  0  0  0  0  0  0
    0.2061    0.6522    2.1719 H   0  0  0  0  0  0  0  0  0  0  0  0
  1  2  2  0
  2  3  1  0
  3  4  1  0
  4  5  1  0
  5  6  1  0
  6  7  1  0
  6  8  1  0
  6  3  1  0
  8  3  1  0
  2  9  1  0
  4 10  1  0
  4 11  1  0
  5 12  1  0
  5 13  1  0
  7 14  1  0
  8 15  1  0
  8 16  1  0
M  END
