
     RDKit          3D

 17 17  0  0  0  0  0  0  0  0999 V2000
    2.6435   -1.6437    0.6309 O   0  0  0  0  0  0  0  0  0  0  0  0
    2.2720   -0.7147   -0.0648 C   0  0  0  0  0  0  0  0  0  0  0  0
    1.6327    0.4371    0.6278 C   0  0  0  0  0  0  0  0  0  0  0  0
    1.2551    1.4283   -0.2780 O   0  0  0  0  0  0  0  0  0  0  0  0
    0.0304    0.9589   -0.8082 C   0  0  0  0  0  0  0  0  0  0  0  0
   -0.3670   -0.1647    0.0881 C   0  0  0  0  0  0  0  0  0  0  0  0
   -1.8178   -0.1813    0.4550 C   0  0  0  0  0  0  0  0  0  0  0  0
   -2.5818   -0.4088   -0.6922 O   0  0  0  0  0  0  0  0  0  0  0  0
    0.4133    0.0615    1.2223 O   0  0  0  0  0  0  0  0  0  0  0  0
    2.4067   -0.7377   -1.1394 H   0  0  0  0  0  0  0  0  0  0  0  0
    2.2630    0.8660    1.4259 H   0  0  0  0  0  0  0  0  0  0  0  0
   -0.7047    1.7705   -0.8892 H   0  0  0  0  0  0  0  0  0  0  0  0
    0.2707    0.6362   -1.8448 H   0  0  0  0  0  0  0  0  0  0  0  0
   -0.1314   -1.1260   -0.4098 H   0  0  0  0  0  0  0  0  0  0  0  0
   -1.9881   -1.0661    1.1035 H   0  0  0  0  0  0  0  0  0  0  0  0
   -2.1399    0.7217    1.0058 H   0  0  0  0  0  0  0  0  0  0  0  0
   -3.4566   -0.8370   -0.4330 H   0  0  0  0  0  0  0  0  0  0  0  0
  1  2  2  0
  2  3  1  0
  3  4  1  0
  4  5  1  0
  5  6  1  0
  6  7  1  0
  7  8  1  0
  6  9  1  0
  9  3  1  0
  2 10  1  0
  3 11  1  0
  5 12  1  0
  5 13  1  0
  6 14  1  0
  7 15  1  0
  7 16  1  0
  8 17  1  0
M  END
