
     RDKit          3D

 19 20  0  0  0  0  0  0  0  0999 V2000
    2.9259    0.6948    0.5886 O   0  0  0  0  0  0  0  0  0  0  0  0
    2.2084   -0.1496    0.0834 C   0  0  0  0  0  0  0  0  0  0  0  0
    0.7734    0.0275   -0.0117 C   0  0  0  0  0  0  0  0  0  0  0  0
    0.2607    1.2918   -0.6432 C   0  0  0  0  0  0  0  0  0  0  0  0
   -0.9159    0.9806   -1.3167 O   0  0  0  0  0  0  0  0  0  0  0  0
   -1.7828    0.4186   -0.3671 C   0  0  0  0  0  0  0  0  0  0  0  0
   -1.1162   -0.7460    0.2934 C   0  0  0  0  0  0  0  0  0  0  0  0
    0.0610   -1.1923   -0.5855 C   0  0  0  0  0  0  0  0  0  0  0  0
   -0.0363   -0.2165    1.2487 C   0  0  0  0  0  0  0  0  0  0  0  0
    2.6927   -1.0418   -0.2927 H   0  0  0  0  0  0  0  0  0  0  0  0
    0.9931    1.8127   -1.2583 H   0  0  0  0  0  0  0  0  0  0  0  0
   -0.0280    1.9744    0.1908 H   0  0  0  0  0  0  0  0  0  0  0  0
   -1.9321    1.2201    0.4018 H   0  0  0  0  0  0  0  0  0  0  0  0
   -2.7511    0.1483   -0.7974 H   0  0  0  0  0  0  0  0  0  0  0  0
   -1.7335   -1.5435    0.6854 H   0  0  0  0  0  0  0  0  0  0  0  0
    0.4781   -2.1199   -0.1649 H   0  0  0  0  0  0  0  0  0  0  0  0
   -0.1365   -1.1624   -1.6578 H   0  0  0  0  0  0  0  0  0  0  0  0
   -0.3369    0.6695    1.8008 H   0  0  0  0  0  0  0  0  0  0  0  0
    0.3758   -1.0662    1.8024 H   0  0  0  0  0  0  0  0  0  0  0  0
  1  2  2  0
  2  3  1  0
  3  4  1  0
  4  5  1  0
  5  6  1  0
  6  7  1  0
  7  8  1  0
  7  9  1  0
  8  3  1  0
  9  3  1  0
  2 10  1  0
  4 11  1  0
  4 12  1  0
  6 13  1  0
  6 14  1  0
  7 15  1  0
  8 16  1  0
  8 17  1  0
  9 18  1  0
  9 19  1  0
M  END
