
     RDKit          3D

 15 16  0  0  0  0  0  0  0  0999 V2000
    2.5479    0.7516   -0.6212 O   0  0  0  0  0  0  0  0  0  0  0  0
    1.5134    1.0927   -0.0714 C   0  0  0  0  0  0  0  0  0  0  0  0
    0.3285    0.3464   -0.1761 C   0  0  0  0  0  0  0  0  0  0  0  0
   -0.7033    0.3831    0.9446 C   0  0  0  0  0  0  0  0  0  0  0  0
   -1.1330   -0.9373    0.3058 C   0  0  0  0  0  0  0  0  0  0  0  0
    0.3667   -1.1671    0.0906 C   0  0  0  0  0  0  0  0  0  0  0  0
   -1.5471   -0.5351   -0.9787 O   0  0  0  0  0  0  0  0  0  0  0  0
   -0.5368    0.3837   -1.3529 C   0  0  0  0  0  0  0  0  0  0  0  0
   -0.4286    1.0440   -2.4137 O   0  0  0  0  0  0  0  0  0  0  0  0
    1.5905    2.0297    0.5094 H   0  0  0  0  0  0  0  0  0  0  0  0
   -0.2893    0.3009    1.9498 H   0  0  0  0  0  0  0  0  0  0  0  0
   -1.4572    1.1548    0.7498 H   0  0  0  0  0  0  0  0  0  0  0  0
   -1.6781   -1.6308    0.8735 H   0  0  0  0  0  0  0  0  0  0  0  0
    0.9193   -1.4353    0.9926 H   0  0  0  0  0  0  0  0  0  0  0  0
    0.5071   -1.7812   -0.8020 H   0  0  0  0  0  0  0  0  0  0  0  0
  1  2  2  0
  2  3  1  0
  3  4  1  0
  4  5  1  0
  5  6  1  0
  5  7  1  0
  7  8  1  0
  8  9  2  0
  6  3  1  0
  8  3  1  0
  2 10  1  0
  4 11  1  0
  4 12  1  0
  5 13  1  0
  6 14  1  0
  6 15  1  0
M  END
