
     RDKit          3D

 16 16  0  0  0  0  0  0  0  0999 V2000
    3.2777   -0.7612   -0.2959 O   0  0  0  0  0  0  0  0  0  0  0  0
    2.4832    0.1524   -0.4100 C   0  0  0  0  0  0  0  0  0  0  0  0
    1.1092    0.0608    0.1487 C   0  0  0  0  0  0  0  0  0  0  0  0
    0.4321    1.2222   -0.1216 O   0  0  0  0  0  0  0  0  0  0  0  0
   -0.9182    1.1798    0.1534 C   0  0  0  0  0  0  0  0  0  0  0  0
   -1.5812   -0.0891   -0.3242 C   0  0  0  0  0  0  0  0  0  0  0  0
   -0.7168   -1.2460    0.1905 C   0  0  0  0  0  0  0  0  0  0  0  0
    0.5270   -1.0731   -0.4109 O   0  0  0  0  0  0  0  0  0  0  0  0
    2.8145    1.0369   -0.9347 H   0  0  0  0  0  0  0  0  0  0  0  0
    1.1313   -0.1094    1.2474 H   0  0  0  0  0  0  0  0  0  0  0  0
   -1.4063    2.0182   -0.3887 H   0  0  0  0  0  0  0  0  0  0  0  0
   -1.1612    1.3165    1.2290 H   0  0  0  0  0  0  0  0  0  0  0  0
   -1.5748   -0.1085   -1.4258 H   0  0  0  0  0  0  0  0  0  0  0  0
   -2.5616   -0.2046    0.1351 H   0  0  0  0  0  0  0  0  0  0  0  0
   -0.6852   -1.1728    1.2878 H   0  0  0  0  0  0  0  0  0  0  0  0
   -1.1696   -2.2218   -0.0802 H   0  0  0  0  0  0  0  0  0  0  0  0
  1  2  2  0
  2  3  1  0
  3  4  1  0
  4  5  1  0
  5  6  1  0
  6  7  1  0
  7  8  1  0
  8  3  1  0
  2  9  1  0
  3 10  1  0
  5 11  1  0
  5 12  1  0
  6 13  1  0
  6 14  1  0
  7 15  1  0
  7 16  1  0
M  END
