
     RDKit          3D

 14 13  0  0  0  0  0  0  0  0999 V2000
    1.8362    1.0618    0.8197 O   0  0  0  0  0  0  0  0  0  0  0  0
    1.9182    0.4074   -0.2026 C   0  0  0  0  0  0  0  0  0  0  0  0
    0.7261   -0.3892   -0.6039 C   0  0  0  0  0  0  0  0  0  0  0  0
   -0.3984   -0.2226    0.3771 C   0  0  0  0  0  0  0  0  0  0  0  0
   -0.8203    1.1985    0.4746 C   0  0  0  0  0  0  0  0  0  0  0  0
   -0.3578    2.0276   -0.3180 O   0  0  0  0  0  0  0  0  0  0  0  0
   -1.5387   -1.1077    0.1075 C   0  0  0  0  0  0  0  0  0  0  0  0
   -1.7892   -1.5910   -0.9867 O   0  0  0  0  0  0  0  0  0  0  0  0
    2.8319    0.4056   -0.8015 H   0  0  0  0  0  0  0  0  0  0  0  0
    0.3651    0.0614   -1.5748 H   0  0  0  0  0  0  0  0  0  0  0  0
    0.9538   -1.4390   -0.8316 H   0  0  0  0  0  0  0  0  0  0  0  0
    0.0151   -0.5310    1.3826 H   0  0  0  0  0  0  0  0  0  0  0  0
   -1.5285    1.4798    1.2426 H   0  0  0  0  0  0  0  0  0  0  0  0
   -2.2137   -1.3616    0.9151 H   0  0  0  0  0  0  0  0  0  0  0  0
  1  2  2  0
  2  3  1  0
  3  4  1  0
  4  5  1  0
  5  6  2  0
  4  7  1  0
  7  8  2  0
  2  9  1  0
  3 10  1  0
  3 11  1  0
  4 12  1  0
  5 13  1  0
  7 14  1  0
M  END
