
     RDKit          3D

 16 16  0  0  0  0  0  0  0  0999 V2000
    2.4232    1.2413    0.5879 O   0  0  0  0  0  0  0  0  0  0  0  0
    2.1542    0.1246    0.1930 C   0  0  0  0  0  0  0  0  0  0  0  0
    0.9297   -0.1147   -0.6135 C   0  0  0  0  0  0  0  0  0  0  0  0
    0.1130   -1.2574   -0.0681 C   0  0  0  0  0  0  0  0  0  0  0  0
   -0.8420   -0.8590    0.8526 O   0  0  0  0  0  0  0  0  0  0  0  0
   -1.7029    0.0149    0.1625 C   0  0  0  0  0  0  0  0  0  0  0  0
   -0.9096    1.2357   -0.1585 C   0  0  0  0  0  0  0  0  0  0  0  0
    0.2688    1.0437   -0.7856 O   0  0  0  0  0  0  0  0  0  0  0  0
    2.8179   -0.6921    0.4367 H   0  0  0  0  0  0  0  0  0  0  0  0
    1.3004   -0.4618   -1.6234 H   0  0  0  0  0  0  0  0  0  0  0  0
   -0.4117   -1.8080   -0.8744 H   0  0  0  0  0  0  0  0  0  0  0  0
    0.7594   -2.0059    0.4685 H   0  0  0  0  0  0  0  0  0  0  0  0
   -2.1560   -0.4747   -0.7191 H   0  0  0  0  0  0  0  0  0  0  0  0
   -2.5088    0.2749    0.8844 H   0  0  0  0  0  0  0  0  0  0  0  0
   -0.6997    1.7474    0.8256 H   0  0  0  0  0  0  0  0  0  0  0  0
   -1.5358    1.9910   -0.7182 H   0  0  0  0  0  0  0  0  0  0  0  0
  1  2  2  0
  2  3  1  0
  3  4  1  0
  4  5  1  0
  5  6  1  0
  6  7  1  0
  7  8  1  0
  8  3  1  0
  2  9  1  0
  3 10  1  0
  4 11  1  0
  4 12  1  0
  6 13  1  0
  6 14  1  0
  7 15  1  0
  7 16  1  0
M  END
