
     RDKit          3D

 19 19  0  0  0  0  0  0  0  0999 V2000
   -2.0994   -0.0266   -1.7582 O   0  0  0  0  0  0  0  0  0  0  0  0
   -2.1642   -0.0252   -0.5242 C   0  0  0  0  0  0  0  0  0  0  0  0
   -0.9399    0.0730    0.3167 C   0  0  0  0  0  0  0  0  0  0  0  0
   -1.3568    0.0481    1.6453 O   0  0  0  0  0  0  0  0  0  0  0  0
   -0.0758   -1.1234    0.0867 C   0  0  0  0  0  0  0  0  0  0  0  0
    1.3791   -0.8692    0.0157 C   0  0  0  0  0  0  0  0  0  0  0  0
    1.7767    0.4852   -0.4569 C   0  0  0  0  0  0  0  0  0  0  0  0
    1.0602    1.4284    0.2563 O   0  0  0  0  0  0  0  0  0  0  0  0
   -0.2896    1.3834    0.0019 C   0  0  0  0  0  0  0  0  0  0  0  0
   -3.1320   -0.0969   -0.0614 H   0  0  0  0  0  0  0  0  0  0  0  0
   -0.5944   -0.1452    2.2528 H   0  0  0  0  0  0  0  0  0  0  0  0
   -0.3965   -1.6325   -0.8611 H   0  0  0  0  0  0  0  0  0  0  0  0
   -0.2402   -1.9099    0.8823 H   0  0  0  0  0  0  0  0  0  0  0  0
    1.8878   -1.0355    1.0102 H   0  0  0  0  0  0  0  0  0  0  0  0
    1.8844   -1.6167   -0.6644 H   0  0  0  0  0  0  0  0  0  0  0  0
    1.6738    0.5632   -1.5413 H   0  0  0  0  0  0  0  0  0  0  0  0
    2.8564    0.6325   -0.1726 H   0  0  0  0  0  0  0  0  0  0  0  0
   -0.7831    2.1605    0.6258 H   0  0  0  0  0  0  0  0  0  0  0  0
   -0.4462    1.7067   -1.0536 H   0  0  0  0  0  0  0  0  0  0  0  0
  1  2  2  0
  2  3  1  0
  3  4  1  0
  3  5  1  0
  5  6  1  0
  6  7  1  0
  7  8  1  0
  8  9  1  0
  9  3  1  0
  2 10  1  0
  4 11  1  0
  5 12  1  0
  5 13  1  0
  6 14  1  0
  6 15  1  0
  7 16  1  0
  7 17  1  0
  9 18  1  0
  9 19  1  0
M  END
