
     RDKit          3D

 17 18  0  0  0  0  0  0  0  0999 V2000
    3.1945    0.6442    0.8953 O   0  0  0  0  0  0  0  0  0  0  0  0
    2.4291    0.4533   -0.0836 C   0  0  0  0  0  0  0  0  0  0  0  0
    1.0272    0.0838    0.0723 C   0  0  0  0  0  0  0  0  0  0  0  0
    0.4039   -0.0918    1.2591 C   0  0  0  0  0  0  0  0  0  0  0  0
   -0.9621   -0.4475    0.8541 C   0  0  0  0  0  0  0  0  0  0  0  0
   -0.6940   -1.4252   -0.2977 C   0  0  0  0  0  0  0  0  0  0  0  0
   -0.0219   -0.1817   -0.8961 C   0  0  0  0  0  0  0  0  0  0  0  0
   -1.2192    0.5460   -0.2680 C   0  0  0  0  0  0  0  0  0  0  0  0
   -0.9969    1.8592    0.0385 O   0  0  0  0  0  0  0  0  0  0  0  0
    2.7944    0.5596   -1.1071 H   0  0  0  0  0  0  0  0  0  0  0  0
    0.8245    0.0093    2.2491 H   0  0  0  0  0  0  0  0  0  0  0  0
   -1.7174   -0.6705    1.5434 H   0  0  0  0  0  0  0  0  0  0  0  0
   -1.6566   -1.6574   -0.7773 H   0  0  0  0  0  0  0  0  0  0  0  0
   -0.0244   -2.2448   -0.0584 H   0  0  0  0  0  0  0  0  0  0  0  0
    0.1107   -0.1306   -1.9328 H   0  0  0  0  0  0  0  0  0  0  0  0
   -2.1235    0.2781   -0.8113 H   0  0  0  0  0  0  0  0  0  0  0  0
   -1.3683    2.4160   -0.6794 H   0  0  0  0  0  0  0  0  0  0  0  0
  1  2  2  0
  2  3  1  0
  3  4  2  0
  4  5  1  0
  5  6  1  0
  6  7  1  0
  7  8  1  0
  8  9  1  0
  7  3  1  0
  8  5  1  0
  2 10  1  0
  4 11  1  0
  5 12  1  0
  6 13  1  0
  6 14  1  0
  7 15  1  0
  8 16  1  0
  9 17  1  0
M  END
