
     RDKit          3D

 19 19  0  0  0  0  0  0  0  0999 V2000
    3.1316   -0.0016   -0.6002 O   0  0  0  0  0  0  0  0  0  0  0  0
    1.9306    0.1710   -0.7292 C   0  0  0  0  0  0  0  0  0  0  0  0
    0.9405   -0.2516    0.3196 C   0  0  0  0  0  0  0  0  0  0  0  0
    1.6637   -0.8280    1.3637 O   0  0  0  0  0  0  0  0  0  0  0  0
    0.0897   -1.3067   -0.2669 C   0  0  0  0  0  0  0  0  0  0  0  0
   -1.1206   -1.1158   -0.7399 C   0  0  0  0  0  0  0  0  0  0  0  0
   -1.6927    0.2462   -0.6919 C   0  0  0  0  0  0  0  0  0  0  0  0
   -1.2828    0.8871    0.5959 C   0  0  0  0  0  0  0  0  0  0  0  0
    0.1840    0.9290    0.8326 C   0  0  0  0  0  0  0  0  0  0  0  0
    1.5942    0.6474   -1.6408 H   0  0  0  0  0  0  0  0  0  0  0  0
    2.3104   -1.4506    0.9316 H   0  0  0  0  0  0  0  0  0  0  0  0
    0.5031   -2.3191   -0.3078 H   0  0  0  0  0  0  0  0  0  0  0  0
   -1.6821   -1.9332   -1.1529 H   0  0  0  0  0  0  0  0  0  0  0  0
   -1.2632    0.8255   -1.5313 H   0  0  0  0  0  0  0  0  0  0  0  0
   -2.7888    0.1712   -0.7153 H   0  0  0  0  0  0  0  0  0  0  0  0
   -1.6489    1.9548    0.5541 H   0  0  0  0  0  0  0  0  0  0  0  0
   -1.8449    0.4469    1.4647 H   0  0  0  0  0  0  0  0  0  0  0  0
    0.6106    1.8647    0.3744 H   0  0  0  0  0  0  0  0  0  0  0  0
    0.3655    1.0630    1.9395 H   0  0  0  0  0  0  0  0  0  0  0  0
  1  2  2  0
  2  3  1  0
  3  4  1  0
  3  5  1  0
  5  6  2  0
  6  7  1  0
  7  8  1  0
  8  9  1  0
  9  3  1  0
  2 10  1  0
  4 11  1  0
  5 12  1  0
  6 13  1  0
  7 14  1  0
  7 15  1  0
  8 16  1  0
  8 17  1  0
  9 18  1  0
  9 19  1  0
M  END
