
     RDKit          3D

 17 18  0  0  0  0  0  0  0  0999 V2000
    3.3537    0.2710    0.4633 O   0  0  0  0  0  0  0  0  0  0  0  0
    2.2181   -0.0965    0.6425 C   0  0  0  0  0  0  0  0  0  0  0  0
    1.2257    0.0442   -0.4443 C   0  0  0  0  0  0  0  0  0  0  0  0
   -0.1420   -0.4683   -0.0410 C   0  0  0  0  0  0  0  0  0  0  0  0
   -0.1350   -1.8028    0.3033 O   0  0  0  0  0  0  0  0  0  0  0  0
   -0.8337    0.3881    0.9983 C   0  0  0  0  0  0  0  0  0  0  0  0
   -1.6574    0.9611   -0.1471 C   0  0  0  0  0  0  0  0  0  0  0  0
   -2.4953    0.0646   -0.7361 O   0  0  0  0  0  0  0  0  0  0  0  0
   -1.1726   -0.0791   -1.0512 C   0  0  0  0  0  0  0  0  0  0  0  0
    1.9455   -0.5207    1.5897 H   0  0  0  0  0  0  0  0  0  0  0  0
    1.1370    1.0945   -0.8019 H   0  0  0  0  0  0  0  0  0  0  0  0
    1.5838   -0.5439   -1.3057 H   0  0  0  0  0  0  0  0  0  0  0  0
   -0.7715   -2.3300   -0.2300 H   0  0  0  0  0  0  0  0  0  0  0  0
   -1.5354   -0.1866    1.6708 H   0  0  0  0  0  0  0  0  0  0  0  0
   -0.1957    1.1047    1.5246 H   0  0  0  0  0  0  0  0  0  0  0  0
   -1.6530    2.0240   -0.3504 H   0  0  0  0  0  0  0  0  0  0  0  0
   -0.8723    0.0756   -2.0850 H   0  0  0  0  0  0  0  0  0  0  0  0
  1  2  2  0
  2  3  1  0
  3  4  1  0
  4  5  1  0
  4  6  1  0
  6  7  1  0
  7  8  1  0
  8  9  1  0
  9  4  1  0
  9  7  1  0
  2 10  1  0
  3 11  1  0
  3 12  1  0
  5 13  1  0
  6 14  1  0
  6 15  1  0
  7 16  1  0
  9 17  1  0
M  END
