
     RDKit          3D

 19 19  0  0  0  0  0  0  0  0999 V2000
   -2.1059    1.1652   -1.1820 O   0  0  0  0  0  0  0  0  0  0  0  0
   -1.1701    1.4534   -0.4742 C   0  0  0  0  0  0  0  0  0  0  0  0
   -0.7768    0.5367    0.6339 C   0  0  0  0  0  0  0  0  0  0  0  0
   -1.2187   -0.8926    0.3532 C   0  0  0  0  0  0  0  0  0  0  0  0
   -1.8471   -1.0194   -0.8854 O   0  0  0  0  0  0  0  0  0  0  0  0
    0.2568   -1.2781    0.3461 C   0  0  0  0  0  0  0  0  0  0  0  0
    0.6787    0.1232    0.6269 C   0  0  0  0  0  0  0  0  0  0  0  0
    1.4209    0.8396   -0.4585 C   0  0  0  0  0  0  0  0  0  0  0  0
    2.7663    0.4989   -0.5135 O   0  0  0  0  0  0  0  0  0  0  0  0
   -0.6237    2.3683   -0.6440 H   0  0  0  0  0  0  0  0  0  0  0  0
   -1.1420    0.9505    1.5907 H   0  0  0  0  0  0  0  0  0  0  0  0
   -1.7983   -1.2721    1.1994 H   0  0  0  0  0  0  0  0  0  0  0  0
   -1.8575   -1.9688   -1.1600 H   0  0  0  0  0  0  0  0  0  0  0  0
    0.4320   -1.9984    1.1930 H   0  0  0  0  0  0  0  0  0  0  0  0
    0.6102   -1.7251   -0.6023 H   0  0  0  0  0  0  0  0  0  0  0  0
    1.1412    0.1982    1.6471 H   0  0  0  0  0  0  0  0  0  0  0  0
    0.9634    0.5428   -1.4261 H   0  0  0  0  0  0  0  0  0  0  0  0
    1.3334    1.9313   -0.2603 H   0  0  0  0  0  0  0  0  0  0  0  0
    2.9371   -0.4535   -0.4720 H   0  0  0  0  0  0  0  0  0  0  0  0
  1  2  2  0
  2  3  1  0
  3  4  1  0
  4  5  1  0
  4  6  1  0
  6  7  1  0
  7  8  1  0
  8  9  1  0
  7  3  1  0
  2 10  1  0
  3 11  1  0
  4 12  1  0
  5 13  1  0
  6 14  1  0
  6 15  1  0
  7 16  1  0
  8 17  1  0
  8 18  1  0
  9 19  1  0
M  END
