
     RDKit          3D

 21 20  0  0  0  0  0  0  0  0999 V2000
   -2.8430    0.3645   -1.8382 O   0  0  0  0  0  0  0  0  0  0  0  0
   -3.0814   -0.1819   -0.7778 C   0  0  0  0  0  0  0  0  0  0  0  0
   -2.0634   -0.4124    0.2548 C   0  0  0  0  0  0  0  0  0  0  0  0
   -0.6979    0.0959   -0.1327 C   0  0  0  0  0  0  0  0  0  0  0  0
   -0.7259    1.4684   -0.3695 O   0  0  0  0  0  0  0  0  0  0  0  0
    0.2924   -0.2376    0.9602 C   0  0  0  0  0  0  0  0  0  0  0  0
    1.6847    0.2533    0.6191 C   0  0  0  0  0  0  0  0  0  0  0  0
    2.2053   -0.3584   -0.6439 C   0  0  0  0  0  0  0  0  0  0  0  0
    3.4815    0.1464   -0.8776 O   0  0  0  0  0  0  0  0  0  0  0  0
   -4.0949   -0.5109   -0.5946 H   0  0  0  0  0  0  0  0  0  0  0  0
   -1.9375   -1.5091    0.4944 H   0  0  0  0  0  0  0  0  0  0  0  0
   -2.3260    0.0610    1.2243 H   0  0  0  0  0  0  0  0  0  0  0  0
   -0.3877   -0.3974   -1.0880 H   0  0  0  0  0  0  0  0  0  0  0  0
   -1.5419    1.8402    0.0513 H   0  0  0  0  0  0  0  0  0  0  0  0
   -0.0323    0.2630    1.8952 H   0  0  0  0  0  0  0  0  0  0  0  0
    0.3059   -1.3357    1.1102 H   0  0  0  0  0  0  0  0  0  0  0  0
    1.7243    1.3426    0.5217 H   0  0  0  0  0  0  0  0  0  0  0  0
    2.3704   -0.0424    1.4390 H   0  0  0  0  0  0  0  0  0  0  0  0
    1.5837   -0.1292   -1.5334 H   0  0  0  0  0  0  0  0  0  0  0  0
    2.3086   -1.4583   -0.5379 H   0  0  0  0  0  0  0  0  0  0  0  0
    3.7749    0.7380   -0.1603 H   0  0  0  0  0  0  0  0  0  0  0  0
  1  2  2  0
  2  3  1  0
  3  4  1  0
  4  5  1  0
  4  6  1  0
  6  7  1  0
  7  8  1  0
  8  9  1  0
  2 10  1  0
  3 11  1  0
  3 12  1  0
  4 13  1  0
  5 14  1  0
  6 15  1  0
  6 16  1  0
  7 17  1  0
  7 18  1  0
  8 19  1  0
  8 20  1  0
  9 21  1  0
M  END
