
     RDKit          3D

 15 16  0  0  0  0  0  0  0  0999 V2000
    2.0683   -1.2972   -1.1046 O   0  0  0  0  0  0  0  0  0  0  0  0
    1.6188   -1.1200    0.0032 C   0  0  0  0  0  0  0  0  0  0  0  0
    0.5135   -0.1995    0.2056 C   0  0  0  0  0  0  0  0  0  0  0  0
    0.6783    1.2442    0.4610 C   0  0  0  0  0  0  0  0  0  0  0  0
    0.1555    0.7899   -0.8286 C   0  0  0  0  0  0  0  0  0  0  0  0
   -1.1746    0.6934   -1.1359 O   0  0  0  0  0  0  0  0  0  0  0  0
   -1.8131   -0.0609   -0.1850 C   0  0  0  0  0  0  0  0  0  0  0  0
   -0.7921   -0.7811    0.5994 C   0  0  0  0  0  0  0  0  0  0  0  0
   -0.9938   -1.6567    1.3908 O   0  0  0  0  0  0  0  0  0  0  0  0
    2.0510   -1.6537    0.8272 H   0  0  0  0  0  0  0  0  0  0  0  0
   -0.0012    1.7549    1.2030 H   0  0  0  0  0  0  0  0  0  0  0  0
    1.7029    1.6201    0.5100 H   0  0  0  0  0  0  0  0  0  0  0  0
    0.8453    0.8766   -1.7126 H   0  0  0  0  0  0  0  0  0  0  0  0
   -2.4449   -0.8254   -0.6845 H   0  0  0  0  0  0  0  0  0  0  0  0
   -2.4140    0.6154    0.4512 H   0  0  0  0  0  0  0  0  0  0  0  0
  1  2  2  0
  2  3  1  0
  3  4  1  0
  4  5  1  0
  5  6  1  0
  6  7  1  0
  7  8  1  0
  8  9  2  0
  5  3  1  0
  8  3  1  0
  2 10  1  0
  4 11  1  0
  4 12  1  0
  5 13  1  0
  7 14  1  0
  7 15  1  0
M  END
