
     RDKit          3D

 17 17  0  0  0  0  0  0  0  0999 V2000
    3.0295    1.1923   -0.4750 O   0  0  0  0  0  0  0  0  0  0  0  0
    2.4523    0.1208   -0.2249 C   0  0  0  0  0  0  0  0  0  0  0  0
    1.0334    0.0179    0.0514 C   0  0  0  0  0  0  0  0  0  0  0  0
    0.3370    1.1416    0.0301 C   0  0  0  0  0  0  0  0  0  0  0  0
   -1.1190    1.3238    0.2751 C   0  0  0  0  0  0  0  0  0  0  0  0
   -1.6863    0.0931    0.6080 O   0  0  0  0  0  0  0  0  0  0  0  0
   -1.6813   -0.8205   -0.4017 C   0  0  0  0  0  0  0  0  0  0  0  0
   -0.5625   -1.5826   -0.5637 O   0  0  0  0  0  0  0  0  0  0  0  0
    0.4672   -1.3265    0.3359 C   0  0  0  0  0  0  0  0  0  0  0  0
    3.0311   -0.7954   -0.2095 H   0  0  0  0  0  0  0  0  0  0  0  0
    0.8603    2.0597   -0.1895 H   0  0  0  0  0  0  0  0  0  0  0  0
   -1.1984    1.9623    1.1994 H   0  0  0  0  0  0  0  0  0  0  0  0
   -1.6395    1.8405   -0.5302 H   0  0  0  0  0  0  0  0  0  0  0  0
   -1.9674   -0.3558   -1.3924 H   0  0  0  0  0  0  0  0  0  0  0  0
   -2.5364   -1.5342   -0.2029 H   0  0  0  0  0  0  0  0  0  0  0  0
    1.2170   -2.1101    0.3477 H   0  0  0  0  0  0  0  0  0  0  0  0
   -0.0371   -1.2268    1.3423 H   0  0  0  0  0  0  0  0  0  0  0  0
  1  2  2  0
  2  3  1  0
  3  4  2  0
  4  5  1  0
  5  6  1  0
  6  7  1  0
  7  8  1  0
  8  9  1  0
  9  3  1  0
  2 10  1  0
  4 11  1  0
  5 12  1  0
  5 13  1  0
  7 14  1  0
  7 15  1  0
  9 16  1  0
  9 17  1  0
M  END
