
     RDKit          3D

 21 21  0  0  0  0  0  0  0  0999 V2000
    3.3699    0.9695    1.5296 O   0  0  0  0  0  0  0  0  0  0  0  0
    3.4923    0.2743    0.5362 C   0  0  0  0  0  0  0  0  0  0  0  0
    2.3128   -0.2197   -0.2245 C   0  0  0  0  0  0  0  0  0  0  0  0
    1.1723    0.2456    0.3945 O   0  0  0  0  0  0  0  0  0  0  0  0
    0.0013   -0.1418   -0.2128 C   0  0  0  0  0  0  0  0  0  0  0  0
   -0.8364   -0.8650    0.8411 C   0  0  0  0  0  0  0  0  0  0  0  0
   -2.2165   -0.7872    0.2005 C   0  0  0  0  0  0  0  0  0  0  0  0
   -2.2793    0.6838   -0.1491 C   0  0  0  0  0  0  0  0  0  0  0  0
   -0.8628    1.0710   -0.4602 C   0  0  0  0  0  0  0  0  0  0  0  0
    4.5180    0.0338    0.2352 H   0  0  0  0  0  0  0  0  0  0  0  0
    2.3676    0.0103   -1.3039 H   0  0  0  0  0  0  0  0  0  0  0  0
    2.3014   -1.3303   -0.1400 H   0  0  0  0  0  0  0  0  0  0  0  0
    0.1317   -0.7685   -1.1074 H   0  0  0  0  0  0  0  0  0  0  0  0
   -0.8643   -0.1991    1.7169 H   0  0  0  0  0  0  0  0  0  0  0  0
   -0.5018   -1.8787    1.0274 H   0  0  0  0  0  0  0  0  0  0  0  0
   -2.1943   -1.4210   -0.7090 H   0  0  0  0  0  0  0  0  0  0  0  0
   -2.9948   -1.0544    0.9198 H   0  0  0  0  0  0  0  0  0  0  0  0
   -2.9802    0.8313   -0.9867 H   0  0  0  0  0  0  0  0  0  0  0  0
   -2.6286    1.2246    0.7677 H   0  0  0  0  0  0  0  0  0  0  0  0
   -0.5338    1.8761    0.2401 H   0  0  0  0  0  0  0  0  0  0  0  0
   -0.7747    1.4453   -1.5030 H   0  0  0  0  0  0  0  0  0  0  0  0
  1  2  2  0
  2  3  1  0
  3  4  1  0
  4  5  1  0
  5  6  1  0
  6  7  1  0
  7  8  1  0
  8  9  1  0
  9  5  1  0
  2 10  1  0
  3 11  1  0
  3 12  1  0
  5 13  1  0
  6 14  1  0
  6 15  1  0
  7 16  1  0
  7 17  1  0
  8 18  1  0
  8 19  1  0
  9 20  1  0
  9 21  1  0
M  END
