
     RDKit          3D

 17 19  0  0  0  0  0  0  0  0999 V2000
    2.7393    2.1538   -0.3961 O   0  0  0  0  0  0  0  0  0  0  0  0
    2.3748    0.9855   -0.6359 C   0  0  0  0  0  0  0  0  0  0  0  0
    1.1187    0.4987   -0.1160 C   0  0  0  0  0  0  0  0  0  0  0  0
    0.2181    1.1448    0.6352 C   0  0  0  0  0  0  0  0  0  0  0  0
   -0.9367    0.2655    0.9489 C   0  0  0  0  0  0  0  0  0  0  0  0
   -1.8315    0.0094   -0.2709 C   0  0  0  0  0  0  0  0  0  0  0  0
   -0.8463   -1.0359   -0.6934 C   0  0  0  0  0  0  0  0  0  0  0  0
    0.6044   -0.8899   -0.3553 C   0  0  0  0  0  0  0  0  0  0  0  0
   -0.3602   -1.0954    0.7033 C   0  0  0  0  0  0  0  0  0  0  0  0
    3.0131    0.3686   -1.2289 H   0  0  0  0  0  0  0  0  0  0  0  0
    0.3486    2.1736    0.9533 H   0  0  0  0  0  0  0  0  0  0  0  0
   -1.4508    0.4484    1.8814 H   0  0  0  0  0  0  0  0  0  0  0  0
   -1.8529    0.8419   -0.9834 H   0  0  0  0  0  0  0  0  0  0  0  0
   -2.8119   -0.3494    0.0908 H   0  0  0  0  0  0  0  0  0  0  0  0
   -1.1409   -1.9076   -1.2728 H   0  0  0  0  0  0  0  0  0  0  0  0
    1.2832   -1.6868   -0.6279 H   0  0  0  0  0  0  0  0  0  0  0  0
   -0.4689   -1.9254    1.3677 H   0  0  0  0  0  0  0  0  0  0  0  0
  1  2  2  0
  2  3  1  0
  3  4  2  0
  4  5  1  0
  5  6  1  0
  6  7  1  0
  7  8  1  0
  8  9  1  0
  8  3  1  0
  9  5  1  0
  9  7  1  0
  2 10  1  0
  4 11  1  0
  5 12  1  0
  6 13  1  0
  6 14  1  0
  7 15  1  0
  8 16  1  0
  9 17  1  0
M  END
