
     RDKit          3D

 17 17  0  0  0  0  0  0  0  0999 V2000
   -2.5795    1.7544   -0.0102 O   0  0  0  0  0  0  0  0  0  0  0  0
   -1.4375    1.5130    0.3696 C   0  0  0  0  0  0  0  0  0  0  0  0
   -0.8725    0.1762   -0.0614 C   0  0  0  0  0  0  0  0  0  0  0  0
    0.3923    0.2739   -0.8494 C   0  0  0  0  0  0  0  0  0  0  0  0
    0.4644   -0.7437   -1.8357 O   0  0  0  0  0  0  0  0  0  0  0  0
    1.5627   -0.0316    0.0954 C   0  0  0  0  0  0  0  0  0  0  0  0
    2.7573    0.1649   -0.5965 O   0  0  0  0  0  0  0  0  0  0  0  0
   -1.8308   -0.9448   -0.1540 C   0  0  0  0  0  0  0  0  0  0  0  0
   -0.8803   -0.9158    0.8035 O   0  0  0  0  0  0  0  0  0  0  0  0
   -0.8910    2.1988    0.9820 H   0  0  0  0  0  0  0  0  0  0  0  0
    0.5611    1.2583   -1.2815 H   0  0  0  0  0  0  0  0  0  0  0  0
    0.8480   -1.5803   -1.4892 H   0  0  0  0  0  0  0  0  0  0  0  0
    1.4880   -1.1199    0.3697 H   0  0  0  0  0  0  0  0  0  0  0  0
    1.5061    0.5263    1.0060 H   0  0  0  0  0  0  0  0  0  0  0  0
    3.5089   -0.1707   -0.0817 H   0  0  0  0  0  0  0  0  0  0  0  0
   -1.7390   -1.6141   -1.0138 H   0  0  0  0  0  0  0  0  0  0  0  0
   -2.8581   -0.7449    0.2382 H   0  0  0  0  0  0  0  0  0  0  0  0
  1  2  2  0
  2  3  1  0
  3  4  1  0
  4  5  1  0
  4  6  1  0
  6  7  1  0
  3  8  1  0
  8  9  1  0
  9  3  1  0
  2 10  1  0
  4 11  1  0
  5 12  1  0
  6 13  1  0
  6 14  1  0
  7 15  1  0
  8 16  1  0
  8 17  1  0
M  END
