
     RDKit          3D

 17 16  0  0  0  0  0  0  0  0999 V2000
   -1.8640   -1.8624   -0.7474 O   0  0  0  0  0  0  0  0  0  0  0  0
   -1.9858   -0.8349   -0.0993 C   0  0  0  0  0  0  0  0  0  0  0  0
   -0.7911   -0.0963    0.4411 C   0  0  0  0  0  0  0  0  0  0  0  0
   -1.2229    1.2609    0.7959 C   0  0  0  0  0  0  0  0  0  0  0  0
   -0.4659    2.1432    1.1703 O   0  0  0  0  0  0  0  0  0  0  0  0
    0.2635   -0.1550   -0.6100 C   0  0  0  0  0  0  0  0  0  0  0  0
    0.5473   -1.5183   -0.8374 O   0  0  0  0  0  0  0  0  0  0  0  0
    1.5224    0.5856   -0.2587 C   0  0  0  0  0  0  0  0  0  0  0  0
    2.1453    0.1083    0.8785 O   0  0  0  0  0  0  0  0  0  0  0  0
   -3.0022   -0.4872    0.0633 H   0  0  0  0  0  0  0  0  0  0  0  0
   -0.4720   -0.6124    1.3809 H   0  0  0  0  0  0  0  0  0  0  0  0
   -2.2820    1.5743    0.7451 H   0  0  0  0  0  0  0  0  0  0  0  0
   -0.1338    0.2657   -1.5444 H   0  0  0  0  0  0  0  0  0  0  0  0
    1.4815   -1.7331   -0.6530 H   0  0  0  0  0  0  0  0  0  0  0  0
    2.2411    0.3973   -1.1090 H   0  0  0  0  0  0  0  0  0  0  0  0
    1.3329    1.6596   -0.2412 H   0  0  0  0  0  0  0  0  0  0  0  0
    2.6857   -0.6953    0.6252 H   0  0  0  0  0  0  0  0  0  0  0  0
  1  2  2  0
  2  3  1  0
  3  4  1  0
  4  5  2  0
  3  6  1  0
  6  7  1  0
  6  8  1  0
  8  9  1  0
  2 10  1  0
  3 11  1  0
  4 12  1  0
  6 13  1  0
  7 14  1  0
  8 15  1  0
  8 16  1  0
  9 17  1  0
M  END
