
     RDKit          3D

 14 15  0  0  0  0  0  0  0  0999 V2000
    2.7552    1.0601   -0.7775 O   0  0  0  0  0  0  0  0  0  0  0  0
    2.1086   -0.0125   -0.5694 C   0  0  0  0  0  0  0  0  0  0  0  0
    0.7356   -0.0179   -0.1032 C   0  0  0  0  0  0  0  0  0  0  0  0
   -0.0002    1.0405    0.1581 C   0  0  0  0  0  0  0  0  0  0  0  0
   -1.3448    0.5295    0.6057 C   0  0  0  0  0  0  0  0  0  0  0  0
   -1.3848   -0.6009   -0.3936 C   0  0  0  0  0  0  0  0  0  0  0  0
   -1.0235   -1.8428   -0.3873 O   0  0  0  0  0  0  0  0  0  0  0  0
   -0.0556   -1.1926    0.1813 C   0  0  0  0  0  0  0  0  0  0  0  0
    2.6543   -0.9251   -0.7645 H   0  0  0  0  0  0  0  0  0  0  0  0
    0.2651    2.0627    0.0810 H   0  0  0  0  0  0  0  0  0  0  0  0
   -2.1403    1.2479    0.4561 H   0  0  0  0  0  0  0  0  0  0  0  0
   -1.2118    0.1635    1.6359 H   0  0  0  0  0  0  0  0  0  0  0  0
   -1.2974   -0.1450   -1.4314 H   0  0  0  0  0  0  0  0  0  0  0  0
   -0.0603   -1.3675    1.3089 H   0  0  0  0  0  0  0  0  0  0  0  0
  1  2  2  0
  2  3  1  0
  3  4  2  0
  4  5  1  0
  5  6  1  0
  6  7  1  0
  7  8  1  0
  8  3  1  0
  8  6  1  0
  2  9  1  0
  4 10  1  0
  5 11  1  0
  5 12  1  0
  6 13  1  0
  8 14  1  0
M  END
