
     RDKit          3D

 21 22  0  0  0  0  0  0  0  0999 V2000
    2.5429   -1.6767   -0.9722 O   0  0  0  0  0  0  0  0  0  0  0  0
    2.5239   -0.5463   -0.5223 C   0  0  0  0  0  0  0  0  0  0  0  0
    1.6578   -0.2328    0.6080 C   0  0  0  0  0  0  0  0  0  0  0  0
    0.2671   -0.0325    0.2968 C   0  0  0  0  0  0  0  0  0  0  0  0
   -0.1898    1.0350   -0.6355 C   0  0  0  0  0  0  0  0  0  0  0  0
   -1.7110    0.9357   -0.3877 C   0  0  0  0  0  0  0  0  0  0  0  0
   -1.7192   -0.2449    0.5318 C   0  0  0  0  0  0  0  0  0  0  0  0
   -0.6265    0.1450    1.5370 C   0  0  0  0  0  0  0  0  0  0  0  0
   -0.6377   -1.1820   -0.0294 C   0  0  0  0  0  0  0  0  0  0  0  0
    3.1527    0.2073   -0.9716 H   0  0  0  0  0  0  0  0  0  0  0  0
    1.7344   -1.0068    1.4288 H   0  0  0  0  0  0  0  0  0  0  0  0
    2.0645    0.6963    1.1034 H   0  0  0  0  0  0  0  0  0  0  0  0
    0.1979    2.0111   -0.2900 H   0  0  0  0  0  0  0  0  0  0  0  0
    0.0310    0.8270   -1.7018 H   0  0  0  0  0  0  0  0  0  0  0  0
   -1.9983    1.8422    0.1978 H   0  0  0  0  0  0  0  0  0  0  0  0
   -2.2640    0.8094   -1.3154 H   0  0  0  0  0  0  0  0  0  0  0  0
   -2.6107   -0.6689    0.8952 H   0  0  0  0  0  0  0  0  0  0  0  0
   -0.6700    1.1834    1.8699 H   0  0  0  0  0  0  0  0  0  0  0  0
   -0.3895   -0.6303    2.2678 H   0  0  0  0  0  0  0  0  0  0  0  0
   -0.7761   -1.4029   -1.1126 H   0  0  0  0  0  0  0  0  0  0  0  0
   -0.5795   -2.0681    0.5976 H   0  0  0  0  0  0  0  0  0  0  0  0
  1  2  2  0
  2  3  1  0
  3  4  1  0
  4  5  1  0
  5  6  1  0
  6  7  1  0
  7  8  1  0
  7  9  1  0
  8  4  1  0
  9  4  1  0
  2 10  1  0
  3 11  1  0
  3 12  1  0
  5 13  1  0
  5 14  1  0
  6 15  1  0
  6 16  1  0
  7 17  1  0
  8 18  1  0
  8 19  1  0
  9 20  1  0
  9 21  1  0
M  END
