
     RDKit          3D

 15 15  0  0  0  0  0  0  0  0999 V2000
    2.6289    0.8149    1.1057 O   0  0  0  0  0  0  0  0  0  0  0  0
    2.3156    0.0817    0.1859 C   0  0  0  0  0  0  0  0  0  0  0  0
    0.9459    0.0354   -0.3184 C   0  0  0  0  0  0  0  0  0  0  0  0
    0.2639   -1.3045   -0.0908 C   0  0  0  0  0  0  0  0  0  0  0  0
   -1.0283   -0.9597    0.3043 O   0  0  0  0  0  0  0  0  0  0  0  0
   -1.1580    0.3814   -0.0457 C   0  0  0  0  0  0  0  0  0  0  0  0
   -2.3006    1.0324    0.5884 C   0  0  0  0  0  0  0  0  0  0  0  0
   -2.5823    2.1930    0.4117 O   0  0  0  0  0  0  0  0  0  0  0  0
    0.0781    0.8960    0.3529 O   0  0  0  0  0  0  0  0  0  0  0  0
    3.0754   -0.5450   -0.2606 H   0  0  0  0  0  0  0  0  0  0  0  0
    0.8833    0.2600   -1.3929 H   0  0  0  0  0  0  0  0  0  0  0  0
    0.2441   -1.9212   -1.0122 H   0  0  0  0  0  0  0  0  0  0  0  0
    0.7535   -1.8671    0.7529 H   0  0  0  0  0  0  0  0  0  0  0  0
   -1.1923    0.4537   -1.1419 H   0  0  0  0  0  0  0  0  0  0  0  0
   -2.9273    0.4489    1.2494 H   0  0  0  0  0  0  0  0  0  0  0  0
  1  2  2  0
  2  3  1  0
  3  4  1  0
  4  5  1  0
  5  6  1  0
  6  7  1  0
  7  8  2  0
  6  9  1  0
  9  3  1  0
  2 10  1  0
  3 11  1  0
  4 12  1  0
  4 13  1  0
  6 14  1  0
  7 15  1  0
M  END
