
     RDKit          3D

 21 21  0  0  0  0  0  0  0  0999 V2000
   -2.3560   -0.8828   -1.5061 O   0  0  0  0  0  0  0  0  0  0  0  0
   -2.4517   -0.4457   -0.3840 C   0  0  0  0  0  0  0  0  0  0  0  0
   -1.2369   -0.0422    0.3395 C   0  0  0  0  0  0  0  0  0  0  0  0
   -0.6868    1.2699   -0.1657 C   0  0  0  0  0  0  0  0  0  0  0  0
    0.6735    1.1071   -0.8175 C   0  0  0  0  0  0  0  0  0  0  0  0
    1.6029    0.5481    0.2270 C   0  0  0  0  0  0  0  0  0  0  0  0
    1.0487   -0.7120    0.8217 C   0  0  0  0  0  0  0  0  0  0  0  0
    1.9729   -1.7716    0.7775 O   0  0  0  0  0  0  0  0  0  0  0  0
   -0.1986   -1.1517    0.1220 C   0  0  0  0  0  0  0  0  0  0  0  0
   -3.4209   -0.3601    0.0636 H   0  0  0  0  0  0  0  0  0  0  0  0
   -1.3898   -0.0223    1.4576 H   0  0  0  0  0  0  0  0  0  0  0  0
   -1.3503    1.7534   -0.8995 H   0  0  0  0  0  0  0  0  0  0  0  0
   -0.5402    1.9320    0.7125 H   0  0  0  0  0  0  0  0  0  0  0  0
    0.6351    0.4984   -1.7298 H   0  0  0  0  0  0  0  0  0  0  0  0
    0.9998    2.1312   -1.1077 H   0  0  0  0  0  0  0  0  0  0  0  0
    2.5655    0.3362   -0.2689 H   0  0  0  0  0  0  0  0  0  0  0  0
    1.7487    1.3619    0.9864 H   0  0  0  0  0  0  0  0  0  0  0  0
    0.7608   -0.4798    1.8838 H   0  0  0  0  0  0  0  0  0  0  0  0
    2.3251   -1.7522   -0.1689 H   0  0  0  0  0  0  0  0  0  0  0  0
   -0.6158   -2.0459    0.6210 H   0  0  0  0  0  0  0  0  0  0  0  0
   -0.0860   -1.2717   -0.9645 H   0  0  0  0  0  0  0  0  0  0  0  0
  1  2  2  0
  2  3  1  0
  3  4  1  0
  4  5  1  0
  5  6  1  0
  6  7  1  0
  7  8  1  0
  7  9  1  0
  9  3  1  0
  2 10  1  0
  3 11  1  0
  4 12  1  0
  4 13  1  0
  5 14  1  0
  5 15  1  0
  6 16  1  0
  6 17  1  0
  7 18  1  0
  8 19  1  0
  9 20  1  0
  9 21  1  0
M  END
