
     RDKit          3D

 17 19  0  0  0  0  0  0  0  0999 V2000
    2.7978    1.4011   -1.0573 O   0  0  0  0  0  0  0  0  0  0  0  0
    2.0072    0.5077   -1.2825 C   0  0  0  0  0  0  0  0  0  0  0  0
    1.3023   -0.1443   -0.1769 C   0  0  0  0  0  0  0  0  0  0  0  0
    0.2474    0.6453    0.5298 C   0  0  0  0  0  0  0  0  0  0  0  0
   -0.5968    0.4742   -0.6932 C   0  0  0  0  0  0  0  0  0  0  0  0
   -1.9757    0.3082   -0.1692 C   0  0  0  0  0  0  0  0  0  0  0  0
   -1.7830   -0.4830    0.9162 C   0  0  0  0  0  0  0  0  0  0  0  0
   -0.3313   -0.6837    0.9289 C   0  0  0  0  0  0  0  0  0  0  0  0
    0.0252   -0.8667   -0.5210 C   0  0  0  0  0  0  0  0  0  0  0  0
    1.8321    0.2029   -2.2978 H   0  0  0  0  0  0  0  0  0  0  0  0
    1.9300   -0.7497    0.5227 H   0  0  0  0  0  0  0  0  0  0  0  0
    0.3546    1.4587    1.1023 H   0  0  0  0  0  0  0  0  0  0  0  0
   -0.4243    1.0596   -1.5608 H   0  0  0  0  0  0  0  0  0  0  0  0
   -2.9209    0.6989   -0.5278 H   0  0  0  0  0  0  0  0  0  0  0  0
   -2.5314   -0.8670    1.6006 H   0  0  0  0  0  0  0  0  0  0  0  0
    0.1432   -1.2710    1.6720 H   0  0  0  0  0  0  0  0  0  0  0  0
   -0.0763   -1.6910   -1.0735 H   0  0  0  0  0  0  0  0  0  0  0  0
  1  2  2  0
  2  3  1  0
  3  4  1  0
  4  5  1  0
  5  6  1  0
  6  7  2  0
  7  8  1  0
  8  9  1  0
  9  3  1  0
  8  4  1  0
  9  5  1  0
  2 10  1  0
  3 11  1  0
  4 12  1  0
  5 13  1  0
  6 14  1  0
  7 15  1  0
  8 16  1  0
  9 17  1  0
M  END
