
     RDKit          3D

 17 18  0  0  0  0  0  0  0  0999 V2000
   -2.4183   -0.3892   -1.1424 O   0  0  0  0  0  0  0  0  0  0  0  0
   -2.0017   -0.0857   -0.0426 C   0  0  0  0  0  0  0  0  0  0  0  0
   -0.5651    0.0261    0.1882 C   0  0  0  0  0  0  0  0  0  0  0  0
    0.1853   -1.2394    0.4390 C   0  0  0  0  0  0  0  0  0  0  0  0
    1.4905   -1.0242   -0.1993 C   0  0  0  0  0  0  0  0  0  0  0  0
    1.5037    0.0521   -0.9801 C   0  0  0  0  0  0  0  0  0  0  0  0
    0.1582    0.7100   -0.9560 C   0  0  0  0  0  0  0  0  0  0  0  0
    0.1148    1.8829   -0.2087 O   0  0  0  0  0  0  0  0  0  0  0  0
   -0.0990    1.2098    0.9984 C   0  0  0  0  0  0  0  0  0  0  0  0
   -2.7076    0.0976    0.7522 H   0  0  0  0  0  0  0  0  0  0  0  0
    0.3547   -1.3344    1.5314 H   0  0  0  0  0  0  0  0  0  0  0  0
   -0.3942   -2.0756    0.0229 H   0  0  0  0  0  0  0  0  0  0  0  0
    2.4002   -1.6432   -0.0901 H   0  0  0  0  0  0  0  0  0  0  0  0
    2.3387    0.4290   -1.5610 H   0  0  0  0  0  0  0  0  0  0  0  0
   -0.3582    0.7106   -1.9126 H   0  0  0  0  0  0  0  0  0  0  0  0
    0.8518    1.0096    1.5011 H   0  0  0  0  0  0  0  0  0  0  0  0
   -0.8538    1.6639    1.6595 H   0  0  0  0  0  0  0  0  0  0  0  0
  1  2  2  0
  2  3  1  0
  3  4  1  0
  4  5  1  0
  5  6  2  0
  6  7  1  0
  7  8  1  0
  8  9  1  0
  7  3  1  0
  9  3  1  0
  2 10  1  0
  4 11  1  0
  4 12  1  0
  5 13  1  0
  6 14  1  0
  7 15  1  0
  9 16  1  0
  9 17  1  0
M  END
