
     RDKit          3D

 13 12  0  0  0  0  0  0  0  0999 V2000
    4.8990   -0.5025    0.2479 O   0  0  0  0  0  0  0  0  0  0  0  0
    4.1513   -0.9614   -0.6445 C   0  0  0  0  0  0  0  0  0  0  0  0
    2.7414   -0.7674   -0.5208 C   0  0  0  0  0  0  0  0  0  0  0  0
    1.5401   -0.5869   -0.4299 C   0  0  0  0  0  0  0  0  0  0  0  0
    0.1400   -0.3850   -0.3415 C   0  0  0  0  0  0  0  0  0  0  0  0
   -1.0498   -0.1958   -0.2661 C   0  0  0  0  0  0  0  0  0  0  0  0
   -2.5095    0.0311   -0.1505 C   0  0  0  0  0  0  0  0  0  0  0  0
   -2.7578    1.5132   -0.0189 C   0  0  0  0  0  0  0  0  0  0  0  0
   -3.5627    2.0551   -0.7642 O   0  0  0  0  0  0  0  0  0  0  0  0
    4.6100   -1.4824   -1.4666 H   0  0  0  0  0  0  0  0  0  0  0  0
   -2.8998   -0.4833    0.7445 H   0  0  0  0  0  0  0  0  0  0  0  0
   -3.0509   -0.3592   -1.0258 H   0  0  0  0  0  0  0  0  0  0  0  0
   -2.2513    2.1244    0.7125 H   0  0  0  0  0  0  0  0  0  0  0  0
  1  2  2  0
  2  3  1  0
  3  4  3  0
  4  5  1  0
  5  6  3  0
  6  7  1  0
  7  8  1  0
  8  9  2  0
  2 10  1  0
  7 11  1  0
  7 12  1  0
  8 13  1  0
M  END
