
     RDKit          3D

 17 18  0  0  0  0  0  0  0  0999 V2000
    2.8246    0.6725   -0.8785 O   0  0  0  0  0  0  0  0  0  0  0  0
    1.9390    0.3400   -0.1095 C   0  0  0  0  0  0  0  0  0  0  0  0
    0.7401   -0.3494   -0.5618 C   0  0  0  0  0  0  0  0  0  0  0  0
   -0.5015    0.5591   -0.5647 C   0  0  0  0  0  0  0  0  0  0  0  0
   -1.5601   -0.5181   -0.6224 C   0  0  0  0  0  0  0  0  0  0  0  0
   -1.0256   -1.5958    0.0766 O   0  0  0  0  0  0  0  0  0  0  0  0
    0.1935   -1.1574    0.6333 C   0  0  0  0  0  0  0  0  0  0  0  0
   -0.0272   -0.1572    1.5480 O   0  0  0  0  0  0  0  0  0  0  0  0
   -0.4234    0.9908    0.8830 C   0  0  0  0  0  0  0  0  0  0  0  0
    2.0833    0.5820    0.9378 H   0  0  0  0  0  0  0  0  0  0  0  0
    0.8219   -0.9474   -1.4578 H   0  0  0  0  0  0  0  0  0  0  0  0
   -0.5158    1.3094   -1.3041 H   0  0  0  0  0  0  0  0  0  0  0  0
   -2.4255   -0.1562   -0.0379 H   0  0  0  0  0  0  0  0  0  0  0  0
   -1.8394   -0.7782   -1.6666 H   0  0  0  0  0  0  0  0  0  0  0  0
    0.8414   -1.9503    0.9379 H   0  0  0  0  0  0  0  0  0  0  0  0
   -1.4422    1.3320    1.1665 H   0  0  0  0  0  0  0  0  0  0  0  0
    0.3169    1.8243    1.0204 H   0  0  0  0  0  0  0  0  0  0  0  0
  1  2  2  0
  2  3  1  0
  3  4  1  0
  4  5  1  0
  5  6  1  0
  6  7  1  0
  7  8  1  0
  8  9  1  0
  7  3  1  0
  9  4  1  0
  2 10  1  0
  3 11  1  0
  4 12  1  0
  5 13  1  0
  5 14  1  0
  7 15  1  0
  9 16  1  0
  9 17  1  0
M  END
