
     RDKit          3D

 17 18  0  0  0  0  0  0  0  0999 V2000
    3.2051   -0.3377    0.1903 O   0  0  0  0  0  0  0  0  0  0  0  0
    2.2127   -0.3382   -0.5018 C   0  0  0  0  0  0  0  0  0  0  0  0
    0.8959   -0.1726    0.1528 C   0  0  0  0  0  0  0  0  0  0  0  0
    0.1598   -1.3097    0.6763 C   0  0  0  0  0  0  0  0  0  0  0  0
   -1.1388   -1.1509    0.5721 C   0  0  0  0  0  0  0  0  0  0  0  0
   -1.4421    0.1309   -0.0428 C   0  0  0  0  0  0  0  0  0  0  0  0
   -2.3486    0.0525   -1.0989 O   0  0  0  0  0  0  0  0  0  0  0  0
   -0.1396    0.7132   -0.4132 C   0  0  0  0  0  0  0  0  0  0  0  0
    0.6866    1.2076    0.7644 C   0  0  0  0  0  0  0  0  0  0  0  0
    2.3460   -0.4608   -1.5702 H   0  0  0  0  0  0  0  0  0  0  0  0
    0.6711   -2.1934    1.1071 H   0  0  0  0  0  0  0  0  0  0  0  0
   -1.8400   -1.9170    0.9201 H   0  0  0  0  0  0  0  0  0  0  0  0
   -1.9782    0.7361    0.7411 H   0  0  0  0  0  0  0  0  0  0  0  0
   -3.0439    0.7582   -1.0655 H   0  0  0  0  0  0  0  0  0  0  0  0
    0.0815    1.1125   -1.4179 H   0  0  0  0  0  0  0  0  0  0  0  0
    1.4228    1.9925    0.5416 H   0  0  0  0  0  0  0  0  0  0  0  0
    0.2497    1.1768    1.7606 H   0  0  0  0  0  0  0  0  0  0  0  0
  1  2  2  0
  2  3  1  0
  3  4  1  0
  4  5  2  0
  5  6  1  0
  6  7  1  0
  6  8  1  0
  8  9  1  0
  8  3  1  0
  9  3  1  0
  2 10  1  0
  4 11  1  0
  5 12  1  0
  6 13  1  0
  7 14  1  0
  8 15  1  0
  9 16  1  0
  9 17  1  0
M  END
