
     RDKit          3D

 19 20  0  0  0  0  0  0  0  0999 V2000
    3.5145    0.4872    0.4535 O   0  0  0  0  0  0  0  0  0  0  0  0
    2.5890   -0.1822    0.0809 C   0  0  0  0  0  0  0  0  0  0  0  0
    1.3193    0.4859   -0.2856 C   0  0  0  0  0  0  0  0  0  0  0  0
    0.3021   -0.4974   -0.7175 C   0  0  0  0  0  0  0  0  0  0  0  0
   -1.0530   -0.0243   -1.1277 C   0  0  0  0  0  0  0  0  0  0  0  0
   -1.5568    0.8946   -0.0540 C   0  0  0  0  0  0  0  0  0  0  0  0
   -1.1357    0.0322    1.1547 C   0  0  0  0  0  0  0  0  0  0  0  0
   -0.5114   -1.0731    0.3784 C   0  0  0  0  0  0  0  0  0  0  0  0
   -1.4965   -1.2805   -0.6387 O   0  0  0  0  0  0  0  0  0  0  0  0
    2.6667   -1.2426    0.0103 H   0  0  0  0  0  0  0  0  0  0  0  0
    0.9803    1.0014    0.6321 H   0  0  0  0  0  0  0  0  0  0  0  0
    1.5025    1.2945   -1.0399 H   0  0  0  0  0  0  0  0  0  0  0  0
    0.6532   -1.2761   -1.4426 H   0  0  0  0  0  0  0  0  0  0  0  0
   -1.2611    0.1926   -2.1517 H   0  0  0  0  0  0  0  0  0  0  0  0
   -2.6398    1.0117   -0.0929 H   0  0  0  0  0  0  0  0  0  0  0  0
   -1.0921    1.8756   -0.0298 H   0  0  0  0  0  0  0  0  0  0  0  0
   -0.5148    0.6055    1.8254 H   0  0  0  0  0  0  0  0  0  0  0  0
   -2.0801   -0.3361    1.6396 H   0  0  0  0  0  0  0  0  0  0  0  0
   -0.1862   -1.9689    0.8794 H   0  0  0  0  0  0  0  0  0  0  0  0
  1  2  2  0
  2  3  1  0
  3  4  1  0
  4  5  1  0
  5  6  1  0
  6  7  1  0
  7  8  1  0
  8  9  1  0
  8  4  1  0
  9  5  1  0
  2 10  1  0
  3 11  1  0
  3 12  1  0
  4 13  1  0
  5 14  1  0
  6 15  1  0
  6 16  1  0
  7 17  1  0
  7 18  1  0
  8 19  1  0
M  END
