
     RDKit          3D

 19 18  0  0  0  0  0  0  0  0999 V2000
    2.6723    0.0915   -1.4641 O   0  0  0  0  0  0  0  0  0  0  0  0
    2.3576   -0.3681   -0.3903 C   0  0  0  0  0  0  0  0  0  0  0  0
    1.3106    0.2271    0.4773 C   0  0  0  0  0  0  0  0  0  0  0  0
    1.1837   -0.5272    1.6343 O   0  0  0  0  0  0  0  0  0  0  0  0
    0.0082    0.3076   -0.2809 C   0  0  0  0  0  0  0  0  0  0  0  0
   -0.4453   -1.0525   -0.7130 C   0  0  0  0  0  0  0  0  0  0  0  0
   -1.6415   -0.9689   -1.4082 O   0  0  0  0  0  0  0  0  0  0  0  0
   -1.0259    1.0310    0.5455 C   0  0  0  0  0  0  0  0  0  0  0  0
   -2.2296    1.1254   -0.1118 O   0  0  0  0  0  0  0  0  0  0  0  0
    2.8706   -1.2587   -0.0528 H   0  0  0  0  0  0  0  0  0  0  0  0
    1.6348    1.2583    0.7608 H   0  0  0  0  0  0  0  0  0  0  0  0
    0.2806   -0.8659    1.7926 H   0  0  0  0  0  0  0  0  0  0  0  0
    0.1803    0.9259   -1.1883 H   0  0  0  0  0  0  0  0  0  0  0  0
   -0.5326   -1.7657    0.1171 H   0  0  0  0  0  0  0  0  0  0  0  0
    0.3185   -1.4598   -1.4081 H   0  0  0  0  0  0  0  0  0  0  0  0
   -2.3688   -1.2326   -0.8003 H   0  0  0  0  0  0  0  0  0  0  0  0
   -0.6395    2.0845    0.6723 H   0  0  0  0  0  0  0  0  0  0  0  0
   -1.1413    0.5879    1.5683 H   0  0  0  0  0  0  0  0  0  0  0  0
   -2.7927    1.8602    0.2496 H   0  0  0  0  0  0  0  0  0  0  0  0
  1  2  2  0
  2  3  1  0
  3  4  1  0
  3  5  1  0
  5  6  1  0
  6  7  1  0
  5  8  1  0
  8  9  1  0
  2 10  1  0
  3 11  1  0
  4 12  1  0
  5 13  1  0
  6 14  1  0
  6 15  1  0
  7 16  1  0
  8 17  1  0
  8 18  1  0
  9 19  1  0
M  END
