
     RDKit          3D

 15 15  0  0  0  0  0  0  0  0999 V2000
    2.3552    1.9404    0.0868 O   0  0  0  0  0  0  0  0  0  0  0  0
    2.0822    0.7165   -0.1038 C   0  0  0  0  0  0  0  0  0  0  0  0
    0.7041    0.2790   -0.1276 C   0  0  0  0  0  0  0  0  0  0  0  0
   -0.2746    1.1391    0.0469 C   0  0  0  0  0  0  0  0  0  0  0  0
   -1.6993    0.6457    0.0155 C   0  0  0  0  0  0  0  0  0  0  0  0
   -1.7693   -0.5901    0.6991 O   0  0  0  0  0  0  0  0  0  0  0  0
   -0.7177   -1.4880    0.5941 C   0  0  0  0  0  0  0  0  0  0  0  0
   -0.7103   -2.5446    1.2754 O   0  0  0  0  0  0  0  0  0  0  0  0
    0.3830   -1.1449   -0.3490 C   0  0  0  0  0  0  0  0  0  0  0  0
    2.8940    0.0423   -0.2421 H   0  0  0  0  0  0  0  0  0  0  0  0
   -0.1113    2.1955    0.2139 H   0  0  0  0  0  0  0  0  0  0  0  0
   -2.3580    1.3467    0.5416 H   0  0  0  0  0  0  0  0  0  0  0  0
   -1.9896    0.5269   -1.0527 H   0  0  0  0  0  0  0  0  0  0  0  0
   -0.0474   -1.2547   -1.3724 H   0  0  0  0  0  0  0  0  0  0  0  0
    1.2587   -1.8097   -0.2256 H   0  0  0  0  0  0  0  0  0  0  0  0
  1  2  2  0
  2  3  1  0
  3  4  2  0
  4  5  1  0
  5  6  1  0
  6  7  1  0
  7  8  2  0
  7  9  1  0
  9  3  1  0
  2 10  1  0
  4 11  1  0
  5 12  1  0
  5 13  1  0
  9 14  1  0
  9 15  1  0
M  END
