
     RDKit          3D

 17 17  0  0  0  0  0  0  0  0999 V2000
   -1.6251   -1.3004   -1.6647 O   0  0  0  0  0  0  0  0  0  0  0  0
   -1.3475   -1.2906   -0.4743 C   0  0  0  0  0  0  0  0  0  0  0  0
   -0.6646   -0.0696    0.0382 C   0  0  0  0  0  0  0  0  0  0  0  0
   -1.6267    1.0313    0.2602 C   0  0  0  0  0  0  0  0  0  0  0  0
   -1.8931    1.7627   -0.6662 O   0  0  0  0  0  0  0  0  0  0  0  0
    0.4819    0.2741   -0.8965 C   0  0  0  0  0  0  0  0  0  0  0  0
    1.4324   -0.1609    0.1951 C   0  0  0  0  0  0  0  0  0  0  0  0
    2.3242    0.8552    0.4822 O   0  0  0  0  0  0  0  0  0  0  0  0
    0.2931   -0.3067    1.1792 C   0  0  0  0  0  0  0  0  0  0  0  0
   -1.6076   -2.1420    0.1103 H   0  0  0  0  0  0  0  0  0  0  0  0
   -2.0992    1.2093    1.2090 H   0  0  0  0  0  0  0  0  0  0  0  0
    0.5951   -0.3687   -1.7733 H   0  0  0  0  0  0  0  0  0  0  0  0
    0.5135    1.3414   -1.1568 H   0  0  0  0  0  0  0  0  0  0  0  0
    1.9793   -1.1066   -0.0286 H   0  0  0  0  0  0  0  0  0  0  0  0
    2.8092    1.0498   -0.3784 H   0  0  0  0  0  0  0  0  0  0  0  0
    0.2281    0.5371    1.9255 H   0  0  0  0  0  0  0  0  0  0  0  0
    0.2069   -1.3154    1.6390 H   0  0  0  0  0  0  0  0  0  0  0  0
  1  2  2  0
  2  3  1  0
  3  4  1  0
  4  5  2  0
  3  6  1  0
  6  7  1  0
  7  8  1  0
  7  9  1  0
  9  3  1  0
  2 10  1  0
  4 11  1  0
  6 12  1  0
  6 13  1  0
  7 14  1  0
  8 15  1  0
  9 16  1  0
  9 17  1  0
M  END
