
     RDKit          3D

 17 17  0  0  0  0  0  0  0  0999 V2000
    3.9276    0.0567    0.3519 O   0  0  0  0  0  0  0  0  0  0  0  0
    2.7942   -0.2383    0.7030 C   0  0  0  0  0  0  0  0  0  0  0  0
    1.5902    0.2085   -0.0320 C   0  0  0  0  0  0  0  0  0  0  0  0
    0.4761   -0.2789    0.6009 O   0  0  0  0  0  0  0  0  0  0  0  0
   -0.7201    0.0675    0.0125 C   0  0  0  0  0  0  0  0  0  0  0  0
   -1.0370    1.5098   -0.1019 C   0  0  0  0  0  0  0  0  0  0  0  0
   -2.0665    1.9182   -0.6049 O   0  0  0  0  0  0  0  0  0  0  0  0
   -1.8695   -0.8627    0.3865 C   0  0  0  0  0  0  0  0  0  0  0  0
   -1.3715   -0.8035   -0.9948 C   0  0  0  0  0  0  0  0  0  0  0  0
    2.6968   -0.8394    1.5723 H   0  0  0  0  0  0  0  0  0  0  0  0
    1.5572    1.3298    0.0649 H   0  0  0  0  0  0  0  0  0  0  0  0
    1.6203   -0.0954   -1.1014 H   0  0  0  0  0  0  0  0  0  0  0  0
   -0.3204    2.2196    0.2788 H   0  0  0  0  0  0  0  0  0  0  0  0
   -1.6316   -1.7926    0.9649 H   0  0  0  0  0  0  0  0  0  0  0  0
   -2.7751   -0.3476    0.7156 H   0  0  0  0  0  0  0  0  0  0  0  0
   -2.0350   -0.3460   -1.7462 H   0  0  0  0  0  0  0  0  0  0  0  0
   -0.8357   -1.7057   -1.4014 H   0  0  0  0  0  0  0  0  0  0  0  0
  1  2  2  0
  2  3  1  0
  3  4  1  0
  4  5  1  0
  5  6  1  0
  6  7  2  0
  5  8  1  0
  8  9  1  0
  9  5  1  0
  2 10  1  0
  3 11  1  0
  3 12  1  0
  6 13  1  0
  8 14  1  0
  8 15  1  0
  9 16  1  0
  9 17  1  0
M  END
