
     RDKit          3D

 19 20  0  0  0  0  0  0  0  0999 V2000
    3.3002   -0.4455   -1.0776 O   0  0  0  0  0  0  0  0  0  0  0  0
    2.2862   -0.6686   -0.4480 C   0  0  0  0  0  0  0  0  0  0  0  0
    1.4497    0.4568    0.0390 C   0  0  0  0  0  0  0  0  0  0  0  0
    0.7836    0.2337    1.4130 C   0  0  0  0  0  0  0  0  0  0  0  0
   -0.0087    0.2781    0.1963 C   0  0  0  0  0  0  0  0  0  0  0  0
   -0.6167   -0.9302   -0.4547 C   0  0  0  0  0  0  0  0  0  0  0  0
   -2.1040   -0.5646   -0.3922 C   0  0  0  0  0  0  0  0  0  0  0  0
   -2.0854    0.7792   -0.7282 O   0  0  0  0  0  0  0  0  0  0  0  0
   -0.9935    1.3584   -0.1152 C   0  0  0  0  0  0  0  0  0  0  0  0
    2.0217   -1.6964   -0.2598 H   0  0  0  0  0  0  0  0  0  0  0  0
    1.7804    1.4884   -0.1902 H   0  0  0  0  0  0  0  0  0  0  0  0
    1.0423   -0.7125    1.9405 H   0  0  0  0  0  0  0  0  0  0  0  0
    0.7838    1.1293    2.0625 H   0  0  0  0  0  0  0  0  0  0  0  0
   -0.4047   -1.8732    0.0394 H   0  0  0  0  0  0  0  0  0  0  0  0
   -0.3222   -0.9174   -1.5330 H   0  0  0  0  0  0  0  0  0  0  0  0
   -2.6993   -1.1413   -1.1128 H   0  0  0  0  0  0  0  0  0  0  0  0
   -2.4260   -0.7286    0.6589 H   0  0  0  0  0  0  0  0  0  0  0  0
   -1.2987    1.8986    0.8079 H   0  0  0  0  0  0  0  0  0  0  0  0
   -0.4887    2.0557   -0.8457 H   0  0  0  0  0  0  0  0  0  0  0  0
  1  2  2  0
  2  3  1  0
  3  4  1  0
  4  5  1  0
  5  6  1  0
  6  7  1  0
  7  8  1  0
  8  9  1  0
  5  3  1  0
  9  5  1  0
  2 10  1  0
  3 11  1  0
  4 12  1  0
  4 13  1  0
  6 14  1  0
  6 15  1  0
  7 16  1  0
  7 17  1  0
  9 18  1  0
  9 19  1  0
M  END
