
     RDKit          3D

 14 15  0  0  0  0  0  0  0  0999 V2000
    2.8594    0.6381   -0.1582 O   0  0  0  0  0  0  0  0  0  0  0  0
    2.0354   -0.1580    0.2847 C   0  0  0  0  0  0  0  0  0  0  0  0
    0.6207    0.2242    0.3380 C   0  0  0  0  0  0  0  0  0  0  0  0
   -0.3679   -0.9039    0.3978 C   0  0  0  0  0  0  0  0  0  0  0  0
   -1.6766   -0.1462    0.4541 C   0  0  0  0  0  0  0  0  0  0  0  0
   -1.4740    0.7463   -0.5198 C   0  0  0  0  0  0  0  0  0  0  0  0
   -0.0964    0.3553   -0.9778 C   0  0  0  0  0  0  0  0  0  0  0  0
   -0.2158   -1.0353   -0.9779 O   0  0  0  0  0  0  0  0  0  0  0  0
    2.4361   -1.1170    0.6135 H   0  0  0  0  0  0  0  0  0  0  0  0
    0.3876    1.0227    1.0908 H   0  0  0  0  0  0  0  0  0  0  0  0
   -0.2313   -1.7222    1.0414 H   0  0  0  0  0  0  0  0  0  0  0  0
   -2.5235   -0.3040    1.1101 H   0  0  0  0  0  0  0  0  0  0  0  0
   -2.0941    1.5425   -0.9053 H   0  0  0  0  0  0  0  0  0  0  0  0
    0.3405    0.8575   -1.7913 H   0  0  0  0  0  0  0  0  0  0  0  0
  1  2  2  0
  2  3  1  0
  3  4  1  0
  4  5  1  0
  5  6  2  0
  6  7  1  0
  7  8  1  0
  7  3  1  0
  8  4  1  0
  2  9  1  0
  3 10  1  0
  4 11  1  0
  5 12  1  0
  6 13  1  0
  7 14  1  0
M  END
