
     RDKit          3D

 17 18  0  0  0  0  0  0  0  0999 V2000
    2.1244    0.2944    1.6656 O   0  0  0  0  0  0  0  0  0  0  0  0
    2.4310    0.2517    0.4240 C   0  0  0  0  0  0  0  0  0  0  0  0
    1.4069    0.0874   -0.5975 C   0  0  0  0  0  0  0  0  0  0  0  0
    1.8317    0.0589   -1.8022 O   0  0  0  0  0  0  0  0  0  0  0  0
    0.1035   -0.0266   -0.2943 C   0  0  0  0  0  0  0  0  0  0  0  0
   -0.5638   -1.0806    0.5535 C   0  0  0  0  0  0  0  0  0  0  0  0
   -1.6788   -0.1266    0.2150 C   0  0  0  0  0  0  0  0  0  0  0  0
   -1.0831   -0.1050   -1.1699 C   0  0  0  0  0  0  0  0  0  0  0  0
   -0.7045    0.9726    0.5459 C   0  0  0  0  0  0  0  0  0  0  0  0
    3.4585    0.3372    0.1128 H   0  0  0  0  0  0  0  0  0  0  0  0
   -0.2130   -1.0762    1.5904 H   0  0  0  0  0  0  0  0  0  0  0  0
   -0.6397   -2.0826    0.0938 H   0  0  0  0  0  0  0  0  0  0  0  0
   -2.6408   -0.1930    0.4660 H   0  0  0  0  0  0  0  0  0  0  0  0
   -1.2788   -1.0510   -1.7024 H   0  0  0  0  0  0  0  0  0  0  0  0
   -1.3009    0.8159   -1.7320 H   0  0  0  0  0  0  0  0  0  0  0  0
   -0.8684    1.9239    0.0342 H   0  0  0  0  0  0  0  0  0  0  0  0
   -0.3841    0.9996    1.5973 H   0  0  0  0  0  0  0  0  0  0  0  0
  1  2  2  0
  2  3  1  0
  3  4  2  0
  3  5  1  0
  5  6  1  0
  6  7  1  0
  7  8  1  0
  7  9  1  0
  8  5  1  0
  9  5  1  0
  2 10  1  0
  6 11  1  0
  6 12  1  0
  7 13  1  0
  8 14  1  0
  8 15  1  0
  9 16  1  0
  9 17  1  0
M  END
