
     RDKit          3D

 15 16  0  0  0  0  0  0  0  0999 V2000
    2.9642    0.2523   -1.5850 O   0  0  0  0  0  0  0  0  0  0  0  0
    2.3334    0.6734   -0.5951 C   0  0  0  0  0  0  0  0  0  0  0  0
    1.0435    0.0918   -0.2974 C   0  0  0  0  0  0  0  0  0  0  0  0
    0.3939   -0.8802   -0.9604 C   0  0  0  0  0  0  0  0  0  0  0  0
   -0.8485   -0.9816   -0.1374 C   0  0  0  0  0  0  0  0  0  0  0  0
   -0.3223   -0.9312    1.1529 O   0  0  0  0  0  0  0  0  0  0  0  0
    0.0729    0.3776    0.7925 C   0  0  0  0  0  0  0  0  0  0  0  0
   -1.2232    0.4612    0.0548 C   0  0  0  0  0  0  0  0  0  0  0  0
   -2.3684    0.5543    0.8440 O   0  0  0  0  0  0  0  0  0  0  0  0
    2.7718    1.4548    0.0025 H   0  0  0  0  0  0  0  0  0  0  0  0
    0.6940   -1.4294   -1.8418 H   0  0  0  0  0  0  0  0  0  0  0  0
   -1.5797   -1.7025   -0.3859 H   0  0  0  0  0  0  0  0  0  0  0  0
    0.3219    1.0588    1.5578 H   0  0  0  0  0  0  0  0  0  0  0  0
   -1.2221    1.0765   -0.8621 H   0  0  0  0  0  0  0  0  0  0  0  0
   -3.0313   -0.0758    0.4180 H   0  0  0  0  0  0  0  0  0  0  0  0
  1  2  2  0
  2  3  1  0
  3  4  2  0
  4  5  1  0
  5  6  1  0
  6  7  1  0
  7  8  1  0
  8  9  1  0
  7  3  1  0
  8  5  1  0
  2 10  1  0
  4 11  1  0
  5 12  1  0
  7 13  1  0
  8 14  1  0
  9 15  1  0
M  END
