
     RDKit          3D

 16 16  0  0  0  0  0  0  0  0999 V2000
    2.6485   -1.2683   -1.0612 O   0  0  0  0  0  0  0  0  0  0  0  0
    1.5867   -1.1241   -0.4927 C   0  0  0  0  0  0  0  0  0  0  0  0
    0.9775    0.2058   -0.2541 C   0  0  0  0  0  0  0  0  0  0  0  0
    1.0321    0.5685    1.1776 C   0  0  0  0  0  0  0  0  0  0  0  0
    1.6792    1.5007    1.5766 O   0  0  0  0  0  0  0  0  0  0  0  0
   -0.4531    0.2707   -0.7657 C   0  0  0  0  0  0  0  0  0  0  0  0
   -1.4761   -0.6454   -0.2304 C   0  0  0  0  0  0  0  0  0  0  0  0
   -1.4762    0.7913    0.2296 C   0  0  0  0  0  0  0  0  0  0  0  0
    1.0675   -2.0034   -0.1478 H   0  0  0  0  0  0  0  0  0  0  0  0
    1.5361    0.9822   -0.8552 H   0  0  0  0  0  0  0  0  0  0  0  0
    0.4753   -0.0205    1.8838 H   0  0  0  0  0  0  0  0  0  0  0  0
   -0.6222    0.6331   -1.8077 H   0  0  0  0  0  0  0  0  0  0  0  0
   -2.3007   -0.9720   -0.9010 H   0  0  0  0  0  0  0  0  0  0  0  0
   -1.2318   -1.4028    0.5374 H   0  0  0  0  0  0  0  0  0  0  0  0
   -2.2735    1.4720   -0.1481 H   0  0  0  0  0  0  0  0  0  0  0  0
   -1.1694    1.0122    1.2589 H   0  0  0  0  0  0  0  0  0  0  0  0
  1  2  2  0
  2  3  1  0
  3  4  1  0
  4  5  2  0
  3  6  1  0
  6  7  1  0
  7  8  1  0
  8  6  1  0
  2  9  1  0
  3 10  1  0
  4 11  1  0
  6 12  1  0
  7 13  1  0
  7 14  1  0
  8 15  1  0
  8 16  1  0
M  END
