
     RDKit          3D

 19 19  0  0  0  0  0  0  0  0999 V2000
    2.9238   -0.8891    1.4008 O   0  0  0  0  0  0  0  0  0  0  0  0
    2.9655   -0.0210    0.5547 C   0  0  0  0  0  0  0  0  0  0  0  0
    1.7487    0.3496   -0.2220 C   0  0  0  0  0  0  0  0  0  0  0  0
    0.5813   -0.4977    0.2247 C   0  0  0  0  0  0  0  0  0  0  0  0
   -0.6181   -0.0890   -0.5841 C   0  0  0  0  0  0  0  0  0  0  0  0
   -1.9328   -0.7273   -0.3940 C   0  0  0  0  0  0  0  0  0  0  0  0
   -2.1704   -1.6067    0.6559 O   0  0  0  0  0  0  0  0  0  0  0  0
   -1.7099    0.7165    0.0306 C   0  0  0  0  0  0  0  0  0  0  0  0
   -2.3996    1.6649   -0.7420 O   0  0  0  0  0  0  0  0  0  0  0  0
    3.8897    0.5178    0.3321 H   0  0  0  0  0  0  0  0  0  0  0  0
    1.4840    1.4129    0.0395 H   0  0  0  0  0  0  0  0  0  0  0  0
    1.9266    0.3034   -1.3002 H   0  0  0  0  0  0  0  0  0  0  0  0
    0.8164   -1.5603   -0.0161 H   0  0  0  0  0  0  0  0  0  0  0  0
    0.4525   -0.3701    1.3026 H   0  0  0  0  0  0  0  0  0  0  0  0
   -0.3604    0.1394   -1.6566 H   0  0  0  0  0  0  0  0  0  0  0  0
   -2.5813   -0.9156   -1.2837 H   0  0  0  0  0  0  0  0  0  0  0  0
   -1.3638   -1.9345    1.0947 H   0  0  0  0  0  0  0  0  0  0  0  0
   -1.5865    0.9285    1.1128 H   0  0  0  0  0  0  0  0  0  0  0  0
   -2.0658    2.5782   -0.5496 H   0  0  0  0  0  0  0  0  0  0  0  0
  1  2  2  0
  2  3  1  0
  3  4  1  0
  4  5  1  0
  5  6  1  0
  6  7  1  0
  6  8  1  0
  8  9  1  0
  8  5  1  0
  2 10  1  0
  3 11  1  0
  3 12  1  0
  4 13  1  0
  4 14  1  0
  5 15  1  0
  6 16  1  0
  7 17  1  0
  8 18  1  0
  9 19  1  0
M  END
