
     RDKit          3D

 14 14  0  0  0  0  0  0  0  0999 V2000
    2.8289   -0.7518   -0.8228 O   0  0  0  0  0  0  0  0  0  0  0  0
    2.0165    0.1341   -0.8830 C   0  0  0  0  0  0  0  0  0  0  0  0
    0.8760    0.1434    0.0540 C   0  0  0  0  0  0  0  0  0  0  0  0
    0.0314    1.2336   -0.1487 O   0  0  0  0  0  0  0  0  0  0  0  0
   -1.1952    0.9259    0.3721 C   0  0  0  0  0  0  0  0  0  0  0  0
   -1.3001   -0.5887    0.4418 C   0  0  0  0  0  0  0  0  0  0  0  0
   -0.0378   -0.9844   -0.1892 C   0  0  0  0  0  0  0  0  0  0  0  0
    0.2045   -1.9926   -0.7716 O   0  0  0  0  0  0  0  0  0  0  0  0
    2.1149    0.9122   -1.6084 H   0  0  0  0  0  0  0  0  0  0  0  0
    1.2392    0.1420    1.1221 H   0  0  0  0  0  0  0  0  0  0  0  0
   -1.9736    1.2564   -0.3737 H   0  0  0  0  0  0  0  0  0  0  0  0
   -1.3501    1.4042    1.3606 H   0  0  0  0  0  0  0  0  0  0  0  0
   -2.2034   -0.9682   -0.0651 H   0  0  0  0  0  0  0  0  0  0  0  0
   -1.2511   -0.8661    1.5121 H   0  0  0  0  0  0  0  0  0  0  0  0
  1  2  2  0
  2  3  1  0
  3  4  1  0
  4  5  1  0
  5  6  1  0
  6  7  1  0
  7  8  2  0
  7  3  1  0
  2  9  1  0
  3 10  1  0
  5 11  1  0
  5 12  1  0
  6 13  1  0
  6 14  1  0
M  END
