
     RDKit          3D

 17 18  0  0  0  0  0  0  0  0999 V2000
    2.3755   -1.9316    0.4913 O   0  0  0  0  0  0  0  0  0  0  0  0
    2.2738   -0.6954    0.3069 C   0  0  0  0  0  0  0  0  0  0  0  0
    0.9464   -0.0705    0.0677 C   0  0  0  0  0  0  0  0  0  0  0  0
    0.7877    1.2201   -0.1309 C   0  0  0  0  0  0  0  0  0  0  0  0
   -0.6354    1.5615   -0.3412 C   0  0  0  0  0  0  0  0  0  0  0  0
   -1.3385    0.2594   -0.3906 C   0  0  0  0  0  0  0  0  0  0  0  0
   -1.4410   -0.5030    0.9365 C   0  0  0  0  0  0  0  0  0  0  0  0
   -0.3428   -0.8122    0.0215 C   0  0  0  0  0  0  0  0  0  0  0  0
   -0.3813   -1.9857   -0.7496 O   0  0  0  0  0  0  0  0  0  0  0  0
    3.1673   -0.1043    0.3266 H   0  0  0  0  0  0  0  0  0  0  0  0
    1.6335    1.9444   -0.1356 H   0  0  0  0  0  0  0  0  0  0  0  0
   -1.0055    2.0928    0.5882 H   0  0  0  0  0  0  0  0  0  0  0  0
   -0.7906    2.1999   -1.2340 H   0  0  0  0  0  0  0  0  0  0  0  0
   -2.0786    0.0093   -1.1680 H   0  0  0  0  0  0  0  0  0  0  0  0
   -2.2489   -1.2382    1.0211 H   0  0  0  0  0  0  0  0  0  0  0  0
   -1.1906    0.0261    1.8643 H   0  0  0  0  0  0  0  0  0  0  0  0
    0.2689   -1.9724   -1.4743 H   0  0  0  0  0  0  0  0  0  0  0  0
  1  2  2  0
  2  3  1  0
  3  4  2  0
  4  5  1  0
  5  6  1  0
  6  7  1  0
  7  8  1  0
  8  9  1  0
  8  3  1  0
  8  6  1  0
  2 10  1  0
  4 11  1  0
  5 12  1  0
  5 13  1  0
  6 14  1  0
  7 15  1  0
  7 16  1  0
  9 17  1  0
M  END
