
     RDKit          3D

 21 20  0  0  0  0  0  0  0  0999 V2000
   -2.8723   -1.6690   -0.6009 O   0  0  0  0  0  0  0  0  0  0  0  0
   -3.2592   -0.5290   -0.5011 C   0  0  0  0  0  0  0  0  0  0  0  0
   -2.3566    0.5336    0.0042 C   0  0  0  0  0  0  0  0  0  0  0  0
   -0.9903   -0.0872    0.3271 C   0  0  0  0  0  0  0  0  0  0  0  0
   -0.1671    1.0706    0.8255 C   0  0  0  0  0  0  0  0  0  0  0  0
    1.0498    0.7572    1.1957 O   0  0  0  0  0  0  0  0  0  0  0  0
    2.1017    0.3128    0.5670 C   0  0  0  0  0  0  0  0  0  0  0  0
    2.0853   -0.9966   -0.1716 C   0  0  0  0  0  0  0  0  0  0  0  0
    3.4245   -1.1210   -0.6830 O   0  0  0  0  0  0  0  0  0  0  0  0
   -4.2807   -0.2413   -0.7773 H   0  0  0  0  0  0  0  0  0  0  0  0
   -2.1988    1.3559   -0.7082 H   0  0  0  0  0  0  0  0  0  0  0  0
   -2.7565    0.8757    0.9811 H   0  0  0  0  0  0  0  0  0  0  0  0
   -0.5513   -0.5432   -0.5426 H   0  0  0  0  0  0  0  0  0  0  0  0
   -1.1780   -0.8170    1.1416 H   0  0  0  0  0  0  0  0  0  0  0  0
   -0.7294    1.5790    1.6932 H   0  0  0  0  0  0  0  0  0  0  0  0
   -0.1568    1.8548   -0.0072 H   0  0  0  0  0  0  0  0  0  0  0  0
    2.5489    1.0987   -0.1599 H   0  0  0  0  0  0  0  0  0  0  0  0
    2.9727    0.2881    1.3319 H   0  0  0  0  0  0  0  0  0  0  0  0
    1.5055   -0.9505   -1.1334 H   0  0  0  0  0  0  0  0  0  0  0  0
    1.8198   -1.8708    0.4047 H   0  0  0  0  0  0  0  0  0  0  0  0
    3.9885   -0.9008    0.1176 H   0  0  0  0  0  0  0  0  0  0  0  0
  1  2  2  0
  2  3  1  0
  3  4  1  0
  4  5  1  0
  5  6  1  0
  6  7  1  0
  7  8  1  0
  8  9  1  0
  2 10  1  0
  3 11  1  0
  3 12  1  0
  4 13  1  0
  4 14  1  0
  5 15  1  0
  5 16  1  0
  7 17  1  0
  7 18  1  0
  8 19  1  0
  8 20  1  0
  9 21  1  0
M  END
