
     RDKit          3D

 19 19  0  0  0  0  0  0  0  0999 V2000
   -1.3214    1.5683    1.5591 O   0  0  0  0  0  0  0  0  0  0  0  0
   -1.4291    1.3191    0.3881 C   0  0  0  0  0  0  0  0  0  0  0  0
   -0.7763    0.1474   -0.1995 C   0  0  0  0  0  0  0  0  0  0  0  0
   -1.5798   -1.1388    0.0390 C   0  0  0  0  0  0  0  0  0  0  0  0
   -2.8357   -1.0453   -0.5171 O   0  0  0  0  0  0  0  0  0  0  0  0
    0.5965   -0.1257    0.4097 C   0  0  0  0  0  0  0  0  0  0  0  0
    1.5891    0.9864    0.2545 C   0  0  0  0  0  0  0  0  0  0  0  0
    2.4601   -0.2049   -0.0906 C   0  0  0  0  0  0  0  0  0  0  0  0
    1.3154   -0.9371   -0.4800 O   0  0  0  0  0  0  0  0  0  0  0  0
   -2.0191    1.9729   -0.2412 H   0  0  0  0  0  0  0  0  0  0  0  0
   -0.6029    0.3059   -1.2782 H   0  0  0  0  0  0  0  0  0  0  0  0
   -1.6044   -1.3456    1.1270 H   0  0  0  0  0  0  0  0  0  0  0  0
   -0.9659   -1.9480   -0.4118 H   0  0  0  0  0  0  0  0  0  0  0  0
   -2.7936   -1.4463   -1.4175 H   0  0  0  0  0  0  0  0  0  0  0  0
    0.5265   -0.4933    1.4342 H   0  0  0  0  0  0  0  0  0  0  0  0
    1.4602    1.6472   -0.6233 H   0  0  0  0  0  0  0  0  0  0  0  0
    1.9127    1.4985    1.1749 H   0  0  0  0  0  0  0  0  0  0  0  0
    2.8945   -0.7196    0.8015 H   0  0  0  0  0  0  0  0  0  0  0  0
    3.1733   -0.0407   -0.9233 H   0  0  0  0  0  0  0  0  0  0  0  0
  1  2  2  0
  2  3  1  0
  3  4  1  0
  4  5  1  0
  3  6  1  0
  6  7  1  0
  7  8  1  0
  8  9  1  0
  9  6  1  0
  2 10  1  0
  3 11  1  0
  4 12  1  0
  4 13  1  0
  5 14  1  0
  6 15  1  0
  7 16  1  0
  7 17  1  0
  8 18  1  0
  8 19  1  0
M  END
