
     RDKit          3D

 19 19  0  0  0  0  0  0  0  0999 V2000
   -3.0292    0.8362   -1.2084 O   0  0  0  0  0  0  0  0  0  0  0  0
   -2.8890    0.5697   -0.0330 C   0  0  0  0  0  0  0  0  0  0  0  0
   -2.0029   -0.5216    0.3654 C   0  0  0  0  0  0  0  0  0  0  0  0
   -0.5468   -0.1520    0.3859 C   0  0  0  0  0  0  0  0  0  0  0  0
   -0.0517    0.2611   -0.8546 O   0  0  0  0  0  0  0  0  0  0  0  0
    1.1261    0.9545   -0.5692 C   0  0  0  0  0  0  0  0  0  0  0  0
    2.0775    0.1654    0.2863 C   0  0  0  0  0  0  0  0  0  0  0  0
    1.5203   -1.0749    0.8903 C   0  0  0  0  0  0  0  0  0  0  0  0
    0.1827   -1.2882    0.7303 O   0  0  0  0  0  0  0  0  0  0  0  0
   -3.4242    1.1508    0.7019 H   0  0  0  0  0  0  0  0  0  0  0  0
   -2.0838   -1.4120   -0.3209 H   0  0  0  0  0  0  0  0  0  0  0  0
   -2.2393   -0.9417    1.3778 H   0  0  0  0  0  0  0  0  0  0  0  0
   -0.3161    0.6159    1.1813 H   0  0  0  0  0  0  0  0  0  0  0  0
    0.8155    1.8960   -0.0651 H   0  0  0  0  0  0  0  0  0  0  0  0
    1.6430    1.2781   -1.4932 H   0  0  0  0  0  0  0  0  0  0  0  0
    2.4307    0.8495    1.0891 H   0  0  0  0  0  0  0  0  0  0  0  0
    3.0025   -0.1074   -0.2712 H   0  0  0  0  0  0  0  0  0  0  0  0
    2.0595   -1.9938    0.5223 H   0  0  0  0  0  0  0  0  0  0  0  0
    1.7251   -1.0855    1.9981 H   0  0  0  0  0  0  0  0  0  0  0  0
  1  2  2  0
  2  3  1  0
  3  4  1  0
  4  5  1  0
  5  6  1  0
  6  7  1  0
  7  8  1  0
  8  9  1  0
  9  4  1  0
  2 10  1  0
  3 11  1  0
  3 12  1  0
  4 13  1  0
  6 14  1  0
  6 15  1  0
  7 16  1  0
  7 17  1  0
  8 18  1  0
  8 19  1  0
M  END
