
     RDKit          3D

 17 18  0  0  0  0  0  0  0  0999 V2000
    1.5612    1.6160   -0.8212 O   0  0  0  0  0  0  0  0  0  0  0  0
    1.8588    0.4897   -0.4516 C   0  0  0  0  0  0  0  0  0  0  0  0
    0.9200   -0.2483    0.4074 C   0  0  0  0  0  0  0  0  0  0  0  0
   -0.1282    0.6375    1.0761 C   0  0  0  0  0  0  0  0  0  0  0  0
   -0.6637    1.3749   -0.0747 C   0  0  0  0  0  0  0  0  0  0  0  0
   -0.8306    0.4111   -1.0041 C   0  0  0  0  0  0  0  0  0  0  0  0
   -0.3207   -0.7889   -0.3148 C   0  0  0  0  0  0  0  0  0  0  0  0
   -0.2824   -1.9713   -0.8811 O   0  0  0  0  0  0  0  0  0  0  0  0
   -0.9981   -0.6284    1.0568 C   0  0  0  0  0  0  0  0  0  0  0  0
    2.7975    0.0333   -0.7471 H   0  0  0  0  0  0  0  0  0  0  0  0
    1.3203   -1.0305    1.0521 H   0  0  0  0  0  0  0  0  0  0  0  0
    0.0853    1.0894    1.9945 H   0  0  0  0  0  0  0  0  0  0  0  0
   -0.8749    2.4325   -0.1619 H   0  0  0  0  0  0  0  0  0  0  0  0
   -1.2359    0.4917   -2.0048 H   0  0  0  0  0  0  0  0  0  0  0  0
   -0.4981   -2.0425   -1.8490 H   0  0  0  0  0  0  0  0  0  0  0  0
   -2.0718   -0.4393    1.0094 H   0  0  0  0  0  0  0  0  0  0  0  0
   -0.6387   -1.4269    1.7140 H   0  0  0  0  0  0  0  0  0  0  0  0
  1  2  2  0
  2  3  1  0
  3  4  1  0
  4  5  1  0
  5  6  2  0
  6  7  1  0
  7  8  1  0
  7  9  1  0
  7  3  1  0
  9  4  1  0
  2 10  1  0
  3 11  1  0
  4 12  1  0
  5 13  1  0
  6 14  1  0
  8 15  1  0
  9 16  1  0
  9 17  1  0
M  END
