
     RDKit          3D

 21 22  0  0  0  0  0  0  0  0999 V2000
    2.3569    1.2582   -1.2453 O   0  0  0  0  0  0  0  0  0  0  0  0
    1.7288    0.2357   -1.0722 C   0  0  0  0  0  0  0  0  0  0  0  0
    1.3173   -0.1764    0.2656 C   0  0  0  0  0  0  0  0  0  0  0  0
    0.3484    0.7661    0.9696 C   0  0  0  0  0  0  0  0  0  0  0  0
   -0.6489    1.3475    0.0205 C   0  0  0  0  0  0  0  0  0  0  0  0
   -1.2645    0.3502   -0.8956 C   0  0  0  0  0  0  0  0  0  0  0  0
   -0.8009   -1.0531   -0.7070 C   0  0  0  0  0  0  0  0  0  0  0  0
    0.2431   -1.2140    0.3605 C   0  0  0  0  0  0  0  0  0  0  0  0
   -0.2278   -0.4890    1.6312 C   0  0  0  0  0  0  0  0  0  0  0  0
    1.4916   -0.3481   -1.9455 H   0  0  0  0  0  0  0  0  0  0  0  0
    2.1528   -0.4277    0.9678 H   0  0  0  0  0  0  0  0  0  0  0  0
    0.7825    1.4813    1.6527 H   0  0  0  0  0  0  0  0  0  0  0  0
   -0.1361    2.1288   -0.5753 H   0  0  0  0  0  0  0  0  0  0  0  0
   -1.4310    1.8601    0.6164 H   0  0  0  0  0  0  0  0  0  0  0  0
   -1.1152    0.6203   -1.9828 H   0  0  0  0  0  0  0  0  0  0  0  0
   -2.3859    0.3602   -0.7757 H   0  0  0  0  0  0  0  0  0  0  0  0
   -0.3799   -1.4857   -1.6443 H   0  0  0  0  0  0  0  0  0  0  0  0
   -1.6475   -1.7465   -0.4304 H   0  0  0  0  0  0  0  0  0  0  0  0
    0.5347   -2.2466    0.5103 H   0  0  0  0  0  0  0  0  0  0  0  0
    0.3914   -0.7477    2.5110 H   0  0  0  0  0  0  0  0  0  0  0  0
   -1.3097   -0.4738    1.7686 H   0  0  0  0  0  0  0  0  0  0  0  0
  1  2  2  0
  2  3  1  0
  3  4  1  0
  4  5  1  0
  5  6  1  0
  6  7  1  0
  7  8  1  0
  8  9  1  0
  8  3  1  0
  9  4  1  0
  2 10  1  0
  3 11  1  0
  4 12  1  0
  5 13  1  0
  5 14  1  0
  6 15  1  0
  6 16  1  0
  7 17  1  0
  7 18  1  0
  8 19  1  0
  9 20  1  0
  9 21  1  0
M  END
