
     RDKit          3D

 13 14  0  0  0  0  0  0  0  0999 V2000
   -2.6472   -0.0639    0.4323 O   0  0  0  0  0  0  0  0  0  0  0  0
   -1.6770   -0.1151   -0.2822 C   0  0  0  0  0  0  0  0  0  0  0  0
   -0.3396    0.0442    0.3453 C   0  0  0  0  0  0  0  0  0  0  0  0
   -0.3658    0.2383    1.7166 O   0  0  0  0  0  0  0  0  0  0  0  0
    0.5605    1.0171   -0.3151 C   0  0  0  0  0  0  0  0  0  0  0  0
    0.5833    2.2030   -0.5731 O   0  0  0  0  0  0  0  0  0  0  0  0
    1.5038   -0.1056   -0.5620 C   0  0  0  0  0  0  0  0  0  0  0  0
    1.0452   -1.1020   -1.3980 O   0  0  0  0  0  0  0  0  0  0  0  0
    0.6704   -1.0171   -0.0077 C   0  0  0  0  0  0  0  0  0  0  0  0
   -1.8186   -0.2729   -1.3377 H   0  0  0  0  0  0  0  0  0  0  0  0
   -0.8298    1.1004    1.8741 H   0  0  0  0  0  0  0  0  0  0  0  0
    2.5844    0.0335   -0.4030 H   0  0  0  0  0  0  0  0  0  0  0  0
    0.7305   -1.9599    0.5106 H   0  0  0  0  0  0  0  0  0  0  0  0
  1  2  2  0
  2  3  1  0
  3  4  1  0
  3  5  1  0
  5  6  2  0
  5  7  1  0
  7  8  1  0
  8  9  1  0
  9  3  1  0
  9  7  1  0
  2 10  1  0
  4 11  1  0
  7 12  1  0
  9 13  1  0
M  END
