
     RDKit          3D

 21 22  0  0  0  0  0  0  0  0999 V2000
    2.8357    1.0474    0.0862 O   0  0  0  0  0  0  0  0  0  0  0  0
    2.3940    0.4651   -0.8807 C   0  0  0  0  0  0  0  0  0  0  0  0
    1.3095   -0.5434   -0.8091 C   0  0  0  0  0  0  0  0  0  0  0  0
    1.2845   -1.3449    0.4911 C   0  0  0  0  0  0  0  0  0  0  0  0
    0.2009   -0.4152    0.1597 C   0  0  0  0  0  0  0  0  0  0  0  0
   -0.0298    0.9222    0.7458 C   0  0  0  0  0  0  0  0  0  0  0  0
   -1.3241    1.3422    0.0241 C   0  0  0  0  0  0  0  0  0  0  0  0
   -2.1451    0.0924    0.2681 C   0  0  0  0  0  0  0  0  0  0  0  0
   -1.1637   -0.9942   -0.1372 C   0  0  0  0  0  0  0  0  0  0  0  0
    2.8156    0.6952   -1.8484 H   0  0  0  0  0  0  0  0  0  0  0  0
    1.0182   -1.0370   -1.7653 H   0  0  0  0  0  0  0  0  0  0  0  0
    2.0690   -1.1300    1.2449 H   0  0  0  0  0  0  0  0  0  0  0  0
    1.0844   -2.4222    0.3059 H   0  0  0  0  0  0  0  0  0  0  0  0
    0.6886    1.7019    0.4933 H   0  0  0  0  0  0  0  0  0  0  0  0
   -0.3128    0.9089    1.8201 H   0  0  0  0  0  0  0  0  0  0  0  0
   -1.7605    2.2368    0.4871 H   0  0  0  0  0  0  0  0  0  0  0  0
   -1.0629    1.4772   -1.0466 H   0  0  0  0  0  0  0  0  0  0  0  0
   -2.3388    0.0496    1.3567 H   0  0  0  0  0  0  0  0  0  0  0  0
   -3.0643    0.0745   -0.3445 H   0  0  0  0  0  0  0  0  0  0  0  0
   -1.2118   -1.2443   -1.1940 H   0  0  0  0  0  0  0  0  0  0  0  0
   -1.2865   -1.8821    0.5426 H   0  0  0  0  0  0  0  0  0  0  0  0
  1  2  2  0
  2  3  1  0
  3  4  1  0
  4  5  1  0
  5  6  1  0
  6  7  1  0
  7  8  1  0
  8  9  1  0
  5  3  1  0
  9  5  1  0
  2 10  1  0
  3 11  1  0
  4 12  1  0
  4 13  1  0
  6 14  1  0
  6 15  1  0
  7 16  1  0
  7 17  1  0
  8 18  1  0
  8 19  1  0
  9 20  1  0
  9 21  1  0
M  END
