
     RDKit          3D

 17 18  0  0  0  0  0  0  0  0999 V2000
    2.8794   -0.7017    1.5095 O   0  0  0  0  0  0  0  0  0  0  0  0
    2.0769   -1.0393    0.6270 C   0  0  0  0  0  0  0  0  0  0  0  0
    0.9287   -0.2059    0.2893 C   0  0  0  0  0  0  0  0  0  0  0  0
    0.6367    0.9394    0.8592 C   0  0  0  0  0  0  0  0  0  0  0  0
   -0.6023    1.5359    0.2820 C   0  0  0  0  0  0  0  0  0  0  0  0
   -0.8385    0.7119   -0.9537 C   0  0  0  0  0  0  0  0  0  0  0  0
   -2.0102   -0.0525   -0.9216 O   0  0  0  0  0  0  0  0  0  0  0  0
   -1.3674   -1.1063   -0.2614 C   0  0  0  0  0  0  0  0  0  0  0  0
   -0.0569   -0.5492   -0.7445 C   0  0  0  0  0  0  0  0  0  0  0  0
    2.2789   -1.9859    0.1242 H   0  0  0  0  0  0  0  0  0  0  0  0
    1.2413    1.3840    1.6577 H   0  0  0  0  0  0  0  0  0  0  0  0
   -1.4386    1.4993    0.9948 H   0  0  0  0  0  0  0  0  0  0  0  0
   -0.3256    2.5846   -0.0033 H   0  0  0  0  0  0  0  0  0  0  0  0
   -0.5943    1.1677   -1.9137 H   0  0  0  0  0  0  0  0  0  0  0  0
   -1.5965   -2.0882   -0.7237 H   0  0  0  0  0  0  0  0  0  0  0  0
   -1.5316   -1.0648    0.8302 H   0  0  0  0  0  0  0  0  0  0  0  0
    0.3202   -1.0292   -1.6518 H   0  0  0  0  0  0  0  0  0  0  0  0
  1  2  2  0
  2  3  1  0
  3  4  2  0
  4  5  1  0
  5  6  1  0
  6  7  1  0
  7  8  1  0
  8  9  1  0
  9  3  1  0
  9  6  1  0
  2 10  1  0
  4 11  1  0
  5 12  1  0
  5 13  1  0
  6 14  1  0
  8 15  1  0
  8 16  1  0
  9 17  1  0
M  END
