
     RDKit          3D

 17 17  0  0  0  0  0  0  0  0999 V2000
   -2.4589   -1.4973    0.5355 O   0  0  0  0  0  0  0  0  0  0  0  0
   -1.4945   -1.0690   -0.0560 C   0  0  0  0  0  0  0  0  0  0  0  0
   -0.8975    0.1962    0.3477 C   0  0  0  0  0  0  0  0  0  0  0  0
   -1.5418    0.7839    1.4154 O   0  0  0  0  0  0  0  0  0  0  0  0
   -0.5213    1.1307   -0.7776 C   0  0  0  0  0  0  0  0  0  0  0  0
    0.6337    1.4606   -0.0912 O   0  0  0  0  0  0  0  0  0  0  0  0
    0.6027    0.2195    0.4963 C   0  0  0  0  0  0  0  0  0  0  0  0
    1.3468   -0.8791   -0.1982 C   0  0  0  0  0  0  0  0  0  0  0  0
    2.6808   -0.5829   -0.3077 O   0  0  0  0  0  0  0  0  0  0  0  0
   -1.0922   -1.6361   -0.8768 H   0  0  0  0  0  0  0  0  0  0  0  0
   -1.6694    1.7297    1.2370 H   0  0  0  0  0  0  0  0  0  0  0  0
   -1.2102    1.9698   -0.9495 H   0  0  0  0  0  0  0  0  0  0  0  0
   -0.3125    0.5792   -1.7002 H   0  0  0  0  0  0  0  0  0  0  0  0
    0.8784    0.2667    1.5726 H   0  0  0  0  0  0  0  0  0  0  0  0
    0.9332   -1.1005   -1.2032 H   0  0  0  0  0  0  0  0  0  0  0  0
    1.1928   -1.8092    0.4163 H   0  0  0  0  0  0  0  0  0  0  0  0
    2.9299    0.2378    0.1396 H   0  0  0  0  0  0  0  0  0  0  0  0
  1  2  2  0
  2  3  1  0
  3  4  1  0
  3  5  1  0
  5  6  1  0
  6  7  1  0
  7  8  1  0
  8  9  1  0
  7  3  1  0
  2 10  1  0
  4 11  1  0
  5 12  1  0
  5 13  1  0
  7 14  1  0
  8 15  1  0
  8 16  1  0
  9 17  1  0
M  END
