
     RDKit          3D

 15 16  0  0  0  0  0  0  0  0999 V2000
    2.8437   -0.7023   -0.0200 O   0  0  0  0  0  0  0  0  0  0  0  0
    2.1889    0.2984   -0.3220 C   0  0  0  0  0  0  0  0  0  0  0  0
    0.7293    0.2917   -0.2262 C   0  0  0  0  0  0  0  0  0  0  0  0
   -0.0642    1.3084   -0.5248 C   0  0  0  0  0  0  0  0  0  0  0  0
   -1.4737    0.9630   -0.3158 C   0  0  0  0  0  0  0  0  0  0  0  0
   -2.0284   -0.1120   -0.9912 O   0  0  0  0  0  0  0  0  0  0  0  0
   -1.4729   -0.3814    0.2517 C   0  0  0  0  0  0  0  0  0  0  0  0
   -0.0637   -0.8684    0.2230 C   0  0  0  0  0  0  0  0  0  0  0  0
    0.3645   -1.3574    1.4536 O   0  0  0  0  0  0  0  0  0  0  0  0
    2.7037    1.1840   -0.6593 H   0  0  0  0  0  0  0  0  0  0  0  0
    0.3049    2.2560   -0.8742 H   0  0  0  0  0  0  0  0  0  0  0  0
   -2.2050    1.7432   -0.0190 H   0  0  0  0  0  0  0  0  0  0  0  0
   -2.1374   -0.6136    1.1048 H   0  0  0  0  0  0  0  0  0  0  0  0
    0.1040   -1.6789   -0.5377 H   0  0  0  0  0  0  0  0  0  0  0  0
    0.2063   -2.3307    1.4570 H   0  0  0  0  0  0  0  0  0  0  0  0
  1  2  2  0
  2  3  1  0
  3  4  2  0
  4  5  1  0
  5  6  1  0
  6  7  1  0
  7  8  1  0
  8  9  1  0
  8  3  1  0
  7  5  1  0
  2 10  1  0
  4 11  1  0
  5 12  1  0
  7 13  1  0
  8 14  1  0
  9 15  1  0
M  END
