
     RDKit          3D

 17 16  0  0  0  0  0  0  0  0999 V2000
    2.0858    2.1096    1.5106 O   0  0  0  0  0  0  0  0  0  0  0  0
    2.4671    1.9401    0.2966 C   0  0  0  0  0  0  0  0  0  0  0  0
    2.4926    0.5786   -0.2381 C   0  0  0  0  0  0  0  0  0  0  0  0
    1.2829   -0.1449   -0.0296 C   0  0  0  0  0  0  0  0  0  0  0  0
    0.2043   -0.8050    0.1759 C   0  0  0  0  0  0  0  0  0  0  0  0
   -1.0261   -1.5340    0.4219 C   0  0  0  0  0  0  0  0  0  0  0  0
   -2.0904   -1.0200   -0.4860 C   0  0  0  0  0  0  0  0  0  0  0  0
   -2.3954    0.4020   -0.1880 C   0  0  0  0  0  0  0  0  0  0  0  0
   -1.8365    0.9288    0.7600 O   0  0  0  0  0  0  0  0  0  0  0  0
    2.7261    2.8531   -0.1966 H   0  0  0  0  0  0  0  0  0  0  0  0
    2.8037    0.5234   -1.3166 H   0  0  0  0  0  0  0  0  0  0  0  0
    3.3846    0.0786    0.2838 H   0  0  0  0  0  0  0  0  0  0  0  0
   -0.8981   -2.6296    0.1883 H   0  0  0  0  0  0  0  0  0  0  0  0
   -1.2670   -1.4575    1.5118 H   0  0  0  0  0  0  0  0  0  0  0  0
   -1.8061   -1.1856   -1.5529 H   0  0  0  0  0  0  0  0  0  0  0  0
   -3.0421   -1.6103   -0.3645 H   0  0  0  0  0  0  0  0  0  0  0  0
   -3.0852    0.9727   -0.7766 H   0  0  0  0  0  0  0  0  0  0  0  0
  1  2  2  0
  2  3  1  0
  3  4  1  0
  4  5  3  0
  5  6  1  0
  6  7  1  0
  7  8  1  0
  8  9  2  0
  2 10  1  0
  3 11  1  0
  3 12  1  0
  6 13  1  0
  6 14  1  0
  7 15  1  0
  7 16  1  0
  8 17  1  0
M  END
