
     RDKit          3D

 17 18  0  0  0  0  0  0  0  0999 V2000
    3.0372   -0.4265   -0.0470 O   0  0  0  0  0  0  0  0  0  0  0  0
    1.9810   -0.4959   -0.6342 C   0  0  0  0  0  0  0  0  0  0  0  0
    0.9087    0.4698   -0.4250 C   0  0  0  0  0  0  0  0  0  0  0  0
   -0.4832   -0.0929   -0.7480 C   0  0  0  0  0  0  0  0  0  0  0  0
   -0.4773   -1.3344    0.0796 C   0  0  0  0  0  0  0  0  0  0  0  0
    0.0484   -0.8167    1.2942 O   0  0  0  0  0  0  0  0  0  0  0  0
    0.3097    0.4877    0.9911 C   0  0  0  0  0  0  0  0  0  0  0  0
   -0.9767    0.9249    0.2743 C   0  0  0  0  0  0  0  0  0  0  0  0
   -2.1360    0.5946    0.9230 O   0  0  0  0  0  0  0  0  0  0  0  0
    1.8342   -1.3003   -1.3335 H   0  0  0  0  0  0  0  0  0  0  0  0
    1.0172    1.4739   -0.8573 H   0  0  0  0  0  0  0  0  0  0  0  0
   -0.8309   -0.0589   -1.7326 H   0  0  0  0  0  0  0  0  0  0  0  0
    0.2150   -2.0700   -0.3602 H   0  0  0  0  0  0  0  0  0  0  0  0
   -1.4898   -1.7475    0.2573 H   0  0  0  0  0  0  0  0  0  0  0  0
    0.7326    1.1610    1.6907 H   0  0  0  0  0  0  0  0  0  0  0  0
   -0.8586    1.9484   -0.0775 H   0  0  0  0  0  0  0  0  0  0  0  0
   -2.8314    1.2830    0.7052 H   0  0  0  0  0  0  0  0  0  0  0  0
  1  2  2  0
  2  3  1  0
  3  4  1  0
  4  5  1  0
  5  6  1  0
  6  7  1  0
  7  8  1  0
  8  9  1  0
  7  3  1  0
  8  4  1  0
  2 10  1  0
  3 11  1  0
  4 12  1  0
  5 13  1  0
  5 14  1  0
  7 15  1  0
  8 16  1  0
  9 17  1  0
M  END
