
     RDKit          3D

 16 15  0  0  0  0  0  0  0  0999 V2000
    3.0565   -0.7917   -0.6005 O   0  0  0  0  0  0  0  0  0  0  0  0
    2.0513   -0.5968    0.0611 C   0  0  0  0  0  0  0  0  0  0  0  0
    1.0455    0.3350   -0.4661 C   0  0  0  0  0  0  0  0  0  0  0  0
   -0.1465    0.4972    0.4300 C   0  0  0  0  0  0  0  0  0  0  0  0
   -1.0868    1.4624   -0.2149 C   0  0  0  0  0  0  0  0  0  0  0  0
   -1.0271    2.6313    0.1042 O   0  0  0  0  0  0  0  0  0  0  0  0
   -0.9084   -0.8230    0.5378 C   0  0  0  0  0  0  0  0  0  0  0  0
   -1.3106   -1.1639   -0.7396 O   0  0  0  0  0  0  0  0  0  0  0  0
    1.9659   -1.1207    0.9896 H   0  0  0  0  0  0  0  0  0  0  0  0
    1.5411    1.3492   -0.5170 H   0  0  0  0  0  0  0  0  0  0  0  0
    0.7462    0.0194   -1.4731 H   0  0  0  0  0  0  0  0  0  0  0  0
    0.1592    0.8395    1.4329 H   0  0  0  0  0  0  0  0  0  0  0  0
   -1.8178    1.1736   -0.9513 H   0  0  0  0  0  0  0  0  0  0  0  0
   -1.8035   -0.6453    1.1720 H   0  0  0  0  0  0  0  0  0  0  0  0
   -0.2539   -1.5780    0.9902 H   0  0  0  0  0  0  0  0  0  0  0  0
   -2.2110   -1.5882   -0.7555 H   0  0  0  0  0  0  0  0  0  0  0  0
  1  2  2  0
  2  3  1  0
  3  4  1  0
  4  5  1  0
  5  6  2  0
  4  7  1  0
  7  8  1  0
  2  9  1  0
  3 10  1  0
  3 11  1  0
  4 12  1  0
  5 13  1  0
  7 14  1  0
  7 15  1  0
  8 16  1  0
M  END
