
     RDKit          3D

 19 20  0  0  0  0  0  0  0  0999 V2000
    3.6926   -0.2027   -1.0933 O   0  0  0  0  0  0  0  0  0  0  0  0
    3.1891   -0.5470   -0.0449 C   0  0  0  0  0  0  0  0  0  0  0  0
    1.7394   -0.6265    0.1328 C   0  0  0  0  0  0  0  0  0  0  0  0
    0.9083   -0.9546   -0.9306 O   0  0  0  0  0  0  0  0  0  0  0  0
    0.9518    0.4022   -0.6731 C   0  0  0  0  0  0  0  0  0  0  0  0
   -0.1442    1.0618    0.1193 C   0  0  0  0  0  0  0  0  0  0  0  0
   -1.1651    0.0843    0.6375 C   0  0  0  0  0  0  0  0  0  0  0  0
   -1.9033   -0.7239   -0.4392 C   0  0  0  0  0  0  0  0  0  0  0  0
   -2.6157    0.3321    0.3549 C   0  0  0  0  0  0  0  0  0  0  0  0
    3.8432   -0.7996    0.7736 H   0  0  0  0  0  0  0  0  0  0  0  0
    1.3411   -0.9469    1.1112 H   0  0  0  0  0  0  0  0  0  0  0  0
    1.4856    0.9955   -1.4128 H   0  0  0  0  0  0  0  0  0  0  0  0
   -0.6839    1.7535   -0.5734 H   0  0  0  0  0  0  0  0  0  0  0  0
    0.2305    1.6843    0.9489 H   0  0  0  0  0  0  0  0  0  0  0  0
   -0.8953   -0.4265    1.5722 H   0  0  0  0  0  0  0  0  0  0  0  0
   -1.6112   -0.5340   -1.4723 H   0  0  0  0  0  0  0  0  0  0  0  0
   -2.1009   -1.7910   -0.2160 H   0  0  0  0  0  0  0  0  0  0  0  0
   -2.8833    1.2977   -0.1191 H   0  0  0  0  0  0  0  0  0  0  0  0
   -3.3786   -0.0587    1.0511 H   0  0  0  0  0  0  0  0  0  0  0  0
  1  2  2  0
  2  3  1  0
  3  4  1  0
  4  5  1  0
  5  6  1  0
  6  7  1  0
  7  8  1  0
  8  9  1  0
  5  3  1  0
  9  7  1  0
  2 10  1  0
  3 11  1  0
  5 12  1  0
  6 13  1  0
  6 14  1  0
  7 15  1  0
  8 16  1  0
  8 17  1  0
  9 18  1  0
  9 19  1  0
M  END
