
     RDKit          3D

 15 15  0  0  0  0  0  0  0  0999 V2000
    2.8698   -0.2188    0.8833 O   0  0  0  0  0  0  0  0  0  0  0  0
    2.2997   -0.1259   -0.1732 C   0  0  0  0  0  0  0  0  0  0  0  0
    1.0074   -0.8389   -0.3875 C   0  0  0  0  0  0  0  0  0  0  0  0
   -0.0631   -0.0267    0.2819 C   0  0  0  0  0  0  0  0  0  0  0  0
   -1.4347   -0.6249    0.1514 C   0  0  0  0  0  0  0  0  0  0  0  0
   -2.2465    0.5041    0.5197 O   0  0  0  0  0  0  0  0  0  0  0  0
   -1.5241    1.6232    0.0937 C   0  0  0  0  0  0  0  0  0  0  0  0
   -1.9695    2.8220    0.1196 O   0  0  0  0  0  0  0  0  0  0  0  0
   -0.2682    1.2243   -0.3532 O   0  0  0  0  0  0  0  0  0  0  0  0
    2.6889    0.4638   -0.9935 H   0  0  0  0  0  0  0  0  0  0  0  0
    1.0833   -1.8636    0.0154 H   0  0  0  0  0  0  0  0  0  0  0  0
    0.7499   -0.8652   -1.4834 H   0  0  0  0  0  0  0  0  0  0  0  0
    0.1432    0.1911    1.3432 H   0  0  0  0  0  0  0  0  0  0  0  0
   -1.6542   -1.4133    0.8740 H   0  0  0  0  0  0  0  0  0  0  0  0
   -1.6818   -0.8511   -0.8916 H   0  0  0  0  0  0  0  0  0  0  0  0
  1  2  2  0
  2  3  1  0
  3  4  1  0
  4  5  1  0
  5  6  1  0
  6  7  1  0
  7  8  2  0
  7  9  1  0
  9  4  1  0
  2 10  1  0
  3 11  1  0
  3 12  1  0
  4 13  1  0
  5 14  1  0
  5 15  1  0
M  END
