
     RDKit          3D

 19 20  0  0  0  0  0  0  0  0999 V2000
   -1.9684    1.9273    0.5879 O   0  0  0  0  0  0  0  0  0  0  0  0
   -1.0310    1.2515    0.9484 C   0  0  0  0  0  0  0  0  0  0  0  0
   -0.7426   -0.0108    0.2307 C   0  0  0  0  0  0  0  0  0  0  0  0
    0.4264   -0.8488    0.6839 C   0  0  0  0  0  0  0  0  0  0  0  0
    1.7391   -0.1313    0.6056 C   0  0  0  0  0  0  0  0  0  0  0  0
    2.3079    0.4015   -0.6026 C   0  0  0  0  0  0  0  0  0  0  0  0
    1.6985    1.2791    0.4172 O   0  0  0  0  0  0  0  0  0  0  0  0
   -1.2004   -0.0807   -1.2043 C   0  0  0  0  0  0  0  0  0  0  0  0
   -1.9518   -0.8522   -0.1875 C   0  0  0  0  0  0  0  0  0  0  0  0
   -0.4019    1.5384    1.7722 H   0  0  0  0  0  0  0  0  0  0  0  0
    0.2131   -1.1817    1.7200 H   0  0  0  0  0  0  0  0  0  0  0  0
    0.4594   -1.7605    0.0412 H   0  0  0  0  0  0  0  0  0  0  0  0
    2.4322   -0.3966    1.4382 H   0  0  0  0  0  0  0  0  0  0  0  0
    3.4168    0.5162   -0.6549 H   0  0  0  0  0  0  0  0  0  0  0  0
    1.7477    0.5283   -1.5326 H   0  0  0  0  0  0  0  0  0  0  0  0
   -0.5723   -0.5677   -1.9648 H   0  0  0  0  0  0  0  0  0  0  0  0
   -1.7349    0.8133   -1.5969 H   0  0  0  0  0  0  0  0  0  0  0  0
   -2.9608   -0.4833    0.1433 H   0  0  0  0  0  0  0  0  0  0  0  0
   -1.8771   -1.9419   -0.1694 H   0  0  0  0  0  0  0  0  0  0  0  0
  1  2  2  0
  2  3  1  0
  3  4  1  0
  4  5  1  0
  5  6  1  0
  6  7  1  0
  3  8  1  0
  8  9  1  0
  9  3  1  0
  7  5  1  0
  2 10  1  0
  4 11  1  0
  4 12  1  0
  5 13  1  0
  6 14  1  0
  6 15  1  0
  8 16  1  0
  8 17  1  0
  9 18  1  0
  9 19  1  0
M  END
