
     RDKit          3D

 17 19  0  0  0  0  0  0  0  0999 V2000
   -2.3785    1.2058    1.0560 O   0  0  0  0  0  0  0  0  0  0  0  0
   -1.1756    1.1893    0.8754 C   0  0  0  0  0  0  0  0  0  0  0  0
   -0.6369    0.3928   -0.2517 C   0  0  0  0  0  0  0  0  0  0  0  0
   -1.5356   -0.6223   -0.7065 C   0  0  0  0  0  0  0  0  0  0  0  0
   -0.4229   -1.1631   -0.0167 C   0  0  0  0  0  0  0  0  0  0  0  0
    0.4777   -0.5735    1.0484 C   0  0  0  0  0  0  0  0  0  0  0  0
    0.8588    0.2993   -0.1238 C   0  0  0  0  0  0  0  0  0  0  0  0
    1.8677    0.2904   -0.9885 C   0  0  0  0  0  0  0  0  0  0  0  0
    1.6663    1.3734   -0.0358 O   0  0  0  0  0  0  0  0  0  0  0  0
   -0.6099    1.7816    1.5852 H   0  0  0  0  0  0  0  0  0  0  0  0
   -2.5520   -0.8019   -0.2355 H   0  0  0  0  0  0  0  0  0  0  0  0
   -1.6784   -0.6661   -1.8301 H   0  0  0  0  0  0  0  0  0  0  0  0
    0.3029   -1.6370   -0.7629 H   0  0  0  0  0  0  0  0  0  0  0  0
   -0.0209   -0.1228    1.8994 H   0  0  0  0  0  0  0  0  0  0  0  0
    1.2360   -1.2827    1.4039 H   0  0  0  0  0  0  0  0  0  0  0  0
    1.7751    0.6116   -2.0686 H   0  0  0  0  0  0  0  0  0  0  0  0
    2.8262   -0.2748   -0.8482 H   0  0  0  0  0  0  0  0  0  0  0  0
  1  2  2  0
  2  3  1  0
  3  4  1  0
  4  5  1  0
  5  6  1  0
  6  7  1  0
  7  8  1  0
  8  9  1  0
  5  3  1  0
  9  7  1  0
  7  3  1  0
  2 10  1  0
  4 11  1  0
  4 12  1  0
  5 13  1  0
  6 14  1  0
  6 15  1  0
  8 16  1  0
  8 17  1  0
M  END
