
     RDKit          3D

 19 20  0  0  0  0  0  0  0  0999 V2000
    3.0436   -1.0838   -0.6947 O   0  0  0  0  0  0  0  0  0  0  0  0
    1.9229   -1.1184   -0.2049 C   0  0  0  0  0  0  0  0  0  0  0  0
    1.0193   -0.0223   -0.5070 C   0  0  0  0  0  0  0  0  0  0  0  0
    1.2389    1.2591    0.3169 C   0  0  0  0  0  0  0  0  0  0  0  0
   -0.2566    1.5026    0.0460 C   0  0  0  0  0  0  0  0  0  0  0  0
   -0.3429    0.0075   -0.0002 C   0  0  0  0  0  0  0  0  0  0  0  0
   -0.9327   -0.7446    1.0740 C   0  0  0  0  0  0  0  0  0  0  0  0
   -1.4858   -0.7705   -0.3461 C   0  0  0  0  0  0  0  0  0  0  0  0
   -2.7070   -0.1643   -0.5992 O   0  0  0  0  0  0  0  0  0  0  0  0
    1.6912   -1.9710    0.4206 H   0  0  0  0  0  0  0  0  0  0  0  0
    1.0788    0.2618   -1.5926 H   0  0  0  0  0  0  0  0  0  0  0  0
    1.9090    1.9854   -0.1389 H   0  0  0  0  0  0  0  0  0  0  0  0
    1.4341    0.9707    1.3701 H   0  0  0  0  0  0  0  0  0  0  0  0
   -0.3347    1.9576   -0.9653 H   0  0  0  0  0  0  0  0  0  0  0  0
   -0.7887    2.0022    0.8548 H   0  0  0  0  0  0  0  0  0  0  0  0
   -1.6080   -0.1873    1.7831 H   0  0  0  0  0  0  0  0  0  0  0  0
   -0.5380   -1.6641    1.5166 H   0  0  0  0  0  0  0  0  0  0  0  0
   -1.3469   -1.7674   -0.8339 H   0  0  0  0  0  0  0  0  0  0  0  0
   -2.9966   -0.4534   -1.4994 H   0  0  0  0  0  0  0  0  0  0  0  0
  1  2  2  0
  2  3  1  0
  3  4  1  0
  4  5  1  0
  5  6  1  0
  6  7  1  0
  7  8  1  0
  8  9  1  0
  6  3  1  0
  8  6  1  0
  2 10  1  0
  3 11  1  0
  4 12  1  0
  4 13  1  0
  5 14  1  0
  5 15  1  0
  7 16  1  0
  7 17  1  0
  8 18  1  0
  9 19  1  0
M  END
