
     RDKit          3D

 15 15  0  0  0  0  0  0  0  0999 V2000
   -1.7721   -1.8134   -0.4610 O   0  0  0  0  0  0  0  0  0  0  0  0
   -1.8586   -0.6652   -0.1129 C   0  0  0  0  0  0  0  0  0  0  0  0
   -0.6824    0.2088    0.0383 C   0  0  0  0  0  0  0  0  0  0  0  0
   -0.9600    1.4909    0.4437 O   0  0  0  0  0  0  0  0  0  0  0  0
    0.4830   -0.4191    0.8110 C   0  0  0  0  0  0  0  0  0  0  0  0
    1.3107    0.4993   -0.1004 C   0  0  0  0  0  0  0  0  0  0  0  0
    2.5675    0.0706   -0.3819 O   0  0  0  0  0  0  0  0  0  0  0  0
    0.2573    0.2245   -1.1198 C   0  0  0  0  0  0  0  0  0  0  0  0
    0.2447    0.0886   -2.3267 O   0  0  0  0  0  0  0  0  0  0  0  0
   -2.8438   -0.2651    0.0959 H   0  0  0  0  0  0  0  0  0  0  0  0
   -1.8701    1.5715    0.7833 H   0  0  0  0  0  0  0  0  0  0  0  0
    0.6205   -1.4728    0.5393 H   0  0  0  0  0  0  0  0  0  0  0  0
    0.5383   -0.1364    1.8565 H   0  0  0  0  0  0  0  0  0  0  0  0
    1.2765    1.5193    0.3384 H   0  0  0  0  0  0  0  0  0  0  0  0
    2.6888   -0.9015   -0.4036 H   0  0  0  0  0  0  0  0  0  0  0  0
  1  2  2  0
  2  3  1  0
  3  4  1  0
  3  5  1  0
  5  6  1  0
  6  7  1  0
  6  8  1  0
  8  9  2  0
  8  3  1  0
  2 10  1  0
  4 11  1  0
  5 12  1  0
  5 13  1  0
  6 14  1  0
  7 15  1  0
M  END
