
     RDKit          3D

 17 18  0  0  0  0  0  0  0  0999 V2000
   -3.7861   -0.3394   -0.3820 O   0  0  0  0  0  0  0  0  0  0  0  0
   -2.8783   -0.0268    0.3812 C   0  0  0  0  0  0  0  0  0  0  0  0
   -1.5613   -0.6703    0.3871 C   0  0  0  0  0  0  0  0  0  0  0  0
   -0.7283   -0.1093    1.3625 O   0  0  0  0  0  0  0  0  0  0  0  0
    0.2670   -0.7141    0.5951 C   0  0  0  0  0  0  0  0  0  0  0  0
    0.8657   -0.2764   -0.6121 C   0  0  0  0  0  0  0  0  0  0  0  0
    1.9483    0.8095   -0.5057 C   0  0  0  0  0  0  0  0  0  0  0  0
    3.0073    0.4069    0.2587 O   0  0  0  0  0  0  0  0  0  0  0  0
   -0.5483    0.0201   -0.5460 C   0  0  0  0  0  0  0  0  0  0  0  0
   -3.0698    0.7730    1.0893 H   0  0  0  0  0  0  0  0  0  0  0  0
   -1.5495   -1.7728    0.3177 H   0  0  0  0  0  0  0  0  0  0  0  0
    0.0796   -1.8329    0.6443 H   0  0  0  0  0  0  0  0  0  0  0  0
    1.1601   -1.0142   -1.4166 H   0  0  0  0  0  0  0  0  0  0  0  0
    2.2101    1.1088   -1.5205 H   0  0  0  0  0  0  0  0  0  0  0  0
    1.4585    1.6838   -0.0188 H   0  0  0  0  0  0  0  0  0  0  0  0
    3.8299    0.8230   -0.1098 H   0  0  0  0  0  0  0  0  0  0  0  0
   -0.7047    1.1313   -0.3617 H   0  0  0  0  0  0  0  0  0  0  0  0
  1  2  2  0
  2  3  1  0
  3  4  1  0
  4  5  1  0
  5  6  1  0
  6  7  1  0
  7  8  1  0
  6  9  1  0
  9  3  1  0
  9  5  1  0
  2 10  1  0
  3 11  1  0
  5 12  1  0
  6 13  1  0
  7 14  1  0
  7 15  1  0
  8 16  1  0
  9 17  1  0
M  END
