
     RDKit          3D

 19 19  0  0  0  0  0  0  0  0999 V2000
    3.2224    1.2730   -0.0235 O   0  0  0  0  0  0  0  0  0  0  0  0
    2.0160    1.1408   -0.0478 C   0  0  0  0  0  0  0  0  0  0  0  0
    1.4499   -0.2225   -0.0275 C   0  0  0  0  0  0  0  0  0  0  0  0
   -0.0561   -0.2222   -0.0623 C   0  0  0  0  0  0  0  0  0  0  0  0
   -0.5638   -1.6545   -0.0391 C   0  0  0  0  0  0  0  0  0  0  0  0
   -0.3383   -2.3262   -1.2185 O   0  0  0  0  0  0  0  0  0  0  0  0
   -0.7399    0.5960    0.9887 C   0  0  0  0  0  0  0  0  0  0  0  0
   -1.3276    1.4221   -0.1595 C   0  0  0  0  0  0  0  0  0  0  0  0
   -0.6198    0.5767   -1.0279 O   0  0  0  0  0  0  0  0  0  0  0  0
    1.3797    1.9995   -0.0832 H   0  0  0  0  0  0  0  0  0  0  0  0
    1.8242   -0.8137    0.8066 H   0  0  0  0  0  0  0  0  0  0  0  0
    1.7804   -0.7603   -0.9640 H   0  0  0  0  0  0  0  0  0  0  0  0
   -1.6807   -1.6244    0.1139 H   0  0  0  0  0  0  0  0  0  0  0  0
   -0.1688   -2.2136    0.8283 H   0  0  0  0  0  0  0  0  0  0  0  0
   -1.1484   -2.2900   -1.8039 H   0  0  0  0  0  0  0  0  0  0  0  0
   -0.0874    1.1998    1.6378 H   0  0  0  0  0  0  0  0  0  0  0  0
   -1.5566    0.0770    1.5073 H   0  0  0  0  0  0  0  0  0  0  0  0
   -0.9715    2.4794   -0.1631 H   0  0  0  0  0  0  0  0  0  0  0  0
   -2.4136    1.3631   -0.2622 H   0  0  0  0  0  0  0  0  0  0  0  0
  1  2  2  0
  2  3  1  0
  3  4  1  0
  4  5  1  0
  5  6  1  0
  4  7  1  0
  7  8  1  0
  8  9  1  0
  9  4  1  0
  2 10  1  0
  3 11  1  0
  3 12  1  0
  5 13  1  0
  5 14  1  0
  6 15  1  0
  7 16  1  0
  7 17  1  0
  8 18  1  0
  8 19  1  0
M  END
