
     RDKit          3D

 19 20  0  0  0  0  0  0  0  0999 V2000
    3.2725   -0.0002   -0.7739 O   0  0  0  0  0  0  0  0  0  0  0  0
    2.6059   -0.3975    0.1496 C   0  0  0  0  0  0  0  0  0  0  0  0
    1.1795   -0.0384    0.2913 C   0  0  0  0  0  0  0  0  0  0  0  0
    0.2975   -1.2726    0.2879 C   0  0  0  0  0  0  0  0  0  0  0  0
   -1.0852   -0.7812    0.7414 C   0  0  0  0  0  0  0  0  0  0  0  0
   -1.5087    0.1992   -0.3191 C   0  0  0  0  0  0  0  0  0  0  0  0
   -1.3447    1.6651   -0.1101 C   0  0  0  0  0  0  0  0  0  0  0  0
   -0.4762    0.8377   -1.0834 C   0  0  0  0  0  0  0  0  0  0  0  0
    0.8151    0.7595   -0.7437 O   0  0  0  0  0  0  0  0  0  0  0  0
    3.0645   -1.0284    0.8859 H   0  0  0  0  0  0  0  0  0  0  0  0
    1.0431    0.4274    1.2981 H   0  0  0  0  0  0  0  0  0  0  0  0
    0.2455   -1.6545   -0.7510 H   0  0  0  0  0  0  0  0  0  0  0  0
    0.6649   -2.0779    0.9204 H   0  0  0  0  0  0  0  0  0  0  0  0
   -1.7536   -1.6543    0.8083 H   0  0  0  0  0  0  0  0  0  0  0  0
   -0.9444   -0.3236    1.7367 H   0  0  0  0  0  0  0  0  0  0  0  0
   -2.4520   -0.0884   -0.8296 H   0  0  0  0  0  0  0  0  0  0  0  0
   -0.8726    2.0481    0.7981 H   0  0  0  0  0  0  0  0  0  0  0  0
   -2.0716    2.3589   -0.6095 H   0  0  0  0  0  0  0  0  0  0  0  0
   -0.6796    1.0211   -2.1781 H   0  0  0  0  0  0  0  0  0  0  0  0
  1  2  2  0
  2  3  1  0
  3  4  1  0
  4  5  1  0
  5  6  1  0
  6  7  1  0
  7  8  1  0
  8  9  1  0
  9  3  1  0
  8  6  1  0
  2 10  1  0
  3 11  1  0
  4 12  1  0
  4 13  1  0
  5 14  1  0
  5 15  1  0
  6 16  1  0
  7 17  1  0
  7 18  1  0
  8 19  1  0
M  END
