
     RDKit          3D

 21 22  0  0  0  0  0  0  0  0999 V2000
    4.1382   -0.5005    0.4554 O   0  0  0  0  0  0  0  0  0  0  0  0
    2.9385   -0.6845    0.3445 C   0  0  0  0  0  0  0  0  0  0  0  0
    2.1782    0.2586   -0.4942 C   0  0  0  0  0  0  0  0  0  0  0  0
    0.7038   -0.0790   -0.5502 C   0  0  0  0  0  0  0  0  0  0  0  0
   -0.0921   -0.0994    0.7185 C   0  0  0  0  0  0  0  0  0  0  0  0
   -1.3481   -0.9450    0.7268 C   0  0  0  0  0  0  0  0  0  0  0  0
   -2.3346   -0.2552   -0.1870 C   0  0  0  0  0  0  0  0  0  0  0  0
   -1.6697    0.9918   -0.6920 C   0  0  0  0  0  0  0  0  0  0  0  0
   -0.2551    0.9935   -0.2378 C   0  0  0  0  0  0  0  0  0  0  0  0
    2.4851   -1.5245    0.8613 H   0  0  0  0  0  0  0  0  0  0  0  0
    2.6221    0.3550   -1.5006 H   0  0  0  0  0  0  0  0  0  0  0  0
    2.2994    1.2750   -0.0200 H   0  0  0  0  0  0  0  0  0  0  0  0
    0.4771   -0.9063   -1.2475 H   0  0  0  0  0  0  0  0  0  0  0  0
    0.4867    0.0180    1.6467 H   0  0  0  0  0  0  0  0  0  0  0  0
   -1.7482   -0.9310    1.7601 H   0  0  0  0  0  0  0  0  0  0  0  0
   -1.1506   -1.9911    0.4088 H   0  0  0  0  0  0  0  0  0  0  0  0
   -3.2834   -0.0383    0.3472 H   0  0  0  0  0  0  0  0  0  0  0  0
   -2.6348   -0.9223   -1.0450 H   0  0  0  0  0  0  0  0  0  0  0  0
   -2.1843    1.8646   -0.2102 H   0  0  0  0  0  0  0  0  0  0  0  0
   -1.8026    1.1465   -1.7855 H   0  0  0  0  0  0  0  0  0  0  0  0
    0.1740    1.9739    0.0608 H   0  0  0  0  0  0  0  0  0  0  0  0
  1  2  2  0
  2  3  1  0
  3  4  1  0
  4  5  1  0
  5  6  1  0
  6  7  1  0
  7  8  1  0
  8  9  1  0
  9  4  1  0
  9  5  1  0
  2 10  1  0
  3 11  1  0
  3 12  1  0
  4 13  1  0
  5 14  1  0
  6 15  1  0
  6 16  1  0
  7 17  1  0
  7 18  1  0
  8 19  1  0
  8 20  1  0
  9 21  1  0
M  END
