
     RDKit          3D

 15 17  0  0  0  0  0  0  0  0999 V2000
   -2.3831   -0.3313    1.4624 O   0  0  0  0  0  0  0  0  0  0  0  0
   -1.7355    0.4934    0.8652 C   0  0  0  0  0  0  0  0  0  0  0  0
   -0.8729    0.0977   -0.2512 C   0  0  0  0  0  0  0  0  0  0  0  0
    0.2258    1.1333   -0.5332 C   0  0  0  0  0  0  0  0  0  0  0  0
    1.0108    0.4371   -1.4262 O   0  0  0  0  0  0  0  0  0  0  0  0
    1.2572   -0.7554   -0.7117 C   0  0  0  0  0  0  0  0  0  0  0  0
    1.2335   -0.3295    0.6809 C   0  0  0  0  0  0  0  0  0  0  0  0
    0.9548    1.0570    0.6358 O   0  0  0  0  0  0  0  0  0  0  0  0
    0.0852   -1.0377    0.1349 C   0  0  0  0  0  0  0  0  0  0  0  0
   -1.7934    1.5234    1.1557 H   0  0  0  0  0  0  0  0  0  0  0  0
   -1.4422   -0.1461   -1.1638 H   0  0  0  0  0  0  0  0  0  0  0  0
   -0.1351    2.0883   -0.8288 H   0  0  0  0  0  0  0  0  0  0  0  0
    1.9084   -1.5122   -1.1385 H   0  0  0  0  0  0  0  0  0  0  0  0
    1.9724   -0.7140    1.3639 H   0  0  0  0  0  0  0  0  0  0  0  0
   -0.2858   -2.0040    0.4038 H   0  0  0  0  0  0  0  0  0  0  0  0
  1  2  2  0
  2  3  1  0
  3  4  1  0
  4  5  1  0
  5  6  1  0
  6  7  1  0
  7  8  1  0
  7  9  1  0
  9  3  1  0
  8  4  1  0
  9  6  1  0
  2 10  1  0
  3 11  1  0
  4 12  1  0
  6 13  1  0
  7 14  1  0
  9 15  1  0
M  END
