
     RDKit          3D

 15 15  0  0  0  0  0  0  0  0999 V2000
    1.5810    0.3889    1.8281 O   0  0  0  0  0  0  0  0  0  0  0  0
    1.2266    1.0865    0.9040 C   0  0  0  0  0  0  0  0  0  0  0  0
    0.5782    0.5416   -0.2954 C   0  0  0  0  0  0  0  0  0  0  0  0
    1.4105   -0.3269   -1.1522 C   0  0  0  0  0  0  0  0  0  0  0  0
    2.5702   -0.4383   -1.6222 O   0  0  0  0  0  0  0  0  0  0  0  0
    0.3005   -1.1463   -1.3125 O   0  0  0  0  0  0  0  0  0  0  0  0
   -0.0819   -0.8157   -0.0151 C   0  0  0  0  0  0  0  0  0  0  0  0
   -1.5616   -0.6748    0.2321 C   0  0  0  0  0  0  0  0  0  0  0  0
   -2.1234    0.3027   -0.5469 O   0  0  0  0  0  0  0  0  0  0  0  0
    1.4030    2.1457    0.9843 H   0  0  0  0  0  0  0  0  0  0  0  0
   -0.0654    1.2340   -0.8635 H   0  0  0  0  0  0  0  0  0  0  0  0
    0.4837   -1.3487    0.7538 H   0  0  0  0  0  0  0  0  0  0  0  0
   -1.6902   -0.4966    1.3257 H   0  0  0  0  0  0  0  0  0  0  0  0
   -2.0202   -1.6633   -0.0494 H   0  0  0  0  0  0  0  0  0  0  0  0
   -2.0110    1.2112   -0.1708 H   0  0  0  0  0  0  0  0  0  0  0  0
  1  2  2  0
  2  3  1  0
  3  4  1  0
  4  5  2  0
  4  6  1  0
  6  7  1  0
  7  8  1  0
  8  9  1  0
  7  3  1  0
  2 10  1  0
  3 11  1  0
  7 12  1  0
  8 13  1  0
  8 14  1  0
  9 15  1  0
M  END
