
     RDKit          3D

 15 16  0  0  0  0  0  0  0  0999 V2000
   -2.4455    0.6304    1.1289 O   0  0  0  0  0  0  0  0  0  0  0  0
   -1.9821   -0.3505    0.5890 C   0  0  0  0  0  0  0  0  0  0  0  0
   -0.5352   -0.5259    0.5015 C   0  0  0  0  0  0  0  0  0  0  0  0
    0.0278   -0.9110   -0.8393 C   0  0  0  0  0  0  0  0  0  0  0  0
    0.8595    0.3290   -0.8496 C   0  0  0  0  0  0  0  0  0  0  0  0
    1.6567    0.7218    0.3318 C   0  0  0  0  0  0  0  0  0  0  0  0
    0.1851    0.7991    0.3714 C   0  0  0  0  0  0  0  0  0  0  0  0
   -2.6457   -1.0904    0.1749 H   0  0  0  0  0  0  0  0  0  0  0  0
   -0.0528   -1.1386    1.2948 H   0  0  0  0  0  0  0  0  0  0  0  0
    0.6305   -1.8408   -0.8652 H   0  0  0  0  0  0  0  0  0  0  0  0
   -0.7054   -0.8906   -1.6881 H   0  0  0  0  0  0  0  0  0  0  0  0
    0.9830    0.9295   -1.7544 H   0  0  0  0  0  0  0  0  0  0  0  0
    2.2151   -0.0665    0.8832 H   0  0  0  0  0  0  0  0  0  0  0  0
    2.1916    1.6793    0.2854 H   0  0  0  0  0  0  0  0  0  0  0  0
   -0.3826    1.7251    0.4357 H   0  0  0  0  0  0  0  0  0  0  0  0
  1  2  2  0
  2  3  1  0
  3  4  1  0
  4  5  1  0
  5  6  1  0
  6  7  1  0
  7  3  1  0
  7  5  1  0
  2  8  1  0
  3  9  1  0
  4 10  1  0
  4 11  1  0
  5 12  1  0
  6 13  1  0
  6 14  1  0
  7 15  1  0
M  END
