
     RDKit          3D

 17 17  0  0  0  0  0  0  0  0999 V2000
    2.4260   -1.1921   -1.2529 O   0  0  0  0  0  0  0  0  0  0  0  0
    2.5804   -0.6733   -0.1186 C   0  0  0  0  0  0  0  0  0  0  0  0
    1.5286    0.1231    0.4962 C   0  0  0  0  0  0  0  0  0  0  0  0
    1.7674    0.6054    1.6341 O   0  0  0  0  0  0  0  0  0  0  0  0
    0.2597    0.3189   -0.2360 C   0  0  0  0  0  0  0  0  0  0  0  0
   -0.6424    1.1680    0.6110 C   0  0  0  0  0  0  0  0  0  0  0  0
   -2.0060    0.7628    0.2219 C   0  0  0  0  0  0  0  0  0  0  0  0
   -1.9652   -0.4459   -0.2998 C   0  0  0  0  0  0  0  0  0  0  0  0
   -0.5471   -0.9649   -0.3071 C   0  0  0  0  0  0  0  0  0  0  0  0
    3.5378   -0.8605    0.3578 H   0  0  0  0  0  0  0  0  0  0  0  0
    0.4241    0.7589   -1.2362 H   0  0  0  0  0  0  0  0  0  0  0  0
   -0.4468    2.2467    0.4416 H   0  0  0  0  0  0  0  0  0  0  0  0
   -0.4713    0.8708    1.6653 H   0  0  0  0  0  0  0  0  0  0  0  0
   -2.8842    1.3826    0.3561 H   0  0  0  0  0  0  0  0  0  0  0  0
   -2.8213   -0.9911   -0.6706 H   0  0  0  0  0  0  0  0  0  0  0  0
   -0.3916   -1.4625   -1.2668 H   0  0  0  0  0  0  0  0  0  0  0  0
   -0.3482   -1.6469    0.5208 H   0  0  0  0  0  0  0  0  0  0  0  0
  1  2  2  0
  2  3  1  0
  3  4  2  0
  3  5  1  0
  5  6  1  0
  6  7  1  0
  7  8  2  0
  8  9  1  0
  9  5  1  0
  2 10  1  0
  5 11  1  0
  6 12  1  0
  6 13  1  0
  7 14  1  0
  8 15  1  0
  9 16  1  0
  9 17  1  0
M  END
