
     RDKit          3D

 17 19  0  0  0  0  0  0  0  0999 V2000
    2.8342    0.0262   -1.0438 O   0  0  0  0  0  0  0  0  0  0  0  0
    2.7462    0.0315    0.1649 C   0  0  0  0  0  0  0  0  0  0  0  0
    1.4160    0.1404    0.7970 C   0  0  0  0  0  0  0  0  0  0  0  0
    0.6717    1.3486    0.3092 O   0  0  0  0  0  0  0  0  0  0  0  0
    0.2617    0.0623    0.1283 C   0  0  0  0  0  0  0  0  0  0  0  0
   -0.1328   -0.4833   -1.2262 C   0  0  0  0  0  0  0  0  0  0  0  0
   -1.3571    0.3677   -0.9160 C   0  0  0  0  0  0  0  0  0  0  0  0
   -2.3853    0.1428    0.0405 C   0  0  0  0  0  0  0  0  0  0  0  0
   -1.1295   -0.4088    0.4578 C   0  0  0  0  0  0  0  0  0  0  0  0
    3.6290   -0.0423    0.7667 H   0  0  0  0  0  0  0  0  0  0  0  0
    1.4562    0.1353    1.9167 H   0  0  0  0  0  0  0  0  0  0  0  0
   -0.2929   -1.5728   -1.1525 H   0  0  0  0  0  0  0  0  0  0  0  0
    0.4156   -0.1123   -2.0894 H   0  0  0  0  0  0  0  0  0  0  0  0
   -0.9767    1.4427   -0.8829 H   0  0  0  0  0  0  0  0  0  0  0  0
   -2.7918    0.9581    0.7141 H   0  0  0  0  0  0  0  0  0  0  0  0
   -3.2553   -0.4940   -0.3000 H   0  0  0  0  0  0  0  0  0  0  0  0
   -1.1093   -1.5419    0.3271 H   0  0  0  0  0  0  0  0  0  0  0  0
  1  2  2  0
  2  3  1  0
  3  4  1  0
  4  5  1  0
  5  6  1  0
  6  7  1  0
  7  8  1  0
  8  9  1  0
  5  3  1  0
  9  7  1  0
  9  5  1  0
  2 10  1  0
  3 11  1  0
  6 12  1  0
  6 13  1  0
  7 14  1  0
  8 15  1  0
  8 16  1  0
  9 17  1  0
M  END
