
     RDKit          3D

 15 16  0  0  0  0  0  0  0  0999 V2000
    2.9024   -1.3509   -0.3734 O   0  0  0  0  0  0  0  0  0  0  0  0
    2.2218   -0.4656    0.1066 C   0  0  0  0  0  0  0  0  0  0  0  0
    0.8990   -0.1489   -0.4839 C   0  0  0  0  0  0  0  0  0  0  0  0
    0.4605    1.2682   -0.5128 C   0  0  0  0  0  0  0  0  0  0  0  0
   -0.8572    1.3488   -0.5824 C   0  0  0  0  0  0  0  0  0  0  0  0
   -1.4464   -0.0326   -0.6077 C   0  0  0  0  0  0  0  0  0  0  0  0
   -2.3749   -0.2214    0.3885 O   0  0  0  0  0  0  0  0  0  0  0  0
   -0.2346   -0.9376   -0.4635 C   0  0  0  0  0  0  0  0  0  0  0  0
    0.5666   -0.9542   -1.5925 O   0  0  0  0  0  0  0  0  0  0  0  0
    2.6264    0.0611    0.9639 H   0  0  0  0  0  0  0  0  0  0  0  0
    1.1114    2.1222   -0.4822 H   0  0  0  0  0  0  0  0  0  0  0  0
   -1.4675    2.2427   -0.6182 H   0  0  0  0  0  0  0  0  0  0  0  0
   -1.9359   -0.1477   -1.5866 H   0  0  0  0  0  0  0  0  0  0  0  0
   -2.1078   -0.9077    1.0489 H   0  0  0  0  0  0  0  0  0  0  0  0
   -0.3637   -1.8763    0.1289 H   0  0  0  0  0  0  0  0  0  0  0  0
  1  2  2  0
  2  3  1  0
  3  4  1  0
  4  5  2  0
  5  6  1  0
  6  7  1  0
  6  8  1  0
  8  9  1  0
  8  3  1  0
  9  3  1  0
  2 10  1  0
  4 11  1  0
  5 12  1  0
  6 13  1  0
  7 14  1  0
  8 15  1  0
M  END
