
     RDKit          3D

 17 18  0  0  0  0  0  0  0  0999 V2000
   -2.9273   -0.3712    1.1319 O   0  0  0  0  0  0  0  0  0  0  0  0
   -2.3276   -0.0933    0.1114 C   0  0  0  0  0  0  0  0  0  0  0  0
   -1.1601    0.7957    0.1438 C   0  0  0  0  0  0  0  0  0  0  0  0
    0.0473    0.1388    0.1443 C   0  0  0  0  0  0  0  0  0  0  0  0
    0.5442   -0.7963   -0.9281 C   0  0  0  0  0  0  0  0  0  0  0  0
    1.7085   -0.6344    0.0042 C   0  0  0  0  0  0  0  0  0  0  0  0
    1.3970    0.8443   -0.0714 C   0  0  0  0  0  0  0  0  0  0  0  0
    0.7367   -0.6873    1.0896 C   0  0  0  0  0  0  0  0  0  0  0  0
    0.6380   -1.1811    2.1695 O   0  0  0  0  0  0  0  0  0  0  0  0
   -2.6614   -0.5085   -0.8239 H   0  0  0  0  0  0  0  0  0  0  0  0
   -1.2613    1.4783    1.0394 H   0  0  0  0  0  0  0  0  0  0  0  0
   -1.2799    1.4896   -0.7228 H   0  0  0  0  0  0  0  0  0  0  0  0
    0.0564   -1.7852   -0.9538 H   0  0  0  0  0  0  0  0  0  0  0  0
    0.6062   -0.3009   -1.9067 H   0  0  0  0  0  0  0  0  0  0  0  0
    2.6249   -1.0370   -0.0664 H   0  0  0  0  0  0  0  0  0  0  0  0
    1.7418    1.4594    0.7479 H   0  0  0  0  0  0  0  0  0  0  0  0
    1.5168    1.1892   -1.1089 H   0  0  0  0  0  0  0  0  0  0  0  0
  1  2  2  0
  2  3  1  0
  3  4  1  0
  4  5  1  0
  5  6  1  0
  6  7  1  0
  6  8  1  0
  8  9  2  0
  7  4  1  0
  8  4  1  0
  2 10  1  0
  3 11  1  0
  3 12  1  0
  5 13  1  0
  5 14  1  0
  6 15  1  0
  7 16  1  0
  7 17  1  0
M  END
