
     RDKit          3D

 21 22  0  0  0  0  0  0  0  0999 V2000
    2.3285    1.5633    1.2264 O   0  0  0  0  0  0  0  0  0  0  0  0
    2.8043    0.5446    0.7539 C   0  0  0  0  0  0  0  0  0  0  0  0
    2.1553   -0.7797    0.7994 C   0  0  0  0  0  0  0  0  0  0  0  0
    1.1413   -0.9846   -0.3134 C   0  0  0  0  0  0  0  0  0  0  0  0
    0.0497    0.0140   -0.2461 C   0  0  0  0  0  0  0  0  0  0  0  0
   -1.0758    0.0555   -1.1995 C   0  0  0  0  0  0  0  0  0  0  0  0
   -2.1224    1.1269   -0.9017 C   0  0  0  0  0  0  0  0  0  0  0  0
   -2.3586    0.5188    0.4535 C   0  0  0  0  0  0  0  0  0  0  0  0
   -1.2916   -0.4885    0.1501 C   0  0  0  0  0  0  0  0  0  0  0  0
    3.7875    0.5911    0.2524 H   0  0  0  0  0  0  0  0  0  0  0  0
    1.5968   -0.8588    1.7792 H   0  0  0  0  0  0  0  0  0  0  0  0
    2.8901   -1.6140    0.8292 H   0  0  0  0  0  0  0  0  0  0  0  0
    0.7151   -1.9940   -0.1370 H   0  0  0  0  0  0  0  0  0  0  0  0
    1.6386   -1.0533   -1.3048 H   0  0  0  0  0  0  0  0  0  0  0  0
    0.3399    1.0272    0.1535 H   0  0  0  0  0  0  0  0  0  0  0  0
   -1.1314   -0.5199   -2.1189 H   0  0  0  0  0  0  0  0  0  0  0  0
   -2.9754    1.1364   -1.5846 H   0  0  0  0  0  0  0  0  0  0  0  0
   -1.6010    2.1198   -0.7607 H   0  0  0  0  0  0  0  0  0  0  0  0
   -2.0528    1.1376    1.3253 H   0  0  0  0  0  0  0  0  0  0  0  0
   -3.3361    0.0309    0.5997 H   0  0  0  0  0  0  0  0  0  0  0  0
   -1.5018   -1.5732    0.2443 H   0  0  0  0  0  0  0  0  0  0  0  0
  1  2  2  0
  2  3  1  0
  3  4  1  0
  4  5  1  0
  5  6  1  0
  6  7  1  0
  7  8  1  0
  8  9  1  0
  9  5  1  0
  9  6  1  0
  2 10  1  0
  3 11  1  0
  3 12  1  0
  4 13  1  0
  4 14  1  0
  5 15  1  0
  6 16  1  0
  7 17  1  0
  7 18  1  0
  8 19  1  0
  8 20  1  0
  9 21  1  0
M  END
