
     RDKit          3D

 11 11  0  0  0  0  0  0  0  0999 V2000
    0.3454    2.3583   -0.1672 O   0  0  0  0  0  0  0  0  0  0  0  0
   -0.4429    1.4072   -0.2824 C   0  0  0  0  0  0  0  0  0  0  0  0
   -0.0062    0.0157    0.0108 C   0  0  0  0  0  0  0  0  0  0  0  0
   -1.1530   -0.9668    0.0331 C   0  0  0  0  0  0  0  0  0  0  0  0
   -1.0996   -2.0306   -0.6634 O   0  0  0  0  0  0  0  0  0  0  0  0
    1.3632   -0.3719    0.0509 C   0  0  0  0  0  0  0  0  0  0  0  0
    0.6704   -0.0946    1.2708 O   0  0  0  0  0  0  0  0  0  0  0  0
   -1.4423    1.6221   -0.6053 H   0  0  0  0  0  0  0  0  0  0  0  0
   -2.0030   -0.7942    0.6166 H   0  0  0  0  0  0  0  0  0  0  0  0
    2.1369    0.3537   -0.2218 H   0  0  0  0  0  0  0  0  0  0  0  0
    1.6310   -1.4990   -0.0420 H   0  0  0  0  0  0  0  0  0  0  0  0
  1  2  2  0
  2  3  1  0
  3  4  1  0
  4  5  2  0
  3  6  1  0
  6  7  1  0
  7  3  1  0
  2  8  1  0
  4  9  1  0
  6 10  1  0
  6 11  1  0
M  END
