
     RDKit          3D

 19 19  0  0  0  0  0  0  0  0999 V2000
    1.4177    1.4349    1.1287 O   0  0  0  0  0  0  0  0  0  0  0  0
    2.1260    0.5738    0.6466 C   0  0  0  0  0  0  0  0  0  0  0  0
    1.5849   -0.5898   -0.0527 C   0  0  0  0  0  0  0  0  0  0  0  0
    0.1050   -0.6547   -0.1571 C   0  0  0  0  0  0  0  0  0  0  0  0
   -0.3030   -1.8193   -0.8446 O   0  0  0  0  0  0  0  0  0  0  0  0
   -0.4472    0.6017   -0.7945 C   0  0  0  0  0  0  0  0  0  0  0  0
   -1.4050    0.7775    0.3374 C   0  0  0  0  0  0  0  0  0  0  0  0
   -2.7364    0.4926    0.0012 O   0  0  0  0  0  0  0  0  0  0  0  0
   -0.7143   -0.3816    1.0522 C   0  0  0  0  0  0  0  0  0  0  0  0
    3.1939    0.6940    0.7512 H   0  0  0  0  0  0  0  0  0  0  0  0
    1.9894   -0.5562   -1.1080 H   0  0  0  0  0  0  0  0  0  0  0  0
    1.9942   -1.5653    0.3456 H   0  0  0  0  0  0  0  0  0  0  0  0
   -0.0804   -2.6139   -0.2983 H   0  0  0  0  0  0  0  0  0  0  0  0
    0.2441    1.4540   -0.8751 H   0  0  0  0  0  0  0  0  0  0  0  0
   -0.9460    0.4428   -1.7694 H   0  0  0  0  0  0  0  0  0  0  0  0
   -1.3087    1.7028    0.9412 H   0  0  0  0  0  0  0  0  0  0  0  0
   -3.0478    1.2725   -0.5348 H   0  0  0  0  0  0  0  0  0  0  0  0
   -1.4672   -1.1772    1.2980 H   0  0  0  0  0  0  0  0  0  0  0  0
   -0.1992   -0.0884    1.9726 H   0  0  0  0  0  0  0  0  0  0  0  0
  1  2  2  0
  2  3  1  0
  3  4  1  0
  4  5  1  0
  4  6  1  0
  6  7  1  0
  7  8  1  0
  7  9  1  0
  9  4  1  0
  2 10  1  0
  3 11  1  0
  3 12  1  0
  5 13  1  0
  6 14  1  0
  6 15  1  0
  7 16  1  0
  8 17  1  0
  9 18  1  0
  9 19  1  0
M  END
