
     RDKit          3D

 14 14  0  0  0  0  0  0  0  0999 V2000
   -1.9938   -1.7833    0.6687 O   0  0  0  0  0  0  0  0  0  0  0  0
   -1.6394   -0.6516    0.5019 C   0  0  0  0  0  0  0  0  0  0  0  0
   -0.7562   -0.1904   -0.5883 C   0  0  0  0  0  0  0  0  0  0  0  0
    0.6103   -0.8292   -0.5502 C   0  0  0  0  0  0  0  0  0  0  0  0
    1.4279    0.1896    0.1607 C   0  0  0  0  0  0  0  0  0  0  0  0
    2.5778    0.0988    0.5326 O   0  0  0  0  0  0  0  0  0  0  0  0
    0.5596    1.3648    0.3362 C   0  0  0  0  0  0  0  0  0  0  0  0
   -0.5317    1.1792   -0.5073 O   0  0  0  0  0  0  0  0  0  0  0  0
   -2.0038    0.0895    1.2181 H   0  0  0  0  0  0  0  0  0  0  0  0
   -1.2262   -0.4892   -1.5434 H   0  0  0  0  0  0  0  0  0  0  0  0
    1.0007   -0.8349   -1.6100 H   0  0  0  0  0  0  0  0  0  0  0  0
    0.6298   -1.8161   -0.0915 H   0  0  0  0  0  0  0  0  0  0  0  0
    1.1419    2.2628    0.0987 H   0  0  0  0  0  0  0  0  0  0  0  0
    0.2031    1.4101    1.3740 H   0  0  0  0  0  0  0  0  0  0  0  0
  1  2  2  0
  2  3  1  0
  3  4  1  0
  4  5  1  0
  5  6  2  0
  5  7  1  0
  7  8  1  0
  8  3  1  0
  2  9  1  0
  3 10  1  0
  4 11  1  0
  4 12  1  0
  7 13  1  0
  7 14  1  0
M  END
