
     RDKit          3D

 17 17  0  0  0  0  0  0  0  0999 V2000
   -3.2200    0.0010   -0.6908 O   0  0  0  0  0  0  0  0  0  0  0  0
   -2.2132    0.2690   -0.0566 C   0  0  0  0  0  0  0  0  0  0  0  0
   -0.8691   -0.0002   -0.6242 C   0  0  0  0  0  0  0  0  0  0  0  0
   -0.2979   -1.2826   -0.0742 C   0  0  0  0  0  0  0  0  0  0  0  0
    1.1771   -1.2173    0.0642 C   0  0  0  0  0  0  0  0  0  0  0  0
    1.8731   -0.1272    0.3567 C   0  0  0  0  0  0  0  0  0  0  0  0
    1.1450    1.1480    0.5688 C   0  0  0  0  0  0  0  0  0  0  0  0
   -0.0138    1.1671   -0.3564 C   0  0  0  0  0  0  0  0  0  0  0  0
   -0.2619    2.2096   -0.9194 O   0  0  0  0  0  0  0  0  0  0  0  0
   -2.3385    0.7097    0.9336 H   0  0  0  0  0  0  0  0  0  0  0  0
   -0.9439   -0.1079   -1.7268 H   0  0  0  0  0  0  0  0  0  0  0  0
   -0.7288   -1.5185    0.9206 H   0  0  0  0  0  0  0  0  0  0  0  0
   -0.5553   -2.1376   -0.7504 H   0  0  0  0  0  0  0  0  0  0  0  0
    1.7520   -2.1392   -0.0848 H   0  0  0  0  0  0  0  0  0  0  0  0
    2.9778   -0.1805    0.4383 H   0  0  0  0  0  0  0  0  0  0  0  0
    0.7042    1.1919    1.6085 H   0  0  0  0  0  0  0  0  0  0  0  0
    1.8132    2.0148    0.3930 H   0  0  0  0  0  0  0  0  0  0  0  0
  1  2  2  0
  2  3  1  0
  3  4  1  0
  4  5  1  0
  5  6  2  0
  6  7  1  0
  7  8  1  0
  8  9  2  0
  8  3  1  0
  2 10  1  0
  3 11  1  0
  4 12  1  0
  4 13  1  0
  5 14  1  0
  6 15  1  0
  7 16  1  0
  7 17  1  0
M  END
