
     RDKit          3D

 18 19  0  0  0  0  0  0  0  0999 V2000
   -2.9116    1.2847    0.6270 O   0  0  0  0  0  0  0  0  0  0  0  0
   -2.4685    0.1921    0.9398 C   0  0  0  0  0  0  0  0  0  0  0  0
   -1.3552   -0.4743    0.2504 C   0  0  0  0  0  0  0  0  0  0  0  0
   -1.3077   -0.2763   -1.2749 C   0  0  0  0  0  0  0  0  0  0  0  0
   -0.2830    0.3475   -0.3548 C   0  0  0  0  0  0  0  0  0  0  0  0
    1.1132   -0.1490   -0.5258 C   0  0  0  0  0  0  0  0  0  0  0  0
    1.9556   -0.5745    0.6094 C   0  0  0  0  0  0  0  0  0  0  0  0
    2.2005    0.7817    0.0870 C   0  0  0  0  0  0  0  0  0  0  0  0
   -2.9476   -0.2911    1.7830 H   0  0  0  0  0  0  0  0  0  0  0  0
   -1.0490   -1.4570    0.6282 H   0  0  0  0  0  0  0  0  0  0  0  0
   -1.0190   -1.1888   -1.8445 H   0  0  0  0  0  0  0  0  0  0  0  0
   -2.1066    0.3664   -1.7099 H   0  0  0  0  0  0  0  0  0  0  0  0
   -0.3892    1.4489   -0.2538 H   0  0  0  0  0  0  0  0  0  0  0  0
    1.3559   -0.5563   -1.5343 H   0  0  0  0  0  0  0  0  0  0  0  0
    1.5526   -0.7379    1.6273 H   0  0  0  0  0  0  0  0  0  0  0  0
    2.7640   -1.3223    0.3675 H   0  0  0  0  0  0  0  0  0  0  0  0
    1.8322    1.6235    0.7064 H   0  0  0  0  0  0  0  0  0  0  0  0
    3.0634    0.9828   -0.5810 H   0  0  0  0  0  0  0  0  0  0  0  0
  1  2  2  0
  2  3  1  0
  3  4  1  0
  4  5  1  0
  5  6  1  0
  6  7  1  0
  7  8  1  0
  5  3  1  0
  8  6  1  0
  2  9  1  0
  3 10  1  0
  4 11  1  0
  4 12  1  0
  5 13  1  0
  6 14  1  0
  7 15  1  0
  7 16  1  0
  8 17  1  0
  8 18  1  0
M  END
