
     RDKit          3D

 15 17  0  0  0  0  0  0  0  0999 V2000
    2.9693    0.4723    0.3315 O   0  0  0  0  0  0  0  0  0  0  0  0
    1.8380    0.9135    0.2316 C   0  0  0  0  0  0  0  0  0  0  0  0
    0.7268    0.0704    0.6642 C   0  0  0  0  0  0  0  0  0  0  0  0
    0.9939   -1.1831    1.1656 O   0  0  0  0  0  0  0  0  0  0  0  0
    0.4484   -1.2340   -0.1114 C   0  0  0  0  0  0  0  0  0  0  0  0
   -1.0396   -1.0204   -0.2940 C   0  0  0  0  0  0  0  0  0  0  0  0
   -1.2312    0.3969   -0.7182 C   0  0  0  0  0  0  0  0  0  0  0  0
   -0.6859    0.5940    0.6704 C   0  0  0  0  0  0  0  0  0  0  0  0
   -1.3903   -0.5854    1.0095 O   0  0  0  0  0  0  0  0  0  0  0  0
    1.7263    1.9096   -0.1743 H   0  0  0  0  0  0  0  0  0  0  0  0
    1.0820   -1.4439   -0.9806 H   0  0  0  0  0  0  0  0  0  0  0  0
   -1.6261   -1.8026   -0.7192 H   0  0  0  0  0  0  0  0  0  0  0  0
   -0.5980    0.7718   -1.5362 H   0  0  0  0  0  0  0  0  0  0  0  0
   -2.2936    0.6605   -0.7501 H   0  0  0  0  0  0  0  0  0  0  0  0
   -0.9201    1.4802    1.2112 H   0  0  0  0  0  0  0  0  0  0  0  0
  1  2  2  0
  2  3  1  0
  3  4  1  0
  4  5  1  0
  5  6  1  0
  6  7  1  0
  7  8  1  0
  8  9  1  0
  5  3  1  0
  9  6  1  0
  8  3  1  0
  2 10  1  0
  5 11  1  0
  6 12  1  0
  7 13  1  0
  7 14  1  0
  8 15  1  0
M  END
