
     RDKit          3D

 17 18  0  0  0  0  0  0  0  0999 V2000
    1.8813    1.8502    0.4115 O   0  0  0  0  0  0  0  0  0  0  0  0
    0.7653    1.4445    0.6337 C   0  0  0  0  0  0  0  0  0  0  0  0
    0.3449    0.1373    0.0860 C   0  0  0  0  0  0  0  0  0  0  0  0
    1.4888   -0.7807   -0.3585 C   0  0  0  0  0  0  0  0  0  0  0  0
    2.2248   -0.1429   -1.3507 O   0  0  0  0  0  0  0  0  0  0  0  0
   -0.9539    0.0436   -0.5917 C   0  0  0  0  0  0  0  0  0  0  0  0
   -2.2569    0.3284    0.0835 C   0  0  0  0  0  0  0  0  0  0  0  0
   -1.6959    0.2466    1.3671 O   0  0  0  0  0  0  0  0  0  0  0  0
   -0.7259   -0.5875    0.8070 C   0  0  0  0  0  0  0  0  0  0  0  0
    0.0919    2.0381    1.2260 H   0  0  0  0  0  0  0  0  0  0  0  0
    2.1383   -0.9782    0.5202 H   0  0  0  0  0  0  0  0  0  0  0  0
    1.0436   -1.7234   -0.7114 H   0  0  0  0  0  0  0  0  0  0  0  0
    3.1767   -0.3836   -1.1898 H   0  0  0  0  0  0  0  0  0  0  0  0
   -0.9904   -0.6602   -1.4630 H   0  0  0  0  0  0  0  0  0  0  0  0
   -3.0282   -0.4757    0.0041 H   0  0  0  0  0  0  0  0  0  0  0  0
   -2.6798    1.3121   -0.1527 H   0  0  0  0  0  0  0  0  0  0  0  0
   -0.8245   -1.6687    0.8299 H   0  0  0  0  0  0  0  0  0  0  0  0
  1  2  2  0
  2  3  1  0
  3  4  1  0
  4  5  1  0
  3  6  1  0
  6  7  1  0
  7  8  1  0
  8  9  1  0
  9  3  1  0
  9  6  1  0
  2 10  1  0
  4 11  1  0
  4 12  1  0
  5 13  1  0
  6 14  1  0
  7 15  1  0
  7 16  1  0
  9 17  1  0
M  END
