
     RDKit          3D

 15 15  0  0  0  0  0  0  0  0999 V2000
   -1.9118   -1.9905   -0.1505 O   0  0  0  0  0  0  0  0  0  0  0  0
   -0.7166   -1.7998   -0.1780 C   0  0  0  0  0  0  0  0  0  0  0  0
   -0.1491   -0.5974    0.4648 C   0  0  0  0  0  0  0  0  0  0  0  0
   -1.1668    0.1409    1.0196 O   0  0  0  0  0  0  0  0  0  0  0  0
   -1.2150    1.3623    0.3460 C   0  0  0  0  0  0  0  0  0  0  0  0
    0.0899    1.5685   -0.1260 O   0  0  0  0  0  0  0  0  0  0  0  0
    0.5278    0.3211   -0.5397 C   0  0  0  0  0  0  0  0  0  0  0  0
    2.0043    0.2354   -0.4685 C   0  0  0  0  0  0  0  0  0  0  0  0
    2.6337    1.1993   -0.0821 O   0  0  0  0  0  0  0  0  0  0  0  0
   -0.0595   -2.5219   -0.6809 H   0  0  0  0  0  0  0  0  0  0  0  0
    0.6185   -0.8469    1.2283 H   0  0  0  0  0  0  0  0  0  0  0  0
   -1.4739    2.1325    1.0822 H   0  0  0  0  0  0  0  0  0  0  0  0
   -1.8988    1.3365   -0.5266 H   0  0  0  0  0  0  0  0  0  0  0  0
    0.1683    0.1171   -1.5790 H   0  0  0  0  0  0  0  0  0  0  0  0
    2.5486   -0.6572   -0.7486 H   0  0  0  0  0  0  0  0  0  0  0  0
  1  2  2  0
  2  3  1  0
  3  4  1  0
  4  5  1  0
  5  6  1  0
  6  7  1  0
  7  8  1  0
  8  9  2  0
  7  3  1  0
  2 10  1  0
  3 11  1  0
  5 12  1  0
  5 13  1  0
  7 14  1  0
  8 15  1  0
M  END
