
     RDKit          3D

 14 14  0  0  0  0  0  0  0  0999 V2000
    3.0195   -0.0227   -0.7271 O   0  0  0  0  0  0  0  0  0  0  0  0
    1.9141   -0.4335   -0.4248 C   0  0  0  0  0  0  0  0  0  0  0  0
    0.9857    0.4696    0.2979 C   0  0  0  0  0  0  0  0  0  0  0  0
   -0.3272   -0.1647    0.6018 C   0  0  0  0  0  0  0  0  0  0  0  0
   -1.2329   -0.6764   -0.4346 C   0  0  0  0  0  0  0  0  0  0  0  0
   -1.5325    0.6544    0.1071 C   0  0  0  0  0  0  0  0  0  0  0  0
    1.6282   -1.4397   -0.6846 H   0  0  0  0  0  0  0  0  0  0  0  0
    1.4753    0.7609    1.2627 H   0  0  0  0  0  0  0  0  0  0  0  0
    0.9078    1.4184   -0.2852 H   0  0  0  0  0  0  0  0  0  0  0  0
   -0.4258   -0.6468    1.6094 H   0  0  0  0  0  0  0  0  0  0  0  0
   -1.8886   -1.5528   -0.1918 H   0  0  0  0  0  0  0  0  0  0  0  0
   -0.8842   -0.7243   -1.4961 H   0  0  0  0  0  0  0  0  0  0  0  0
   -1.3453    1.5297   -0.5244 H   0  0  0  0  0  0  0  0  0  0  0  0
   -2.2941    0.8280    0.8895 H   0  0  0  0  0  0  0  0  0  0  0  0
  1  2  2  0
  2  3  1  0
  3  4  1  0
  4  5  1  0
  5  6  1  0
  6  4  1  0
  2  7  1  0
  3  8  1  0
  3  9  1  0
  4 10  1  0
  5 11  1  0
  5 12  1  0
  6 13  1  0
  6 14  1  0
M  END
