
     RDKit          3D

 17 16  0  0  0  0  0  0  0  0999 V2000
    2.1235   -0.2733    1.5030 O   0  0  0  0  0  0  0  0  0  0  0  0
    2.1208   -0.8550    0.4436 C   0  0  0  0  0  0  0  0  0  0  0  0
    0.8978   -0.8829   -0.3914 C   0  0  0  0  0  0  0  0  0  0  0  0
   -0.2575   -0.1077    0.1789 C   0  0  0  0  0  0  0  0  0  0  0  0
    0.0421    1.3600    0.3566 C   0  0  0  0  0  0  0  0  0  0  0  0
    0.4669    1.9286   -0.8637 O   0  0  0  0  0  0  0  0  0  0  0  0
   -1.3102   -0.2133   -0.7954 O   0  0  0  0  0  0  0  0  0  0  0  0
   -2.4969   -0.7988   -0.3902 C   0  0  0  0  0  0  0  0  0  0  0  0
   -2.5782   -1.1978    0.7935 O   0  0  0  0  0  0  0  0  0  0  0  0
    3.0432   -1.3400    0.1518 H   0  0  0  0  0  0  0  0  0  0  0  0
    1.1076   -0.5643   -1.4396 H   0  0  0  0  0  0  0  0  0  0  0  0
    0.6313   -1.9769   -0.4955 H   0  0  0  0  0  0  0  0  0  0  0  0
   -0.5687   -0.5314    1.1533 H   0  0  0  0  0  0  0  0  0  0  0  0
   -0.9008    1.9171    0.6449 H   0  0  0  0  0  0  0  0  0  0  0  0
    0.7930    1.5457    1.1409 H   0  0  0  0  0  0  0  0  0  0  0  0
    0.1930    2.8799   -0.8828 H   0  0  0  0  0  0  0  0  0  0  0  0
   -3.3068   -0.8899   -1.1077 H   0  0  0  0  0  0  0  0  0  0  0  0
  1  2  2  0
  2  3  1  0
  3  4  1  0
  4  5  1  0
  5  6  1  0
  4  7  1  0
  7  8  1  0
  8  9  2  0
  2 10  1  0
  3 11  1  0
  3 12  1  0
  4 13  1  0
  5 14  1  0
  5 15  1  0
  6 16  1  0
  8 17  1  0
M  END
