
     RDKit          3D

 17 18  0  0  0  0  0  0  0  0999 V2000
    2.7921   -0.5390    1.1522 O   0  0  0  0  0  0  0  0  0  0  0  0
    1.6251   -0.4003    0.9173 C   0  0  0  0  0  0  0  0  0  0  0  0
    1.1921    0.0147   -0.4250 C   0  0  0  0  0  0  0  0  0  0  0  0
   -0.0650   -0.4821   -1.0287 C   0  0  0  0  0  0  0  0  0  0  0  0
   -0.9908   -1.2869   -0.1620 C   0  0  0  0  0  0  0  0  0  0  0  0
   -1.5058   -0.2694    0.7823 C   0  0  0  0  0  0  0  0  0  0  0  0
   -0.9652    0.9236    0.5935 C   0  0  0  0  0  0  0  0  0  0  0  0
    0.0001    0.8879   -0.5122 C   0  0  0  0  0  0  0  0  0  0  0  0
    0.1255    1.9970   -1.3267 O   0  0  0  0  0  0  0  0  0  0  0  0
    0.8915   -0.5732    1.6683 H   0  0  0  0  0  0  0  0  0  0  0  0
    2.0037    0.1852   -1.1836 H   0  0  0  0  0  0  0  0  0  0  0  0
   -0.1423   -0.6851   -2.1039 H   0  0  0  0  0  0  0  0  0  0  0  0
   -1.8292   -1.7290   -0.6966 H   0  0  0  0  0  0  0  0  0  0  0  0
   -0.4258   -2.0378    0.4585 H   0  0  0  0  0  0  0  0  0  0  0  0
   -2.2424   -0.4811    1.5413 H   0  0  0  0  0  0  0  0  0  0  0  0
   -1.1828    1.8368    1.1640 H   0  0  0  0  0  0  0  0  0  0  0  0
    0.7190    2.6387   -0.8389 H   0  0  0  0  0  0  0  0  0  0  0  0
  1  2  2  0
  2  3  1  0
  3  4  1  0
  4  5  1  0
  5  6  1  0
  6  7  2  0
  7  8  1  0
  8  9  1  0
  8  3  1  0
  8  4  1  0
  2 10  1  0
  3 11  1  0
  4 12  1  0
  5 13  1  0
  5 14  1  0
  6 15  1  0
  7 16  1  0
  9 17  1  0
M  END
