
     RDKit          3D

 17 18  0  0  0  0  0  0  0  0999 V2000
    2.8102    0.0090    1.0209 O   0  0  0  0  0  0  0  0  0  0  0  0
    1.5807    0.0153    1.1722 C   0  0  0  0  0  0  0  0  0  0  0  0
    0.7528   -0.3157    0.0114 C   0  0  0  0  0  0  0  0  0  0  0  0
    1.4737   -0.6095   -1.1557 O   0  0  0  0  0  0  0  0  0  0  0  0
   -0.4677   -1.1340    0.1961 C   0  0  0  0  0  0  0  0  0  0  0  0
   -0.9292   -0.5442   -1.1093 C   0  0  0  0  0  0  0  0  0  0  0  0
   -0.3625    0.6386   -0.3434 C   0  0  0  0  0  0  0  0  0  0  0  0
   -0.2614    1.8121   -0.7661 O   0  0  0  0  0  0  0  0  0  0  0  0
   -1.0977    0.0872    0.8168 C   0  0  0  0  0  0  0  0  0  0  0  0
    1.1872    0.2607    2.1379 H   0  0  0  0  0  0  0  0  0  0  0  0
    1.6289    0.2837   -1.5977 H   0  0  0  0  0  0  0  0  0  0  0  0
   -0.5668   -2.0798    0.5008 H   0  0  0  0  0  0  0  0  0  0  0  0
   -0.3081   -0.8837   -1.9533 H   0  0  0  0  0  0  0  0  0  0  0  0
   -2.0143   -0.5304   -1.2711 H   0  0  0  0  0  0  0  0  0  0  0  0
   -0.4143    2.5308   -0.1155 H   0  0  0  0  0  0  0  0  0  0  0  0
   -0.8019    0.3276    1.8309 H   0  0  0  0  0  0  0  0  0  0  0  0
   -2.2094    0.1323    0.6251 H   0  0  0  0  0  0  0  0  0  0  0  0
  1  2  2  0
  2  3  1  0
  3  4  1  0
  3  5  1  0
  5  6  1  0
  6  7  1  0
  7  8  1  0
  7  9  1  0
  7  3  1  0
  9  5  1  0
  2 10  1  0
  4 11  1  0
  5 12  1  0
  6 13  1  0
  6 14  1  0
  8 15  1  0
  9 16  1  0
  9 17  1  0
M  END
