
     RDKit          3D

 19 20  0  0  0  0  0  0  0  0999 V2000
    3.6796   -0.7191    0.2758 O   0  0  0  0  0  0  0  0  0  0  0  0
    2.5344   -0.4931    0.5649 C   0  0  0  0  0  0  0  0  0  0  0  0
    1.5168   -0.2173   -0.4703 C   0  0  0  0  0  0  0  0  0  0  0  0
    0.2127   -0.7522   -0.2921 C   0  0  0  0  0  0  0  0  0  0  0  0
   -0.7381   -0.8537    0.8150 C   0  0  0  0  0  0  0  0  0  0  0  0
   -1.9736   -0.0651    0.3445 C   0  0  0  0  0  0  0  0  0  0  0  0
   -1.7298    1.1817   -0.1109 O   0  0  0  0  0  0  0  0  0  0  0  0
   -0.6157    1.3348   -0.9601 C   0  0  0  0  0  0  0  0  0  0  0  0
    0.5381    0.7900   -0.2397 C   0  0  0  0  0  0  0  0  0  0  0  0
    2.2365   -0.4900    1.5978 H   0  0  0  0  0  0  0  0  0  0  0  0
    1.9648   -0.2523   -1.5044 H   0  0  0  0  0  0  0  0  0  0  0  0
   -0.2866   -1.1132   -1.2439 H   0  0  0  0  0  0  0  0  0  0  0  0
   -1.1027   -1.8730    1.0184 H   0  0  0  0  0  0  0  0  0  0  0  0
   -0.4031   -0.3247    1.7396 H   0  0  0  0  0  0  0  0  0  0  0  0
   -2.4268   -0.7152   -0.4548 H   0  0  0  0  0  0  0  0  0  0  0  0
   -2.6871   -0.0254    1.1615 H   0  0  0  0  0  0  0  0  0  0  0  0
   -0.7979    0.8904   -1.9548 H   0  0  0  0  0  0  0  0  0  0  0  0
   -0.5056    2.4465   -1.0801 H   0  0  0  0  0  0  0  0  0  0  0  0
    0.5842    1.2510    0.7935 H   0  0  0  0  0  0  0  0  0  0  0  0
  1  2  2  0
  2  3  1  0
  3  4  1  0
  4  5  1  0
  5  6  1  0
  6  7  1  0
  7  8  1  0
  8  9  1  0
  9  3  1  0
  9  4  1  0
  2 10  1  0
  3 11  1  0
  4 12  1  0
  5 13  1  0
  5 14  1  0
  6 15  1  0
  6 16  1  0
  8 17  1  0
  8 18  1  0
  9 19  1  0
M  END
