
     RDKit          3D

 21 21  0  0  0  0  0  0  0  0999 V2000
    3.4155   -0.4903   -1.0839 O   0  0  0  0  0  0  0  0  0  0  0  0
    2.7707   -0.7866   -0.0698 C   0  0  0  0  0  0  0  0  0  0  0  0
    2.0137    0.2958    0.6188 C   0  0  0  0  0  0  0  0  0  0  0  0
    0.5879    0.1866    0.1680 C   0  0  0  0  0  0  0  0  0  0  0  0
    0.2634   -0.7695   -0.6765 C   0  0  0  0  0  0  0  0  0  0  0  0
   -1.1459   -0.8843   -1.1230 C   0  0  0  0  0  0  0  0  0  0  0  0
   -2.0009   -0.4687    0.0792 C   0  0  0  0  0  0  0  0  0  0  0  0
   -1.7626    1.0381    0.2067 C   0  0  0  0  0  0  0  0  0  0  0  0
   -0.3524    1.1939    0.7323 C   0  0  0  0  0  0  0  0  0  0  0  0
    2.7901   -1.8144    0.2633 H   0  0  0  0  0  0  0  0  0  0  0  0
    2.4692    1.2774    0.3691 H   0  0  0  0  0  0  0  0  0  0  0  0
    2.0962    0.0854    1.7118 H   0  0  0  0  0  0  0  0  0  0  0  0
    0.9885   -1.4758   -1.0547 H   0  0  0  0  0  0  0  0  0  0  0  0
   -1.4072   -1.9150   -1.4435 H   0  0  0  0  0  0  0  0  0  0  0  0
   -1.2990   -0.1448   -1.9443 H   0  0  0  0  0  0  0  0  0  0  0  0
   -3.0612   -0.7259   -0.0693 H   0  0  0  0  0  0  0  0  0  0  0  0
   -1.5790   -0.9263    1.0024 H   0  0  0  0  0  0  0  0  0  0  0  0
   -1.8770    1.4948   -0.8172 H   0  0  0  0  0  0  0  0  0  0  0  0
   -2.5046    1.4870    0.8708 H   0  0  0  0  0  0  0  0  0  0  0  0
   -0.0279    2.2286    0.4198 H   0  0  0  0  0  0  0  0  0  0  0  0
   -0.3776    1.1139    1.8401 H   0  0  0  0  0  0  0  0  0  0  0  0
  1  2  2  0
  2  3  1  0
  3  4  1  0
  4  5  2  0
  5  6  1  0
  6  7  1  0
  7  8  1  0
  8  9  1  0
  9  4  1  0
  2 10  1  0
  3 11  1  0
  3 12  1  0
  5 13  1  0
  6 14  1  0
  6 15  1  0
  7 16  1  0
  7 17  1  0
  8 18  1  0
  8 19  1  0
  9 20  1  0
  9 21  1  0
M  END
