
     RDKit          3D

 10  9  0  0  0  0  0  0  0  0999 V2000
   -4.0625    0.5404   -0.7382 O   0  0  0  0  0  0  0  0  0  0  0  0
   -3.3543   -0.2724   -0.0895 C   0  0  0  0  0  0  0  0  0  0  0  0
   -1.9125   -0.1701   -0.0296 C   0  0  0  0  0  0  0  0  0  0  0  0
   -0.7090   -0.0901    0.0000 C   0  0  0  0  0  0  0  0  0  0  0  0
    0.7044    0.0154    0.0183 C   0  0  0  0  0  0  0  0  0  0  0  0
    1.9170    0.1250    0.0294 C   0  0  0  0  0  0  0  0  0  0  0  0
    3.3541    0.2534    0.0296 C   0  0  0  0  0  0  0  0  0  0  0  0
    3.9721    1.0484   -0.6967 O   0  0  0  0  0  0  0  0  0  0  0  0
   -3.8537   -1.0696    0.4365 H   0  0  0  0  0  0  0  0  0  0  0  0
    3.9444   -0.3803    0.7038 H   0  0  0  0  0  0  0  0  0  0  0  0
  1  2  2  0
  2  3  1  0
  3  4  3  0
  4  5  1  0
  5  6  3  0
  6  7  1  0
  7  8  2  0
  2  9  1  0
  7 10  1  0
M  END
