
     RDKit          3D

 16 17  0  0  0  0  0  0  0  0999 V2000
   -2.5823   -1.2082   -0.8195 O   0  0  0  0  0  0  0  0  0  0  0  0
   -1.3729   -1.1080   -0.8516 C   0  0  0  0  0  0  0  0  0  0  0  0
   -0.6875   -0.1143   -0.0380 C   0  0  0  0  0  0  0  0  0  0  0  0
    0.0839   -0.5217    1.1930 C   0  0  0  0  0  0  0  0  0  0  0  0
    1.2842    0.2144    0.6485 C   0  0  0  0  0  0  0  0  0  0  0  0
    2.2798   -0.6332    0.1195 O   0  0  0  0  0  0  0  0  0  0  0  0
    0.4264    0.7150   -0.4918 C   0  0  0  0  0  0  0  0  0  0  0  0
   -0.8785    1.3447   -0.2148 C   0  0  0  0  0  0  0  0  0  0  0  0
   -0.8084   -1.7662   -1.4923 H   0  0  0  0  0  0  0  0  0  0  0  0
   -0.3660   -0.0706    2.0940 H   0  0  0  0  0  0  0  0  0  0  0  0
    0.2028   -1.6188    1.2756 H   0  0  0  0  0  0  0  0  0  0  0  0
    1.7240    0.9741    1.2992 H   0  0  0  0  0  0  0  0  0  0  0  0
    2.4311   -0.4590   -0.8273 H   0  0  0  0  0  0  0  0  0  0  0  0
    0.8000    0.6918   -1.5226 H   0  0  0  0  0  0  0  0  0  0  0  0
   -1.4646    1.6519   -1.0942 H   0  0  0  0  0  0  0  0  0  0  0  0
   -1.0719    1.9081    0.7223 H   0  0  0  0  0  0  0  0  0  0  0  0
  1  2  2  0
  2  3  1  0
  3  4  1  0
  4  5  1  0
  5  6  1  0
  5  7  1  0
  7  8  1  0
  7  3  1  0
  8  3  1  0
  2  9  1  0
  4 10  1  0
  4 11  1  0
  5 12  1  0
  6 13  1  0
  7 14  1  0
  8 15  1  0
  8 16  1  0
M  END
