
     RDKit          3D

 19 19  0  0  0  0  0  0  0  0999 V2000
    2.9775   -0.2324   -0.7461 O   0  0  0  0  0  0  0  0  0  0  0  0
    2.4486   -0.2220    0.3430 C   0  0  0  0  0  0  0  0  0  0  0  0
    1.0283    0.1232    0.4615 C   0  0  0  0  0  0  0  0  0  0  0  0
    0.6476    1.2581   -0.4087 C   0  0  0  0  0  0  0  0  0  0  0  0
   -0.6417    1.5055   -0.5332 C   0  0  0  0  0  0  0  0  0  0  0  0
   -1.6847    0.7087    0.1486 C   0  0  0  0  0  0  0  0  0  0  0  0
   -1.2982   -0.7117    0.4073 C   0  0  0  0  0  0  0  0  0  0  0  0
    0.1208   -1.0421    0.0712 C   0  0  0  0  0  0  0  0  0  0  0  0
    0.2806   -1.3636   -1.2890 O   0  0  0  0  0  0  0  0  0  0  0  0
    3.0456   -0.4703    1.2057 H   0  0  0  0  0  0  0  0  0  0  0  0
    0.7283    0.3822    1.5082 H   0  0  0  0  0  0  0  0  0  0  0  0
    1.4045    1.8363   -0.9035 H   0  0  0  0  0  0  0  0  0  0  0  0
   -0.9377    2.3479   -1.1785 H   0  0  0  0  0  0  0  0  0  0  0  0
   -2.0578    1.2220    1.0738 H   0  0  0  0  0  0  0  0  0  0  0  0
   -2.5708    0.6929   -0.5374 H   0  0  0  0  0  0  0  0  0  0  0  0
   -1.4415   -0.9037    1.5017 H   0  0  0  0  0  0  0  0  0  0  0  0
   -1.9423   -1.4404   -0.1686 H   0  0  0  0  0  0  0  0  0  0  0  0
    0.4539   -1.9337    0.6429 H   0  0  0  0  0  0  0  0  0  0  0  0
   -0.5612   -1.7569   -1.5990 H   0  0  0  0  0  0  0  0  0  0  0  0
  1  2  2  0
  2  3  1  0
  3  4  1  0
  4  5  2  0
  5  6  1  0
  6  7  1  0
  7  8  1  0
  8  9  1  0
  8  3  1  0
  2 10  1  0
  3 11  1  0
  4 12  1  0
  5 13  1  0
  6 14  1  0
  6 15  1  0
  7 16  1  0
  7 17  1  0
  8 18  1  0
  9 19  1  0
M  END
