
     RDKit          3D

 19 20  0  0  0  0  0  0  0  0999 V2000
    3.1445    1.2692    0.4051 O   0  0  0  0  0  0  0  0  0  0  0  0
    2.6339    0.1692    0.2447 C   0  0  0  0  0  0  0  0  0  0  0  0
    1.2550   -0.1788    0.6034 C   0  0  0  0  0  0  0  0  0  0  0  0
    0.4958   -0.8569   -0.5483 C   0  0  0  0  0  0  0  0  0  0  0  0
   -0.6537   -0.0234   -0.1736 C   0  0  0  0  0  0  0  0  0  0  0  0
   -1.7688   -0.5808    0.6000 C   0  0  0  0  0  0  0  0  0  0  0  0
   -2.5320   -0.5857   -0.5897 O   0  0  0  0  0  0  0  0  0  0  0  0
   -1.6582    0.3805   -1.1433 C   0  0  0  0  0  0  0  0  0  0  0  0
    0.2481    0.9725    0.4536 C   0  0  0  0  0  0  0  0  0  0  0  0
    3.2528   -0.6171   -0.2008 H   0  0  0  0  0  0  0  0  0  0  0  0
    1.0872   -0.7555    1.5144 H   0  0  0  0  0  0  0  0  0  0  0  0
    0.9600   -0.5535   -1.4908 H   0  0  0  0  0  0  0  0  0  0  0  0
    0.4270   -1.9487   -0.4622 H   0  0  0  0  0  0  0  0  0  0  0  0
   -1.5553   -1.5629    1.0200 H   0  0  0  0  0  0  0  0  0  0  0  0
   -2.2206    0.1690    1.2811 H   0  0  0  0  0  0  0  0  0  0  0  0
   -2.0574    1.4136   -0.9571 H   0  0  0  0  0  0  0  0  0  0  0  0
   -1.5202    0.1742   -2.2141 H   0  0  0  0  0  0  0  0  0  0  0  0
   -0.1631    1.3291    1.4240 H   0  0  0  0  0  0  0  0  0  0  0  0
    0.6251    1.7860   -0.2030 H   0  0  0  0  0  0  0  0  0  0  0  0
  1  2  2  0
  2  3  1  0
  3  4  1  0
  4  5  1  0
  5  6  1  0
  6  7  1  0
  7  8  1  0
  5  9  1  0
  9  3  1  0
  8  5  1  0
  2 10  1  0
  3 11  1  0
  4 12  1  0
  4 13  1  0
  6 14  1  0
  6 15  1  0
  8 16  1  0
  8 17  1  0
  9 18  1  0
  9 19  1  0
M  END
