
     RDKit          3D

 17 18  0  0  0  0  0  0  0  0999 V2000
   -2.9055    1.2917   -0.7270 O   0  0  0  0  0  0  0  0  0  0  0  0
   -2.1294    0.3671   -0.5190 C   0  0  0  0  0  0  0  0  0  0  0  0
   -1.1370    0.3794    0.5943 C   0  0  0  0  0  0  0  0  0  0  0  0
   -0.7563   -0.8859    1.2209 C   0  0  0  0  0  0  0  0  0  0  0  0
    0.2179   -0.1701    0.4112 C   0  0  0  0  0  0  0  0  0  0  0  0
    0.6952   -0.7480   -0.8794 C   0  0  0  0  0  0  0  0  0  0  0  0
    1.6550    0.1902   -1.2839 O   0  0  0  0  0  0  0  0  0  0  0  0
    2.0215    0.9137   -0.1827 C   0  0  0  0  0  0  0  0  0  0  0  0
    1.3421    0.4441    0.9176 O   0  0  0  0  0  0  0  0  0  0  0  0
   -2.1901   -0.4896   -1.1943 H   0  0  0  0  0  0  0  0  0  0  0  0
   -1.1872    1.3185    1.2047 H   0  0  0  0  0  0  0  0  0  0  0  0
   -1.1900   -1.8208    0.7769 H   0  0  0  0  0  0  0  0  0  0  0  0
   -0.5330   -0.9945    2.3019 H   0  0  0  0  0  0  0  0  0  0  0  0
    1.2838   -1.6951   -0.6996 H   0  0  0  0  0  0  0  0  0  0  0  0
   -0.0848   -0.8932   -1.6370 H   0  0  0  0  0  0  0  0  0  0  0  0
    3.1240    0.7922   -0.0115 H   0  0  0  0  0  0  0  0  0  0  0  0
    1.7737    2.0003   -0.2931 H   0  0  0  0  0  0  0  0  0  0  0  0
  1  2  2  0
  2  3  1  0
  3  4  1  0
  4  5  1  0
  5  6  1  0
  6  7  1  0
  7  8  1  0
  8  9  1  0
  5  3  1  0
  9  5  1  0
  2 10  1  0
  3 11  1  0
  4 12  1  0
  4 13  1  0
  6 14  1  0
  6 15  1  0
  8 16  1  0
  8 17  1  0
M  END
