
     RDKit          3D

 19 19  0  0  0  0  0  0  0  0999 V2000
   -0.2581   -1.8586    1.5606 O   0  0  0  0  0  0  0  0  0  0  0  0
   -1.0885   -1.2015    0.9667 C   0  0  0  0  0  0  0  0  0  0  0  0
   -0.9204   -0.7565   -0.4243 C   0  0  0  0  0  0  0  0  0  0  0  0
   -1.2726    0.7139   -0.4782 C   0  0  0  0  0  0  0  0  0  0  0  0
   -0.0473    1.5957   -0.5952 C   0  0  0  0  0  0  0  0  0  0  0  0
    0.8816    1.2006    0.4773 C   0  0  0  0  0  0  0  0  0  0  0  0
    1.4897    0.0259    0.5909 C   0  0  0  0  0  0  0  0  0  0  0  0
    1.3867   -1.1513   -0.3127 C   0  0  0  0  0  0  0  0  0  0  0  0
    0.2382   -1.1032   -1.0441 O   0  0  0  0  0  0  0  0  0  0  0  0
   -1.9882   -0.9445    1.5123 H   0  0  0  0  0  0  0  0  0  0  0  0
   -1.7437   -1.2501   -1.0433 H   0  0  0  0  0  0  0  0  0  0  0  0
   -1.9244    0.9733   -1.3399 H   0  0  0  0  0  0  0  0  0  0  0  0
   -1.8530    1.0250    0.4294 H   0  0  0  0  0  0  0  0  0  0  0  0
   -0.3588    2.6447   -0.5497 H   0  0  0  0  0  0  0  0  0  0  0  0
    0.3857    1.3710   -1.6122 H   0  0  0  0  0  0  0  0  0  0  0  0
    1.1008    1.9202    1.2525 H   0  0  0  0  0  0  0  0  0  0  0  0
    2.1452   -0.0789    1.4596 H   0  0  0  0  0  0  0  0  0  0  0  0
    2.2347   -1.0106   -1.0460 H   0  0  0  0  0  0  0  0  0  0  0  0
    1.5924   -2.1154    0.1962 H   0  0  0  0  0  0  0  0  0  0  0  0
  1  2  2  0
  2  3  1  0
  3  4  1  0
  4  5  1  0
  5  6  1  0
  6  7  2  0
  7  8  1  0
  8  9  1  0
  9  3  1  0
  2 10  1  0
  3 11  1  0
  4 12  1  0
  4 13  1  0
  5 14  1  0
  5 15  1  0
  6 16  1  0
  7 17  1  0
  8 18  1  0
  8 19  1  0
M  END
