
     RDKit          3D

 19 20  0  0  0  0  0  0  0  0999 V2000
    2.1939    2.4863   -0.8106 O   0  0  0  0  0  0  0  0  0  0  0  0
    2.3264    1.3569   -0.2529 C   0  0  0  0  0  0  0  0  0  0  0  0
    1.2695    0.3719   -0.2123 C   0  0  0  0  0  0  0  0  0  0  0  0
    1.3476   -0.8044    0.3458 C   0  0  0  0  0  0  0  0  0  0  0  0
    0.0983   -1.5578    0.2093 C   0  0  0  0  0  0  0  0  0  0  0  0
   -0.7247   -0.8165   -0.7956 C   0  0  0  0  0  0  0  0  0  0  0  0
   -2.0067   -0.2155   -0.2518 C   0  0  0  0  0  0  0  0  0  0  0  0
   -1.1595    1.0036    0.1361 C   0  0  0  0  0  0  0  0  0  0  0  0
   -0.0651    0.5435   -0.7986 C   0  0  0  0  0  0  0  0  0  0  0  0
    3.2765    1.1002    0.2237 H   0  0  0  0  0  0  0  0  0  0  0  0
    2.2278   -1.2392    0.8757 H   0  0  0  0  0  0  0  0  0  0  0  0
   -0.4417   -1.6521    1.1954 H   0  0  0  0  0  0  0  0  0  0  0  0
    0.2714   -2.5898   -0.2164 H   0  0  0  0  0  0  0  0  0  0  0  0
   -0.8238   -1.2625   -1.7904 H   0  0  0  0  0  0  0  0  0  0  0  0
   -2.4310   -0.7570    0.6100 H   0  0  0  0  0  0  0  0  0  0  0  0
   -2.7481    0.0585   -1.0044 H   0  0  0  0  0  0  0  0  0  0  0  0
   -0.9212    1.0161    1.1977 H   0  0  0  0  0  0  0  0  0  0  0  0
   -1.5959    1.9727   -0.2321 H   0  0  0  0  0  0  0  0  0  0  0  0
   -0.0937    0.9851   -1.8102 H   0  0  0  0  0  0  0  0  0  0  0  0
  1  2  2  0
  2  3  1  0
  3  4  2  0
  4  5  1  0
  5  6  1  0
  6  7  1  0
  7  8  1  0
  8  9  1  0
  9  3  1  0
  9  6  1  0
  2 10  1  0
  4 11  1  0
  5 12  1  0
  5 13  1  0
  6 14  1  0
  7 15  1  0
  7 16  1  0
  8 17  1  0
  8 18  1  0
  9 19  1  0
M  END
