
     RDKit          3D

 17 20  0  0  0  0  0  0  0  0999 V2000
    3.0374    0.5123    0.0490 O   0  0  0  0  0  0  0  0  0  0  0  0
    2.1399   -0.3081    0.1230 C   0  0  0  0  0  0  0  0  0  0  0  0
    0.8596    0.1420    0.7214 C   0  0  0  0  0  0  0  0  0  0  0  0
    0.2406    1.1412   -0.2333 C   0  0  0  0  0  0  0  0  0  0  0  0
   -0.5067    0.3170   -1.1904 C   0  0  0  0  0  0  0  0  0  0  0  0
   -1.1833    1.0402   -0.0818 C   0  0  0  0  0  0  0  0  0  0  0  0
   -1.4499   -0.2731    0.5829 C   0  0  0  0  0  0  0  0  0  0  0  0
   -0.1729   -0.9485    0.7629 C   0  0  0  0  0  0  0  0  0  0  0  0
   -0.8193   -0.9767   -0.5439 C   0  0  0  0  0  0  0  0  0  0  0  0
    2.3174   -1.3098   -0.2457 H   0  0  0  0  0  0  0  0  0  0  0  0
    0.9731    0.5462    1.7449 H   0  0  0  0  0  0  0  0  0  0  0  0
    0.8179    1.9700   -0.6326 H   0  0  0  0  0  0  0  0  0  0  0  0
   -0.6530    0.5352   -2.2359 H   0  0  0  0  0  0  0  0  0  0  0  0
   -1.9372    1.7970   -0.2232 H   0  0  0  0  0  0  0  0  0  0  0  0
   -2.3905   -0.5287    1.0398 H   0  0  0  0  0  0  0  0  0  0  0  0
   -0.0531   -1.8176    1.4145 H   0  0  0  0  0  0  0  0  0  0  0  0
   -1.2199   -1.8387   -1.0516 H   0  0  0  0  0  0  0  0  0  0  0  0
  1  2  2  0
  2  3  1  0
  3  4  1  0
  4  5  1  0
  5  6  1  0
  6  7  1  0
  7  8  1  0
  8  9  1  0
  8  3  1  0
  6  4  1  0
  9  7  1  0
  9  5  1  0
  2 10  1  0
  3 11  1  0
  4 12  1  0
  5 13  1  0
  6 14  1  0
  7 15  1  0
  8 16  1  0
  9 17  1  0
M  END
