
     RDKit          3D

 15 15  0  0  0  0  0  0  0  0999 V2000
   -2.9299    0.1911    0.0295 O   0  0  0  0  0  0  0  0  0  0  0  0
   -2.3450   -0.8344   -0.4167 C   0  0  0  0  0  0  0  0  0  0  0  0
   -0.9178   -0.8144   -0.6150 C   0  0  0  0  0  0  0  0  0  0  0  0
   -0.3446   -1.8281   -1.0555 O   0  0  0  0  0  0  0  0  0  0  0  0
   -0.1459    0.3928   -0.2998 C   0  0  0  0  0  0  0  0  0  0  0  0
   -1.0131    1.3684    0.1694 O   0  0  0  0  0  0  0  0  0  0  0  0
    0.8620    0.0136    0.7643 C   0  0  0  0  0  0  0  0  0  0  0  0
    2.2935    0.1443    0.3309 C   0  0  0  0  0  0  0  0  0  0  0  0
    1.7129    0.9854    1.2705 O   0  0  0  0  0  0  0  0  0  0  0  0
   -2.9605   -1.7118   -0.6380 H   0  0  0  0  0  0  0  0  0  0  0  0
    0.3760    0.7640   -1.2313 H   0  0  0  0  0  0  0  0  0  0  0  0
   -0.5776    2.2489    0.2576 H   0  0  0  0  0  0  0  0  0  0  0  0
    0.5409   -0.8051    1.4264 H   0  0  0  0  0  0  0  0  0  0  0  0
    2.5124    0.5817   -0.6648 H   0  0  0  0  0  0  0  0  0  0  0  0
    2.9367   -0.6964    0.6724 H   0  0  0  0  0  0  0  0  0  0  0  0
  1  2  2  0
  2  3  1  0
  3  4  2  0
  3  5  1  0
  5  6  1  0
  5  7  1  0
  7  8  1  0
  8  9  1  0
  9  7  1  0
  2 10  1  0
  5 11  1  0
  6 12  1  0
  7 13  1  0
  8 14  1  0
  8 15  1  0
M  END
