
     RDKit          3D

 19 19  0  0  0  0  0  0  0  0999 V2000
   -3.3185    0.4255    1.0718 O   0  0  0  0  0  0  0  0  0  0  0  0
   -2.5307   -0.4691    0.8515 C   0  0  0  0  0  0  0  0  0  0  0  0
   -1.4564   -0.2703   -0.1110 C   0  0  0  0  0  0  0  0  0  0  0  0
   -0.2301   -1.1700    0.0682 C   0  0  0  0  0  0  0  0  0  0  0  0
    0.5939    0.0153   -0.3982 C   0  0  0  0  0  0  0  0  0  0  0  0
    1.9104    0.1779    0.3282 C   0  0  0  0  0  0  0  0  0  0  0  0
    2.7376   -0.9120    0.1877 O   0  0  0  0  0  0  0  0  0  0  0  0
   -0.5138    0.9049    0.1844 C   0  0  0  0  0  0  0  0  0  0  0  0
   -0.7739    2.0453   -0.5380 O   0  0  0  0  0  0  0  0  0  0  0  0
   -2.6567   -1.3944    1.3852 H   0  0  0  0  0  0  0  0  0  0  0  0
   -1.7288   -0.2278   -1.1790 H   0  0  0  0  0  0  0  0  0  0  0  0
   -0.2151   -2.0445   -0.6250 H   0  0  0  0  0  0  0  0  0  0  0  0
    0.0034   -1.3963    1.1242 H   0  0  0  0  0  0  0  0  0  0  0  0
    0.6672    0.0202   -1.4827 H   0  0  0  0  0  0  0  0  0  0  0  0
    2.4271    1.0433   -0.1661 H   0  0  0  0  0  0  0  0  0  0  0  0
    1.7508    0.4970    1.3777 H   0  0  0  0  0  0  0  0  0  0  0  0
    3.6707   -0.6495    0.0088 H   0  0  0  0  0  0  0  0  0  0  0  0
   -0.3150    1.0423    1.2657 H   0  0  0  0  0  0  0  0  0  0  0  0
   -0.0221    2.3620   -1.0784 H   0  0  0  0  0  0  0  0  0  0  0  0
  1  2  2  0
  2  3  1  0
  3  4  1  0
  4  5  1  0
  5  6  1  0
  6  7  1  0
  5  8  1  0
  8  9  1  0
  8  3  1  0
  2 10  1  0
  3 11  1  0
  4 12  1  0
  4 13  1  0
  5 14  1  0
  6 15  1  0
  6 16  1  0
  7 17  1  0
  8 18  1  0
  9 19  1  0
M  END
