
     RDKit          3D

 19 20  0  0  0  0  0  0  0  0999 V2000
    3.6771    0.1037    0.6047 O   0  0  0  0  0  0  0  0  0  0  0  0
    2.5821   -0.2293    0.1986 C   0  0  0  0  0  0  0  0  0  0  0  0
    1.2968    0.4112    0.6446 C   0  0  0  0  0  0  0  0  0  0  0  0
    0.1656   -0.4000    0.9016 C   0  0  0  0  0  0  0  0  0  0  0  0
   -1.2888   -0.1642    1.0227 C   0  0  0  0  0  0  0  0  0  0  0  0
   -1.7208   -0.4588   -0.4327 C   0  0  0  0  0  0  0  0  0  0  0  0
   -0.4162   -0.3129   -1.2492 C   0  0  0  0  0  0  0  0  0  0  0  0
    0.3072    0.5927   -0.3258 C   0  0  0  0  0  0  0  0  0  0  0  0
   -0.4411    1.7989   -0.2040 O   0  0  0  0  0  0  0  0  0  0  0  0
    2.5707   -1.0484   -0.5352 H   0  0  0  0  0  0  0  0  0  0  0  0
    1.5105    1.2207    1.3897 H   0  0  0  0  0  0  0  0  0  0  0  0
    0.3194   -1.4977    0.6592 H   0  0  0  0  0  0  0  0  0  0  0  0
   -1.7814   -0.9313    1.6396 H   0  0  0  0  0  0  0  0  0  0  0  0
   -1.5754    0.8579    1.3170 H   0  0  0  0  0  0  0  0  0  0  0  0
   -2.1319   -1.4704   -0.5250 H   0  0  0  0  0  0  0  0  0  0  0  0
   -2.4263    0.3487   -0.7111 H   0  0  0  0  0  0  0  0  0  0  0  0
   -0.6194    0.1006   -2.2447 H   0  0  0  0  0  0  0  0  0  0  0  0
   -0.0012   -1.3368   -1.3184 H   0  0  0  0  0  0  0  0  0  0  0  0
   -0.0266    2.4154   -0.8317 H   0  0  0  0  0  0  0  0  0  0  0  0
  1  2  2  0
  2  3  1  0
  3  4  1  0
  4  5  1  0
  5  6  1  0
  6  7  1  0
  7  8  1  0
  8  9  1  0
  8  3  1  0
  8  4  1  0
  2 10  1  0
  3 11  1  0
  4 12  1  0
  5 13  1  0
  5 14  1  0
  6 15  1  0
  6 16  1  0
  7 17  1  0
  7 18  1  0
  9 19  1  0
M  END
