
     RDKit          3D

 14 14  0  0  0  0  0  0  0  0999 V2000
    1.9466   -0.0007   -1.4486 O   0  0  0  0  0  0  0  0  0  0  0  0
    1.7564    0.3858   -0.3066 C   0  0  0  0  0  0  0  0  0  0  0  0
    0.5076    0.0928    0.4236 C   0  0  0  0  0  0  0  0  0  0  0  0
   -0.5307    1.1834    0.2785 C   0  0  0  0  0  0  0  0  0  0  0  0
   -1.7693    0.4833    0.4429 O   0  0  0  0  0  0  0  0  0  0  0  0
   -1.5859   -0.8681    0.1922 C   0  0  0  0  0  0  0  0  0  0  0  0
   -2.4575   -1.7555    0.3823 O   0  0  0  0  0  0  0  0  0  0  0  0
   -0.2139   -1.0395   -0.3218 C   0  0  0  0  0  0  0  0  0  0  0  0
    2.5547    0.9601    0.1520 H   0  0  0  0  0  0  0  0  0  0  0  0
    0.6833   -0.1855    1.4790 H   0  0  0  0  0  0  0  0  0  0  0  0
   -0.4216    1.9914    1.0108 H   0  0  0  0  0  0  0  0  0  0  0  0
   -0.4626    1.5346   -0.7773 H   0  0  0  0  0  0  0  0  0  0  0  0
    0.2244   -2.0164   -0.1104 H   0  0  0  0  0  0  0  0  0  0  0  0
   -0.2315   -0.7659   -1.3967 H   0  0  0  0  0  0  0  0  0  0  0  0
  1  2  2  0
  2  3  1  0
  3  4  1  0
  4  5  1  0
  5  6  1  0
  6  7  2  0
  6  8  1  0
  8  3  1  0
  2  9  1  0
  3 10  1  0
  4 11  1  0
  4 12  1  0
  8 13  1  0
  8 14  1  0
M  END
