
     RDKit          3D

 17 19  0  0  0  0  0  0  0  0999 V2000
    2.4881    1.6277   -0.2866 O   0  0  0  0  0  0  0  0  0  0  0  0
    2.0490    0.5488    0.0323 C   0  0  0  0  0  0  0  0  0  0  0  0
    0.7007    0.0567   -0.3372 C   0  0  0  0  0  0  0  0  0  0  0  0
    0.4783   -1.3902   -0.6496 C   0  0  0  0  0  0  0  0  0  0  0  0
    0.0563   -0.8472    0.6341 C   0  0  0  0  0  0  0  0  0  0  0  0
   -1.2612   -0.2381    0.9156 C   0  0  0  0  0  0  0  0  0  0  0  0
   -1.6241    0.7144   -0.1565 C   0  0  0  0  0  0  0  0  0  0  0  0
   -1.4311    0.4659   -1.4844 O   0  0  0  0  0  0  0  0  0  0  0  0
   -0.3348    1.0223   -0.8396 C   0  0  0  0  0  0  0  0  0  0  0  0
    2.6922   -0.0915    0.6269 H   0  0  0  0  0  0  0  0  0  0  0  0
    1.3362   -2.1047   -0.6421 H   0  0  0  0  0  0  0  0  0  0  0  0
   -0.2100   -1.5822   -1.4954 H   0  0  0  0  0  0  0  0  0  0  0  0
    0.6273   -1.1651    1.5483 H   0  0  0  0  0  0  0  0  0  0  0  0
   -1.1674    0.3500    1.8761 H   0  0  0  0  0  0  0  0  0  0  0  0
   -2.0333   -1.0087    1.1387 H   0  0  0  0  0  0  0  0  0  0  0  0
   -2.2895    1.5680    0.1582 H   0  0  0  0  0  0  0  0  0  0  0  0
   -0.0769    2.0738   -1.0389 H   0  0  0  0  0  0  0  0  0  0  0  0
  1  2  2  0
  2  3  1  0
  3  4  1  0
  4  5  1  0
  5  6  1  0
  6  7  1  0
  7  8  1  0
  8  9  1  0
  5  3  1  0
  9  7  1  0
  9  3  1  0
  2 10  1  0
  4 11  1  0
  4 12  1  0
  5 13  1  0
  6 14  1  0
  6 15  1  0
  7 16  1  0
  9 17  1  0
M  END
