
     RDKit          3D

 19 21  0  0  0  0  0  0  0  0999 V2000
    3.0915    0.7174    0.9985 O   0  0  0  0  0  0  0  0  0  0  0  0
    2.4936    0.5167   -0.0351 C   0  0  0  0  0  0  0  0  0  0  0  0
    1.4479   -0.4962   -0.1131 C   0  0  0  0  0  0  0  0  0  0  0  0
    0.3155   -0.3054    0.8594 C   0  0  0  0  0  0  0  0  0  0  0  0
   -0.0921    0.8611    0.0105 C   0  0  0  0  0  0  0  0  0  0  0  0
   -1.5907    0.9171    0.1174 C   0  0  0  0  0  0  0  0  0  0  0  0
   -1.8995   -0.5908    0.0417 C   0  0  0  0  0  0  0  0  0  0  0  0
   -0.5055   -1.1212   -0.0947 C   0  0  0  0  0  0  0  0  0  0  0  0
    0.2663   -0.1942   -0.9888 C   0  0  0  0  0  0  0  0  0  0  0  0
    2.7510    1.1040   -0.8985 H   0  0  0  0  0  0  0  0  0  0  0  0
    1.7968   -1.5309   -0.2640 H   0  0  0  0  0  0  0  0  0  0  0  0
    0.3476   -0.3661    1.8544 H   0  0  0  0  0  0  0  0  0  0  0  0
    0.4725    1.7685    0.0522 H   0  0  0  0  0  0  0  0  0  0  0  0
   -1.8575    1.3165    1.1063 H   0  0  0  0  0  0  0  0  0  0  0  0
   -2.0755    1.4212   -0.7285 H   0  0  0  0  0  0  0  0  0  0  0  0
   -2.2994   -0.8974    1.0312 H   0  0  0  0  0  0  0  0  0  0  0  0
   -2.5601   -0.8048   -0.7998 H   0  0  0  0  0  0  0  0  0  0  0  0
   -0.3407   -2.1760   -0.1631 H   0  0  0  0  0  0  0  0  0  0  0  0
    0.2384   -0.1397   -1.9862 H   0  0  0  0  0  0  0  0  0  0  0  0
  1  2  2  0
  2  3  1  0
  3  4  1  0
  4  5  1  0
  5  6  1  0
  6  7  1  0
  7  8  1  0
  8  9  1  0
  9  3  1  0
  8  4  1  0
  9  5  1  0
  2 10  1  0
  3 11  1  0
  4 12  1  0
  5 13  1  0
  6 14  1  0
  6 15  1  0
  7 16  1  0
  7 17  1  0
  8 18  1  0
  9 19  1  0
M  END
