
     RDKit          3D

 17 18  0  0  0  0  0  0  0  0999 V2000
   -1.8862    2.1921   -0.5434 O   0  0  0  0  0  0  0  0  0  0  0  0
   -1.0023    1.4819   -0.1233 C   0  0  0  0  0  0  0  0  0  0  0  0
   -0.9150    0.0213   -0.3606 C   0  0  0  0  0  0  0  0  0  0  0  0
    0.2549   -0.6736    0.2447 C   0  0  0  0  0  0  0  0  0  0  0  0
    1.5647   -0.4767   -0.4837 C   0  0  0  0  0  0  0  0  0  0  0  0
    2.0153    0.2727    0.7293 C   0  0  0  0  0  0  0  0  0  0  0  0
    0.7795    0.0624    1.3040 O   0  0  0  0  0  0  0  0  0  0  0  0
   -2.2671   -0.6800   -0.2185 C   0  0  0  0  0  0  0  0  0  0  0  0
   -1.5952   -0.5354   -1.4350 O   0  0  0  0  0  0  0  0  0  0  0  0
   -0.2267    1.9513    0.4645 H   0  0  0  0  0  0  0  0  0  0  0  0
    0.1033   -1.7448    0.5003 H   0  0  0  0  0  0  0  0  0  0  0  0
    2.1170   -1.4139   -0.6779 H   0  0  0  0  0  0  0  0  0  0  0  0
    1.3866    0.1474   -1.3947 H   0  0  0  0  0  0  0  0  0  0  0  0
    2.8159   -0.2498    1.2989 H   0  0  0  0  0  0  0  0  0  0  0  0
    2.2945    1.3268    0.5750 H   0  0  0  0  0  0  0  0  0  0  0  0
   -3.1899   -0.0464   -0.1832 H   0  0  0  0  0  0  0  0  0  0  0  0
   -2.2494   -1.6354    0.3037 H   0  0  0  0  0  0  0  0  0  0  0  0
  1  2  2  0
  2  3  1  0
  3  4  1  0
  4  5  1  0
  5  6  1  0
  6  7  1  0
  3  8  1  0
  8  9  1  0
  9  3  1  0
  7  4  1  0
  2 10  1  0
  4 11  1  0
  5 12  1  0
  5 13  1  0
  6 14  1  0
  6 15  1  0
  8 16  1  0
  8 17  1  0
M  END
