
     RDKit          3D

 17 18  0  0  0  0  0  0  0  0999 V2000
   -1.4153    1.1361    1.6923 O   0  0  0  0  0  0  0  0  0  0  0  0
   -1.7964    0.7864    0.4779 C   0  0  0  0  0  0  0  0  0  0  0  0
   -1.2332   -0.4261   -0.0866 C   0  0  0  0  0  0  0  0  0  0  0  0
   -2.2434   -1.2984   -0.5798 O   0  0  0  0  0  0  0  0  0  0  0  0
   -0.3173   -0.1653   -1.3292 C   0  0  0  0  0  0  0  0  0  0  0  0
    0.1941   -0.6835   -0.0655 C   0  0  0  0  0  0  0  0  0  0  0  0
    1.0868    0.2872    0.7038 C   0  0  0  0  0  0  0  0  0  0  0  0
    2.4565    0.5414    0.1708 C   0  0  0  0  0  0  0  0  0  0  0  0
    2.2987   -0.5047    1.1618 O   0  0  0  0  0  0  0  0  0  0  0  0
   -2.4977    1.4467   -0.0202 H   0  0  0  0  0  0  0  0  0  0  0  0
   -2.5784   -1.8654    0.1630 H   0  0  0  0  0  0  0  0  0  0  0  0
   -0.3504    0.8835   -1.5889 H   0  0  0  0  0  0  0  0  0  0  0  0
   -0.4475   -0.8552   -2.1697 H   0  0  0  0  0  0  0  0  0  0  0  0
    0.4786   -1.7693   -0.0281 H   0  0  0  0  0  0  0  0  0  0  0  0
    0.7195    0.8757    1.5402 H   0  0  0  0  0  0  0  0  0  0  0  0
    3.0634    1.3602    0.5371 H   0  0  0  0  0  0  0  0  0  0  0  0
    2.5820    0.2509   -0.8876 H   0  0  0  0  0  0  0  0  0  0  0  0
  1  2  2  0
  2  3  1  0
  3  4  1  0
  3  5  1  0
  5  6  1  0
  6  7  1  0
  7  8  1  0
  8  9  1  0
  6  3  1  0
  9  7  1  0
  2 10  1  0
  4 11  1  0
  5 12  1  0
  5 13  1  0
  6 14  1  0
  7 15  1  0
  8 16  1  0
  8 17  1  0
M  END
