
     RDKit          3D

 19 20  0  0  0  0  0  0  0  0999 V2000
    2.5435   -2.0209    0.4309 O   0  0  0  0  0  0  0  0  0  0  0  0
    2.5303   -0.8108    0.5297 C   0  0  0  0  0  0  0  0  0  0  0  0
    1.2470   -0.0932    0.5349 C   0  0  0  0  0  0  0  0  0  0  0  0
    1.1314    0.8650   -0.6468 C   0  0  0  0  0  0  0  0  0  0  0  0
   -0.2525    0.5103   -1.2093 C   0  0  0  0  0  0  0  0  0  0  0  0
   -0.8562   -0.2275   -0.0612 C   0  0  0  0  0  0  0  0  0  0  0  0
   -2.2028   -0.7784   -0.0520 C   0  0  0  0  0  0  0  0  0  0  0  0
   -1.8110    0.3837    0.8781 C   0  0  0  0  0  0  0  0  0  0  0  0
    0.1867   -0.9844    0.4173 O   0  0  0  0  0  0  0  0  0  0  0  0
    3.4775   -0.3001    0.6112 H   0  0  0  0  0  0  0  0  0  0  0  0
    1.0871    0.4528    1.4979 H   0  0  0  0  0  0  0  0  0  0  0  0
    1.1166    1.9020   -0.2341 H   0  0  0  0  0  0  0  0  0  0  0  0
    1.9261    0.7037   -1.3779 H   0  0  0  0  0  0  0  0  0  0  0  0
   -0.7796    1.4056   -1.5259 H   0  0  0  0  0  0  0  0  0  0  0  0
   -0.0895   -0.2131   -2.0466 H   0  0  0  0  0  0  0  0  0  0  0  0
   -2.9094   -0.5361   -0.8789 H   0  0  0  0  0  0  0  0  0  0  0  0
   -2.3557   -1.7410    0.4976 H   0  0  0  0  0  0  0  0  0  0  0  0
   -1.6595    0.1535    1.9508 H   0  0  0  0  0  0  0  0  0  0  0  0
   -2.3299    1.3288    0.6844 H   0  0  0  0  0  0  0  0  0  0  0  0
  1  2  2  0
  2  3  1  0
  3  4  1  0
  4  5  1  0
  5  6  1  0
  6  7  1  0
  7  8  1  0
  6  9  1  0
  9  3  1  0
  8  6  1  0
  2 10  1  0
  3 11  1  0
  4 12  1  0
  4 13  1  0
  5 14  1  0
  5 15  1  0
  7 16  1  0
  7 17  1  0
  8 18  1  0
  8 19  1  0
M  END
