
     RDKit          3D

 17 17  0  0  0  0  0  0  0  0999 V2000
    2.4014    1.3384   -1.0546 O   0  0  0  0  0  0  0  0  0  0  0  0
    2.1391    0.4241   -0.2656 C   0  0  0  0  0  0  0  0  0  0  0  0
    0.7993    0.3100    0.3211 C   0  0  0  0  0  0  0  0  0  0  0  0
   -0.0993    1.4146   -0.0875 C   0  0  0  0  0  0  0  0  0  0  0  0
    0.1898    2.5235   -0.4355 O   0  0  0  0  0  0  0  0  0  0  0  0
   -1.4933    0.8701    0.0181 C   0  0  0  0  0  0  0  0  0  0  0  0
   -1.3550   -0.5890    0.3217 C   0  0  0  0  0  0  0  0  0  0  0  0
    0.0306   -0.9042   -0.2179 C   0  0  0  0  0  0  0  0  0  0  0  0
    0.5484   -2.0560    0.3184 O   0  0  0  0  0  0  0  0  0  0  0  0
    2.8850   -0.3075    0.0086 H   0  0  0  0  0  0  0  0  0  0  0  0
    0.8115    0.1731    1.4322 H   0  0  0  0  0  0  0  0  0  0  0  0
   -1.9936    1.4038    0.8558 H   0  0  0  0  0  0  0  0  0  0  0  0
   -2.0725    0.9990   -0.8949 H   0  0  0  0  0  0  0  0  0  0  0  0
   -2.1289   -1.2259   -0.1093 H   0  0  0  0  0  0  0  0  0  0  0  0
   -1.3039   -0.6870    1.4369 H   0  0  0  0  0  0  0  0  0  0  0  0
    0.0222   -0.8810   -1.3251 H   0  0  0  0  0  0  0  0  0  0  0  0
    0.6191   -2.8059   -0.3224 H   0  0  0  0  0  0  0  0  0  0  0  0
  1  2  2  0
  2  3  1  0
  3  4  1  0
  4  5  2  0
  4  6  1  0
  6  7  1  0
  7  8  1  0
  8  9  1  0
  8  3  1  0
  2 10  1  0
  3 11  1  0
  6 12  1  0
  6 13  1  0
  7 14  1  0
  7 15  1  0
  8 16  1  0
  9 17  1  0
M  END
