
     RDKit          3D

 19 19  0  0  0  0  0  0  0  0999 V2000
   -2.3903   -0.9069    1.5691 O   0  0  0  0  0  0  0  0  0  0  0  0
   -1.2708   -0.5299    1.2891 C   0  0  0  0  0  0  0  0  0  0  0  0
   -0.9020   -0.2103   -0.0855 C   0  0  0  0  0  0  0  0  0  0  0  0
   -2.0071   -0.4115   -0.9305 O   0  0  0  0  0  0  0  0  0  0  0  0
    0.2173   -1.0935   -0.5669 C   0  0  0  0  0  0  0  0  0  0  0  0
    1.5531   -0.7464   -0.0562 C   0  0  0  0  0  0  0  0  0  0  0  0
    1.8335    0.5336    0.2272 O   0  0  0  0  0  0  0  0  0  0  0  0
    0.8783    1.4492    0.3670 C   0  0  0  0  0  0  0  0  0  0  0  0
   -0.4363    1.2068   -0.2787 C   0  0  0  0  0  0  0  0  0  0  0  0
   -0.5418   -0.4326    2.0799 H   0  0  0  0  0  0  0  0  0  0  0  0
   -1.6086   -0.5069   -1.8466 H   0  0  0  0  0  0  0  0  0  0  0  0
    0.1774   -1.1492   -1.6919 H   0  0  0  0  0  0  0  0  0  0  0  0
   -0.0422   -2.1394   -0.2377 H   0  0  0  0  0  0  0  0  0  0  0  0
    2.3075   -1.1129   -0.8137 H   0  0  0  0  0  0  0  0  0  0  0  0
    1.7754   -1.3753    0.8558 H   0  0  0  0  0  0  0  0  0  0  0  0
    0.6864    1.6590    1.4560 H   0  0  0  0  0  0  0  0  0  0  0  0
    1.2555    2.4396   -0.0293 H   0  0  0  0  0  0  0  0  0  0  0  0
   -0.3200    1.3642   -1.3730 H   0  0  0  0  0  0  0  0  0  0  0  0
   -1.1653    1.9623    0.0658 H   0  0  0  0  0  0  0  0  0  0  0  0
  1  2  2  0
  2  3  1  0
  3  4  1  0
  3  5  1  0
  5  6  1  0
  6  7  1  0
  7  8  1  0
  8  9  1  0
  9  3  1  0
  2 10  1  0
  4 11  1  0
  5 12  1  0
  5 13  1  0
  6 14  1  0
  6 15  1  0
  8 16  1  0
  8 17  1  0
  9 18  1  0
  9 19  1  0
M  END
