
     RDKit          3D

 17 18  0  0  0  0  0  0  0  0999 V2000
   -0.2725    2.3418   -0.5955 O   0  0  0  0  0  0  0  0  0  0  0  0
   -0.8756    1.6091    0.1700 C   0  0  0  0  0  0  0  0  0  0  0  0
   -0.8709    0.1788   -0.0712 C   0  0  0  0  0  0  0  0  0  0  0  0
   -2.2520   -0.3665   -0.2770 C   0  0  0  0  0  0  0  0  0  0  0  0
   -2.9372   -0.6608    0.6600 O   0  0  0  0  0  0  0  0  0  0  0  0
    0.0373   -0.7548    0.6333 C   0  0  0  0  0  0  0  0  0  0  0  0
    1.4928   -0.5710    0.8086 C   0  0  0  0  0  0  0  0  0  0  0  0
    1.5969    0.2746   -0.4434 C   0  0  0  0  0  0  0  0  0  0  0  0
    0.2632   -0.3064   -0.8623 C   0  0  0  0  0  0  0  0  0  0  0  0
   -1.3879    2.0079    1.0278 H   0  0  0  0  0  0  0  0  0  0  0  0
   -2.6307   -0.5057   -1.3395 H   0  0  0  0  0  0  0  0  0  0  0  0
   -0.3135   -1.8272    0.7599 H   0  0  0  0  0  0  0  0  0  0  0  0
    1.8374   -0.1119    1.7436 H   0  0  0  0  0  0  0  0  0  0  0  0
    2.0734   -1.5123    0.6291 H   0  0  0  0  0  0  0  0  0  0  0  0
    1.5622    1.3306   -0.1435 H   0  0  0  0  0  0  0  0  0  0  0  0
    2.4330    0.0100   -1.1182 H   0  0  0  0  0  0  0  0  0  0  0  0
    0.2441   -1.1362   -1.5816 H   0  0  0  0  0  0  0  0  0  0  0  0
  1  2  2  0
  2  3  1  0
  3  4  1  0
  4  5  2  0
  3  6  1  0
  6  7  1  0
  7  8  1  0
  8  9  1  0
  9  3  1  0
  9  6  1  0
  2 10  1  0
  4 11  1  0
  6 12  1  0
  7 13  1  0
  7 14  1  0
  8 15  1  0
  8 16  1  0
  9 17  1  0
M  END
