
     RDKit          3D

 17 19  0  0  0  0  0  0  0  0999 V2000
    2.8887    0.1437    1.3517 O   0  0  0  0  0  0  0  0  0  0  0  0
    2.4769    0.6301    0.2859 C   0  0  0  0  0  0  0  0  0  0  0  0
    1.2056    0.0266   -0.1739 C   0  0  0  0  0  0  0  0  0  0  0  0
    1.2314   -0.6833   -1.3577 O   0  0  0  0  0  0  0  0  0  0  0  0
    0.2236   -0.1969    0.8914 C   0  0  0  0  0  0  0  0  0  0  0  0
   -1.0882   -0.8473    0.5122 C   0  0  0  0  0  0  0  0  0  0  0  0
   -2.3418   -0.1025    0.4055 C   0  0  0  0  0  0  0  0  0  0  0  0
   -1.2929    0.3061   -0.5234 C   0  0  0  0  0  0  0  0  0  0  0  0
   -0.0083    0.9145   -0.0263 C   0  0  0  0  0  0  0  0  0  0  0  0
    2.9691    1.4036   -0.2253 H   0  0  0  0  0  0  0  0  0  0  0  0
    1.4014   -1.6799   -1.0957 H   0  0  0  0  0  0  0  0  0  0  0  0
    0.4618   -0.0164    1.9608 H   0  0  0  0  0  0  0  0  0  0  0  0
   -0.9733   -1.8454    0.0697 H   0  0  0  0  0  0  0  0  0  0  0  0
   -3.1899   -0.6662   -0.0339 H   0  0  0  0  0  0  0  0  0  0  0  0
   -2.6544    0.6241    1.1840 H   0  0  0  0  0  0  0  0  0  0  0  0
   -1.3930    0.0326   -1.5804 H   0  0  0  0  0  0  0  0  0  0  0  0
    0.0834    1.9567    0.2219 H   0  0  0  0  0  0  0  0  0  0  0  0
  1  2  2  0
  2  3  1  0
  3  4  1  0
  3  5  1  0
  5  6  1  0
  6  7  1  0
  7  8  1  0
  8  9  1  0
  9  3  1  0
  9  5  1  0
  8  6  1  0
  2 10  1  0
  4 11  1  0
  5 12  1  0
  6 13  1  0
  7 14  1  0
  7 15  1  0
  8 16  1  0
  9 17  1  0
M  END
