
     RDKit          3D

 16 17  0  0  0  0  0  0  0  0999 V2000
    3.1177    0.1559   -0.9007 O   0  0  0  0  0  0  0  0  0  0  0  0
    2.1794    0.7138   -0.3419 C   0  0  0  0  0  0  0  0  0  0  0  0
    1.3509   -0.1324    0.5579 C   0  0  0  0  0  0  0  0  0  0  0  0
    0.3961   -1.0092   -0.2498 C   0  0  0  0  0  0  0  0  0  0  0  0
   -0.5707   -0.0486    0.2865 C   0  0  0  0  0  0  0  0  0  0  0  0
   -1.9850   -0.2633    0.5040 C   0  0  0  0  0  0  0  0  0  0  0  0
   -1.5271    0.7365   -0.4849 C   0  0  0  0  0  0  0  0  0  0  0  0
    0.2993    0.5243    1.1747 O   0  0  0  0  0  0  0  0  0  0  0  0
    2.0130    1.7558   -0.5290 H   0  0  0  0  0  0  0  0  0  0  0  0
    1.9299   -0.7615    1.2678 H   0  0  0  0  0  0  0  0  0  0  0  0
    0.5480   -0.9257   -1.3276 H   0  0  0  0  0  0  0  0  0  0  0  0
    0.2976   -2.0360    0.1559 H   0  0  0  0  0  0  0  0  0  0  0  0
   -2.4154   -1.2413    0.1827 H   0  0  0  0  0  0  0  0  0  0  0  0
   -2.4277    0.1228    1.4522 H   0  0  0  0  0  0  0  0  0  0  0  0
   -1.6231    1.8189   -0.1845 H   0  0  0  0  0  0  0  0  0  0  0  0
   -1.5830    0.5898   -1.5633 H   0  0  0  0  0  0  0  0  0  0  0  0
  1  2  2  0
  2  3  1  0
  3  4  1  0
  4  5  1  0
  5  6  1  0
  6  7  1  0
  5  8  1  0
  8  3  1  0
  7  5  1  0
  2  9  1  0
  3 10  1  0
  4 11  1  0
  4 12  1  0
  6 13  1  0
  6 14  1  0
  7 15  1  0
  7 16  1  0
M  END
