
     RDKit          3D

 10  9  0  0  0  0  0  0  0  0999 V2000
    3.0804   -1.0139   -0.6744 O   0  0  0  0  0  0  0  0  0  0  0  0
    2.4723   -0.2656    0.1203 C   0  0  0  0  0  0  0  0  0  0  0  0
    1.0663   -0.0135    0.0705 C   0  0  0  0  0  0  0  0  0  0  0  0
   -0.1283    0.2147    0.0240 C   0  0  0  0  0  0  0  0  0  0  0  0
   -1.5677    0.5118   -0.0254 C   0  0  0  0  0  0  0  0  0  0  0  0
   -2.3268   -0.6618   -0.0588 O   0  0  0  0  0  0  0  0  0  0  0  0
    3.0505    0.2157    0.8876 H   0  0  0  0  0  0  0  0  0  0  0  0
   -1.8501    1.0980    0.8698 H   0  0  0  0  0  0  0  0  0  0  0  0
   -1.7256    1.0780   -0.9717 H   0  0  0  0  0  0  0  0  0  0  0  0
   -2.0710   -1.1635   -0.8721 H   0  0  0  0  0  0  0  0  0  0  0  0
  1  2  2  0
  2  3  1  0
  3  4  3  0
  4  5  1  0
  5  6  1  0
  2  7  1  0
  5  8  1  0
  5  9  1  0
  6 10  1  0
M  END
