
     RDKit          3D

 21 21  0  0  0  0  0  0  0  0999 V2000
    2.9184    1.5925    0.8044 O   0  0  0  0  0  0  0  0  0  0  0  0
    3.0021    0.5578    0.1725 C   0  0  0  0  0  0  0  0  0  0  0  0
    1.8918   -0.4202    0.3297 C   0  0  0  0  0  0  0  0  0  0  0  0
    0.7512    0.0722   -0.5097 C   0  0  0  0  0  0  0  0  0  0  0  0
   -0.4720   -0.8151   -0.4694 C   0  0  0  0  0  0  0  0  0  0  0  0
   -1.4756   -0.1954   -1.3391 C   0  0  0  0  0  0  0  0  0  0  0  0
   -2.2120    0.6410   -0.6557 C   0  0  0  0  0  0  0  0  0  0  0  0
   -1.7537    0.6493    0.7620 C   0  0  0  0  0  0  0  0  0  0  0  0
   -1.0693   -0.7255    0.9039 C   0  0  0  0  0  0  0  0  0  0  0  0
    3.8327    0.3648   -0.4624 H   0  0  0  0  0  0  0  0  0  0  0  0
    2.2360   -1.3888   -0.1009 H   0  0  0  0  0  0  0  0  0  0  0  0
    1.5804   -0.5138    1.3762 H   0  0  0  0  0  0  0  0  0  0  0  0
    1.1387    0.1310   -1.5691 H   0  0  0  0  0  0  0  0  0  0  0  0
    0.4989    1.1184   -0.2487 H   0  0  0  0  0  0  0  0  0  0  0  0
   -0.2248   -1.8610   -0.7581 H   0  0  0  0  0  0  0  0  0  0  0  0
   -1.6240   -0.3779   -2.4141 H   0  0  0  0  0  0  0  0  0  0  0  0
   -3.0437    1.2739   -0.9744 H   0  0  0  0  0  0  0  0  0  0  0  0
   -2.6432    0.6800    1.4031 H   0  0  0  0  0  0  0  0  0  0  0  0
   -1.0629    1.4564    1.0062 H   0  0  0  0  0  0  0  0  0  0  0  0
   -1.8877   -1.4707    1.0051 H   0  0  0  0  0  0  0  0  0  0  0  0
   -0.3812   -0.7689    1.7385 H   0  0  0  0  0  0  0  0  0  0  0  0
  1  2  2  0
  2  3  1  0
  3  4  1  0
  4  5  1  0
  5  6  1  0
  6  7  2  0
  7  8  1  0
  8  9  1  0
  9  5  1  0
  2 10  1  0
  3 11  1  0
  3 12  1  0
  4 13  1  0
  4 14  1  0
  5 15  1  0
  6 16  1  0
  7 17  1  0
  8 18  1  0
  8 19  1  0
  9 20  1  0
  9 21  1  0
M  END
