
     RDKit          3D

 17 18  0  0  0  0  0  0  0  0999 V2000
    3.1613   -1.0277    0.2124 O   0  0  0  0  0  0  0  0  0  0  0  0
    2.5995    0.0134   -0.2044 C   0  0  0  0  0  0  0  0  0  0  0  0
    1.1768    0.1755   -0.0012 C   0  0  0  0  0  0  0  0  0  0  0  0
    0.4719    1.2200   -0.3910 C   0  0  0  0  0  0  0  0  0  0  0  0
   -0.9431    1.1083   -0.0501 C   0  0  0  0  0  0  0  0  0  0  0  0
   -1.7828    0.6347   -1.0564 O   0  0  0  0  0  0  0  0  0  0  0  0
   -1.8408   -0.6426   -0.5212 C   0  0  0  0  0  0  0  0  0  0  0  0
   -1.0353   -0.1928    0.6750 C   0  0  0  0  0  0  0  0  0  0  0  0
    0.3173   -0.8187    0.6772 C   0  0  0  0  0  0  0  0  0  0  0  0
    3.1425    0.7976   -0.7124 H   0  0  0  0  0  0  0  0  0  0  0  0
    0.8763    2.0926   -0.9162 H   0  0  0  0  0  0  0  0  0  0  0  0
   -1.4146    1.9871    0.4301 H   0  0  0  0  0  0  0  0  0  0  0  0
   -2.8514   -1.0084   -0.2636 H   0  0  0  0  0  0  0  0  0  0  0  0
   -1.3105   -1.3520   -1.1989 H   0  0  0  0  0  0  0  0  0  0  0  0
   -1.5737   -0.1341    1.6269 H   0  0  0  0  0  0  0  0  0  0  0  0
    0.3180   -1.7346    0.0371 H   0  0  0  0  0  0  0  0  0  0  0  0
    0.6889   -1.1184    1.6568 H   0  0  0  0  0  0  0  0  0  0  0  0
  1  2  2  0
  2  3  1  0
  3  4  2  0
  4  5  1  0
  5  6  1  0
  6  7  1  0
  7  8  1  0
  8  9  1  0
  9  3  1  0
  8  5  1  0
  2 10  1  0
  4 11  1  0
  5 12  1  0
  7 13  1  0
  7 14  1  0
  8 15  1  0
  9 16  1  0
  9 17  1  0
M  END
