
     RDKit          3D

 19 21  0  0  0  0  0  0  0  0999 V2000
   -2.7533   -1.2865    0.6424 O   0  0  0  0  0  0  0  0  0  0  0  0
   -2.2039   -0.8997   -0.3989 C   0  0  0  0  0  0  0  0  0  0  0  0
   -1.5825    0.4469   -0.5127 C   0  0  0  0  0  0  0  0  0  0  0  0
   -0.2467    0.5165    0.1792 C   0  0  0  0  0  0  0  0  0  0  0  0
    0.5597    1.7405    0.2050 C   0  0  0  0  0  0  0  0  0  0  0  0
    0.9475    0.7135   -0.7586 C   0  0  0  0  0  0  0  0  0  0  0  0
    1.4442   -0.6262   -0.3203 C   0  0  0  0  0  0  0  0  0  0  0  0
    1.7748   -0.7996    1.1113 C   0  0  0  0  0  0  0  0  0  0  0  0
    0.3442   -0.7123    0.7779 C   0  0  0  0  0  0  0  0  0  0  0  0
   -2.2034   -1.6051   -1.2255 H   0  0  0  0  0  0  0  0  0  0  0  0
   -2.2449    1.1903   -0.0034 H   0  0  0  0  0  0  0  0  0  0  0  0
   -1.5363    0.7189   -1.5776 H   0  0  0  0  0  0  0  0  0  0  0  0
    1.1794    1.9057    1.1060 H   0  0  0  0  0  0  0  0  0  0  0  0
    0.0866    2.6579   -0.1714 H   0  0  0  0  0  0  0  0  0  0  0  0
    0.7368    0.9187   -1.8253 H   0  0  0  0  0  0  0  0  0  0  0  0
    1.4281   -1.4836   -1.0194 H   0  0  0  0  0  0  0  0  0  0  0  0
    2.1795   -1.7862    1.3918 H   0  0  0  0  0  0  0  0  0  0  0  0
    2.3272    0.0411    1.5796 H   0  0  0  0  0  0  0  0  0  0  0  0
   -0.2369   -1.6507    0.8200 H   0  0  0  0  0  0  0  0  0  0  0  0
  1  2  2  0
  2  3  1  0
  3  4  1  0
  4  5  1  0
  5  6  1  0
  6  7  1  0
  7  8  1  0
  8  9  1  0
  6  4  1  0
  9  7  1  0
  9  4  1  0
  2 10  1  0
  3 11  1  0
  3 12  1  0
  5 13  1  0
  5 14  1  0
  6 15  1  0
  7 16  1  0
  8 17  1  0
  8 18  1  0
  9 19  1  0
M  END
