
     RDKit          3D

 19 20  0  0  0  0  0  0  0  0999 V2000
    3.6015    1.1649    0.1874 O   0  0  0  0  0  0  0  0  0  0  0  0
    2.5625    0.5694    0.3443 C   0  0  0  0  0  0  0  0  0  0  0  0
    2.0636   -0.2929   -0.7574 C   0  0  0  0  0  0  0  0  0  0  0  0
    1.6914   -1.6073   -0.3485 O   0  0  0  0  0  0  0  0  0  0  0  0
    0.6783   -0.6379   -0.8464 C   0  0  0  0  0  0  0  0  0  0  0  0
   -0.2779   -0.3467    0.2595 C   0  0  0  0  0  0  0  0  0  0  0  0
   -1.6899   -0.8223   -0.1036 C   0  0  0  0  0  0  0  0  0  0  0  0
   -2.1818    0.4143    0.6561 C   0  0  0  0  0  0  0  0  0  0  0  0
   -0.8607    1.0671    0.2227 C   0  0  0  0  0  0  0  0  0  0  0  0
    2.0214    0.6689    1.2628 H   0  0  0  0  0  0  0  0  0  0  0  0
    2.6809   -0.3472   -1.6842 H   0  0  0  0  0  0  0  0  0  0  0  0
    0.2772   -1.0444   -1.7879 H   0  0  0  0  0  0  0  0  0  0  0  0
    0.0254   -0.5758    1.2808 H   0  0  0  0  0  0  0  0  0  0  0  0
   -1.9787   -1.7730    0.3380 H   0  0  0  0  0  0  0  0  0  0  0  0
   -1.8199   -0.7239   -1.2018 H   0  0  0  0  0  0  0  0  0  0  0  0
   -2.2237    0.1863    1.7446 H   0  0  0  0  0  0  0  0  0  0  0  0
   -3.0761    0.8796    0.2263 H   0  0  0  0  0  0  0  0  0  0  0  0
   -0.9827    1.4817   -0.7938 H   0  0  0  0  0  0  0  0  0  0  0  0
   -0.5107    1.7390    1.0010 H   0  0  0  0  0  0  0  0  0  0  0  0
  1  2  2  0
  2  3  1  0
  3  4  1  0
  4  5  1  0
  5  6  1  0
  6  7  1  0
  7  8  1  0
  8  9  1  0
  5  3  1  0
  9  6  1  0
  2 10  1  0
  3 11  1  0
  5 12  1  0
  6 13  1  0
  7 14  1  0
  7 15  1  0
  8 16  1  0
  8 17  1  0
  9 18  1  0
  9 19  1  0
M  END
