
     RDKit          3D

 16 16  0  0  0  0  0  0  0  0999 V2000
    1.6523   -1.9056    0.0741 O   0  0  0  0  0  0  0  0  0  0  0  0
    1.8862   -0.7202    0.3093 C   0  0  0  0  0  0  0  0  0  0  0  0
    0.9229    0.3252   -0.1262 C   0  0  0  0  0  0  0  0  0  0  0  0
    1.4356    1.5613    0.2668 O   0  0  0  0  0  0  0  0  0  0  0  0
   -0.4225    0.1739    0.5048 C   0  0  0  0  0  0  0  0  0  0  0  0
   -1.1588   -1.0993    0.2524 C   0  0  0  0  0  0  0  0  0  0  0  0
   -2.3196   -0.3371    0.0665 O   0  0  0  0  0  0  0  0  0  0  0  0
   -1.5041    0.6499   -0.4503 C   0  0  0  0  0  0  0  0  0  0  0  0
    2.7951   -0.4900    0.8297 H   0  0  0  0  0  0  0  0  0  0  0  0
    0.9013    0.3098   -1.2346 H   0  0  0  0  0  0  0  0  0  0  0  0
    1.4087    2.2137   -0.4589 H   0  0  0  0  0  0  0  0  0  0  0  0
   -0.4763    0.5607    1.5200 H   0  0  0  0  0  0  0  0  0  0  0  0
   -0.8407   -1.6140   -0.6758 H   0  0  0  0  0  0  0  0  0  0  0  0
   -1.3039   -1.7763    1.1156 H   0  0  0  0  0  0  0  0  0  0  0  0
   -1.2028    0.4587   -1.5111 H   0  0  0  0  0  0  0  0  0  0  0  0
   -1.7733    1.6894   -0.2106 H   0  0  0  0  0  0  0  0  0  0  0  0
  1  2  2  0
  2  3  1  0
  3  4  1  0
  3  5  1  0
  5  6  1  0
  6  7  1  0
  7  8  1  0
  8  5  1  0
  2  9  1  0
  3 10  1  0
  4 11  1  0
  5 12  1  0
  6 13  1  0
  6 14  1  0
  8 15  1  0
  8 16  1  0
M  END
