
     RDKit          3D

 17 18  0  0  0  0  0  0  0  0999 V2000
    2.9003    0.7842    0.1168 O   0  0  0  0  0  0  0  0  0  0  0  0
    1.7229    0.9362    0.1372 C   0  0  0  0  0  0  0  0  0  0  0  0
    0.8233   -0.2195    0.3269 C   0  0  0  0  0  0  0  0  0  0  0  0
    1.4851   -1.4471    0.4719 O   0  0  0  0  0  0  0  0  0  0  0  0
   -0.3180   -0.0303    1.2769 C   0  0  0  0  0  0  0  0  0  0  0  0
   -1.2696   -0.1426    0.1452 C   0  0  0  0  0  0  0  0  0  0  0  0
   -2.2610   -1.0890    0.0987 O   0  0  0  0  0  0  0  0  0  0  0  0
   -1.1365    0.8809   -0.9333 C   0  0  0  0  0  0  0  0  0  0  0  0
   -0.1799   -0.2339   -0.8102 C   0  0  0  0  0  0  0  0  0  0  0  0
    1.2883    1.9088    0.0191 H   0  0  0  0  0  0  0  0  0  0  0  0
    2.2405   -1.4285   -0.1903 H   0  0  0  0  0  0  0  0  0  0  0  0
   -0.3684    0.9715    1.7438 H   0  0  0  0  0  0  0  0  0  0  0  0
   -0.3255   -0.8152    2.0450 H   0  0  0  0  0  0  0  0  0  0  0  0
   -1.9112   -1.8914   -0.3967 H   0  0  0  0  0  0  0  0  0  0  0  0
   -0.7889    1.9132   -0.6437 H   0  0  0  0  0  0  0  0  0  0  0  0
   -1.8121    0.8637   -1.7938 H   0  0  0  0  0  0  0  0  0  0  0  0
   -0.0891   -0.9609   -1.6136 H   0  0  0  0  0  0  0  0  0  0  0  0
  1  2  2  0
  2  3  1  0
  3  4  1  0
  3  5  1  0
  5  6  1  0
  6  7  1  0
  6  8  1  0
  8  9  1  0
  9  3  1  0
  9  6  1  0
  2 10  1  0
  4 11  1  0
  5 12  1  0
  5 13  1  0
  7 14  1  0
  8 15  1  0
  8 16  1  0
  9 17  1  0
M  END
