
     RDKit          3D

 19 19  0  0  0  0  0  0  0  0999 V2000
    3.0612    0.6880   -0.1143 O   0  0  0  0  0  0  0  0  0  0  0  0
    2.4237   -0.3048    0.1182 C   0  0  0  0  0  0  0  0  0  0  0  0
    1.1030   -0.5121   -0.4994 C   0  0  0  0  0  0  0  0  0  0  0  0
    0.1340   -0.8171    0.6156 C   0  0  0  0  0  0  0  0  0  0  0  0
   -1.2760   -0.9272    0.1535 C   0  0  0  0  0  0  0  0  0  0  0  0
   -1.9048    0.4615    0.2594 C   0  0  0  0  0  0  0  0  0  0  0  0
   -1.4558    1.1829   -0.8396 O   0  0  0  0  0  0  0  0  0  0  0  0
   -0.0775    1.4657   -0.7460 C   0  0  0  0  0  0  0  0  0  0  0  0
    0.7008    0.4999   -1.3264 O   0  0  0  0  0  0  0  0  0  0  0  0
    2.8119   -1.0491    0.7784 H   0  0  0  0  0  0  0  0  0  0  0  0
    1.1719   -1.4451   -1.1308 H   0  0  0  0  0  0  0  0  0  0  0  0
    0.5149   -1.7487    1.1056 H   0  0  0  0  0  0  0  0  0  0  0  0
    0.2575    0.0030    1.3736 H   0  0  0  0  0  0  0  0  0  0  0  0
   -1.3502   -1.2478   -0.8992 H   0  0  0  0  0  0  0  0  0  0  0  0
   -1.7973   -1.6564    0.8153 H   0  0  0  0  0  0  0  0  0  0  0  0
   -1.6016    0.8931    1.2249 H   0  0  0  0  0  0  0  0  0  0  0  0
   -2.9869    0.3678    0.1860 H   0  0  0  0  0  0  0  0  0  0  0  0
    0.2163    1.7417    0.2845 H   0  0  0  0  0  0  0  0  0  0  0  0
    0.0549    2.4045   -1.3593 H   0  0  0  0  0  0  0  0  0  0  0  0
  1  2  2  0
  2  3  1  0
  3  4  1  0
  4  5  1  0
  5  6  1  0
  6  7  1  0
  7  8  1  0
  8  9  1  0
  9  3  1  0
  2 10  1  0
  3 11  1  0
  4 12  1  0
  4 13  1  0
  5 14  1  0
  5 15  1  0
  6 16  1  0
  6 17  1  0
  8 18  1  0
  8 19  1  0
M  END
