
     RDKit          3D

 17 17  0  0  0  0  0  0  0  0999 V2000
   -1.0913   -0.5573    2.2569 O   0  0  0  0  0  0  0  0  0  0  0  0
   -0.4848    0.2516    1.5815 C   0  0  0  0  0  0  0  0  0  0  0  0
   -0.1757    0.0353    0.1577 C   0  0  0  0  0  0  0  0  0  0  0  0
   -1.4695   -0.2642   -0.5720 C   0  0  0  0  0  0  0  0  0  0  0  0
   -2.3359    0.8079   -0.5994 O   0  0  0  0  0  0  0  0  0  0  0  0
    0.7409   -1.1471   -0.0698 C   0  0  0  0  0  0  0  0  0  0  0  0
    1.9431   -0.6262   -0.5220 O   0  0  0  0  0  0  0  0  0  0  0  0
    1.8559    0.7589   -0.4240 C   0  0  0  0  0  0  0  0  0  0  0  0
    0.5167    1.0713   -0.4201 O   0  0  0  0  0  0  0  0  0  0  0  0
   -0.1726    1.1604    2.0790 H   0  0  0  0  0  0  0  0  0  0  0  0
   -1.2327   -0.6854   -1.5617 H   0  0  0  0  0  0  0  0  0  0  0  0
   -1.9736   -1.0747    0.0069 H   0  0  0  0  0  0  0  0  0  0  0  0
   -2.0120    1.5629   -1.1534 H   0  0  0  0  0  0  0  0  0  0  0  0
    0.3594   -1.8241   -0.8619 H   0  0  0  0  0  0  0  0  0  0  0  0
    0.8358   -1.7534    0.8472 H   0  0  0  0  0  0  0  0  0  0  0  0
    2.4090    1.1962   -1.2869 H   0  0  0  0  0  0  0  0  0  0  0  0
    2.2873    1.0879    0.5420 H   0  0  0  0  0  0  0  0  0  0  0  0
  1  2  2  0
  2  3  1  0
  3  4  1  0
  4  5  1  0
  3  6  1  0
  6  7  1  0
  7  8  1  0
  8  9  1  0
  9  3  1  0
  2 10  1  0
  4 11  1  0
  4 12  1  0
  5 13  1  0
  6 14  1  0
  6 15  1  0
  8 16  1  0
  8 17  1  0
M  END
