
     RDKit          3D

 16 17  0  0  0  0  0  0  0  0999 V2000
    2.0040    0.8664   -1.4028 O   0  0  0  0  0  0  0  0  0  0  0  0
    1.3873    1.2074   -0.4238 C   0  0  0  0  0  0  0  0  0  0  0  0
    0.2004    0.5354    0.1288 C   0  0  0  0  0  0  0  0  0  0  0  0
   -1.1549    0.8448   -0.4500 C   0  0  0  0  0  0  0  0  0  0  0  0
   -1.5281   -0.6137   -0.4678 C   0  0  0  0  0  0  0  0  0  0  0  0
   -0.0686   -0.9110   -0.1351 C   0  0  0  0  0  0  0  0  0  0  0  0
    0.3576   -0.4575    1.2049 C   0  0  0  0  0  0  0  0  0  0  0  0
    1.6544   -0.7963    1.5566 O   0  0  0  0  0  0  0  0  0  0  0  0
    1.7405    2.1064    0.1125 H   0  0  0  0  0  0  0  0  0  0  0  0
   -1.7979    1.5113    0.1404 H   0  0  0  0  0  0  0  0  0  0  0  0
   -1.0122    1.2122   -1.5081 H   0  0  0  0  0  0  0  0  0  0  0  0
   -1.8062   -1.0474   -1.4256 H   0  0  0  0  0  0  0  0  0  0  0  0
   -2.1420   -0.9328    0.4169 H   0  0  0  0  0  0  0  0  0  0  0  0
    0.5607   -1.4359   -0.8393 H   0  0  0  0  0  0  0  0  0  0  0  0
   -0.3643   -0.4897    2.0600 H   0  0  0  0  0  0  0  0  0  0  0  0
    1.9693   -1.5997    1.0322 H   0  0  0  0  0  0  0  0  0  0  0  0
  1  2  2  0
  2  3  1  0
  3  4  1  0
  4  5  1  0
  5  6  1  0
  6  7  1  0
  7  8  1  0
  6  3  1  0
  7  3  1  0
  2  9  1  0
  4 10  1  0
  4 11  1  0
  5 12  1  0
  5 13  1  0
  6 14  1  0
  7 15  1  0
  8 16  1  0
M  END
