
     RDKit          3D

 16 16  0  0  0  0  0  0  0  0999 V2000
    2.9881   -0.1182   -0.3250 O   0  0  0  0  0  0  0  0  0  0  0  0
    2.1030   -0.8451    0.1687 C   0  0  0  0  0  0  0  0  0  0  0  0
    0.6973   -0.5047    0.0543 C   0  0  0  0  0  0  0  0  0  0  0  0
   -0.3181   -1.1949    0.5343 C   0  0  0  0  0  0  0  0  0  0  0  0
   -1.6074   -0.5418    0.2246 C   0  0  0  0  0  0  0  0  0  0  0  0
   -1.1952    0.8459   -0.2545 C   0  0  0  0  0  0  0  0  0  0  0  0
    0.2268    0.7220   -0.6528 C   0  0  0  0  0  0  0  0  0  0  0  0
    1.0070    1.8236   -0.3913 O   0  0  0  0  0  0  0  0  0  0  0  0
    2.3716   -1.7487    0.6945 H   0  0  0  0  0  0  0  0  0  0  0  0
   -0.2011   -2.1213    1.0836 H   0  0  0  0  0  0  0  0  0  0  0  0
   -2.1825   -1.0703   -0.5552 H   0  0  0  0  0  0  0  0  0  0  0  0
   -2.2303   -0.4533    1.1414 H   0  0  0  0  0  0  0  0  0  0  0  0
   -1.3343    1.5746    0.5658 H   0  0  0  0  0  0  0  0  0  0  0  0
   -1.8373    1.1510   -1.1065 H   0  0  0  0  0  0  0  0  0  0  0  0
    0.3458    0.4897   -1.7502 H   0  0  0  0  0  0  0  0  0  0  0  0
    1.1666    1.9914    0.5684 H   0  0  0  0  0  0  0  0  0  0  0  0
  1  2  2  0
  2  3  1  0
  3  4  2  0
  4  5  1  0
  5  6  1  0
  6  7  1  0
  7  8  1  0
  7  3  1  0
  2  9  1  0
  4 10  1  0
  5 11  1  0
  5 12  1  0
  6 13  1  0
  6 14  1  0
  7 15  1  0
  8 16  1  0
M  END
