
     RDKit          3D

 19 20  0  0  0  0  0  0  0  0999 V2000
    2.4080    1.3115    0.8674 O   0  0  0  0  0  0  0  0  0  0  0  0
    2.5275    0.5595   -0.0613 C   0  0  0  0  0  0  0  0  0  0  0  0
    1.4747   -0.4337   -0.4233 C   0  0  0  0  0  0  0  0  0  0  0  0
    0.8467   -1.2006    0.7699 C   0  0  0  0  0  0  0  0  0  0  0  0
    0.0946   -0.2324   -0.0213 C   0  0  0  0  0  0  0  0  0  0  0  0
   -0.4860    1.0235    0.4896 C   0  0  0  0  0  0  0  0  0  0  0  0
   -1.7236    0.7485   -0.3657 C   0  0  0  0  0  0  0  0  0  0  0  0
   -2.8702    0.4733    0.3650 O   0  0  0  0  0  0  0  0  0  0  0  0
   -1.0887   -0.5636   -0.8541 C   0  0  0  0  0  0  0  0  0  0  0  0
    3.4329    0.6109   -0.6501 H   0  0  0  0  0  0  0  0  0  0  0  0
    1.6821   -1.0786   -1.2947 H   0  0  0  0  0  0  0  0  0  0  0  0
    0.6187   -2.2667    0.6134 H   0  0  0  0  0  0  0  0  0  0  0  0
    1.2407   -0.9191    1.7645 H   0  0  0  0  0  0  0  0  0  0  0  0
   -0.0543    1.9766    0.1977 H   0  0  0  0  0  0  0  0  0  0  0  0
   -0.7864    1.0331    1.5678 H   0  0  0  0  0  0  0  0  0  0  0  0
   -1.8629    1.4460   -1.1977 H   0  0  0  0  0  0  0  0  0  0  0  0
   -3.0452   -0.4988    0.4352 H   0  0  0  0  0  0  0  0  0  0  0  0
   -1.5937   -1.4688   -0.5227 H   0  0  0  0  0  0  0  0  0  0  0  0
   -0.8150   -0.5205   -1.9426 H   0  0  0  0  0  0  0  0  0  0  0  0
  1  2  2  0
  2  3  1  0
  3  4  1  0
  4  5  1  0
  5  6  1  0
  6  7  1  0
  7  8  1  0
  7  9  1  0
  5  3  1  0
  9  5  1  0
  2 10  1  0
  3 11  1  0
  4 12  1  0
  4 13  1  0
  6 14  1  0
  6 15  1  0
  7 16  1  0
  8 17  1  0
  9 18  1  0
  9 19  1  0
M  END
