
     RDKit          3D

 15 15  0  0  0  0  0  0  0  0999 V2000
   -4.1315    0.3962   -0.8435 O   0  0  0  0  0  0  0  0  0  0  0  0
   -3.3543   -0.4976   -0.5741 C   0  0  0  0  0  0  0  0  0  0  0  0
   -1.9331   -0.3250   -0.9571 C   0  0  0  0  0  0  0  0  0  0  0  0
   -1.2251   -1.4311   -1.4231 O   0  0  0  0  0  0  0  0  0  0  0  0
   -0.9445   -0.8933   -0.0642 C   0  0  0  0  0  0  0  0  0  0  0  0
    0.3759   -0.2643   -0.0024 C   0  0  0  0  0  0  0  0  0  0  0  0
    1.4726    0.2789    0.0470 C   0  0  0  0  0  0  0  0  0  0  0  0
    2.7914    0.9081    0.1196 C   0  0  0  0  0  0  0  0  0  0  0  0
    3.0551    1.1865    1.4416 O   0  0  0  0  0  0  0  0  0  0  0  0
   -3.7046   -1.3878   -0.0690 H   0  0  0  0  0  0  0  0  0  0  0  0
   -1.6803    0.6094   -1.4632 H   0  0  0  0  0  0  0  0  0  0  0  0
   -1.1585   -1.7204    0.6426 H   0  0  0  0  0  0  0  0  0  0  0  0
    2.8318    1.8294   -0.5306 H   0  0  0  0  0  0  0  0  0  0  0  0
    3.5590    0.2176   -0.3320 H   0  0  0  0  0  0  0  0  0  0  0  0
    4.0461    1.0933    1.5704 H   0  0  0  0  0  0  0  0  0  0  0  0
  1  2  2  0
  2  3  1  0
  3  4  1  0
  4  5  1  0
  5  6  1  0
  6  7  3  0
  7  8  1  0
  8  9  1  0
  5  3  1  0
  2 10  1  0
  3 11  1  0
  5 12  1  0
  8 13  1  0
  8 14  1  0
  9 15  1  0
M  END
