
     RDKit          3D

 19 20  0  0  0  0  0  0  0  0999 V2000
   -0.4987    1.6756    1.6408 O   0  0  0  0  0  0  0  0  0  0  0  0
   -0.9287    1.4151    0.5279 C   0  0  0  0  0  0  0  0  0  0  0  0
   -0.2603    0.3705   -0.2554 C   0  0  0  0  0  0  0  0  0  0  0  0
    1.1014    0.6510   -0.7684 C   0  0  0  0  0  0  0  0  0  0  0  0
    1.9547    0.1109    0.4101 C   0  0  0  0  0  0  0  0  0  0  0  0
    1.1490   -1.0709    0.8800 C   0  0  0  0  0  0  0  0  0  0  0  0
   -0.1111   -0.9467    0.5114 C   0  0  0  0  0  0  0  0  0  0  0  0
   -1.5604   -1.0974    0.2435 C   0  0  0  0  0  0  0  0  0  0  0  0
   -1.2460   -0.3846   -1.1030 C   0  0  0  0  0  0  0  0  0  0  0  0
   -1.7826    1.9197    0.0896 H   0  0  0  0  0  0  0  0  0  0  0  0
    1.3634    0.1435   -1.7034 H   0  0  0  0  0  0  0  0  0  0  0  0
    1.2363    1.7555   -0.8162 H   0  0  0  0  0  0  0  0  0  0  0  0
    2.0113    0.8639    1.2147 H   0  0  0  0  0  0  0  0  0  0  0  0
    2.9292   -0.2027   -0.0050 H   0  0  0  0  0  0  0  0  0  0  0  0
    1.6070   -1.8770    1.4397 H   0  0  0  0  0  0  0  0  0  0  0  0
   -2.1467   -0.3844    0.8474 H   0  0  0  0  0  0  0  0  0  0  0  0
   -1.9420   -2.1070    0.1241 H   0  0  0  0  0  0  0  0  0  0  0  0
   -0.7871   -1.0606   -1.8440 H   0  0  0  0  0  0  0  0  0  0  0  0
   -2.0888    0.2257   -1.4337 H   0  0  0  0  0  0  0  0  0  0  0  0
  1  2  2  0
  2  3  1  0
  3  4  1  0
  4  5  1  0
  5  6  1  0
  6  7  2  0
  7  8  1  0
  8  9  1  0
  7  3  1  0
  9  3  1  0
  2 10  1  0
  4 11  1  0
  4 12  1  0
  5 13  1  0
  5 14  1  0
  6 15  1  0
  8 16  1  0
  8 17  1  0
  9 18  1  0
  9 19  1  0
M  END
