
     RDKit          3D

 17 18  0  0  0  0  0  0  0  0999 V2000
    3.1812    0.4546    0.4771 O   0  0  0  0  0  0  0  0  0  0  0  0
    2.3051   -0.4068    0.7942 C   0  0  0  0  0  0  0  0  0  0  0  0
    0.9391   -0.3263    0.3046 C   0  0  0  0  0  0  0  0  0  0  0  0
   -0.0103   -1.1996    0.6067 C   0  0  0  0  0  0  0  0  0  0  0  0
   -1.2506   -0.6804   -0.0219 C   0  0  0  0  0  0  0  0  0  0  0  0
   -1.5659    0.6661    0.5543 C   0  0  0  0  0  0  0  0  0  0  0  0
   -0.6095    1.5058    0.1953 C   0  0  0  0  0  0  0  0  0  0  0  0
    0.3640    0.7090   -0.5938 C   0  0  0  0  0  0  0  0  0  0  0  0
   -0.6397   -0.1907   -1.3519 C   0  0  0  0  0  0  0  0  0  0  0  0
    2.6490   -1.1942    1.4478 H   0  0  0  0  0  0  0  0  0  0  0  0
    0.0869   -2.0848    1.1764 H   0  0  0  0  0  0  0  0  0  0  0  0
   -2.0602   -1.3499   -0.1280 H   0  0  0  0  0  0  0  0  0  0  0  0
   -2.4378    0.8613    1.1525 H   0  0  0  0  0  0  0  0  0  0  0  0
   -0.5145    2.5521    0.4068 H   0  0  0  0  0  0  0  0  0  0  0  0
    1.0356    1.2349   -1.2167 H   0  0  0  0  0  0  0  0  0  0  0  0
   -1.3292    0.4357   -1.9107 H   0  0  0  0  0  0  0  0  0  0  0  0
   -0.1432   -0.9866   -1.8924 H   0  0  0  0  0  0  0  0  0  0  0  0
  1  2  2  0
  2  3  1  0
  3  4  2  0
  4  5  1  0
  5  6  1  0
  6  7  2  0
  7  8  1  0
  8  9  1  0
  8  3  1  0
  9  5  1  0
  2 10  1  0
  4 11  1  0
  5 12  1  0
  6 13  1  0
  7 14  1  0
  8 15  1  0
  9 16  1  0
  9 17  1  0
M  END
