
     RDKit          3D

 19 19  0  0  0  0  0  0  0  0999 V2000
   -0.7588   -2.2721    1.0099 O   0  0  0  0  0  0  0  0  0  0  0  0
    0.0346   -1.9590    0.1316 C   0  0  0  0  0  0  0  0  0  0  0  0
    0.3959   -0.5656   -0.1812 C   0  0  0  0  0  0  0  0  0  0  0  0
   -0.5953    0.4278    0.3824 C   0  0  0  0  0  0  0  0  0  0  0  0
   -1.9891    0.2142   -0.1604 C   0  0  0  0  0  0  0  0  0  0  0  0
   -2.8017    1.1908    0.4361 O   0  0  0  0  0  0  0  0  0  0  0  0
    1.7574   -0.1787    0.3856 C   0  0  0  0  0  0  0  0  0  0  0  0
    2.1543    1.2380    0.0829 C   0  0  0  0  0  0  0  0  0  0  0  0
    2.8049    0.0198   -0.4937 O   0  0  0  0  0  0  0  0  0  0  0  0
    0.4892   -2.7532   -0.4394 H   0  0  0  0  0  0  0  0  0  0  0  0
    0.3732   -0.4552   -1.2840 H   0  0  0  0  0  0  0  0  0  0  0  0
   -0.5606    0.3443    1.4778 H   0  0  0  0  0  0  0  0  0  0  0  0
   -0.2316    1.4406    0.0865 H   0  0  0  0  0  0  0  0  0  0  0  0
   -2.0560    0.2815   -1.2396 H   0  0  0  0  0  0  0  0  0  0  0  0
   -2.3451   -0.7810    0.1595 H   0  0  0  0  0  0  0  0  0  0  0  0
   -3.1449    0.8398    1.3171 H   0  0  0  0  0  0  0  0  0  0  0  0
    2.0171   -0.5588    1.3804 H   0  0  0  0  0  0  0  0  0  0  0  0
    1.6513    1.7429   -0.7666 H   0  0  0  0  0  0  0  0  0  0  0  0
    2.8053    1.7838    0.7612 H   0  0  0  0  0  0  0  0  0  0  0  0
  1  2  2  0
  2  3  1  0
  3  4  1  0
  4  5  1  0
  5  6  1  0
  3  7  1  0
  7  8  1  0
  8  9  1  0
  9  7  1  0
  2 10  1  0
  3 11  1  0
  4 12  1  0
  4 13  1  0
  5 14  1  0
  5 15  1  0
  6 16  1  0
  7 17  1  0
  8 18  1  0
  8 19  1  0
M  END
