
     RDKit          3D

 17 17  0  0  0  0  0  0  0  0999 V2000
    4.2730   -0.1577   -0.5470 O   0  0  0  0  0  0  0  0  0  0  0  0
    3.2549    0.3227   -1.1043 C   0  0  0  0  0  0  0  0  0  0  0  0
    1.9518   -0.2653   -0.8930 C   0  0  0  0  0  0  0  0  0  0  0  0
    0.8595   -0.7765   -0.7277 C   0  0  0  0  0  0  0  0  0  0  0  0
   -0.4439   -1.4008   -0.5078 C   0  0  0  0  0  0  0  0  0  0  0  0
   -1.3282   -0.5043    0.2991 C   0  0  0  0  0  0  0  0  0  0  0  0
   -1.6465    0.8362   -0.2601 C   0  0  0  0  0  0  0  0  0  0  0  0
   -0.8238    0.6890    1.0010 C   0  0  0  0  0  0  0  0  0  0  0  0
   -1.4294    1.0184    2.2210 O   0  0  0  0  0  0  0  0  0  0  0  0
    3.4169    1.1849   -1.7369 H   0  0  0  0  0  0  0  0  0  0  0  0
   -0.9750   -1.5875   -1.4846 H   0  0  0  0  0  0  0  0  0  0  0  0
   -0.3599   -2.4106   -0.0376 H   0  0  0  0  0  0  0  0  0  0  0  0
   -2.1956   -1.0274    0.7588 H   0  0  0  0  0  0  0  0  0  0  0  0
   -2.6528    1.2966   -0.0820 H   0  0  0  0  0  0  0  0  0  0  0  0
   -1.1387    1.1123   -1.2134 H   0  0  0  0  0  0  0  0  0  0  0  0
    0.2003    1.0644    0.9140 H   0  0  0  0  0  0  0  0  0  0  0  0
   -0.9626    0.6056    2.9814 H   0  0  0  0  0  0  0  0  0  0  0  0
  1  2  2  0
  2  3  1  0
  3  4  3  0
  4  5  1  0
  5  6  1  0
  6  7  1  0
  7  8  1  0
  8  9  1  0
  8  6  1  0
  2 10  1  0
  5 11  1  0
  5 12  1  0
  6 13  1  0
  7 14  1  0
  7 15  1  0
  8 16  1  0
  9 17  1  0
M  END
