
     RDKit          3D

 21 21  0  0  0  0  0  0  0  0999 V2000
   -2.4876    2.6367   -0.1963 O   0  0  0  0  0  0  0  0  0  0  0  0
   -1.6664    1.7186   -0.2421 C   0  0  0  0  0  0  0  0  0  0  0  0
   -1.4866    0.7946    0.9064 C   0  0  0  0  0  0  0  0  0  0  0  0
   -0.4001   -0.1969    0.4883 C   0  0  0  0  0  0  0  0  0  0  0  0
    0.8935    0.4766    0.1752 C   0  0  0  0  0  0  0  0  0  0  0  0
    1.9841   -0.4739   -0.2400 C   0  0  0  0  0  0  0  0  0  0  0  0
    3.1537    0.2220   -0.5145 O   0  0  0  0  0  0  0  0  0  0  0  0
   -0.4819   -1.6116    0.8964 C   0  0  0  0  0  0  0  0  0  0  0  0
   -0.9277   -1.2563   -0.4751 C   0  0  0  0  0  0  0  0  0  0  0  0
   -1.1064    1.6521   -1.1702 H   0  0  0  0  0  0  0  0  0  0  0  0
   -2.4335    0.2669    1.1549 H   0  0  0  0  0  0  0  0  0  0  0  0
   -1.1505    1.3884    1.7877 H   0  0  0  0  0  0  0  0  0  0  0  0
    1.2434    0.9794    1.1115 H   0  0  0  0  0  0  0  0  0  0  0  0
    0.8151    1.2492   -0.6128 H   0  0  0  0  0  0  0  0  0  0  0  0
    1.7405   -1.1010   -1.0944 H   0  0  0  0  0  0  0  0  0  0  0  0
    2.2081   -1.1128    0.6549 H   0  0  0  0  0  0  0  0  0  0  0  0
    3.1414    1.1485   -0.1949 H   0  0  0  0  0  0  0  0  0  0  0  0
    0.4769   -2.1671    0.9511 H   0  0  0  0  0  0  0  0  0  0  0  0
   -1.2307   -1.8777    1.6456 H   0  0  0  0  0  0  0  0  0  0  0  0
   -0.2781   -1.4063   -1.3538 H   0  0  0  0  0  0  0  0  0  0  0  0
   -2.0073   -1.3296   -0.6571 H   0  0  0  0  0  0  0  0  0  0  0  0
  1  2  2  0
  2  3  1  0
  3  4  1  0
  4  5  1  0
  5  6  1  0
  6  7  1  0
  4  8  1  0
  8  9  1  0
  9  4  1  0
  2 10  1  0
  3 11  1  0
  3 12  1  0
  5 13  1  0
  5 14  1  0
  6 15  1  0
  6 16  1  0
  7 17  1  0
  8 18  1  0
  8 19  1  0
  9 20  1  0
  9 21  1  0
M  END
