
     RDKit          3D

 19 18  0  0  0  0  0  0  0  0999 V2000
    3.7660   -0.4780   -1.3380 O   0  0  0  0  0  0  0  0  0  0  0  0
    3.1035   -0.3383   -0.3024 C   0  0  0  0  0  0  0  0  0  0  0  0
    1.6953   -0.7664   -0.2068 C   0  0  0  0  0  0  0  0  0  0  0  0
    0.7392    0.4054    0.0006 C   0  0  0  0  0  0  0  0  0  0  0  0
   -0.6589   -0.1394    0.0909 C   0  0  0  0  0  0  0  0  0  0  0  0
   -0.9315   -0.8020   -1.1277 O   0  0  0  0  0  0  0  0  0  0  0  0
   -1.7137    0.9084    0.2490 C   0  0  0  0  0  0  0  0  0  0  0  0
   -3.0184    0.1857    0.3328 C   0  0  0  0  0  0  0  0  0  0  0  0
   -3.5432   -0.1151    1.3987 O   0  0  0  0  0  0  0  0  0  0  0  0
    3.6249    0.1231    0.5266 H   0  0  0  0  0  0  0  0  0  0  0  0
    1.4392   -1.2675   -1.1952 H   0  0  0  0  0  0  0  0  0  0  0  0
    1.5945   -1.5633    0.5391 H   0  0  0  0  0  0  0  0  0  0  0  0
    0.8712    1.0776   -0.8709 H   0  0  0  0  0  0  0  0  0  0  0  0
    1.0601    0.8802    0.9581 H   0  0  0  0  0  0  0  0  0  0  0  0
   -0.6913   -0.8472    0.9467 H   0  0  0  0  0  0  0  0  0  0  0  0
   -0.4394   -0.2986   -1.8371 H   0  0  0  0  0  0  0  0  0  0  0  0
   -1.7913    1.5923   -0.6134 H   0  0  0  0  0  0  0  0  0  0  0  0
   -1.5980    1.5200    1.1638 H   0  0  0  0  0  0  0  0  0  0  0  0
   -3.5080   -0.0770   -0.5888 H   0  0  0  0  0  0  0  0  0  0  0  0
  1  2  2  0
  2  3  1  0
  3  4  1  0
  4  5  1  0
  5  6  1  0
  5  7  1  0
  7  8  1  0
  8  9  2  0
  2 10  1  0
  3 11  1  0
  3 12  1  0
  4 13  1  0
  4 14  1  0
  5 15  1  0
  6 16  1  0
  7 17  1  0
  7 18  1  0
  8 19  1  0
M  END
