
     RDKit          3D

 17 18  0  0  0  0  0  0  0  0999 V2000
    1.3346    2.3388   -0.2767 O   0  0  0  0  0  0  0  0  0  0  0  0
    1.7489    1.1914   -0.2472 C   0  0  0  0  0  0  0  0  0  0  0  0
    0.9372    0.0190   -0.6403 C   0  0  0  0  0  0  0  0  0  0  0  0
    1.7739   -1.1165   -0.5016 O   0  0  0  0  0  0  0  0  0  0  0  0
   -0.2471   -0.2513    0.2139 C   0  0  0  0  0  0  0  0  0  0  0  0
   -1.0577   -1.4493   -0.2073 C   0  0  0  0  0  0  0  0  0  0  0  0
   -2.2621   -0.8362    0.1729 O   0  0  0  0  0  0  0  0  0  0  0  0
   -1.5792    0.3764    0.0153 C   0  0  0  0  0  0  0  0  0  0  0  0
   -0.7133    0.7516    1.1478 C   0  0  0  0  0  0  0  0  0  0  0  0
    2.7606    1.0674    0.0875 H   0  0  0  0  0  0  0  0  0  0  0  0
    0.6953    0.0362   -1.7330 H   0  0  0  0  0  0  0  0  0  0  0  0
    1.7265   -1.4051    0.4546 H   0  0  0  0  0  0  0  0  0  0  0  0
   -0.8314   -2.3859    0.3230 H   0  0  0  0  0  0  0  0  0  0  0  0
   -1.0535   -1.5268   -1.3154 H   0  0  0  0  0  0  0  0  0  0  0  0
   -1.8054    1.0273   -0.8235 H   0  0  0  0  0  0  0  0  0  0  0  0
   -0.3813    1.7852    1.1749 H   0  0  0  0  0  0  0  0  0  0  0  0
   -1.0459    0.3779    2.1552 H   0  0  0  0  0  0  0  0  0  0  0  0
  1  2  2  0
  2  3  1  0
  3  4  1  0
  3  5  1  0
  5  6  1  0
  6  7  1  0
  7  8  1  0
  8  9  1  0
  8  5  1  0
  9  5  1  0
  2 10  1  0
  3 11  1  0
  4 12  1  0
  6 13  1  0
  6 14  1  0
  8 15  1  0
  9 16  1  0
  9 17  1  0
M  END
