
     RDKit          3D

 19 20  0  0  0  0  0  0  0  0999 V2000
   -1.6421    0.8973   -1.3154 O   0  0  0  0  0  0  0  0  0  0  0  0
   -1.7736    1.0218   -0.0926 C   0  0  0  0  0  0  0  0  0  0  0  0
   -1.4530   -0.0403    0.8625 C   0  0  0  0  0  0  0  0  0  0  0  0
   -1.5927   -1.4498    0.4214 C   0  0  0  0  0  0  0  0  0  0  0  0
   -0.2024   -0.8300    0.6266 C   0  0  0  0  0  0  0  0  0  0  0  0
    0.6503   -0.7176   -0.5652 C   0  0  0  0  0  0  0  0  0  0  0  0
    1.2688    0.5994   -0.8413 C   0  0  0  0  0  0  0  0  0  0  0  0
    2.1657    1.2441    0.1095 C   0  0  0  0  0  0  0  0  0  0  0  0
    2.7664    0.3864   -0.8897 O   0  0  0  0  0  0  0  0  0  0  0  0
   -2.1465    1.9709    0.2822 H   0  0  0  0  0  0  0  0  0  0  0  0
   -1.6897    0.2276    1.9376 H   0  0  0  0  0  0  0  0  0  0  0  0
   -1.9116   -1.6523   -0.6221 H   0  0  0  0  0  0  0  0  0  0  0  0
   -1.8666   -2.2491    1.1205 H   0  0  0  0  0  0  0  0  0  0  0  0
    0.3235   -1.1659    1.5853 H   0  0  0  0  0  0  0  0  0  0  0  0
    0.0062   -0.9657   -1.4718 H   0  0  0  0  0  0  0  0  0  0  0  0
    1.4209   -1.5275   -0.5282 H   0  0  0  0  0  0  0  0  0  0  0  0
    0.9891    1.1682   -1.7587 H   0  0  0  0  0  0  0  0  0  0  0  0
    2.1866    0.8080    1.1448 H   0  0  0  0  0  0  0  0  0  0  0  0
    2.5005    2.2745   -0.0527 H   0  0  0  0  0  0  0  0  0  0  0  0
  1  2  2  0
  2  3  1  0
  3  4  1  0
  4  5  1  0
  5  6  1  0
  6  7  1  0
  7  8  1  0
  8  9  1  0
  5  3  1  0
  9  7  1  0
  2 10  1  0
  3 11  1  0
  4 12  1  0
  4 13  1  0
  5 14  1  0
  6 15  1  0
  6 16  1  0
  7 17  1  0
  8 18  1  0
  8 19  1  0
M  END
