
     RDKit          3D

 15 15  0  0  0  0  0  0  0  0999 V2000
   -2.5234   -1.7775    0.5256 O   0  0  0  0  0  0  0  0  0  0  0  0
   -2.3441   -0.6148    0.0953 C   0  0  0  0  0  0  0  0  0  0  0  0
   -0.9982   -0.0609   -0.1368 C   0  0  0  0  0  0  0  0  0  0  0  0
   -0.7029    1.1437   -0.5850 C   0  0  0  0  0  0  0  0  0  0  0  0
    0.7379    1.3022   -0.6742 C   0  0  0  0  0  0  0  0  0  0  0  0
    1.3487    2.3440   -1.0406 O   0  0  0  0  0  0  0  0  0  0  0  0
    1.3715    0.0275   -0.2601 C   0  0  0  0  0  0  0  0  0  0  0  0
    2.1709    0.2426    0.8518 O   0  0  0  0  0  0  0  0  0  0  0  0
    0.2348   -0.8523    0.1268 C   0  0  0  0  0  0  0  0  0  0  0  0
   -3.2177   -0.0128   -0.1066 H   0  0  0  0  0  0  0  0  0  0  0  0
   -1.4532    1.8758   -0.8373 H   0  0  0  0  0  0  0  0  0  0  0  0
    1.9457   -0.4224   -1.1124 H   0  0  0  0  0  0  0  0  0  0  0  0
    3.0201   -0.2699    0.7342 H   0  0  0  0  0  0  0  0  0  0  0  0
    0.1621   -1.7613   -0.5051 H   0  0  0  0  0  0  0  0  0  0  0  0
    0.2479   -1.1636    1.1993 H   0  0  0  0  0  0  0  0  0  0  0  0
  1  2  2  0
  2  3  1  0
  3  4  2  0
  4  5  1  0
  5  6  2  0
  5  7  1  0
  7  8  1  0
  7  9  1  0
  9  3  1  0
  2 10  1  0
  4 11  1  0
  7 12  1  0
  8 13  1  0
  9 14  1  0
  9 15  1  0
M  END
