
     RDKit          3D

 17 18  0  0  0  0  0  0  0  0999 V2000
    3.3412   -0.8375   -0.3186 O   0  0  0  0  0  0  0  0  0  0  0  0
    2.9946    0.2788    0.0085 C   0  0  0  0  0  0  0  0  0  0  0  0
    1.6188    0.7530   -0.2708 C   0  0  0  0  0  0  0  0  0  0  0  0
    1.0169    0.3294   -1.4812 O   0  0  0  0  0  0  0  0  0  0  0  0
    0.5518   -0.2155   -0.2344 C   0  0  0  0  0  0  0  0  0  0  0  0
   -0.8716    0.1776    0.0807 C   0  0  0  0  0  0  0  0  0  0  0  0
   -1.1605    1.5355    0.2020 O   0  0  0  0  0  0  0  0  0  0  0  0
   -2.0035   -0.7079   -0.4018 C   0  0  0  0  0  0  0  0  0  0  0  0
   -1.5984   -0.7802    1.0102 C   0  0  0  0  0  0  0  0  0  0  0  0
    3.6865    0.9373    0.5066 H   0  0  0  0  0  0  0  0  0  0  0  0
    1.3706    1.7961    0.0606 H   0  0  0  0  0  0  0  0  0  0  0  0
    0.8070   -1.2787   -0.0813 H   0  0  0  0  0  0  0  0  0  0  0  0
   -1.7728    1.7682   -0.5433 H   0  0  0  0  0  0  0  0  0  0  0  0
   -1.7518   -1.5343   -1.0850 H   0  0  0  0  0  0  0  0  0  0  0  0
   -2.9762   -0.2035   -0.5984 H   0  0  0  0  0  0  0  0  0  0  0  0
   -2.1697   -0.3065    1.8244 H   0  0  0  0  0  0  0  0  0  0  0  0
   -1.0828   -1.7118    1.3219 H   0  0  0  0  0  0  0  0  0  0  0  0
  1  2  2  0
  2  3  1  0
  3  4  1  0
  4  5  1  0
  5  6  1  0
  6  7  1  0
  6  8  1  0
  8  9  1  0
  5  3  1  0
  9  6  1  0
  2 10  1  0
  3 11  1  0
  5 12  1  0
  7 13  1  0
  8 14  1  0
  8 15  1  0
  9 16  1  0
  9 17  1  0
M  END
