
     RDKit          3D

 15 14  0  0  0  0  0  0  0  0999 V2000
   -1.3557   -2.2858    1.1963 O   0  0  0  0  0  0  0  0  0  0  0  0
   -2.4157   -1.7341    1.0316 C   0  0  0  0  0  0  0  0  0  0  0  0
   -2.3610   -0.3753    0.3444 C   0  0  0  0  0  0  0  0  0  0  0  0
   -1.0243   -0.1783   -0.2117 C   0  0  0  0  0  0  0  0  0  0  0  0
    0.1089    0.0095   -0.6779 C   0  0  0  0  0  0  0  0  0  0  0  0
    1.3884    0.2225   -1.1780 C   0  0  0  0  0  0  0  0  0  0  0  0
    1.7291   -0.1908   -2.3596 O   0  0  0  0  0  0  0  0  0  0  0  0
    2.4689    0.9168   -0.4554 C   0  0  0  0  0  0  0  0  0  0  0  0
    2.0599    1.3844    0.7578 O   0  0  0  0  0  0  0  0  0  0  0  0
   -3.3592   -2.1111    1.3234 H   0  0  0  0  0  0  0  0  0  0  0  0
   -3.1398   -0.3576   -0.4322 H   0  0  0  0  0  0  0  0  0  0  0  0
   -2.4784    0.4199    1.1225 H   0  0  0  0  0  0  0  0  0  0  0  0
    2.8129    1.7541   -1.0779 H   0  0  0  0  0  0  0  0  0  0  0  0
    3.3079    0.1752   -0.3267 H   0  0  0  0  0  0  0  0  0  0  0  0
    2.2584    2.3505    0.9434 H   0  0  0  0  0  0  0  0  0  0  0  0
  1  2  2  0
  2  3  1  0
  3  4  1  0
  4  5  3  0
  5  6  1  0
  6  7  2  0
  6  8  1  0
  8  9  1  0
  2 10  1  0
  3 11  1  0
  3 12  1  0
  8 13  1  0
  8 14  1  0
  9 15  1  0
M  END
