
     RDKit          3D

 19 20  0  0  0  0  0  0  0  0999 V2000
   -0.9692   -2.3933    0.1997 O   0  0  0  0  0  0  0  0  0  0  0  0
   -1.4937   -1.3035    0.1012 C   0  0  0  0  0  0  0  0  0  0  0  0
   -0.7042   -0.0516   -0.1339 C   0  0  0  0  0  0  0  0  0  0  0  0
    0.6752   -0.3160   -0.6498 C   0  0  0  0  0  0  0  0  0  0  0  0
    1.4732   -1.1662    0.3375 C   0  0  0  0  0  0  0  0  0  0  0  0
    2.6053   -0.4702   -0.0936 O   0  0  0  0  0  0  0  0  0  0  0  0
    1.7566    0.6398   -0.3024 C   0  0  0  0  0  0  0  0  0  0  0  0
   -0.9353    1.0198    0.8586 C   0  0  0  0  0  0  0  0  0  0  0  0
   -1.4909    1.1292   -0.5504 C   0  0  0  0  0  0  0  0  0  0  0  0
   -2.5741   -1.2659    0.1917 H   0  0  0  0  0  0  0  0  0  0  0  0
    0.7525   -0.6637   -1.6903 H   0  0  0  0  0  0  0  0  0  0  0  0
    1.1651   -0.9550    1.3752 H   0  0  0  0  0  0  0  0  0  0  0  0
    1.4193   -2.2228    0.0113 H   0  0  0  0  0  0  0  0  0  0  0  0
    1.6916    1.2013    0.6271 H   0  0  0  0  0  0  0  0  0  0  0  0
    2.1289    1.2854   -1.1463 H   0  0  0  0  0  0  0  0  0  0  0  0
   -0.2013    1.7824    1.1188 H   0  0  0  0  0  0  0  0  0  0  0  0
   -1.6994    0.8597    1.6624 H   0  0  0  0  0  0  0  0  0  0  0  0
   -2.5975    1.0465   -0.6624 H   0  0  0  0  0  0  0  0  0  0  0  0
   -1.0020    1.8442   -1.2542 H   0  0  0  0  0  0  0  0  0  0  0  0
  1  2  2  0
  2  3  1  0
  3  4  1  0
  4  5  1  0
  5  6  1  0
  6  7  1  0
  3  8  1  0
  8  9  1  0
  9  3  1  0
  7  4  1  0
  2 10  1  0
  4 11  1  0
  5 12  1  0
  5 13  1  0
  7 14  1  0
  7 15  1  0
  8 16  1  0
  8 17  1  0
  9 18  1  0
  9 19  1  0
M  END
