
     RDKit          3D

 21 20  0  0  0  0  0  0  0  0999 V2000
   -1.4397   -2.6636   -0.3949 O   0  0  0  0  0  0  0  0  0  0  0  0
   -1.4586   -1.4606   -0.4000 C   0  0  0  0  0  0  0  0  0  0  0  0
   -1.1473   -0.7361    0.8429 C   0  0  0  0  0  0  0  0  0  0  0  0
   -0.2077    0.4197    0.7000 C   0  0  0  0  0  0  0  0  0  0  0  0
   -0.7883    1.4359   -0.2393 C   0  0  0  0  0  0  0  0  0  0  0  0
   -2.0005    1.8502    0.3196 O   0  0  0  0  0  0  0  0  0  0  0  0
    1.2113    0.0856    0.4384 C   0  0  0  0  0  0  0  0  0  0  0  0
    1.5046   -0.6882   -0.7985 C   0  0  0  0  0  0  0  0  0  0  0  0
    2.9080   -0.8781   -0.8186 O   0  0  0  0  0  0  0  0  0  0  0  0
   -1.7001   -0.9414   -1.2995 H   0  0  0  0  0  0  0  0  0  0  0  0
   -0.8490   -1.4414    1.6484 H   0  0  0  0  0  0  0  0  0  0  0  0
   -2.1305   -0.3063    1.2028 H   0  0  0  0  0  0  0  0  0  0  0  0
   -0.2193    0.9339    1.7125 H   0  0  0  0  0  0  0  0  0  0  0  0
   -0.9041    1.0694   -1.2719 H   0  0  0  0  0  0  0  0  0  0  0  0
   -0.1171    2.3166   -0.2779 H   0  0  0  0  0  0  0  0  0  0  0  0
   -1.7532    2.5325    1.0169 H   0  0  0  0  0  0  0  0  0  0  0  0
    1.6494   -0.4263    1.3171 H   0  0  0  0  0  0  0  0  0  0  0  0
    1.7526    1.0710    0.3349 H   0  0  0  0  0  0  0  0  0  0  0  0
    1.0795   -1.7077   -0.8110 H   0  0  0  0  0  0  0  0  0  0  0  0
    1.2639   -0.1246   -1.7181 H   0  0  0  0  0  0  0  0  0  0  0  0
    3.3462   -0.3406   -1.5037 H   0  0  0  0  0  0  0  0  0  0  0  0
  1  2  2  0
  2  3  1  0
  3  4  1  0
  4  5  1  0
  5  6  1  0
  4  7  1  0
  7  8  1  0
  8  9  1  0
  2 10  1  0
  3 11  1  0
  3 12  1  0
  4 13  1  0
  5 14  1  0
  5 15  1  0
  6 16  1  0
  7 17  1  0
  7 18  1  0
  8 19  1  0
  8 20  1  0
  9 21  1  0
M  END
