
     RDKit          3D

 17 18  0  0  0  0  0  0  0  0999 V2000
   -1.4135   -2.0232    1.1254 O   0  0  0  0  0  0  0  0  0  0  0  0
   -0.5726   -1.8932    0.2638 C   0  0  0  0  0  0  0  0  0  0  0  0
   -0.3946   -0.6174   -0.4572 C   0  0  0  0  0  0  0  0  0  0  0  0
   -1.5336    0.3165   -0.2218 C   0  0  0  0  0  0  0  0  0  0  0  0
   -1.0051    1.4609    0.5866 C   0  0  0  0  0  0  0  0  0  0  0  0
    0.3063    1.3244    0.7457 C   0  0  0  0  0  0  0  0  0  0  0  0
    0.8052    0.1097    0.0849 C   0  0  0  0  0  0  0  0  0  0  0  0
    2.0980    0.1282   -0.5942 C   0  0  0  0  0  0  0  0  0  0  0  0
    1.8368   -0.6277    0.5902 O   0  0  0  0  0  0  0  0  0  0  0  0
    0.0691   -2.7208    0.0060 H   0  0  0  0  0  0  0  0  0  0  0  0
   -0.2022   -0.7961   -1.5522 H   0  0  0  0  0  0  0  0  0  0  0  0
   -2.3865   -0.1658    0.3171 H   0  0  0  0  0  0  0  0  0  0  0  0
   -1.8633    0.7090   -1.1889 H   0  0  0  0  0  0  0  0  0  0  0  0
   -1.6635    2.2420    0.9488 H   0  0  0  0  0  0  0  0  0  0  0  0
    0.9092    2.0334    1.2979 H   0  0  0  0  0  0  0  0  0  0  0  0
    2.8032    0.9414   -0.4158 H   0  0  0  0  0  0  0  0  0  0  0  0
    2.2069   -0.4213   -1.5362 H   0  0  0  0  0  0  0  0  0  0  0  0
  1  2  2  0
  2  3  1  0
  3  4  1  0
  4  5  1  0
  5  6  2  0
  6  7  1  0
  7  8  1  0
  8  9  1  0
  7  3  1  0
  9  7  1  0
  2 10  1  0
  3 11  1  0
  4 12  1  0
  4 13  1  0
  5 14  1  0
  6 15  1  0
  8 16  1  0
  8 17  1  0
M  END
