
     RDKit          3D

 17 18  0  0  0  0  0  0  0  0999 V2000
    3.1958    0.8232   -0.4254 O   0  0  0  0  0  0  0  0  0  0  0  0
    2.2125    0.7178    0.2540 C   0  0  0  0  0  0  0  0  0  0  0  0
    1.0841   -0.1221   -0.1679 C   0  0  0  0  0  0  0  0  0  0  0  0
    0.2133   -0.7759    0.8811 C   0  0  0  0  0  0  0  0  0  0  0  0
   -1.1975   -0.5659    0.4546 C   0  0  0  0  0  0  0  0  0  0  0  0
   -1.8879    0.1162    1.4388 O   0  0  0  0  0  0  0  0  0  0  0  0
   -1.1524    0.1226   -0.8613 C   0  0  0  0  0  0  0  0  0  0  0  0
    0.2631    0.2369   -1.2989 C   0  0  0  0  0  0  0  0  0  0  0  0
    1.1242   -0.8135   -1.3584 O   0  0  0  0  0  0  0  0  0  0  0  0
    2.1604    1.2500    1.1889 H   0  0  0  0  0  0  0  0  0  0  0  0
    0.4588   -0.3296    1.8661 H   0  0  0  0  0  0  0  0  0  0  0  0
    0.4253   -1.8795    0.9581 H   0  0  0  0  0  0  0  0  0  0  0  0
   -1.7150   -1.5536    0.3232 H   0  0  0  0  0  0  0  0  0  0  0  0
   -2.3432    0.9222    1.1445 H   0  0  0  0  0  0  0  0  0  0  0  0
   -1.7457   -0.3897   -1.6295 H   0  0  0  0  0  0  0  0  0  0  0  0
   -1.5734    1.1637   -0.7889 H   0  0  0  0  0  0  0  0  0  0  0  0
    0.4776    1.0770   -1.9793 H   0  0  0  0  0  0  0  0  0  0  0  0
  1  2  2  0
  2  3  1  0
  3  4  1  0
  4  5  1  0
  5  6  1  0
  5  7  1  0
  7  8  1  0
  8  9  1  0
  8  3  1  0
  9  3  1  0
  2 10  1  0
  4 11  1  0
  4 12  1  0
  5 13  1  0
  6 14  1  0
  7 15  1  0
  7 16  1  0
  8 17  1  0
M  END
