
     RDKit          3D

 17 18  0  0  0  0  0  0  0  0999 V2000
   -2.4463    0.1103    1.5531 O   0  0  0  0  0  0  0  0  0  0  0  0
   -1.8732    0.8286    0.7538 C   0  0  0  0  0  0  0  0  0  0  0  0
   -0.7386    0.2452   -0.0065 C   0  0  0  0  0  0  0  0  0  0  0  0
    0.2805    1.1376   -0.5501 C   0  0  0  0  0  0  0  0  0  0  0  0
    1.5641    0.8554   -0.3749 C   0  0  0  0  0  0  0  0  0  0  0  0
    1.9859   -0.3642    0.3711 C   0  0  0  0  0  0  0  0  0  0  0  0
    1.0815   -1.3643    0.0201 O   0  0  0  0  0  0  0  0  0  0  0  0
   -0.2124   -1.0659    0.3475 C   0  0  0  0  0  0  0  0  0  0  0  0
   -1.1523   -0.9801   -0.8506 C   0  0  0  0  0  0  0  0  0  0  0  0
   -2.1469    1.8587    0.5729 H   0  0  0  0  0  0  0  0  0  0  0  0
   -0.0131    2.0506   -1.1088 H   0  0  0  0  0  0  0  0  0  0  0  0
    2.3114    1.5136   -0.7755 H   0  0  0  0  0  0  0  0  0  0  0  0
    1.9687   -0.2301    1.4533 H   0  0  0  0  0  0  0  0  0  0  0  0
    2.9740   -0.6768   -0.0355 H   0  0  0  0  0  0  0  0  0  0  0  0
   -0.6777   -1.5689    1.2442 H   0  0  0  0  0  0  0  0  0  0  0  0
   -0.7258   -0.9915   -1.8648 H   0  0  0  0  0  0  0  0  0  0  0  0
   -2.1798   -1.3584   -0.7494 H   0  0  0  0  0  0  0  0  0  0  0  0
  1  2  2  0
  2  3  1  0
  3  4  1  0
  4  5  2  0
  5  6  1  0
  6  7  1  0
  7  8  1  0
  8  9  1  0
  8  3  1  0
  9  3  1  0
  2 10  1  0
  4 11  1  0
  5 12  1  0
  6 13  1  0
  6 14  1  0
  8 15  1  0
  9 16  1  0
  9 17  1  0
M  END
