
     RDKit          3D

 19 18  0  0  0  0  0  0  0  0999 V2000
    3.9545    0.7935   -0.8072 O   0  0  0  0  0  0  0  0  0  0  0  0
    3.3130   -0.0348   -0.1784 C   0  0  0  0  0  0  0  0  0  0  0  0
    1.8832    0.3068    0.0945 C   0  0  0  0  0  0  0  0  0  0  0  0
    1.2493   -0.6821    0.8037 O   0  0  0  0  0  0  0  0  0  0  0  0
   -0.0537   -0.3575    1.0517 C   0  0  0  0  0  0  0  0  0  0  0  0
   -0.9118   -0.1334   -0.1682 C   0  0  0  0  0  0  0  0  0  0  0  0
   -0.9325   -1.3111   -0.9509 O   0  0  0  0  0  0  0  0  0  0  0  0
   -2.3475    0.0098    0.3662 C   0  0  0  0  0  0  0  0  0  0  0  0
   -2.3907    1.1716    1.1577 O   0  0  0  0  0  0  0  0  0  0  0  0
    3.7915   -0.9371    0.1368 H   0  0  0  0  0  0  0  0  0  0  0  0
    1.8993    1.2957    0.6111 H   0  0  0  0  0  0  0  0  0  0  0  0
    1.3546    0.4409   -0.8831 H   0  0  0  0  0  0  0  0  0  0  0  0
   -0.5924   -1.1312    1.6655 H   0  0  0  0  0  0  0  0  0  0  0  0
   -0.1578    0.5827    1.6695 H   0  0  0  0  0  0  0  0  0  0  0  0
   -0.6477    0.7397   -0.7645 H   0  0  0  0  0  0  0  0  0  0  0  0
   -1.5043   -1.9463   -0.4583 H   0  0  0  0  0  0  0  0  0  0  0  0
   -3.0523    0.0611   -0.4739 H   0  0  0  0  0  0  0  0  0  0  0  0
   -2.5728   -0.8492    1.0259 H   0  0  0  0  0  0  0  0  0  0  0  0
   -2.2818    1.9809    0.5672 H   0  0  0  0  0  0  0  0  0  0  0  0
  1  2  2  0
  2  3  1  0
  3  4  1  0
  4  5  1  0
  5  6  1  0
  6  7  1  0
  6  8  1  0
  8  9  1  0
  2 10  1  0
  3 11  1  0
  3 12  1  0
  5 13  1  0
  5 14  1  0
  6 15  1  0
  7 16  1  0
  8 17  1  0
  8 18  1  0
  9 19  1  0
M  END
