
     RDKit          3D

 19 19  0  0  0  0  0  0  0  0999 V2000
    3.6765   -0.1569   -0.4794 O   0  0  0  0  0  0  0  0  0  0  0  0
    2.5356   -0.5262   -0.3156 C   0  0  0  0  0  0  0  0  0  0  0  0
    1.5656    0.3911    0.2866 C   0  0  0  0  0  0  0  0  0  0  0  0
    0.2281   -0.2813    0.3887 C   0  0  0  0  0  0  0  0  0  0  0  0
   -0.3282   -0.7103   -0.9317 C   0  0  0  0  0  0  0  0  0  0  0  0
   -1.7876   -0.8815   -0.5687 C   0  0  0  0  0  0  0  0  0  0  0  0
   -2.0801   -0.0633    0.4315 C   0  0  0  0  0  0  0  0  0  0  0  0
   -0.8656    0.7024    0.8076 C   0  0  0  0  0  0  0  0  0  0  0  0
   -0.7862    1.7928   -0.0474 O   0  0  0  0  0  0  0  0  0  0  0  0
    2.2596   -1.5207   -0.6162 H   0  0  0  0  0  0  0  0  0  0  0  0
    1.4800    1.3701   -0.2113 H   0  0  0  0  0  0  0  0  0  0  0  0
    1.9011    0.5986    1.3366 H   0  0  0  0  0  0  0  0  0  0  0  0
    0.2339   -1.1140    1.1015 H   0  0  0  0  0  0  0  0  0  0  0  0
   -0.2810    0.1598   -1.6309 H   0  0  0  0  0  0  0  0  0  0  0  0
    0.0963   -1.6256   -1.3385 H   0  0  0  0  0  0  0  0  0  0  0  0
   -2.4679   -1.5677   -1.0592 H   0  0  0  0  0  0  0  0  0  0  0  0
   -3.0375    0.0447    0.9094 H   0  0  0  0  0  0  0  0  0  0  0  0
   -0.8138    0.9581    1.8693 H   0  0  0  0  0  0  0  0  0  0  0  0
   -1.5290    2.4297    0.0676 H   0  0  0  0  0  0  0  0  0  0  0  0
  1  2  2  0
  2  3  1  0
  3  4  1  0
  4  5  1  0
  5  6  1  0
  6  7  2  0
  7  8  1  0
  8  9  1  0
  8  4  1  0
  2 10  1  0
  3 11  1  0
  3 12  1  0
  4 13  1  0
  5 14  1  0
  5 15  1  0
  6 16  1  0
  7 17  1  0
  8 18  1  0
  9 19  1  0
M  END
