
     RDKit          3D

 17 18  0  0  0  0  0  0  0  0999 V2000
    3.2031    0.1949   -0.3293 O   0  0  0  0  0  0  0  0  0  0  0  0
    2.3012   -0.5953   -0.1534 C   0  0  0  0  0  0  0  0  0  0  0  0
    0.9169   -0.3067   -0.5163 C   0  0  0  0  0  0  0  0  0  0  0  0
    0.4445    1.0918   -0.1994 C   0  0  0  0  0  0  0  0  0  0  0  0
   -0.9085    1.3197   -0.7761 C   0  0  0  0  0  0  0  0  0  0  0  0
   -1.8915    0.5495   -0.3246 C   0  0  0  0  0  0  0  0  0  0  0  0
   -1.4444   -0.7949    0.1724 C   0  0  0  0  0  0  0  0  0  0  0  0
   -0.0165   -0.6241    0.6419 C   0  0  0  0  0  0  0  0  0  0  0  0
    0.2384    0.6549    1.1222 O   0  0  0  0  0  0  0  0  0  0  0  0
    2.5779   -1.5508    0.2976 H   0  0  0  0  0  0  0  0  0  0  0  0
    0.6027   -0.6990   -1.4932 H   0  0  0  0  0  0  0  0  0  0  0  0
    1.1678    1.8940   -0.3078 H   0  0  0  0  0  0  0  0  0  0  0  0
   -1.0517    2.0927   -1.5340 H   0  0  0  0  0  0  0  0  0  0  0  0
   -2.9347    0.8445   -0.3063 H   0  0  0  0  0  0  0  0  0  0  0  0
   -2.0548   -1.0889    1.0268 H   0  0  0  0  0  0  0  0  0  0  0  0
   -1.5175   -1.5275   -0.6600 H   0  0  0  0  0  0  0  0  0  0  0  0
    0.3670   -1.4547    1.2777 H   0  0  0  0  0  0  0  0  0  0  0  0
  1  2  2  0
  2  3  1  0
  3  4  1  0
  4  5  1  0
  5  6  2  0
  6  7  1  0
  7  8  1  0
  8  9  1  0
  8  3  1  0
  9  4  1  0
  2 10  1  0
  3 11  1  0
  4 12  1  0
  5 13  1  0
  6 14  1  0
  7 15  1  0
  7 16  1  0
  8 17  1  0
M  END
