
     RDKit          3D

 17 18  0  0  0  0  0  0  0  0999 V2000
    2.5940   -0.7023   -0.2581 O   0  0  0  0  0  0  0  0  0  0  0  0
    2.2890    0.4402    0.0122 C   0  0  0  0  0  0  0  0  0  0  0  0
    0.9211    1.0010   -0.2527 C   0  0  0  0  0  0  0  0  0  0  0  0
    0.1205   -0.1051   -0.8719 C   0  0  0  0  0  0  0  0  0  0  0  0
    0.0078   -1.2351   -0.0139 C   0  0  0  0  0  0  0  0  0  0  0  0
   -1.2381   -0.5409   -0.2576 C   0  0  0  0  0  0  0  0  0  0  0  0
   -2.0509   -1.3900   -1.0735 O   0  0  0  0  0  0  0  0  0  0  0  0
   -1.4594    0.8525   -0.7866 C   0  0  0  0  0  0  0  0  0  0  0  0
   -0.7018    0.3427   -1.8736 O   0  0  0  0  0  0  0  0  0  0  0  0
    3.0464    1.0649    0.4617 H   0  0  0  0  0  0  0  0  0  0  0  0
    1.0644    1.8780   -0.8827 H   0  0  0  0  0  0  0  0  0  0  0  0
    0.5720    1.2618    0.7941 H   0  0  0  0  0  0  0  0  0  0  0  0
    0.3238   -1.2292    1.0730 H   0  0  0  0  0  0  0  0  0  0  0  0
    0.3133   -2.2271   -0.4508 H   0  0  0  0  0  0  0  0  0  0  0  0
   -2.2365   -2.1788   -0.5124 H   0  0  0  0  0  0  0  0  0  0  0  0
   -1.0503    1.7016   -0.2721 H   0  0  0  0  0  0  0  0  0  0  0  0
   -2.5152    1.0658   -1.0334 H   0  0  0  0  0  0  0  0  0  0  0  0
  1  2  2  0
  2  3  1  0
  3  4  1  0
  4  5  1  0
  5  6  1  0
  6  7  1  0
  6  8  1  0
  8  9  1  0
  6  4  1  0
  9  4  1  0
  2 10  1  0
  3 11  1  0
  3 12  1  0
  5 13  1  0
  5 14  1  0
  7 15  1  0
  8 16  1  0
  8 17  1  0
M  END
