
     RDKit          3D

 17 17  0  0  0  0  0  0  0  0999 V2000
    2.2352    1.3795   -0.5937 O   0  0  0  0  0  0  0  0  0  0  0  0
    2.2002    0.1867   -0.4517 C   0  0  0  0  0  0  0  0  0  0  0  0
    1.0458   -0.5874    0.0478 C   0  0  0  0  0  0  0  0  0  0  0  0
   -0.1375    0.2480    0.3832 C   0  0  0  0  0  0  0  0  0  0  0  0
    0.0455    1.2143    1.3619 O   0  0  0  0  0  0  0  0  0  0  0  0
   -1.3239   -0.6352    0.7451 C   0  0  0  0  0  0  0  0  0  0  0  0
   -1.7302   -0.5454   -0.7011 C   0  0  0  0  0  0  0  0  0  0  0  0
   -2.3753   -1.2045   -1.4819 O   0  0  0  0  0  0  0  0  0  0  0  0
   -0.9783    0.7356   -0.7597 C   0  0  0  0  0  0  0  0  0  0  0  0
    3.0946   -0.3739   -0.7129 H   0  0  0  0  0  0  0  0  0  0  0  0
    1.3603   -1.1234    0.9789 H   0  0  0  0  0  0  0  0  0  0  0  0
    0.7688   -1.3457   -0.6834 H   0  0  0  0  0  0  0  0  0  0  0  0
    0.9795    1.4163    1.5605 H   0  0  0  0  0  0  0  0  0  0  0  0
   -2.0636   -0.1583    1.4189 H   0  0  0  0  0  0  0  0  0  0  0  0
   -1.0311   -1.6772    1.0308 H   0  0  0  0  0  0  0  0  0  0  0  0
   -1.6222    1.5772   -0.4238 H   0  0  0  0  0  0  0  0  0  0  0  0
   -0.4680    0.8931   -1.7190 H   0  0  0  0  0  0  0  0  0  0  0  0
  1  2  2  0
  2  3  1  0
  3  4  1  0
  4  5  1  0
  4  6  1  0
  6  7  1  0
  7  8  2  0
  7  9  1  0
  9  4  1  0
  2 10  1  0
  3 11  1  0
  3 12  1  0
  5 13  1  0
  6 14  1  0
  6 15  1  0
  9 16  1  0
  9 17  1  0
M  END
