
     RDKit          3D

 19 18  0  0  0  0  0  0  0  0999 V2000
   -4.2228    1.0953    0.2381 O   0  0  0  0  0  0  0  0  0  0  0  0
   -3.1701    0.6634    0.6657 C   0  0  0  0  0  0  0  0  0  0  0  0
   -2.2561   -0.1171   -0.1982 C   0  0  0  0  0  0  0  0  0  0  0  0
   -1.0475   -0.5673    0.5299 C   0  0  0  0  0  0  0  0  0  0  0  0
   -1.0424   -1.5824    1.2029 O   0  0  0  0  0  0  0  0  0  0  0  0
    0.2403    0.2064    0.4803 C   0  0  0  0  0  0  0  0  0  0  0  0
    1.2985   -0.7543    0.0269 C   0  0  0  0  0  0  0  0  0  0  0  0
    2.6616   -0.1083   -0.0678 C   0  0  0  0  0  0  0  0  0  0  0  0
    2.7159    0.9514   -0.9329 O   0  0  0  0  0  0  0  0  0  0  0  0
   -2.9060    0.8601    1.6971 H   0  0  0  0  0  0  0  0  0  0  0  0
   -1.9800    0.5081   -1.0965 H   0  0  0  0  0  0  0  0  0  0  0  0
   -2.7551   -1.0638   -0.5486 H   0  0  0  0  0  0  0  0  0  0  0  0
    0.4128    0.5194    1.5564 H   0  0  0  0  0  0  0  0  0  0  0  0
    0.1562    1.1333   -0.0830 H   0  0  0  0  0  0  0  0  0  0  0  0
    1.0375   -1.2346   -0.9389 H   0  0  0  0  0  0  0  0  0  0  0  0
    1.3611   -1.5747    0.7651 H   0  0  0  0  0  0  0  0  0  0  0  0
    3.3728   -0.9087   -0.4430 H   0  0  0  0  0  0  0  0  0  0  0  0
    3.0315    0.2069    0.9262 H   0  0  0  0  0  0  0  0  0  0  0  0
    3.0917    1.7671   -0.4671 H   0  0  0  0  0  0  0  0  0  0  0  0
  1  2  2  0
  2  3  1  0
  3  4  1  0
  4  5  2  0
  4  6  1  0
  6  7  1  0
  7  8  1  0
  8  9  1  0
  2 10  1  0
  3 11  1  0
  3 12  1  0
  6 13  1  0
  6 14  1  0
  7 15  1  0
  7 16  1  0
  8 17  1  0
  8 18  1  0
  9 19  1  0
M  END
