
     RDKit          3D

 18 19  0  0  0  0  0  0  0  0999 V2000
    2.7031   -0.6402   -1.0475 O   0  0  0  0  0  0  0  0  0  0  0  0
    2.1128    0.0140   -0.2047 C   0  0  0  0  0  0  0  0  0  0  0  0
    0.7017   -0.0202   -0.0751 C   0  0  0  0  0  0  0  0  0  0  0  0
   -0.1035   -1.1783   -0.5517 C   0  0  0  0  0  0  0  0  0  0  0  0
   -1.5154   -0.6553   -0.2114 C   0  0  0  0  0  0  0  0  0  0  0  0
   -1.1376    0.6477    0.4315 C   0  0  0  0  0  0  0  0  0  0  0  0
   -0.1096    1.1952   -0.5482 C   0  0  0  0  0  0  0  0  0  0  0  0
    0.0742    0.2675    1.2858 C   0  0  0  0  0  0  0  0  0  0  0  0
    2.7275    0.6275    0.4448 H   0  0  0  0  0  0  0  0  0  0  0  0
   -0.0056   -1.3897   -1.6265 H   0  0  0  0  0  0  0  0  0  0  0  0
    0.1127   -2.0873    0.0611 H   0  0  0  0  0  0  0  0  0  0  0  0
   -2.0200   -1.3254    0.4947 H   0  0  0  0  0  0  0  0  0  0  0  0
   -2.0354   -0.5207   -1.1723 H   0  0  0  0  0  0  0  0  0  0  0  0
   -1.8621    1.2925    0.8375 H   0  0  0  0  0  0  0  0  0  0  0  0
   -0.3862    1.1280   -1.5979 H   0  0  0  0  0  0  0  0  0  0  0  0
    0.3769    2.1399   -0.2133 H   0  0  0  0  0  0  0  0  0  0  0  0
   -0.1684   -0.6179    1.8820 H   0  0  0  0  0  0  0  0  0  0  0  0
    0.5349    1.1226    1.8110 H   0  0  0  0  0  0  0  0  0  0  0  0
  1  2  2  0
  2  3  1  0
  3  4  1  0
  4  5  1  0
  5  6  1  0
  6  7  1  0
  6  8  1  0
  7  3  1  0
  8  3  1  0
  2  9  1  0
  4 10  1  0
  4 11  1  0
  5 12  1  0
  5 13  1  0
  6 14  1  0
  7 15  1  0
  7 16  1  0
  8 17  1  0
  8 18  1  0
M  END
