
     RDKit          3D

 17 18  0  0  0  0  0  0  0  0999 V2000
    3.5511   -0.0225   -0.7438 O   0  0  0  0  0  0  0  0  0  0  0  0
    2.4967    0.1732   -0.1638 C   0  0  0  0  0  0  0  0  0  0  0  0
    1.4836   -0.8909    0.0316 C   0  0  0  0  0  0  0  0  0  0  0  0
    0.3164   -0.2975    0.7826 C   0  0  0  0  0  0  0  0  0  0  0  0
   -0.7751   -1.1277    1.0845 O   0  0  0  0  0  0  0  0  0  0  0  0
   -0.8992   -0.0782    0.2232 C   0  0  0  0  0  0  0  0  0  0  0  0
   -1.7734    1.0933    0.4853 C   0  0  0  0  0  0  0  0  0  0  0  0
   -2.1705    1.0196   -0.8698 O   0  0  0  0  0  0  0  0  0  0  0  0
   -1.4485   -0.1652   -1.1313 C   0  0  0  0  0  0  0  0  0  0  0  0
    2.3139    1.1672    0.2142 H   0  0  0  0  0  0  0  0  0  0  0  0
    1.8967   -1.7048    0.6775 H   0  0  0  0  0  0  0  0  0  0  0  0
    1.1063   -1.3051   -0.9223 H   0  0  0  0  0  0  0  0  0  0  0  0
    0.6593    0.2551    1.7078 H   0  0  0  0  0  0  0  0  0  0  0  0
   -1.2437    2.0508    0.7199 H   0  0  0  0  0  0  0  0  0  0  0  0
   -2.6091    0.9614    1.1870 H   0  0  0  0  0  0  0  0  0  0  0  0
   -2.1206   -1.0578   -1.2847 H   0  0  0  0  0  0  0  0  0  0  0  0
   -0.7840   -0.0708   -1.9978 H   0  0  0  0  0  0  0  0  0  0  0  0
  1  2  2  0
  2  3  1  0
  3  4  1  0
  4  5  1  0
  5  6  1  0
  6  7  1  0
  7  8  1  0
  8  9  1  0
  6  4  1  0
  9  6  1  0
  2 10  1  0
  3 11  1  0
  3 12  1  0
  4 13  1  0
  7 14  1  0
  7 15  1  0
  9 16  1  0
  9 17  1  0
M  END
