
     RDKit          3D

 17 19  0  0  0  0  0  0  0  0999 V2000
    3.1500    0.8940   -0.6951 O   0  0  0  0  0  0  0  0  0  0  0  0
    2.2903    0.0621   -0.8851 C   0  0  0  0  0  0  0  0  0  0  0  0
    0.9653    0.2137   -0.3089 C   0  0  0  0  0  0  0  0  0  0  0  0
    0.6783    1.3150    0.4636 O   0  0  0  0  0  0  0  0  0  0  0  0
   -0.6663    1.4398    0.6330 C   0  0  0  0  0  0  0  0  0  0  0  0
   -1.3287    0.2038    0.0192 C   0  0  0  0  0  0  0  0  0  0  0  0
   -0.9956   -0.9930    0.8910 C   0  0  0  0  0  0  0  0  0  0  0  0
    0.3152   -1.0962    0.1468 C   0  0  0  0  0  0  0  0  0  0  0  0
   -0.2740   -0.2021   -0.9460 C   0  0  0  0  0  0  0  0  0  0  0  0
    2.5353   -0.7914   -1.4920 H   0  0  0  0  0  0  0  0  0  0  0  0
   -1.0059    1.4397    1.6949 H   0  0  0  0  0  0  0  0  0  0  0  0
   -1.0855    2.3715    0.1849 H   0  0  0  0  0  0  0  0  0  0  0  0
   -2.3471    0.3147   -0.3075 H   0  0  0  0  0  0  0  0  0  0  0  0
   -0.8090   -0.7203    1.9630 H   0  0  0  0  0  0  0  0  0  0  0  0
   -1.6709   -1.8450    0.8058 H   0  0  0  0  0  0  0  0  0  0  0  0
    0.6828   -2.0438   -0.2326 H   0  0  0  0  0  0  0  0  0  0  0  0
   -0.4344   -0.5626   -1.9351 H   0  0  0  0  0  0  0  0  0  0  0  0
  1  2  2  0
  2  3  1  0
  3  4  1  0
  4  5  1  0
  5  6  1  0
  6  7  1  0
  7  8  1  0
  8  9  1  0
  8  3  1  0
  9  3  1  0
  9  6  1  0
  2 10  1  0
  5 11  1  0
  5 12  1  0
  6 13  1  0
  7 14  1  0
  7 15  1  0
  8 16  1  0
  9 17  1  0
M  END
