
     RDKit          3D

 19 20  0  0  0  0  0  0  0  0999 V2000
    2.9441   -0.8299   -1.0622 O   0  0  0  0  0  0  0  0  0  0  0  0
    2.5863    0.0549   -0.3126 C   0  0  0  0  0  0  0  0  0  0  0  0
    1.2436   -0.0581    0.3178 C   0  0  0  0  0  0  0  0  0  0  0  0
    0.3639    1.1139   -0.0920 C   0  0  0  0  0  0  0  0  0  0  0  0
   -1.0645    0.7797    0.1995 C   0  0  0  0  0  0  0  0  0  0  0  0
   -1.4737   -0.3178   -0.7927 C   0  0  0  0  0  0  0  0  0  0  0  0
   -0.7249   -1.2694    0.1546 C   0  0  0  0  0  0  0  0  0  0  0  0
   -1.1709   -0.3183    1.2667 C   0  0  0  0  0  0  0  0  0  0  0  0
    0.6214   -1.2073   -0.0876 O   0  0  0  0  0  0  0  0  0  0  0  0
    3.2525    0.8933   -0.1278 H   0  0  0  0  0  0  0  0  0  0  0  0
    1.4290   -0.0443    1.4281 H   0  0  0  0  0  0  0  0  0  0  0  0
    0.7058    2.0615    0.3477 H   0  0  0  0  0  0  0  0  0  0  0  0
    0.4691    1.1981   -1.2032 H   0  0  0  0  0  0  0  0  0  0  0  0
   -1.7709    1.5934    0.3029 H   0  0  0  0  0  0  0  0  0  0  0  0
   -2.5487   -0.4855   -0.7547 H   0  0  0  0  0  0  0  0  0  0  0  0
   -0.9989   -0.1802   -1.7681 H   0  0  0  0  0  0  0  0  0  0  0  0
   -1.1529   -2.2677    0.1983 H   0  0  0  0  0  0  0  0  0  0  0  0
   -2.2227   -0.4968    1.4960 H   0  0  0  0  0  0  0  0  0  0  0  0
   -0.4875   -0.2195    2.1040 H   0  0  0  0  0  0  0  0  0  0  0  0
  1  2  2  0
  2  3  1  0
  3  4  1  0
  4  5  1  0
  5  6  1  0
  6  7  1  0
  7  8  1  0
  7  9  1  0
  9  3  1  0
  8  5  1  0
  2 10  1  0
  3 11  1  0
  4 12  1  0
  4 13  1  0
  5 14  1  0
  6 15  1  0
  6 16  1  0
  7 17  1  0
  8 18  1  0
  8 19  1  0
M  END
