
     RDKit          3D

 17 18  0  0  0  0  0  0  0  0999 V2000
    2.4088    1.1908    0.9589 O   0  0  0  0  0  0  0  0  0  0  0  0
    1.4125    1.6456    0.4220 C   0  0  0  0  0  0  0  0  0  0  0  0
    0.4641    0.6916   -0.1810 C   0  0  0  0  0  0  0  0  0  0  0  0
    1.1586   -0.5470   -0.8140 C   0  0  0  0  0  0  0  0  0  0  0  0
    0.2620   -0.6668    0.3535 C   0  0  0  0  0  0  0  0  0  0  0  0
    0.7720   -0.9831    1.6012 O   0  0  0  0  0  0  0  0  0  0  0  0
   -1.1726   -0.9829    0.0696 C   0  0  0  0  0  0  0  0  0  0  0  0
   -1.6810    0.2215   -0.6426 C   0  0  0  0  0  0  0  0  0  0  0  0
   -0.6734    1.1321   -0.7993 O   0  0  0  0  0  0  0  0  0  0  0  0
    1.3012    2.7173    0.4297 H   0  0  0  0  0  0  0  0  0  0  0  0
    2.2280   -0.6779   -0.6212 H   0  0  0  0  0  0  0  0  0  0  0  0
    0.8065   -0.7723   -1.8374 H   0  0  0  0  0  0  0  0  0  0  0  0
    0.2881   -0.3940    2.2629 H   0  0  0  0  0  0  0  0  0  0  0  0
   -1.7525   -1.1999    1.0111 H   0  0  0  0  0  0  0  0  0  0  0  0
   -1.1981   -1.9182   -0.5510 H   0  0  0  0  0  0  0  0  0  0  0  0
   -2.5112    0.6582   -0.0405 H   0  0  0  0  0  0  0  0  0  0  0  0
   -2.1130   -0.1151   -1.6221 H   0  0  0  0  0  0  0  0  0  0  0  0
  1  2  2  0
  2  3  1  0
  3  4  1  0
  4  5  1  0
  5  6  1  0
  5  7  1  0
  7  8  1  0
  8  9  1  0
  5  3  1  0
  9  3  1  0
  2 10  1  0
  4 11  1  0
  4 12  1  0
  6 13  1  0
  7 14  1  0
  7 15  1  0
  8 16  1  0
  8 17  1  0
M  END
