
     RDKit          3D

 15 15  0  0  0  0  0  0  0  0999 V2000
    1.6129    1.5034    0.3347 O   0  0  0  0  0  0  0  0  0  0  0  0
    2.1730    0.4334    0.1302 C   0  0  0  0  0  0  0  0  0  0  0  0
    1.4617   -0.8706    0.2080 C   0  0  0  0  0  0  0  0  0  0  0  0
    0.1409   -0.7549    0.5258 O   0  0  0  0  0  0  0  0  0  0  0  0
   -0.6289   -0.0274   -0.3306 C   0  0  0  0  0  0  0  0  0  0  0  0
   -1.5244    0.9367    0.4398 C   0  0  0  0  0  0  0  0  0  0  0  0
   -2.4978    0.6693   -0.5342 O   0  0  0  0  0  0  0  0  0  0  0  0
   -1.9653   -0.6064   -0.6717 C   0  0  0  0  0  0  0  0  0  0  0  0
   -2.4285   -1.7417   -0.9596 O   0  0  0  0  0  0  0  0  0  0  0  0
    3.2275    0.4921   -0.1132 H   0  0  0  0  0  0  0  0  0  0  0  0
    1.5681   -1.4328   -0.7316 H   0  0  0  0  0  0  0  0  0  0  0  0
    1.9620   -1.4535    1.0106 H   0  0  0  0  0  0  0  0  0  0  0  0
   -0.1380    0.4178   -1.2189 H   0  0  0  0  0  0  0  0  0  0  0  0
   -1.8162    0.4663    1.4106 H   0  0  0  0  0  0  0  0  0  0  0  0
   -1.1473    1.9684    0.5001 H   0  0  0  0  0  0  0  0  0  0  0  0
  1  2  2  0
  2  3  1  0
  3  4  1  0
  4  5  1  0
  5  6  1  0
  6  7  1  0
  7  8  1  0
  8  9  2  0
  8  5  1  0
  2 10  1  0
  3 11  1  0
  3 12  1  0
  5 13  1  0
  6 14  1  0
  6 15  1  0
M  END
