
     RDKit          3D

 19 20  0  0  0  0  0  0  0  0999 V2000
    3.8787   -0.6794   -0.1898 O   0  0  0  0  0  0  0  0  0  0  0  0
    2.8105   -0.2482   -0.4972 C   0  0  0  0  0  0  0  0  0  0  0  0
    1.6689   -0.3172    0.4484 C   0  0  0  0  0  0  0  0  0  0  0  0
    0.3976   -0.7455   -0.0588 C   0  0  0  0  0  0  0  0  0  0  0  0
   -0.8902   -1.0676    0.5739 C   0  0  0  0  0  0  0  0  0  0  0  0
   -1.8752   -0.0500   -0.0266 C   0  0  0  0  0  0  0  0  0  0  0  0
   -1.3577    1.3224   -0.1467 C   0  0  0  0  0  0  0  0  0  0  0  0
    0.0264    1.4477   -0.4133 O   0  0  0  0  0  0  0  0  0  0  0  0
    0.6656    0.6985    0.5010 C   0  0  0  0  0  0  0  0  0  0  0  0
    2.6641    0.1996   -1.4742 H   0  0  0  0  0  0  0  0  0  0  0  0
    1.9683   -0.8058    1.4191 H   0  0  0  0  0  0  0  0  0  0  0  0
    0.3277   -0.8472   -1.1720 H   0  0  0  0  0  0  0  0  0  0  0  0
   -1.2018   -2.0807    0.3079 H   0  0  0  0  0  0  0  0  0  0  0  0
   -0.8624   -0.9431    1.6875 H   0  0  0  0  0  0  0  0  0  0  0  0
   -2.7362   -0.0382    0.7022 H   0  0  0  0  0  0  0  0  0  0  0  0
   -2.2636   -0.4933   -0.9830 H   0  0  0  0  0  0  0  0  0  0  0  0
   -1.5256    1.8658    0.8168 H   0  0  0  0  0  0  0  0  0  0  0  0
   -1.9545    1.8608   -0.9068 H   0  0  0  0  0  0  0  0  0  0  0  0
    0.2596    0.9214    1.5328 H   0  0  0  0  0  0  0  0  0  0  0  0
  1  2  2  0
  2  3  1  0
  3  4  1  0
  4  5  1  0
  5  6  1  0
  6  7  1  0
  7  8  1  0
  8  9  1  0
  9  3  1  0
  9  4  1  0
  2 10  1  0
  3 11  1  0
  4 12  1  0
  5 13  1  0
  5 14  1  0
  6 15  1  0
  6 16  1  0
  7 17  1  0
  7 18  1  0
  9 19  1  0
M  END
