
     RDKit          3D

 21 22  0  0  0  0  0  0  0  0999 V2000
   -1.4796    1.7425   -1.8173 O   0  0  0  0  0  0  0  0  0  0  0  0
   -1.2803    0.5510   -1.5398 C   0  0  0  0  0  0  0  0  0  0  0  0
   -0.9130    0.1732   -0.1846 C   0  0  0  0  0  0  0  0  0  0  0  0
    0.3759   -0.6488   -0.1610 C   0  0  0  0  0  0  0  0  0  0  0  0
    1.4654   -0.1988   -1.0811 C   0  0  0  0  0  0  0  0  0  0  0  0
    2.3249    0.2485    0.0652 C   0  0  0  0  0  0  0  0  0  0  0  0
    1.2505   -0.1709    1.0231 C   0  0  0  0  0  0  0  0  0  0  0  0
   -2.0139   -0.6579    0.5067 C   0  0  0  0  0  0  0  0  0  0  0  0
   -1.6314    0.6753    0.9802 C   0  0  0  0  0  0  0  0  0  0  0  0
   -1.4195   -0.1566   -2.3914 H   0  0  0  0  0  0  0  0  0  0  0  0
    0.1830   -1.7088   -0.2034 H   0  0  0  0  0  0  0  0  0  0  0  0
    1.2404    0.5496   -1.8498 H   0  0  0  0  0  0  0  0  0  0  0  0
    1.9628   -1.0653   -1.6250 H   0  0  0  0  0  0  0  0  0  0  0  0
    3.2932   -0.2866    0.1447 H   0  0  0  0  0  0  0  0  0  0  0  0
    2.5325    1.3393   -0.0161 H   0  0  0  0  0  0  0  0  0  0  0  0
    0.7509    0.7105    1.5287 H   0  0  0  0  0  0  0  0  0  0  0  0
    1.5303   -0.9713    1.7054 H   0  0  0  0  0  0  0  0  0  0  0  0
   -2.9464   -0.8466   -0.0312 H   0  0  0  0  0  0  0  0  0  0  0  0
   -1.6617   -1.5101    1.0938 H   0  0  0  0  0  0  0  0  0  0  0  0
   -1.1510    0.7680    2.0045 H   0  0  0  0  0  0  0  0  0  0  0  0
   -2.4130    1.4638    0.8787 H   0  0  0  0  0  0  0  0  0  0  0  0
  1  2  2  0
  2  3  1  0
  3  4  1  0
  4  5  1  0
  5  6  1  0
  6  7  1  0
  3  8  1  0
  8  9  1  0
  9  3  1  0
  7  4  1  0
  2 10  1  0
  4 11  1  0
  5 12  1  0
  5 13  1  0
  6 14  1  0
  6 15  1  0
  7 16  1  0
  7 17  1  0
  8 18  1  0
  8 19  1  0
  9 20  1  0
  9 21  1  0
M  END
