
     RDKit          3D

 21 21  0  0  0  0  0  0  0  0999 V2000
    3.1147    0.8629   -1.3100 O   0  0  0  0  0  0  0  0  0  0  0  0
    2.6544    0.4049   -0.2680 C   0  0  0  0  0  0  0  0  0  0  0  0
    1.5323   -0.5417   -0.2811 C   0  0  0  0  0  0  0  0  0  0  0  0
    0.4929   -0.2979    0.7810 C   0  0  0  0  0  0  0  0  0  0  0  0
   -0.5660   -1.3499    0.6300 C   0  0  0  0  0  0  0  0  0  0  0  0
   -1.7697   -0.7150   -0.0029 C   0  0  0  0  0  0  0  0  0  0  0  0
   -1.4957    0.7508   -0.1254 C   0  0  0  0  0  0  0  0  0  0  0  0
   -1.3173    1.1203   -1.4583 O   0  0  0  0  0  0  0  0  0  0  0  0
   -0.2236    0.9987    0.6373 C   0  0  0  0  0  0  0  0  0  0  0  0
    3.0809    0.7016    0.6841 H   0  0  0  0  0  0  0  0  0  0  0  0
    1.0755   -0.6259   -1.3070 H   0  0  0  0  0  0  0  0  0  0  0  0
    1.9504   -1.5508   -0.0757 H   0  0  0  0  0  0  0  0  0  0  0  0
    1.0105   -0.3455    1.7561 H   0  0  0  0  0  0  0  0  0  0  0  0
   -0.2402   -2.1761   -0.0485 H   0  0  0  0  0  0  0  0  0  0  0  0
   -0.7872   -1.7487    1.6614 H   0  0  0  0  0  0  0  0  0  0  0  0
   -2.6344   -0.8875    0.6955 H   0  0  0  0  0  0  0  0  0  0  0  0
   -2.0476   -1.1936   -0.9788 H   0  0  0  0  0  0  0  0  0  0  0  0
   -2.3506    1.3389    0.2950 H   0  0  0  0  0  0  0  0  0  0  0  0
   -1.3343    2.1050   -1.5108 H   0  0  0  0  0  0  0  0  0  0  0  0
   -0.5080    1.3422    1.6659 H   0  0  0  0  0  0  0  0  0  0  0  0
    0.3631    1.8074    0.1833 H   0  0  0  0  0  0  0  0  0  0  0  0
  1  2  2  0
  2  3  1  0
  3  4  1  0
  4  5  1  0
  5  6  1  0
  6  7  1  0
  7  8  1  0
  7  9  1  0
  9  4  1  0
  2 10  1  0
  3 11  1  0
  3 12  1  0
  4 13  1  0
  5 14  1  0
  5 15  1  0
  6 16  1  0
  6 17  1  0
  7 18  1  0
  8 19  1  0
  9 20  1  0
  9 21  1  0
M  END
