
     RDKit          3D

 19 19  0  0  0  0  0  0  0  0999 V2000
    3.0322   -0.0838    1.3087 O   0  0  0  0  0  0  0  0  0  0  0  0
    2.5582   -0.2244    0.2010 C   0  0  0  0  0  0  0  0  0  0  0  0
    1.1019   -0.4324    0.0560 C   0  0  0  0  0  0  0  0  0  0  0  0
    0.5609    0.7646   -0.7217 C   0  0  0  0  0  0  0  0  0  0  0  0
   -0.8923    0.4923   -0.9844 C   0  0  0  0  0  0  0  0  0  0  0  0
   -1.5926    1.6694   -0.6349 O   0  0  0  0  0  0  0  0  0  0  0  0
   -1.4549   -0.6130   -0.1252 C   0  0  0  0  0  0  0  0  0  0  0  0
   -0.8600   -0.6129    1.2573 C   0  0  0  0  0  0  0  0  0  0  0  0
    0.4993   -0.4299    1.2838 O   0  0  0  0  0  0  0  0  0  0  0  0
    3.1890   -0.1993   -0.6824 H   0  0  0  0  0  0  0  0  0  0  0  0
    0.8602   -1.3273   -0.5586 H   0  0  0  0  0  0  0  0  0  0  0  0
    1.1544    0.9280   -1.6406 H   0  0  0  0  0  0  0  0  0  0  0  0
    0.7135    1.6444   -0.0457 H   0  0  0  0  0  0  0  0  0  0  0  0
   -1.0570    0.2955   -2.0535 H   0  0  0  0  0  0  0  0  0  0  0  0
   -1.4487    1.7439    0.3517 H   0  0  0  0  0  0  0  0  0  0  0  0
   -1.3226   -1.6244   -0.5916 H   0  0  0  0  0  0  0  0  0  0  0  0
   -2.5525   -0.4834   -0.0160 H   0  0  0  0  0  0  0  0  0  0  0  0
   -1.0585   -1.6206    1.7176 H   0  0  0  0  0  0  0  0  0  0  0  0
   -1.4304    0.1134    1.8787 H   0  0  0  0  0  0  0  0  0  0  0  0
  1  2  2  0
  2  3  1  0
  3  4  1  0
  4  5  1  0
  5  6  1  0
  5  7  1  0
  7  8  1  0
  8  9  1  0
  9  3  1  0
  2 10  1  0
  3 11  1  0
  4 12  1  0
  4 13  1  0
  5 14  1  0
  6 15  1  0
  7 16  1  0
  7 17  1  0
  8 18  1  0
  8 19  1  0
M  END
