
     RDKit          3D

 13 13  0  0  0  0  0  0  0  0999 V2000
    2.4468    1.7274   -0.8229 O   0  0  0  0  0  0  0  0  0  0  0  0
    2.5539    0.7422   -0.0495 C   0  0  0  0  0  0  0  0  0  0  0  0
    1.4398   -0.1326    0.2815 C   0  0  0  0  0  0  0  0  0  0  0  0
    1.6372   -1.0863    1.0577 O   0  0  0  0  0  0  0  0  0  0  0  0
    0.1440    0.1267   -0.2948 C   0  0  0  0  0  0  0  0  0  0  0  0
   -0.0053    1.0917   -1.0654 O   0  0  0  0  0  0  0  0  0  0  0  0
   -0.9911   -0.7569    0.0369 C   0  0  0  0  0  0  0  0  0  0  0  0
   -2.3817   -0.1185    0.1064 C   0  0  0  0  0  0  0  0  0  0  0  0
   -1.9583   -0.9709   -0.9411 O   0  0  0  0  0  0  0  0  0  0  0  0
    3.5532    0.5809    0.3658 H   0  0  0  0  0  0  0  0  0  0  0  0
   -0.8589   -1.6059    0.7152 H   0  0  0  0  0  0  0  0  0  0  0  0
   -2.4607    0.9598   -0.1821 H   0  0  0  0  0  0  0  0  0  0  0  0
   -3.1189   -0.5578    0.7923 H   0  0  0  0  0  0  0  0  0  0  0  0
  1  2  2  0
  2  3  1  0
  3  4  2  0
  3  5  1  0
  5  6  2  0
  5  7  1  0
  7  8  1  0
  8  9  1  0
  9  7  1  0
  2 10  1  0
  7 11  1  0
  8 12  1  0
  8 13  1  0
M  END
