
     RDKit          3D

 15 16  0  0  0  0  0  0  0  0999 V2000
   -2.6333   -1.0092   -0.0392 O   0  0  0  0  0  0  0  0  0  0  0  0
   -1.9970    0.0191    0.1211 C   0  0  0  0  0  0  0  0  0  0  0  0
   -0.5992    0.0575    0.0829 C   0  0  0  0  0  0  0  0  0  0  0  0
    0.2095   -0.3591    1.2911 C   0  0  0  0  0  0  0  0  0  0  0  0
    1.4612   -0.2215    0.8486 C   0  0  0  0  0  0  0  0  0  0  0  0
    1.2691    0.3225   -0.5124 C   0  0  0  0  0  0  0  0  0  0  0  0
    0.1818   -0.6569   -1.0040 C   0  0  0  0  0  0  0  0  0  0  0  0
    0.1544    1.2571   -0.3363 C   0  0  0  0  0  0  0  0  0  0  0  0
   -0.0922    2.4154   -0.4534 O   0  0  0  0  0  0  0  0  0  0  0  0
   -2.6136    0.9181    0.2990 H   0  0  0  0  0  0  0  0  0  0  0  0
   -0.1565   -0.6832    2.2594 H   0  0  0  0  0  0  0  0  0  0  0  0
    2.4124   -0.4304    1.3051 H   0  0  0  0  0  0  0  0  0  0  0  0
    2.0787    0.5171   -1.1493 H   0  0  0  0  0  0  0  0  0  0  0  0
    0.4655   -1.6603   -0.6881 H   0  0  0  0  0  0  0  0  0  0  0  0
   -0.1406   -0.4863   -2.0247 H   0  0  0  0  0  0  0  0  0  0  0  0
  1  2  2  0
  2  3  1  0
  3  4  1  0
  4  5  2  0
  5  6  1  0
  6  7  1  0
  6  8  1  0
  8  9  2  0
  7  3  1  0
  8  3  1  0
  2 10  1  0
  4 11  1  0
  5 12  1  0
  6 13  1  0
  7 14  1  0
  7 15  1  0
M  END
