
     RDKit          3D

 19 19  0  0  0  0  0  0  0  0999 V2000
    3.6870   -0.8436    0.9292 O   0  0  0  0  0  0  0  0  0  0  0  0
    3.4779    0.1358    0.2647 C   0  0  0  0  0  0  0  0  0  0  0  0
    2.1465    0.6655   -0.0775 C   0  0  0  0  0  0  0  0  0  0  0  0
    1.1220   -0.1041    0.4614 O   0  0  0  0  0  0  0  0  0  0  0  0
   -0.1132    0.4299    0.1151 C   0  0  0  0  0  0  0  0  0  0  0  0
   -1.2677   -0.3373    0.6541 C   0  0  0  0  0  0  0  0  0  0  0  0
   -2.5752    0.3023    0.2369 C   0  0  0  0  0  0  0  0  0  0  0  0
   -2.9401   -0.8486   -0.4572 O   0  0  0  0  0  0  0  0  0  0  0  0
   -1.7303   -1.5048   -0.1979 C   0  0  0  0  0  0  0  0  0  0  0  0
    4.3432    0.6748   -0.1148 H   0  0  0  0  0  0  0  0  0  0  0  0
    2.0147    1.7085    0.3135 H   0  0  0  0  0  0  0  0  0  0  0  0
    2.0746    0.7355   -1.1878 H   0  0  0  0  0  0  0  0  0  0  0  0
   -0.1438    1.4550    0.5569 H   0  0  0  0  0  0  0  0  0  0  0  0
   -0.2222    0.5471   -0.9717 H   0  0  0  0  0  0  0  0  0  0  0  0
   -1.2206   -0.6511    1.7056 H   0  0  0  0  0  0  0  0  0  0  0  0
   -2.4604    1.1527   -0.4772 H   0  0  0  0  0  0  0  0  0  0  0  0
   -3.2039    0.5428    1.1219 H   0  0  0  0  0  0  0  0  0  0  0  0
   -1.0684   -1.6172   -1.0869 H   0  0  0  0  0  0  0  0  0  0  0  0
   -1.9202   -2.4431    0.3498 H   0  0  0  0  0  0  0  0  0  0  0  0
  1  2  2  0
  2  3  1  0
  3  4  1  0
  4  5  1  0
  5  6  1  0
  6  7  1  0
  7  8  1  0
  8  9  1  0
  9  6  1  0
  2 10  1  0
  3 11  1  0
  3 12  1  0
  5 13  1  0
  5 14  1  0
  6 15  1  0
  7 16  1  0
  7 17  1  0
  9 18  1  0
  9 19  1  0
M  END
