
     RDKit          3D

 16 17  0  0  0  0  0  0  0  0999 V2000
    0.6825   -2.2386    0.6970 O   0  0  0  0  0  0  0  0  0  0  0  0
    1.4239   -1.3270    0.4067 C   0  0  0  0  0  0  0  0  0  0  0  0
    1.0897    0.0468    0.0585 C   0  0  0  0  0  0  0  0  0  0  0  0
    2.2246    0.8528   -0.1965 O   0  0  0  0  0  0  0  0  0  0  0  0
   -0.0065    0.2444   -0.8903 C   0  0  0  0  0  0  0  0  0  0  0  0
   -1.2876   -0.4932   -0.6501 C   0  0  0  0  0  0  0  0  0  0  0  0
   -1.4457    0.2534    0.6317 C   0  0  0  0  0  0  0  0  0  0  0  0
   -0.0665    0.7889    0.5578 C   0  0  0  0  0  0  0  0  0  0  0  0
    2.4950   -1.6181    0.4190 H   0  0  0  0  0  0  0  0  0  0  0  0
    2.0011    1.8065   -0.2004 H   0  0  0  0  0  0  0  0  0  0  0  0
    0.0395    1.0066   -1.7030 H   0  0  0  0  0  0  0  0  0  0  0  0
   -2.0836   -0.2970   -1.4134 H   0  0  0  0  0  0  0  0  0  0  0  0
   -1.1300   -1.5710   -0.4579 H   0  0  0  0  0  0  0  0  0  0  0  0
   -1.6836   -0.3556    1.5292 H   0  0  0  0  0  0  0  0  0  0  0  0
   -2.2622    1.0206    0.5174 H   0  0  0  0  0  0  0  0  0  0  0  0
    0.0094    1.8806    0.6944 H   0  0  0  0  0  0  0  0  0  0  0  0
  1  2  2  0
  2  3  1  0
  3  4  1  0
  3  5  1  0
  5  6  1  0
  6  7  1  0
  7  8  1  0
  8  3  1  0
  8  5  1  0
  2  9  1  0
  4 10  1  0
  5 11  1  0
  6 12  1  0
  6 13  1  0
  7 14  1  0
  7 15  1  0
  8 16  1  0
M  END
