
     RDKit          3D

 19 20  0  0  0  0  0  0  0  0999 V2000
    1.6695   -1.0461    2.1019 O   0  0  0  0  0  0  0  0  0  0  0  0
    1.6304   -1.0135    0.8876 C   0  0  0  0  0  0  0  0  0  0  0  0
    0.5103   -0.5199    0.0846 C   0  0  0  0  0  0  0  0  0  0  0  0
   -0.4418   -1.5234   -0.4297 C   0  0  0  0  0  0  0  0  0  0  0  0
   -1.6653   -1.0272   -0.4075 C   0  0  0  0  0  0  0  0  0  0  0  0
   -1.6775    0.3500    0.1175 C   0  0  0  0  0  0  0  0  0  0  0  0
   -0.3229    0.5746    0.7068 C   0  0  0  0  0  0  0  0  0  0  0  0
    0.4800    1.5922   -0.0330 C   0  0  0  0  0  0  0  0  0  0  0  0
    0.9886    0.4902   -0.9363 C   0  0  0  0  0  0  0  0  0  0  0  0
    2.5220   -1.3913    0.3669 H   0  0  0  0  0  0  0  0  0  0  0  0
   -0.1952   -2.5065   -0.7720 H   0  0  0  0  0  0  0  0  0  0  0  0
   -2.5918   -1.5356   -0.7288 H   0  0  0  0  0  0  0  0  0  0  0  0
   -2.4434    0.4984    0.9138 H   0  0  0  0  0  0  0  0  0  0  0  0
   -1.8794    1.0389   -0.7411 H   0  0  0  0  0  0  0  0  0  0  0  0
   -0.2922    0.6220    1.8128 H   0  0  0  0  0  0  0  0  0  0  0  0
    1.2992    2.0813    0.5580 H   0  0  0  0  0  0  0  0  0  0  0  0
   -0.1638    2.3364   -0.5226 H   0  0  0  0  0  0  0  0  0  0  0  0
    0.4822    0.4330   -1.9232 H   0  0  0  0  0  0  0  0  0  0  0  0
    2.0910    0.5467   -1.0557 H   0  0  0  0  0  0  0  0  0  0  0  0
  1  2  2  0
  2  3  1  0
  3  4  1  0
  4  5  2  0
  5  6  1  0
  6  7  1  0
  7  8  1  0
  8  9  1  0
  7  3  1  0
  9  3  1  0
  2 10  1  0
  4 11  1  0
  5 12  1  0
  6 13  1  0
  6 14  1  0
  7 15  1  0
  8 16  1  0
  8 17  1  0
  9 18  1  0
  9 19  1  0
M  END
