
     RDKit          3D

 17 16  0  0  0  0  0  0  0  0999 V2000
   -1.7015    1.3497    1.1304 O   0  0  0  0  0  0  0  0  0  0  0  0
   -2.0347    0.1836    1.0435 C   0  0  0  0  0  0  0  0  0  0  0  0
   -1.5823   -0.6472   -0.0723 C   0  0  0  0  0  0  0  0  0  0  0  0
   -0.7004    0.0560   -1.0406 C   0  0  0  0  0  0  0  0  0  0  0  0
    0.5718    0.6043   -0.5007 C   0  0  0  0  0  0  0  0  0  0  0  0
    1.4659   -0.3959    0.0855 C   0  0  0  0  0  0  0  0  0  0  0  0
    1.2011   -1.6447    0.1391 O   0  0  0  0  0  0  0  0  0  0  0  0
    2.7380    0.0063    0.6510 C   0  0  0  0  0  0  0  0  0  0  0  0
    3.0428    1.2221    0.6219 O   0  0  0  0  0  0  0  0  0  0  0  0
   -2.6726   -0.1982    1.8230 H   0  0  0  0  0  0  0  0  0  0  0  0
   -1.1283   -1.6140    0.2539 H   0  0  0  0  0  0  0  0  0  0  0  0
   -2.4959   -0.9667   -0.6567 H   0  0  0  0  0  0  0  0  0  0  0  0
   -1.2526    0.8939   -1.5284 H   0  0  0  0  0  0  0  0  0  0  0  0
   -0.4495   -0.6703   -1.8570 H   0  0  0  0  0  0  0  0  0  0  0  0
    1.1299    1.0430   -1.3810 H   0  0  0  0  0  0  0  0  0  0  0  0
    0.4202    1.4526    0.1884 H   0  0  0  0  0  0  0  0  0  0  0  0
    3.4483   -0.6745    1.0999 H   0  0  0  0  0  0  0  0  0  0  0  0
  1  2  2  0
  2  3  1  0
  3  4  1  0
  4  5  1  0
  5  6  1  0
  6  7  2  0
  6  8  1  0
  8  9  2  0
  2 10  1  0
  3 11  1  0
  3 12  1  0
  4 13  1  0
  4 14  1  0
  5 15  1  0
  5 16  1  0
  8 17  1  0
M  END
