
     RDKit          3D

 17 17  0  0  0  0  0  0  0  0999 V2000
   -3.2485    0.7938    0.1911 O   0  0  0  0  0  0  0  0  0  0  0  0
   -2.1559    0.8964    0.6958 C   0  0  0  0  0  0  0  0  0  0  0  0
   -0.9205    0.7876   -0.0945 C   0  0  0  0  0  0  0  0  0  0  0  0
   -0.8705   -0.5953   -0.6979 C   0  0  0  0  0  0  0  0  0  0  0  0
    0.4228   -1.1387   -0.1174 C   0  0  0  0  0  0  0  0  0  0  0  0
    1.1710    0.1657    0.0252 C   0  0  0  0  0  0  0  0  0  0  0  0
    2.4498    0.0594    0.7006 C   0  0  0  0  0  0  0  0  0  0  0  0
    3.3588   -0.5848    0.2349 O   0  0  0  0  0  0  0  0  0  0  0  0
    0.2296    0.9355    0.6781 O   0  0  0  0  0  0  0  0  0  0  0  0
   -2.0932    1.0725    1.7561 H   0  0  0  0  0  0  0  0  0  0  0  0
   -0.8815    1.5867   -0.8661 H   0  0  0  0  0  0  0  0  0  0  0  0
   -0.7085   -0.5035   -1.8093 H   0  0  0  0  0  0  0  0  0  0  0  0
   -1.7409   -1.2113   -0.4795 H   0  0  0  0  0  0  0  0  0  0  0  0
    0.1672   -1.5643    0.8794 H   0  0  0  0  0  0  0  0  0  0  0  0
    0.9204   -1.8600   -0.7736 H   0  0  0  0  0  0  0  0  0  0  0  0
    1.2996    0.5976   -0.9906 H   0  0  0  0  0  0  0  0  0  0  0  0
    2.6002    0.5626    1.6380 H   0  0  0  0  0  0  0  0  0  0  0  0
  1  2  2  0
  2  3  1  0
  3  4  1  0
  4  5  1  0
  5  6  1  0
  6  7  1  0
  7  8  2  0
  6  9  1  0
  9  3  1  0
  2 10  1  0
  3 11  1  0
  4 12  1  0
  4 13  1  0
  5 14  1  0
  5 15  1  0
  6 16  1  0
  7 17  1  0
M  END
