
     RDKit          3D

 19 19  0  0  0  0  0  0  0  0999 V2000
    1.6222    2.4904   -0.1818 O   0  0  0  0  0  0  0  0  0  0  0  0
    0.5252    2.1584    0.1916 C   0  0  0  0  0  0  0  0  0  0  0  0
   -0.0664    0.9247   -0.3585 C   0  0  0  0  0  0  0  0  0  0  0  0
   -1.5167    0.6911    0.0783 C   0  0  0  0  0  0  0  0  0  0  0  0
   -1.1606   -0.7998    0.1009 C   0  0  0  0  0  0  0  0  0  0  0  0
   -1.7116   -1.5056    1.1490 O   0  0  0  0  0  0  0  0  0  0  0  0
    0.2644   -0.3440    0.4024 C   0  0  0  0  0  0  0  0  0  0  0  0
    1.3294   -1.1961   -0.2562 C   0  0  0  0  0  0  0  0  0  0  0  0
    2.4745   -0.3790   -0.3240 O   0  0  0  0  0  0  0  0  0  0  0  0
    0.0225    2.7969    0.9262 H   0  0  0  0  0  0  0  0  0  0  0  0
    0.0225    0.7857   -1.4501 H   0  0  0  0  0  0  0  0  0  0  0  0
   -1.7019    1.0272    1.1131 H   0  0  0  0  0  0  0  0  0  0  0  0
   -2.2436    0.9752   -0.6853 H   0  0  0  0  0  0  0  0  0  0  0  0
   -1.2612   -1.2833   -0.9081 H   0  0  0  0  0  0  0  0  0  0  0  0
   -2.4294   -2.1084    0.7727 H   0  0  0  0  0  0  0  0  0  0  0  0
    0.4094   -0.2130    1.4753 H   0  0  0  0  0  0  0  0  0  0  0  0
    0.9968   -1.5064   -1.2532 H   0  0  0  0  0  0  0  0  0  0  0  0
    1.5508   -2.0386    0.4311 H   0  0  0  0  0  0  0  0  0  0  0  0
    2.8736   -0.4755   -1.2232 H   0  0  0  0  0  0  0  0  0  0  0  0
  1  2  2  0
  2  3  1  0
  3  4  1  0
  4  5  1  0
  5  6  1  0
  5  7  1  0
  7  8  1  0
  8  9  1  0
  7  3  1  0
  2 10  1  0
  3 11  1  0
  4 12  1  0
  4 13  1  0
  5 14  1  0
  6 15  1  0
  7 16  1  0
  8 17  1  0
  8 18  1  0
  9 19  1  0
M  END
