
     RDKit          3D

 14 13  0  0  0  0  0  0  0  0999 V2000
   -1.8526   -1.5478   -1.0995 O   0  0  0  0  0  0  0  0  0  0  0  0
   -1.2676   -1.1071   -0.1268 C   0  0  0  0  0  0  0  0  0  0  0  0
   -0.3809    0.0806   -0.2486 C   0  0  0  0  0  0  0  0  0  0  0  0
   -0.3913    0.4986   -1.5742 O   0  0  0  0  0  0  0  0  0  0  0  0
   -0.8944    1.1759    0.6128 C   0  0  0  0  0  0  0  0  0  0  0  0
   -0.9872    1.0611    1.8296 O   0  0  0  0  0  0  0  0  0  0  0  0
    1.0051   -0.3561    0.1583 C   0  0  0  0  0  0  0  0  0  0  0  0
    1.9404    0.6496    0.0424 O   0  0  0  0  0  0  0  0  0  0  0  0
   -1.4092   -1.6010    0.8277 H   0  0  0  0  0  0  0  0  0  0  0  0
    0.4814    0.4650   -2.0082 H   0  0  0  0  0  0  0  0  0  0  0  0
   -1.2036    2.1176    0.1745 H   0  0  0  0  0  0  0  0  0  0  0  0
    0.9926   -0.6929    1.2129 H   0  0  0  0  0  0  0  0  0  0  0  0
    1.3003   -1.2042   -0.4924 H   0  0  0  0  0  0  0  0  0  0  0  0
    2.6670    0.4607    0.6915 H   0  0  0  0  0  0  0  0  0  0  0  0
  1  2  2  0
  2  3  1  0
  3  4  1  0
  3  5  1  0
  5  6  2  0
  3  7  1  0
  7  8  1  0
  2  9  1  0
  4 10  1  0
  5 11  1  0
  7 12  1  0
  7 13  1  0
  8 14  1  0
M  END
