
     RDKit          3D

 17 18  0  0  0  0  0  0  0  0999 V2000
    2.7099   -0.9853    0.2466 O   0  0  0  0  0  0  0  0  0  0  0  0
    1.5943   -1.3218   -0.0965 C   0  0  0  0  0  0  0  0  0  0  0  0
    0.5836   -0.3272   -0.4938 C   0  0  0  0  0  0  0  0  0  0  0  0
    1.0882    1.0323   -0.8180 C   0  0  0  0  0  0  0  0  0  0  0  0
    0.3542    0.8809    0.4486 C   0  0  0  0  0  0  0  0  0  0  0  0
   -1.1506    1.1733    0.4062 C   0  0  0  0  0  0  0  0  0  0  0  0
   -1.7736    0.0674    0.9901 O   0  0  0  0  0  0  0  0  0  0  0  0
   -1.4790   -1.0485    0.2120 C   0  0  0  0  0  0  0  0  0  0  0  0
   -0.6719   -0.7359   -0.8779 O   0  0  0  0  0  0  0  0  0  0  0  0
    1.3648   -2.3768   -0.1014 H   0  0  0  0  0  0  0  0  0  0  0  0
    2.1648    1.2099   -0.7507 H   0  0  0  0  0  0  0  0  0  0  0  0
    0.5858    1.6409   -1.6237 H   0  0  0  0  0  0  0  0  0  0  0  0
    0.8305    0.7480    1.4180 H   0  0  0  0  0  0  0  0  0  0  0  0
   -1.4704    1.2039   -0.6495 H   0  0  0  0  0  0  0  0  0  0  0  0
   -1.3483    2.1103    0.9388 H   0  0  0  0  0  0  0  0  0  0  0  0
   -2.4154   -1.4942   -0.1469 H   0  0  0  0  0  0  0  0  0  0  0  0
   -0.9669   -1.7771    0.8981 H   0  0  0  0  0  0  0  0  0  0  0  0
  1  2  2  0
  2  3  1  0
  3  4  1  0
  4  5  1  0
  5  6  1  0
  6  7  1  0
  7  8  1  0
  8  9  1  0
  5  3  1  0
  9  3  1  0
  2 10  1  0
  4 11  1  0
  4 12  1  0
  5 13  1  0
  6 14  1  0
  6 15  1  0
  8 16  1  0
  8 17  1  0
M  END
