
     RDKit          3D

 17 17  0  0  0  0  0  0  0  0999 V2000
    3.0126    0.5128   -1.3462 O   0  0  0  0  0  0  0  0  0  0  0  0
    3.4501   -0.1714   -0.4588 C   0  0  0  0  0  0  0  0  0  0  0  0
    2.5718   -0.6391    0.6238 C   0  0  0  0  0  0  0  0  0  0  0  0
    1.2303   -0.1294    0.3733 C   0  0  0  0  0  0  0  0  0  0  0  0
    0.1227    0.3120    0.1672 C   0  0  0  0  0  0  0  0  0  0  0  0
   -1.2078    0.8271   -0.0860 C   0  0  0  0  0  0  0  0  0  0  0  0
   -2.0651    0.1823   -1.1652 C   0  0  0  0  0  0  0  0  0  0  0  0
   -2.3631   -0.1305    0.2641 C   0  0  0  0  0  0  0  0  0  0  0  0
   -3.5234    0.4350    0.7909 O   0  0  0  0  0  0  0  0  0  0  0  0
    4.4865   -0.4430   -0.4553 H   0  0  0  0  0  0  0  0  0  0  0  0
    2.5642   -1.7572    0.6410 H   0  0  0  0  0  0  0  0  0  0  0  0
    2.9361   -0.2935    1.6224 H   0  0  0  0  0  0  0  0  0  0  0  0
   -1.3646    1.8984    0.0839 H   0  0  0  0  0  0  0  0  0  0  0  0
   -2.7511    0.8495   -1.7178 H   0  0  0  0  0  0  0  0  0  0  0  0
   -1.4800   -0.5518   -1.7729 H   0  0  0  0  0  0  0  0  0  0  0  0
   -2.0707   -1.1025    0.6913 H   0  0  0  0  0  0  0  0  0  0  0  0
   -3.5485    0.2015    1.7443 H   0  0  0  0  0  0  0  0  0  0  0  0
  1  2  2  0
  2  3  1  0
  3  4  1  0
  4  5  3  0
  5  6  1  0
  6  7  1  0
  7  8  1  0
  8  9  1  0
  8  6  1  0
  2 10  1  0
  3 11  1  0
  3 12  1  0
  6 13  1  0
  7 14  1  0
  7 15  1  0
  8 16  1  0
  9 17  1  0
M  END
