
     RDKit          3D

 16 17  0  0  0  0  0  0  0  0999 V2000
    2.7421   -0.7330   -1.0421 O   0  0  0  0  0  0  0  0  0  0  0  0
    2.1092   -0.1424   -0.1859 C   0  0  0  0  0  0  0  0  0  0  0  0
    0.6868   -0.1310   -0.1846 C   0  0  0  0  0  0  0  0  0  0  0  0
   -0.0489   -0.4870    1.1059 C   0  0  0  0  0  0  0  0  0  0  0  0
   -1.4676   -0.4442    0.5014 C   0  0  0  0  0  0  0  0  0  0  0  0
   -1.0798    0.0258   -0.8797 C   0  0  0  0  0  0  0  0  0  0  0  0
   -0.0571    1.1130   -0.5951 C   0  0  0  0  0  0  0  0  0  0  0  0
   -0.0120   -0.8060   -1.1783 O   0  0  0  0  0  0  0  0  0  0  0  0
    2.6801    0.3737    0.5742 H   0  0  0  0  0  0  0  0  0  0  0  0
    0.0986    0.3364    1.8063 H   0  0  0  0  0  0  0  0  0  0  0  0
    0.2062   -1.4795    1.4681 H   0  0  0  0  0  0  0  0  0  0  0  0
   -2.1136    0.2470    1.0379 H   0  0  0  0  0  0  0  0  0  0  0  0
   -1.8800   -1.4639    0.3956 H   0  0  0  0  0  0  0  0  0  0  0  0
   -1.8345    0.2106   -1.6057 H   0  0  0  0  0  0  0  0  0  0  0  0
   -0.3499    1.7377    0.2588 H   0  0  0  0  0  0  0  0  0  0  0  0
    0.3203    1.6428   -1.4767 H   0  0  0  0  0  0  0  0  0  0  0  0
  1  2  2  0
  2  3  1  0
  3  4  1  0
  4  5  1  0
  5  6  1  0
  6  7  1  0
  6  8  1  0
  7  3  1  0
  8  3  1  0
  2  9  1  0
  4 10  1  0
  4 11  1  0
  5 12  1  0
  5 13  1  0
  6 14  1  0
  7 15  1  0
  7 16  1  0
M  END
