
     RDKit          3D

 17 18  0  0  0  0  0  0  0  0999 V2000
    2.6651    0.9382    0.2216 O   0  0  0  0  0  0  0  0  0  0  0  0
    2.2858   -0.0698    0.7892 C   0  0  0  0  0  0  0  0  0  0  0  0
    1.2979   -0.9407    0.0993 C   0  0  0  0  0  0  0  0  0  0  0  0
    0.1073   -0.1866   -0.3782 C   0  0  0  0  0  0  0  0  0  0  0  0
    0.1457    0.8493   -1.2682 O   0  0  0  0  0  0  0  0  0  0  0  0
   -0.7922    1.6336   -0.5881 C   0  0  0  0  0  0  0  0  0  0  0  0
   -0.8134    0.5490    0.4772 C   0  0  0  0  0  0  0  0  0  0  0  0
   -1.2648   -0.7679    0.0167 C   0  0  0  0  0  0  0  0  0  0  0  0
   -2.0760   -0.9497   -1.0905 O   0  0  0  0  0  0  0  0  0  0  0  0
    2.6970   -0.2870    1.7900 H   0  0  0  0  0  0  0  0  0  0  0  0
    0.9563   -1.7875    0.7107 H   0  0  0  0  0  0  0  0  0  0  0  0
    1.8547   -1.3668   -0.7870 H   0  0  0  0  0  0  0  0  0  0  0  0
   -1.7558    1.7042   -1.1689 H   0  0  0  0  0  0  0  0  0  0  0  0
   -0.4349    2.6139   -0.2210 H   0  0  0  0  0  0  0  0  0  0  0  0
   -0.6547    0.7933    1.5323 H   0  0  0  0  0  0  0  0  0  0  0  0
   -1.2158   -1.5921    0.7302 H   0  0  0  0  0  0  0  0  0  0  0  0
   -3.0024   -1.1332   -0.8656 H   0  0  0  0  0  0  0  0  0  0  0  0
  1  2  2  0
  2  3  1  0
  3  4  1  0
  4  5  1  0
  5  6  1  0
  6  7  1  0
  7  8  1  0
  8  9  1  0
  7  4  1  0
  8  4  1  0
  2 10  1  0
  3 11  1  0
  3 12  1  0
  6 13  1  0
  6 14  1  0
  7 15  1  0
  8 16  1  0
  9 17  1  0
M  END
