
     RDKit          3D

 16 18  0  0  0  0  0  0  0  0999 V2000
    0.1375    2.3485   -0.9272 O   0  0  0  0  0  0  0  0  0  0  0  0
    0.6444    1.8103    0.0242 C   0  0  0  0  0  0  0  0  0  0  0  0
    0.5273    0.3810    0.3428 C   0  0  0  0  0  0  0  0  0  0  0  0
    1.7090   -0.5286    0.2149 C   0  0  0  0  0  0  0  0  0  0  0  0
    0.5831   -0.6525   -0.7320 C   0  0  0  0  0  0  0  0  0  0  0  0
   -0.7704   -1.1298   -0.3250 C   0  0  0  0  0  0  0  0  0  0  0  0
   -1.8915   -0.1695   -0.1447 C   0  0  0  0  0  0  0  0  0  0  0  0
   -0.7652   -0.1961    0.8193 C   0  0  0  0  0  0  0  0  0  0  0  0
    1.2433    2.4274    0.7141 H   0  0  0  0  0  0  0  0  0  0  0  0
    1.8712   -1.2284    1.0404 H   0  0  0  0  0  0  0  0  0  0  0  0
    2.6175   -0.0539   -0.1657 H   0  0  0  0  0  0  0  0  0  0  0  0
    0.7462   -0.3486   -1.7769 H   0  0  0  0  0  0  0  0  0  0  0  0
   -1.0095   -2.1889   -0.2498 H   0  0  0  0  0  0  0  0  0  0  0  0
   -1.9421    0.7366   -0.8127 H   0  0  0  0  0  0  0  0  0  0  0  0
   -2.8569   -0.5694    0.1619 H   0  0  0  0  0  0  0  0  0  0  0  0
   -0.8437   -0.6381    1.8162 H   0  0  0  0  0  0  0  0  0  0  0  0
  1  2  2  0
  2  3  1  0
  3  4  1  0
  4  5  1  0
  5  6  1  0
  6  7  1  0
  7  8  1  0
  5  3  1  0
  8  6  1  0
  8  3  1  0
  2  9  1  0
  4 10  1  0
  4 11  1  0
  5 12  1  0
  6 13  1  0
  7 14  1  0
  7 15  1  0
  8 16  1  0
M  END
