
     RDKit          3D

 19 20  0  0  0  0  0  0  0  0999 V2000
   -1.4621   -2.2873   -0.1112 O   0  0  0  0  0  0  0  0  0  0  0  0
   -1.3260   -1.1565   -0.5186 C   0  0  0  0  0  0  0  0  0  0  0  0
   -0.0017   -0.5825   -0.7294 C   0  0  0  0  0  0  0  0  0  0  0  0
    1.1223   -1.3841   -0.1393 C   0  0  0  0  0  0  0  0  0  0  0  0
    1.5072   -0.5344    1.0608 C   0  0  0  0  0  0  0  0  0  0  0  0
    1.3260    0.7805    0.6061 O   0  0  0  0  0  0  0  0  0  0  0  0
    0.1058    0.7275   -0.0296 C   0  0  0  0  0  0  0  0  0  0  0  0
   -0.5277    1.8888   -0.6735 C   0  0  0  0  0  0  0  0  0  0  0  0
   -1.0256    1.3909    0.6292 C   0  0  0  0  0  0  0  0  0  0  0  0
   -2.1945   -0.5585   -0.7310 H   0  0  0  0  0  0  0  0  0  0  0  0
    0.1324   -0.4010   -1.8196 H   0  0  0  0  0  0  0  0  0  0  0  0
    0.8159   -2.3899    0.1378 H   0  0  0  0  0  0  0  0  0  0  0  0
    1.9868   -1.3965   -0.8381 H   0  0  0  0  0  0  0  0  0  0  0  0
    2.5448   -0.7628    1.3152 H   0  0  0  0  0  0  0  0  0  0  0  0
    0.8758   -0.7598    1.9426 H   0  0  0  0  0  0  0  0  0  0  0  0
   -1.1448    1.7030   -1.6019 H   0  0  0  0  0  0  0  0  0  0  0  0
    0.0444    2.8201   -0.7395 H   0  0  0  0  0  0  0  0  0  0  0  0
   -0.8177    2.0685    1.4983 H   0  0  0  0  0  0  0  0  0  0  0  0
   -1.9613    0.8340    0.7416 H   0  0  0  0  0  0  0  0  0  0  0  0
  1  2  2  0
  2  3  1  0
  3  4  1  0
  4  5  1  0
  5  6  1  0
  6  7  1  0
  7  8  1  0
  8  9  1  0
  7  3  1  0
  9  7  1  0
  2 10  1  0
  3 11  1  0
  4 12  1  0
  4 13  1  0
  5 14  1  0
  5 15  1  0
  8 16  1  0
  8 17  1  0
  9 18  1  0
  9 19  1  0
M  END
