
     RDKit          3D

 15 17  0  0  0  0  0  0  0  0999 V2000
   -3.2240    0.3373    0.0326 O   0  0  0  0  0  0  0  0  0  0  0  0
   -2.1755    0.3744    0.6460 C   0  0  0  0  0  0  0  0  0  0  0  0
   -1.0268   -0.4627    0.2115 C   0  0  0  0  0  0  0  0  0  0  0  0
   -1.4620   -1.1757   -0.8805 O   0  0  0  0  0  0  0  0  0  0  0  0
   -0.4298   -0.3793   -1.1846 C   0  0  0  0  0  0  0  0  0  0  0  0
    0.8772   -0.8262   -0.5137 C   0  0  0  0  0  0  0  0  0  0  0  0
    1.6068   -0.1919    0.5651 C   0  0  0  0  0  0  0  0  0  0  0  0
    2.7092    0.5665    0.1018 O   0  0  0  0  0  0  0  0  0  0  0  0
    0.2604    0.2109    0.4619 C   0  0  0  0  0  0  0  0  0  0  0  0
   -2.0385    1.0095    1.5217 H   0  0  0  0  0  0  0  0  0  0  0  0
   -0.4797    0.5909   -1.6659 H   0  0  0  0  0  0  0  0  0  0  0  0
    0.8696   -1.8941   -0.3364 H   0  0  0  0  0  0  0  0  0  0  0  0
    1.8994   -0.6936    1.5368 H   0  0  0  0  0  0  0  0  0  0  0  0
    2.4020    1.2769   -0.4881 H   0  0  0  0  0  0  0  0  0  0  0  0
    0.2116    1.2571   -0.0082 H   0  0  0  0  0  0  0  0  0  0  0  0
  1  2  2  0
  2  3  1  0
  3  4  1  0
  4  5  1  0
  5  6  1  0
  6  7  1  0
  7  8  1  0
  7  9  1  0
  5  3  1  0
  9  6  1  0
  9  3  1  0
  2 10  1  0
  5 11  1  0
  6 12  1  0
  7 13  1  0
  8 14  1  0
  9 15  1  0
M  END
