
     RDKit          3D

 17 18  0  0  0  0  0  0  0  0999 V2000
   -0.4926   -2.4206    0.0659 O   0  0  0  0  0  0  0  0  0  0  0  0
   -0.5275   -1.4474   -0.6622 C   0  0  0  0  0  0  0  0  0  0  0  0
   -0.3351   -0.0801   -0.2057 C   0  0  0  0  0  0  0  0  0  0  0  0
    1.1228    0.2939   -0.1507 C   0  0  0  0  0  0  0  0  0  0  0  0
    2.0874   -0.3996    0.6729 C   0  0  0  0  0  0  0  0  0  0  0  0
    1.5005    0.9440    1.0169 O   0  0  0  0  0  0  0  0  0  0  0  0
   -1.1849    0.4054    0.9246 C   0  0  0  0  0  0  0  0  0  0  0  0
   -1.3443    1.6233    0.2658 O   0  0  0  0  0  0  0  0  0  0  0  0
   -1.1677    0.9378   -0.9342 C   0  0  0  0  0  0  0  0  0  0  0  0
   -0.7143   -1.6256   -1.7132 H   0  0  0  0  0  0  0  0  0  0  0  0
    1.4878    0.7189   -1.1138 H   0  0  0  0  0  0  0  0  0  0  0  0
    3.1595   -0.2966    0.4231 H   0  0  0  0  0  0  0  0  0  0  0  0
    1.8510   -1.0588    1.5070 H   0  0  0  0  0  0  0  0  0  0  0  0
   -0.6361    0.5562    1.8875 H   0  0  0  0  0  0  0  0  0  0  0  0
   -2.1215   -0.1913    1.0195 H   0  0  0  0  0  0  0  0  0  0  0  0
   -2.1175    0.5406   -1.3442 H   0  0  0  0  0  0  0  0  0  0  0  0
   -0.5676    1.4997   -1.6592 H   0  0  0  0  0  0  0  0  0  0  0  0
  1  2  2  0
  2  3  1  0
  3  4  1  0
  4  5  1  0
  5  6  1  0
  3  7  1  0
  7  8  1  0
  8  9  1  0
  9  3  1  0
  6  4  1  0
  2 10  1  0
  4 11  1  0
  5 12  1  0
  5 13  1  0
  7 14  1  0
  7 15  1  0
  9 16  1  0
  9 17  1  0
M  END
