
     RDKit          3D

 17 17  0  0  0  0  0  0  0  0999 V2000
    0.3451    2.4530   -0.7108 O   0  0  0  0  0  0  0  0  0  0  0  0
    0.1844    1.7427    0.2636 C   0  0  0  0  0  0  0  0  0  0  0  0
   -0.0916    0.3193    0.0767 C   0  0  0  0  0  0  0  0  0  0  0  0
   -1.3169    0.1207   -0.8112 C   0  0  0  0  0  0  0  0  0  0  0  0
   -2.4432    0.5684   -0.1424 O   0  0  0  0  0  0  0  0  0  0  0  0
   -0.2594   -0.4047    1.2513 O   0  0  0  0  0  0  0  0  0  0  0  0
    0.6265   -1.3621    0.8168 C   0  0  0  0  0  0  0  0  0  0  0  0
    1.0414   -0.5513   -0.3718 C   0  0  0  0  0  0  0  0  0  0  0  0
    2.3006    0.0013   -0.3382 O   0  0  0  0  0  0  0  0  0  0  0  0
    0.2569    2.2181    1.2403 H   0  0  0  0  0  0  0  0  0  0  0  0
   -1.4471   -0.9610   -1.0086 H   0  0  0  0  0  0  0  0  0  0  0  0
   -1.1530    0.7131   -1.7331 H   0  0  0  0  0  0  0  0  0  0  0  0
   -3.0308   -0.1846    0.1297 H   0  0  0  0  0  0  0  0  0  0  0  0
    1.4187   -1.5651    1.5353 H   0  0  0  0  0  0  0  0  0  0  0  0
    0.1011   -2.3269    0.5739 H   0  0  0  0  0  0  0  0  0  0  0  0
    0.8617   -1.0556   -1.3309 H   0  0  0  0  0  0  0  0  0  0  0  0
    2.6056    0.2747    0.5594 H   0  0  0  0  0  0  0  0  0  0  0  0
  1  2  2  0
  2  3  1  0
  3  4  1  0
  4  5  1  0
  3  6  1  0
  6  7  1  0
  7  8  1  0
  8  9  1  0
  8  3  1  0
  2 10  1  0
  4 11  1  0
  4 12  1  0
  5 13  1  0
  7 14  1  0
  7 15  1  0
  8 16  1  0
  9 17  1  0
M  END
