
     RDKit          3D

 17 17  0  0  0  0  0  0  0  0999 V2000
    0.2354    1.6066    1.8775 O   0  0  0  0  0  0  0  0  0  0  0  0
    0.9270    1.2680    0.9557 C   0  0  0  0  0  0  0  0  0  0  0  0
    0.4680    0.1888    0.0662 C   0  0  0  0  0  0  0  0  0  0  0  0
    1.6719   -0.5344   -0.4364 C   0  0  0  0  0  0  0  0  0  0  0  0
    2.3170   -1.1552    0.3928 O   0  0  0  0  0  0  0  0  0  0  0  0
   -0.4705   -0.7704    0.7300 C   0  0  0  0  0  0  0  0  0  0  0  0
   -1.6695   -0.7799   -0.1527 C   0  0  0  0  0  0  0  0  0  0  0  0
   -1.5326    0.1468   -1.1337 O   0  0  0  0  0  0  0  0  0  0  0  0
   -0.3398    0.7854   -1.0395 C   0  0  0  0  0  0  0  0  0  0  0  0
    1.8661    1.7393    0.7760 H   0  0  0  0  0  0  0  0  0  0  0  0
    1.9735   -0.5192   -1.4865 H   0  0  0  0  0  0  0  0  0  0  0  0
   -0.0279   -1.7853    0.7225 H   0  0  0  0  0  0  0  0  0  0  0  0
   -0.7243   -0.4687    1.7808 H   0  0  0  0  0  0  0  0  0  0  0  0
   -1.8522   -1.7807   -0.6238 H   0  0  0  0  0  0  0  0  0  0  0  0
   -2.5885   -0.5374    0.4393 H   0  0  0  0  0  0  0  0  0  0  0  0
   -0.5310    1.8781   -0.8938 H   0  0  0  0  0  0  0  0  0  0  0  0
    0.2774    0.7184   -1.9743 H   0  0  0  0  0  0  0  0  0  0  0  0
  1  2  2  0
  2  3  1  0
  3  4  1  0
  4  5  2  0
  3  6  1  0
  6  7  1  0
  7  8  1  0
  8  9  1  0
  9  3  1  0
  2 10  1  0
  4 11  1  0
  6 12  1  0
  6 13  1  0
  7 14  1  0
  7 15  1  0
  9 16  1  0
  9 17  1  0
M  END
