
     RDKit          3D

 17 18  0  0  0  0  0  0  0  0999 V2000
    2.3332   -1.4027   -1.2951 O   0  0  0  0  0  0  0  0  0  0  0  0
    1.9970   -0.6125   -0.4223 C   0  0  0  0  0  0  0  0  0  0  0  0
    0.6132   -0.3431   -0.1749 C   0  0  0  0  0  0  0  0  0  0  0  0
    0.1768   -0.4192    1.2832 C   0  0  0  0  0  0  0  0  0  0  0  0
   -0.8456    0.5229    1.4435 O   0  0  0  0  0  0  0  0  0  0  0  0
   -1.2103    0.8713    0.1438 C   0  0  0  0  0  0  0  0  0  0  0  0
   -1.5423   -0.4196   -0.5682 C   0  0  0  0  0  0  0  0  0  0  0  0
   -0.3093   -0.9991   -0.9470 O   0  0  0  0  0  0  0  0  0  0  0  0
    0.1902    1.1155   -0.4469 C   0  0  0  0  0  0  0  0  0  0  0  0
    2.7799   -0.1298    0.1500 H   0  0  0  0  0  0  0  0  0  0  0  0
    1.0723   -0.1203    1.8912 H   0  0  0  0  0  0  0  0  0  0  0  0
   -0.1407   -1.4252    1.5738 H   0  0  0  0  0  0  0  0  0  0  0  0
   -1.8871    1.6767    0.0322 H   0  0  0  0  0  0  0  0  0  0  0  0
   -2.1799   -0.2478   -1.4714 H   0  0  0  0  0  0  0  0  0  0  0  0
   -2.0144   -1.1486    0.1269 H   0  0  0  0  0  0  0  0  0  0  0  0
    0.1619    1.3408   -1.5046 H   0  0  0  0  0  0  0  0  0  0  0  0
    0.8050    1.7408    0.1858 H   0  0  0  0  0  0  0  0  0  0  0  0
  1  2  2  0
  2  3  1  0
  3  4  1  0
  4  5  1  0
  5  6  1  0
  6  7  1  0
  7  8  1  0
  6  9  1  0
  8  3  1  0
  9  3  1  0
  2 10  1  0
  4 11  1  0
  4 12  1  0
  6 13  1  0
  7 14  1  0
  7 15  1  0
  9 16  1  0
  9 17  1  0
M  END
