
     RDKit          3D

 16 17  0  0  0  0  0  0  0  0999 V2000
   -2.4166   -0.9656    0.8339 O   0  0  0  0  0  0  0  0  0  0  0  0
   -1.5683   -1.3284    0.0507 C   0  0  0  0  0  0  0  0  0  0  0  0
   -0.1343   -1.1355    0.3435 C   0  0  0  0  0  0  0  0  0  0  0  0
    0.7384   -1.5985   -0.6425 O   0  0  0  0  0  0  0  0  0  0  0  0
    1.5485   -0.4951   -0.3409 C   0  0  0  0  0  0  0  0  0  0  0  0
    0.3256    0.2292    0.0170 C   0  0  0  0  0  0  0  0  0  0  0  0
   -0.3667    1.2286   -0.7377 C   0  0  0  0  0  0  0  0  0  0  0  0
    0.1370    1.4395    0.7191 C   0  0  0  0  0  0  0  0  0  0  0  0
   -1.8488   -1.7939   -0.8642 H   0  0  0  0  0  0  0  0  0  0  0  0
    0.2078   -1.5378    1.3274 H   0  0  0  0  0  0  0  0  0  0  0  0
    2.1651   -0.1295   -1.1809 H   0  0  0  0  0  0  0  0  0  0  0  0
    2.1870   -0.7651    0.5348 H   0  0  0  0  0  0  0  0  0  0  0  0
   -1.4701    1.2601   -0.8431 H   0  0  0  0  0  0  0  0  0  0  0  0
    0.1781    1.8175   -1.5155 H   0  0  0  0  0  0  0  0  0  0  0  0
   -0.6447    1.5830    1.4814 H   0  0  0  0  0  0  0  0  0  0  0  0
    0.9619    2.1915    0.8170 H   0  0  0  0  0  0  0  0  0  0  0  0
  1  2  2  0
  2  3  1  0
  3  4  1  0
  4  5  1  0
  5  6  1  0
  6  7  1  0
  7  8  1  0
  6  3  1  0
  8  6  1  0
  2  9  1  0
  3 10  1  0
  5 11  1  0
  5 12  1  0
  7 13  1  0
  7 14  1  0
  8 15  1  0
  8 16  1  0
M  END
