
     RDKit          3D

 18 19  0  0  0  0  0  0  0  0999 V2000
    3.2966   -0.1669    0.9321 O   0  0  0  0  0  0  0  0  0  0  0  0
    2.3160   -0.5448    0.3026 C   0  0  0  0  0  0  0  0  0  0  0  0
    1.3801    0.5221   -0.1582 C   0  0  0  0  0  0  0  0  0  0  0  0
    0.2627    0.7792    0.8598 C   0  0  0  0  0  0  0  0  0  0  0  0
   -0.6527    0.0394   -0.0306 C   0  0  0  0  0  0  0  0  0  0  0  0
   -1.5634   -1.0086    0.3404 C   0  0  0  0  0  0  0  0  0  0  0  0
   -2.0489    0.3338   -0.2659 C   0  0  0  0  0  0  0  0  0  0  0  0
    0.3427   -0.0006   -1.1331 C   0  0  0  0  0  0  0  0  0  0  0  0
    2.1800   -1.5927    0.1175 H   0  0  0  0  0  0  0  0  0  0  0  0
    1.8316    1.4384   -0.5287 H   0  0  0  0  0  0  0  0  0  0  0  0
    0.0396    1.8479    0.9743 H   0  0  0  0  0  0  0  0  0  0  0  0
    0.5257    0.3262    1.8368 H   0  0  0  0  0  0  0  0  0  0  0  0
   -1.8283   -1.1160    1.4216 H   0  0  0  0  0  0  0  0  0  0  0  0
   -1.7351   -1.9170   -0.2599 H   0  0  0  0  0  0  0  0  0  0  0  0
   -2.4248    0.2304   -1.3119 H   0  0  0  0  0  0  0  0  0  0  0  0
   -2.5664    1.0320    0.4084 H   0  0  0  0  0  0  0  0  0  0  0  0
    0.0660    0.7605   -1.9205 H   0  0  0  0  0  0  0  0  0  0  0  0
    0.5783   -0.9631   -1.5847 H   0  0  0  0  0  0  0  0  0  0  0  0
  1  2  2  0
  2  3  1  0
  3  4  1  0
  4  5  1  0
  5  6  1  0
  6  7  1  0
  5  8  1  0
  8  3  1  0
  7  5  1  0
  2  9  1  0
  3 10  1  0
  4 11  1  0
  4 12  1  0
  6 13  1  0
  6 14  1  0
  7 15  1  0
  7 16  1  0
  8 17  1  0
  8 18  1  0
M  END
