
     RDKit          3D

 17 18  0  0  0  0  0  0  0  0999 V2000
   -2.5753   -1.2494    0.5420 O   0  0  0  0  0  0  0  0  0  0  0  0
   -1.3511   -1.3845    0.6922 C   0  0  0  0  0  0  0  0  0  0  0  0
   -0.4378   -0.5831    0.1140 C   0  0  0  0  0  0  0  0  0  0  0  0
    0.9460   -0.2704    0.6056 C   0  0  0  0  0  0  0  0  0  0  0  0
    0.8509    0.5175   -0.6618 C   0  0  0  0  0  0  0  0  0  0  0  0
    1.6784    1.2754   -1.2069 O   0  0  0  0  0  0  0  0  0  0  0  0
    0.1843   -0.7080   -1.2545 C   0  0  0  0  0  0  0  0  0  0  0  0
   -0.5557    0.8795   -0.1995 C   0  0  0  0  0  0  0  0  0  0  0  0
   -0.6256    1.7408    0.8660 O   0  0  0  0  0  0  0  0  0  0  0  0
   -1.1036   -2.2362    1.3535 H   0  0  0  0  0  0  0  0  0  0  0  0
    1.5946   -1.1473    0.6101 H   0  0  0  0  0  0  0  0  0  0  0  0
    1.0244    0.3228    1.5209 H   0  0  0  0  0  0  0  0  0  0  0  0
    2.5975    1.3157   -0.8743 H   0  0  0  0  0  0  0  0  0  0  0  0
   -0.5393   -0.4400   -2.0276 H   0  0  0  0  0  0  0  0  0  0  0  0
    0.8295   -1.5696   -1.4204 H   0  0  0  0  0  0  0  0  0  0  0  0
   -1.2539    1.0591   -1.0296 H   0  0  0  0  0  0  0  0  0  0  0  0
   -1.2634    2.4777    0.6056 H   0  0  0  0  0  0  0  0  0  0  0  0
  1  2  2  0
  2  3  1  0
  3  4  1  0
  4  5  1  0
  5  6  1  0
  5  7  1  0
  5  8  1  0
  8  9  1  0
  7  3  1  0
  8  3  1  0
  2 10  1  0
  4 11  1  0
  4 12  1  0
  6 13  1  0
  7 14  1  0
  7 15  1  0
  8 16  1  0
  9 17  1  0
M  END
