
     RDKit          3D

 21 21  0  0  0  0  0  0  0  0999 V2000
    1.1957   -2.6701   -1.5388 O   0  0  0  0  0  0  0  0  0  0  0  0
    1.6175   -1.5790   -1.2095 C   0  0  0  0  0  0  0  0  0  0  0  0
    0.8752   -0.7673   -0.1871 C   0  0  0  0  0  0  0  0  0  0  0  0
    1.8236    0.2083    0.4422 C   0  0  0  0  0  0  0  0  0  0  0  0
    1.2239    0.9973    1.3979 O   0  0  0  0  0  0  0  0  0  0  0  0
   -0.2602   -0.0278   -0.8880 C   0  0  0  0  0  0  0  0  0  0  0  0
   -1.0592    0.8107    0.0548 C   0  0  0  0  0  0  0  0  0  0  0  0
   -1.7122    0.0072    1.1750 C   0  0  0  0  0  0  0  0  0  0  0  0
   -2.5281    0.6920    0.1719 C   0  0  0  0  0  0  0  0  0  0  0  0
    2.5263   -1.2311   -1.6746 H   0  0  0  0  0  0  0  0  0  0  0  0
    0.4902   -1.4606    0.5747 H   0  0  0  0  0  0  0  0  0  0  0  0
    2.1945    0.8723   -0.3931 H   0  0  0  0  0  0  0  0  0  0  0  0
    2.7098   -0.3182    0.8405 H   0  0  0  0  0  0  0  0  0  0  0  0
    1.7122    1.8515    1.4708 H   0  0  0  0  0  0  0  0  0  0  0  0
   -0.9466   -0.7608   -1.3578 H   0  0  0  0  0  0  0  0  0  0  0  0
    0.1638    0.6301   -1.6610 H   0  0  0  0  0  0  0  0  0  0  0  0
   -0.6479    1.8056    0.2661 H   0  0  0  0  0  0  0  0  0  0  0  0
   -1.6772   -1.0875    1.1334 H   0  0  0  0  0  0  0  0  0  0  0  0
   -1.5271    0.4124    2.1881 H   0  0  0  0  0  0  0  0  0  0  0  0
   -3.0649    0.0645   -0.5818 H   0  0  0  0  0  0  0  0  0  0  0  0
   -3.1093    1.5504    0.5050 H   0  0  0  0  0  0  0  0  0  0  0  0
  1  2  2  0
  2  3  1  0
  3  4  1  0
  4  5  1  0
  3  6  1  0
  6  7  1  0
  7  8  1  0
  8  9  1  0
  9  7  1  0
  2 10  1  0
  3 11  1  0
  4 12  1  0
  4 13  1  0
  5 14  1  0
  6 15  1  0
  6 16  1  0
  7 17  1  0
  8 18  1  0
  8 19  1  0
  9 20  1  0
  9 21  1  0
M  END
