
     RDKit          3D

 15 16  0  0  0  0  0  0  0  0999 V2000
    3.1329    0.9995   -0.0753 O   0  0  0  0  0  0  0  0  0  0  0  0
    2.3167    0.1062    0.2434 C   0  0  0  0  0  0  0  0  0  0  0  0
    0.8840    0.2136    0.0758 C   0  0  0  0  0  0  0  0  0  0  0  0
    0.1262    1.1811   -0.4081 C   0  0  0  0  0  0  0  0  0  0  0  0
   -1.2491    0.6033   -0.3064 C   0  0  0  0  0  0  0  0  0  0  0  0
   -1.0154   -0.8271   -0.7846 C   0  0  0  0  0  0  0  0  0  0  0  0
   -0.1160   -0.8286    0.4437 C   0  0  0  0  0  0  0  0  0  0  0  0
   -1.1806    0.0059    1.0389 C   0  0  0  0  0  0  0  0  0  0  0  0
   -1.7203    0.1369    2.0835 O   0  0  0  0  0  0  0  0  0  0  0  0
    2.7340   -0.7923    0.6686 H   0  0  0  0  0  0  0  0  0  0  0  0
    0.3288    2.1564   -0.7970 H   0  0  0  0  0  0  0  0  0  0  0  0
   -2.0789    1.1385   -0.6432 H   0  0  0  0  0  0  0  0  0  0  0  0
   -1.8797   -1.4856   -0.6814 H   0  0  0  0  0  0  0  0  0  0  0  0
   -0.4678   -0.8755   -1.7312 H   0  0  0  0  0  0  0  0  0  0  0  0
    0.1852   -1.7323    0.8736 H   0  0  0  0  0  0  0  0  0  0  0  0
  1  2  2  0
  2  3  1  0
  3  4  2  0
  4  5  1  0
  5  6  1  0
  6  7  1  0
  7  8  1  0
  8  9  2  0
  7  3  1  0
  8  5  1  0
  2 10  1  0
  4 11  1  0
  5 12  1  0
  6 13  1  0
  6 14  1  0
  7 15  1  0
M  END
