
     RDKit          3D

 14 14  0  0  0  0  0  0  0  0999 V2000
    3.9528   -0.3764   -1.1469 O   0  0  0  0  0  0  0  0  0  0  0  0
    3.2851    0.0673   -0.1590 C   0  0  0  0  0  0  0  0  0  0  0  0
    1.8832   -0.1920   -0.0062 C   0  0  0  0  0  0  0  0  0  0  0  0
    0.6936   -0.4158    0.1372 C   0  0  0  0  0  0  0  0  0  0  0  0
   -0.7345   -0.7087    0.3158 C   0  0  0  0  0  0  0  0  0  0  0  0
   -1.6687   -0.5235   -0.8211 C   0  0  0  0  0  0  0  0  0  0  0  0
   -1.6413    0.4461    0.3611 C   0  0  0  0  0  0  0  0  0  0  0  0
   -1.2196    1.7213    0.0103 O   0  0  0  0  0  0  0  0  0  0  0  0
    3.8162    0.6455    0.5574 H   0  0  0  0  0  0  0  0  0  0  0  0
   -0.9355   -1.5635    1.0027 H   0  0  0  0  0  0  0  0  0  0  0  0
   -1.2820   -0.1896   -1.7940 H   0  0  0  0  0  0  0  0  0  0  0  0
   -2.5693   -1.1404   -0.8741 H   0  0  0  0  0  0  0  0  0  0  0  0
   -2.4837    0.3973    1.0820 H   0  0  0  0  0  0  0  0  0  0  0  0
   -1.0962    1.8324   -0.9637 H   0  0  0  0  0  0  0  0  0  0  0  0
  1  2  2  0
  2  3  1  0
  3  4  3  0
  4  5  1  0
  5  6  1  0
  6  7  1  0
  7  8  1  0
  7  5  1  0
  2  9  1  0
  5 10  1  0
  6 11  1  0
  6 12  1  0
  7 13  1  0
  8 14  1  0
M  END
