
     RDKit          3D

 16 18  0  0  0  0  0  0  0  0999 V2000
    0.8041    1.6360    1.6417 O   0  0  0  0  0  0  0  0  0  0  0  0
    1.6676    1.1045    1.0084 C   0  0  0  0  0  0  0  0  0  0  0  0
    1.4312    0.1077   -0.0127 C   0  0  0  0  0  0  0  0  0  0  0  0
    0.4598   -0.9657    0.1258 C   0  0  0  0  0  0  0  0  0  0  0  0
   -0.9723   -0.7344    0.4298 C   0  0  0  0  0  0  0  0  0  0  0  0
   -1.7490    0.4835    0.2983 C   0  0  0  0  0  0  0  0  0  0  0  0
   -1.0711   -0.0130   -0.8913 C   0  0  0  0  0  0  0  0  0  0  0  0
    0.4043    0.0716   -1.0459 C   0  0  0  0  0  0  0  0  0  0  0  0
    2.7053    1.4151    1.2401 H   0  0  0  0  0  0  0  0  0  0  0  0
    2.4503   -0.2827   -0.4363 H   0  0  0  0  0  0  0  0  0  0  0  0
    0.7492   -2.0072   -0.1627 H   0  0  0  0  0  0  0  0  0  0  0  0
   -1.5395   -1.7021    0.5826 H   0  0  0  0  0  0  0  0  0  0  0  0
   -1.5367    1.4949    0.6084 H   0  0  0  0  0  0  0  0  0  0  0  0
   -2.8805    0.3002    0.3427 H   0  0  0  0  0  0  0  0  0  0  0  0
   -1.6546   -0.5594   -1.6727 H   0  0  0  0  0  0  0  0  0  0  0  0
    0.7317   -0.3490   -2.0561 H   0  0  0  0  0  0  0  0  0  0  0  0
  1  2  2  0
  2  3  1  0
  3  4  1  0
  4  5  1  0
  5  6  1  0
  6  7  1  0
  7  8  1  0
  8  3  1  0
  8  4  1  0
  7  5  1  0
  2  9  1  0
  3 10  1  0
  4 11  1  0
  5 12  1  0
  6 13  1  0
  6 14  1  0
  7 15  1  0
  8 16  1  0
M  END
