
     RDKit          3D

 17 18  0  0  0  0  0  0  0  0999 V2000
    1.5140    0.1756   -1.8428 O   0  0  0  0  0  0  0  0  0  0  0  0
    1.8114    0.3419   -0.6850 C   0  0  0  0  0  0  0  0  0  0  0  0
    0.9737   -0.0741    0.4436 C   0  0  0  0  0  0  0  0  0  0  0  0
    0.5612   -1.5547    0.4131 C   0  0  0  0  0  0  0  0  0  0  0  0
   -0.6082   -1.1241    1.0881 O   0  0  0  0  0  0  0  0  0  0  0  0
   -0.4724    0.0431    0.3687 C   0  0  0  0  0  0  0  0  0  0  0  0
   -1.2019    1.2361    0.7582 C   0  0  0  0  0  0  0  0  0  0  0  0
   -2.1285    0.9448   -0.2748 O   0  0  0  0  0  0  0  0  0  0  0  0
   -1.2139    0.0519   -0.8839 C   0  0  0  0  0  0  0  0  0  0  0  0
    2.7606    0.8308   -0.4863 H   0  0  0  0  0  0  0  0  0  0  0  0
    1.3936    0.1461    1.4238 H   0  0  0  0  0  0  0  0  0  0  0  0
    1.2076   -2.2113    0.9887 H   0  0  0  0  0  0  0  0  0  0  0  0
    0.2706   -1.8691   -0.6044 H   0  0  0  0  0  0  0  0  0  0  0  0
   -1.6630    1.3251    1.7436 H   0  0  0  0  0  0  0  0  0  0  0  0
   -0.6835    2.1841    0.4527 H   0  0  0  0  0  0  0  0  0  0  0  0
   -0.8028    0.4807   -1.7895 H   0  0  0  0  0  0  0  0  0  0  0  0
   -1.7186   -0.9269   -1.1138 H   0  0  0  0  0  0  0  0  0  0  0  0
  1  2  2  0
  2  3  1  0
  3  4  1  0
  4  5  1  0
  5  6  1  0
  6  7  1  0
  7  8  1  0
  8  9  1  0
  6  3  1  0
  9  6  1  0
  2 10  1  0
  3 11  1  0
  4 12  1  0
  4 13  1  0
  7 14  1  0
  7 15  1  0
  9 16  1  0
  9 17  1  0
M  END
