
     RDKit          3D

 19 19  0  0  0  0  0  0  0  0999 V2000
    2.7858    0.1296    1.9793 O   0  0  0  0  0  0  0  0  0  0  0  0
    2.6835   -0.1702    0.7936 C   0  0  0  0  0  0  0  0  0  0  0  0
    1.5188    0.3439    0.0584 C   0  0  0  0  0  0  0  0  0  0  0  0
    1.1411   -0.4894   -1.1082 C   0  0  0  0  0  0  0  0  0  0  0  0
   -0.1789   -0.4797   -1.2623 C   0  0  0  0  0  0  0  0  0  0  0  0
   -0.7920    0.3690   -0.2004 C   0  0  0  0  0  0  0  0  0  0  0  0
   -2.1243   -0.1587    0.2551 C   0  0  0  0  0  0  0  0  0  0  0  0
   -3.0110   -0.2053   -0.8059 O   0  0  0  0  0  0  0  0  0  0  0  0
    0.2579    0.2660    0.8889 C   0  0  0  0  0  0  0  0  0  0  0  0
    3.4414   -0.7852    0.3608 H   0  0  0  0  0  0  0  0  0  0  0  0
    1.6422    1.3887   -0.2883 H   0  0  0  0  0  0  0  0  0  0  0  0
    1.8520   -1.0180   -1.7279 H   0  0  0  0  0  0  0  0  0  0  0  0
   -0.7491   -0.9950   -2.0263 H   0  0  0  0  0  0  0  0  0  0  0  0
   -0.8882    1.4151   -0.4786 H   0  0  0  0  0  0  0  0  0  0  0  0
   -2.5296    0.5674    0.9868 H   0  0  0  0  0  0  0  0  0  0  0  0
   -2.0574   -1.1612    0.7264 H   0  0  0  0  0  0  0  0  0  0  0  0
   -3.3110    0.6694   -1.1119 H   0  0  0  0  0  0  0  0  0  0  0  0
    0.1440   -0.7516    1.3268 H   0  0  0  0  0  0  0  0  0  0  0  0
    0.1748    1.0652    1.6338 H   0  0  0  0  0  0  0  0  0  0  0  0
  1  2  2  0
  2  3  1  0
  3  4  1  0
  4  5  2  0
  5  6  1  0
  6  7  1  0
  7  8  1  0
  6  9  1  0
  9  3  1  0
  2 10  1  0
  3 11  1  0
  4 12  1  0
  5 13  1  0
  6 14  1  0
  7 15  1  0
  7 16  1  0
  8 17  1  0
  9 18  1  0
  9 19  1  0
M  END
