
     RDKit          3D

 19 20  0  0  0  0  0  0  0  0999 V2000
    3.4633    0.9745   -0.6113 O   0  0  0  0  0  0  0  0  0  0  0  0
    2.7589    0.0142   -0.3874 C   0  0  0  0  0  0  0  0  0  0  0  0
    1.6026    0.1439    0.5093 C   0  0  0  0  0  0  0  0  0  0  0  0
    0.3836   -0.5524    0.0356 C   0  0  0  0  0  0  0  0  0  0  0  0
   -0.8605   -0.5122    0.8338 C   0  0  0  0  0  0  0  0  0  0  0  0
   -1.5418   -0.9228   -0.4573 C   0  0  0  0  0  0  0  0  0  0  0  0
   -0.5702    0.1799   -0.8583 C   0  0  0  0  0  0  0  0  0  0  0  0
   -1.0790    0.8779    0.3323 C   0  0  0  0  0  0  0  0  0  0  0  0
   -2.4748    1.1239    0.2679 O   0  0  0  0  0  0  0  0  0  0  0  0
    3.0195   -0.9150   -0.8694 H   0  0  0  0  0  0  0  0  0  0  0  0
    1.8826   -0.3433    1.4935 H   0  0  0  0  0  0  0  0  0  0  0  0
    1.3720    1.1847    0.7782 H   0  0  0  0  0  0  0  0  0  0  0  0
    0.5613   -1.5941   -0.3758 H   0  0  0  0  0  0  0  0  0  0  0  0
   -1.0517   -0.8817    1.7414 H   0  0  0  0  0  0  0  0  0  0  0  0
   -1.2167   -1.9153   -0.7877 H   0  0  0  0  0  0  0  0  0  0  0  0
   -2.6004   -0.6723   -0.5089 H   0  0  0  0  0  0  0  0  0  0  0  0
   -0.4130    0.4954   -1.7915 H   0  0  0  0  0  0  0  0  0  0  0  0
   -0.5500    1.7058    0.7850 H   0  0  0  0  0  0  0  0  0  0  0  0
   -2.6855    1.6090   -0.5574 H   0  0  0  0  0  0  0  0  0  0  0  0
  1  2  2  0
  2  3  1  0
  3  4  1  0
  4  5  1  0
  5  6  1  0
  6  7  1  0
  7  8  1  0
  8  9  1  0
  7  4  1  0
  8  5  1  0
  2 10  1  0
  3 11  1  0
  3 12  1  0
  4 13  1  0
  5 14  1  0
  6 15  1  0
  6 16  1  0
  7 17  1  0
  8 18  1  0
  9 19  1  0
M  END
