
     RDKit          3D

 17 18  0  0  0  0  0  0  0  0999 V2000
    3.6710   -0.1817   -0.5586 O   0  0  0  0  0  0  0  0  0  0  0  0
    2.5930   -0.5668   -0.9469 C   0  0  0  0  0  0  0  0  0  0  0  0
    1.3778    0.1596   -0.6179 C   0  0  0  0  0  0  0  0  0  0  0  0
    0.8388   -0.0768    0.7993 C   0  0  0  0  0  0  0  0  0  0  0  0
   -0.4230    0.0352    0.0523 C   0  0  0  0  0  0  0  0  0  0  0  0
   -1.4509    1.0269    0.1981 C   0  0  0  0  0  0  0  0  0  0  0  0
   -1.6704   -0.4534    0.5851 C   0  0  0  0  0  0  0  0  0  0  0  0
   -2.6536   -1.0874   -0.1439 O   0  0  0  0  0  0  0  0  0  0  0  0
    0.1805   -0.3575   -1.1084 O   0  0  0  0  0  0  0  0  0  0  0  0
    2.5657   -1.4606   -1.5410 H   0  0  0  0  0  0  0  0  0  0  0  0
    1.4294    1.2509   -0.7890 H   0  0  0  0  0  0  0  0  0  0  0  0
    1.0094   -1.0987    1.1808 H   0  0  0  0  0  0  0  0  0  0  0  0
    1.0801    0.7513    1.5052 H   0  0  0  0  0  0  0  0  0  0  0  0
   -2.0135    1.4019   -0.6777 H   0  0  0  0  0  0  0  0  0  0  0  0
   -1.4372    1.7437    1.0388 H   0  0  0  0  0  0  0  0  0  0  0  0
   -1.7042   -0.6475    1.6953 H   0  0  0  0  0  0  0  0  0  0  0  0
   -3.3929   -0.4392   -0.2651 H   0  0  0  0  0  0  0  0  0  0  0  0
  1  2  2  0
  2  3  1  0
  3  4  1  0
  4  5  1  0
  5  6  1  0
  6  7  1  0
  7  8  1  0
  5  9  1  0
  9  3  1  0
  7  5  1  0
  2 10  1  0
  3 11  1  0
  4 12  1  0
  4 13  1  0
  6 14  1  0
  6 15  1  0
  7 16  1  0
  8 17  1  0
M  END
