
     RDKit          3D

 19 19  0  0  0  0  0  0  0  0999 V2000
    2.5955    1.0151   -0.9070 O   0  0  0  0  0  0  0  0  0  0  0  0
    2.6095    0.2026    0.0011 C   0  0  0  0  0  0  0  0  0  0  0  0
    1.4908   -0.7204    0.2786 C   0  0  0  0  0  0  0  0  0  0  0  0
    0.3429   -0.5802   -0.6396 C   0  0  0  0  0  0  0  0  0  0  0  0
   -0.6727   -1.4800   -0.3193 O   0  0  0  0  0  0  0  0  0  0  0  0
   -1.5550   -0.5827   -0.9409 C   0  0  0  0  0  0  0  0  0  0  0  0
   -0.6181    0.5281   -0.4922 C   0  0  0  0  0  0  0  0  0  0  0  0
   -0.9695    1.0188    0.8588 C   0  0  0  0  0  0  0  0  0  0  0  0
   -1.5396    0.0728    1.6931 O   0  0  0  0  0  0  0  0  0  0  0  0
    3.5029    0.1857    0.6138 H   0  0  0  0  0  0  0  0  0  0  0  0
    1.2520   -0.6617    1.3474 H   0  0  0  0  0  0  0  0  0  0  0  0
    1.9056   -1.7638    0.1314 H   0  0  0  0  0  0  0  0  0  0  0  0
    0.6416   -0.7297   -1.6907 H   0  0  0  0  0  0  0  0  0  0  0  0
   -1.4931   -0.7581   -2.0401 H   0  0  0  0  0  0  0  0  0  0  0  0
   -2.5645   -0.5471   -0.5192 H   0  0  0  0  0  0  0  0  0  0  0  0
   -0.6207    1.3357   -1.2390 H   0  0  0  0  0  0  0  0  0  0  0  0
   -0.0790    1.4495    1.3645 H   0  0  0  0  0  0  0  0  0  0  0  0
   -1.7048    1.8437    0.7563 H   0  0  0  0  0  0  0  0  0  0  0  0
   -2.5237    0.1719    1.7432 H   0  0  0  0  0  0  0  0  0  0  0  0
  1  2  2  0
  2  3  1  0
  3  4  1  0
  4  5  1  0
  5  6  1  0
  6  7  1  0
  7  8  1  0
  8  9  1  0
  7  4  1  0
  2 10  1  0
  3 11  1  0
  3 12  1  0
  4 13  1  0
  6 14  1  0
  6 15  1  0
  7 16  1  0
  8 17  1  0
  8 18  1  0
  9 19  1  0
M  END
