
     RDKit          3D

 17 18  0  0  0  0  0  0  0  0999 V2000
    2.9816    0.1838   -1.0590 O   0  0  0  0  0  0  0  0  0  0  0  0
    2.4390   -0.3384   -0.1167 C   0  0  0  0  0  0  0  0  0  0  0  0
    1.3993    0.3029    0.7132 C   0  0  0  0  0  0  0  0  0  0  0  0
    0.0997    0.2368   -0.0761 C   0  0  0  0  0  0  0  0  0  0  0  0
   -0.4449   -1.1166   -0.4641 C   0  0  0  0  0  0  0  0  0  0  0  0
   -1.7841   -1.1078   -0.1052 O   0  0  0  0  0  0  0  0  0  0  0  0
   -2.2280    0.1932   -0.1086 C   0  0  0  0  0  0  0  0  0  0  0  0
   -0.9985    1.0472    0.2316 C   0  0  0  0  0  0  0  0  0  0  0  0
   -0.1786    1.3359   -0.8507 O   0  0  0  0  0  0  0  0  0  0  0  0
    2.7363   -1.3506    0.1383 H   0  0  0  0  0  0  0  0  0  0  0  0
    1.6023    1.3777    0.9088 H   0  0  0  0  0  0  0  0  0  0  0  0
    1.2810   -0.2218    1.6754 H   0  0  0  0  0  0  0  0  0  0  0  0
   -0.3327   -1.3506   -1.5308 H   0  0  0  0  0  0  0  0  0  0  0  0
    0.1269   -1.8840    0.1130 H   0  0  0  0  0  0  0  0  0  0  0  0
   -3.0232    0.3348    0.6509 H   0  0  0  0  0  0  0  0  0  0  0  0
   -2.5772    0.5262   -1.1157 H   0  0  0  0  0  0  0  0  0  0  0  0
   -1.0991    1.8314    0.9957 H   0  0  0  0  0  0  0  0  0  0  0  0
  1  2  2  0
  2  3  1  0
  3  4  1  0
  4  5  1  0
  5  6  1  0
  6  7  1  0
  7  8  1  0
  8  9  1  0
  8  4  1  0
  9  4  1  0
  2 10  1  0
  3 11  1  0
  3 12  1  0
  5 13  1  0
  5 14  1  0
  7 15  1  0
  7 16  1  0
  8 17  1  0
M  END
