
     RDKit          3D

 21 21  0  0  0  0  0  0  0  0999 V2000
    2.7156   -2.3163   -0.8939 O   0  0  0  0  0  0  0  0  0  0  0  0
    2.1719   -1.4394   -0.2829 C   0  0  0  0  0  0  0  0  0  0  0  0
    0.6938   -1.1647   -0.3994 C   0  0  0  0  0  0  0  0  0  0  0  0
    0.3061   -0.0064    0.4860 C   0  0  0  0  0  0  0  0  0  0  0  0
    1.0686    1.2600    0.0872 C   0  0  0  0  0  0  0  0  0  0  0  0
    0.6492    2.2764    0.9551 O   0  0  0  0  0  0  0  0  0  0  0  0
   -1.1559    0.2264    0.5821 C   0  0  0  0  0  0  0  0  0  0  0  0
   -2.0181    0.5368   -0.5700 C   0  0  0  0  0  0  0  0  0  0  0  0
   -2.0521   -0.8188    0.0397 C   0  0  0  0  0  0  0  0  0  0  0  0
    2.7465   -0.8259    0.3693 H   0  0  0  0  0  0  0  0  0  0  0  0
    0.3960   -0.9529   -1.4434 H   0  0  0  0  0  0  0  0  0  0  0  0
    0.2004   -2.0725   -0.0485 H   0  0  0  0  0  0  0  0  0  0  0  0
    0.6793   -0.2550    1.5013 H   0  0  0  0  0  0  0  0  0  0  0  0
    0.9284    1.5128   -0.9715 H   0  0  0  0  0  0  0  0  0  0  0  0
    2.1505    1.1323    0.2601 H   0  0  0  0  0  0  0  0  0  0  0  0
    1.1820    3.0861    0.7285 H   0  0  0  0  0  0  0  0  0  0  0  0
   -1.4814    0.6465    1.5780 H   0  0  0  0  0  0  0  0  0  0  0  0
   -1.6091    0.6444   -1.6034 H   0  0  0  0  0  0  0  0  0  0  0  0
   -2.8533    1.2436   -0.3854 H   0  0  0  0  0  0  0  0  0  0  0  0
   -1.7134   -1.6680   -0.5727 H   0  0  0  0  0  0  0  0  0  0  0  0
   -3.0050   -1.0452    0.5839 H   0  0  0  0  0  0  0  0  0  0  0  0
  1  2  2  0
  2  3  1  0
  3  4  1  0
  4  5  1  0
  5  6  1  0
  4  7  1  0
  7  8  1  0
  8  9  1  0
  9  7  1  0
  2 10  1  0
  3 11  1  0
  3 12  1  0
  4 13  1  0
  5 14  1  0
  5 15  1  0
  6 16  1  0
  7 17  1  0
  8 18  1  0
  8 19  1  0
  9 20  1  0
  9 21  1  0
M  END
