
     RDKit          3D

 18 18  0  0  0  0  0  0  0  0999 V2000
   -3.5915   -0.8419   -0.1707 O   0  0  0  0  0  0  0  0  0  0  0  0
   -2.4065   -0.6196    0.0319 C   0  0  0  0  0  0  0  0  0  0  0  0
   -1.5845   -0.0523   -1.0615 C   0  0  0  0  0  0  0  0  0  0  0  0
   -0.1629    0.1693   -0.6761 C   0  0  0  0  0  0  0  0  0  0  0  0
    0.5669   -1.0982   -0.2501 C   0  0  0  0  0  0  0  0  0  0  0  0
    0.3666    0.0480    0.6799 C   0  0  0  0  0  0  0  0  0  0  0  0
    1.6580    0.8177    0.9903 C   0  0  0  0  0  0  0  0  0  0  0  0
    2.7011    0.4036    0.1662 O   0  0  0  0  0  0  0  0  0  0  0  0
   -2.0434   -0.8616    1.0197 H   0  0  0  0  0  0  0  0  0  0  0  0
   -1.5986   -0.7816   -1.9127 H   0  0  0  0  0  0  0  0  0  0  0  0
   -2.0569    0.8749   -1.4700 H   0  0  0  0  0  0  0  0  0  0  0  0
    0.3939    0.8336   -1.3807 H   0  0  0  0  0  0  0  0  0  0  0  0
   -0.0088   -2.0270   -0.1239 H   0  0  0  0  0  0  0  0  0  0  0  0
    1.5694   -1.2589   -0.7160 H   0  0  0  0  0  0  0  0  0  0  0  0
   -0.2643   -0.0490    1.5879 H   0  0  0  0  0  0  0  0  0  0  0  0
    1.4496    1.8721    0.7767 H   0  0  0  0  0  0  0  0  0  0  0  0
    1.9840    0.6487    2.0346 H   0  0  0  0  0  0  0  0  0  0  0  0
    3.0279   -0.4646    0.4743 H   0  0  0  0  0  0  0  0  0  0  0  0
  1  2  2  0
  2  3  1  0
  3  4  1  0
  4  5  1  0
  5  6  1  0
  6  7  1  0
  7  8  1  0
  6  4  1  0
  2  9  1  0
  3 10  1  0
  3 11  1  0
  4 12  1  0
  5 13  1  0
  5 14  1  0
  6 15  1  0
  7 16  1  0
  7 17  1  0
  8 18  1  0
M  END
