
     RDKit          3D

 15 16  0  0  0  0  0  0  0  0999 V2000
    3.0320    1.0356    0.0236 O   0  0  0  0  0  0  0  0  0  0  0  0
    2.3850   -0.0050    0.2852 C   0  0  0  0  0  0  0  0  0  0  0  0
    0.9570   -0.0189    0.0278 C   0  0  0  0  0  0  0  0  0  0  0  0
    0.2511    0.9835   -0.4684 C   0  0  0  0  0  0  0  0  0  0  0  0
   -1.1612    0.6031   -0.5888 C   0  0  0  0  0  0  0  0  0  0  0  0
   -1.8899    1.3350    0.3671 O   0  0  0  0  0  0  0  0  0  0  0  0
   -1.2567   -0.8564   -0.2162 C   0  0  0  0  0  0  0  0  0  0  0  0
   -0.4795   -1.7943   -0.8406 O   0  0  0  0  0  0  0  0  0  0  0  0
    0.0505   -1.1867    0.2882 C   0  0  0  0  0  0  0  0  0  0  0  0
    2.8338   -0.8949    0.6930 H   0  0  0  0  0  0  0  0  0  0  0  0
    0.6380    1.9517   -0.7513 H   0  0  0  0  0  0  0  0  0  0  0  0
   -1.6005    0.8287   -1.5791 H   0  0  0  0  0  0  0  0  0  0  0  0
   -1.7701    0.9023    1.2303 H   0  0  0  0  0  0  0  0  0  0  0  0
   -2.1892   -1.1389    0.3170 H   0  0  0  0  0  0  0  0  0  0  0  0
    0.1996   -1.7448    1.2124 H   0  0  0  0  0  0  0  0  0  0  0  0
  1  2  2  0
  2  3  1  0
  3  4  2  0
  4  5  1  0
  5  6  1  0
  5  7  1  0
  7  8  1  0
  8  9  1  0
  9  3  1  0
  9  7  1  0
  2 10  1  0
  4 11  1  0
  5 12  1  0
  6 13  1  0
  7 14  1  0
  9 15  1  0
M  END
