
     RDKit          3D

 17 17  0  0  0  0  0  0  0  0999 V2000
   -2.6029    2.1659    0.2663 O   0  0  0  0  0  0  0  0  0  0  0  0
   -2.3972    0.9427    0.0490 C   0  0  0  0  0  0  0  0  0  0  0  0
   -1.0790    0.3408    0.1024 C   0  0  0  0  0  0  0  0  0  0  0  0
    0.0230    0.9877    0.3769 C   0  0  0  0  0  0  0  0  0  0  0  0
    1.1987    0.0901    0.3524 C   0  0  0  0  0  0  0  0  0  0  0  0
    2.1026    0.5781   -0.7060 C   0  0  0  0  0  0  0  0  0  0  0  0
    2.6053   -0.1049   -1.5697 O   0  0  0  0  0  0  0  0  0  0  0  0
    0.6716   -1.2867    0.0992 C   0  0  0  0  0  0  0  0  0  0  0  0
   -0.8103   -1.0972   -0.1495 C   0  0  0  0  0  0  0  0  0  0  0  0
   -3.2984    0.3600   -0.1861 H   0  0  0  0  0  0  0  0  0  0  0  0
    0.0924    2.0452    0.5973 H   0  0  0  0  0  0  0  0  0  0  0  0
    1.7076    0.1316    1.3567 H   0  0  0  0  0  0  0  0  0  0  0  0
    2.3328    1.6519   -0.7020 H   0  0  0  0  0  0  0  0  0  0  0  0
    1.1560   -1.7494   -0.8030 H   0  0  0  0  0  0  0  0  0  0  0  0
    0.7987   -1.9721    0.9812 H   0  0  0  0  0  0  0  0  0  0  0  0
   -1.4126   -1.6772    0.5675 H   0  0  0  0  0  0  0  0  0  0  0  0
   -1.0884   -1.4066   -1.1751 H   0  0  0  0  0  0  0  0  0  0  0  0
  1  2  2  0
  2  3  1  0
  3  4  2  0
  4  5  1  0
  5  6  1  0
  6  7  2  0
  5  8  1  0
  8  9  1  0
  9  3  1  0
  2 10  1  0
  4 11  1  0
  5 12  1  0
  6 13  1  0
  8 14  1  0
  8 15  1  0
  9 16  1  0
  9 17  1  0
M  END
