
     RDKit          3D

 16 16  0  0  0  0  0  0  0  0999 V2000
   -2.9764    1.0815    1.1242 O   0  0  0  0  0  0  0  0  0  0  0  0
   -2.9873    0.1906    0.3142 C   0  0  0  0  0  0  0  0  0  0  0  0
   -1.7285   -0.3526   -0.2438 C   0  0  0  0  0  0  0  0  0  0  0  0
   -0.6046    0.2696    0.2651 O   0  0  0  0  0  0  0  0  0  0  0  0
    0.5238   -0.2901   -0.3014 C   0  0  0  0  0  0  0  0  0  0  0  0
    1.8060   -0.3561    0.4417 C   0  0  0  0  0  0  0  0  0  0  0  0
    1.6455    0.7046   -0.5786 C   0  0  0  0  0  0  0  0  0  0  0  0
    2.2120    0.5798   -1.8409 O   0  0  0  0  0  0  0  0  0  0  0  0
   -3.9223   -0.2252   -0.0164 H   0  0  0  0  0  0  0  0  0  0  0  0
   -1.6899   -0.2424   -1.3543 H   0  0  0  0  0  0  0  0  0  0  0  0
   -1.6099   -1.4462   -0.0323 H   0  0  0  0  0  0  0  0  0  0  0  0
    0.3722   -1.1155   -1.0445 H   0  0  0  0  0  0  0  0  0  0  0  0
    1.7819    0.0134    1.5011 H   0  0  0  0  0  0  0  0  0  0  0  0
    2.4970   -1.1906    0.3007 H   0  0  0  0  0  0  0  0  0  0  0  0
    1.4909    1.7568   -0.2713 H   0  0  0  0  0  0  0  0  0  0  0  0
    3.1896    0.6223   -1.8372 H   0  0  0  0  0  0  0  0  0  0  0  0
  1  2  2  0
  2  3  1  0
  3  4  1  0
  4  5  1  0
  5  6  1  0
  6  7  1  0
  7  8  1  0
  7  5  1  0
  2  9  1  0
  3 10  1  0
  3 11  1  0
  5 12  1  0
  6 13  1  0
  6 14  1  0
  7 15  1  0
  8 16  1  0
M  END
