
     RDKit          3D

 17 19  0  0  0  0  0  0  0  0999 V2000
    1.4152   -0.8127    1.5541 O   0  0  0  0  0  0  0  0  0  0  0  0
    1.8653   -0.6778    0.4328 C   0  0  0  0  0  0  0  0  0  0  0  0
    0.9771    0.0117   -0.5698 C   0  0  0  0  0  0  0  0  0  0  0  0
    0.4573    1.2465    0.1210 C   0  0  0  0  0  0  0  0  0  0  0  0
   -0.9360    0.8617    0.5389 C   0  0  0  0  0  0  0  0  0  0  0  0
   -1.3001   -0.5563    0.7711 C   0  0  0  0  0  0  0  0  0  0  0  0
   -0.5052   -1.5941    0.3096 O   0  0  0  0  0  0  0  0  0  0  0  0
   -0.2160   -0.8690   -0.8631 C   0  0  0  0  0  0  0  0  0  0  0  0
   -1.3797   -0.0074   -0.5683 C   0  0  0  0  0  0  0  0  0  0  0  0
    2.8392   -1.0237    0.1525 H   0  0  0  0  0  0  0  0  0  0  0  0
    1.5429    0.2811   -1.4825 H   0  0  0  0  0  0  0  0  0  0  0  0
    1.0948    1.5954    0.9348 H   0  0  0  0  0  0  0  0  0  0  0  0
    0.3398    2.0255   -0.6825 H   0  0  0  0  0  0  0  0  0  0  0  0
   -1.6375    1.6110    0.8908 H   0  0  0  0  0  0  0  0  0  0  0  0
   -2.1355   -0.7866    1.4271 H   0  0  0  0  0  0  0  0  0  0  0  0
   -0.1869   -1.4431   -1.7823 H   0  0  0  0  0  0  0  0  0  0  0  0
   -2.2348    0.1377   -1.1843 H   0  0  0  0  0  0  0  0  0  0  0  0
  1  2  2  0
  2  3  1  0
  3  4  1  0
  4  5  1  0
  5  6  1  0
  6  7  1  0
  7  8  1  0
  8  9  1  0
  8  3  1  0
  9  5  1  0
  9  6  1  0
  2 10  1  0
  3 11  1  0
  4 12  1  0
  4 13  1  0
  5 14  1  0
  6 15  1  0
  8 16  1  0
  9 17  1  0
M  END
