
     RDKit          3D

 19 20  0  0  0  0  0  0  0  0999 V2000
    3.0791    0.6647    0.4199 O   0  0  0  0  0  0  0  0  0  0  0  0
    2.2260   -0.1841    0.4989 C   0  0  0  0  0  0  0  0  0  0  0  0
    1.0734   -0.1190   -0.3792 C   0  0  0  0  0  0  0  0  0  0  0  0
    0.3369    1.2097   -0.3091 C   0  0  0  0  0  0  0  0  0  0  0  0
   -1.1214    0.8230   -0.3648 C   0  0  0  0  0  0  0  0  0  0  0  0
   -1.4747    0.3461    0.9988 C   0  0  0  0  0  0  0  0  0  0  0  0
   -0.7538   -0.7539    1.1920 C   0  0  0  0  0  0  0  0  0  0  0  0
   -0.0220   -1.0943   -0.0849 C   0  0  0  0  0  0  0  0  0  0  0  0
   -1.0742   -0.5466   -1.0717 C   0  0  0  0  0  0  0  0  0  0  0  0
    2.3327   -0.9706    1.2142 H   0  0  0  0  0  0  0  0  0  0  0  0
    1.3423   -0.2327   -1.4670 H   0  0  0  0  0  0  0  0  0  0  0  0
    0.5757    1.6249    0.7073 H   0  0  0  0  0  0  0  0  0  0  0  0
    0.6393    1.9038   -1.1033 H   0  0  0  0  0  0  0  0  0  0  0  0
   -1.7847    1.5205   -0.8116 H   0  0  0  0  0  0  0  0  0  0  0  0
   -2.1743    0.8346    1.6421 H   0  0  0  0  0  0  0  0  0  0  0  0
   -0.7180   -1.2940    2.1233 H   0  0  0  0  0  0  0  0  0  0  0  0
    0.1896   -2.1325   -0.2128 H   0  0  0  0  0  0  0  0  0  0  0  0
   -1.9767   -1.1231   -0.9110 H   0  0  0  0  0  0  0  0  0  0  0  0
   -0.6952   -0.4766   -2.0811 H   0  0  0  0  0  0  0  0  0  0  0  0
  1  2  2  0
  2  3  1  0
  3  4  1  0
  4  5  1  0
  5  6  1  0
  6  7  2  0
  7  8  1  0
  8  9  1  0
  8  3  1  0
  9  5  1  0
  2 10  1  0
  3 11  1  0
  4 12  1  0
  4 13  1  0
  5 14  1  0
  6 15  1  0
  7 16  1  0
  8 17  1  0
  9 18  1  0
  9 19  1  0
M  END
