
     RDKit          3D

 15 15  0  0  0  0  0  0  0  0999 V2000
    2.2153   -0.9038    1.6264 O   0  0  0  0  0  0  0  0  0  0  0  0
    2.3668   -0.5009    0.4664 C   0  0  0  0  0  0  0  0  0  0  0  0
    1.3388    0.3043   -0.1777 C   0  0  0  0  0  0  0  0  0  0  0  0
    1.4868    0.7163   -1.3552 O   0  0  0  0  0  0  0  0  0  0  0  0
    0.1083    0.6469    0.5462 C   0  0  0  0  0  0  0  0  0  0  0  0
   -0.7337   -0.5508    0.8588 C   0  0  0  0  0  0  0  0  0  0  0  0
   -1.6924   -0.6272   -0.0476 C   0  0  0  0  0  0  0  0  0  0  0  0
   -1.5018    0.5131   -0.9729 C   0  0  0  0  0  0  0  0  0  0  0  0
   -0.7594    1.4237   -0.2310 O   0  0  0  0  0  0  0  0  0  0  0  0
    3.2846   -0.7637   -0.0561 H   0  0  0  0  0  0  0  0  0  0  0  0
    0.3079    1.1979    1.4837 H   0  0  0  0  0  0  0  0  0  0  0  0
   -0.5749   -1.2261    1.6837 H   0  0  0  0  0  0  0  0  0  0  0  0
   -2.4933   -1.3992   -0.1091 H   0  0  0  0  0  0  0  0  0  0  0  0
   -2.4781    0.9205   -1.2955 H   0  0  0  0  0  0  0  0  0  0  0  0
   -0.8748    0.2490   -1.8503 H   0  0  0  0  0  0  0  0  0  0  0  0
  1  2  2  0
  2  3  1  0
  3  4  2  0
  3  5  1  0
  5  6  1  0
  6  7  2  0
  7  8  1  0
  8  9  1  0
  9  5  1  0
  2 10  1  0
  5 11  1  0
  6 12  1  0
  7 13  1  0
  8 14  1  0
  8 15  1  0
M  END
