
     RDKit          3D

 17 17  0  0  0  0  0  0  0  0999 V2000
    2.0481    3.0424    0.6539 O   0  0  0  0  0  0  0  0  0  0  0  0
    1.6067    2.8136   -0.5887 C   0  0  0  0  0  0  0  0  0  0  0  0
    2.0328    1.4703   -1.0325 C   0  0  0  0  0  0  0  0  0  0  0  0
    1.2580    0.3420   -0.6583 C   0  0  0  0  0  0  0  0  0  0  0  0
    0.5584   -0.6469   -0.3419 C   0  0  0  0  0  0  0  0  0  0  0  0
   -0.2181   -1.7860    0.0258 C   0  0  0  0  0  0  0  0  0  0  0  0
   -1.6506   -1.6823    0.1145 C   0  0  0  0  0  0  0  0  0  0  0  0
   -2.4030   -0.6964    0.9558 C   0  0  0  0  0  0  0  0  0  0  0  0
   -2.2815   -2.0163    1.3416 O   0  0  0  0  0  0  0  0  0  0  0  0
    1.0943    3.6329   -0.9104 H   0  0  0  0  0  0  0  0  0  0  0  0
    3.1116    1.3181   -0.7603 H   0  0  0  0  0  0  0  0  0  0  0  0
    2.0790    1.4178   -2.2173 H   0  0  0  0  0  0  0  0  0  0  0  0
    0.0366   -2.5708   -0.8792 H   0  0  0  0  0  0  0  0  0  0  0  0
    0.2976   -2.3861    0.8509 H   0  0  0  0  0  0  0  0  0  0  0  0
   -2.2351   -1.9529   -0.8474 H   0  0  0  0  0  0  0  0  0  0  0  0
   -1.9538    0.0318    1.6296 H   0  0  0  0  0  0  0  0  0  0  0  0
   -3.3809   -0.3312    0.4116 H   0  0  0  0  0  0  0  0  0  0  0  0
  1  2  2  0
  2  3  1  0
  3  4  1  0
  4  5  3  0
  5  6  1  0
  6  7  1  0
  7  8  1  0
  8  9  1  0
  9  7  1  0
  2 10  1  0
  3 11  1  0
  3 12  1  0
  6 13  1  0
  6 14  1  0
  7 15  1  0
  8 16  1  0
  8 17  1  0
M  END
