
     RDKit          3D

 19 20  0  0  0  0  0  0  0  0999 V2000
    2.7922   -0.9606    0.3304 O   0  0  0  0  0  0  0  0  0  0  0  0
    2.3975    0.1512    0.6191 C   0  0  0  0  0  0  0  0  0  0  0  0
    1.4638    0.8420   -0.2979 C   0  0  0  0  0  0  0  0  0  0  0  0
    0.1286    1.0480    0.4063 C   0  0  0  0  0  0  0  0  0  0  0  0
   -0.6694   -0.1074   -0.1215 C   0  0  0  0  0  0  0  0  0  0  0  0
   -2.0820   -0.0141   -0.4820 C   0  0  0  0  0  0  0  0  0  0  0  0
   -1.6712   -0.7301    0.7664 C   0  0  0  0  0  0  0  0  0  0  0  0
    0.2518   -0.9095   -0.9819 C   0  0  0  0  0  0  0  0  0  0  0  0
    1.2093    0.0241   -1.3774 O   0  0  0  0  0  0  0  0  0  0  0  0
    2.6970    0.6666    1.5214 H   0  0  0  0  0  0  0  0  0  0  0  0
    1.8693    1.7935   -0.6900 H   0  0  0  0  0  0  0  0  0  0  0  0
    0.2178    0.9255    1.5077 H   0  0  0  0  0  0  0  0  0  0  0  0
   -0.3113    2.0301    0.1763 H   0  0  0  0  0  0  0  0  0  0  0  0
   -2.6247    0.9542   -0.4275 H   0  0  0  0  0  0  0  0  0  0  0  0
   -2.4283   -0.6849   -1.3195 H   0  0  0  0  0  0  0  0  0  0  0  0
   -1.9088   -0.1803    1.7229 H   0  0  0  0  0  0  0  0  0  0  0  0
   -1.7483   -1.8136    0.8699 H   0  0  0  0  0  0  0  0  0  0  0  0
    0.6900   -1.7190   -0.3534 H   0  0  0  0  0  0  0  0  0  0  0  0
   -0.2731   -1.3159   -1.8694 H   0  0  0  0  0  0  0  0  0  0  0  0
  1  2  2  0
  2  3  1  0
  3  4  1  0
  4  5  1  0
  5  6  1  0
  6  7  1  0
  5  8  1  0
  8  9  1  0
  9  3  1  0
  7  5  1  0
  2 10  1  0
  3 11  1  0
  4 12  1  0
  4 13  1  0
  6 14  1  0
  6 15  1  0
  7 16  1  0
  7 17  1  0
  8 18  1  0
  8 19  1  0
M  END
