
     RDKit          3D

 19 19  0  0  0  0  0  0  0  0999 V2000
   -0.8039   -2.3374    0.9289 O   0  0  0  0  0  0  0  0  0  0  0  0
   -1.4184   -1.3675    0.5985 C   0  0  0  0  0  0  0  0  0  0  0  0
   -1.0231   -0.2839   -0.2845 C   0  0  0  0  0  0  0  0  0  0  0  0
   -1.3375    1.0367    0.4277 C   0  0  0  0  0  0  0  0  0  0  0  0
   -0.0986    1.6356    0.6410 O   0  0  0  0  0  0  0  0  0  0  0  0
    0.5907    1.3680   -0.5202 C   0  0  0  0  0  0  0  0  0  0  0  0
    0.3231   -0.1280   -0.7458 C   0  0  0  0  0  0  0  0  0  0  0  0
    1.4492   -0.8671   -0.1408 C   0  0  0  0  0  0  0  0  0  0  0  0
    1.5808   -0.5672    1.2274 O   0  0  0  0  0  0  0  0  0  0  0  0
   -2.4177   -1.2914    1.0242 H   0  0  0  0  0  0  0  0  0  0  0  0
   -1.7437   -0.3041   -1.1585 H   0  0  0  0  0  0  0  0  0  0  0  0
   -1.8348    0.8803    1.3886 H   0  0  0  0  0  0  0  0  0  0  0  0
   -1.9310    1.7162   -0.1816 H   0  0  0  0  0  0  0  0  0  0  0  0
    1.6878    1.5372   -0.3902 H   0  0  0  0  0  0  0  0  0  0  0  0
    0.2689    1.9707   -1.3877 H   0  0  0  0  0  0  0  0  0  0  0  0
    0.3956   -0.2364   -1.8661 H   0  0  0  0  0  0  0  0  0  0  0  0
    1.4308   -1.9522   -0.2118 H   0  0  0  0  0  0  0  0  0  0  0  0
    2.4032   -0.5394   -0.6099 H   0  0  0  0  0  0  0  0  0  0  0  0
    2.4788   -0.2702    1.4686 H   0  0  0  0  0  0  0  0  0  0  0  0
  1  2  2  0
  2  3  1  0
  3  4  1  0
  4  5  1  0
  5  6  1  0
  6  7  1  0
  7  8  1  0
  8  9  1  0
  7  3  1  0
  2 10  1  0
  3 11  1  0
  4 12  1  0
  4 13  1  0
  6 14  1  0
  6 15  1  0
  7 16  1  0
  8 17  1  0
  8 18  1  0
  9 19  1  0
M  END
