
     RDKit          3D

 17 17  0  0  0  0  0  0  0  0999 V2000
   -2.0318   -1.3909   -0.8763 O   0  0  0  0  0  0  0  0  0  0  0  0
   -1.4659   -1.0219    0.1369 C   0  0  0  0  0  0  0  0  0  0  0  0
   -0.9093    0.3346    0.2929 C   0  0  0  0  0  0  0  0  0  0  0  0
   -1.3092    1.1614   -0.8669 C   0  0  0  0  0  0  0  0  0  0  0  0
   -1.5956    0.6127   -1.9067 O   0  0  0  0  0  0  0  0  0  0  0  0
    0.5973    0.3529    0.3320 C   0  0  0  0  0  0  0  0  0  0  0  0
    1.1279    1.6401    0.4801 O   0  0  0  0  0  0  0  0  0  0  0  0
    1.4055   -0.7788    0.7391 C   0  0  0  0  0  0  0  0  0  0  0  0
    1.2458   -0.5430   -0.7197 C   0  0  0  0  0  0  0  0  0  0  0  0
   -1.3873   -1.7498    0.9365 H   0  0  0  0  0  0  0  0  0  0  0  0
   -1.3521    0.7935    1.2166 H   0  0  0  0  0  0  0  0  0  0  0  0
   -1.3601    2.2338   -0.8369 H   0  0  0  0  0  0  0  0  0  0  0  0
    0.9477    2.0038    1.3753 H   0  0  0  0  0  0  0  0  0  0  0  0
    2.4352   -0.5463    1.1267 H   0  0  0  0  0  0  0  0  0  0  0  0
    1.0183   -1.7252    1.1564 H   0  0  0  0  0  0  0  0  0  0  0  0
    2.0491   -0.0968   -1.3330 H   0  0  0  0  0  0  0  0  0  0  0  0
    0.5846   -1.2801   -1.2527 H   0  0  0  0  0  0  0  0  0  0  0  0
  1  2  2  0
  2  3  1  0
  3  4  1  0
  4  5  2  0
  3  6  1  0
  6  7  1  0
  6  8  1  0
  8  9  1  0
  9  6  1  0
  2 10  1  0
  3 11  1  0
  4 12  1  0
  7 13  1  0
  8 14  1  0
  8 15  1  0
  9 16  1  0
  9 17  1  0
M  END
