
     RDKit          3D

 19 19  0  0  0  0  0  0  0  0999 V2000
    3.4405   -0.8253   -0.3305 O   0  0  0  0  0  0  0  0  0  0  0  0
    2.7741    0.2116   -0.0289 C   0  0  0  0  0  0  0  0  0  0  0  0
    1.3190    0.1358   -0.0811 C   0  0  0  0  0  0  0  0  0  0  0  0
    0.7860   -1.0118   -0.4404 C   0  0  0  0  0  0  0  0  0  0  0  0
   -0.6199   -1.4307   -0.5959 C   0  0  0  0  0  0  0  0  0  0  0  0
   -1.4217   -0.7656    0.5282 C   0  0  0  0  0  0  0  0  0  0  0  0
   -1.7675    0.6373    0.0414 C   0  0  0  0  0  0  0  0  0  0  0  0
   -0.6658    1.5749    0.3295 C   0  0  0  0  0  0  0  0  0  0  0  0
    0.6250    1.3802    0.2827 C   0  0  0  0  0  0  0  0  0  0  0  0
    3.2749    1.1026    0.2519 H   0  0  0  0  0  0  0  0  0  0  0  0
    1.5068   -1.7769   -0.6584 H   0  0  0  0  0  0  0  0  0  0  0  0
   -1.0654   -1.0931   -1.5566 H   0  0  0  0  0  0  0  0  0  0  0  0
   -0.7693   -2.5156   -0.5109 H   0  0  0  0  0  0  0  0  0  0  0  0
   -2.3625   -1.2999    0.7077 H   0  0  0  0  0  0  0  0  0  0  0  0
   -0.7866   -0.6470    1.4293 H   0  0  0  0  0  0  0  0  0  0  0  0
   -2.6731    0.9694    0.5460 H   0  0  0  0  0  0  0  0  0  0  0  0
   -1.8685    0.5877   -1.0667 H   0  0  0  0  0  0  0  0  0  0  0  0
   -0.9880    2.5588    0.6187 H   0  0  0  0  0  0  0  0  0  0  0  0
    1.2620    2.2075    0.5340 H   0  0  0  0  0  0  0  0  0  0  0  0
  1  2  2  0
  2  3  1  0
  3  4  2  0
  4  5  1  0
  5  6  1  0
  6  7  1  0
  7  8  1  0
  8  9  2  0
  9  3  1  0
  2 10  1  0
  4 11  1  0
  5 12  1  0
  5 13  1  0
  6 14  1  0
  6 15  1  0
  7 16  1  0
  7 17  1  0
  8 18  1  0
  9 19  1  0
M  END
