
     RDKit          3D

 19 19  0  0  0  0  0  0  0  0999 V2000
   -3.1083   -1.5064    0.0355 O   0  0  0  0  0  0  0  0  0  0  0  0
   -1.9457   -1.2873   -0.2610 C   0  0  0  0  0  0  0  0  0  0  0  0
   -1.4601    0.0959   -0.1682 C   0  0  0  0  0  0  0  0  0  0  0  0
   -0.0216    0.4043   -0.5288 C   0  0  0  0  0  0  0  0  0  0  0  0
    0.9153   -0.3827    0.3807 C   0  0  0  0  0  0  0  0  0  0  0  0
    2.3606   -0.0726    0.0181 C   0  0  0  0  0  0  0  0  0  0  0  0
    2.6501   -0.4109   -1.2942 O   0  0  0  0  0  0  0  0  0  0  0  0
   -2.0942    0.9866    0.8294 C   0  0  0  0  0  0  0  0  0  0  0  0
   -2.3402    1.1206   -0.5647 O   0  0  0  0  0  0  0  0  0  0  0  0
   -1.3552   -2.1342   -0.5722 H   0  0  0  0  0  0  0  0  0  0  0  0
    0.2009    1.4736   -0.3375 H   0  0  0  0  0  0  0  0  0  0  0  0
    0.1897    0.1790   -1.6069 H   0  0  0  0  0  0  0  0  0  0  0  0
    0.7618    0.0301    1.4059 H   0  0  0  0  0  0  0  0  0  0  0  0
    0.7040   -1.4631    0.3626 H   0  0  0  0  0  0  0  0  0  0  0  0
    3.0637   -0.5483    0.7297 H   0  0  0  0  0  0  0  0  0  0  0  0
    2.4959    1.0217    0.1180 H   0  0  0  0  0  0  0  0  0  0  0  0
    3.5598   -0.0685   -1.4808 H   0  0  0  0  0  0  0  0  0  0  0  0
   -1.5899    1.8843    1.2321 H   0  0  0  0  0  0  0  0  0  0  0  0
   -2.9865    0.6778    1.4039 H   0  0  0  0  0  0  0  0  0  0  0  0
  1  2  2  0
  2  3  1  0
  3  4  1  0
  4  5  1  0
  5  6  1  0
  6  7  1  0
  3  8  1  0
  8  9  1  0
  9  3  1  0
  2 10  1  0
  4 11  1  0
  4 12  1  0
  5 13  1  0
  5 14  1  0
  6 15  1  0
  6 16  1  0
  7 17  1  0
  8 18  1  0
  8 19  1  0
M  END
