
     RDKit          3D

 19 19  0  0  0  0  0  0  0  0999 V2000
    2.7992   -1.5962    0.0529 O   0  0  0  0  0  0  0  0  0  0  0  0
    2.8911   -0.3833    0.0611 C   0  0  0  0  0  0  0  0  0  0  0  0
    1.6765    0.4438   -0.1482 C   0  0  0  0  0  0  0  0  0  0  0  0
    0.5053   -0.4517   -0.3397 C   0  0  0  0  0  0  0  0  0  0  0  0
    0.3726   -1.2366    0.8172 O   0  0  0  0  0  0  0  0  0  0  0  0
   -0.7844    0.2585   -0.6157 C   0  0  0  0  0  0  0  0  0  0  0  0
   -1.4067    1.2137    0.2833 C   0  0  0  0  0  0  0  0  0  0  0  0
   -1.9703   -0.1520    0.1777 C   0  0  0  0  0  0  0  0  0  0  0  0
   -3.2016   -0.3566   -0.4667 O   0  0  0  0  0  0  0  0  0  0  0  0
    3.8512    0.1162    0.2195 H   0  0  0  0  0  0  0  0  0  0  0  0
    1.5303    1.0250    0.7996 H   0  0  0  0  0  0  0  0  0  0  0  0
    1.8756    1.1097   -1.0095 H   0  0  0  0  0  0  0  0  0  0  0  0
    0.7447   -1.1601   -1.1600 H   0  0  0  0  0  0  0  0  0  0  0  0
    0.2696   -0.6960    1.6325 H   0  0  0  0  0  0  0  0  0  0  0  0
   -0.9782    0.4031   -1.7136 H   0  0  0  0  0  0  0  0  0  0  0  0
   -2.0453    2.0179   -0.1439 H   0  0  0  0  0  0  0  0  0  0  0  0
   -0.9013    1.5403    1.2263 H   0  0  0  0  0  0  0  0  0  0  0  0
   -1.8776   -0.7673    1.0954 H   0  0  0  0  0  0  0  0  0  0  0  0
   -3.3507   -1.3284   -0.4937 H   0  0  0  0  0  0  0  0  0  0  0  0
  1  2  2  0
  2  3  1  0
  3  4  1  0
  4  5  1  0
  4  6  1  0
  6  7  1  0
  7  8  1  0
  8  9  1  0
  8  6  1  0
  2 10  1  0
  3 11  1  0
  3 12  1  0
  4 13  1  0
  5 14  1  0
  6 15  1  0
  7 16  1  0
  7 17  1  0
  8 18  1  0
  9 19  1  0
M  END
