
     RDKit          3D

 19 19  0  0  0  0  0  0  0  0999 V2000
    3.1415   -0.7380   -1.2595 O   0  0  0  0  0  0  0  0  0  0  0  0
    2.5826   -0.1101   -0.3870 C   0  0  0  0  0  0  0  0  0  0  0  0
    1.1331    0.0513   -0.4434 C   0  0  0  0  0  0  0  0  0  0  0  0
    0.4533   -1.2222   -0.1545 C   0  0  0  0  0  0  0  0  0  0  0  0
   -0.8292   -1.4959   -0.2190 C   0  0  0  0  0  0  0  0  0  0  0  0
   -1.9693   -0.6577   -0.5860 C   0  0  0  0  0  0  0  0  0  0  0  0
   -1.7267    0.7910   -0.4113 C   0  0  0  0  0  0  0  0  0  0  0  0
   -0.7209    1.5049    0.0337 C   0  0  0  0  0  0  0  0  0  0  0  0
    0.6014    1.0661    0.5459 C   0  0  0  0  0  0  0  0  0  0  0  0
    3.1874    0.3055    0.3999 H   0  0  0  0  0  0  0  0  0  0  0  0
    0.8683    0.3897   -1.4766 H   0  0  0  0  0  0  0  0  0  0  0  0
    1.0870   -2.0310    0.1475 H   0  0  0  0  0  0  0  0  0  0  0  0
   -1.0651   -2.5266    0.0500 H   0  0  0  0  0  0  0  0  0  0  0  0
   -2.2171   -0.8861   -1.6605 H   0  0  0  0  0  0  0  0  0  0  0  0
   -2.8520   -0.9424    0.0595 H   0  0  0  0  0  0  0  0  0  0  0  0
   -2.5733    1.4168   -0.7211 H   0  0  0  0  0  0  0  0  0  0  0  0
   -0.8499    2.5755    0.0381 H   0  0  0  0  0  0  0  0  0  0  0  0
    1.2825    1.9115    0.6952 H   0  0  0  0  0  0  0  0  0  0  0  0
    0.4664    0.5976    1.5619 H   0  0  0  0  0  0  0  0  0  0  0  0
  1  2  2  0
  2  3  1  0
  3  4  1  0
  4  5  2  0
  5  6  1  0
  6  7  1  0
  7  8  2  0
  8  9  1  0
  9  3  1  0
  2 10  1  0
  3 11  1  0
  4 12  1  0
  5 13  1  0
  6 14  1  0
  6 15  1  0
  7 16  1  0
  8 17  1  0
  9 18  1  0
  9 19  1  0
M  END
