
     RDKit          3D

 17 18  0  0  0  0  0  0  0  0999 V2000
    2.6555    0.7205   -0.1634 O   0  0  0  0  0  0  0  0  0  0  0  0
    1.8821   -0.1840   -0.3866 C   0  0  0  0  0  0  0  0  0  0  0  0
    0.8806   -0.6087    0.6150 C   0  0  0  0  0  0  0  0  0  0  0  0
    0.1312   -1.6415    0.1284 O   0  0  0  0  0  0  0  0  0  0  0  0
   -0.9689   -1.1384   -0.5269 C   0  0  0  0  0  0  0  0  0  0  0  0
   -1.4293    0.0095    0.3415 C   0  0  0  0  0  0  0  0  0  0  0  0
   -1.6155    1.2133   -0.2751 O   0  0  0  0  0  0  0  0  0  0  0  0
   -0.2243    1.3872   -0.3318 C   0  0  0  0  0  0  0  0  0  0  0  0
   -0.0963    0.5042    0.8627 C   0  0  0  0  0  0  0  0  0  0  0  0
    1.9103   -0.7009   -1.3289 H   0  0  0  0  0  0  0  0  0  0  0  0
    1.3497   -0.8411    1.6048 H   0  0  0  0  0  0  0  0  0  0  0  0
   -1.7434   -1.9515   -0.5231 H   0  0  0  0  0  0  0  0  0  0  0  0
   -0.8005   -0.8505   -1.5678 H   0  0  0  0  0  0  0  0  0  0  0  0
   -2.1554   -0.2858    1.1160 H   0  0  0  0  0  0  0  0  0  0  0  0
    0.1792    0.9826   -1.2766 H   0  0  0  0  0  0  0  0  0  0  0  0
    0.1358    2.4005   -0.1185 H   0  0  0  0  0  0  0  0  0  0  0  0
   -0.0907    0.9845    1.8303 H   0  0  0  0  0  0  0  0  0  0  0  0
  1  2  2  0
  2  3  1  0
  3  4  1  0
  4  5  1  0
  5  6  1  0
  6  7  1  0
  7  8  1  0
  8  9  1  0
  9  3  1  0
  9  6  1  0
  2 10  1  0
  3 11  1  0
  5 12  1  0
  5 13  1  0
  6 14  1  0
  8 15  1  0
  8 16  1  0
  9 17  1  0
M  END
