
     RDKit          3D

 19 19  0  0  0  0  0  0  0  0999 V2000
   -3.4618    0.2053    0.5328 O   0  0  0  0  0  0  0  0  0  0  0  0
   -2.3971   -0.1419    0.0571 C   0  0  0  0  0  0  0  0  0  0  0  0
   -1.1505    0.4444    0.5920 C   0  0  0  0  0  0  0  0  0  0  0  0
   -1.3152    1.3595    1.6129 O   0  0  0  0  0  0  0  0  0  0  0  0
   -0.1687   -0.6787    0.9459 C   0  0  0  0  0  0  0  0  0  0  0  0
    0.4321   -0.5128   -0.4045 C   0  0  0  0  0  0  0  0  0  0  0  0
    1.9305   -0.5869   -0.4905 C   0  0  0  0  0  0  0  0  0  0  0  0
    2.5748    0.3725    0.2627 O   0  0  0  0  0  0  0  0  0  0  0  0
   -0.1764    0.8504   -0.4950 C   0  0  0  0  0  0  0  0  0  0  0  0
   -2.4243   -0.8693   -0.7404 H   0  0  0  0  0  0  0  0  0  0  0  0
   -1.2710    2.2683    1.2189 H   0  0  0  0  0  0  0  0  0  0  0  0
    0.4390   -0.4054    1.8159 H   0  0  0  0  0  0  0  0  0  0  0  0
   -0.6507   -1.6588    1.1023 H   0  0  0  0  0  0  0  0  0  0  0  0
   -0.0235   -1.2089   -1.1397 H   0  0  0  0  0  0  0  0  0  0  0  0
    2.2427   -1.6019   -0.1414 H   0  0  0  0  0  0  0  0  0  0  0  0
    2.2266   -0.5297   -1.5576 H   0  0  0  0  0  0  0  0  0  0  0  0
    3.4422   -0.0364    0.5802 H   0  0  0  0  0  0  0  0  0  0  0  0
   -0.7156    1.0254   -1.4531 H   0  0  0  0  0  0  0  0  0  0  0  0
    0.4666    1.7048   -0.2649 H   0  0  0  0  0  0  0  0  0  0  0  0
  1  2  2  0
  2  3  1  0
  3  4  1  0
  3  5  1  0
  5  6  1  0
  6  7  1  0
  7  8  1  0
  6  9  1  0
  9  3  1  0
  2 10  1  0
  4 11  1  0
  5 12  1  0
  5 13  1  0
  6 14  1  0
  7 15  1  0
  7 16  1  0
  8 17  1  0
  9 18  1  0
  9 19  1  0
M  END
