
     RDKit          3D

 13 14  0  0  0  0  0  0  0  0999 V2000
    2.5332   -1.3898   -0.1625 O   0  0  0  0  0  0  0  0  0  0  0  0
    2.0800   -0.2809    0.1696 C   0  0  0  0  0  0  0  0  0  0  0  0
    0.6244   -0.0775    0.1427 C   0  0  0  0  0  0  0  0  0  0  0  0
   -0.0070    1.0440    0.4672 C   0  0  0  0  0  0  0  0  0  0  0  0
   -1.4443    0.7358    0.2634 C   0  0  0  0  0  0  0  0  0  0  0  0
   -2.3766    1.1631    0.9490 O   0  0  0  0  0  0  0  0  0  0  0  0
   -1.3415   -0.1532   -0.9111 C   0  0  0  0  0  0  0  0  0  0  0  0
   -1.1678   -1.4230   -1.1150 O   0  0  0  0  0  0  0  0  0  0  0  0
   -0.3698   -1.0729   -0.1570 C   0  0  0  0  0  0  0  0  0  0  0  0
    2.7457    0.5006    0.4667 H   0  0  0  0  0  0  0  0  0  0  0  0
    0.4313    1.9952    0.8267 H   0  0  0  0  0  0  0  0  0  0  0  0
   -0.9436    0.4434   -1.7830 H   0  0  0  0  0  0  0  0  0  0  0  0
   -0.7641   -1.4847    0.8433 H   0  0  0  0  0  0  0  0  0  0  0  0
  1  2  2  0
  2  3  1  0
  3  4  2  0
  4  5  1  0
  5  6  2  0
  5  7  1  0
  7  8  1  0
  8  9  1  0
  9  3  1  0
  9  7  1  0
  2 10  1  0
  4 11  1  0
  7 12  1  0
  9 13  1  0
M  END
