
     RDKit          3D

 21 22  0  0  0  0  0  0  0  0999 V2000
   -2.4873   -1.9755   -0.8705 O   0  0  0  0  0  0  0  0  0  0  0  0
   -1.8566   -1.1390   -0.2568 C   0  0  0  0  0  0  0  0  0  0  0  0
   -1.8673    0.2612   -0.6834 C   0  0  0  0  0  0  0  0  0  0  0  0
   -1.9823    1.2283    0.4990 C   0  0  0  0  0  0  0  0  0  0  0  0
   -0.7856    1.2269   -0.4141 C   0  0  0  0  0  0  0  0  0  0  0  0
    0.5141    0.8781    0.2214 C   0  0  0  0  0  0  0  0  0  0  0  0
    1.3315   -0.1330   -0.5205 C   0  0  0  0  0  0  0  0  0  0  0  0
    2.6587   -0.4550    0.1682 C   0  0  0  0  0  0  0  0  0  0  0  0
    1.5573   -1.4532    0.1383 C   0  0  0  0  0  0  0  0  0  0  0  0
   -1.2951   -1.4675    0.6057 H   0  0  0  0  0  0  0  0  0  0  0  0
   -2.4988    0.4771   -1.5903 H   0  0  0  0  0  0  0  0  0  0  0  0
   -1.8923    0.8555    1.5184 H   0  0  0  0  0  0  0  0  0  0  0  0
   -2.7762    1.9874    0.3656 H   0  0  0  0  0  0  0  0  0  0  0  0
   -0.7489    2.1245   -1.0682 H   0  0  0  0  0  0  0  0  0  0  0  0
    1.1253    1.8045    0.3049 H   0  0  0  0  0  0  0  0  0  0  0  0
    0.3753    0.5224    1.2662 H   0  0  0  0  0  0  0  0  0  0  0  0
    1.3963   -0.1022   -1.6211 H   0  0  0  0  0  0  0  0  0  0  0  0
    3.5581   -0.5819   -0.4877 H   0  0  0  0  0  0  0  0  0  0  0  0
    2.8731   -0.0010    1.1554 H   0  0  0  0  0  0  0  0  0  0  0  0
    1.7618   -2.3556   -0.4812 H   0  0  0  0  0  0  0  0  0  0  0  0
    1.0388   -1.7022    1.0805 H   0  0  0  0  0  0  0  0  0  0  0  0
  1  2  2  0
  2  3  1  0
  3  4  1  0
  4  5  1  0
  5  6  1  0
  6  7  1  0
  7  8  1  0
  8  9  1  0
  5  3  1  0
  9  7  1  0
  2 10  1  0
  3 11  1  0
  4 12  1  0
  4 13  1  0
  5 14  1  0
  6 15  1  0
  6 16  1  0
  7 17  1  0
  8 18  1  0
  8 19  1  0
  9 20  1  0
  9 21  1  0
M  END
