
     RDKit          3D

 14 15  0  0  0  0  0  0  0  0999 V2000
    2.2462   -1.2740   -0.6692 O   0  0  0  0  0  0  0  0  0  0  0  0
    1.7866   -0.3713    0.0512 C   0  0  0  0  0  0  0  0  0  0  0  0
    0.4879   -0.0104    0.0584 C   0  0  0  0  0  0  0  0  0  0  0  0
   -0.6348   -0.5879    0.8791 C   0  0  0  0  0  0  0  0  0  0  0  0
   -1.2847    0.4609    0.0212 C   0  0  0  0  0  0  0  0  0  0  0  0
   -0.4623   -0.1164   -1.1094 C   0  0  0  0  0  0  0  0  0  0  0  0
   -0.1203    1.2911    0.3060 C   0  0  0  0  0  0  0  0  0  0  0  0
    0.1510    2.4145    0.5848 O   0  0  0  0  0  0  0  0  0  0  0  0
    2.5614    0.0950    0.6780 H   0  0  0  0  0  0  0  0  0  0  0  0
   -0.9332   -1.6025    0.5461 H   0  0  0  0  0  0  0  0  0  0  0  0
   -0.6059   -0.4012    1.9506 H   0  0  0  0  0  0  0  0  0  0  0  0
   -2.2529    0.7039   -0.0154 H   0  0  0  0  0  0  0  0  0  0  0  0
   -0.2834    0.5692   -1.9328 H   0  0  0  0  0  0  0  0  0  0  0  0
   -0.6555   -1.1711   -1.3486 H   0  0  0  0  0  0  0  0  0  0  0  0
  1  2  2  0
  2  3  1  0
  3  4  1  0
  4  5  1  0
  5  6  1  0
  5  7  1  0
  7  8  2  0
  6  3  1  0
  7  3  1  0
  2  9  1  0
  4 10  1  0
  4 11  1  0
  5 12  1  0
  6 13  1  0
  6 14  1  0
M  END
