
     RDKit          3D

 18 19  0  0  0  0  0  0  0  0999 V2000
    1.8420    1.6679    0.0270 O   0  0  0  0  0  0  0  0  0  0  0  0
    2.2299    0.6083    0.5001 C   0  0  0  0  0  0  0  0  0  0  0  0
    1.2504   -0.5231    0.6027 C   0  0  0  0  0  0  0  0  0  0  0  0
    0.0049   -0.2183    0.1390 C   0  0  0  0  0  0  0  0  0  0  0  0
   -0.3368    0.2200   -1.2830 C   0  0  0  0  0  0  0  0  0  0  0  0
   -1.6743    0.1459   -0.5753 C   0  0  0  0  0  0  0  0  0  0  0  0
   -1.1711   -1.1555   -0.0140 C   0  0  0  0  0  0  0  0  0  0  0  0
   -0.9749    0.7997    0.5809 C   0  0  0  0  0  0  0  0  0  0  0  0
    3.2483    0.5505    0.8140 H   0  0  0  0  0  0  0  0  0  0  0  0
    1.7436   -1.3696    0.0389 H   0  0  0  0  0  0  0  0  0  0  0  0
    1.2864   -0.8479    1.6635 H   0  0  0  0  0  0  0  0  0  0  0  0
   -0.0620    1.2470   -1.5346 H   0  0  0  0  0  0  0  0  0  0  0  0
   -0.1285   -0.5698   -2.0038 H   0  0  0  0  0  0  0  0  0  0  0  0
   -2.5708    0.3499   -0.9597 H   0  0  0  0  0  0  0  0  0  0  0  0
   -1.6324   -1.5070    0.9051 H   0  0  0  0  0  0  0  0  0  0  0  0
   -0.9526   -1.8936   -0.7947 H   0  0  0  0  0  0  0  0  0  0  0  0
   -1.4377    0.6710    1.5756 H   0  0  0  0  0  0  0  0  0  0  0  0
   -0.6643    1.8246    0.3182 H   0  0  0  0  0  0  0  0  0  0  0  0
  1  2  2  0
  2  3  1  0
  3  4  1  0
  4  5  1  0
  5  6  1  0
  6  7  1  0
  6  8  1  0
  7  4  1  0
  8  4  1  0
  2  9  1  0
  3 10  1  0
  3 11  1  0
  5 12  1  0
  5 13  1  0
  6 14  1  0
  7 15  1  0
  7 16  1  0
  8 17  1  0
  8 18  1  0
M  END
