
     RDKit          3D

 19 19  0  0  0  0  0  0  0  0999 V2000
    1.8023    0.4852   -1.7298 O   0  0  0  0  0  0  0  0  0  0  0  0
    2.4255    0.2008   -0.7430 C   0  0  0  0  0  0  0  0  0  0  0  0
    1.8933   -0.6130    0.3395 C   0  0  0  0  0  0  0  0  0  0  0  0
    0.4743   -1.0432    0.3143 C   0  0  0  0  0  0  0  0  0  0  0  0
   -0.5899   -0.0444    0.3538 C   0  0  0  0  0  0  0  0  0  0  0  0
   -0.7891    0.9757   -0.7140 C   0  0  0  0  0  0  0  0  0  0  0  0
   -2.3255    0.9281   -0.4229 C   0  0  0  0  0  0  0  0  0  0  0  0
   -2.0038   -0.4717    0.0880 C   0  0  0  0  0  0  0  0  0  0  0  0
   -2.5875   -1.5056    0.2365 O   0  0  0  0  0  0  0  0  0  0  0  0
    3.4675    0.6029   -0.6918 H   0  0  0  0  0  0  0  0  0  0  0  0
    2.0824   -0.0353    1.2942 H   0  0  0  0  0  0  0  0  0  0  0  0
    2.5819   -1.5258    0.4581 H   0  0  0  0  0  0  0  0  0  0  0  0
    0.3633   -1.6287   -0.6697 H   0  0  0  0  0  0  0  0  0  0  0  0
    0.3683   -1.8363    1.1094 H   0  0  0  0  0  0  0  0  0  0  0  0
   -0.6444    0.4361    1.4093 H   0  0  0  0  0  0  0  0  0  0  0  0
   -0.7145    0.6107   -1.7624 H   0  0  0  0  0  0  0  0  0  0  0  0
   -0.3236    1.9239   -0.4927 H   0  0  0  0  0  0  0  0  0  0  0  0
   -2.5284    1.6637    0.3620 H   0  0  0  0  0  0  0  0  0  0  0  0
   -2.9521    0.8767   -1.3039 H   0  0  0  0  0  0  0  0  0  0  0  0
  1  2  2  0
  2  3  1  0
  3  4  1  0
  4  5  1  0
  5  6  1  0
  6  7  1  0
  7  8  1  0
  8  9  2  0
  8  5  1  0
  2 10  1  0
  3 11  1  0
  3 12  1  0
  4 13  1  0
  4 14  1  0
  5 15  1  0
  6 16  1  0
  6 17  1  0
  7 18  1  0
  7 19  1  0
M  END
