
     RDKit          3D

 16 16  0  0  0  0  0  0  0  0999 V2000
   -2.7457    0.9278   -0.2874 O   0  0  0  0  0  0  0  0  0  0  0  0
   -2.1967   -0.1344   -0.0770 C   0  0  0  0  0  0  0  0  0  0  0  0
   -0.7522   -0.2407   -0.2155 C   0  0  0  0  0  0  0  0  0  0  0  0
   -0.0418   -0.6361    1.0222 C   0  0  0  0  0  0  0  0  0  0  0  0
    1.2770   -0.5759    0.9772 C   0  0  0  0  0  0  0  0  0  0  0  0
    1.8419   -0.1085   -0.3453 C   0  0  0  0  0  0  0  0  0  0  0  0
    1.2077    1.0366   -0.8063 O   0  0  0  0  0  0  0  0  0  0  0  0
   -0.1411    1.0953   -0.6270 C   0  0  0  0  0  0  0  0  0  0  0  0
   -2.7872   -0.9870    0.2103 H   0  0  0  0  0  0  0  0  0  0  0  0
   -0.4857   -0.9989   -1.0004 H   0  0  0  0  0  0  0  0  0  0  0  0
   -0.5549   -0.9526    1.9043 H   0  0  0  0  0  0  0  0  0  0  0  0
    1.8879   -0.8381    1.8122 H   0  0  0  0  0  0  0  0  0  0  0  0
    1.7026   -0.9242   -1.1078 H   0  0  0  0  0  0  0  0  0  0  0  0
    2.9068    0.0672   -0.1675 H   0  0  0  0  0  0  0  0  0  0  0  0
   -0.4005    1.8087    0.2090 H   0  0  0  0  0  0  0  0  0  0  0  0
   -0.7182    1.4608   -1.5010 H   0  0  0  0  0  0  0  0  0  0  0  0
  1  2  2  0
  2  3  1  0
  3  4  1  0
  4  5  2  0
  5  6  1  0
  6  7  1  0
  7  8  1  0
  8  3  1  0
  2  9  1  0
  3 10  1  0
  4 11  1  0
  5 12  1  0
  6 13  1  0
  6 14  1  0
  8 15  1  0
  8 16  1  0
M  END
