
     RDKit          3D

 15 15  0  0  0  0  0  0  0  0999 V2000
    4.3454    0.4620    0.5542 O   0  0  0  0  0  0  0  0  0  0  0  0
    3.4592   -0.3347    0.1803 C   0  0  0  0  0  0  0  0  0  0  0  0
    2.0770    0.0213    0.1601 C   0  0  0  0  0  0  0  0  0  0  0  0
    0.8988    0.3182    0.1632 C   0  0  0  0  0  0  0  0  0  0  0  0
   -0.5190    0.6824    0.1501 C   0  0  0  0  0  0  0  0  0  0  0  0
   -1.4277   -0.2847    0.8609 C   0  0  0  0  0  0  0  0  0  0  0  0
   -2.3662   -0.1628   -0.3105 C   0  0  0  0  0  0  0  0  0  0  0  0
   -3.5617   -0.2882   -0.4888 O   0  0  0  0  0  0  0  0  0  0  0  0
   -1.1483    0.1793   -1.1319 C   0  0  0  0  0  0  0  0  0  0  0  0
    3.7628   -1.3151   -0.1331 H   0  0  0  0  0  0  0  0  0  0  0  0
   -0.7244    1.7305    0.3810 H   0  0  0  0  0  0  0  0  0  0  0  0
   -0.9694   -1.3009    0.8605 H   0  0  0  0  0  0  0  0  0  0  0  0
   -1.8436    0.0593    1.8180 H   0  0  0  0  0  0  0  0  0  0  0  0
   -0.6557   -0.7294   -1.5212 H   0  0  0  0  0  0  0  0  0  0  0  0
   -1.3272    0.9627   -1.8745 H   0  0  0  0  0  0  0  0  0  0  0  0
  1  2  2  0
  2  3  1  0
  3  4  3  0
  4  5  1  0
  5  6  1  0
  6  7  1  0
  7  8  2  0
  7  9  1  0
  9  5  1  0
  2 10  1  0
  5 11  1  0
  6 12  1  0
  6 13  1  0
  9 14  1  0
  9 15  1  0
M  END
