
     RDKit          3D

 17 18  0  0  0  0  0  0  0  0999 V2000
   -3.2412   -0.6533    1.2927 O   0  0  0  0  0  0  0  0  0  0  0  0
   -3.1555   -0.0857    0.2260 C   0  0  0  0  0  0  0  0  0  0  0  0
   -1.8110    0.2180   -0.3521 C   0  0  0  0  0  0  0  0  0  0  0  0
   -0.8064   -0.2360    0.4951 O   0  0  0  0  0  0  0  0  0  0  0  0
    0.4077    0.0666   -0.0802 C   0  0  0  0  0  0  0  0  0  0  0  0
    1.4926    0.5407    0.8133 C   0  0  0  0  0  0  0  0  0  0  0  0
    2.4673    0.0775   -0.2332 C   0  0  0  0  0  0  0  0  0  0  0  0
    1.4638   -1.0036   -0.0222 C   0  0  0  0  0  0  0  0  0  0  0  0
    1.5527   -0.7444    1.3306 O   0  0  0  0  0  0  0  0  0  0  0  0
   -4.0644    0.1862   -0.2796 H   0  0  0  0  0  0  0  0  0  0  0  0
   -1.7084   -0.2328   -1.3555 H   0  0  0  0  0  0  0  0  0  0  0  0
   -1.7277    1.3318   -0.5028 H   0  0  0  0  0  0  0  0  0  0  0  0
    0.3494    0.5779   -1.0404 H   0  0  0  0  0  0  0  0  0  0  0  0
    1.5433    1.4027    1.3344 H   0  0  0  0  0  0  0  0  0  0  0  0
    3.4922   -0.0927    0.0802 H   0  0  0  0  0  0  0  0  0  0  0  0
    2.3225    0.5513   -1.2332 H   0  0  0  0  0  0  0  0  0  0  0  0
    1.4229   -1.9041   -0.4730 H   0  0  0  0  0  0  0  0  0  0  0  0
  1  2  2  0
  2  3  1  0
  3  4  1  0
  4  5  1  0
  5  6  1  0
  6  7  1  0
  7  8  1  0
  8  9  1  0
  8  5  1  0
  9  6  1  0
  2 10  1  0
  3 11  1  0
  3 12  1  0
  5 13  1  0
  6 14  1  0
  7 15  1  0
  7 16  1  0
  8 17  1  0
M  END
