
     RDKit          3D

 15 15  0  0  0  0  0  0  0  0999 V2000
   -1.4470    0.7515   -1.7074 O   0  0  0  0  0  0  0  0  0  0  0  0
   -1.8908    0.3942   -0.6363 C   0  0  0  0  0  0  0  0  0  0  0  0
   -1.2072   -0.6277    0.2070 C   0  0  0  0  0  0  0  0  0  0  0  0
   -1.9497   -0.8258    1.3647 O   0  0  0  0  0  0  0  0  0  0  0  0
    0.1700   -0.1787    0.5575 C   0  0  0  0  0  0  0  0  0  0  0  0
    0.4305   -0.0574    1.7389 O   0  0  0  0  0  0  0  0  0  0  0  0
    1.1969    0.1141   -0.4731 C   0  0  0  0  0  0  0  0  0  0  0  0
    2.3507    0.8950   -0.1431 C   0  0  0  0  0  0  0  0  0  0  0  0
    2.4436   -0.5895   -0.1648 O   0  0  0  0  0  0  0  0  0  0  0  0
   -2.8107    0.8261   -0.2754 H   0  0  0  0  0  0  0  0  0  0  0  0
   -1.1385   -1.6023   -0.3310 H   0  0  0  0  0  0  0  0  0  0  0  0
   -2.4893   -1.6542    1.3319 H   0  0  0  0  0  0  0  0  0  0  0  0
    0.8440   -0.0318   -1.5047 H   0  0  0  0  0  0  0  0  0  0  0  0
    2.4478    1.3081    0.8822 H   0  0  0  0  0  0  0  0  0  0  0  0
    3.0496    1.2785   -0.8835 H   0  0  0  0  0  0  0  0  0  0  0  0
  1  2  2  0
  2  3  1  0
  3  4  1  0
  3  5  1  0
  5  6  2  0
  5  7  1  0
  7  8  1  0
  8  9  1  0
  9  7  1  0
  2 10  1  0
  3 11  1  0
  4 12  1  0
  7 13  1  0
  8 14  1  0
  8 15  1  0
M  END
