
     RDKit          3D

 15 15  0  0  0  0  0  0  0  0999 V2000
   -1.7623   -1.8565   -2.0784 O   0  0  0  0  0  0  0  0  0  0  0  0
   -2.2597   -1.0295   -1.3434 C   0  0  0  0  0  0  0  0  0  0  0  0
   -1.9001   -0.8337    0.0653 C   0  0  0  0  0  0  0  0  0  0  0  0
   -2.6523    0.1902    0.6228 O   0  0  0  0  0  0  0  0  0  0  0  0
   -0.4537   -0.5206    0.1367 C   0  0  0  0  0  0  0  0  0  0  0  0
    0.7186   -0.2529    0.2106 C   0  0  0  0  0  0  0  0  0  0  0  0
    2.1517    0.1003    0.2962 C   0  0  0  0  0  0  0  0  0  0  0  0
    2.5184    1.4698    0.2388 C   0  0  0  0  0  0  0  0  0  0  0  0
    2.5074    0.7609    1.5521 O   0  0  0  0  0  0  0  0  0  0  0  0
   -3.0247   -0.4004   -1.7844 H   0  0  0  0  0  0  0  0  0  0  0  0
   -2.1149   -1.8008    0.6089 H   0  0  0  0  0  0  0  0  0  0  0  0
   -2.0297    0.7831    1.1307 H   0  0  0  0  0  0  0  0  0  0  0  0
    2.8975   -0.6825    0.0811 H   0  0  0  0  0  0  0  0  0  0  0  0
    1.8259    2.3179    0.2096 H   0  0  0  0  0  0  0  0  0  0  0  0
    3.5778    1.7548    0.0534 H   0  0  0  0  0  0  0  0  0  0  0  0
  1  2  2  0
  2  3  1  0
  3  4  1  0
  3  5  1  0
  5  6  3  0
  6  7  1  0
  7  8  1  0
  8  9  1  0
  9  7  1  0
  2 10  1  0
  3 11  1  0
  4 12  1  0
  7 13  1  0
  8 14  1  0
  8 15  1  0
M  END
