
     RDKit          3D

 17 18  0  0  0  0  0  0  0  0999 V2000
   -1.7487    2.7090   -0.2536 O   0  0  0  0  0  0  0  0  0  0  0  0
   -1.7191    1.4782   -0.0309 C   0  0  0  0  0  0  0  0  0  0  0  0
   -0.4277    0.7993   -0.0873 C   0  0  0  0  0  0  0  0  0  0  0  0
    0.7574    1.3094   -0.3480 C   0  0  0  0  0  0  0  0  0  0  0  0
    1.8175    0.2400   -0.2987 C   0  0  0  0  0  0  0  0  0  0  0  0
    1.1263   -0.7512    0.6586 C   0  0  0  0  0  0  0  0  0  0  0  0
   -0.2600   -0.6456    0.1447 C   0  0  0  0  0  0  0  0  0  0  0  0
   -1.2922   -1.5339    0.1256 C   0  0  0  0  0  0  0  0  0  0  0  0
   -0.4259   -1.4340   -1.0702 O   0  0  0  0  0  0  0  0  0  0  0  0
   -2.6424    0.9751    0.1918 H   0  0  0  0  0  0  0  0  0  0  0  0
    0.9566    2.3449   -0.5677 H   0  0  0  0  0  0  0  0  0  0  0  0
    2.7440    0.6354    0.1365 H   0  0  0  0  0  0  0  0  0  0  0  0
    1.9278   -0.2793   -1.2512 H   0  0  0  0  0  0  0  0  0  0  0  0
    1.5489   -1.7546    0.5628 H   0  0  0  0  0  0  0  0  0  0  0  0
    1.2326   -0.3001    1.6637 H   0  0  0  0  0  0  0  0  0  0  0  0
   -1.2708   -2.5641    0.5646 H   0  0  0  0  0  0  0  0  0  0  0  0
   -2.3243   -1.2284   -0.1407 H   0  0  0  0  0  0  0  0  0  0  0  0
  1  2  2  0
  2  3  1  0
  3  4  2  0
  4  5  1  0
  5  6  1  0
  6  7  1  0
  7  8  1  0
  8  9  1  0
  7  3  1  0
  9  7  1  0
  2 10  1  0
  4 11  1  0
  5 12  1  0
  5 13  1  0
  6 14  1  0
  6 15  1  0
  8 16  1  0
  8 17  1  0
M  END
