
     RDKit          3D

 18 19  0  0  0  0  0  0  0  0999 V2000
   -2.0223   -0.6670   -1.4614 O   0  0  0  0  0  0  0  0  0  0  0  0
   -2.3794   -0.4661   -0.3299 C   0  0  0  0  0  0  0  0  0  0  0  0
   -1.3858    0.0131    0.6699 C   0  0  0  0  0  0  0  0  0  0  0  0
   -0.0703    0.1572    0.0355 C   0  0  0  0  0  0  0  0  0  0  0  0
    0.6410   -1.0058   -0.6033 C   0  0  0  0  0  0  0  0  0  0  0  0
    1.9738   -0.4543   -0.1337 C   0  0  0  0  0  0  0  0  0  0  0  0
    1.1785    0.5322    0.6977 C   0  0  0  0  0  0  0  0  0  0  0  0
    0.4699    1.5454   -0.1258 C   0  0  0  0  0  0  0  0  0  0  0  0
   -3.4245   -0.6415   -0.0691 H   0  0  0  0  0  0  0  0  0  0  0  0
   -1.7590    1.0169    0.9988 H   0  0  0  0  0  0  0  0  0  0  0  0
   -1.4246   -0.6440    1.5585 H   0  0  0  0  0  0  0  0  0  0  0  0
    0.5099   -1.0832   -1.6854 H   0  0  0  0  0  0  0  0  0  0  0  0
    0.4363   -1.9437   -0.0213 H   0  0  0  0  0  0  0  0  0  0  0  0
    2.4908    0.0396   -0.9946 H   0  0  0  0  0  0  0  0  0  0  0  0
    2.6094   -1.1441    0.4213 H   0  0  0  0  0  0  0  0  0  0  0  0
    1.3284    0.6194    1.7645 H   0  0  0  0  0  0  0  0  0  0  0  0
   -0.0284    2.3420    0.4214 H   0  0  0  0  0  0  0  0  0  0  0  0
    0.8565    1.7838   -1.1432 H   0  0  0  0  0  0  0  0  0  0  0  0
  1  2  2  0
  2  3  1  0
  3  4  1  0
  4  5  1  0
  5  6  1  0
  6  7  1  0
  7  8  1  0
  7  4  1  0
  8  4  1  0
  2  9  1  0
  3 10  1  0
  3 11  1  0
  5 12  1  0
  5 13  1  0
  6 14  1  0
  6 15  1  0
  7 16  1  0
  8 17  1  0
  8 18  1  0
M  END
