
     RDKit          3D

 21 21  0  0  0  0  0  0  0  0999 V2000
    3.6182    1.4101    0.6595 O   0  0  0  0  0  0  0  0  0  0  0  0
    3.1641    0.9474   -0.3730 C   0  0  0  0  0  0  0  0  0  0  0  0
    1.7088    0.6660   -0.5439 C   0  0  0  0  0  0  0  0  0  0  0  0
    1.4193   -0.6353    0.1398 C   0  0  0  0  0  0  0  0  0  0  0  0
   -0.0175   -1.0577    0.0531 C   0  0  0  0  0  0  0  0  0  0  0  0
   -0.9652   -0.0753    0.6700 C   0  0  0  0  0  0  0  0  0  0  0  0
   -2.3983   -0.5659    0.5456 C   0  0  0  0  0  0  0  0  0  0  0  0
   -2.6485    0.6693   -0.2770 C   0  0  0  0  0  0  0  0  0  0  0  0
   -1.3029    0.9633   -0.1952 O   0  0  0  0  0  0  0  0  0  0  0  0
    3.8822    0.7499   -1.1671 H   0  0  0  0  0  0  0  0  0  0  0  0
    1.4354    0.6445   -1.6116 H   0  0  0  0  0  0  0  0  0  0  0  0
    1.0861    1.4781   -0.0856 H   0  0  0  0  0  0  0  0  0  0  0  0
    2.0421   -1.4129   -0.3678 H   0  0  0  0  0  0  0  0  0  0  0  0
    1.7933   -0.5824    1.1761 H   0  0  0  0  0  0  0  0  0  0  0  0
   -0.2732   -1.2685   -1.0039 H   0  0  0  0  0  0  0  0  0  0  0  0
   -0.1028   -2.0337    0.5845 H   0  0  0  0  0  0  0  0  0  0  0  0
   -0.6999    0.3335    1.6409 H   0  0  0  0  0  0  0  0  0  0  0  0
   -2.9645   -0.5845    1.5010 H   0  0  0  0  0  0  0  0  0  0  0  0
   -2.4975   -1.5057   -0.0312 H   0  0  0  0  0  0  0  0  0  0  0  0
   -3.3355    1.3625    0.2469 H   0  0  0  0  0  0  0  0  0  0  0  0
   -2.9437    0.4972   -1.3279 H   0  0  0  0  0  0  0  0  0  0  0  0
  1  2  2  0
  2  3  1  0
  3  4  1  0
  4  5  1  0
  5  6  1  0
  6  7  1  0
  7  8  1  0
  8  9  1  0
  9  6  1  0
  2 10  1  0
  3 11  1  0
  3 12  1  0
  4 13  1  0
  4 14  1  0
  5 15  1  0
  5 16  1  0
  6 17  1  0
  7 18  1  0
  7 19  1  0
  8 20  1  0
  8 21  1  0
M  END
