
     RDKit          3D

 19 19  0  0  0  0  0  0  0  0999 V2000
    3.3815   -0.7283    0.7963 O   0  0  0  0  0  0  0  0  0  0  0  0
    2.6346   -0.9040   -0.1388 C   0  0  0  0  0  0  0  0  0  0  0  0
    1.6997    0.1536   -0.5667 C   0  0  0  0  0  0  0  0  0  0  0  0
    0.4604    0.2016    0.3416 C   0  0  0  0  0  0  0  0  0  0  0  0
   -0.4242    1.2916   -0.1610 C   0  0  0  0  0  0  0  0  0  0  0  0
   -1.8654    1.1005    0.2103 C   0  0  0  0  0  0  0  0  0  0  0  0
   -2.2594   -0.1414    0.3787 C   0  0  0  0  0  0  0  0  0  0  0  0
   -1.3504   -1.2683    0.2144 C   0  0  0  0  0  0  0  0  0  0  0  0
   -0.0350   -1.0397    0.4253 O   0  0  0  0  0  0  0  0  0  0  0  0
    2.6574   -1.8416   -0.6585 H   0  0  0  0  0  0  0  0  0  0  0  0
    1.4139   -0.0491   -1.6165 H   0  0  0  0  0  0  0  0  0  0  0  0
    2.2171    1.1309   -0.5683 H   0  0  0  0  0  0  0  0  0  0  0  0
    0.8696    0.5309    1.3424 H   0  0  0  0  0  0  0  0  0  0  0  0
   -0.3258    1.4049   -1.2553 H   0  0  0  0  0  0  0  0  0  0  0  0
   -0.1169    2.2577    0.2900 H   0  0  0  0  0  0  0  0  0  0  0  0
   -2.4847    1.9620    0.3167 H   0  0  0  0  0  0  0  0  0  0  0  0
   -3.2935   -0.3160    0.6472 H   0  0  0  0  0  0  0  0  0  0  0  0
   -1.4723   -1.6386   -0.8473 H   0  0  0  0  0  0  0  0  0  0  0  0
   -1.7068   -2.1069    0.8496 H   0  0  0  0  0  0  0  0  0  0  0  0
  1  2  2  0
  2  3  1  0
  3  4  1  0
  4  5  1  0
  5  6  1  0
  6  7  2  0
  7  8  1  0
  8  9  1  0
  9  4  1  0
  2 10  1  0
  3 11  1  0
  3 12  1  0
  4 13  1  0
  5 14  1  0
  5 15  1  0
  6 16  1  0
  7 17  1  0
  8 18  1  0
  8 19  1  0
M  END
