
     RDKit          3D

 17 18  0  0  0  0  0  0  0  0999 V2000
    2.9355    0.9681   -0.1733 O   0  0  0  0  0  0  0  0  0  0  0  0
    2.3473   -0.0407    0.1195 C   0  0  0  0  0  0  0  0  0  0  0  0
    1.2176   -0.4907   -0.7177 C   0  0  0  0  0  0  0  0  0  0  0  0
    0.0346    0.1866   -0.3942 C   0  0  0  0  0  0  0  0  0  0  0  0
   -1.3140    0.0550   -0.9920 C   0  0  0  0  0  0  0  0  0  0  0  0
   -1.4119    1.0172    0.1564 C   0  0  0  0  0  0  0  0  0  0  0  0
   -0.1823    1.5308   -0.2709 O   0  0  0  0  0  0  0  0  0  0  0  0
   -0.6240    0.0589    0.9667 C   0  0  0  0  0  0  0  0  0  0  0  0
   -1.1479   -1.2043    1.1862 O   0  0  0  0  0  0  0  0  0  0  0  0
    2.6265   -0.6135    0.9724 H   0  0  0  0  0  0  0  0  0  0  0  0
    1.5007   -0.4111   -1.7703 H   0  0  0  0  0  0  0  0  0  0  0  0
    1.0774   -1.6043   -0.5420 H   0  0  0  0  0  0  0  0  0  0  0  0
   -1.8973   -0.8429   -0.8151 H   0  0  0  0  0  0  0  0  0  0  0  0
   -1.3496    0.5015   -2.0062 H   0  0  0  0  0  0  0  0  0  0  0  0
   -2.1997    1.5803    0.4320 H   0  0  0  0  0  0  0  0  0  0  0  0
   -0.0305    0.5139    1.7808 H   0  0  0  0  0  0  0  0  0  0  0  0
   -1.5823   -1.2050    2.0676 H   0  0  0  0  0  0  0  0  0  0  0  0
  1  2  2  0
  2  3  1  0
  3  4  1  0
  4  5  1  0
  5  6  1  0
  6  7  1  0
  6  8  1  0
  8  9  1  0
  7  4  1  0
  8  4  1  0
  2 10  1  0
  3 11  1  0
  3 12  1  0
  5 13  1  0
  5 14  1  0
  6 15  1  0
  8 16  1  0
  9 17  1  0
M  END
