
     RDKit          3D

 14 13  0  0  0  0  0  0  0  0999 V2000
    3.5777    1.7081    1.0545 O   0  0  0  0  0  0  0  0  0  0  0  0
    3.1612    0.5657    0.7359 C   0  0  0  0  0  0  0  0  0  0  0  0
    1.7598    0.3651    0.5502 C   0  0  0  0  0  0  0  0  0  0  0  0
    0.5710    0.1993    0.4135 C   0  0  0  0  0  0  0  0  0  0  0  0
   -0.8664   -0.0190    0.2567 C   0  0  0  0  0  0  0  0  0  0  0  0
   -1.2263   -1.2724    0.7761 O   0  0  0  0  0  0  0  0  0  0  0  0
   -1.1145   -0.0812   -1.2517 C   0  0  0  0  0  0  0  0  0  0  0  0
   -2.4508   -0.3466   -1.4472 O   0  0  0  0  0  0  0  0  0  0  0  0
    3.9166   -0.1998    0.6234 H   0  0  0  0  0  0  0  0  0  0  0  0
   -1.4807    0.7846    0.6852 H   0  0  0  0  0  0  0  0  0  0  0  0
   -1.4758   -1.2026    1.7504 H   0  0  0  0  0  0  0  0  0  0  0  0
   -0.5071   -0.8817   -1.7079 H   0  0  0  0  0  0  0  0  0  0  0  0
   -0.8609    0.8838   -1.7003 H   0  0  0  0  0  0  0  0  0  0  0  0
   -3.0038    0.0721   -0.7387 H   0  0  0  0  0  0  0  0  0  0  0  0
  1  2  2  0
  2  3  1  0
  3  4  3  0
  4  5  1  0
  5  6  1  0
  5  7  1  0
  7  8  1  0
  2  9  1  0
  5 10  1  0
  6 11  1  0
  7 12  1  0
  7 13  1  0
  8 14  1  0
M  END
