
     RDKit          3D

 21 21  0  0  0  0  0  0  0  0999 V2000
    3.2632   -1.1878   -1.0972 O   0  0  0  0  0  0  0  0  0  0  0  0
    2.2960   -0.9873   -0.3326 C   0  0  0  0  0  0  0  0  0  0  0  0
    2.1866    0.3945    0.1585 C   0  0  0  0  0  0  0  0  0  0  0  0
    0.9945    0.7087    0.9944 C   0  0  0  0  0  0  0  0  0  0  0  0
   -0.3099    0.5259    0.3287 C   0  0  0  0  0  0  0  0  0  0  0  0
   -0.7252   -0.8151   -0.1719 C   0  0  0  0  0  0  0  0  0  0  0  0
   -2.1723   -0.3514    0.1657 C   0  0  0  0  0  0  0  0  0  0  0  0
   -2.7191    0.4935   -0.7636 O   0  0  0  0  0  0  0  0  0  0  0  0
   -1.5142    0.4619    1.2817 C   0  0  0  0  0  0  0  0  0  0  0  0
    1.6733   -1.8216   -0.1262 H   0  0  0  0  0  0  0  0  0  0  0  0
    3.1264    0.5874    0.7544 H   0  0  0  0  0  0  0  0  0  0  0  0
    2.2323    1.1065   -0.6981 H   0  0  0  0  0  0  0  0  0  0  0  0
    1.0679    1.8168    1.2338 H   0  0  0  0  0  0  0  0  0  0  0  0
    1.0607    0.2180    1.9967 H   0  0  0  0  0  0  0  0  0  0  0  0
   -0.4509    1.3002   -0.4684 H   0  0  0  0  0  0  0  0  0  0  0  0
   -0.5423   -1.6947    0.4840 H   0  0  0  0  0  0  0  0  0  0  0  0
   -0.6184   -0.9584   -1.2502 H   0  0  0  0  0  0  0  0  0  0  0  0
   -2.8354   -1.1513    0.4782 H   0  0  0  0  0  0  0  0  0  0  0  0
   -2.7668    0.1085   -1.6744 H   0  0  0  0  0  0  0  0  0  0  0  0
   -1.2569   -0.1799    2.1270 H   0  0  0  0  0  0  0  0  0  0  0  0
   -1.9895    1.4256    1.4790 H   0  0  0  0  0  0  0  0  0  0  0  0
  1  2  2  0
  2  3  1  0
  3  4  1  0
  4  5  1  0
  5  6  1  0
  6  7  1  0
  7  8  1  0
  7  9  1  0
  9  5  1  0
  2 10  1  0
  3 11  1  0
  3 12  1  0
  4 13  1  0
  4 14  1  0
  5 15  1  0
  6 16  1  0
  6 17  1  0
  7 18  1  0
  8 19  1  0
  9 20  1  0
  9 21  1  0
M  END
