
     RDKit          3D

 17 18  0  0  0  0  0  0  0  0999 V2000
    2.5472   -1.5809    0.0776 O   0  0  0  0  0  0  0  0  0  0  0  0
    1.8678   -0.5871    0.3187 C   0  0  0  0  0  0  0  0  0  0  0  0
    0.8186   -0.1849   -0.6865 C   0  0  0  0  0  0  0  0  0  0  0  0
    0.3108    1.1935   -0.3192 C   0  0  0  0  0  0  0  0  0  0  0  0
    1.1067    1.9230    0.5268 O   0  0  0  0  0  0  0  0  0  0  0  0
   -0.8191    0.4767    0.4133 C   0  0  0  0  0  0  0  0  0  0  0  0
   -1.7819   -0.1892   -0.4784 C   0  0  0  0  0  0  0  0  0  0  0  0
   -0.4786   -0.8397   -0.3586 C   0  0  0  0  0  0  0  0  0  0  0  0
   -0.4155   -1.9980    0.4058 O   0  0  0  0  0  0  0  0  0  0  0  0
    2.0487   -0.0525    1.2267 H   0  0  0  0  0  0  0  0  0  0  0  0
    1.1585   -0.3065   -1.7219 H   0  0  0  0  0  0  0  0  0  0  0  0
   -0.0897    1.7373   -1.1975 H   0  0  0  0  0  0  0  0  0  0  0  0
    0.5722    2.6946    0.8503 H   0  0  0  0  0  0  0  0  0  0  0  0
   -0.8189    0.4107    1.4946 H   0  0  0  0  0  0  0  0  0  0  0  0
   -2.6402   -0.6723   -0.0154 H   0  0  0  0  0  0  0  0  0  0  0  0
   -2.0624    0.4072   -1.3937 H   0  0  0  0  0  0  0  0  0  0  0  0
   -1.3243   -2.4317    0.3378 H   0  0  0  0  0  0  0  0  0  0  0  0
  1  2  2  0
  2  3  1  0
  3  4  1  0
  4  5  1  0
  4  6  1  0
  6  7  1  0
  7  8  1  0
  8  9  1  0
  8  3  1  0
  8  6  1  0
  2 10  1  0
  3 11  1  0
  4 12  1  0
  5 13  1  0
  6 14  1  0
  7 15  1  0
  7 16  1  0
  9 17  1  0
M  END
