
     RDKit          3D

 17 19  0  0  0  0  0  0  0  0999 V2000
    2.1014    0.9004    1.0189 O   0  0  0  0  0  0  0  0  0  0  0  0
    2.0346    0.0184    0.1748 C   0  0  0  0  0  0  0  0  0  0  0  0
    0.9055   -0.2294   -0.7059 C   0  0  0  0  0  0  0  0  0  0  0  0
    1.1921   -1.2581   -1.4804 O   0  0  0  0  0  0  0  0  0  0  0  0
    0.1892   -1.6100   -0.7247 C   0  0  0  0  0  0  0  0  0  0  0  0
   -0.2764   -1.1640    0.6186 C   0  0  0  0  0  0  0  0  0  0  0  0
   -0.3554    0.1721   -0.0481 C   0  0  0  0  0  0  0  0  0  0  0  0
   -0.5790    1.4433    0.5751 C   0  0  0  0  0  0  0  0  0  0  0  0
   -1.4884    0.8598   -0.5551 C   0  0  0  0  0  0  0  0  0  0  0  0
    2.9176   -0.6046    0.1178 H   0  0  0  0  0  0  0  0  0  0  0  0
   -0.7211   -1.6639   -1.4142 H   0  0  0  0  0  0  0  0  0  0  0  0
   -1.2856   -1.5201    0.9001 H   0  0  0  0  0  0  0  0  0  0  0  0
    0.3996   -1.2777    1.4648 H   0  0  0  0  0  0  0  0  0  0  0  0
    0.0252    2.3330    0.3064 H   0  0  0  0  0  0  0  0  0  0  0  0
   -1.1424    1.6032    1.5262 H   0  0  0  0  0  0  0  0  0  0  0  0
   -2.5092    0.5576   -0.2615 H   0  0  0  0  0  0  0  0  0  0  0  0
   -1.4078    1.4400   -1.5130 H   0  0  0  0  0  0  0  0  0  0  0  0
  1  2  2  0
  2  3  1  0
  3  4  1  0
  4  5  1  0
  5  6  1  0
  6  7  1  0
  7  8  1  0
  8  9  1  0
  5  3  1  0
  9  7  1  0
  7  3  1  0
  2 10  1  0
  5 11  1  0
  6 12  1  0
  6 13  1  0
  8 14  1  0
  8 15  1  0
  9 16  1  0
  9 17  1  0
M  END
