
     RDKit          3D

 19 19  0  0  0  0  0  0  0  0999 V2000
    3.7976   -0.9156   -0.6553 O   0  0  0  0  0  0  0  0  0  0  0  0
    2.8790   -0.1373   -0.4268 C   0  0  0  0  0  0  0  0  0  0  0  0
    1.6446   -0.6704    0.1703 C   0  0  0  0  0  0  0  0  0  0  0  0
    0.6749    0.4915    0.3485 C   0  0  0  0  0  0  0  0  0  0  0  0
   -0.6041    0.0154    0.9533 C   0  0  0  0  0  0  0  0  0  0  0  0
   -1.3114   -1.0031    0.1482 C   0  0  0  0  0  0  0  0  0  0  0  0
   -2.1792   -0.3682   -0.6295 C   0  0  0  0  0  0  0  0  0  0  0  0
   -2.0515    1.0850   -0.3429 C   0  0  0  0  0  0  0  0  0  0  0  0
   -1.5038    1.1038    0.9175 O   0  0  0  0  0  0  0  0  0  0  0  0
    3.0543    0.8994   -0.6883 H   0  0  0  0  0  0  0  0  0  0  0  0
    1.1426   -1.3514   -0.5781 H   0  0  0  0  0  0  0  0  0  0  0  0
    1.7861   -1.2263    1.1041 H   0  0  0  0  0  0  0  0  0  0  0  0
    0.4838    0.9985   -0.5958 H   0  0  0  0  0  0  0  0  0  0  0  0
    1.1565    1.1731    1.0834 H   0  0  0  0  0  0  0  0  0  0  0  0
   -0.5028   -0.2713    2.0064 H   0  0  0  0  0  0  0  0  0  0  0  0
   -1.1716   -2.0824    0.1645 H   0  0  0  0  0  0  0  0  0  0  0  0
   -2.8519   -0.8615   -1.3419 H   0  0  0  0  0  0  0  0  0  0  0  0
   -3.0314    1.6002   -0.3345 H   0  0  0  0  0  0  0  0  0  0  0  0
   -1.4115    1.5205   -1.1313 H   0  0  0  0  0  0  0  0  0  0  0  0
  1  2  2  0
  2  3  1  0
  3  4  1  0
  4  5  1  0
  5  6  1  0
  6  7  2  0
  7  8  1  0
  8  9  1  0
  9  5  1  0
  2 10  1  0
  3 11  1  0
  3 12  1  0
  4 13  1  0
  4 14  1  0
  5 15  1  0
  6 16  1  0
  7 17  1  0
  8 18  1  0
  8 19  1  0
M  END
