
     RDKit          3D

 21 21  0  0  0  0  0  0  0  0999 V2000
   -2.4969    1.2083    0.9352 O   0  0  0  0  0  0  0  0  0  0  0  0
   -2.9183    0.3013    0.2467 C   0  0  0  0  0  0  0  0  0  0  0  0
   -1.9716   -0.5062   -0.5557 C   0  0  0  0  0  0  0  0  0  0  0  0
   -0.5845   -0.0190   -0.3527 C   0  0  0  0  0  0  0  0  0  0  0  0
   -0.0627   -0.0689    1.0675 C   0  0  0  0  0  0  0  0  0  0  0  0
    1.2883   -0.4232    0.4618 C   0  0  0  0  0  0  0  0  0  0  0  0
    2.0518    0.8480    0.2006 C   0  0  0  0  0  0  0  0  0  0  0  0
    3.2979    0.6323   -0.3519 O   0  0  0  0  0  0  0  0  0  0  0  0
    0.5236   -0.9739   -0.7233 C   0  0  0  0  0  0  0  0  0  0  0  0
   -3.9859    0.1314    0.2595 H   0  0  0  0  0  0  0  0  0  0  0  0
   -2.2018   -0.4511   -1.6387 H   0  0  0  0  0  0  0  0  0  0  0  0
   -2.0921   -1.5868   -0.2712 H   0  0  0  0  0  0  0  0  0  0  0  0
   -0.4272    0.9527   -0.8613 H   0  0  0  0  0  0  0  0  0  0  0  0
   -0.0967    0.8792    1.6204 H   0  0  0  0  0  0  0  0  0  0  0  0
   -0.4927   -0.9490    1.5817 H   0  0  0  0  0  0  0  0  0  0  0  0
    1.8706   -1.1573    1.0289 H   0  0  0  0  0  0  0  0  0  0  0  0
    1.4626    1.5633   -0.3950 H   0  0  0  0  0  0  0  0  0  0  0  0
    2.2146    1.3329    1.1999 H   0  0  0  0  0  0  0  0  0  0  0  0
    3.3818    1.1561   -1.2034 H   0  0  0  0  0  0  0  0  0  0  0  0
    0.9838   -0.8290   -1.7032 H   0  0  0  0  0  0  0  0  0  0  0  0
    0.2552   -2.0411   -0.5456 H   0  0  0  0  0  0  0  0  0  0  0  0
  1  2  2  0
  2  3  1  0
  3  4  1  0
  4  5  1  0
  5  6  1  0
  6  7  1  0
  7  8  1  0
  6  9  1  0
  9  4  1  0
  2 10  1  0
  3 11  1  0
  3 12  1  0
  4 13  1  0
  5 14  1  0
  5 15  1  0
  6 16  1  0
  7 17  1  0
  7 18  1  0
  8 19  1  0
  9 20  1  0
  9 21  1  0
M  END
