
     RDKit          3D

 19 18  0  0  0  0  0  0  0  0999 V2000
   -2.8065   -1.1124    1.5568 O   0  0  0  0  0  0  0  0  0  0  0  0
   -2.0628   -0.5664    0.7639 C   0  0  0  0  0  0  0  0  0  0  0  0
   -0.6252   -0.9243    0.6848 C   0  0  0  0  0  0  0  0  0  0  0  0
    0.1087   -0.1239   -0.3473 C   0  0  0  0  0  0  0  0  0  0  0  0
   -0.4631   -0.3494   -1.5972 O   0  0  0  0  0  0  0  0  0  0  0  0
    1.5358   -0.6166   -0.4261 C   0  0  0  0  0  0  0  0  0  0  0  0
    2.2286   -0.4540    0.7541 O   0  0  0  0  0  0  0  0  0  0  0  0
    0.0207    1.3485   -0.0674 C   0  0  0  0  0  0  0  0  0  0  0  0
    0.6969    2.1015   -1.0203 O   0  0  0  0  0  0  0  0  0  0  0  0
   -2.4421    0.1837    0.1103 H   0  0  0  0  0  0  0  0  0  0  0  0
   -0.2038   -0.7332    1.7071 H   0  0  0  0  0  0  0  0  0  0  0  0
   -0.5284   -2.0134    0.4235 H   0  0  0  0  0  0  0  0  0  0  0  0
   -0.3846   -1.3114   -1.8479 H   0  0  0  0  0  0  0  0  0  0  0  0
    2.1017   -0.1242   -1.2364 H   0  0  0  0  0  0  0  0  0  0  0  0
    1.4808   -1.7076   -0.6502 H   0  0  0  0  0  0  0  0  0  0  0  0
    1.7860    0.1538    1.3915 H   0  0  0  0  0  0  0  0  0  0  0  0
    0.3192    1.6119    0.9780 H   0  0  0  0  0  0  0  0  0  0  0  0
   -1.0476    1.6371   -0.1498 H   0  0  0  0  0  0  0  0  0  0  0  0
    0.2856    3.0006   -1.0273 H   0  0  0  0  0  0  0  0  0  0  0  0
  1  2  2  0
  2  3  1  0
  3  4  1  0
  4  5  1  0
  4  6  1  0
  6  7  1  0
  4  8  1  0
  8  9  1  0
  2 10  1  0
  3 11  1  0
  3 12  1  0
  5 13  1  0
  6 14  1  0
  6 15  1  0
  7 16  1  0
  8 17  1  0
  8 18  1  0
  9 19  1  0
M  END
