
     RDKit          3D

 17 16  0  0  0  0  0  0  0  0999 V2000
   -0.7155    1.5965    1.6937 O   0  0  0  0  0  0  0  0  0  0  0  0
   -0.8955    1.2021    0.5550 C   0  0  0  0  0  0  0  0  0  0  0  0
   -0.7304   -0.2531    0.2296 C   0  0  0  0  0  0  0  0  0  0  0  0
   -0.3737   -0.9342    1.3849 O   0  0  0  0  0  0  0  0  0  0  0  0
   -2.0414   -0.7501   -0.2400 C   0  0  0  0  0  0  0  0  0  0  0  0
   -2.5907   -1.6234    0.4001 O   0  0  0  0  0  0  0  0  0  0  0  0
    0.3493   -0.4401   -0.8124 C   0  0  0  0  0  0  0  0  0  0  0  0
    1.6830    0.0815   -0.3351 C   0  0  0  0  0  0  0  0  0  0  0  0
    1.5740    1.4532   -0.0523 O   0  0  0  0  0  0  0  0  0  0  0  0
   -1.1735    1.9308   -0.1959 H   0  0  0  0  0  0  0  0  0  0  0  0
    0.1885   -1.7366    1.1492 H   0  0  0  0  0  0  0  0  0  0  0  0
   -2.5469   -0.3850   -1.1219 H   0  0  0  0  0  0  0  0  0  0  0  0
    0.4668   -1.5035   -1.0842 H   0  0  0  0  0  0  0  0  0  0  0  0
    0.0522    0.1403   -1.7090 H   0  0  0  0  0  0  0  0  0  0  0  0
    2.4787   -0.0583   -1.0863 H   0  0  0  0  0  0  0  0  0  0  0  0
    2.0177   -0.4149    0.5965 H   0  0  0  0  0  0  0  0  0  0  0  0
    2.2576    1.6949    0.6280 H   0  0  0  0  0  0  0  0  0  0  0  0
  1  2  2  0
  2  3  1  0
  3  4  1  0
  3  5  1  0
  5  6  2  0
  3  7  1  0
  7  8  1  0
  8  9  1  0
  2 10  1  0
  4 11  1  0
  5 12  1  0
  7 13  1  0
  7 14  1  0
  8 15  1  0
  8 16  1  0
  9 17  1  0
M  END
