
     RDKit          3D

 16 16  0  0  0  0  0  0  0  0999 V2000
    2.7510    0.3120   -0.7004 O   0  0  0  0  0  0  0  0  0  0  0  0
    2.4040    0.1059    0.4494 C   0  0  0  0  0  0  0  0  0  0  0  0
    0.9902   -0.0960    0.8351 C   0  0  0  0  0  0  0  0  0  0  0  0
    0.1572    0.0060   -0.4254 C   0  0  0  0  0  0  0  0  0  0  0  0
    0.5984   -0.9918   -1.2929 O   0  0  0  0  0  0  0  0  0  0  0  0
   -1.3138   -0.2270   -0.1251 C   0  0  0  0  0  0  0  0  0  0  0  0
   -2.2549    0.8170   -0.2240 C   0  0  0  0  0  0  0  0  0  0  0  0
   -2.1909   -0.2121   -1.2104 O   0  0  0  0  0  0  0  0  0  0  0  0
    3.1539    0.0674    1.2251 H   0  0  0  0  0  0  0  0  0  0  0  0
    0.7162    0.6920    1.5644 H   0  0  0  0  0  0  0  0  0  0  0  0
    0.9158   -1.1018    1.2891 H   0  0  0  0  0  0  0  0  0  0  0  0
    0.2537    0.9681   -0.9224 H   0  0  0  0  0  0  0  0  0  0  0  0
    0.5094   -1.8484   -0.7896 H   0  0  0  0  0  0  0  0  0  0  0  0
   -1.5244   -1.1029    0.5568 H   0  0  0  0  0  0  0  0  0  0  0  0
   -3.1806    0.8103    0.4124 H   0  0  0  0  0  0  0  0  0  0  0  0
   -1.9851    1.8011   -0.6421 H   0  0  0  0  0  0  0  0  0  0  0  0
  1  2  2  0
  2  3  1  0
  3  4  1  0
  4  5  1  0
  4  6  1  0
  6  7  1  0
  7  8  1  0
  8  6  1  0
  2  9  1  0
  3 10  1  0
  3 11  1  0
  4 12  1  0
  5 13  1  0
  6 14  1  0
  7 15  1  0
  7 16  1  0
M  END
