
     RDKit          3D

 19 19  0  0  0  0  0  0  0  0999 V2000
    4.0300    0.8807    0.5234 O   0  0  0  0  0  0  0  0  0  0  0  0
    2.8999    0.4806    0.6973 C   0  0  0  0  0  0  0  0  0  0  0  0
    2.3959   -0.7573    0.0583 C   0  0  0  0  0  0  0  0  0  0  0  0
    1.5895   -1.6159    0.8038 O   0  0  0  0  0  0  0  0  0  0  0  0
    1.0007   -0.9191   -0.2902 C   0  0  0  0  0  0  0  0  0  0  0  0
   -0.0826    0.0207    0.1182 C   0  0  0  0  0  0  0  0  0  0  0  0
   -1.4290   -0.4540   -0.4211 C   0  0  0  0  0  0  0  0  0  0  0  0
   -2.5180    0.5055   -0.0011 C   0  0  0  0  0  0  0  0  0  0  0  0
   -2.1949    1.7611   -0.5333 O   0  0  0  0  0  0  0  0  0  0  0  0
    2.2280    1.0309    1.3337 H   0  0  0  0  0  0  0  0  0  0  0  0
    3.1520   -1.2801   -0.5926 H   0  0  0  0  0  0  0  0  0  0  0  0
    0.7515   -1.5347   -1.1885 H   0  0  0  0  0  0  0  0  0  0  0  0
   -0.2088    0.1177    1.2173 H   0  0  0  0  0  0  0  0  0  0  0  0
    0.0509    1.0530   -0.2700 H   0  0  0  0  0  0  0  0  0  0  0  0
   -1.6112   -1.4845   -0.0878 H   0  0  0  0  0  0  0  0  0  0  0  0
   -1.3197   -0.4805   -1.5251 H   0  0  0  0  0  0  0  0  0  0  0  0
   -2.5155    0.5410    1.1102 H   0  0  0  0  0  0  0  0  0  0  0  0
   -3.4757    0.1928   -0.4145 H   0  0  0  0  0  0  0  0  0  0  0  0
   -2.7430    1.9422   -1.3384 H   0  0  0  0  0  0  0  0  0  0  0  0
  1  2  2  0
  2  3  1  0
  3  4  1  0
  4  5  1  0
  5  6  1  0
  6  7  1  0
  7  8  1  0
  8  9  1  0
  5  3  1  0
  2 10  1  0
  3 11  1  0
  5 12  1  0
  6 13  1  0
  6 14  1  0
  7 15  1  0
  7 16  1  0
  8 17  1  0
  8 18  1  0
  9 19  1  0
M  END
