
     RDKit          3D

 17 18  0  0  0  0  0  0  0  0999 V2000
   -2.3482   -1.4305    0.6160 O   0  0  0  0  0  0  0  0  0  0  0  0
   -1.6908   -1.3861   -0.3994 C   0  0  0  0  0  0  0  0  0  0  0  0
   -0.5674   -0.4753   -0.5038 C   0  0  0  0  0  0  0  0  0  0  0  0
   -0.9409    0.9908   -0.4465 C   0  0  0  0  0  0  0  0  0  0  0  0
    0.4253    1.6018   -0.2672 C   0  0  0  0  0  0  0  0  0  0  0  0
    0.7923    2.5923   -0.8585 O   0  0  0  0  0  0  0  0  0  0  0  0
    1.1034    0.7438    0.7204 C   0  0  0  0  0  0  0  0  0  0  0  0
    1.8383   -0.4771    0.3406 C   0  0  0  0  0  0  0  0  0  0  0  0
    0.3800   -0.5926    0.6531 C   0  0  0  0  0  0  0  0  0  0  0  0
   -1.9582   -2.0329   -1.2143 H   0  0  0  0  0  0  0  0  0  0  0  0
    0.0005   -0.6179   -1.4467 H   0  0  0  0  0  0  0  0  0  0  0  0
   -1.5368    1.2147    0.4649 H   0  0  0  0  0  0  0  0  0  0  0  0
   -1.4255    1.3366   -1.3751 H   0  0  0  0  0  0  0  0  0  0  0  0
    1.2522    1.2014    1.7030 H   0  0  0  0  0  0  0  0  0  0  0  0
    2.5141   -0.8951    1.1086 H   0  0  0  0  0  0  0  0  0  0  0  0
    2.1055   -0.7112   -0.6985 H   0  0  0  0  0  0  0  0  0  0  0  0
    0.0563   -1.0627    1.6035 H   0  0  0  0  0  0  0  0  0  0  0  0
  1  2  2  0
  2  3  1  0
  3  4  1  0
  4  5  1  0
  5  6  2  0
  5  7  1  0
  7  8  1  0
  8  9  1  0
  9  3  1  0
  9  7  1  0
  2 10  1  0
  3 11  1  0
  4 12  1  0
  4 13  1  0
  7 14  1  0
  8 15  1  0
  8 16  1  0
  9 17  1  0
M  END
