
     RDKit          3D

 17 17  0  0  0  0  0  0  0  0999 V2000
   -2.8082   -1.3611    0.0780 O   0  0  0  0  0  0  0  0  0  0  0  0
   -2.2492   -0.4629    0.6803 C   0  0  0  0  0  0  0  0  0  0  0  0
   -1.0465    0.1818    0.1286 C   0  0  0  0  0  0  0  0  0  0  0  0
   -0.5386    1.1832    0.9415 O   0  0  0  0  0  0  0  0  0  0  0  0
    0.6125    1.5416    0.2008 C   0  0  0  0  0  0  0  0  0  0  0  0
    1.3034    0.1972    0.0292 C   0  0  0  0  0  0  0  0  0  0  0  0
    2.1196    0.0048    1.1329 O   0  0  0  0  0  0  0  0  0  0  0  0
    0.1325   -0.7547    0.0065 C   0  0  0  0  0  0  0  0  0  0  0  0
    0.1420   -1.6276    1.0821 O   0  0  0  0  0  0  0  0  0  0  0  0
   -2.6697   -0.1616    1.6286 H   0  0  0  0  0  0  0  0  0  0  0  0
   -1.2906    0.6297   -0.8448 H   0  0  0  0  0  0  0  0  0  0  0  0
    1.1912    2.2475    0.7991 H   0  0  0  0  0  0  0  0  0  0  0  0
    0.2955    1.8977   -0.7829 H   0  0  0  0  0  0  0  0  0  0  0  0
    1.8963    0.1614   -0.9047 H   0  0  0  0  0  0  0  0  0  0  0  0
    3.0690    0.0945    0.8792 H   0  0  0  0  0  0  0  0  0  0  0  0
    0.0648   -1.2629   -0.9575 H   0  0  0  0  0  0  0  0  0  0  0  0
   -0.2238   -2.5085    0.8055 H   0  0  0  0  0  0  0  0  0  0  0  0
  1  2  2  0
  2  3  1  0
  3  4  1  0
  4  5  1  0
  5  6  1  0
  6  7  1  0
  6  8  1  0
  8  9  1  0
  8  3  1  0
  2 10  1  0
  3 11  1  0
  5 12  1  0
  5 13  1  0
  6 14  1  0
  7 15  1  0
  8 16  1  0
  9 17  1  0
M  END
