
     RDKit          3D

 19 20  0  0  0  0  0  0  0  0999 V2000
    0.2945    2.6683    0.3616 O   0  0  0  0  0  0  0  0  0  0  0  0
    0.1333    2.1123   -0.7294 C   0  0  0  0  0  0  0  0  0  0  0  0
    0.1531    0.6501   -0.8563 C   0  0  0  0  0  0  0  0  0  0  0  0
   -1.1041   -0.0297   -0.4242 C   0  0  0  0  0  0  0  0  0  0  0  0
   -1.0534    0.0054    1.1036 C   0  0  0  0  0  0  0  0  0  0  0  0
    0.1701   -0.8592    0.9012 C   0  0  0  0  0  0  0  0  0  0  0  0
   -0.6253   -1.4792   -0.2585 C   0  0  0  0  0  0  0  0  0  0  0  0
    1.1340    0.0122    0.1503 C   0  0  0  0  0  0  0  0  0  0  0  0
    2.0232   -0.8239   -0.5492 O   0  0  0  0  0  0  0  0  0  0  0  0
   -0.0209    2.7975   -1.5650 H   0  0  0  0  0  0  0  0  0  0  0  0
    0.4000    0.3283   -1.8783 H   0  0  0  0  0  0  0  0  0  0  0  0
   -2.0263    0.1380   -0.9058 H   0  0  0  0  0  0  0  0  0  0  0  0
   -0.8961    0.9850    1.5470 H   0  0  0  0  0  0  0  0  0  0  0  0
   -1.8986   -0.6033    1.5082 H   0  0  0  0  0  0  0  0  0  0  0  0
    0.4986   -1.5003    1.6727 H   0  0  0  0  0  0  0  0  0  0  0  0
   -1.4491   -2.1267    0.1012 H   0  0  0  0  0  0  0  0  0  0  0  0
   -0.0189   -1.8591   -1.0793 H   0  0  0  0  0  0  0  0  0  0  0  0
    1.6435    0.7610    0.7510 H   0  0  0  0  0  0  0  0  0  0  0  0
    2.6426   -1.1766    0.1492 H   0  0  0  0  0  0  0  0  0  0  0  0
  1  2  2  0
  2  3  1  0
  3  4  1  0
  4  5  1  0
  5  6  1  0
  6  7  1  0
  6  8  1  0
  8  9  1  0
  8  3  1  0
  7  4  1  0
  2 10  1  0
  3 11  1  0
  4 12  1  0
  5 13  1  0
  5 14  1  0
  6 15  1  0
  7 16  1  0
  7 17  1  0
  8 18  1  0
  9 19  1  0
M  END
