
     RDKit          3D

 13 13  0  0  0  0  0  0  0  0999 V2000
    3.2125    1.8951    1.4664 O   0  0  0  0  0  0  0  0  0  0  0  0
    3.0530    1.4184    0.3156 C   0  0  0  0  0  0  0  0  0  0  0  0
    1.8431    0.7057    0.0353 C   0  0  0  0  0  0  0  0  0  0  0  0
    0.8165    0.0939   -0.2136 C   0  0  0  0  0  0  0  0  0  0  0  0
   -0.4166   -0.6115   -0.5099 C   0  0  0  0  0  0  0  0  0  0  0  0
   -0.8539   -1.3795    0.5819 O   0  0  0  0  0  0  0  0  0  0  0  0
   -2.1649   -1.1310    0.1090 C   0  0  0  0  0  0  0  0  0  0  0  0
   -1.6367    0.2153   -0.3243 C   0  0  0  0  0  0  0  0  0  0  0  0
   -2.0156    1.3436   -0.4473 O   0  0  0  0  0  0  0  0  0  0  0  0
    3.8357    1.5719   -0.3982 H   0  0  0  0  0  0  0  0  0  0  0  0
   -0.4106   -1.2368   -1.4179 H   0  0  0  0  0  0  0  0  0  0  0  0
   -2.3718   -1.8218   -0.7159 H   0  0  0  0  0  0  0  0  0  0  0  0
   -2.8910   -1.0634    0.9197 H   0  0  0  0  0  0  0  0  0  0  0  0
  1  2  2  0
  2  3  1  0
  3  4  3  0
  4  5  1  0
  5  6  1  0
  6  7  1  0
  7  8  1  0
  8  9  2  0
  8  5  1  0
  2 10  1  0
  5 11  1  0
  7 12  1  0
  7 13  1  0
M  END
