
     RDKit          3D

 19 20  0  0  0  0  0  0  0  0999 V2000
    2.9191   -0.6099    1.1006 O   0  0  0  0  0  0  0  0  0  0  0  0
    2.2747   -0.6147    0.0686 C   0  0  0  0  0  0  0  0  0  0  0  0
    0.8951   -0.1123    0.0869 C   0  0  0  0  0  0  0  0  0  0  0  0
   -0.0510   -1.1605   -0.5020 C   0  0  0  0  0  0  0  0  0  0  0  0
   -1.3796   -0.9670    0.2228 C   0  0  0  0  0  0  0  0  0  0  0  0
   -1.6576    0.5371    0.1335 C   0  0  0  0  0  0  0  0  0  0  0  0
   -0.3997    1.2279    0.6219 C   0  0  0  0  0  0  0  0  0  0  0  0
    0.6535    1.2411   -0.4804 C   0  0  0  0  0  0  0  0  0  0  0  0
    0.4319    0.3384    1.3180 O   0  0  0  0  0  0  0  0  0  0  0  0
    2.6886   -0.9754   -0.8497 H   0  0  0  0  0  0  0  0  0  0  0  0
   -0.2095   -0.9832   -1.5860 H   0  0  0  0  0  0  0  0  0  0  0  0
    0.3546   -2.1715   -0.3228 H   0  0  0  0  0  0  0  0  0  0  0  0
   -1.1927   -1.1863    1.3074 H   0  0  0  0  0  0  0  0  0  0  0  0
   -2.1864   -1.5681   -0.1949 H   0  0  0  0  0  0  0  0  0  0  0  0
   -2.5518    0.8309    0.6774 H   0  0  0  0  0  0  0  0  0  0  0  0
   -1.7430    0.7454   -0.9725 H   0  0  0  0  0  0  0  0  0  0  0  0
   -0.5563    2.1956    1.1083 H   0  0  0  0  0  0  0  0  0  0  0  0
    0.2493    1.2993   -1.4978 H   0  0  0  0  0  0  0  0  0  0  0  0
    1.4609    1.9332   -0.2392 H   0  0  0  0  0  0  0  0  0  0  0  0
  1  2  2  0
  2  3  1  0
  3  4  1  0
  4  5  1  0
  5  6  1  0
  6  7  1  0
  7  8  1  0
  7  9  1  0
  8  3  1  0
  9  3  1  0
  2 10  1  0
  4 11  1  0
  4 12  1  0
  5 13  1  0
  5 14  1  0
  6 15  1  0
  6 16  1  0
  7 17  1  0
  8 18  1  0
  8 19  1  0
M  END
