
     RDKit          3D

 14 16  0  0  0  0  0  0  0  0999 V2000
    3.3060   -0.3702    0.0622 O   0  0  0  0  0  0  0  0  0  0  0  0
    2.2000   -0.0349   -0.3169 C   0  0  0  0  0  0  0  0  0  0  0  0
    0.9482   -0.3224    0.4397 C   0  0  0  0  0  0  0  0  0  0  0  0
   -0.0364    0.7599    0.3657 C   0  0  0  0  0  0  0  0  0  0  0  0
   -1.3344    0.8548   -0.4220 C   0  0  0  0  0  0  0  0  0  0  0  0
   -2.4497    0.6573    0.3086 O   0  0  0  0  0  0  0  0  0  0  0  0
   -1.6857   -0.4962    0.2370 C   0  0  0  0  0  0  0  0  0  0  0  0
   -0.2776   -0.6650   -0.1499 C   0  0  0  0  0  0  0  0  0  0  0  0
    2.1530    0.4993   -1.2575 H   0  0  0  0  0  0  0  0  0  0  0  0
    1.2024   -0.8861    1.3921 H   0  0  0  0  0  0  0  0  0  0  0  0
   -0.1866    1.1239    1.3728 H   0  0  0  0  0  0  0  0  0  0  0  0
   -1.2978    0.7632   -1.5226 H   0  0  0  0  0  0  0  0  0  0  0  0
   -2.3547   -1.2216   -0.3312 H   0  0  0  0  0  0  0  0  0  0  0  0
   -0.1866   -0.6620   -1.2942 H   0  0  0  0  0  0  0  0  0  0  0  0
  1  2  2  0
  2  3  1  0
  3  4  1  0
  4  5  1  0
  5  6  1  0
  6  7  1  0
  7  8  1  0
  8  3  1  0
  8  4  1  0
  7  5  1  0
  2  9  1  0
  3 10  1  0
  4 11  1  0
  5 12  1  0
  7 13  1  0
  8 14  1  0
M  END
