
     RDKit          3D

 16 16  0  0  0  0  0  0  0  0999 V2000
    2.3660   -0.1340   -1.4317 O   0  0  0  0  0  0  0  0  0  0  0  0
    1.3860   -0.6751   -0.9593 C   0  0  0  0  0  0  0  0  0  0  0  0
    0.9882   -0.3139    0.3994 C   0  0  0  0  0  0  0  0  0  0  0  0
    1.8195    0.6233    0.9596 O   0  0  0  0  0  0  0  0  0  0  0  0
   -0.4282    0.1702    0.5232 C   0  0  0  0  0  0  0  0  0  0  0  0
   -0.8216    0.3672    1.8490 O   0  0  0  0  0  0  0  0  0  0  0  0
   -1.4962   -0.4687   -0.3378 C   0  0  0  0  0  0  0  0  0  0  0  0
   -1.0831    0.9965   -0.4850 C   0  0  0  0  0  0  0  0  0  0  0  0
    0.8787   -1.3893   -1.5869 H   0  0  0  0  0  0  0  0  0  0  0  0
    1.0688   -1.2507    1.0267 H   0  0  0  0  0  0  0  0  0  0  0  0
    2.0902    1.3243    0.3174 H   0  0  0  0  0  0  0  0  0  0  0  0
   -0.6156   -0.4161    2.4253 H   0  0  0  0  0  0  0  0  0  0  0  0
   -1.1940   -1.1393   -1.1593 H   0  0  0  0  0  0  0  0  0  0  0  0
   -2.4872   -0.6819    0.1139 H   0  0  0  0  0  0  0  0  0  0  0  0
   -0.6052    1.2680   -1.4612 H   0  0  0  0  0  0  0  0  0  0  0  0
   -1.8663    1.7195   -0.1934 H   0  0  0  0  0  0  0  0  0  0  0  0
  1  2  2  0
  2  3  1  0
  3  4  1  0
  3  5  1  0
  5  6  1  0
  5  7  1  0
  7  8  1  0
  8  5  1  0
  2  9  1  0
  3 10  1  0
  4 11  1  0
  6 12  1  0
  7 13  1  0
  7 14  1  0
  8 15  1  0
  8 16  1  0
M  END
