
     RDKit          3D

 17 18  0  0  0  0  0  0  0  0999 V2000
    2.0562    0.4380   -2.0203 O   0  0  0  0  0  0  0  0  0  0  0  0
    1.8503   -0.2178   -1.0151 C   0  0  0  0  0  0  0  0  0  0  0  0
    1.0939    0.2493    0.1496 C   0  0  0  0  0  0  0  0  0  0  0  0
   -0.2312    0.8971   -0.1075 C   0  0  0  0  0  0  0  0  0  0  0  0
   -0.5812    0.5044    1.3053 C   0  0  0  0  0  0  0  0  0  0  0  0
   -1.9170    0.2849    1.5595 O   0  0  0  0  0  0  0  0  0  0  0  0
    0.1070   -0.7108    0.7515 C   0  0  0  0  0  0  0  0  0  0  0  0
   -0.7197   -0.4752   -0.4813 C   0  0  0  0  0  0  0  0  0  0  0  0
   -0.2383   -1.0118   -1.6463 O   0  0  0  0  0  0  0  0  0  0  0  0
    2.2650   -1.2182   -0.9993 H   0  0  0  0  0  0  0  0  0  0  0  0
    1.7190    0.7252    0.9337 H   0  0  0  0  0  0  0  0  0  0  0  0
   -0.4250    1.7621   -0.5630 H   0  0  0  0  0  0  0  0  0  0  0  0
   -0.0077    1.0173    2.1029 H   0  0  0  0  0  0  0  0  0  0  0  0
   -2.4883    1.0848    1.4569 H   0  0  0  0  0  0  0  0  0  0  0  0
    0.2923   -1.5763    1.2114 H   0  0  0  0  0  0  0  0  0  0  0  0
   -1.8276   -0.5648   -0.3302 H   0  0  0  0  0  0  0  0  0  0  0  0
   -0.9477   -1.1882   -2.3078 H   0  0  0  0  0  0  0  0  0  0  0  0
  1  2  2  0
  2  3  1  0
  3  4  1  0
  4  5  1  0
  5  6  1  0
  5  7  1  0
  7  8  1  0
  8  9  1  0
  7  3  1  0
  8  4  1  0
  2 10  1  0
  3 11  1  0
  4 12  1  0
  5 13  1  0
  6 14  1  0
  7 15  1  0
  8 16  1  0
  9 17  1  0
M  END
