
     RDKit          3D

 17 17  0  0  0  0  0  0  0  0999 V2000
   -1.5259    2.4811   -1.1050 O   0  0  0  0  0  0  0  0  0  0  0  0
   -1.7691    1.2868   -1.0031 C   0  0  0  0  0  0  0  0  0  0  0  0
   -0.7146    0.3294   -0.4537 C   0  0  0  0  0  0  0  0  0  0  0  0
   -1.2154   -1.0641   -0.4162 C   0  0  0  0  0  0  0  0  0  0  0  0
   -0.3574   -2.0311    0.0537 O   0  0  0  0  0  0  0  0  0  0  0  0
   -0.3315    0.7788    0.8813 O   0  0  0  0  0  0  0  0  0  0  0  0
    0.5603    0.8708   -0.2232 C   0  0  0  0  0  0  0  0  0  0  0  0
    1.9006    0.2626   -0.0665 C   0  0  0  0  0  0  0  0  0  0  0  0
    1.9670   -1.0780    0.1955 O   0  0  0  0  0  0  0  0  0  0  0  0
   -2.7355    0.9249   -1.3064 H   0  0  0  0  0  0  0  0  0  0  0  0
   -2.1243   -1.1305    0.2616 H   0  0  0  0  0  0  0  0  0  0  0  0
   -1.6557   -1.3835   -1.4112 H   0  0  0  0  0  0  0  0  0  0  0  0
   -0.4478   -2.1289    1.0435 H   0  0  0  0  0  0  0  0  0  0  0  0
    0.6753    1.9863   -0.4855 H   0  0  0  0  0  0  0  0  0  0  0  0
    2.4612    0.7797    0.7766 H   0  0  0  0  0  0  0  0  0  0  0  0
    2.5616    0.4454   -0.9483 H   0  0  0  0  0  0  0  0  0  0  0  0
    2.7512   -1.3296    0.7263 H   0  0  0  0  0  0  0  0  0  0  0  0
  1  2  2  0
  2  3  1  0
  3  4  1  0
  4  5  1  0
  3  6  1  0
  6  7  1  0
  7  8  1  0
  8  9  1  0
  7  3  1  0
  2 10  1  0
  4 11  1  0
  4 12  1  0
  5 13  1  0
  7 14  1  0
  8 15  1  0
  8 16  1  0
  9 17  1  0
M  END
