
     RDKit          3D

 16 17  0  0  0  0  0  0  0  0999 V2000
    2.8086    1.6253    0.5449 O   0  0  0  0  0  0  0  0  0  0  0  0
    1.8799    0.8405    0.5927 C   0  0  0  0  0  0  0  0  0  0  0  0
    1.3534    0.2032   -0.6433 C   0  0  0  0  0  0  0  0  0  0  0  0
    0.9494   -1.2269   -0.4712 C   0  0  0  0  0  0  0  0  0  0  0  0
   -0.0816   -0.2021   -0.7598 C   0  0  0  0  0  0  0  0  0  0  0  0
   -1.0267    0.2767    0.2831 C   0  0  0  0  0  0  0  0  0  0  0  0
   -2.4123   -0.0858    0.1970 C   0  0  0  0  0  0  0  0  0  0  0  0
   -1.9626    1.2680   -0.2889 O   0  0  0  0  0  0  0  0  0  0  0  0
    1.3956    0.5689    1.5234 H   0  0  0  0  0  0  0  0  0  0  0  0
    1.8885    0.5101   -1.5808 H   0  0  0  0  0  0  0  0  0  0  0  0
    0.9739   -1.6761    0.5507 H   0  0  0  0  0  0  0  0  0  0  0  0
    1.2302   -1.9007   -1.2970 H   0  0  0  0  0  0  0  0  0  0  0  0
   -0.4979   -0.2126   -1.8052 H   0  0  0  0  0  0  0  0  0  0  0  0
   -0.6142    0.6061    1.2584 H   0  0  0  0  0  0  0  0  0  0  0  0
   -3.1209    0.1075    1.0159 H   0  0  0  0  0  0  0  0  0  0  0  0
   -2.7636   -0.7020   -0.6585 H   0  0  0  0  0  0  0  0  0  0  0  0
  1  2  2  0
  2  3  1  0
  3  4  1  0
  4  5  1  0
  5  6  1  0
  6  7  1  0
  7  8  1  0
  5  3  1  0
  8  6  1  0
  2  9  1  0
  3 10  1  0
  4 11  1  0
  4 12  1  0
  5 13  1  0
  6 14  1  0
  7 15  1  0
  7 16  1  0
M  END
