
     RDKit          3D

 17 19  0  0  0  0  0  0  0  0999 V2000
    2.8746   -0.5928    0.9382 O   0  0  0  0  0  0  0  0  0  0  0  0
    2.2072    0.1105    0.2185 C   0  0  0  0  0  0  0  0  0  0  0  0
    0.8984   -0.3120   -0.2489 C   0  0  0  0  0  0  0  0  0  0  0  0
   -0.0361   -0.7841    0.8358 C   0  0  0  0  0  0  0  0  0  0  0  0
   -1.2854   -1.0285   -0.0222 C   0  0  0  0  0  0  0  0  0  0  0  0
   -1.3173    0.3635   -0.6752 C   0  0  0  0  0  0  0  0  0  0  0  0
   -0.7600    1.2210    0.3864 C   0  0  0  0  0  0  0  0  0  0  0  0
   -0.3730    0.3869    1.4631 O   0  0  0  0  0  0  0  0  0  0  0  0
    0.0547    0.8579   -0.7671 C   0  0  0  0  0  0  0  0  0  0  0  0
    2.5988    1.0666   -0.0762 H   0  0  0  0  0  0  0  0  0  0  0  0
    0.9307   -1.0428   -1.0744 H   0  0  0  0  0  0  0  0  0  0  0  0
    0.2754   -1.6099    1.4188 H   0  0  0  0  0  0  0  0  0  0  0  0
   -2.1441   -1.2006    0.6233 H   0  0  0  0  0  0  0  0  0  0  0  0
   -1.0979   -1.8080   -0.7784 H   0  0  0  0  0  0  0  0  0  0  0  0
   -2.1366    0.6300   -1.3259 H   0  0  0  0  0  0  0  0  0  0  0  0
   -1.1326    2.2282    0.6065 H   0  0  0  0  0  0  0  0  0  0  0  0
    0.4434    1.5141   -1.5223 H   0  0  0  0  0  0  0  0  0  0  0  0
  1  2  2  0
  2  3  1  0
  3  4  1  0
  4  5  1  0
  5  6  1  0
  6  7  1  0
  7  8  1  0
  7  9  1  0
  9  3  1  0
  8  4  1  0
  9  6  1  0
  2 10  1  0
  3 11  1  0
  4 12  1  0
  5 13  1  0
  5 14  1  0
  6 15  1  0
  7 16  1  0
  9 17  1  0
M  END
