
     RDKit          3D

 13 13  0  0  0  0  0  0  0  0999 V2000
    2.5947   -0.6155   -0.0207 O   0  0  0  0  0  0  0  0  0  0  0  0
    1.5332   -0.4386    0.5711 C   0  0  0  0  0  0  0  0  0  0  0  0
    0.3552    0.0479   -0.1672 C   0  0  0  0  0  0  0  0  0  0  0  0
   -0.8195   -0.8897   -0.0852 C   0  0  0  0  0  0  0  0  0  0  0  0
   -2.0075   -0.3178   -0.5455 O   0  0  0  0  0  0  0  0  0  0  0  0
    0.1945    1.4497   -0.3002 C   0  0  0  0  0  0  0  0  0  0  0  0
    0.7245    0.6723   -1.3949 O   0  0  0  0  0  0  0  0  0  0  0  0
    1.5119   -0.6382    1.6538 H   0  0  0  0  0  0  0  0  0  0  0  0
   -0.5602   -1.8621   -0.6002 H   0  0  0  0  0  0  0  0  0  0  0  0
   -0.9240   -1.1251    1.0180 H   0  0  0  0  0  0  0  0  0  0  0  0
   -2.7563   -0.2970    0.0847 H   0  0  0  0  0  0  0  0  0  0  0  0
    0.8967    2.0734    0.3036 H   0  0  0  0  0  0  0  0  0  0  0  0
   -0.7432    1.9408   -0.5173 H   0  0  0  0  0  0  0  0  0  0  0  0
  1  2  2  0
  2  3  1  0
  3  4  1  0
  4  5  1  0
  3  6  1  0
  6  7  1  0
  7  3  1  0
  2  8  1  0
  4  9  1  0
  4 10  1  0
  5 11  1  0
  6 12  1  0
  6 13  1  0
M  END
