
     RDKit          3D

 13 14  0  0  0  0  0  0  0  0999 V2000
   -2.9805    1.1241    0.2758 O   0  0  0  0  0  0  0  0  0  0  0  0
   -2.0040    0.6626   -0.2718 C   0  0  0  0  0  0  0  0  0  0  0  0
   -0.7764    0.4440    0.5280 C   0  0  0  0  0  0  0  0  0  0  0  0
    0.4708    0.6995   -0.0953 C   0  0  0  0  0  0  0  0  0  0  0  0
    1.1976    0.1557   -1.1401 O   0  0  0  0  0  0  0  0  0  0  0  0
    1.9809   -0.8364   -0.5151 C   0  0  0  0  0  0  0  0  0  0  0  0
    3.0793   -1.3438   -0.9152 O   0  0  0  0  0  0  0  0  0  0  0  0
    1.2698   -1.1500    0.6710 O   0  0  0  0  0  0  0  0  0  0  0  0
   -0.0294   -0.7377    0.3560 C   0  0  0  0  0  0  0  0  0  0  0  0
   -2.0963    0.4370   -1.3287 H   0  0  0  0  0  0  0  0  0  0  0  0
   -0.9315    0.7574    1.6040 H   0  0  0  0  0  0  0  0  0  0  0  0
    1.2181    1.1898    0.6068 H   0  0  0  0  0  0  0  0  0  0  0  0
   -0.3986   -1.4020   -0.4854 H   0  0  0  0  0  0  0  0  0  0  0  0
  1  2  2  0
  2  3  1  0
  3  4  1  0
  4  5  1  0
  5  6  1  0
  6  7  2  0
  6  8  1  0
  8  9  1  0
  9  3  1  0
  9  4  1  0
  2 10  1  0
  3 11  1  0
  4 12  1  0
  9 13  1  0
M  END
