
     RDKit          3D

 16 17  0  0  0  0  0  0  0  0999 V2000
    2.6857    0.2811   -0.4538 O   0  0  0  0  0  0  0  0  0  0  0  0
    1.8579   -0.0084    0.3724 C   0  0  0  0  0  0  0  0  0  0  0  0
    0.6277   -0.6940   -0.0167 C   0  0  0  0  0  0  0  0  0  0  0  0
   -0.5498   -0.5157    0.9101 C   0  0  0  0  0  0  0  0  0  0  0  0
   -1.3906   -0.8868   -0.2754 C   0  0  0  0  0  0  0  0  0  0  0  0
   -0.3615    0.0624   -0.8420 C   0  0  0  0  0  0  0  0  0  0  0  0
   -0.6112    0.8882    0.3887 C   0  0  0  0  0  0  0  0  0  0  0  0
    0.3847    1.7456    0.7496 O   0  0  0  0  0  0  0  0  0  0  0  0
    2.0658    0.2604    1.4068 H   0  0  0  0  0  0  0  0  0  0  0  0
    0.7696   -1.7326   -0.4074 H   0  0  0  0  0  0  0  0  0  0  0  0
   -0.6317   -0.8329    1.8516 H   0  0  0  0  0  0  0  0  0  0  0  0
   -2.4253   -0.5432   -0.2824 H   0  0  0  0  0  0  0  0  0  0  0  0
   -1.2789   -1.9316   -0.5561 H   0  0  0  0  0  0  0  0  0  0  0  0
   -0.2857    0.3740   -1.7856 H   0  0  0  0  0  0  0  0  0  0  0  0
   -1.6554    1.2918    0.3876 H   0  0  0  0  0  0  0  0  0  0  0  0
    0.7987    2.2418   -0.0167 H   0  0  0  0  0  0  0  0  0  0  0  0
  1  2  2  0
  2  3  1  0
  3  4  1  0
  4  5  1  0
  5  6  1  0
  6  7  1  0
  7  8  1  0
  6  3  1  0
  7  4  1  0
  2  9  1  0
  3 10  1  0
  4 11  1  0
  5 12  1  0
  5 13  1  0
  6 14  1  0
  7 15  1  0
  8 16  1  0
M  END
