
     RDKit          3D

 17 17  0  0  0  0  0  0  0  0999 V2000
    3.0474   -1.3077   -0.4116 O   0  0  0  0  0  0  0  0  0  0  0  0
    2.5445   -0.1777   -0.2218 C   0  0  0  0  0  0  0  0  0  0  0  0
    1.1161   -0.0678    0.0187 C   0  0  0  0  0  0  0  0  0  0  0  0
    0.3353   -1.1318    0.0419 C   0  0  0  0  0  0  0  0  0  0  0  0
   -1.1088   -1.1261    0.2750 C   0  0  0  0  0  0  0  0  0  0  0  0
   -1.8089    0.1520   -0.0468 C   0  0  0  0  0  0  0  0  0  0  0  0
   -0.8501    1.2008   -0.4257 C   0  0  0  0  0  0  0  0  0  0  0  0
   -1.1342    2.0018   -1.2714 O   0  0  0  0  0  0  0  0  0  0  0  0
    0.4554    1.2446    0.2511 C   0  0  0  0  0  0  0  0  0  0  0  0
    3.1204    0.7335   -0.2267 H   0  0  0  0  0  0  0  0  0  0  0  0
    0.8322   -2.0887   -0.1303 H   0  0  0  0  0  0  0  0  0  0  0  0
   -1.5487   -1.9265   -0.3899 H   0  0  0  0  0  0  0  0  0  0  0  0
   -1.3828   -1.4337    1.3036 H   0  0  0  0  0  0  0  0  0  0  0  0
   -2.4193    0.5119    0.8349 H   0  0  0  0  0  0  0  0  0  0  0  0
   -2.5660    0.0289   -0.8578 H   0  0  0  0  0  0  0  0  0  0  0  0
    0.2734    1.3045    1.3496 H   0  0  0  0  0  0  0  0  0  0  0  0
    1.0941    2.0819   -0.0927 H   0  0  0  0  0  0  0  0  0  0  0  0
  1  2  2  0
  2  3  1  0
  3  4  2  0
  4  5  1  0
  5  6  1  0
  6  7  1  0
  7  8  2  0
  7  9  1  0
  9  3  1  0
  2 10  1  0
  4 11  1  0
  5 12  1  0
  5 13  1  0
  6 14  1  0
  6 15  1  0
  9 16  1  0
  9 17  1  0
M  END
