
     RDKit          3D

 15 17  0  0  0  0  0  0  0  0999 V2000
    3.0632    0.2878   -1.1212 O   0  0  0  0  0  0  0  0  0  0  0  0
    2.3179    0.5747   -0.1746 C   0  0  0  0  0  0  0  0  0  0  0  0
    0.9379    0.1571   -0.1895 C   0  0  0  0  0  0  0  0  0  0  0  0
    0.3309   -0.5321   -1.1378 C   0  0  0  0  0  0  0  0  0  0  0  0
   -1.0973   -0.7509   -0.7568 C   0  0  0  0  0  0  0  0  0  0  0  0
   -1.8324    0.4579   -0.7528 O   0  0  0  0  0  0  0  0  0  0  0  0
   -1.4246    0.7591    0.5410 C   0  0  0  0  0  0  0  0  0  0  0  0
   -0.0360    0.4561    0.9146 C   0  0  0  0  0  0  0  0  0  0  0  0
   -1.0212   -0.6212    0.7241 C   0  0  0  0  0  0  0  0  0  0  0  0
    2.7442    1.1403    0.6431 H   0  0  0  0  0  0  0  0  0  0  0  0
    0.7296   -0.9166   -2.0738 H   0  0  0  0  0  0  0  0  0  0  0  0
   -1.5936   -1.6065   -1.1912 H   0  0  0  0  0  0  0  0  0  0  0  0
   -2.1126    1.3031    1.2168 H   0  0  0  0  0  0  0  0  0  0  0  0
    0.3466    0.6259    1.9216 H   0  0  0  0  0  0  0  0  0  0  0  0
   -1.3524   -1.3347    1.4364 H   0  0  0  0  0  0  0  0  0  0  0  0
  1  2  2  0
  2  3  1  0
  3  4  2  0
  4  5  1  0
  5  6  1  0
  6  7  1  0
  7  8  1  0
  8  9  1  0
  8  3  1  0
  9  5  1  0
  9  7  1  0
  2 10  1  0
  4 11  1  0
  5 12  1  0
  7 13  1  0
  8 14  1  0
  9 15  1  0
M  END
