
     RDKit          3D

 17 17  0  0  0  0  0  0  0  0999 V2000
    1.7936    1.6167    0.0147 O   0  0  0  0  0  0  0  0  0  0  0  0
    2.2199    0.5098   -0.2323 C   0  0  0  0  0  0  0  0  0  0  0  0
    1.3448   -0.6746   -0.0741 C   0  0  0  0  0  0  0  0  0  0  0  0
   -0.0304   -0.3214    0.3980 C   0  0  0  0  0  0  0  0  0  0  0  0
   -0.0770    0.3172    1.6208 O   0  0  0  0  0  0  0  0  0  0  0  0
   -1.2126   -1.1200   -0.0166 C   0  0  0  0  0  0  0  0  0  0  0  0
   -0.9785    0.1651   -0.7203 C   0  0  0  0  0  0  0  0  0  0  0  0
   -1.6986    1.3900   -0.3585 C   0  0  0  0  0  0  0  0  0  0  0  0
   -2.1816    1.5916    0.7418 O   0  0  0  0  0  0  0  0  0  0  0  0
    3.2300    0.3515   -0.5689 H   0  0  0  0  0  0  0  0  0  0  0  0
    1.2389   -1.1416   -1.0870 H   0  0  0  0  0  0  0  0  0  0  0  0
    1.8028   -1.4288    0.6208 H   0  0  0  0  0  0  0  0  0  0  0  0
    0.0679   -0.2864    2.3889 H   0  0  0  0  0  0  0  0  0  0  0  0
   -1.0882   -2.0421   -0.6226 H   0  0  0  0  0  0  0  0  0  0  0  0
   -2.0199   -1.2137    0.7459 H   0  0  0  0  0  0  0  0  0  0  0  0
   -0.5933    0.1165   -1.7529 H   0  0  0  0  0  0  0  0  0  0  0  0
   -1.8177    2.1703   -1.0975 H   0  0  0  0  0  0  0  0  0  0  0  0
  1  2  2  0
  2  3  1  0
  3  4  1  0
  4  5  1  0
  4  6  1  0
  6  7  1  0
  7  8  1  0
  8  9  2  0
  7  4  1  0
  2 10  1  0
  3 11  1  0
  3 12  1  0
  5 13  1  0
  6 14  1  0
  6 15  1  0
  7 16  1  0
  8 17  1  0
M  END
