
     RDKit          3D

 16 17  0  0  0  0  0  0  0  0999 V2000
    2.8414    0.2289   -0.9289 O   0  0  0  0  0  0  0  0  0  0  0  0
    2.5281   -0.2196    0.1515 C   0  0  0  0  0  0  0  0  0  0  0  0
    1.1004   -0.2822    0.5038 C   0  0  0  0  0  0  0  0  0  0  0  0
    0.1885    0.6967   -0.0930 C   0  0  0  0  0  0  0  0  0  0  0  0
   -1.2274    0.8598    0.3403 C   0  0  0  0  0  0  0  0  0  0  0  0
   -1.9195   -0.4325   -0.0325 C   0  0  0  0  0  0  0  0  0  0  0  0
   -0.9303   -1.3390   -0.3023 O   0  0  0  0  0  0  0  0  0  0  0  0
    0.2074   -0.6925   -0.6758 C   0  0  0  0  0  0  0  0  0  0  0  0
    3.3040   -0.5696    0.8460 H   0  0  0  0  0  0  0  0  0  0  0  0
    0.8734   -0.6958    1.4914 H   0  0  0  0  0  0  0  0  0  0  0  0
    0.6683    1.5329   -0.6694 H   0  0  0  0  0  0  0  0  0  0  0  0
   -1.3719    1.1055    1.3962 H   0  0  0  0  0  0  0  0  0  0  0  0
   -1.7029    1.6690   -0.2845 H   0  0  0  0  0  0  0  0  0  0  0  0
   -2.6368   -0.2949   -0.8830 H   0  0  0  0  0  0  0  0  0  0  0  0
   -2.5648   -0.8073    0.8121 H   0  0  0  0  0  0  0  0  0  0  0  0
    0.6421   -0.7593   -1.6721 H   0  0  0  0  0  0  0  0  0  0  0  0
  1  2  2  0
  2  3  1  0
  3  4  1  0
  4  5  1  0
  5  6  1  0
  6  7  1  0
  7  8  1  0
  8  3  1  0
  8  4  1  0
  2  9  1  0
  3 10  1  0
  4 11  1  0
  5 12  1  0
  5 13  1  0
  6 14  1  0
  6 15  1  0
  8 16  1  0
M  END
