
     RDKit          3D

 19 19  0  0  0  0  0  0  0  0999 V2000
    1.6990   -0.3148    1.4272 O   0  0  0  0  0  0  0  0  0  0  0  0
    2.3214    0.0030    0.4420 C   0  0  0  0  0  0  0  0  0  0  0  0
    1.7186    0.2103   -0.9041 C   0  0  0  0  0  0  0  0  0  0  0  0
    0.2272   -0.0256   -0.8883 C   0  0  0  0  0  0  0  0  0  0  0  0
    0.0595   -1.3603   -0.4761 O   0  0  0  0  0  0  0  0  0  0  0  0
   -1.2884   -1.3868   -0.1953 C   0  0  0  0  0  0  0  0  0  0  0  0
   -1.4344   -0.2083    0.7601 C   0  0  0  0  0  0  0  0  0  0  0  0
   -0.5048    0.8037    0.1079 C   0  0  0  0  0  0  0  0  0  0  0  0
   -1.3294    1.7653   -0.4842 O   0  0  0  0  0  0  0  0  0  0  0  0
    3.3822    0.1458    0.5433 H   0  0  0  0  0  0  0  0  0  0  0  0
    1.9124    1.2392   -1.2491 H   0  0  0  0  0  0  0  0  0  0  0  0
    2.1580   -0.5573   -1.5743 H   0  0  0  0  0  0  0  0  0  0  0  0
   -0.1775    0.0554   -1.9040 H   0  0  0  0  0  0  0  0  0  0  0  0
   -1.8437   -1.1521   -1.1092 H   0  0  0  0  0  0  0  0  0  0  0  0
   -1.6121   -2.3163    0.3076 H   0  0  0  0  0  0  0  0  0  0  0  0
   -1.0294   -0.4459    1.7435 H   0  0  0  0  0  0  0  0  0  0  0  0
   -2.4874    0.1125    0.7482 H   0  0  0  0  0  0  0  0  0  0  0  0
    0.1291    1.3156    0.8442 H   0  0  0  0  0  0  0  0  0  0  0  0
   -1.9003    2.1168    0.2554 H   0  0  0  0  0  0  0  0  0  0  0  0
  1  2  2  0
  2  3  1  0
  3  4  1  0
  4  5  1  0
  5  6  1  0
  6  7  1  0
  7  8  1  0
  8  9  1  0
  8  4  1  0
  2 10  1  0
  3 11  1  0
  3 12  1  0
  4 13  1  0
  6 14  1  0
  6 15  1  0
  7 16  1  0
  7 17  1  0
  8 18  1  0
  9 19  1  0
M  END
