
     RDKit          3D

 17 17  0  0  0  0  0  0  0  0999 V2000
    2.4518    0.4181    3.7211 O   0  0  0  0  0  0  0  0  0  0  0  0
    2.9770    0.5764    2.5705 C   0  0  0  0  0  0  0  0  0  0  0  0
    2.1650    0.5683    1.3852 C   0  0  0  0  0  0  0  0  0  0  0  0
    1.4932    0.5462    0.3893 C   0  0  0  0  0  0  0  0  0  0  0  0
    0.6810    0.4960   -0.8339 C   0  0  0  0  0  0  0  0  0  0  0  0
   -0.5429   -0.3065   -0.5308 C   0  0  0  0  0  0  0  0  0  0  0  0
   -1.5171   -0.4786   -1.6674 C   0  0  0  0  0  0  0  0  0  0  0  0
   -2.4624   -0.4978   -0.4599 C   0  0  0  0  0  0  0  0  0  0  0  0
   -1.5541    0.3931    0.1532 O   0  0  0  0  0  0  0  0  0  0  0  0
    4.0450    0.7119    2.5671 H   0  0  0  0  0  0  0  0  0  0  0  0
    1.2809   -0.0690   -1.5761 H   0  0  0  0  0  0  0  0  0  0  0  0
    0.3817    1.4859   -1.1847 H   0  0  0  0  0  0  0  0  0  0  0  0
   -0.3717   -1.2717   -0.0332 H   0  0  0  0  0  0  0  0  0  0  0  0
   -1.6922    0.4128   -2.2913 H   0  0  0  0  0  0  0  0  0  0  0  0
   -1.4855   -1.4289   -2.2038 H   0  0  0  0  0  0  0  0  0  0  0  0
   -3.4540   -0.0912   -0.6468 H   0  0  0  0  0  0  0  0  0  0  0  0
   -2.3956   -1.4650    0.0586 H   0  0  0  0  0  0  0  0  0  0  0  0
  1  2  2  0
  2  3  1  0
  3  4  3  0
  4  5  1  0
  5  6  1  0
  6  7  1  0
  7  8  1  0
  8  9  1  0
  9  6  1  0
  2 10  1  0
  5 11  1  0
  5 12  1  0
  6 13  1  0
  7 14  1  0
  7 15  1  0
  8 16  1  0
  8 17  1  0
M  END
