
     RDKit          3D

 15 15  0  0  0  0  0  0  0  0999 V2000
    2.1230    0.9666    0.6283 O   0  0  0  0  0  0  0  0  0  0  0  0
    2.1805   -0.1778    0.1607 C   0  0  0  0  0  0  0  0  0  0  0  0
    0.9670   -0.8620   -0.2278 C   0  0  0  0  0  0  0  0  0  0  0  0
    1.0699   -2.0139   -0.7099 O   0  0  0  0  0  0  0  0  0  0  0  0
   -0.3649   -0.2690   -0.0817 C   0  0  0  0  0  0  0  0  0  0  0  0
   -1.4919   -1.0687   -0.6378 C   0  0  0  0  0  0  0  0  0  0  0  0
   -2.6203   -0.6205   -0.5314 O   0  0  0  0  0  0  0  0  0  0  0  0
   -0.5234    1.2443   -0.3058 C   0  0  0  0  0  0  0  0  0  0  0  0
   -0.6336    0.6825    1.0443 C   0  0  0  0  0  0  0  0  0  0  0  0
    3.1639   -0.6815    0.0394 H   0  0  0  0  0  0  0  0  0  0  0  0
   -1.2651   -2.0071   -1.1084 H   0  0  0  0  0  0  0  0  0  0  0  0
    0.3759    1.7447   -0.6709 H   0  0  0  0  0  0  0  0  0  0  0  0
   -1.4434    1.5837   -0.8620 H   0  0  0  0  0  0  0  0  0  0  0  0
   -1.6612    0.5488    1.4744 H   0  0  0  0  0  0  0  0  0  0  0  0
    0.1236    0.9299    1.7886 H   0  0  0  0  0  0  0  0  0  0  0  0
  1  2  2  0
  2  3  1  0
  3  4  2  0
  3  5  1  0
  5  6  1  0
  6  7  2  0
  5  8  1  0
  8  9  1  0
  9  5  1  0
  2 10  1  0
  6 11  1  0
  8 12  1  0
  8 13  1  0
  9 14  1  0
  9 15  1  0
M  END
