
     RDKit          3D

 16 17  0  0  0  0  0  0  0  0999 V2000
    2.4199    1.1204    0.5507 O   0  0  0  0  0  0  0  0  0  0  0  0
    1.7703    0.1033    0.7155 C   0  0  0  0  0  0  0  0  0  0  0  0
    0.8763   -0.3322   -0.3499 C   0  0  0  0  0  0  0  0  0  0  0  0
   -0.2261   -1.2809    0.1581 C   0  0  0  0  0  0  0  0  0  0  0  0
   -1.3999   -0.3714   -0.1344 C   0  0  0  0  0  0  0  0  0  0  0  0
   -0.9739    0.9136    0.4884 C   0  0  0  0  0  0  0  0  0  0  0  0
   -0.0393    0.8423   -0.6963 C   0  0  0  0  0  0  0  0  0  0  0  0
   -1.0507    0.2039   -1.3809 O   0  0  0  0  0  0  0  0  0  0  0  0
    1.8879   -0.4312    1.6490 H   0  0  0  0  0  0  0  0  0  0  0  0
    1.3481   -0.7045   -1.2519 H   0  0  0  0  0  0  0  0  0  0  0  0
   -0.1235   -1.4880    1.2257 H   0  0  0  0  0  0  0  0  0  0  0  0
   -0.3097   -2.1771   -0.4455 H   0  0  0  0  0  0  0  0  0  0  0  0
   -2.3868   -0.7398   -0.0203 H   0  0  0  0  0  0  0  0  0  0  0  0
   -0.5041    0.8719    1.4698 H   0  0  0  0  0  0  0  0  0  0  0  0
   -1.6905    1.7402    0.4301 H   0  0  0  0  0  0  0  0  0  0  0  0
    0.4020    1.7296   -1.0715 H   0  0  0  0  0  0  0  0  0  0  0  0
  1  2  2  0
  2  3  1  0
  3  4  1  0
  4  5  1  0
  5  6  1  0
  6  7  1  0
  7  8  1  0
  7  3  1  0
  8  5  1  0
  2  9  1  0
  3 10  1  0
  4 11  1  0
  4 12  1  0
  5 13  1  0
  6 14  1  0
  6 15  1  0
  7 16  1  0
M  END
