
     RDKit          3D

 17 18  0  0  0  0  0  0  0  0999 V2000
    2.9145   -1.5854    0.8661 O   0  0  0  0  0  0  0  0  0  0  0  0
    2.5314   -0.4671    0.4999 C   0  0  0  0  0  0  0  0  0  0  0  0
    1.1047   -0.2122    0.3141 C   0  0  0  0  0  0  0  0  0  0  0  0
    0.5884    0.9395   -0.0724 C   0  0  0  0  0  0  0  0  0  0  0  0
   -0.8736    0.8707   -0.1637 C   0  0  0  0  0  0  0  0  0  0  0  0
   -1.6635    1.8684    0.3850 O   0  0  0  0  0  0  0  0  0  0  0  0
   -1.4111   -0.0205   -1.2362 C   0  0  0  0  0  0  0  0  0  0  0  0
   -1.2075   -0.5581    0.1184 C   0  0  0  0  0  0  0  0  0  0  0  0
    0.0557   -1.2251    0.5416 C   0  0  0  0  0  0  0  0  0  0  0  0
    3.2343    0.3072    0.3204 H   0  0  0  0  0  0  0  0  0  0  0  0
    1.1606    1.8384   -0.2993 H   0  0  0  0  0  0  0  0  0  0  0  0
   -1.3873    2.7221   -0.0541 H   0  0  0  0  0  0  0  0  0  0  0  0
   -0.7398   -0.2532   -2.0614 H   0  0  0  0  0  0  0  0  0  0  0  0
   -2.4900    0.0981   -1.5421 H   0  0  0  0  0  0  0  0  0  0  0  0
   -2.0730   -0.7042    0.7990 H   0  0  0  0  0  0  0  0  0  0  0  0
    0.2619   -2.1396   -0.0564 H   0  0  0  0  0  0  0  0  0  0  0  0
   -0.0058   -1.4791    1.6413 H   0  0  0  0  0  0  0  0  0  0  0  0
  1  2  2  0
  2  3  1  0
  3  4  2  0
  4  5  1  0
  5  6  1  0
  5  7  1  0
  7  8  1  0
  8  9  1  0
  9  3  1  0
  8  5  1  0
  2 10  1  0
  4 11  1  0
  6 12  1  0
  7 13  1  0
  7 14  1  0
  8 15  1  0
  9 16  1  0
  9 17  1  0
M  END
