
     RDKit          3D

 15 14  0  0  0  0  0  0  0  0999 V2000
    2.3185    1.9028   -0.4759 O   0  0  0  0  0  0  0  0  0  0  0  0
    2.3555    0.9075    0.1861 C   0  0  0  0  0  0  0  0  0  0  0  0
    1.2455   -0.0834    0.1723 C   0  0  0  0  0  0  0  0  0  0  0  0
    0.2860    0.3640   -0.6787 O   0  0  0  0  0  0  0  0  0  0  0  0
   -0.8289   -0.3834   -0.8822 C   0  0  0  0  0  0  0  0  0  0  0  0
   -1.5839   -0.5735    0.3965 C   0  0  0  0  0  0  0  0  0  0  0  0
   -1.9405    0.6757    0.8773 O   0  0  0  0  0  0  0  0  0  0  0  0
    3.2050    0.7056    0.8144 H   0  0  0  0  0  0  0  0  0  0  0  0
    1.6032   -1.0752   -0.2055 H   0  0  0  0  0  0  0  0  0  0  0  0
    0.8947   -0.2867    1.2258 H   0  0  0  0  0  0  0  0  0  0  0  0
   -1.4866    0.1834   -1.5933 H   0  0  0  0  0  0  0  0  0  0  0  0
   -0.5947   -1.3721   -1.3714 H   0  0  0  0  0  0  0  0  0  0  0  0
   -0.9180   -1.0413    1.1386 H   0  0  0  0  0  0  0  0  0  0  0  0
   -2.4779   -1.2308    0.2500 H   0  0  0  0  0  0  0  0  0  0  0  0
   -2.0778    1.3074    0.1461 H   0  0  0  0  0  0  0  0  0  0  0  0
  1  2  2  0
  2  3  1  0
  3  4  1  0
  4  5  1  0
  5  6  1  0
  6  7  1  0
  2  8  1  0
  3  9  1  0
  3 10  1  0
  5 11  1  0
  5 12  1  0
  6 13  1  0
  6 14  1  0
  7 15  1  0
M  END
