
     RDKit          3D

 19 20  0  0  0  0  0  0  0  0999 V2000
    2.9085    1.0545    0.7305 O   0  0  0  0  0  0  0  0  0  0  0  0
    2.3292   -0.0304    0.7482 C   0  0  0  0  0  0  0  0  0  0  0  0
    0.8642   -0.0474    0.7401 C   0  0  0  0  0  0  0  0  0  0  0  0
    0.2977    1.1912    0.0912 C   0  0  0  0  0  0  0  0  0  0  0  0
   -1.1561    1.1382   -0.1508 C   0  0  0  0  0  0  0  0  0  0  0  0
   -1.7986   -0.1850   -0.1150 C   0  0  0  0  0  0  0  0  0  0  0  0
   -1.6613   -0.7614    1.2505 O   0  0  0  0  0  0  0  0  0  0  0  0
   -1.0901   -1.3538    0.1536 C   0  0  0  0  0  0  0  0  0  0  0  0
    0.3925   -1.2274   -0.1096 C   0  0  0  0  0  0  0  0  0  0  0  0
    2.9496   -0.9203    0.7690 H   0  0  0  0  0  0  0  0  0  0  0  0
    0.4276   -0.1070    1.7587 H   0  0  0  0  0  0  0  0  0  0  0  0
    0.8898    1.4016   -0.8477 H   0  0  0  0  0  0  0  0  0  0  0  0
    0.5772    2.0436    0.7739 H   0  0  0  0  0  0  0  0  0  0  0  0
   -1.3731    1.6542   -1.1195 H   0  0  0  0  0  0  0  0  0  0  0  0
   -1.6583    1.7912    0.6230 H   0  0  0  0  0  0  0  0  0  0  0  0
   -2.8514   -0.2087   -0.4759 H   0  0  0  0  0  0  0  0  0  0  0  0
   -1.4920   -2.3460   -0.1218 H   0  0  0  0  0  0  0  0  0  0  0  0
    0.9555   -2.1373    0.0956 H   0  0  0  0  0  0  0  0  0  0  0  0
    0.4891   -0.9499   -1.1953 H   0  0  0  0  0  0  0  0  0  0  0  0
  1  2  2  0
  2  3  1  0
  3  4  1  0
  4  5  1  0
  5  6  1  0
  6  7  1  0
  7  8  1  0
  8  9  1  0
  9  3  1  0
  8  6  1  0
  2 10  1  0
  3 11  1  0
  4 12  1  0
  4 13  1  0
  5 14  1  0
  5 15  1  0
  6 16  1  0
  8 17  1  0
  9 18  1  0
  9 19  1  0
M  END
