
     RDKit          3D

 17 17  0  0  0  0  0  0  0  0999 V2000
   -0.5796   -2.1382   -1.1784 O   0  0  0  0  0  0  0  0  0  0  0  0
   -0.7354   -0.9461   -1.1508 C   0  0  0  0  0  0  0  0  0  0  0  0
   -0.0857   -0.0186   -0.2107 C   0  0  0  0  0  0  0  0  0  0  0  0
    0.8691    0.8992   -0.9478 C   0  0  0  0  0  0  0  0  0  0  0  0
    1.8179    0.0822   -1.5580 O   0  0  0  0  0  0  0  0  0  0  0  0
    0.4802   -0.6007    1.0419 C   0  0  0  0  0  0  0  0  0  0  0  0
   -0.6859   -0.0803    1.8066 C   0  0  0  0  0  0  0  0  0  0  0  0
   -1.1615   -0.1919    2.9270 O   0  0  0  0  0  0  0  0  0  0  0  0
   -1.1204    0.7023    0.6226 C   0  0  0  0  0  0  0  0  0  0  0  0
   -1.4229   -0.4967   -1.8894 H   0  0  0  0  0  0  0  0  0  0  0  0
    1.3499    1.6297   -0.2699 H   0  0  0  0  0  0  0  0  0  0  0  0
    0.3451    1.4762   -1.7369 H   0  0  0  0  0  0  0  0  0  0  0  0
    2.0503   -0.6888   -0.9523 H   0  0  0  0  0  0  0  0  0  0  0  0
    0.5592   -1.7249    1.0438 H   0  0  0  0  0  0  0  0  0  0  0  0
    1.4195   -0.1112    1.4255 H   0  0  0  0  0  0  0  0  0  0  0  0
   -0.9161    1.7714    0.6486 H   0  0  0  0  0  0  0  0  0  0  0  0
   -2.1837    0.4365    0.3782 H   0  0  0  0  0  0  0  0  0  0  0  0
  1  2  2  0
  2  3  1  0
  3  4  1  0
  4  5  1  0
  3  6  1  0
  6  7  1  0
  7  8  2  0
  7  9  1  0
  9  3  1  0
  2 10  1  0
  4 11  1  0
  4 12  1  0
  5 13  1  0
  6 14  1  0
  6 15  1  0
  9 16  1  0
  9 17  1  0
M  END
