
     RDKit          3D

 14 15  0  0  0  0  0  0  0  0999 V2000
    1.8708    2.0270   -0.1104 O   0  0  0  0  0  0  0  0  0  0  0  0
    0.9482    1.3624   -0.5177 C   0  0  0  0  0  0  0  0  0  0  0  0
    0.8275   -0.0204   -0.0221 C   0  0  0  0  0  0  0  0  0  0  0  0
    1.9779   -0.5751    0.5609 O   0  0  0  0  0  0  0  0  0  0  0  0
   -0.4744   -0.2671    0.6859 C   0  0  0  0  0  0  0  0  0  0  0  0
   -1.7230    0.0691   -0.0632 C   0  0  0  0  0  0  0  0  0  0  0  0
   -1.2408   -0.4966   -1.2375 O   0  0  0  0  0  0  0  0  0  0  0  0
   -0.1311   -0.9878   -0.5600 C   0  0  0  0  0  0  0  0  0  0  0  0
    0.2487    1.7679   -1.2146 H   0  0  0  0  0  0  0  0  0  0  0  0
    2.5867   -0.7906   -0.1968 H   0  0  0  0  0  0  0  0  0  0  0  0
   -0.4942   -0.7341    1.6671 H   0  0  0  0  0  0  0  0  0  0  0  0
   -2.6453   -0.4651    0.2690 H   0  0  0  0  0  0  0  0  0  0  0  0
   -1.8818    1.1576   -0.1914 H   0  0  0  0  0  0  0  0  0  0  0  0
    0.1307   -2.0471   -0.5840 H   0  0  0  0  0  0  0  0  0  0  0  0
  1  2  2  0
  2  3  1  0
  3  4  1  0
  3  5  1  0
  5  6  1  0
  6  7  1  0
  7  8  1  0
  8  3  1  0
  8  5  1  0
  2  9  1  0
  4 10  1  0
  5 11  1  0
  6 12  1  0
  6 13  1  0
  8 14  1  0
M  END
