
     RDKit          3D

 15 15  0  0  0  0  0  0  0  0999 V2000
   -2.2900    1.5251   -0.3544 O   0  0  0  0  0  0  0  0  0  0  0  0
   -2.1187    0.3828    0.0109 C   0  0  0  0  0  0  0  0  0  0  0  0
   -0.8517   -0.3306   -0.2448 C   0  0  0  0  0  0  0  0  0  0  0  0
   -0.9613   -1.6122    0.2909 O   0  0  0  0  0  0  0  0  0  0  0  0
    0.3051    0.3314    0.4724 C   0  0  0  0  0  0  0  0  0  0  0  0
    1.6397   -0.3922    0.2234 C   0  0  0  0  0  0  0  0  0  0  0  0
    1.3734    1.0298   -0.2396 C   0  0  0  0  0  0  0  0  0  0  0  0
   -2.9070   -0.1239    0.5334 H   0  0  0  0  0  0  0  0  0  0  0  0
   -0.6516   -0.4316   -1.3405 H   0  0  0  0  0  0  0  0  0  0  0  0
   -0.8693   -2.3064   -0.4024 H   0  0  0  0  0  0  0  0  0  0  0  0
    0.0829    0.6569    1.4985 H   0  0  0  0  0  0  0  0  0  0  0  0
    2.2297   -0.5564    1.1441 H   0  0  0  0  0  0  0  0  0  0  0  0
    1.6900   -1.1499   -0.5587 H   0  0  0  0  0  0  0  0  0  0  0  0
    1.9593    1.7778    0.3070 H   0  0  0  0  0  0  0  0  0  0  0  0
    1.3694    1.1994   -1.3402 H   0  0  0  0  0  0  0  0  0  0  0  0
  1  2  2  0
  2  3  1  0
  3  4  1  0
  3  5  1  0
  5  6  1  0
  6  7  1  0
  7  5  1  0
  2  8  1  0
  3  9  1  0
  4 10  1  0
  5 11  1  0
  6 12  1  0
  6 13  1  0
  7 14  1  0
  7 15  1  0
M  END
