
     RDKit          3D

 19 19  0  0  0  0  0  0  0  0999 V2000
    1.4693   -1.6955    1.4284 O   0  0  0  0  0  0  0  0  0  0  0  0
    0.8301   -1.4677    0.4197 C   0  0  0  0  0  0  0  0  0  0  0  0
    0.3982   -0.1464   -0.0343 C   0  0  0  0  0  0  0  0  0  0  0  0
    1.4394    0.5658   -0.8705 C   0  0  0  0  0  0  0  0  0  0  0  0
    2.6220    0.7646   -0.1702 O   0  0  0  0  0  0  0  0  0  0  0  0
   -0.0812    0.7373    1.0672 C   0  0  0  0  0  0  0  0  0  0  0  0
   -1.4008    0.7962    1.1013 C   0  0  0  0  0  0  0  0  0  0  0  0
   -2.0057   -0.0364    0.0317 C   0  0  0  0  0  0  0  0  0  0  0  0
   -0.8521   -0.2681   -0.9070 C   0  0  0  0  0  0  0  0  0  0  0  0
    0.5703   -2.3508   -0.1806 H   0  0  0  0  0  0  0  0  0  0  0  0
    1.5706    0.0280   -1.8102 H   0  0  0  0  0  0  0  0  0  0  0  0
    1.0101    1.5757   -1.1081 H   0  0  0  0  0  0  0  0  0  0  0  0
    2.7664    0.0603    0.5169 H   0  0  0  0  0  0  0  0  0  0  0  0
    0.5591    1.2915    1.7868 H   0  0  0  0  0  0  0  0  0  0  0  0
   -1.9499    1.4058    1.8540 H   0  0  0  0  0  0  0  0  0  0  0  0
   -2.8357    0.4850   -0.4898 H   0  0  0  0  0  0  0  0  0  0  0  0
   -2.3454   -0.9998    0.4831 H   0  0  0  0  0  0  0  0  0  0  0  0
   -0.8658    0.5104   -1.7039 H   0  0  0  0  0  0  0  0  0  0  0  0
   -0.8987   -1.2560   -1.4144 H   0  0  0  0  0  0  0  0  0  0  0  0
  1  2  2  0
  2  3  1  0
  3  4  1  0
  4  5  1  0
  3  6  1  0
  6  7  2  0
  7  8  1  0
  8  9  1  0
  9  3  1  0
  2 10  1  0
  4 11  1  0
  4 12  1  0
  5 13  1  0
  6 14  1  0
  7 15  1  0
  8 16  1  0
  8 17  1  0
  9 18  1  0
  9 19  1  0
M  END
