
     RDKit          3D

 15 16  0  0  0  0  0  0  0  0999 V2000
   -1.7283    2.0400    1.1113 O   0  0  0  0  0  0  0  0  0  0  0  0
   -0.8096    1.6867    0.3525 C   0  0  0  0  0  0  0  0  0  0  0  0
   -0.3753    0.4198    0.2137 C   0  0  0  0  0  0  0  0  0  0  0  0
   -0.7452   -0.5792   -0.8539 C   0  0  0  0  0  0  0  0  0  0  0  0
    0.2011   -1.3167    0.0519 C   0  0  0  0  0  0  0  0  0  0  0  0
   -0.5060   -0.6882    1.1585 C   0  0  0  0  0  0  0  0  0  0  0  0
   -0.9697   -0.8768    2.2475 O   0  0  0  0  0  0  0  0  0  0  0  0
    1.0388   -0.0574    0.0120 C   0  0  0  0  0  0  0  0  0  0  0  0
    1.6210    0.2483   -1.1892 O   0  0  0  0  0  0  0  0  0  0  0  0
   -0.3765    2.5330   -0.2077 H   0  0  0  0  0  0  0  0  0  0  0  0
   -0.3412   -0.3343   -1.8410 H   0  0  0  0  0  0  0  0  0  0  0  0
   -1.7854   -0.9383   -0.8008 H   0  0  0  0  0  0  0  0  0  0  0  0
    0.5354   -2.2529   -0.0524 H   0  0  0  0  0  0  0  0  0  0  0  0
    1.6449    0.0184    0.9190 H   0  0  0  0  0  0  0  0  0  0  0  0
    2.5958    0.0976   -1.1213 H   0  0  0  0  0  0  0  0  0  0  0  0
  1  2  2  0
  2  3  1  0
  3  4  1  0
  4  5  1  0
  5  6  1  0
  6  7  2  0
  5  8  1  0
  8  9  1  0
  6  3  1  0
  8  3  1  0
  2 10  1  0
  4 11  1  0
  4 12  1  0
  5 13  1  0
  8 14  1  0
  9 15  1  0
M  END
