
     RDKit          3D

 15 17  0  0  0  0  0  0  0  0999 V2000
    2.2228    0.1204    1.5830 O   0  0  0  0  0  0  0  0  0  0  0  0
    1.8967   -0.4529    0.5679 C   0  0  0  0  0  0  0  0  0  0  0  0
    0.6346   -0.1137   -0.0712 C   0  0  0  0  0  0  0  0  0  0  0  0
    0.3076    1.3551   -0.2267 C   0  0  0  0  0  0  0  0  0  0  0  0
   -1.0528    1.4858   -0.2746 O   0  0  0  0  0  0  0  0  0  0  0  0
   -1.6385    0.2557   -0.0307 C   0  0  0  0  0  0  0  0  0  0  0  0
   -1.0258   -0.8717   -0.8490 C   0  0  0  0  0  0  0  0  0  0  0  0
    0.2982   -0.7905   -1.2281 O   0  0  0  0  0  0  0  0  0  0  0  0
   -0.6306   -0.6305    0.5373 C   0  0  0  0  0  0  0  0  0  0  0  0
    2.5249   -1.2182    0.1192 H   0  0  0  0  0  0  0  0  0  0  0  0
    0.8074    1.6890   -1.1818 H   0  0  0  0  0  0  0  0  0  0  0  0
    0.7000    1.9699    0.6082 H   0  0  0  0  0  0  0  0  0  0  0  0
   -2.6701    0.1728    0.2567 H   0  0  0  0  0  0  0  0  0  0  0  0
   -1.6767   -1.6845   -1.1776 H   0  0  0  0  0  0  0  0  0  0  0  0
   -0.6977   -1.2867    1.3674 H   0  0  0  0  0  0  0  0  0  0  0  0
  1  2  2  0
  2  3  1  0
  3  4  1  0
  4  5  1  0
  5  6  1  0
  6  7  1  0
  7  8  1  0
  7  9  1  0
  8  3  1  0
  9  3  1  0
  9  6  1  0
  2 10  1  0
  4 11  1  0
  4 12  1  0
  6 13  1  0
  7 14  1  0
  9 15  1  0
M  END
