
     RDKit          3D

 16 17  0  0  0  0  0  0  0  0999 V2000
    3.4165    0.6115    0.4623 O   0  0  0  0  0  0  0  0  0  0  0  0
    2.2187    0.5775    0.5676 C   0  0  0  0  0  0  0  0  0  0  0  0
    1.3168   -0.2046   -0.3494 C   0  0  0  0  0  0  0  0  0  0  0  0
    0.0687    0.3018   -0.8394 C   0  0  0  0  0  0  0  0  0  0  0  0
   -1.2804   -0.3765   -0.9297 C   0  0  0  0  0  0  0  0  0  0  0  0
   -1.1537   -0.2734    0.6054 C   0  0  0  0  0  0  0  0  0  0  0  0
   -1.2101    0.9776    1.1307 O   0  0  0  0  0  0  0  0  0  0  0  0
    0.2066   -0.8390    0.2576 C   0  0  0  0  0  0  0  0  0  0  0  0
    1.6868    1.1313    1.3631 H   0  0  0  0  0  0  0  0  0  0  0  0
    1.9469   -0.7306   -1.1326 H   0  0  0  0  0  0  0  0  0  0  0  0
   -0.1338    1.3330   -0.4081 H   0  0  0  0  0  0  0  0  0  0  0  0
   -2.0544    0.2406   -1.3553 H   0  0  0  0  0  0  0  0  0  0  0  0
   -1.2831   -1.4288   -1.2078 H   0  0  0  0  0  0  0  0  0  0  0  0
   -1.7888   -0.9735    1.1554 H   0  0  0  0  0  0  0  0  0  0  0  0
   -1.9705    1.5346    0.8364 H   0  0  0  0  0  0  0  0  0  0  0  0
    0.0138   -1.8816   -0.1562 H   0  0  0  0  0  0  0  0  0  0  0  0
  1  2  2  0
  2  3  1  0
  3  4  1  0
  4  5  1  0
  5  6  1  0
  6  7  1  0
  6  8  1  0
  8  3  1  0
  8  4  1  0
  2  9  1  0
  3 10  1  0
  4 11  1  0
  5 12  1  0
  5 13  1  0
  6 14  1  0
  7 15  1  0
  8 16  1  0
M  END
