
     RDKit          3D

 17 17  0  0  0  0  0  0  0  0999 V2000
    3.1000    0.8603    0.8849 O   0  0  0  0  0  0  0  0  0  0  0  0
    2.5748    0.7986   -0.2745 C   0  0  0  0  0  0  0  0  0  0  0  0
    1.2467    0.2487   -0.4834 C   0  0  0  0  0  0  0  0  0  0  0  0
    0.8277    0.2366   -1.6647 O   0  0  0  0  0  0  0  0  0  0  0  0
    0.4882   -0.2477    0.6565 C   0  0  0  0  0  0  0  0  0  0  0  0
   -0.2420   -1.5820    0.3866 C   0  0  0  0  0  0  0  0  0  0  0  0
   -0.9813   -0.3061    0.6872 C   0  0  0  0  0  0  0  0  0  0  0  0
   -1.8408    0.2302   -0.4075 C   0  0  0  0  0  0  0  0  0  0  0  0
   -1.6732    1.5852   -0.6343 O   0  0  0  0  0  0  0  0  0  0  0  0
    3.2050    1.1892   -1.0712 H   0  0  0  0  0  0  0  0  0  0  0  0
    0.9954   -0.1693    1.6460 H   0  0  0  0  0  0  0  0  0  0  0  0
   -0.1158   -2.3485    1.1902 H   0  0  0  0  0  0  0  0  0  0  0  0
   -0.2564   -1.9527   -0.6583 H   0  0  0  0  0  0  0  0  0  0  0  0
   -1.4703   -0.3190    1.6953 H   0  0  0  0  0  0  0  0  0  0  0  0
   -2.9033    0.0657   -0.1336 H   0  0  0  0  0  0  0  0  0  0  0  0
   -1.6866   -0.3583   -1.3462 H   0  0  0  0  0  0  0  0  0  0  0  0
   -1.2682    2.0691    0.1041 H   0  0  0  0  0  0  0  0  0  0  0  0
  1  2  2  0
  2  3  1  0
  3  4  2  0
  3  5  1  0
  5  6  1  0
  6  7  1  0
  7  8  1  0
  8  9  1  0
  7  5  1  0
  2 10  1  0
  5 11  1  0
  6 12  1  0
  6 13  1  0
  7 14  1  0
  8 15  1  0
  8 16  1  0
  9 17  1  0
M  END
