
     RDKit          3D

 17 18  0  0  0  0  0  0  0  0999 V2000
   -2.4008    0.3058   -1.5873 O   0  0  0  0  0  0  0  0  0  0  0  0
   -2.3670    0.3071   -0.3756 C   0  0  0  0  0  0  0  0  0  0  0  0
   -1.0670    0.3863    0.3127 C   0  0  0  0  0  0  0  0  0  0  0  0
   -0.2224    1.5033   -0.1769 C   0  0  0  0  0  0  0  0  0  0  0  0
    0.9972    1.0870   -0.4857 C   0  0  0  0  0  0  0  0  0  0  0  0
    1.1597   -0.3590   -0.2540 C   0  0  0  0  0  0  0  0  0  0  0  0
    1.9362   -1.1049   -1.1677 O   0  0  0  0  0  0  0  0  0  0  0  0
    0.9242   -0.9767    1.0655 C   0  0  0  0  0  0  0  0  0  0  0  0
   -0.1999   -0.8243    0.1099 C   0  0  0  0  0  0  0  0  0  0  0  0
   -3.2785    0.2510    0.1900 H   0  0  0  0  0  0  0  0  0  0  0  0
   -1.1978    0.5168    1.4174 H   0  0  0  0  0  0  0  0  0  0  0  0
   -0.5708    2.5226   -0.2654 H   0  0  0  0  0  0  0  0  0  0  0  0
    1.7870    1.7280   -0.8644 H   0  0  0  0  0  0  0  0  0  0  0  0
    2.7344   -1.3923   -0.6403 H   0  0  0  0  0  0  0  0  0  0  0  0
    0.9490   -0.3090    1.9509 H   0  0  0  0  0  0  0  0  0  0  0  0
    1.3960   -1.9589    1.2550 H   0  0  0  0  0  0  0  0  0  0  0  0
   -0.5796   -1.6829   -0.4839 H   0  0  0  0  0  0  0  0  0  0  0  0
  1  2  2  0
  2  3  1  0
  3  4  1  0
  4  5  2  0
  5  6  1  0
  6  7  1  0
  6  8  1  0
  8  9  1  0
  9  3  1  0
  9  6  1  0
  2 10  1  0
  3 11  1  0
  4 12  1  0
  5 13  1  0
  7 14  1  0
  8 15  1  0
  8 16  1  0
  9 17  1  0
M  END
