
     RDKit          3D

 19 20  0  0  0  0  0  0  0  0999 V2000
    2.3367   -0.0851   -2.0461 O   0  0  0  0  0  0  0  0  0  0  0  0
    2.1359    0.1950   -0.8631 C   0  0  0  0  0  0  0  0  0  0  0  0
    0.7902    0.0678   -0.3296 C   0  0  0  0  0  0  0  0  0  0  0  0
    0.1438    1.3612    0.0797 C   0  0  0  0  0  0  0  0  0  0  0  0
   -1.3460    1.0228   -0.0400 C   0  0  0  0  0  0  0  0  0  0  0  0
   -1.2901   -0.4041   -0.5142 C   0  0  0  0  0  0  0  0  0  0  0  0
   -0.8839   -1.2579    0.6561 C   0  0  0  0  0  0  0  0  0  0  0  0
    0.6220   -1.0138    0.7062 C   0  0  0  0  0  0  0  0  0  0  0  0
   -0.1221   -0.3832   -1.3138 O   0  0  0  0  0  0  0  0  0  0  0  0
    2.9328    0.5292   -0.2244 H   0  0  0  0  0  0  0  0  0  0  0  0
    0.4142    1.6637    1.0989 H   0  0  0  0  0  0  0  0  0  0  0  0
    0.4070    2.1212   -0.6660 H   0  0  0  0  0  0  0  0  0  0  0  0
   -1.7952    1.0746    0.9929 H   0  0  0  0  0  0  0  0  0  0  0  0
   -1.8707    1.6786   -0.7261 H   0  0  0  0  0  0  0  0  0  0  0  0
   -2.1641   -0.7467   -1.0493 H   0  0  0  0  0  0  0  0  0  0  0  0
   -1.1305   -2.3183    0.5423 H   0  0  0  0  0  0  0  0  0  0  0  0
   -1.3055   -0.8973    1.6135 H   0  0  0  0  0  0  0  0  0  0  0  0
    1.1719   -1.9071    0.3699 H   0  0  0  0  0  0  0  0  0  0  0  0
    0.9536   -0.7006    1.7130 H   0  0  0  0  0  0  0  0  0  0  0  0
  1  2  2  0
  2  3  1  0
  3  4  1  0
  4  5  1  0
  5  6  1  0
  6  7  1  0
  7  8  1  0
  6  9  1  0
  8  3  1  0
  9  3  1  0
  2 10  1  0
  4 11  1  0
  4 12  1  0
  5 13  1  0
  5 14  1  0
  6 15  1  0
  7 16  1  0
  7 17  1  0
  8 18  1  0
  8 19  1  0
M  END
