
     RDKit          3D

 16 16  0  0  0  0  0  0  0  0999 V2000
   -0.5555    2.4145   -0.3842 O   0  0  0  0  0  0  0  0  0  0  0  0
    0.2876    1.5666   -0.5843 C   0  0  0  0  0  0  0  0  0  0  0  0
   -0.0547    0.1503   -0.3496 C   0  0  0  0  0  0  0  0  0  0  0  0
   -1.5352   -0.1847   -0.2819 C   0  0  0  0  0  0  0  0  0  0  0  0
   -2.1375    0.5331    0.7684 O   0  0  0  0  0  0  0  0  0  0  0  0
    0.8811   -0.9482   -0.6800 C   0  0  0  0  0  0  0  0  0  0  0  0
    0.7393   -0.4871    0.7841 C   0  0  0  0  0  0  0  0  0  0  0  0
    1.8250    0.2381    1.3119 O   0  0  0  0  0  0  0  0  0  0  0  0
    1.2597    1.8809   -0.9276 H   0  0  0  0  0  0  0  0  0  0  0  0
   -2.0044    0.1676   -1.2235 H   0  0  0  0  0  0  0  0  0  0  0  0
   -1.6332   -1.2681   -0.1498 H   0  0  0  0  0  0  0  0  0  0  0  0
   -2.2117   -0.1130    1.5173 H   0  0  0  0  0  0  0  0  0  0  0  0
    0.4108   -1.9204   -0.9401 H   0  0  0  0  0  0  0  0  0  0  0  0
    1.8707   -0.7830   -1.1096 H   0  0  0  0  0  0  0  0  0  0  0  0
    0.2435   -1.1848    1.4674 H   0  0  0  0  0  0  0  0  0  0  0  0
    2.6144   -0.0619    0.7815 H   0  0  0  0  0  0  0  0  0  0  0  0
  1  2  2  0
  2  3  1  0
  3  4  1  0
  4  5  1  0
  3  6  1  0
  6  7  1  0
  7  8  1  0
  7  3  1  0
  2  9  1  0
  4 10  1  0
  4 11  1  0
  5 12  1  0
  6 13  1  0
  6 14  1  0
  7 15  1  0
  8 16  1  0
M  END
