
     RDKit          3D

 16 17  0  0  0  0  0  0  0  0999 V2000
    2.3576    0.8053   -1.0120 O   0  0  0  0  0  0  0  0  0  0  0  0
    2.3292   -0.0473   -0.1366 C   0  0  0  0  0  0  0  0  0  0  0  0
    1.0264   -0.4896    0.3723 C   0  0  0  0  0  0  0  0  0  0  0  0
    0.0303   -0.6558   -0.7830 C   0  0  0  0  0  0  0  0  0  0  0  0
   -0.9789    0.0300    0.0794 C   0  0  0  0  0  0  0  0  0  0  0  0
   -2.2239    0.4623   -0.2555 C   0  0  0  0  0  0  0  0  0  0  0  0
   -1.9910   -0.6537    0.7003 O   0  0  0  0  0  0  0  0  0  0  0  0
    0.1123    0.6406    0.8672 C   0  0  0  0  0  0  0  0  0  0  0  0
    3.2548   -0.4694    0.2569 H   0  0  0  0  0  0  0  0  0  0  0  0
    1.0162   -1.3828    1.0069 H   0  0  0  0  0  0  0  0  0  0  0  0
   -0.2537   -1.6830   -1.0044 H   0  0  0  0  0  0  0  0  0  0  0  0
    0.3347   -0.0938   -1.6932 H   0  0  0  0  0  0  0  0  0  0  0  0
   -2.7692    1.2780    0.2702 H   0  0  0  0  0  0  0  0  0  0  0  0
   -2.7959    0.0690   -1.1177 H   0  0  0  0  0  0  0  0  0  0  0  0
    0.4960    1.6137    0.4835 H   0  0  0  0  0  0  0  0  0  0  0  0
    0.0552    0.5765    1.9657 H   0  0  0  0  0  0  0  0  0  0  0  0
  1  2  2  0
  2  3  1  0
  3  4  1  0
  4  5  1  0
  5  6  1  0
  6  7  1  0
  5  8  1  0
  8  3  1  0
  7  5  1  0
  2  9  1  0
  3 10  1  0
  4 11  1  0
  4 12  1  0
  6 13  1  0
  6 14  1  0
  8 15  1  0
  8 16  1  0
M  END
