
     RDKit          3D

 17 19  0  0  0  0  0  0  0  0999 V2000
   -2.0179    1.6164    0.1397 O   0  0  0  0  0  0  0  0  0  0  0  0
   -1.1166    1.6334   -0.6786 C   0  0  0  0  0  0  0  0  0  0  0  0
   -0.1300    0.5265   -0.8382 C   0  0  0  0  0  0  0  0  0  0  0  0
    1.1141    0.8100   -0.0496 C   0  0  0  0  0  0  0  0  0  0  0  0
    2.0007   -0.2301    0.4513 C   0  0  0  0  0  0  0  0  0  0  0  0
    0.5873   -0.2257    0.9973 C   0  0  0  0  0  0  0  0  0  0  0  0
   -0.4505   -0.6132    0.0353 C   0  0  0  0  0  0  0  0  0  0  0  0
   -1.4801   -1.5009    0.0681 C   0  0  0  0  0  0  0  0  0  0  0  0
   -0.1890   -1.9188   -0.5441 O   0  0  0  0  0  0  0  0  0  0  0  0
   -1.0404    2.5071   -1.3182 H   0  0  0  0  0  0  0  0  0  0  0  0
    0.0225    0.2590   -1.9027 H   0  0  0  0  0  0  0  0  0  0  0  0
    1.2511    1.8307    0.3472 H   0  0  0  0  0  0  0  0  0  0  0  0
    2.7622    0.0369    1.1759 H   0  0  0  0  0  0  0  0  0  0  0  0
    2.2313   -1.1656   -0.1224 H   0  0  0  0  0  0  0  0  0  0  0  0
    0.3814    0.1678    1.9997 H   0  0  0  0  0  0  0  0  0  0  0  0
   -2.2437   -1.5853   -0.7094 H   0  0  0  0  0  0  0  0  0  0  0  0
   -1.6825   -2.1483    0.9486 H   0  0  0  0  0  0  0  0  0  0  0  0
  1  2  2  0
  2  3  1  0
  3  4  1  0
  4  5  1  0
  5  6  1  0
  6  7  1  0
  7  8  1  0
  8  9  1  0
  7  3  1  0
  6  4  1  0
  9  7  1  0
  2 10  1  0
  3 11  1  0
  4 12  1  0
  5 13  1  0
  5 14  1  0
  6 15  1  0
  8 16  1  0
  8 17  1  0
M  END
