
     RDKit          3D

 14 14  0  0  0  0  0  0  0  0999 V2000
   -2.2652    0.8674   -1.1362 O   0  0  0  0  0  0  0  0  0  0  0  0
   -1.1311    1.0356   -0.6725 C   0  0  0  0  0  0  0  0  0  0  0  0
   -0.7158    0.1513    0.4110 C   0  0  0  0  0  0  0  0  0  0  0  0
   -0.5166   -1.2540   -0.1132 C   0  0  0  0  0  0  0  0  0  0  0  0
    0.5585   -1.3901    0.7583 O   0  0  0  0  0  0  0  0  0  0  0  0
    0.7530   -0.0152    0.6504 C   0  0  0  0  0  0  0  0  0  0  0  0
    1.6600    0.3223   -0.4388 C   0  0  0  0  0  0  0  0  0  0  0  0
    1.9509    1.4582   -0.6888 O   0  0  0  0  0  0  0  0  0  0  0  0
   -0.5517    1.8297   -1.1198 H   0  0  0  0  0  0  0  0  0  0  0  0
   -1.2607    0.2380    1.3513 H   0  0  0  0  0  0  0  0  0  0  0  0
   -0.2597   -1.2754   -1.1723 H   0  0  0  0  0  0  0  0  0  0  0  0
   -1.3916   -1.8860    0.0930 H   0  0  0  0  0  0  0  0  0  0  0  0
    1.0772    0.3770    1.6406 H   0  0  0  0  0  0  0  0  0  0  0  0
    2.0929   -0.4589   -1.0499 H   0  0  0  0  0  0  0  0  0  0  0  0
  1  2  2  0
  2  3  1  0
  3  4  1  0
  4  5  1  0
  5  6  1  0
  6  7  1  0
  7  8  2  0
  6  3  1  0
  2  9  1  0
  3 10  1  0
  4 11  1  0
  4 12  1  0
  6 13  1  0
  7 14  1  0
M  END
