
     RDKit          3D

 15 14  0  0  0  0  0  0  0  0999 V2000
    2.9200   -0.2712    1.5472 O   0  0  0  0  0  0  0  0  0  0  0  0
    2.9670    0.1626    0.3745 C   0  0  0  0  0  0  0  0  0  0  0  0
    1.7820    0.3241   -0.4561 C   0  0  0  0  0  0  0  0  0  0  0  0
    1.9078    0.7728   -1.6440 O   0  0  0  0  0  0  0  0  0  0  0  0
    0.4671   -0.0214    0.0594 C   0  0  0  0  0  0  0  0  0  0  0  0
    0.3844   -0.4581    1.2289 O   0  0  0  0  0  0  0  0  0  0  0  0
   -0.7017    0.1603   -0.8215 C   0  0  0  0  0  0  0  0  0  0  0  0
   -1.9958   -0.2327   -0.1689 C   0  0  0  0  0  0  0  0  0  0  0  0
   -3.0160   -0.0128   -1.1061 O   0  0  0  0  0  0  0  0  0  0  0  0
    3.9265    0.4252   -0.0303 H   0  0  0  0  0  0  0  0  0  0  0  0
   -0.6039   -0.4182   -1.7616 H   0  0  0  0  0  0  0  0  0  0  0  0
   -0.7823    1.2480   -1.0690 H   0  0  0  0  0  0  0  0  0  0  0  0
   -2.2476    0.4186    0.6994 H   0  0  0  0  0  0  0  0  0  0  0  0
   -2.0432   -1.3014    0.0922 H   0  0  0  0  0  0  0  0  0  0  0  0
   -2.9643   -0.7958   -1.7343 H   0  0  0  0  0  0  0  0  0  0  0  0
  1  2  2  0
  2  3  1  0
  3  4  2  0
  3  5  1  0
  5  6  2  0
  5  7  1  0
  7  8  1  0
  8  9  1  0
  2 10  1  0
  7 11  1  0
  7 12  1  0
  8 13  1  0
  8 14  1  0
  9 15  1  0
M  END
