
     RDKit          3D

 14 15  0  0  0  0  0  0  0  0999 V2000
    2.1756    0.6614    0.9839 O   0  0  0  0  0  0  0  0  0  0  0  0
    1.7250   -0.3184    0.4316 C   0  0  0  0  0  0  0  0  0  0  0  0
    0.7254   -0.3181   -0.6568 C   0  0  0  0  0  0  0  0  0  0  0  0
    0.1266    0.9721   -0.8341 C   0  0  0  0  0  0  0  0  0  0  0  0
   -0.8965    1.0849   -0.0065 C   0  0  0  0  0  0  0  0  0  0  0  0
   -0.9476   -0.2417    0.7434 C   0  0  0  0  0  0  0  0  0  0  0  0
   -0.6079   -1.0880   -0.4342 C   0  0  0  0  0  0  0  0  0  0  0  0
    0.4376   -1.5379   -1.0484 O   0  0  0  0  0  0  0  0  0  0  0  0
    2.0946   -1.2654    0.7746 H   0  0  0  0  0  0  0  0  0  0  0  0
    0.4481    1.7461   -1.5317 H   0  0  0  0  0  0  0  0  0  0  0  0
   -1.5727    1.9155    0.1383 H   0  0  0  0  0  0  0  0  0  0  0  0
   -1.9870   -0.4402    1.0572 H   0  0  0  0  0  0  0  0  0  0  0  0
   -0.3098   -0.2842    1.6049 H   0  0  0  0  0  0  0  0  0  0  0  0
   -1.4115   -0.8862   -1.2223 H   0  0  0  0  0  0  0  0  0  0  0  0
  1  2  2  0
  2  3  1  0
  3  4  1  0
  4  5  2  0
  5  6  1  0
  6  7  1  0
  7  8  1  0
  7  3  1  0
  8  3  1  0
  2  9  1  0
  4 10  1  0
  5 11  1  0
  6 12  1  0
  6 13  1  0
  7 14  1  0
M  END
