
     RDKit          3D

 19 20  0  0  0  0  0  0  0  0999 V2000
   -1.9121   -1.7048   -1.7921 O   0  0  0  0  0  0  0  0  0  0  0  0
   -1.9320   -0.6224   -1.2385 C   0  0  0  0  0  0  0  0  0  0  0  0
   -0.9203   -0.1791   -0.2446 C   0  0  0  0  0  0  0  0  0  0  0  0
   -0.1302   -1.3180    0.3581 C   0  0  0  0  0  0  0  0  0  0  0  0
    1.0618   -1.4024   -0.3888 O   0  0  0  0  0  0  0  0  0  0  0  0
    1.9145   -0.4375    0.1442 C   0  0  0  0  0  0  0  0  0  0  0  0
    1.3031    0.9327    0.1173 C   0  0  0  0  0  0  0  0  0  0  0  0
   -0.0583    0.9872   -0.4825 C   0  0  0  0  0  0  0  0  0  0  0  0
   -1.2020    1.0431    0.5401 C   0  0  0  0  0  0  0  0  0  0  0  0
   -2.7353    0.0565   -1.4862 H   0  0  0  0  0  0  0  0  0  0  0  0
    0.0541   -1.2120    1.4247 H   0  0  0  0  0  0  0  0  0  0  0  0
   -0.6440   -2.2961    0.2033 H   0  0  0  0  0  0  0  0  0  0  0  0
    2.1843   -0.7684    1.1863 H   0  0  0  0  0  0  0  0  0  0  0  0
    2.8842   -0.4322   -0.4094 H   0  0  0  0  0  0  0  0  0  0  0  0
    1.9944    1.6396   -0.3945 H   0  0  0  0  0  0  0  0  0  0  0  0
    1.2703    1.2927    1.1858 H   0  0  0  0  0  0  0  0  0  0  0  0
   -0.1570    1.6119   -1.3925 H   0  0  0  0  0  0  0  0  0  0  0  0
   -0.9304    1.1409    1.6010 H   0  0  0  0  0  0  0  0  0  0  0  0
   -2.0450    1.6683    0.2253 H   0  0  0  0  0  0  0  0  0  0  0  0
  1  2  2  0
  2  3  1  0
  3  4  1  0
  4  5  1  0
  5  6  1  0
  6  7  1  0
  7  8  1  0
  8  9  1  0
  8  3  1  0
  9  3  1  0
  2 10  1  0
  4 11  1  0
  4 12  1  0
  6 13  1  0
  6 14  1  0
  7 15  1  0
  7 16  1  0
  8 17  1  0
  9 18  1  0
  9 19  1  0
M  END
