
     RDKit          3D

 19 20  0  0  0  0  0  0  0  0999 V2000
    3.3599    0.2560   -0.5188 O   0  0  0  0  0  0  0  0  0  0  0  0
    2.3275    0.7624   -0.1695 C   0  0  0  0  0  0  0  0  0  0  0  0
    1.1860   -0.1054    0.1641 C   0  0  0  0  0  0  0  0  0  0  0  0
    0.4470   -0.3837   -1.1405 C   0  0  0  0  0  0  0  0  0  0  0  0
   -0.9936   -0.5188   -0.7960 C   0  0  0  0  0  0  0  0  0  0  0  0
   -1.4668   -1.2760    0.3839 C   0  0  0  0  0  0  0  0  0  0  0  0
   -1.1827    0.1696    0.4809 C   0  0  0  0  0  0  0  0  0  0  0  0
   -2.2084    1.0608    0.6721 O   0  0  0  0  0  0  0  0  0  0  0  0
    0.1687    0.5345    1.0547 C   0  0  0  0  0  0  0  0  0  0  0  0
    2.2203    1.8201   -0.0962 H   0  0  0  0  0  0  0  0  0  0  0  0
    1.4752   -1.0696    0.6144 H   0  0  0  0  0  0  0  0  0  0  0  0
    0.6006    0.4471   -1.8614 H   0  0  0  0  0  0  0  0  0  0  0  0
    0.9079   -1.3012   -1.5639 H   0  0  0  0  0  0  0  0  0  0  0  0
   -1.6898   -0.2869   -1.6284 H   0  0  0  0  0  0  0  0  0  0  0  0
   -2.5562   -1.5595    0.3474 H   0  0  0  0  0  0  0  0  0  0  0  0
   -0.8265   -2.0309    0.8484 H   0  0  0  0  0  0  0  0  0  0  0  0
   -2.2781    1.7473   -0.0398 H   0  0  0  0  0  0  0  0  0  0  0  0
    0.2617    1.6213    1.1544 H   0  0  0  0  0  0  0  0  0  0  0  0
    0.2473    0.1128    2.0941 H   0  0  0  0  0  0  0  0  0  0  0  0
  1  2  2  0
  2  3  1  0
  3  4  1  0
  4  5  1  0
  5  6  1  0
  6  7  1  0
  7  8  1  0
  7  9  1  0
  9  3  1  0
  7  5  1  0
  2 10  1  0
  3 11  1  0
  4 12  1  0
  4 13  1  0
  5 14  1  0
  6 15  1  0
  6 16  1  0
  8 17  1  0
  9 18  1  0
  9 19  1  0
M  END
