
     RDKit          3D

 17 18  0  0  0  0  0  0  0  0999 V2000
    2.6684    0.9844    0.8400 O   0  0  0  0  0  0  0  0  0  0  0  0
    2.0787    0.0047    0.3824 C   0  0  0  0  0  0  0  0  0  0  0  0
    0.6841   -0.0023    0.1881 C   0  0  0  0  0  0  0  0  0  0  0  0
    0.0970   -0.7629   -1.0100 C   0  0  0  0  0  0  0  0  0  0  0  0
   -1.0921    0.1775   -0.7792 C   0  0  0  0  0  0  0  0  0  0  0  0
   -1.5864   -0.2795    0.5500 C   0  0  0  0  0  0  0  0  0  0  0  0
   -0.2498   -0.4125    1.2628 C   0  0  0  0  0  0  0  0  0  0  0  0
   -0.0606   -0.7634    2.4018 O   0  0  0  0  0  0  0  0  0  0  0  0
   -0.0231    1.2071   -0.3904 C   0  0  0  0  0  0  0  0  0  0  0  0
    2.7077   -0.8472    0.1412 H   0  0  0  0  0  0  0  0  0  0  0  0
   -0.0928   -1.8047   -0.7039 H   0  0  0  0  0  0  0  0  0  0  0  0
    0.6467   -0.5953   -1.9352 H   0  0  0  0  0  0  0  0  0  0  0  0
   -1.7316    0.3923   -1.5838 H   0  0  0  0  0  0  0  0  0  0  0  0
   -2.0141   -1.2775    0.4491 H   0  0  0  0  0  0  0  0  0  0  0  0
   -2.2228    0.4522    1.0471 H   0  0  0  0  0  0  0  0  0  0  0  0
   -0.3598    1.9180    0.3775 H   0  0  0  0  0  0  0  0  0  0  0  0
    0.5504    1.6091   -1.2375 H   0  0  0  0  0  0  0  0  0  0  0  0
  1  2  2  0
  2  3  1  0
  3  4  1  0
  4  5  1  0
  5  6  1  0
  6  7  1  0
  7  8  2  0
  5  9  1  0
  7  3  1  0
  9  3  1  0
  2 10  1  0
  4 11  1  0
  4 12  1  0
  5 13  1  0
  6 14  1  0
  6 15  1  0
  9 16  1  0
  9 17  1  0
M  END
