
     RDKit          3D

 14 13  0  0  0  0  0  0  0  0999 V2000
    2.7211   -0.7021   -1.4212 O   0  0  0  0  0  0  0  0  0  0  0  0
    2.3110   -0.5312   -0.2975 C   0  0  0  0  0  0  0  0  0  0  0  0
    0.8422   -0.5697   -0.0337 C   0  0  0  0  0  0  0  0  0  0  0  0
    0.1754    0.6870   -0.3836 C   0  0  0  0  0  0  0  0  0  0  0  0
    0.7942    1.6340   -0.8400 O   0  0  0  0  0  0  0  0  0  0  0  0
   -1.2729    0.8739   -0.2039 C   0  0  0  0  0  0  0  0  0  0  0  0
   -2.0040   -0.2669    0.3767 C   0  0  0  0  0  0  0  0  0  0  0  0
   -1.4984   -1.3134    0.7063 O   0  0  0  0  0  0  0  0  0  0  0  0
    3.0432   -0.3565    0.4701 H   0  0  0  0  0  0  0  0  0  0  0  0
    0.3605   -1.3811   -0.6378 H   0  0  0  0  0  0  0  0  0  0  0  0
    0.7310   -0.8628    1.0473 H   0  0  0  0  0  0  0  0  0  0  0  0
   -1.3690    1.6985    0.5732 H   0  0  0  0  0  0  0  0  0  0  0  0
   -1.7627    1.2359   -1.1500 H   0  0  0  0  0  0  0  0  0  0  0  0
   -3.0716   -0.1455    0.5128 H   0  0  0  0  0  0  0  0  0  0  0  0
  1  2  2  0
  2  3  1  0
  3  4  1  0
  4  5  2  0
  4  6  1  0
  6  7  1  0
  7  8  2  0
  2  9  1  0
  3 10  1  0
  3 11  1  0
  6 12  1  0
  6 13  1  0
  7 14  1  0
M  END
