
     RDKit          3D

 21 22  0  0  0  0  0  0  0  0999 V2000
    2.7037    2.1407    0.3300 O   0  0  0  0  0  0  0  0  0  0  0  0
    2.5324    0.9500    0.2428 C   0  0  0  0  0  0  0  0  0  0  0  0
    1.2440    0.4500   -0.2564 C   0  0  0  0  0  0  0  0  0  0  0  0
    1.1335   -1.0324   -0.3138 C   0  0  0  0  0  0  0  0  0  0  0  0
   -0.1869   -1.4165    0.3406 C   0  0  0  0  0  0  0  0  0  0  0  0
   -0.9327   -0.1165    0.3104 C   0  0  0  0  0  0  0  0  0  0  0  0
   -2.3538    0.0272    0.4948 C   0  0  0  0  0  0  0  0  0  0  0  0
   -1.7564    0.2810   -0.8612 C   0  0  0  0  0  0  0  0  0  0  0  0
    0.1139    0.8686    0.6984 C   0  0  0  0  0  0  0  0  0  0  0  0
    3.3583    0.2863    0.5447 H   0  0  0  0  0  0  0  0  0  0  0  0
    0.9619    0.8862   -1.2539 H   0  0  0  0  0  0  0  0  0  0  0  0
    1.0613   -1.4297   -1.3673 H   0  0  0  0  0  0  0  0  0  0  0  0
    1.9631   -1.5659    0.2019 H   0  0  0  0  0  0  0  0  0  0  0  0
   -0.6865   -2.2485   -0.1499 H   0  0  0  0  0  0  0  0  0  0  0  0
    0.0640   -1.6170    1.4200 H   0  0  0  0  0  0  0  0  0  0  0  0
   -2.7721    0.8718    1.0816 H   0  0  0  0  0  0  0  0  0  0  0  0
   -2.9691   -0.9013    0.5408 H   0  0  0  0  0  0  0  0  0  0  0  0
   -1.9481   -0.3772   -1.7068 H   0  0  0  0  0  0  0  0  0  0  0  0
   -1.7863    1.3732   -1.1455 H   0  0  0  0  0  0  0  0  0  0  0  0
   -0.1566    1.9159    0.5808 H   0  0  0  0  0  0  0  0  0  0  0  0
    0.4125    0.6539    1.7628 H   0  0  0  0  0  0  0  0  0  0  0  0
  1  2  2  0
  2  3  1  0
  3  4  1  0
  4  5  1  0
  5  6  1  0
  6  7  1  0
  7  8  1  0
  6  9  1  0
  9  3  1  0
  8  6  1  0
  2 10  1  0
  3 11  1  0
  4 12  1  0
  4 13  1  0
  5 14  1  0
  5 15  1  0
  7 16  1  0
  7 17  1  0
  8 18  1  0
  8 19  1  0
  9 20  1  0
  9 21  1  0
M  END
