
     RDKit          3D

 21 21  0  0  0  0  0  0  0  0999 V2000
   -3.9471   -0.4566    0.4667 O   0  0  0  0  0  0  0  0  0  0  0  0
   -2.7759   -0.6808    0.2785 C   0  0  0  0  0  0  0  0  0  0  0  0
   -1.8919    0.3749   -0.2438 C   0  0  0  0  0  0  0  0  0  0  0  0
   -0.4781    0.2908    0.3109 C   0  0  0  0  0  0  0  0  0  0  0  0
    0.2009   -0.9978   -0.0082 C   0  0  0  0  0  0  0  0  0  0  0  0
    1.6591   -0.8368   -0.3425 C   0  0  0  0  0  0  0  0  0  0  0  0
    2.2954    0.3815    0.2029 C   0  0  0  0  0  0  0  0  0  0  0  0
    1.5083    1.4842    0.3410 O   0  0  0  0  0  0  0  0  0  0  0  0
    0.3107    1.4010   -0.3637 C   0  0  0  0  0  0  0  0  0  0  0  0
   -2.3747   -1.6574    0.4924 H   0  0  0  0  0  0  0  0  0  0  0  0
   -1.7884    0.2806   -1.3649 H   0  0  0  0  0  0  0  0  0  0  0  0
   -2.2536    1.4036   -0.0757 H   0  0  0  0  0  0  0  0  0  0  0  0
   -0.4780    0.4847    1.4143 H   0  0  0  0  0  0  0  0  0  0  0  0
   -0.2972   -1.4324   -0.8994 H   0  0  0  0  0  0  0  0  0  0  0  0
    0.0306   -1.7144    0.8195 H   0  0  0  0  0  0  0  0  0  0  0  0
    1.8338   -0.9234   -1.4342 H   0  0  0  0  0  0  0  0  0  0  0  0
    2.1862   -1.7224    0.1110 H   0  0  0  0  0  0  0  0  0  0  0  0
    3.1429    0.6711   -0.4893 H   0  0  0  0  0  0  0  0  0  0  0  0
    2.8195    0.2227    1.1915 H   0  0  0  0  0  0  0  0  0  0  0  0
    0.5051    1.0606   -1.4154 H   0  0  0  0  0  0  0  0  0  0  0  0
   -0.2078    2.3660   -0.3436 H   0  0  0  0  0  0  0  0  0  0  0  0
  1  2  2  0
  2  3  1  0
  3  4  1  0
  4  5  1  0
  5  6  1  0
  6  7  1  0
  7  8  1  0
  8  9  1  0
  9  4  1  0
  2 10  1  0
  3 11  1  0
  3 12  1  0
  4 13  1  0
  5 14  1  0
  5 15  1  0
  6 16  1  0
  6 17  1  0
  7 18  1  0
  7 19  1  0
  9 20  1  0
  9 21  1  0
M  END
