
     RDKit          3D

 17 18  0  0  0  0  0  0  0  0999 V2000
    2.6361    1.3334   -0.3365 O   0  0  0  0  0  0  0  0  0  0  0  0
    1.9643    0.4391    0.1331 C   0  0  0  0  0  0  0  0  0  0  0  0
    0.6091    0.0554   -0.3337 C   0  0  0  0  0  0  0  0  0  0  0  0
    0.3591   -1.4311   -0.3869 C   0  0  0  0  0  0  0  0  0  0  0  0
   -0.9986   -1.5627    0.1654 C   0  0  0  0  0  0  0  0  0  0  0  0
   -1.4445   -0.4409    0.6919 C   0  0  0  0  0  0  0  0  0  0  0  0
   -0.4401    0.6174    0.5680 C   0  0  0  0  0  0  0  0  0  0  0  0
   -0.6566    1.6049   -0.5544 C   0  0  0  0  0  0  0  0  0  0  0  0
    0.1022    0.7864   -1.3792 O   0  0  0  0  0  0  0  0  0  0  0  0
    2.3873   -0.1228    0.9576 H   0  0  0  0  0  0  0  0  0  0  0  0
    0.3705   -1.8285   -1.4285 H   0  0  0  0  0  0  0  0  0  0  0  0
    1.0969   -1.9736    0.2394 H   0  0  0  0  0  0  0  0  0  0  0  0
   -1.5722   -2.4840    0.1423 H   0  0  0  0  0  0  0  0  0  0  0  0
   -2.4242   -0.2848    1.1648 H   0  0  0  0  0  0  0  0  0  0  0  0
   -0.0988    1.0958    1.5006 H   0  0  0  0  0  0  0  0  0  0  0  0
   -1.7362    1.6491   -0.8024 H   0  0  0  0  0  0  0  0  0  0  0  0
   -0.1543    2.5468   -0.3415 H   0  0  0  0  0  0  0  0  0  0  0  0
  1  2  2  0
  2  3  1  0
  3  4  1  0
  4  5  1  0
  5  6  2  0
  6  7  1  0
  7  8  1  0
  8  9  1  0
  7  3  1  0
  9  3  1  0
  2 10  1  0
  4 11  1  0
  4 12  1  0
  5 13  1  0
  6 14  1  0
  7 15  1  0
  8 16  1  0
  8 17  1  0
M  END
