
     RDKit          3D

 13 13  0  0  0  0  0  0  0  0999 V2000
    2.1272   -1.3543    0.3430 O   0  0  0  0  0  0  0  0  0  0  0  0
    2.0833   -0.1159    0.2679 C   0  0  0  0  0  0  0  0  0  0  0  0
    0.8088    0.6198    0.1718 C   0  0  0  0  0  0  0  0  0  0  0  0
    0.1888    0.2271   -1.1447 O   0  0  0  0  0  0  0  0  0  0  0  0
   -0.4665    0.0593    0.1026 C   0  0  0  0  0  0  0  0  0  0  0  0
   -1.6415    0.9783    0.1941 C   0  0  0  0  0  0  0  0  0  0  0  0
   -2.7285    0.4433    0.3973 O   0  0  0  0  0  0  0  0  0  0  0  0
   -0.7586   -1.3351    0.5289 C   0  0  0  0  0  0  0  0  0  0  0  0
   -1.9579   -1.6609    0.6048 O   0  0  0  0  0  0  0  0  0  0  0  0
    3.0120    0.4302    0.2714 H   0  0  0  0  0  0  0  0  0  0  0  0
    0.9417    1.7457    0.1830 H   0  0  0  0  0  0  0  0  0  0  0  0
   -1.5819    2.0277    0.1003 H   0  0  0  0  0  0  0  0  0  0  0  0
   -0.0269   -2.0654    0.7714 H   0  0  0  0  0  0  0  0  0  0  0  0
  1  2  2  0
  2  3  1  0
  3  4  1  0
  4  5  1  0
  5  6  1  0
  6  7  2  0
  5  8  1  0
  8  9  2  0
  5  3  1  0
  2 10  1  0
  3 11  1  0
  6 12  1  0
  8 13  1  0
M  END
