
     RDKit          3D

 19 20  0  0  0  0  0  0  0  0999 V2000
    2.8012    1.6375    0.9847 O   0  0  0  0  0  0  0  0  0  0  0  0
    3.1780    0.5738    0.5763 C   0  0  0  0  0  0  0  0  0  0  0  0
    2.1919   -0.4060    0.0633 C   0  0  0  0  0  0  0  0  0  0  0  0
    0.8981    0.1143    0.1493 O   0  0  0  0  0  0  0  0  0  0  0  0
   -0.0307   -0.7819   -0.3226 C   0  0  0  0  0  0  0  0  0  0  0  0
   -1.3352   -0.8194    0.3633 C   0  0  0  0  0  0  0  0  0  0  0  0
   -2.1340    0.3920    0.6767 C   0  0  0  0  0  0  0  0  0  0  0  0
   -1.6643    1.1104   -0.5742 C   0  0  0  0  0  0  0  0  0  0  0  0
   -1.1892   -0.2440   -1.0662 C   0  0  0  0  0  0  0  0  0  0  0  0
    4.2315    0.2847    0.5630 H   0  0  0  0  0  0  0  0  0  0  0  0
    2.4449   -0.6393   -1.0092 H   0  0  0  0  0  0  0  0  0  0  0  0
    2.2557   -1.3548    0.6396 H   0  0  0  0  0  0  0  0  0  0  0  0
    0.3775   -1.7317   -0.6799 H   0  0  0  0  0  0  0  0  0  0  0  0
   -1.8263   -1.7818    0.4850 H   0  0  0  0  0  0  0  0  0  0  0  0
   -1.9610    0.9060    1.6230 H   0  0  0  0  0  0  0  0  0  0  0  0
   -3.2384    0.1880    0.5514 H   0  0  0  0  0  0  0  0  0  0  0  0
   -2.4593    1.5812   -1.1718 H   0  0  0  0  0  0  0  0  0  0  0  0
   -0.7826    1.7698   -0.3855 H   0  0  0  0  0  0  0  0  0  0  0  0
   -1.7577   -0.7989   -1.8035 H   0  0  0  0  0  0  0  0  0  0  0  0
  1  2  2  0
  2  3  1  0
  3  4  1  0
  4  5  1  0
  5  6  1  0
  6  7  1  0
  7  8  1  0
  8  9  1  0
  9  5  1  0
  9  6  1  0
  2 10  1  0
  3 11  1  0
  3 12  1  0
  5 13  1  0
  6 14  1  0
  7 15  1  0
  7 16  1  0
  8 17  1  0
  8 18  1  0
  9 19  1  0
M  END
