
     RDKit          3D

 17 18  0  0  0  0  0  0  0  0999 V2000
    2.9289   -0.0454    1.1833 O   0  0  0  0  0  0  0  0  0  0  0  0
    2.3280   -0.2927    0.1541 C   0  0  0  0  0  0  0  0  0  0  0  0
    1.0139    0.3341   -0.1412 C   0  0  0  0  0  0  0  0  0  0  0  0
    0.5042   -0.0880   -1.3699 O   0  0  0  0  0  0  0  0  0  0  0  0
   -0.8424   -0.3383   -1.1394 C   0  0  0  0  0  0  0  0  0  0  0  0
   -1.4321    0.9245   -0.6020 C   0  0  0  0  0  0  0  0  0  0  0  0
   -1.1024    1.0665    0.7036 C   0  0  0  0  0  0  0  0  0  0  0  0
   -0.0316    0.0241    0.8929 C   0  0  0  0  0  0  0  0  0  0  0  0
   -0.7460   -1.1358    0.1752 C   0  0  0  0  0  0  0  0  0  0  0  0
    2.7452   -0.9802   -0.5705 H   0  0  0  0  0  0  0  0  0  0  0  0
    1.1687    1.4370   -0.1250 H   0  0  0  0  0  0  0  0  0  0  0  0
   -1.3840   -0.8233   -1.9093 H   0  0  0  0  0  0  0  0  0  0  0  0
   -2.0360    1.6277   -1.1693 H   0  0  0  0  0  0  0  0  0  0  0  0
   -1.5003    1.7477    1.4253 H   0  0  0  0  0  0  0  0  0  0  0  0
    0.2695   -0.1672    1.8797 H   0  0  0  0  0  0  0  0  0  0  0  0
   -0.1224   -2.0138    0.0816 H   0  0  0  0  0  0  0  0  0  0  0  0
   -1.7612   -1.2767    0.5310 H   0  0  0  0  0  0  0  0  0  0  0  0
  1  2  2  0
  2  3  1  0
  3  4  1  0
  4  5  1  0
  5  6  1  0
  6  7  2  0
  7  8  1  0
  8  9  1  0
  8  3  1  0
  9  5  1  0
  2 10  1  0
  3 11  1  0
  5 12  1  0
  6 13  1  0
  7 14  1  0
  8 15  1  0
  9 16  1  0
  9 17  1  0
M  END
