
     RDKit          3D

 17 17  0  0  0  0  0  0  0  0999 V2000
    1.4930    2.2599   -0.4424 O   0  0  0  0  0  0  0  0  0  0  0  0
    1.9072    1.4295    0.3585 C   0  0  0  0  0  0  0  0  0  0  0  0
    1.2817    0.1867    0.7252 C   0  0  0  0  0  0  0  0  0  0  0  0
    1.9096   -0.5769    1.5824 O   0  0  0  0  0  0  0  0  0  0  0  0
   -0.0150   -0.3283    0.2243 C   0  0  0  0  0  0  0  0  0  0  0  0
   -1.2164    0.6120    0.5058 C   0  0  0  0  0  0  0  0  0  0  0  0
   -2.3854    0.0278   -0.0129 O   0  0  0  0  0  0  0  0  0  0  0  0
   -0.1361   -1.7265   -0.1457 C   0  0  0  0  0  0  0  0  0  0  0  0
   -0.0301   -0.7415   -1.2301 C   0  0  0  0  0  0  0  0  0  0  0  0
    2.9085    1.6573    0.8725 H   0  0  0  0  0  0  0  0  0  0  0  0
   -1.3296    0.7320    1.6142 H   0  0  0  0  0  0  0  0  0  0  0  0
   -1.0235    1.5673    0.0841 H   0  0  0  0  0  0  0  0  0  0  0  0
   -2.9137    0.6796   -0.5039 H   0  0  0  0  0  0  0  0  0  0  0  0
    0.7671   -2.3747    0.0531 H   0  0  0  0  0  0  0  0  0  0  0  0
   -1.0693   -2.3441   -0.0374 H   0  0  0  0  0  0  0  0  0  0  0  0
   -0.9860   -0.5107   -1.7963 H   0  0  0  0  0  0  0  0  0  0  0  0
    0.8382   -0.5493   -1.8512 H   0  0  0  0  0  0  0  0  0  0  0  0
  1  2  2  0
  2  3  1  0
  3  4  2  0
  3  5  1  0
  5  6  1  0
  6  7  1  0
  5  8  1  0
  8  9  1  0
  9  5  1  0
  2 10  1  0
  6 11  1  0
  6 12  1  0
  7 13  1  0
  8 14  1  0
  8 15  1  0
  9 16  1  0
  9 17  1  0
M  END
