
     RDKit          3D

 19 19  0  0  0  0  0  0  0  0999 V2000
    3.2572    0.1271    1.2965 O   0  0  0  0  0  0  0  0  0  0  0  0
    2.5337    0.4446    0.3835 C   0  0  0  0  0  0  0  0  0  0  0  0
    1.0599    0.2974    0.5282 C   0  0  0  0  0  0  0  0  0  0  0  0
    0.3731    1.4338   -0.1712 C   0  0  0  0  0  0  0  0  0  0  0  0
   -0.9274    1.2811   -0.4001 C   0  0  0  0  0  0  0  0  0  0  0  0
   -1.5851    0.0210    0.0463 C   0  0  0  0  0  0  0  0  0  0  0  0
   -2.8242   -0.0383   -0.5851 O   0  0  0  0  0  0  0  0  0  0  0  0
   -0.7804   -1.2034   -0.2929 C   0  0  0  0  0  0  0  0  0  0  0  0
    0.6936   -1.0229   -0.1335 C   0  0  0  0  0  0  0  0  0  0  0  0
    2.9494    0.8299   -0.5253 H   0  0  0  0  0  0  0  0  0  0  0  0
    0.7269    0.3265    1.5783 H   0  0  0  0  0  0  0  0  0  0  0  0
    0.9477    2.2981   -0.4488 H   0  0  0  0  0  0  0  0  0  0  0  0
   -1.4395    2.0859   -0.9014 H   0  0  0  0  0  0  0  0  0  0  0  0
   -1.7730    0.0410    1.1590 H   0  0  0  0  0  0  0  0  0  0  0  0
   -3.4582   -0.5174    0.0005 H   0  0  0  0  0  0  0  0  0  0  0  0
   -0.9968   -1.5633   -1.3164 H   0  0  0  0  0  0  0  0  0  0  0  0
   -1.1015   -2.0061    0.4326 H   0  0  0  0  0  0  0  0  0  0  0  0
    1.1457   -1.8227    0.4880 H   0  0  0  0  0  0  0  0  0  0  0  0
    1.1989   -1.0121   -1.1380 H   0  0  0  0  0  0  0  0  0  0  0  0
  1  2  2  0
  2  3  1  0
  3  4  1  0
  4  5  2  0
  5  6  1  0
  6  7  1  0
  6  8  1  0
  8  9  1  0
  9  3  1  0
  2 10  1  0
  3 11  1  0
  4 12  1  0
  5 13  1  0
  6 14  1  0
  7 15  1  0
  8 16  1  0
  8 17  1  0
  9 18  1  0
  9 19  1  0
M  END
