
     RDKit          3D

 17 16  0  0  0  0  0  0  0  0999 V2000
   -2.8692    0.7432   -0.6993 O   0  0  0  0  0  0  0  0  0  0  0  0
   -2.6535   -0.1605    0.0825 C   0  0  0  0  0  0  0  0  0  0  0  0
   -1.4791   -0.2864    0.9700 C   0  0  0  0  0  0  0  0  0  0  0  0
   -0.5484    0.7010    0.8856 O   0  0  0  0  0  0  0  0  0  0  0  0
    0.0767    0.8909   -0.3088 C   0  0  0  0  0  0  0  0  0  0  0  0
    0.8370   -0.2961   -0.8119 C   0  0  0  0  0  0  0  0  0  0  0  0
    1.8552   -0.7826   -0.0329 O   0  0  0  0  0  0  0  0  0  0  0  0
    2.9468   -0.0082    0.2960 C   0  0  0  0  0  0  0  0  0  0  0  0
    2.9546    1.1609   -0.1579 O   0  0  0  0  0  0  0  0  0  0  0  0
   -3.4223   -0.9401    0.1072 H   0  0  0  0  0  0  0  0  0  0  0  0
   -1.8888   -0.2395    2.0250 H   0  0  0  0  0  0  0  0  0  0  0  0
   -1.0238   -1.3058    0.9203 H   0  0  0  0  0  0  0  0  0  0  0  0
    0.7281    1.7921   -0.2168 H   0  0  0  0  0  0  0  0  0  0  0  0
   -0.6421    1.1690   -1.1075 H   0  0  0  0  0  0  0  0  0  0  0  0
    0.1163   -1.1215   -1.0206 H   0  0  0  0  0  0  0  0  0  0  0  0
    1.2370   -0.0131   -1.8263 H   0  0  0  0  0  0  0  0  0  0  0  0
    3.7755   -0.3115    0.8952 H   0  0  0  0  0  0  0  0  0  0  0  0
  1  2  2  0
  2  3  1  0
  3  4  1  0
  4  5  1  0
  5  6  1  0
  6  7  1  0
  7  8  1  0
  8  9  2  0
  2 10  1  0
  3 11  1  0
  3 12  1  0
  5 13  1  0
  5 14  1  0
  6 15  1  0
  6 16  1  0
  8 17  1  0
M  END
