
     RDKit          3D

 19 19  0  0  0  0  0  0  0  0999 V2000
    3.4434    0.4274   -0.0125 O   0  0  0  0  0  0  0  0  0  0  0  0
    2.4561   -0.2328   -0.2630 C   0  0  0  0  0  0  0  0  0  0  0  0
    1.1073    0.0707    0.3412 C   0  0  0  0  0  0  0  0  0  0  0  0
    0.3835   -1.1632    0.7262 C   0  0  0  0  0  0  0  0  0  0  0  0
   -0.8275   -1.3805    0.1463 O   0  0  0  0  0  0  0  0  0  0  0  0
   -1.7984   -0.4557    0.3788 C   0  0  0  0  0  0  0  0  0  0  0  0
   -1.7814    0.5588   -0.7445 C   0  0  0  0  0  0  0  0  0  0  0  0
   -0.5271    0.4944   -1.3929 O   0  0  0  0  0  0  0  0  0  0  0  0
    0.3995    1.0146   -0.5457 C   0  0  0  0  0  0  0  0  0  0  0  0
    2.5726   -1.0655   -0.9484 H   0  0  0  0  0  0  0  0  0  0  0  0
    1.3546    0.6267    1.2955 H   0  0  0  0  0  0  0  0  0  0  0  0
    1.0326   -2.0448    0.4395 H   0  0  0  0  0  0  0  0  0  0  0  0
    0.2777   -1.2790    1.8464 H   0  0  0  0  0  0  0  0  0  0  0  0
   -2.7955   -0.9807    0.2961 H   0  0  0  0  0  0  0  0  0  0  0  0
   -1.7952    0.0036    1.3780 H   0  0  0  0  0  0  0  0  0  0  0  0
   -1.9490    1.5929   -0.3226 H   0  0  0  0  0  0  0  0  0  0  0  0
   -2.6033    0.4035   -1.4733 H   0  0  0  0  0  0  0  0  0  0  0  0
    1.1486    1.5679   -1.1867 H   0  0  0  0  0  0  0  0  0  0  0  0
   -0.0985    1.8416    0.0418 H   0  0  0  0  0  0  0  0  0  0  0  0
  1  2  2  0
  2  3  1  0
  3  4  1  0
  4  5  1  0
  5  6  1  0
  6  7  1  0
  7  8  1  0
  8  9  1  0
  9  3  1  0
  2 10  1  0
  3 11  1  0
  4 12  1  0
  4 13  1  0
  6 14  1  0
  6 15  1  0
  7 16  1  0
  7 17  1  0
  9 18  1  0
  9 19  1  0
M  END
