
     RDKit          3D

 15 15  0  0  0  0  0  0  0  0999 V2000
    2.1172    1.7935    0.3405 O   0  0  0  0  0  0  0  0  0  0  0  0
    2.1235    0.5809    0.2490 C   0  0  0  0  0  0  0  0  0  0  0  0
    1.0208   -0.1903   -0.3196 C   0  0  0  0  0  0  0  0  0  0  0  0
    0.3512    0.2200   -1.4543 O   0  0  0  0  0  0  0  0  0  0  0  0
   -0.4032    0.2052   -0.2880 C   0  0  0  0  0  0  0  0  0  0  0  0
   -0.8934    1.5220    0.1229 C   0  0  0  0  0  0  0  0  0  0  0  0
   -0.2842    2.5823    0.0399 O   0  0  0  0  0  0  0  0  0  0  0  0
   -1.4050   -0.9306   -0.0964 C   0  0  0  0  0  0  0  0  0  0  0  0
   -0.6824   -2.1167   -0.1175 O   0  0  0  0  0  0  0  0  0  0  0  0
    3.0224    0.0351    0.6213 H   0  0  0  0  0  0  0  0  0  0  0  0
    1.2077   -1.3092   -0.3448 H   0  0  0  0  0  0  0  0  0  0  0  0
   -1.9161    1.5791    0.5538 H   0  0  0  0  0  0  0  0  0  0  0  0
   -2.0950   -0.9276   -0.9601 H   0  0  0  0  0  0  0  0  0  0  0  0
   -1.9014   -0.8418    0.8677 H   0  0  0  0  0  0  0  0  0  0  0  0
   -0.2621   -2.2020    0.7858 H   0  0  0  0  0  0  0  0  0  0  0  0
  1  2  2  0
  2  3  1  0
  3  4  1  0
  4  5  1  0
  5  6  1  0
  6  7  2  0
  5  8  1  0
  8  9  1  0
  5  3  1  0
  2 10  1  0
  3 11  1  0
  6 12  1  0
  8 13  1  0
  8 14  1  0
  9 15  1  0
M  END
