
     RDKit          3D

 21 22  0  0  0  0  0  0  0  0999 V2000
    3.0245   -1.0154    0.6558 O   0  0  0  0  0  0  0  0  0  0  0  0
    2.5143   -0.0892    0.0526 C   0  0  0  0  0  0  0  0  0  0  0  0
    1.0843   -0.0566   -0.2803 C   0  0  0  0  0  0  0  0  0  0  0  0
    0.4353   -1.3559    0.2211 C   0  0  0  0  0  0  0  0  0  0  0  0
   -1.0308   -1.4181    0.0384 C   0  0  0  0  0  0  0  0  0  0  0  0
   -1.7677   -0.0988    0.3175 C   0  0  0  0  0  0  0  0  0  0  0  0
   -1.0502    0.9163   -0.4600 C   0  0  0  0  0  0  0  0  0  0  0  0
   -0.4086    2.1322   -0.1507 C   0  0  0  0  0  0  0  0  0  0  0  0
    0.2986    1.0131    0.3389 C   0  0  0  0  0  0  0  0  0  0  0  0
    3.1628    0.7265   -0.2362 H   0  0  0  0  0  0  0  0  0  0  0  0
    0.9562   -0.0941   -1.3954 H   0  0  0  0  0  0  0  0  0  0  0  0
    0.6405   -1.3508    1.3322 H   0  0  0  0  0  0  0  0  0  0  0  0
    0.8904   -2.2337   -0.2263 H   0  0  0  0  0  0  0  0  0  0  0  0
   -1.2368   -1.6323   -1.0493 H   0  0  0  0  0  0  0  0  0  0  0  0
   -1.4319   -2.2392    0.6253 H   0  0  0  0  0  0  0  0  0  0  0  0
   -1.6928    0.0660    1.4270 H   0  0  0  0  0  0  0  0  0  0  0  0
   -2.8170   -0.2652    0.0583 H   0  0  0  0  0  0  0  0  0  0  0  0
   -0.9688    0.5751   -1.5378 H   0  0  0  0  0  0  0  0  0  0  0  0
    0.0606    2.7295   -0.9856 H   0  0  0  0  0  0  0  0  0  0  0  0
   -0.8915    2.8397    0.5566 H   0  0  0  0  0  0  0  0  0  0  0  0
    0.2287    0.8511    1.4580 H   0  0  0  0  0  0  0  0  0  0  0  0
  1  2  2  0
  2  3  1  0
  3  4  1  0
  4  5  1  0
  5  6  1  0
  6  7  1  0
  7  8  1  0
  8  9  1  0
  9  3  1  0
  9  7  1  0
  2 10  1  0
  3 11  1  0
  4 12  1  0
  4 13  1  0
  5 14  1  0
  5 15  1  0
  6 16  1  0
  6 17  1  0
  7 18  1  0
  8 19  1  0
  8 20  1  0
  9 21  1  0
M  END
