
     RDKit          3D

 17 19  0  0  0  0  0  0  0  0999 V2000
    2.1575    2.1898   -0.3663 O   0  0  0  0  0  0  0  0  0  0  0  0
    1.7858    1.0435   -0.5001 C   0  0  0  0  0  0  0  0  0  0  0  0
    0.4822    0.6256   -0.0664 C   0  0  0  0  0  0  0  0  0  0  0  0
   -0.3543    1.5694    0.5166 O   0  0  0  0  0  0  0  0  0  0  0  0
   -1.4765    0.8141    0.8733 C   0  0  0  0  0  0  0  0  0  0  0  0
   -1.1088   -0.5237    0.3582 C   0  0  0  0  0  0  0  0  0  0  0  0
    0.3344   -0.6535    0.7171 C   0  0  0  0  0  0  0  0  0  0  0  0
    0.4945   -1.3634   -0.5805 C   0  0  0  0  0  0  0  0  0  0  0  0
   -0.3945   -0.2070   -0.9273 C   0  0  0  0  0  0  0  0  0  0  0  0
    2.4780    0.3534   -0.9589 H   0  0  0  0  0  0  0  0  0  0  0  0
   -2.4057    1.2293    0.4346 H   0  0  0  0  0  0  0  0  0  0  0  0
   -1.5294    0.8263    1.9753 H   0  0  0  0  0  0  0  0  0  0  0  0
   -1.7639   -1.3555    0.4118 H   0  0  0  0  0  0  0  0  0  0  0  0
    0.7386   -0.8626    1.6067 H   0  0  0  0  0  0  0  0  0  0  0  0
    1.4668   -1.3871   -1.0679 H   0  0  0  0  0  0  0  0  0  0  0  0
   -0.0967   -2.3050   -0.6152 H   0  0  0  0  0  0  0  0  0  0  0  0
   -0.8081    0.0065   -1.8112 H   0  0  0  0  0  0  0  0  0  0  0  0
  1  2  2  0
  2  3  1  0
  3  4  1  0
  4  5  1  0
  5  6  1  0
  6  7  1  0
  7  8  1  0
  8  9  1  0
  7  3  1  0
  9  3  1  0
  9  6  1  0
  2 10  1  0
  5 11  1  0
  5 12  1  0
  6 13  1  0
  7 14  1  0
  8 15  1  0
  8 16  1  0
  9 17  1  0
M  END
