
     RDKit          3D

 17 18  0  0  0  0  0  0  0  0999 V2000
    0.5117    2.4672    0.4203 O   0  0  0  0  0  0  0  0  0  0  0  0
    1.2247    1.4822    0.4793 C   0  0  0  0  0  0  0  0  0  0  0  0
    0.8146    0.1127    0.1639 C   0  0  0  0  0  0  0  0  0  0  0  0
    1.8566   -0.8079    0.3005 O   0  0  0  0  0  0  0  0  0  0  0  0
   -0.5082   -0.3743    0.6773 C   0  0  0  0  0  0  0  0  0  0  0  0
   -1.4567    0.6244    0.1408 C   0  0  0  0  0  0  0  0  0  0  0  0
   -0.8820    0.8465   -1.1368 O   0  0  0  0  0  0  0  0  0  0  0  0
    0.1216   -0.0710   -1.1955 C   0  0  0  0  0  0  0  0  0  0  0  0
   -0.4666   -1.3302   -0.5349 C   0  0  0  0  0  0  0  0  0  0  0  0
    2.2635    1.6464    0.7978 H   0  0  0  0  0  0  0  0  0  0  0  0
    1.6265   -1.5431    0.9335 H   0  0  0  0  0  0  0  0  0  0  0  0
   -0.5955   -0.8053    1.6301 H   0  0  0  0  0  0  0  0  0  0  0  0
   -2.4234    0.1235   -0.0971 H   0  0  0  0  0  0  0  0  0  0  0  0
   -1.5681    1.5265    0.7319 H   0  0  0  0  0  0  0  0  0  0  0  0
    0.7334   -0.2048   -2.0445 H   0  0  0  0  0  0  0  0  0  0  0  0
   -1.4944   -1.5450   -0.8282 H   0  0  0  0  0  0  0  0  0  0  0  0
    0.2422   -2.1478   -0.4384 H   0  0  0  0  0  0  0  0  0  0  0  0
  1  2  2  0
  2  3  1  0
  3  4  1  0
  3  5  1  0
  5  6  1  0
  6  7  1  0
  7  8  1  0
  8  9  1  0
  8  3  1  0
  9  5  1  0
  2 10  1  0
  4 11  1  0
  5 12  1  0
  6 13  1  0
  6 14  1  0
  8 15  1  0
  9 16  1  0
  9 17  1  0
M  END
