
     RDKit          3D

 19 19  0  0  0  0  0  0  0  0999 V2000
    3.1172   -1.0100   -0.2827 O   0  0  0  0  0  0  0  0  0  0  0  0
    2.4974    0.0274   -0.2989 C   0  0  0  0  0  0  0  0  0  0  0  0
    1.3643    0.3322    0.6324 C   0  0  0  0  0  0  0  0  0  0  0  0
    1.1178   -0.7055    1.5016 O   0  0  0  0  0  0  0  0  0  0  0  0
    0.1167    0.7458   -0.1392 C   0  0  0  0  0  0  0  0  0  0  0  0
   -0.4507   -0.3990   -0.9293 C   0  0  0  0  0  0  0  0  0  0  0  0
   -1.6601   -0.7759   -0.0606 C   0  0  0  0  0  0  0  0  0  0  0  0
   -2.0530    0.6475    0.3614 C   0  0  0  0  0  0  0  0  0  0  0  0
   -0.8218    1.1405    0.7831 O   0  0  0  0  0  0  0  0  0  0  0  0
    2.7808    0.7740   -1.0287 H   0  0  0  0  0  0  0  0  0  0  0  0
    1.6734    1.2176    1.2294 H   0  0  0  0  0  0  0  0  0  0  0  0
    1.4559   -1.5844    1.1965 H   0  0  0  0  0  0  0  0  0  0  0  0
    0.4046    1.6077   -0.7569 H   0  0  0  0  0  0  0  0  0  0  0  0
    0.2202   -1.2382   -1.0704 H   0  0  0  0  0  0  0  0  0  0  0  0
   -0.8947   -0.0105   -1.8775 H   0  0  0  0  0  0  0  0  0  0  0  0
   -1.3005   -1.3252    0.8185 H   0  0  0  0  0  0  0  0  0  0  0  0
   -2.4445   -1.2676   -0.6369 H   0  0  0  0  0  0  0  0  0  0  0  0
   -2.8100    0.6523    1.1294 H   0  0  0  0  0  0  0  0  0  0  0  0
   -2.3131    1.1713   -0.5711 H   0  0  0  0  0  0  0  0  0  0  0  0
  1  2  2  0
  2  3  1  0
  3  4  1  0
  3  5  1  0
  5  6  1  0
  6  7  1  0
  7  8  1  0
  8  9  1  0
  9  5  1  0
  2 10  1  0
  3 11  1  0
  4 12  1  0
  5 13  1  0
  6 14  1  0
  6 15  1  0
  7 16  1  0
  7 17  1  0
  8 18  1  0
  8 19  1  0
M  END
