
     RDKit          3D

 21 22  0  0  0  0  0  0  0  0999 V2000
   -1.5849    2.7617   -0.4218 O   0  0  0  0  0  0  0  0  0  0  0  0
   -0.9347    1.7987   -0.7732 C   0  0  0  0  0  0  0  0  0  0  0  0
   -0.6341    0.7455    0.1863 C   0  0  0  0  0  0  0  0  0  0  0  0
   -1.6925   -0.3380    0.2080 C   0  0  0  0  0  0  0  0  0  0  0  0
   -0.9805   -1.6102    0.6009 C   0  0  0  0  0  0  0  0  0  0  0  0
    0.4706   -1.2062    0.8728 C   0  0  0  0  0  0  0  0  0  0  0  0
    0.6228    0.0016   -0.0166 C   0  0  0  0  0  0  0  0  0  0  0  0
    1.8828    0.8043    0.0038 C   0  0  0  0  0  0  0  0  0  0  0  0
    1.4624   -0.0219   -1.1823 C   0  0  0  0  0  0  0  0  0  0  0  0
   -0.6113    1.7815   -1.7997 H   0  0  0  0  0  0  0  0  0  0  0  0
   -0.6071    1.1790    1.2306 H   0  0  0  0  0  0  0  0  0  0  0  0
   -2.4437   -0.1079    0.9813 H   0  0  0  0  0  0  0  0  0  0  0  0
   -2.1045   -0.4114   -0.8036 H   0  0  0  0  0  0  0  0  0  0  0  0
   -0.9781   -2.3583   -0.2323 H   0  0  0  0  0  0  0  0  0  0  0  0
   -1.4402   -2.0617    1.5030 H   0  0  0  0  0  0  0  0  0  0  0  0
    1.1709   -2.0111    0.6627 H   0  0  0  0  0  0  0  0  0  0  0  0
    0.5213   -0.8691    1.9223 H   0  0  0  0  0  0  0  0  0  0  0  0
    1.8509    1.9011   -0.1701 H   0  0  0  0  0  0  0  0  0  0  0  0
    2.6494    0.4577    0.6970 H   0  0  0  0  0  0  0  0  0  0  0  0
    1.2676    0.4951   -2.1378 H   0  0  0  0  0  0  0  0  0  0  0  0
    2.1128   -0.9306   -1.3312 H   0  0  0  0  0  0  0  0  0  0  0  0
  1  2  2  0
  2  3  1  0
  3  4  1  0
  4  5  1  0
  5  6  1  0
  6  7  1  0
  7  8  1  0
  8  9  1  0
  7  3  1  0
  9  7  1  0
  2 10  1  0
  3 11  1  0
  4 12  1  0
  4 13  1  0
  5 14  1  0
  5 15  1  0
  6 16  1  0
  6 17  1  0
  8 18  1  0
  8 19  1  0
  9 20  1  0
  9 21  1  0
M  END
