
     RDKit          3D

 15 16  0  0  0  0  0  0  0  0999 V2000
    2.7963   -0.9295    0.2066 O   0  0  0  0  0  0  0  0  0  0  0  0
    2.1144   -0.0325   -0.3055 C   0  0  0  0  0  0  0  0  0  0  0  0
    0.6975   -0.0116   -0.0856 C   0  0  0  0  0  0  0  0  0  0  0  0
   -0.1548   -0.2248   -1.2807 C   0  0  0  0  0  0  0  0  0  0  0  0
   -1.3104   -0.6803   -0.8087 C   0  0  0  0  0  0  0  0  0  0  0  0
   -1.1337   -0.6945    0.6747 C   0  0  0  0  0  0  0  0  0  0  0  0
   -1.0175    0.7358    1.1330 C   0  0  0  0  0  0  0  0  0  0  0  0
    0.1506    1.1359    0.6480 C   0  0  0  0  0  0  0  0  0  0  0  0
    0.2297   -1.0747    0.7327 O   0  0  0  0  0  0  0  0  0  0  0  0
    2.5979    0.7041   -0.8987 H   0  0  0  0  0  0  0  0  0  0  0  0
    0.0972   -0.0517   -2.3120 H   0  0  0  0  0  0  0  0  0  0  0  0
   -2.1702   -0.9681   -1.4052 H   0  0  0  0  0  0  0  0  0  0  0  0
   -1.8007   -1.3035    1.2295 H   0  0  0  0  0  0  0  0  0  0  0  0
   -1.7235    1.3031    1.7208 H   0  0  0  0  0  0  0  0  0  0  0  0
    0.6271    2.0924    0.7511 H   0  0  0  0  0  0  0  0  0  0  0  0
  1  2  2  0
  2  3  1  0
  3  4  1  0
  4  5  2  0
  5  6  1  0
  6  7  1  0
  7  8  2  0
  6  9  1  0
  8  3  1  0
  9  3  1  0
  2 10  1  0
  4 11  1  0
  5 12  1  0
  6 13  1  0
  7 14  1  0
  8 15  1  0
M  END
