
     RDKit          3D

 17 17  0  0  0  0  0  0  0  0999 V2000
    3.1437   -1.2307    0.9444 O   0  0  0  0  0  0  0  0  0  0  0  0
    2.3503   -0.3589    0.7038 C   0  0  0  0  0  0  0  0  0  0  0  0
    1.9171   -0.0013   -0.6741 C   0  0  0  0  0  0  0  0  0  0  0  0
    0.5024   -0.4389   -0.8455 C   0  0  0  0  0  0  0  0  0  0  0  0
    0.2699   -1.3409   -1.5994 O   0  0  0  0  0  0  0  0  0  0  0  0
   -0.5172    0.2908   -0.0527 C   0  0  0  0  0  0  0  0  0  0  0  0
   -1.5849   -0.6223    0.6092 C   0  0  0  0  0  0  0  0  0  0  0  0
   -1.9360    0.3784   -0.4398 C   0  0  0  0  0  0  0  0  0  0  0  0
   -2.6496    1.4939    0.0760 O   0  0  0  0  0  0  0  0  0  0  0  0
    1.9114    0.2053    1.5237 H   0  0  0  0  0  0  0  0  0  0  0  0
    2.6081   -0.5003   -1.3979 H   0  0  0  0  0  0  0  0  0  0  0  0
    1.9537    1.1050   -0.7802 H   0  0  0  0  0  0  0  0  0  0  0  0
   -0.1444    1.1218    0.6252 H   0  0  0  0  0  0  0  0  0  0  0  0
   -1.7653   -0.4301    1.6702 H   0  0  0  0  0  0  0  0  0  0  0  0
   -1.6082   -1.6871    0.2570 H   0  0  0  0  0  0  0  0  0  0  0  0
   -2.3382    0.0525   -1.4008 H   0  0  0  0  0  0  0  0  0  0  0  0
   -2.1127    1.9630    0.7810 H   0  0  0  0  0  0  0  0  0  0  0  0
  1  2  2  0
  2  3  1  0
  3  4  1  0
  4  5  2  0
  4  6  1  0
  6  7  1  0
  7  8  1  0
  8  9  1  0
  8  6  1  0
  2 10  1  0
  3 11  1  0
  3 12  1  0
  6 13  1  0
  7 14  1  0
  7 15  1  0
  8 16  1  0
  9 17  1  0
M  END
