
     RDKit          3D

 16 15  0  0  0  0  0  0  0  0999 V2000
   -4.1857    0.3089   -0.1453 O   0  0  0  0  0  0  0  0  0  0  0  0
   -3.1627   -0.0995    0.2009 C   0  0  0  0  0  0  0  0  0  0  0  0
   -1.7918    0.0517   -0.2878 C   0  0  0  0  0  0  0  0  0  0  0  0
   -0.8559   -0.1867    0.8372 C   0  0  0  0  0  0  0  0  0  0  0  0
    0.5095   -0.0586    0.4967 C   0  0  0  0  0  0  0  0  0  0  0  0
    1.7755    0.0516    0.2029 C   0  0  0  0  0  0  0  0  0  0  0  0
    3.1233    0.1715   -0.0851 C   0  0  0  0  0  0  0  0  0  0  0  0
    3.3773   -0.2199   -1.4410 O   0  0  0  0  0  0  0  0  0  0  0  0
   -3.2628   -0.7827    1.1696 H   0  0  0  0  0  0  0  0  0  0  0  0
   -1.6335   -0.6684   -1.1659 H   0  0  0  0  0  0  0  0  0  0  0  0
   -1.5988    1.0163   -0.7545 H   0  0  0  0  0  0  0  0  0  0  0  0
   -1.1700    0.5758    1.6468 H   0  0  0  0  0  0  0  0  0  0  0  0
   -1.0630   -1.1488    1.3835 H   0  0  0  0  0  0  0  0  0  0  0  0
    3.4971    1.2004   -0.0134 H   0  0  0  0  0  0  0  0  0  0  0  0
    3.7592   -0.5281    0.5672 H   0  0  0  0  0  0  0  0  0  0  0  0
    2.6823    0.3164   -1.9542 H   0  0  0  0  0  0  0  0  0  0  0  0
  1  2  2  0
  2  3  1  0
  3  4  1  0
  4  5  1  0
  5  6  3  0
  6  7  1  0
  7  8  1  0
  2  9  1  0
  3 10  1  0
  3 11  1  0
  4 12  1  0
  4 13  1  0
  7 14  1  0
  7 15  1  0
  8 16  1  0
M  END
