
     RDKit          3D

 15 16  0  0  0  0  0  0  0  0999 V2000
    2.8138    0.3229   -0.8752 O   0  0  0  0  0  0  0  0  0  0  0  0
    2.1127    0.0047    0.0739 C   0  0  0  0  0  0  0  0  0  0  0  0
    0.6944   -0.0135   -0.0468 C   0  0  0  0  0  0  0  0  0  0  0  0
   -0.1260    1.1206    0.5209 C   0  0  0  0  0  0  0  0  0  0  0  0
   -1.0409    0.6060   -0.5699 C   0  0  0  0  0  0  0  0  0  0  0  0
   -1.4473   -0.8066   -0.1655 C   0  0  0  0  0  0  0  0  0  0  0  0
   -0.0807   -1.2257    0.2700 C   0  0  0  0  0  0  0  0  0  0  0  0
    0.2238   -2.2789    0.7403 O   0  0  0  0  0  0  0  0  0  0  0  0
    0.1327    0.3472   -1.2953 O   0  0  0  0  0  0  0  0  0  0  0  0
    2.6218   -0.2530    0.9793 H   0  0  0  0  0  0  0  0  0  0  0  0
   -0.4819    1.0064    1.5440 H   0  0  0  0  0  0  0  0  0  0  0  0
    0.2936    2.0866    0.2176 H   0  0  0  0  0  0  0  0  0  0  0  0
   -1.7728    1.2502   -0.9881 H   0  0  0  0  0  0  0  0  0  0  0  0
   -1.7697   -1.3609   -1.0625 H   0  0  0  0  0  0  0  0  0  0  0  0
   -2.1735   -0.8060    0.6573 H   0  0  0  0  0  0  0  0  0  0  0  0
  1  2  2  0
  2  3  1  0
  3  4  1  0
  4  5  1  0
  5  6  1  0
  6  7  1  0
  7  8  2  0
  5  9  1  0
  7  3  1  0
  9  3  1  0
  2 10  1  0
  4 11  1  0
  4 12  1  0
  5 13  1  0
  6 14  1  0
  6 15  1  0
M  END
