
     RDKit          3D

 17 18  0  0  0  0  0  0  0  0999 V2000
    3.0170    0.2480   -0.2482 O   0  0  0  0  0  0  0  0  0  0  0  0
    2.2523   -0.3212    0.5597 C   0  0  0  0  0  0  0  0  0  0  0  0
    0.8207   -0.2413    0.3968 C   0  0  0  0  0  0  0  0  0  0  0  0
   -0.1278   -0.7992    1.1822 C   0  0  0  0  0  0  0  0  0  0  0  0
   -1.3799   -0.3442    0.5484 C   0  0  0  0  0  0  0  0  0  0  0  0
   -1.0465   -0.5936   -0.9309 C   0  0  0  0  0  0  0  0  0  0  0  0
    0.0269    0.4449   -0.6321 C   0  0  0  0  0  0  0  0  0  0  0  0
    0.5659    1.1428   -1.6036 O   0  0  0  0  0  0  0  0  0  0  0  0
   -1.0674    1.0989    0.2308 C   0  0  0  0  0  0  0  0  0  0  0  0
    2.6859   -0.8692    1.3750 H   0  0  0  0  0  0  0  0  0  0  0  0
    0.0002   -1.4202    2.0527 H   0  0  0  0  0  0  0  0  0  0  0  0
   -2.3214   -0.6283    0.9075 H   0  0  0  0  0  0  0  0  0  0  0  0
   -0.6826   -1.6141   -1.0506 H   0  0  0  0  0  0  0  0  0  0  0  0
   -1.7715   -0.2023   -1.6390 H   0  0  0  0  0  0  0  0  0  0  0  0
    1.4406    0.8410   -1.8667 H   0  0  0  0  0  0  0  0  0  0  0  0
   -1.8252    1.6468   -0.3431 H   0  0  0  0  0  0  0  0  0  0  0  0
   -0.5872    1.6112    1.0611 H   0  0  0  0  0  0  0  0  0  0  0  0
  1  2  2  0
  2  3  1  0
  3  4  2  0
  4  5  1  0
  5  6  1  0
  6  7  1  0
  7  8  1  0
  7  9  1  0
  7  3  1  0
  9  5  1  0
  2 10  1  0
  4 11  1  0
  5 12  1  0
  6 13  1  0
  6 14  1  0
  8 15  1  0
  9 16  1  0
  9 17  1  0
M  END
