
     RDKit          3D

 17 18  0  0  0  0  0  0  0  0999 V2000
    3.1186    1.1077   -0.0071 O   0  0  0  0  0  0  0  0  0  0  0  0
    2.2078    0.3584    0.2830 C   0  0  0  0  0  0  0  0  0  0  0  0
    1.1305    0.1194   -0.6746 C   0  0  0  0  0  0  0  0  0  0  0  0
    0.3773   -1.1623   -0.7251 C   0  0  0  0  0  0  0  0  0  0  0  0
    0.3032   -1.8796    0.4608 O   0  0  0  0  0  0  0  0  0  0  0  0
   -0.4184   -0.8632    1.1192 C   0  0  0  0  0  0  0  0  0  0  0  0
   -0.2358   -0.0165   -0.0973 C   0  0  0  0  0  0  0  0  0  0  0  0
   -1.2853    0.8613   -0.6290 C   0  0  0  0  0  0  0  0  0  0  0  0
   -2.4772    0.5566    0.0594 O   0  0  0  0  0  0  0  0  0  0  0  0
    2.2235   -0.1129    1.2509 H   0  0  0  0  0  0  0  0  0  0  0  0
    1.1890    0.6484   -1.6593 H   0  0  0  0  0  0  0  0  0  0  0  0
    0.0097   -1.5792   -1.6649 H   0  0  0  0  0  0  0  0  0  0  0  0
   -1.4339   -1.1646    1.3757 H   0  0  0  0  0  0  0  0  0  0  0  0
    0.1146   -0.5299    2.0383 H   0  0  0  0  0  0  0  0  0  0  0  0
   -1.0400    1.9221   -0.3788 H   0  0  0  0  0  0  0  0  0  0  0  0
   -1.4369    0.8312   -1.7236 H   0  0  0  0  0  0  0  0  0  0  0  0
   -2.3465    0.9032    0.9725 H   0  0  0  0  0  0  0  0  0  0  0  0
  1  2  2  0
  2  3  1  0
  3  4  1  0
  4  5  1  0
  5  6  1  0
  6  7  1  0
  7  8  1  0
  8  9  1  0
  7  3  1  0
  7  4  1  0
  2 10  1  0
  3 11  1  0
  4 12  1  0
  6 13  1  0
  6 14  1  0
  8 15  1  0
  8 16  1  0
  9 17  1  0
M  END
