
     RDKit          3D

 17 19  0  0  0  0  0  0  0  0999 V2000
   -1.0629    2.2186    0.8960 O   0  0  0  0  0  0  0  0  0  0  0  0
   -0.9126    1.7515   -0.2218 C   0  0  0  0  0  0  0  0  0  0  0  0
   -0.7893    0.3193   -0.5287 C   0  0  0  0  0  0  0  0  0  0  0  0
   -1.9109   -0.6216   -0.4353 C   0  0  0  0  0  0  0  0  0  0  0  0
   -0.8636   -0.6626    0.6241 C   0  0  0  0  0  0  0  0  0  0  0  0
    0.5340   -1.0988    0.3175 C   0  0  0  0  0  0  0  0  0  0  0  0
    1.5953   -0.0552    0.3659 C   0  0  0  0  0  0  0  0  0  0  0  0
    2.9041   -0.3597    0.0764 O   0  0  0  0  0  0  0  0  0  0  0  0
    0.6122   -0.1604   -0.7857 C   0  0  0  0  0  0  0  0  0  0  0  0
   -0.8703    2.4702   -1.0325 H   0  0  0  0  0  0  0  0  0  0  0  0
   -2.8802   -0.2025   -0.1117 H   0  0  0  0  0  0  0  0  0  0  0  0
   -1.9238   -1.4413   -1.2032 H   0  0  0  0  0  0  0  0  0  0  0  0
   -1.0739   -0.2702    1.6370 H   0  0  0  0  0  0  0  0  0  0  0  0
    0.7920   -2.1547    0.2898 H   0  0  0  0  0  0  0  0  0  0  0  0
    1.4293    0.8772    0.9655 H   0  0  0  0  0  0  0  0  0  0  0  0
    3.4329   -0.2599    0.9283 H   0  0  0  0  0  0  0  0  0  0  0  0
    0.9876   -0.3499   -1.7816 H   0  0  0  0  0  0  0  0  0  0  0  0
  1  2  2  0
  2  3  1  0
  3  4  1  0
  4  5  1  0
  5  6  1  0
  6  7  1  0
  7  8  1  0
  7  9  1  0
  5  3  1  0
  9  6  1  0
  9  3  1  0
  2 10  1  0
  4 11  1  0
  4 12  1  0
  5 13  1  0
  6 14  1  0
  7 15  1  0
  8 16  1  0
  9 17  1  0
M  END
