
     RDKit          3D

 19 19  0  0  0  0  0  0  0  0999 V2000
    3.5732   -0.7256    0.2809 O   0  0  0  0  0  0  0  0  0  0  0  0
    2.4889   -0.2071    0.5011 C   0  0  0  0  0  0  0  0  0  0  0  0
    1.4265   -0.1131   -0.5314 C   0  0  0  0  0  0  0  0  0  0  0  0
    0.2081    0.5644    0.0020 C   0  0  0  0  0  0  0  0  0  0  0  0
   -0.9007    0.6882   -0.9984 C   0  0  0  0  0  0  0  0  0  0  0  0
   -1.6528    1.8512   -0.9326 O   0  0  0  0  0  0  0  0  0  0  0  0
   -1.5410   -0.5386   -0.4087 C   0  0  0  0  0  0  0  0  0  0  0  0
   -0.7019   -0.3089    0.8418 C   0  0  0  0  0  0  0  0  0  0  0  0
   -0.1269   -1.4625    1.3149 O   0  0  0  0  0  0  0  0  0  0  0  0
    2.2844    0.2016    1.4802 H   0  0  0  0  0  0  0  0  0  0  0  0
    1.1719   -1.1020   -0.9637 H   0  0  0  0  0  0  0  0  0  0  0  0
    1.8383    0.5356   -1.3575 H   0  0  0  0  0  0  0  0  0  0  0  0
    0.4679    1.5462    0.4611 H   0  0  0  0  0  0  0  0  0  0  0  0
   -0.4991    0.5687   -2.0290 H   0  0  0  0  0  0  0  0  0  0  0  0
   -2.2503    1.8894   -0.1457 H   0  0  0  0  0  0  0  0  0  0  0  0
   -2.6219   -0.4940   -0.2449 H   0  0  0  0  0  0  0  0  0  0  0  0
   -1.2635   -1.4564   -0.9737 H   0  0  0  0  0  0  0  0  0  0  0  0
   -1.2607    0.3067    1.5843 H   0  0  0  0  0  0  0  0  0  0  0  0
   -0.6402   -1.7437    2.1195 H   0  0  0  0  0  0  0  0  0  0  0  0
  1  2  2  0
  2  3  1  0
  3  4  1  0
  4  5  1  0
  5  6  1  0
  5  7  1  0
  7  8  1  0
  8  9  1  0
  8  4  1  0
  2 10  1  0
  3 11  1  0
  3 12  1  0
  4 13  1  0
  5 14  1  0
  6 15  1  0
  7 16  1  0
  7 17  1  0
  8 18  1  0
  9 19  1  0
M  END
