
     RDKit          3D

 17 19  0  0  0  0  0  0  0  0999 V2000
    3.0334    1.0510   -0.2893 O   0  0  0  0  0  0  0  0  0  0  0  0
    1.8306    1.1940   -0.1561 C   0  0  0  0  0  0  0  0  0  0  0  0
    0.9371    0.1597    0.3482 C   0  0  0  0  0  0  0  0  0  0  0  0
    1.6283   -1.0913    0.6848 O   0  0  0  0  0  0  0  0  0  0  0  0
    0.8339   -1.1813   -0.4051 C   0  0  0  0  0  0  0  0  0  0  0  0
   -0.6815   -1.4305   -0.3019 C   0  0  0  0  0  0  0  0  0  0  0  0
   -1.1467   -0.0244   -0.4366 C   0  0  0  0  0  0  0  0  0  0  0  0
   -1.5861    0.9804    0.4338 C   0  0  0  0  0  0  0  0  0  0  0  0
   -0.3919    0.3831    0.8984 C   0  0  0  0  0  0  0  0  0  0  0  0
    1.4315    2.1605   -0.4385 H   0  0  0  0  0  0  0  0  0  0  0  0
    1.2686   -1.2243   -1.4120 H   0  0  0  0  0  0  0  0  0  0  0  0
   -0.9552   -2.0809   -1.1298 H   0  0  0  0  0  0  0  0  0  0  0  0
   -0.8503   -1.8766    0.7030 H   0  0  0  0  0  0  0  0  0  0  0  0
   -0.6767    0.3852   -1.3894 H   0  0  0  0  0  0  0  0  0  0  0  0
   -1.5204    2.0727    0.1527 H   0  0  0  0  0  0  0  0  0  0  0  0
   -2.5714    0.8332    0.9578 H   0  0  0  0  0  0  0  0  0  0  0  0
   -0.5833   -0.3107    1.7800 H   0  0  0  0  0  0  0  0  0  0  0  0
  1  2  2  0
  2  3  1  0
  3  4  1  0
  4  5  1  0
  5  6  1  0
  6  7  1  0
  7  8  1  0
  8  9  1  0
  5  3  1  0
  9  7  1  0
  9  3  1  0
  2 10  1  0
  5 11  1  0
  6 12  1  0
  6 13  1  0
  7 14  1  0
  8 15  1  0
  8 16  1  0
  9 17  1  0
M  END
