
     RDKit          3D

 19 20  0  0  0  0  0  0  0  0999 V2000
    3.4341   -0.1564   -0.5799 O   0  0  0  0  0  0  0  0  0  0  0  0
    2.4692   -0.2232    0.1533 C   0  0  0  0  0  0  0  0  0  0  0  0
    1.1241   -0.0791   -0.4423 C   0  0  0  0  0  0  0  0  0  0  0  0
    0.4697    1.2557   -0.2997 C   0  0  0  0  0  0  0  0  0  0  0  0
   -0.5685    0.6927    0.6443 C   0  0  0  0  0  0  0  0  0  0  0  0
   -1.9343    0.4866    0.0596 C   0  0  0  0  0  0  0  0  0  0  0  0
   -2.1654   -0.8785    0.3485 O   0  0  0  0  0  0  0  0  0  0  0  0
   -1.0053   -1.4376   -0.2361 C   0  0  0  0  0  0  0  0  0  0  0  0
    0.0730   -0.6575    0.4731 C   0  0  0  0  0  0  0  0  0  0  0  0
    2.6470   -0.3848    1.2035 H   0  0  0  0  0  0  0  0  0  0  0  0
    1.0619   -0.4266   -1.5034 H   0  0  0  0  0  0  0  0  0  0  0  0
    0.0588    1.7063   -1.2363 H   0  0  0  0  0  0  0  0  0  0  0  0
    1.0961    2.0320    0.2101 H   0  0  0  0  0  0  0  0  0  0  0  0
   -0.5467    1.1235    1.6482 H   0  0  0  0  0  0  0  0  0  0  0  0
   -1.9736    0.5669   -1.0380 H   0  0  0  0  0  0  0  0  0  0  0  0
   -2.7241    1.0748    0.5566 H   0  0  0  0  0  0  0  0  0  0  0  0
   -1.0157   -1.1105   -1.2861 H   0  0  0  0  0  0  0  0  0  0  0  0
   -0.9444   -2.5181   -0.0881 H   0  0  0  0  0  0  0  0  0  0  0  0
    0.4442   -1.0663    1.4127 H   0  0  0  0  0  0  0  0  0  0  0  0
  1  2  2  0
  2  3  1  0
  3  4  1  0
  4  5  1  0
  5  6  1  0
  6  7  1  0
  7  8  1  0
  8  9  1  0
  9  3  1  0
  9  5  1  0
  2 10  1  0
  3 11  1  0
  4 12  1  0
  4 13  1  0
  5 14  1  0
  6 15  1  0
  6 16  1  0
  8 17  1  0
  8 18  1  0
  9 19  1  0
M  END
