
     RDKit          3D

 18 19  0  0  0  0  0  0  0  0999 V2000
   -1.8362   -2.0483    0.2414 O   0  0  0  0  0  0  0  0  0  0  0  0
   -0.9880   -1.1999    0.6340 C   0  0  0  0  0  0  0  0  0  0  0  0
   -0.6829   -0.0919   -0.3083 C   0  0  0  0  0  0  0  0  0  0  0  0
    0.7682   -0.0263   -0.7853 C   0  0  0  0  0  0  0  0  0  0  0  0
    1.8367    0.3227    0.2116 C   0  0  0  0  0  0  0  0  0  0  0  0
    1.6274   -1.0845   -0.1350 C   0  0  0  0  0  0  0  0  0  0  0  0
   -1.7600    0.7082   -0.8762 C   0  0  0  0  0  0  0  0  0  0  0  0
   -1.0012    1.3155    0.3050 C   0  0  0  0  0  0  0  0  0  0  0  0
   -0.5836   -1.3802    1.6461 H   0  0  0  0  0  0  0  0  0  0  0  0
    0.9735    0.1907   -1.8728 H   0  0  0  0  0  0  0  0  0  0  0  0
    1.5740    0.8024    1.1556 H   0  0  0  0  0  0  0  0  0  0  0  0
    2.7876    0.7843   -0.2184 H   0  0  0  0  0  0  0  0  0  0  0  0
    1.1639   -1.7149    0.6825 H   0  0  0  0  0  0  0  0  0  0  0  0
    2.3753   -1.6637   -0.7046 H   0  0  0  0  0  0  0  0  0  0  0  0
   -2.8134    0.4084   -0.6089 H   0  0  0  0  0  0  0  0  0  0  0  0
   -1.6888    1.2509   -1.8246 H   0  0  0  0  0  0  0  0  0  0  0  0
   -0.2835    2.1332    0.1207 H   0  0  0  0  0  0  0  0  0  0  0  0
   -1.4691    1.2934    1.3214 H   0  0  0  0  0  0  0  0  0  0  0  0
  1  2  2  0
  2  3  1  0
  3  4  1  0
  4  5  1  0
  5  6  1  0
  3  7  1  0
  7  8  1  0
  8  3  1  0
  6  4  1  0
  2  9  1  0
  4 10  1  0
  5 11  1  0
  5 12  1  0
  6 13  1  0
  6 14  1  0
  7 15  1  0
  7 16  1  0
  8 17  1  0
  8 18  1  0
M  END
