
     RDKit          3D

 18 18  0  0  0  0  0  0  0  0999 V2000
    2.2021    1.1055   -1.0273 O   0  0  0  0  0  0  0  0  0  0  0  0
    2.3797    0.2240   -0.2082 C   0  0  0  0  0  0  0  0  0  0  0  0
    1.3021   -0.6641    0.2692 C   0  0  0  0  0  0  0  0  0  0  0  0
    0.0282   -0.2678   -0.4296 C   0  0  0  0  0  0  0  0  0  0  0  0
    0.0449   -0.3559   -1.8040 O   0  0  0  0  0  0  0  0  0  0  0  0
   -0.5937    1.0280    0.0647 C   0  0  0  0  0  0  0  0  0  0  0  0
   -1.9478    0.3591   -0.2107 C   0  0  0  0  0  0  0  0  0  0  0  0
   -1.2238   -0.9538    0.1233 C   0  0  0  0  0  0  0  0  0  0  0  0
    3.3882    0.0829    0.1943 H   0  0  0  0  0  0  0  0  0  0  0  0
    1.1819   -0.5862    1.3481 H   0  0  0  0  0  0  0  0  0  0  0  0
    1.5443   -1.6969   -0.0672 H   0  0  0  0  0  0  0  0  0  0  0  0
    0.1648    0.5005   -2.2702 H   0  0  0  0  0  0  0  0  0  0  0  0
   -0.3918    1.9164   -0.5326 H   0  0  0  0  0  0  0  0  0  0  0  0
   -0.5022    1.1441    1.1687 H   0  0  0  0  0  0  0  0  0  0  0  0
   -2.7446    0.6327    0.4763 H   0  0  0  0  0  0  0  0  0  0  0  0
   -2.1383    0.3956   -1.2860 H   0  0  0  0  0  0  0  0  0  0  0  0
   -1.5588   -1.8195   -0.4420 H   0  0  0  0  0  0  0  0  0  0  0  0
   -1.1349   -1.0448    1.2120 H   0  0  0  0  0  0  0  0  0  0  0  0
  1  2  2  0
  2  3  1  0
  3  4  1  0
  4  5  1  0
  4  6  1  0
  6  7  1  0
  7  8  1  0
  8  4  1  0
  2  9  1  0
  3 10  1  0
  3 11  1  0
  5 12  1  0
  6 13  1  0
  6 14  1  0
  7 15  1  0
  7 16  1  0
  8 17  1  0
  8 18  1  0
M  END
