
     RDKit          3D

 15 15  0  0  0  0  0  0  0  0999 V2000
   -2.6521    0.7384    0.8915 O   0  0  0  0  0  0  0  0  0  0  0  0
   -1.8880   -0.1844    0.7068 C   0  0  0  0  0  0  0  0  0  0  0  0
   -1.2156   -0.3115   -0.5890 C   0  0  0  0  0  0  0  0  0  0  0  0
   -1.5851    0.7109   -1.4531 O   0  0  0  0  0  0  0  0  0  0  0  0
    0.2865   -0.3390   -0.4821 C   0  0  0  0  0  0  0  0  0  0  0  0
    0.7019   -1.4069    0.4220 O   0  0  0  0  0  0  0  0  0  0  0  0
    1.0383   -0.0631    0.6932 C   0  0  0  0  0  0  0  0  0  0  0  0
    2.4697    0.3150    0.5611 C   0  0  0  0  0  0  0  0  0  0  0  0
    3.0629    0.9715    1.3974 O   0  0  0  0  0  0  0  0  0  0  0  0
   -1.6741   -0.9380    1.4747 H   0  0  0  0  0  0  0  0  0  0  0  0
   -1.5071   -1.2855   -1.0819 H   0  0  0  0  0  0  0  0  0  0  0  0
   -1.4083    0.3869   -2.3725 H   0  0  0  0  0  0  0  0  0  0  0  0
    0.7925   -0.3630   -1.4730 H   0  0  0  0  0  0  0  0  0  0  0  0
    0.5696    0.3119    1.6256 H   0  0  0  0  0  0  0  0  0  0  0  0
    3.0089   -0.0093   -0.3208 H   0  0  0  0  0  0  0  0  0  0  0  0
  1  2  2  0
  2  3  1  0
  3  4  1  0
  3  5  1  0
  5  6  1  0
  6  7  1  0
  7  8  1  0
  8  9  2  0
  7  5  1  0
  2 10  1  0
  3 11  1  0
  4 12  1  0
  5 13  1  0
  7 14  1  0
  8 15  1  0
M  END
