
     RDKit          3D

 17 18  0  0  0  0  0  0  0  0999 V2000
    2.7236   -1.1309   -0.9364 O   0  0  0  0  0  0  0  0  0  0  0  0
    2.3118   -0.7145    0.1449 C   0  0  0  0  0  0  0  0  0  0  0  0
    1.1551    0.2416    0.2106 C   0  0  0  0  0  0  0  0  0  0  0  0
    1.5732    1.4589    0.8027 O   0  0  0  0  0  0  0  0  0  0  0  0
    0.0917    0.2095   -0.6705 C   0  0  0  0  0  0  0  0  0  0  0  0
   -1.3158    0.6833   -0.6492 C   0  0  0  0  0  0  0  0  0  0  0  0
   -1.9610   -0.5678   -0.0201 C   0  0  0  0  0  0  0  0  0  0  0  0
   -0.8698   -1.3372    0.4728 O   0  0  0  0  0  0  0  0  0  0  0  0
   -0.0132   -0.3401    0.8101 C   0  0  0  0  0  0  0  0  0  0  0  0
    2.7337   -1.0069    1.0942 H   0  0  0  0  0  0  0  0  0  0  0  0
    2.2078    1.8398    0.1045 H   0  0  0  0  0  0  0  0  0  0  0  0
    0.1756   -0.6236   -1.4500 H   0  0  0  0  0  0  0  0  0  0  0  0
   -1.7538    0.9366   -1.6174 H   0  0  0  0  0  0  0  0  0  0  0  0
   -1.4126    1.4867    0.1253 H   0  0  0  0  0  0  0  0  0  0  0  0
   -2.6081   -0.3065    0.8353 H   0  0  0  0  0  0  0  0  0  0  0  0
   -2.5018   -1.1572   -0.7984 H   0  0  0  0  0  0  0  0  0  0  0  0
   -0.5365    0.3283    1.5416 H   0  0  0  0  0  0  0  0  0  0  0  0
  1  2  2  0
  2  3  1  0
  3  4  1  0
  3  5  1  0
  5  6  1  0
  6  7  1  0
  7  8  1  0
  8  9  1  0
  9  3  1  0
  9  5  1  0
  2 10  1  0
  4 11  1  0
  5 12  1  0
  6 13  1  0
  6 14  1  0
  7 15  1  0
  7 16  1  0
  9 17  1  0
M  END
