
     RDKit          3D

 13 14  0  0  0  0  0  0  0  0999 V2000
   -1.8387    1.9124    0.4247 O   0  0  0  0  0  0  0  0  0  0  0  0
   -0.8309    1.2973    0.7137 C   0  0  0  0  0  0  0  0  0  0  0  0
   -0.3645    0.1992   -0.2000 C   0  0  0  0  0  0  0  0  0  0  0  0
   -1.3960   -0.8609   -0.1707 C   0  0  0  0  0  0  0  0  0  0  0  0
   -2.2072   -1.3692   -0.9102 O   0  0  0  0  0  0  0  0  0  0  0  0
   -0.9728   -0.9911    1.1414 O   0  0  0  0  0  0  0  0  0  0  0  0
    0.2974   -1.0509    0.5143 C   0  0  0  0  0  0  0  0  0  0  0  0
    1.0737   -0.0130   -0.0763 C   0  0  0  0  0  0  0  0  0  0  0  0
    1.8767    0.7538    0.7894 O   0  0  0  0  0  0  0  0  0  0  0  0
   -0.3329    1.5901    1.6249 H   0  0  0  0  0  0  0  0  0  0  0  0
    0.2696   -1.9988   -0.1171 H   0  0  0  0  0  0  0  0  0  0  0  0
    1.6037   -0.1497   -1.0653 H   0  0  0  0  0  0  0  0  0  0  0  0
    2.8219    0.6809    0.5806 H   0  0  0  0  0  0  0  0  0  0  0  0
  1  2  2  0
  2  3  1  0
  3  4  1  0
  4  5  2  0
  4  6  1  0
  6  7  1  0
  7  8  1  0
  8  9  1  0
  7  3  1  0
  8  3  1  0
  2 10  1  0
  7 11  1  0
  8 12  1  0
  9 13  1  0
M  END
