
     RDKit          3D

 15 17  0  0  0  0  0  0  0  0999 V2000
    2.6710   -0.8512    0.9391 O   0  0  0  0  0  0  0  0  0  0  0  0
    1.9827   -0.1422    0.2016 C   0  0  0  0  0  0  0  0  0  0  0  0
    0.5587   -0.0515    0.1733 C   0  0  0  0  0  0  0  0  0  0  0  0
   -0.3084   -1.0862   -0.5573 C   0  0  0  0  0  0  0  0  0  0  0  0
   -1.6226   -0.3066   -0.3998 C   0  0  0  0  0  0  0  0  0  0  0  0
   -1.2680    0.9124   -0.9221 O   0  0  0  0  0  0  0  0  0  0  0  0
   -0.1045    1.2114   -0.2186 C   0  0  0  0  0  0  0  0  0  0  0  0
   -0.3506    0.5581    1.1074 C   0  0  0  0  0  0  0  0  0  0  0  0
   -1.6126   -0.0642    0.9625 O   0  0  0  0  0  0  0  0  0  0  0  0
    2.5780    0.4726   -0.4969 H   0  0  0  0  0  0  0  0  0  0  0  0
    0.0120   -1.1238   -1.6126 H   0  0  0  0  0  0  0  0  0  0  0  0
   -0.3261   -2.0414   -0.0421 H   0  0  0  0  0  0  0  0  0  0  0  0
   -2.4759   -0.7972   -0.8016 H   0  0  0  0  0  0  0  0  0  0  0  0
    0.3953    2.1648   -0.3158 H   0  0  0  0  0  0  0  0  0  0  0  0
   -0.1290    1.1448    1.9829 H   0  0  0  0  0  0  0  0  0  0  0  0
  1  2  2  0
  2  3  1  0
  3  4  1  0
  4  5  1  0
  5  6  1  0
  6  7  1  0
  7  8  1  0
  8  9  1  0
  7  3  1  0
  8  3  1  0
  9  5  1  0
  2 10  1  0
  4 11  1  0
  4 12  1  0
  5 13  1  0
  7 14  1  0
  8 15  1  0
M  END
