
     RDKit          3D

 19 20  0  0  0  0  0  0  0  0999 V2000
    2.3659    1.2566   -0.9598 O   0  0  0  0  0  0  0  0  0  0  0  0
    2.5060    0.2295   -0.3364 C   0  0  0  0  0  0  0  0  0  0  0  0
    1.4169   -0.3552    0.4371 C   0  0  0  0  0  0  0  0  0  0  0  0
    0.1346    0.4240    0.3856 C   0  0  0  0  0  0  0  0  0  0  0  0
   -0.3993    0.5556   -1.0363 C   0  0  0  0  0  0  0  0  0  0  0  0
   -1.8579    0.3922   -0.7485 C   0  0  0  0  0  0  0  0  0  0  0  0
   -2.6726   -0.6222   -0.7563 O   0  0  0  0  0  0  0  0  0  0  0  0
   -1.6530   -0.9794   -0.0281 C   0  0  0  0  0  0  0  0  0  0  0  0
   -0.9485   -0.3787    1.1379 C   0  0  0  0  0  0  0  0  0  0  0  0
    3.4619   -0.2622   -0.3564 H   0  0  0  0  0  0  0  0  0  0  0  0
    1.7388   -0.3482    1.5196 H   0  0  0  0  0  0  0  0  0  0  0  0
    1.2638   -1.4280    0.2015 H   0  0  0  0  0  0  0  0  0  0  0  0
    0.1865    1.3949    0.8843 H   0  0  0  0  0  0  0  0  0  0  0  0
    0.0053   -0.1973   -1.7160 H   0  0  0  0  0  0  0  0  0  0  0  0
   -0.2410    1.6063   -1.4156 H   0  0  0  0  0  0  0  0  0  0  0  0
   -2.2121    1.2383   -0.0819 H   0  0  0  0  0  0  0  0  0  0  0  0
   -0.9705   -1.7117   -0.5602 H   0  0  0  0  0  0  0  0  0  0  0  0
   -0.4769   -1.1217    1.7790 H   0  0  0  0  0  0  0  0  0  0  0  0
   -1.6481    0.3073    1.6505 H   0  0  0  0  0  0  0  0  0  0  0  0
  1  2  2  0
  2  3  1  0
  3  4  1  0
  4  5  1  0
  5  6  1  0
  6  7  1  0
  7  8  1  0
  8  9  1  0
  9  4  1  0
  8  6  1  0
  2 10  1  0
  3 11  1  0
  3 12  1  0
  4 13  1  0
  5 14  1  0
  5 15  1  0
  6 16  1  0
  8 17  1  0
  9 18  1  0
  9 19  1  0
M  END
