
     RDKit          3D

 16 17  0  0  0  0  0  0  0  0999 V2000
   -2.9238    0.7532    1.0620 O   0  0  0  0  0  0  0  0  0  0  0  0
   -2.3463   -0.2864    0.8354 C   0  0  0  0  0  0  0  0  0  0  0  0
   -1.3509   -0.3683   -0.2232 C   0  0  0  0  0  0  0  0  0  0  0  0
   -0.0502    0.2246    0.1890 C   0  0  0  0  0  0  0  0  0  0  0  0
    1.0951    0.2153   -0.8110 C   0  0  0  0  0  0  0  0  0  0  0  0
    2.0303    0.1326    0.4074 C   0  0  0  0  0  0  0  0  0  0  0  0
    0.7519    0.0958    1.2514 C   0  0  0  0  0  0  0  0  0  0  0  0
   -0.0530    1.2198    1.1381 O   0  0  0  0  0  0  0  0  0  0  0  0
   -2.5859   -1.1475    1.4339 H   0  0  0  0  0  0  0  0  0  0  0  0
   -1.1535   -1.4138   -0.5766 H   0  0  0  0  0  0  0  0  0  0  0  0
   -1.6951    0.1893   -1.1406 H   0  0  0  0  0  0  0  0  0  0  0  0
    1.1339   -0.6760   -1.4391 H   0  0  0  0  0  0  0  0  0  0  0  0
    1.2078    1.1815   -1.3450 H   0  0  0  0  0  0  0  0  0  0  0  0
    2.5997    1.0622    0.5440 H   0  0  0  0  0  0  0  0  0  0  0  0
    2.5828   -0.8092    0.4849 H   0  0  0  0  0  0  0  0  0  0  0  0
    0.7574   -0.3732    2.2278 H   0  0  0  0  0  0  0  0  0  0  0  0
  1  2  2  0
  2  3  1  0
  3  4  1  0
  4  5  1  0
  5  6  1  0
  6  7  1  0
  7  8  1  0
  7  4  1  0
  8  4  1  0
  2  9  1  0
  3 10  1  0
  3 11  1  0
  5 12  1  0
  5 13  1  0
  6 14  1  0
  6 15  1  0
  7 16  1  0
M  END
