
     RDKit          3D

 17 17  0  0  0  0  0  0  0  0999 V2000
    0.0661   -1.0836    2.2447 O   0  0  0  0  0  0  0  0  0  0  0  0
   -0.3861   -1.2716    1.1454 C   0  0  0  0  0  0  0  0  0  0  0  0
   -0.3306   -0.1648    0.1716 C   0  0  0  0  0  0  0  0  0  0  0  0
   -1.7346    0.1083   -0.3047 C   0  0  0  0  0  0  0  0  0  0  0  0
   -1.7198    1.0945   -1.2951 O   0  0  0  0  0  0  0  0  0  0  0  0
    0.5423   -0.4700   -1.0031 C   0  0  0  0  0  0  0  0  0  0  0  0
    1.7226    0.0698   -0.7404 C   0  0  0  0  0  0  0  0  0  0  0  0
    1.6114    0.7137    0.5882 C   0  0  0  0  0  0  0  0  0  0  0  0
    0.2686    0.9806    0.7101 O   0  0  0  0  0  0  0  0  0  0  0  0
   -0.8176   -2.2078    0.8702 H   0  0  0  0  0  0  0  0  0  0  0  0
   -2.1128   -0.8383   -0.7447 H   0  0  0  0  0  0  0  0  0  0  0  0
   -2.3570    0.4607    0.5445 H   0  0  0  0  0  0  0  0  0  0  0  0
   -1.8875    1.9814   -0.8974 H   0  0  0  0  0  0  0  0  0  0  0  0
    0.3016   -1.0120   -1.8962 H   0  0  0  0  0  0  0  0  0  0  0  0
    2.6306    0.0725   -1.3419 H   0  0  0  0  0  0  0  0  0  0  0  0
    2.2483    1.6186    0.6163 H   0  0  0  0  0  0  0  0  0  0  0  0
    1.9545   -0.0522    1.3326 H   0  0  0  0  0  0  0  0  0  0  0  0
  1  2  2  0
  2  3  1  0
  3  4  1  0
  4  5  1  0
  3  6  1  0
  6  7  2  0
  7  8  1  0
  8  9  1  0
  9  3  1  0
  2 10  1  0
  4 11  1  0
  4 12  1  0
  5 13  1  0
  6 14  1  0
  7 15  1  0
  8 16  1  0
  8 17  1  0
M  END
