
     RDKit          3D

 21 22  0  0  0  0  0  0  0  0999 V2000
    2.6079   -0.5600   -1.5380 O   0  0  0  0  0  0  0  0  0  0  0  0
    2.6001   -0.1186   -0.3846 C   0  0  0  0  0  0  0  0  0  0  0  0
    1.3693   -0.1942    0.4511 C   0  0  0  0  0  0  0  0  0  0  0  0
    0.5830    1.0870    0.4493 C   0  0  0  0  0  0  0  0  0  0  0  0
   -0.6686    0.8550   -0.3276 C   0  0  0  0  0  0  0  0  0  0  0  0
   -1.9600    0.8966    0.4956 C   0  0  0  0  0  0  0  0  0  0  0  0
   -1.7053   -0.5556    0.8335 C   0  0  0  0  0  0  0  0  0  0  0  0
   -0.8394   -0.6344   -0.4060 C   0  0  0  0  0  0  0  0  0  0  0  0
    0.4904   -1.2653   -0.1035 C   0  0  0  0  0  0  0  0  0  0  0  0
    3.5330    0.3151   -0.0404 H   0  0  0  0  0  0  0  0  0  0  0  0
    1.6617   -0.4147    1.5051 H   0  0  0  0  0  0  0  0  0  0  0  0
    0.4045    1.4775    1.4822 H   0  0  0  0  0  0  0  0  0  0  0  0
    1.1875    1.8448   -0.0795 H   0  0  0  0  0  0  0  0  0  0  0  0
   -0.7254    1.3699   -1.2959 H   0  0  0  0  0  0  0  0  0  0  0  0
   -1.9377    1.6023    1.3315 H   0  0  0  0  0  0  0  0  0  0  0  0
   -2.8283    0.9934   -0.1971 H   0  0  0  0  0  0  0  0  0  0  0  0
   -1.1409   -0.7162    1.7657 H   0  0  0  0  0  0  0  0  0  0  0  0
   -2.5735   -1.2262    0.7197 H   0  0  0  0  0  0  0  0  0  0  0  0
   -1.3435   -0.9354   -1.3207 H   0  0  0  0  0  0  0  0  0  0  0  0
    0.3755   -2.0605    0.6566 H   0  0  0  0  0  0  0  0  0  0  0  0
    0.9098   -1.7604   -1.0068 H   0  0  0  0  0  0  0  0  0  0  0  0
  1  2  2  0
  2  3  1  0
  3  4  1  0
  4  5  1  0
  5  6  1  0
  6  7  1  0
  7  8  1  0
  8  9  1  0
  9  3  1  0
  8  5  1  0
  2 10  1  0
  3 11  1  0
  4 12  1  0
  4 13  1  0
  5 14  1  0
  6 15  1  0
  6 16  1  0
  7 17  1  0
  7 18  1  0
  8 19  1  0
  9 20  1  0
  9 21  1  0
M  END
