
     RDKit          3D

 19 19  0  0  0  0  0  0  0  0999 V2000
    3.3462   -1.4246   -0.5442 O   0  0  0  0  0  0  0  0  0  0  0  0
    2.8006   -0.5627    0.1558 C   0  0  0  0  0  0  0  0  0  0  0  0
    1.4244   -0.1083   -0.1175 C   0  0  0  0  0  0  0  0  0  0  0  0
    0.6780   -0.5624   -1.0963 C   0  0  0  0  0  0  0  0  0  0  0  0
   -0.6664    0.0602   -1.1520 C   0  0  0  0  0  0  0  0  0  0  0  0
   -0.8002    0.6571    0.2184 C   0  0  0  0  0  0  0  0  0  0  0  0
   -1.4762   -0.3409    1.1106 C   0  0  0  0  0  0  0  0  0  0  0  0
   -2.7345   -0.6081    0.5531 O   0  0  0  0  0  0  0  0  0  0  0  0
    0.6400    0.9069    0.6308 C   0  0  0  0  0  0  0  0  0  0  0  0
    3.3468   -0.1301    0.9910 H   0  0  0  0  0  0  0  0  0  0  0  0
    1.0161   -1.3330   -1.8100 H   0  0  0  0  0  0  0  0  0  0  0  0
   -0.7224    0.8899   -1.8966 H   0  0  0  0  0  0  0  0  0  0  0  0
   -1.4071   -0.7338   -1.3531 H   0  0  0  0  0  0  0  0  0  0  0  0
   -1.3645    1.5873    0.2392 H   0  0  0  0  0  0  0  0  0  0  0  0
   -0.9385   -1.3199    1.1352 H   0  0  0  0  0  0  0  0  0  0  0  0
   -1.6727    0.0533    2.1327 H   0  0  0  0  0  0  0  0  0  0  0  0
   -3.2100    0.2682    0.5188 H   0  0  0  0  0  0  0  0  0  0  0  0
    0.9974    1.8989    0.2830 H   0  0  0  0  0  0  0  0  0  0  0  0
    0.7429    0.8019    1.7280 H   0  0  0  0  0  0  0  0  0  0  0  0
  1  2  2  0
  2  3  1  0
  3  4  2  0
  4  5  1  0
  5  6  1  0
  6  7  1  0
  7  8  1  0
  6  9  1  0
  9  3  1  0
  2 10  1  0
  4 11  1  0
  5 12  1  0
  5 13  1  0
  6 14  1  0
  7 15  1  0
  7 16  1  0
  8 17  1  0
  9 18  1  0
  9 19  1  0
M  END
