
     RDKit          3D

 17 17  0  0  0  0  0  0  0  0999 V2000
    0.3727    2.1650   -1.3551 O   0  0  0  0  0  0  0  0  0  0  0  0
   -0.3947    1.2992   -0.9679 C   0  0  0  0  0  0  0  0  0  0  0  0
    0.0665    0.0936   -0.2325 C   0  0  0  0  0  0  0  0  0  0  0  0
    1.5566   -0.2331   -0.3447 C   0  0  0  0  0  0  0  0  0  0  0  0
    2.2971    0.8408    0.1574 O   0  0  0  0  0  0  0  0  0  0  0  0
   -0.5231   -0.1480    1.0944 C   0  0  0  0  0  0  0  0  0  0  0  0
   -1.4728    0.7599    1.5353 O   0  0  0  0  0  0  0  0  0  0  0  0
   -0.8287   -1.0498   -0.0820 C   0  0  0  0  0  0  0  0  0  0  0  0
   -2.1746   -1.0038   -0.4719 O   0  0  0  0  0  0  0  0  0  0  0  0
   -1.4323    1.4326   -1.1762 H   0  0  0  0  0  0  0  0  0  0  0  0
    1.7971   -1.1421    0.2456 H   0  0  0  0  0  0  0  0  0  0  0  0
    1.8486   -0.4782   -1.3966 H   0  0  0  0  0  0  0  0  0  0  0  0
    3.0949    0.4708    0.5893 H   0  0  0  0  0  0  0  0  0  0  0  0
   -0.0033   -0.6675    1.9130 H   0  0  0  0  0  0  0  0  0  0  0  0
   -1.2330    1.6461    1.1635 H   0  0  0  0  0  0  0  0  0  0  0  0
   -0.4142   -2.0889   -0.0883 H   0  0  0  0  0  0  0  0  0  0  0  0
   -2.5570   -1.8967   -0.5833 H   0  0  0  0  0  0  0  0  0  0  0  0
  1  2  2  0
  2  3  1  0
  3  4  1  0
  4  5  1  0
  3  6  1  0
  6  7  1  0
  6  8  1  0
  8  9  1  0
  8  3  1  0
  2 10  1  0
  4 11  1  0
  4 12  1  0
  5 13  1  0
  6 14  1  0
  7 15  1  0
  8 16  1  0
  9 17  1  0
M  END
