
     RDKit          3D

 17 18  0  0  0  0  0  0  0  0999 V2000
    2.1008   -1.1136   -1.6756 O   0  0  0  0  0  0  0  0  0  0  0  0
    1.3622   -1.0193   -0.7281 C   0  0  0  0  0  0  0  0  0  0  0  0
    0.8020    0.2401   -0.2203 C   0  0  0  0  0  0  0  0  0  0  0  0
   -0.1012    0.1788    0.9699 C   0  0  0  0  0  0  0  0  0  0  0  0
   -1.3335   -0.6588    0.7524 C   0  0  0  0  0  0  0  0  0  0  0  0
   -2.2901   -0.2658   -0.3517 C   0  0  0  0  0  0  0  0  0  0  0  0
   -1.4428   -1.4072   -0.4186 O   0  0  0  0  0  0  0  0  0  0  0  0
    1.7727    1.4172   -0.2403 C   0  0  0  0  0  0  0  0  0  0  0  0
    0.7133    1.3029   -1.1132 O   0  0  0  0  0  0  0  0  0  0  0  0
    1.1018   -1.9559   -0.2220 H   0  0  0  0  0  0  0  0  0  0  0  0
    0.4806   -0.3314    1.7912 H   0  0  0  0  0  0  0  0  0  0  0  0
   -0.4162    1.1613    1.3382 H   0  0  0  0  0  0  0  0  0  0  0  0
   -1.8091   -1.1508    1.6251 H   0  0  0  0  0  0  0  0  0  0  0  0
   -2.0090    0.6125   -0.9693 H   0  0  0  0  0  0  0  0  0  0  0  0
   -3.3831   -0.4879   -0.2028 H   0  0  0  0  0  0  0  0  0  0  0  0
    2.8050    1.2603   -0.5608 H   0  0  0  0  0  0  0  0  0  0  0  0
    1.6466    2.2174    0.5207 H   0  0  0  0  0  0  0  0  0  0  0  0
  1  2  2  0
  2  3  1  0
  3  4  1  0
  4  5  1  0
  5  6  1  0
  6  7  1  0
  3  8  1  0
  8  9  1  0
  9  3  1  0
  7  5  1  0
  2 10  1  0
  4 11  1  0
  4 12  1  0
  5 13  1  0
  6 14  1  0
  6 15  1  0
  8 16  1  0
  8 17  1  0
M  END
