
     RDKit          3D

 21 21  0  0  0  0  0  0  0  0999 V2000
    2.8866    1.3098    0.4494 O   0  0  0  0  0  0  0  0  0  0  0  0
    2.6641    0.6306   -0.5125 C   0  0  0  0  0  0  0  0  0  0  0  0
    1.4352   -0.1492   -0.6365 C   0  0  0  0  0  0  0  0  0  0  0  0
    1.1499   -1.0257    0.5665 C   0  0  0  0  0  0  0  0  0  0  0  0
   -0.3296   -0.9967    0.7960 C   0  0  0  0  0  0  0  0  0  0  0  0
   -0.8790   -0.2813   -0.4084 C   0  0  0  0  0  0  0  0  0  0  0  0
   -2.2264    0.3271   -0.1289 C   0  0  0  0  0  0  0  0  0  0  0  0
   -2.1978    1.2519    0.8952 O   0  0  0  0  0  0  0  0  0  0  0  0
    0.1837    0.7336   -0.7065 C   0  0  0  0  0  0  0  0  0  0  0  0
    3.3859    0.5855   -1.3179 H   0  0  0  0  0  0  0  0  0  0  0  0
    1.4048   -0.7793   -1.5387 H   0  0  0  0  0  0  0  0  0  0  0  0
    1.6472   -0.5582    1.4600 H   0  0  0  0  0  0  0  0  0  0  0  0
    1.4971   -2.0472    0.3961 H   0  0  0  0  0  0  0  0  0  0  0  0
   -0.6167   -0.4794    1.7409 H   0  0  0  0  0  0  0  0  0  0  0  0
   -0.7376   -2.0461    0.7635 H   0  0  0  0  0  0  0  0  0  0  0  0
   -0.9643   -0.9529   -1.2732 H   0  0  0  0  0  0  0  0  0  0  0  0
   -2.8779   -0.5210    0.2356 H   0  0  0  0  0  0  0  0  0  0  0  0
   -2.7056    0.6909   -1.0448 H   0  0  0  0  0  0  0  0  0  0  0  0
   -3.1187    1.6113    0.9866 H   0  0  0  0  0  0  0  0  0  0  0  0
    0.2645    1.5292    0.0572 H   0  0  0  0  0  0  0  0  0  0  0  0
    0.1345    1.1671   -1.7039 H   0  0  0  0  0  0  0  0  0  0  0  0
  1  2  2  0
  2  3  1  0
  3  4  1  0
  4  5  1  0
  5  6  1  0
  6  7  1  0
  7  8  1  0
  6  9  1  0
  9  3  1  0
  2 10  1  0
  3 11  1  0
  4 12  1  0
  4 13  1  0
  5 14  1  0
  5 15  1  0
  6 16  1  0
  7 17  1  0
  7 18  1  0
  8 19  1  0
  9 20  1  0
  9 21  1  0
M  END
