
     RDKit          3D

 17 18  0  0  0  0  0  0  0  0999 V2000
    3.0616    0.7170    0.6563 O   0  0  0  0  0  0  0  0  0  0  0  0
    2.3972   -0.3208    0.3309 C   0  0  0  0  0  0  0  0  0  0  0  0
    0.9547   -0.2908    0.1640 C   0  0  0  0  0  0  0  0  0  0  0  0
    0.1938   -1.3132   -0.1695 C   0  0  0  0  0  0  0  0  0  0  0  0
   -1.2310   -0.7854   -0.2217 C   0  0  0  0  0  0  0  0  0  0  0  0
   -1.6864   -0.6374    1.0850 O   0  0  0  0  0  0  0  0  0  0  0  0
   -0.8522    0.5236   -0.8450 C   0  0  0  0  0  0  0  0  0  0  0  0
   -0.5601    1.8125   -0.4031 C   0  0  0  0  0  0  0  0  0  0  0  0
    0.0974    0.8481    0.3689 C   0  0  0  0  0  0  0  0  0  0  0  0
    2.9140   -1.2413    0.1757 H   0  0  0  0  0  0  0  0  0  0  0  0
    0.5259   -2.3076   -0.3615 H   0  0  0  0  0  0  0  0  0  0  0  0
   -1.8741   -1.4107   -0.8274 H   0  0  0  0  0  0  0  0  0  0  0  0
   -1.9527   -1.5140    1.4449 H   0  0  0  0  0  0  0  0  0  0  0  0
   -0.3281    0.2575   -1.8194 H   0  0  0  0  0  0  0  0  0  0  0  0
    0.1019    2.5070   -1.0044 H   0  0  0  0  0  0  0  0  0  0  0  0
   -1.3918    2.4317    0.0216 H   0  0  0  0  0  0  0  0  0  0  0  0
   -0.3701    0.7238    1.4048 H   0  0  0  0  0  0  0  0  0  0  0  0
  1  2  2  0
  2  3  1  0
  3  4  2  0
  4  5  1  0
  5  6  1  0
  5  7  1  0
  7  8  1  0
  8  9  1  0
  9  3  1  0
  9  7  1  0
  2 10  1  0
  4 11  1  0
  5 12  1  0
  6 13  1  0
  7 14  1  0
  8 15  1  0
  8 16  1  0
  9 17  1  0
M  END
