
     RDKit          3D

 10  9  0  0  0  0  0  0  0  0999 V2000
   -1.9352   -0.8207    0.1452 O   0  0  0  0  0  0  0  0  0  0  0  0
   -0.8579   -0.7917   -0.4058 C   0  0  0  0  0  0  0  0  0  0  0  0
   -0.0171    0.4150   -0.2408 C   0  0  0  0  0  0  0  0  0  0  0  0
   -0.6437    1.3422    0.5546 O   0  0  0  0  0  0  0  0  0  0  0  0
    1.3272    0.0254    0.2437 C   0  0  0  0  0  0  0  0  0  0  0  0
    1.9539   -0.7900   -0.3987 O   0  0  0  0  0  0  0  0  0  0  0  0
   -0.5382   -1.6560   -1.0081 H   0  0  0  0  0  0  0  0  0  0  0  0
    0.1596    0.9129   -1.2376 H   0  0  0  0  0  0  0  0  0  0  0  0
   -1.2409    0.9465    1.2158 H   0  0  0  0  0  0  0  0  0  0  0  0
    1.7922    0.4165    1.1317 H   0  0  0  0  0  0  0  0  0  0  0  0
  1  2  2  0
  2  3  1  0
  3  4  1  0
  3  5  1  0
  5  6  2  0
  2  7  1  0
  3  8  1  0
  4  9  1  0
  5 10  1  0
M  END
