
     RDKit          3D

 19 20  0  0  0  0  0  0  0  0999 V2000
   -1.6741    2.2152    0.7366 O   0  0  0  0  0  0  0  0  0  0  0  0
   -1.8716    1.1061    0.2286 C   0  0  0  0  0  0  0  0  0  0  0  0
   -0.8057    0.2434   -0.2353 C   0  0  0  0  0  0  0  0  0  0  0  0
    0.2723    0.8709   -1.0871 C   0  0  0  0  0  0  0  0  0  0  0  0
    1.4979    0.8781   -0.1820 C   0  0  0  0  0  0  0  0  0  0  0  0
    1.3894   -0.5234    0.4312 C   0  0  0  0  0  0  0  0  0  0  0  0
   -0.0672   -0.5747    0.7865 C   0  0  0  0  0  0  0  0  0  0  0  0
   -0.7524   -1.7668    0.1932 C   0  0  0  0  0  0  0  0  0  0  0  0
   -1.3028   -0.9452   -0.7636 O   0  0  0  0  0  0  0  0  0  0  0  0
   -2.9100    0.8118    0.1493 H   0  0  0  0  0  0  0  0  0  0  0  0
    0.0104    1.8859   -1.4413 H   0  0  0  0  0  0  0  0  0  0  0  0
    0.5112    0.1683   -1.9129 H   0  0  0  0  0  0  0  0  0  0  0  0
    1.4650    1.6618    0.5759 H   0  0  0  0  0  0  0  0  0  0  0  0
    2.4005    0.9739   -0.7953 H   0  0  0  0  0  0  0  0  0  0  0  0
    1.6170   -1.2229   -0.3935 H   0  0  0  0  0  0  0  0  0  0  0  0
    2.0587   -0.6112    1.2905 H   0  0  0  0  0  0  0  0  0  0  0  0
   -0.3170   -0.4062    1.8376 H   0  0  0  0  0  0  0  0  0  0  0  0
   -0.0634   -2.5000   -0.2993 H   0  0  0  0  0  0  0  0  0  0  0  0
   -1.4582   -2.2651    0.8809 H   0  0  0  0  0  0  0  0  0  0  0  0
  1  2  2  0
  2  3  1  0
  3  4  1  0
  4  5  1  0
  5  6  1  0
  6  7  1  0
  7  8  1  0
  8  9  1  0
  7  3  1  0
  9  3  1  0
  2 10  1  0
  4 11  1  0
  4 12  1  0
  5 13  1  0
  5 14  1  0
  6 15  1  0
  6 16  1  0
  7 17  1  0
  8 18  1  0
  8 19  1  0
M  END
