
     RDKit          3D

 17 18  0  0  0  0  0  0  0  0999 V2000
    1.8553   -0.1912    1.5911 O   0  0  0  0  0  0  0  0  0  0  0  0
    1.7482   -0.6469    0.4673 C   0  0  0  0  0  0  0  0  0  0  0  0
    1.0591    0.1341   -0.5600 C   0  0  0  0  0  0  0  0  0  0  0  0
    0.5019    1.4249   -0.0871 C   0  0  0  0  0  0  0  0  0  0  0  0
   -0.3191    1.0798    0.9930 O   0  0  0  0  0  0  0  0  0  0  0  0
   -1.3033    0.1839    0.7478 C   0  0  0  0  0  0  0  0  0  0  0  0
   -0.8896   -1.0430   -0.0786 C   0  0  0  0  0  0  0  0  0  0  0  0
   -0.1913   -0.4801   -1.2495 C   0  0  0  0  0  0  0  0  0  0  0  0
    1.0130   -0.4710   -1.7342 O   0  0  0  0  0  0  0  0  0  0  0  0
    2.1926   -1.6241    0.3392 H   0  0  0  0  0  0  0  0  0  0  0  0
    1.3121    2.0680    0.3568 H   0  0  0  0  0  0  0  0  0  0  0  0
   -0.0365    2.0071   -0.8588 H   0  0  0  0  0  0  0  0  0  0  0  0
   -1.7709   -0.1048    1.6843 H   0  0  0  0  0  0  0  0  0  0  0  0
   -2.0820    0.6934    0.1071 H   0  0  0  0  0  0  0  0  0  0  0  0
   -0.3691   -1.7878    0.5046 H   0  0  0  0  0  0  0  0  0  0  0  0
   -1.8461   -1.4862   -0.4314 H   0  0  0  0  0  0  0  0  0  0  0  0
   -0.8743    0.2439   -1.7914 H   0  0  0  0  0  0  0  0  0  0  0  0
  1  2  2  0
  2  3  1  0
  3  4  1  0
  4  5  1  0
  5  6  1  0
  6  7  1  0
  7  8  1  0
  8  9  1  0
  8  3  1  0
  9  3  1  0
  2 10  1  0
  4 11  1  0
  4 12  1  0
  6 13  1  0
  6 14  1  0
  7 15  1  0
  7 16  1  0
  8 17  1  0
M  END
