
     RDKit          3D

 17 18  0  0  0  0  0  0  0  0999 V2000
    3.2344    0.3137   -0.4055 O   0  0  0  0  0  0  0  0  0  0  0  0
    2.2473    0.2703    0.3112 C   0  0  0  0  0  0  0  0  0  0  0  0
    0.9230    0.3198   -0.3475 C   0  0  0  0  0  0  0  0  0  0  0  0
    0.2784   -1.0787   -0.4068 C   0  0  0  0  0  0  0  0  0  0  0  0
   -0.6355   -1.2582    0.6310 O   0  0  0  0  0  0  0  0  0  0  0  0
   -1.7901   -0.4573    0.4451 C   0  0  0  0  0  0  0  0  0  0  0  0
   -1.3787    0.6974   -0.3724 C   0  0  0  0  0  0  0  0  0  0  0  0
   -1.0460    1.9370   -0.0722 O   0  0  0  0  0  0  0  0  0  0  0  0
   -0.0828    1.1498    0.3495 C   0  0  0  0  0  0  0  0  0  0  0  0
    2.2888    0.1991    1.3787 H   0  0  0  0  0  0  0  0  0  0  0  0
    1.0044    0.6747   -1.4020 H   0  0  0  0  0  0  0  0  0  0  0  0
    1.0997   -1.7969   -0.2194 H   0  0  0  0  0  0  0  0  0  0  0  0
   -0.1299   -1.2961   -1.3961 H   0  0  0  0  0  0  0  0  0  0  0  0
   -2.0480   -0.0984    1.4817 H   0  0  0  0  0  0  0  0  0  0  0  0
   -2.6064   -1.0664    0.0251 H   0  0  0  0  0  0  0  0  0  0  0  0
   -1.3184    0.4621   -1.4581 H   0  0  0  0  0  0  0  0  0  0  0  0
   -0.0402    1.0281    1.4576 H   0  0  0  0  0  0  0  0  0  0  0  0
  1  2  2  0
  2  3  1  0
  3  4  1  0
  4  5  1  0
  5  6  1  0
  6  7  1  0
  7  8  1  0
  8  9  1  0
  9  3  1  0
  9  7  1  0
  2 10  1  0
  3 11  1  0
  4 12  1  0
  4 13  1  0
  6 14  1  0
  6 15  1  0
  7 16  1  0
  9 17  1  0
M  END
