
     RDKit          3D

 14 16  0  0  0  0  0  0  0  0999 V2000
    2.4240    0.9870   -0.5358 O   0  0  0  0  0  0  0  0  0  0  0  0
    2.1224   -0.0170    0.0966 C   0  0  0  0  0  0  0  0  0  0  0  0
    0.7228   -0.0709    0.5967 C   0  0  0  0  0  0  0  0  0  0  0  0
    0.6618   -1.2698    1.2985 O   0  0  0  0  0  0  0  0  0  0  0  0
   -0.2212   -1.2492    0.3127 C   0  0  0  0  0  0  0  0  0  0  0  0
   -1.3142   -0.1833    0.4635 C   0  0  0  0  0  0  0  0  0  0  0  0
   -1.5319    0.9796   -0.3776 C   0  0  0  0  0  0  0  0  0  0  0  0
   -0.2088    0.4735   -0.4150 C   0  0  0  0  0  0  0  0  0  0  0  0
    2.8933   -0.7367    0.2173 H   0  0  0  0  0  0  0  0  0  0  0  0
   -0.1330   -1.7861   -0.6239 H   0  0  0  0  0  0  0  0  0  0  0  0
   -1.4184    0.1236    1.5251 H   0  0  0  0  0  0  0  0  0  0  0  0
   -1.6409    2.0385    0.0061 H   0  0  0  0  0  0  0  0  0  0  0  0
   -2.3089    0.8154   -1.1714 H   0  0  0  0  0  0  0  0  0  0  0  0
   -0.0469   -0.1047   -1.3927 H   0  0  0  0  0  0  0  0  0  0  0  0
  1  2  2  0
  2  3  1  0
  3  4  1  0
  4  5  1  0
  5  6  1  0
  6  7  1  0
  7  8  1  0
  5  3  1  0
  8  6  1  0
  8  3  1  0
  2  9  1  0
  5 10  1  0
  6 11  1  0
  7 12  1  0
  7 13  1  0
  8 14  1  0
M  END
