
     RDKit          3D

 15 14  0  0  0  0  0  0  0  0999 V2000
    1.4405    1.9543    0.3239 O   0  0  0  0  0  0  0  0  0  0  0  0
    1.7015    0.7661    0.3975 C   0  0  0  0  0  0  0  0  0  0  0  0
    1.1358   -0.1862   -0.5857 C   0  0  0  0  0  0  0  0  0  0  0  0
   -0.1691   -0.7584   -0.1475 C   0  0  0  0  0  0  0  0  0  0  0  0
   -0.6724   -1.6539   -1.1016 O   0  0  0  0  0  0  0  0  0  0  0  0
   -1.2487    0.2168    0.1651 C   0  0  0  0  0  0  0  0  0  0  0  0
   -0.8980    1.1636    1.1165 O   0  0  0  0  0  0  0  0  0  0  0  0
    2.3459    0.3809    1.1743 H   0  0  0  0  0  0  0  0  0  0  0  0
    1.0860    0.2799   -1.5924 H   0  0  0  0  0  0  0  0  0  0  0  0
    1.8441   -1.0623   -0.6764 H   0  0  0  0  0  0  0  0  0  0  0  0
    0.0309   -1.3409    0.7992 H   0  0  0  0  0  0  0  0  0  0  0  0
   -1.4557   -2.0913   -0.6755 H   0  0  0  0  0  0  0  0  0  0  0  0
   -1.6782    0.7120   -0.7289 H   0  0  0  0  0  0  0  0  0  0  0  0
   -2.0866   -0.3807    0.6318 H   0  0  0  0  0  0  0  0  0  0  0  0
   -1.3762    2.0001    0.8999 H   0  0  0  0  0  0  0  0  0  0  0  0
  1  2  2  0
  2  3  1  0
  3  4  1  0
  4  5  1  0
  4  6  1  0
  6  7  1  0
  2  8  1  0
  3  9  1  0
  3 10  1  0
  4 11  1  0
  5 12  1  0
  6 13  1  0
  6 14  1  0
  7 15  1  0
M  END
