
     RDKit          3D

 14 14  0  0  0  0  0  0  0  0999 V2000
    1.8560   -1.5698    0.8685 O   0  0  0  0  0  0  0  0  0  0  0  0
    1.9585   -0.4046    0.5304 C   0  0  0  0  0  0  0  0  0  0  0  0
    1.0439    0.1363   -0.4736 C   0  0  0  0  0  0  0  0  0  0  0  0
   -0.0705    1.0130    0.0408 C   0  0  0  0  0  0  0  0  0  0  0  0
   -0.9554   -0.0318   -0.5927 C   0  0  0  0  0  0  0  0  0  0  0  0
   -1.9337   -0.6613    0.3249 C   0  0  0  0  0  0  0  0  0  0  0  0
   -1.7133   -1.7895    0.7070 O   0  0  0  0  0  0  0  0  0  0  0  0
    0.1327   -0.8115   -0.9274 O   0  0  0  0  0  0  0  0  0  0  0  0
    2.7466    0.1686    1.0136 H   0  0  0  0  0  0  0  0  0  0  0  0
    1.5746    0.6883   -1.3023 H   0  0  0  0  0  0  0  0  0  0  0  0
   -0.1483    1.1201    1.1281 H   0  0  0  0  0  0  0  0  0  0  0  0
   -0.1901    1.9899   -0.4711 H   0  0  0  0  0  0  0  0  0  0  0  0
   -1.4785    0.3127   -1.5076 H   0  0  0  0  0  0  0  0  0  0  0  0
   -2.8227   -0.1603    0.6614 H   0  0  0  0  0  0  0  0  0  0  0  0
  1  2  2  0
  2  3  1  0
  3  4  1  0
  4  5  1  0
  5  6  1  0
  6  7  2  0
  5  8  1  0
  8  3  1  0
  2  9  1  0
  3 10  1  0
  4 11  1  0
  4 12  1  0
  5 13  1  0
  6 14  1  0
M  END
