
     RDKit          3D

 17 18  0  0  0  0  0  0  0  0999 V2000
   -1.8302   -1.1417    1.9735 O   0  0  0  0  0  0  0  0  0  0  0  0
   -1.5380   -0.1786    1.2991 C   0  0  0  0  0  0  0  0  0  0  0  0
   -1.0396   -0.3694   -0.0672 C   0  0  0  0  0  0  0  0  0  0  0  0
   -1.2800    0.7405   -1.0203 C   0  0  0  0  0  0  0  0  0  0  0  0
   -2.2053    1.4593   -1.2821 O   0  0  0  0  0  0  0  0  0  0  0  0
    0.1134    0.5733   -1.5035 C   0  0  0  0  0  0  0  0  0  0  0  0
    0.4107   -0.1081   -0.2202 C   0  0  0  0  0  0  0  0  0  0  0  0
    1.5119   -0.9477    0.0875 C   0  0  0  0  0  0  0  0  0  0  0  0
    1.2934    0.3864    0.8204 C   0  0  0  0  0  0  0  0  0  0  0  0
   -1.6590    0.8009    1.7407 H   0  0  0  0  0  0  0  0  0  0  0  0
   -1.4310   -1.3148   -0.5029 H   0  0  0  0  0  0  0  0  0  0  0  0
    0.2123   -0.1451   -2.3627 H   0  0  0  0  0  0  0  0  0  0  0  0
    0.6949    1.5028   -1.6154 H   0  0  0  0  0  0  0  0  0  0  0  0
    1.3681   -1.8653    0.7214 H   0  0  0  0  0  0  0  0  0  0  0  0
    2.4335   -0.9755   -0.4890 H   0  0  0  0  0  0  0  0  0  0  0  0
    1.9558    1.2386    0.5363 H   0  0  0  0  0  0  0  0  0  0  0  0
    0.9891    0.3444    1.8845 H   0  0  0  0  0  0  0  0  0  0  0  0
  1  2  2  0
  2  3  1  0
  3  4  1  0
  4  5  2  0
  4  6  1  0
  6  7  1  0
  7  8  1  0
  8  9  1  0
  7  3  1  0
  9  7  1  0
  2 10  1  0
  3 11  1  0
  6 12  1  0
  6 13  1  0
  8 14  1  0
  8 15  1  0
  9 16  1  0
  9 17  1  0
M  END
