
     RDKit          3D

 15 15  0  0  0  0  0  0  0  0999 V2000
   -2.1769   -0.0044   -1.3506 O   0  0  0  0  0  0  0  0  0  0  0  0
   -1.4040   -0.5328   -0.5545 C   0  0  0  0  0  0  0  0  0  0  0  0
   -0.4720    0.2466    0.2709 C   0  0  0  0  0  0  0  0  0  0  0  0
   -1.2172    1.2360    1.0714 C   0  0  0  0  0  0  0  0  0  0  0  0
   -1.1396    1.2124    2.2745 O   0  0  0  0  0  0  0  0  0  0  0  0
    0.6242    0.8804   -0.5386 C   0  0  0  0  0  0  0  0  0  0  0  0
    1.6303    0.0151   -0.5900 C   0  0  0  0  0  0  0  0  0  0  0  0
    1.1921   -1.1774    0.1820 C   0  0  0  0  0  0  0  0  0  0  0  0
    0.2645   -0.6335    1.0652 O   0  0  0  0  0  0  0  0  0  0  0  0
   -1.4553   -1.6121   -0.5015 H   0  0  0  0  0  0  0  0  0  0  0  0
   -1.8215    1.9677    0.5741 H   0  0  0  0  0  0  0  0  0  0  0  0
    0.6498    1.8489   -1.0133 H   0  0  0  0  0  0  0  0  0  0  0  0
    2.5915    0.1373   -1.0922 H   0  0  0  0  0  0  0  0  0  0  0  0
    2.0362   -1.6653    0.7032 H   0  0  0  0  0  0  0  0  0  0  0  0
    0.6979   -1.9187   -0.5007 H   0  0  0  0  0  0  0  0  0  0  0  0
  1  2  2  0
  2  3  1  0
  3  4  1  0
  4  5  2  0
  3  6  1  0
  6  7  2  0
  7  8  1  0
  8  9  1  0
  9  3  1  0
  2 10  1  0
  4 11  1  0
  6 12  1  0
  7 13  1  0
  8 14  1  0
  8 15  1  0
M  END
