
     RDKit          3D

 19 19  0  0  0  0  0  0  0  0999 V2000
    2.3088    1.3061    0.1161 O   0  0  0  0  0  0  0  0  0  0  0  0
    2.3771    0.1110   -0.0821 C   0  0  0  0  0  0  0  0  0  0  0  0
    1.2642   -0.7545    0.3002 C   0  0  0  0  0  0  0  0  0  0  0  0
    0.3739   -0.4477    1.4451 C   0  0  0  0  0  0  0  0  0  0  0  0
   -0.1097   -0.1427    0.0824 C   0  0  0  0  0  0  0  0  0  0  0  0
   -0.2121    1.3250   -0.2564 C   0  0  0  0  0  0  0  0  0  0  0  0
   -1.5912    1.5946   -0.3973 O   0  0  0  0  0  0  0  0  0  0  0  0
   -1.0642   -1.0283   -0.6439 C   0  0  0  0  0  0  0  0  0  0  0  0
   -2.3106   -0.4654   -0.8381 O   0  0  0  0  0  0  0  0  0  0  0  0
    3.2567   -0.3076   -0.5386 H   0  0  0  0  0  0  0  0  0  0  0  0
    1.3916   -1.8318    0.0921 H   0  0  0  0  0  0  0  0  0  0  0  0
   -0.1256   -1.2637    1.9787 H   0  0  0  0  0  0  0  0  0  0  0  0
    0.6774    0.3892    2.1024 H   0  0  0  0  0  0  0  0  0  0  0  0
    0.1179    1.9625    0.5921 H   0  0  0  0  0  0  0  0  0  0  0  0
    0.2903    1.5729   -1.1958 H   0  0  0  0  0  0  0  0  0  0  0  0
   -1.8273    2.4783   -0.0275 H   0  0  0  0  0  0  0  0  0  0  0  0
   -1.2062   -2.0162   -0.1313 H   0  0  0  0  0  0  0  0  0  0  0  0
   -0.6537   -1.2751   -1.6432 H   0  0  0  0  0  0  0  0  0  0  0  0
   -2.9572   -1.2067   -0.9552 H   0  0  0  0  0  0  0  0  0  0  0  0
  1  2  2  0
  2  3  1  0
  3  4  1  0
  4  5  1  0
  5  6  1  0
  6  7  1  0
  5  8  1  0
  8  9  1  0
  5  3  1  0
  2 10  1  0
  3 11  1  0
  4 12  1  0
  4 13  1  0
  6 14  1  0
  6 15  1  0
  7 16  1  0
  8 17  1  0
  8 18  1  0
  9 19  1  0
M  END
