
     RDKit          3D

 14 15  0  0  0  0  0  0  0  0999 V2000
    2.5691    0.0138   -1.1550 O   0  0  0  0  0  0  0  0  0  0  0  0
    1.9219   -0.4384   -0.2360 C   0  0  0  0  0  0  0  0  0  0  0  0
    0.5668    0.0061    0.1333 C   0  0  0  0  0  0  0  0  0  0  0  0
   -0.0477   -0.6017    1.2054 O   0  0  0  0  0  0  0  0  0  0  0  0
   -1.0352   -1.0543    0.3313 C   0  0  0  0  0  0  0  0  0  0  0  0
   -0.5894   -0.1407   -0.7654 C   0  0  0  0  0  0  0  0  0  0  0  0
   -0.0530    1.2218   -0.4060 C   0  0  0  0  0  0  0  0  0  0  0  0
   -0.9567    1.9635    0.3769 O   0  0  0  0  0  0  0  0  0  0  0  0
    2.3837   -1.2263    0.3494 H   0  0  0  0  0  0  0  0  0  0  0  0
   -2.0359   -0.8240    0.7108 H   0  0  0  0  0  0  0  0  0  0  0  0
   -0.8408   -2.1144    0.0812 H   0  0  0  0  0  0  0  0  0  0  0  0
   -0.5176   -0.4791   -1.8018 H   0  0  0  0  0  0  0  0  0  0  0  0
    0.4757    1.7991   -1.1616 H   0  0  0  0  0  0  0  0  0  0  0  0
   -1.8410    1.8747   -0.0850 H   0  0  0  0  0  0  0  0  0  0  0  0
  1  2  2  0
  2  3  1  0
  3  4  1  0
  4  5  1  0
  5  6  1  0
  6  7  1  0
  7  8  1  0
  6  3  1  0
  7  3  1  0
  2  9  1  0
  5 10  1  0
  5 11  1  0
  6 12  1  0
  7 13  1  0
  8 14  1  0
M  END
