
     RDKit          3D

 15 15  0  0  0  0  0  0  0  0999 V2000
    2.3113    0.8177   -1.5974 O   0  0  0  0  0  0  0  0  0  0  0  0
    2.5460    0.0927   -0.6047 C   0  0  0  0  0  0  0  0  0  0  0  0
    1.4433   -0.6182    0.0321 C   0  0  0  0  0  0  0  0  0  0  0  0
    1.7202   -1.3353    1.0255 O   0  0  0  0  0  0  0  0  0  0  0  0
    0.0623   -0.5448   -0.4112 C   0  0  0  0  0  0  0  0  0  0  0  0
   -0.7868   -1.3200    0.3724 O   0  0  0  0  0  0  0  0  0  0  0  0
   -1.7992   -0.4041    0.0909 C   0  0  0  0  0  0  0  0  0  0  0  0
   -0.7324    0.6613    0.0092 C   0  0  0  0  0  0  0  0  0  0  0  0
   -0.9484    1.5985   -0.9994 O   0  0  0  0  0  0  0  0  0  0  0  0
    3.5628    0.0290   -0.2657 H   0  0  0  0  0  0  0  0  0  0  0  0
   -0.1416   -0.7574   -1.4818 H   0  0  0  0  0  0  0  0  0  0  0  0
   -2.2892   -0.6676   -0.8491 H   0  0  0  0  0  0  0  0  0  0  0  0
   -2.4917   -0.1999    0.9312 H   0  0  0  0  0  0  0  0  0  0  0  0
   -0.5166    1.0680    1.0086 H   0  0  0  0  0  0  0  0  0  0  0  0
   -1.9400    1.5800   -1.1783 H   0  0  0  0  0  0  0  0  0  0  0  0
  1  2  2  0
  2  3  1  0
  3  4  2  0
  3  5  1  0
  5  6  1  0
  6  7  1  0
  7  8  1  0
  8  9  1  0
  8  5  1  0
  2 10  1  0
  5 11  1  0
  7 12  1  0
  7 13  1  0
  8 14  1  0
  9 15  1  0
M  END
