
     RDKit          3D

 17 18  0  0  0  0  0  0  0  0999 V2000
    3.0008    1.1394   -0.5552 O   0  0  0  0  0  0  0  0  0  0  0  0
    2.2714    0.1852   -0.3564 C   0  0  0  0  0  0  0  0  0  0  0  0
    1.2746    0.1500    0.7636 C   0  0  0  0  0  0  0  0  0  0  0  0
   -0.0822    0.4429    0.1687 C   0  0  0  0  0  0  0  0  0  0  0  0
   -0.2644    1.6485   -0.4455 O   0  0  0  0  0  0  0  0  0  0  0  0
   -1.1864   -0.1859    0.9252 C   0  0  0  0  0  0  0  0  0  0  0  0
   -1.9305   -0.3340   -0.3627 C   0  0  0  0  0  0  0  0  0  0  0  0
   -0.5438   -0.7604   -0.6075 C   0  0  0  0  0  0  0  0  0  0  0  0
   -0.5985   -1.4021    0.6326 O   0  0  0  0  0  0  0  0  0  0  0  0
    2.3139   -0.6931   -0.9930 H   0  0  0  0  0  0  0  0  0  0  0  0
    1.2603   -0.8831    1.1445 H   0  0  0  0  0  0  0  0  0  0  0  0
    1.5837    0.8770    1.5487 H   0  0  0  0  0  0  0  0  0  0  0  0
   -0.4902    1.5527   -1.4020 H   0  0  0  0  0  0  0  0  0  0  0  0
   -1.5703    0.0821    1.8245 H   0  0  0  0  0  0  0  0  0  0  0  0
   -2.6075   -1.2311   -0.3125 H   0  0  0  0  0  0  0  0  0  0  0  0
   -2.3181    0.5433   -0.8622 H   0  0  0  0  0  0  0  0  0  0  0  0
   -0.1126   -1.1313   -1.4418 H   0  0  0  0  0  0  0  0  0  0  0  0
  1  2  2  0
  2  3  1  0
  3  4  1  0
  4  5  1  0
  4  6  1  0
  6  7  1  0
  7  8  1  0
  8  9  1  0
  8  4  1  0
  9  6  1  0
  2 10  1  0
  3 11  1  0
  3 12  1  0
  5 13  1  0
  6 14  1  0
  7 15  1  0
  7 16  1  0
  8 17  1  0
M  END
