
     RDKit          3D

 17 17  0  0  0  0  0  0  0  0999 V2000
    1.4621    0.4215   -1.8211 O   0  0  0  0  0  0  0  0  0  0  0  0
    2.0480   -0.4189   -1.1816 C   0  0  0  0  0  0  0  0  0  0  0  0
    1.5233   -0.8384    0.1181 C   0  0  0  0  0  0  0  0  0  0  0  0
    0.2688   -0.1941    0.5618 C   0  0  0  0  0  0  0  0  0  0  0  0
   -0.9136   -0.4123   -0.3557 C   0  0  0  0  0  0  0  0  0  0  0  0
   -1.9136    0.5713    0.2717 C   0  0  0  0  0  0  0  0  0  0  0  0
   -0.9967    1.6352    0.7058 C   0  0  0  0  0  0  0  0  0  0  0  0
   -1.3629    2.7737    1.0798 O   0  0  0  0  0  0  0  0  0  0  0  0
    0.3214    1.2066    0.6441 O   0  0  0  0  0  0  0  0  0  0  0  0
    2.9542   -0.8477   -1.5841 H   0  0  0  0  0  0  0  0  0  0  0  0
    1.3923   -1.9519    0.1622 H   0  0  0  0  0  0  0  0  0  0  0  0
    2.2954   -0.6216    0.9123 H   0  0  0  0  0  0  0  0  0  0  0  0
    0.0006   -0.6278    1.5568 H   0  0  0  0  0  0  0  0  0  0  0  0
   -0.7389   -0.1783   -1.4003 H   0  0  0  0  0  0  0  0  0  0  0  0
   -1.3147   -1.4397   -0.2855 H   0  0  0  0  0  0  0  0  0  0  0  0
   -2.3913    0.0282    1.1069 H   0  0  0  0  0  0  0  0  0  0  0  0
   -2.6342    0.8942   -0.5039 H   0  0  0  0  0  0  0  0  0  0  0  0
  1  2  2  0
  2  3  1  0
  3  4  1  0
  4  5  1  0
  5  6  1  0
  6  7  1  0
  7  8  2  0
  7  9  1  0
  9  4  1  0
  2 10  1  0
  3 11  1  0
  3 12  1  0
  4 13  1  0
  5 14  1  0
  5 15  1  0
  6 16  1  0
  6 17  1  0
M  END
