
     RDKit          3D

 17 18  0  0  0  0  0  0  0  0999 V2000
   -1.9490   -1.7604   -1.1023 O   0  0  0  0  0  0  0  0  0  0  0  0
   -2.0602   -0.5537   -0.9024 C   0  0  0  0  0  0  0  0  0  0  0  0
   -0.9929    0.2997   -0.3842 C   0  0  0  0  0  0  0  0  0  0  0  0
   -0.7181    0.1892    1.1024 C   0  0  0  0  0  0  0  0  0  0  0  0
    0.7640    0.2441    0.7385 C   0  0  0  0  0  0  0  0  0  0  0  0
    1.4705    1.3970    0.9422 O   0  0  0  0  0  0  0  0  0  0  0  0
    1.2742   -0.9236    0.0146 C   0  0  0  0  0  0  0  0  0  0  0  0
    2.6196   -0.9456   -0.2985 O   0  0  0  0  0  0  0  0  0  0  0  0
    0.4072   -0.0232   -0.7527 C   0  0  0  0  0  0  0  0  0  0  0  0
   -3.0506   -0.1444   -1.1479 H   0  0  0  0  0  0  0  0  0  0  0  0
   -1.2163    1.3834   -0.6048 H   0  0  0  0  0  0  0  0  0  0  0  0
   -0.9599   -0.8092    1.5448 H   0  0  0  0  0  0  0  0  0  0  0  0
   -1.0797    1.0031    1.7264 H   0  0  0  0  0  0  0  0  0  0  0  0
    0.8161    2.1371    1.1562 H   0  0  0  0  0  0  0  0  0  0  0  0
    0.9052   -1.9214    0.3935 H   0  0  0  0  0  0  0  0  0  0  0  0
    2.8748   -0.1966   -0.9252 H   0  0  0  0  0  0  0  0  0  0  0  0
    0.8951    0.6244   -1.5007 H   0  0  0  0  0  0  0  0  0  0  0  0
  1  2  2  0
  2  3  1  0
  3  4  1  0
  4  5  1  0
  5  6  1  0
  5  7  1  0
  7  8  1  0
  7  9  1  0
  9  3  1  0
  9  5  1  0
  2 10  1  0
  3 11  1  0
  4 12  1  0
  4 13  1  0
  6 14  1  0
  7 15  1  0
  8 16  1  0
  9 17  1  0
M  END
