
     RDKit          3D

 14 14  0  0  0  0  0  0  0  0999 V2000
    2.6363    2.6252   -2.2318 O   0  0  0  0  0  0  0  0  0  0  0  0
    1.9877    2.7763   -1.1405 C   0  0  0  0  0  0  0  0  0  0  0  0
    1.3891    1.6275   -0.5380 C   0  0  0  0  0  0  0  0  0  0  0  0
    0.8664    0.6119    0.0147 C   0  0  0  0  0  0  0  0  0  0  0  0
    0.2638   -0.5142    0.6170 C   0  0  0  0  0  0  0  0  0  0  0  0
   -1.1183   -0.7318    0.0429 C   0  0  0  0  0  0  0  0  0  0  0  0
   -1.8220   -1.9276    0.6463 C   0  0  0  0  0  0  0  0  0  0  0  0
   -1.3140   -1.9119   -0.6704 O   0  0  0  0  0  0  0  0  0  0  0  0
    1.9207    3.7700   -0.7212 H   0  0  0  0  0  0  0  0  0  0  0  0
    0.8721   -1.4616    0.3898 H   0  0  0  0  0  0  0  0  0  0  0  0
    0.2212   -0.4616    1.7304 H   0  0  0  0  0  0  0  0  0  0  0  0
   -1.7147    0.1490   -0.1661 H   0  0  0  0  0  0  0  0  0  0  0  0
   -2.9228   -1.9715    0.6963 H   0  0  0  0  0  0  0  0  0  0  0  0
   -1.2655   -2.5795    1.3395 H   0  0  0  0  0  0  0  0  0  0  0  0
  1  2  2  0
  2  3  1  0
  3  4  3  0
  4  5  1  0
  5  6  1  0
  6  7  1  0
  7  8  1  0
  8  6  1  0
  2  9  1  0
  5 10  1  0
  5 11  1  0
  6 12  1  0
  7 13  1  0
  7 14  1  0
M  END
