
     RDKit          3D

 17 18  0  0  0  0  0  0  0  0999 V2000
   -2.3513   -1.3607    1.0800 O   0  0  0  0  0  0  0  0  0  0  0  0
   -2.0583   -0.2216    0.7933 C   0  0  0  0  0  0  0  0  0  0  0  0
   -1.0786    0.0506   -0.2482 C   0  0  0  0  0  0  0  0  0  0  0  0
   -0.9347    1.4592   -0.7155 C   0  0  0  0  0  0  0  0  0  0  0  0
    0.4625    1.2742   -0.6863 O   0  0  0  0  0  0  0  0  0  0  0  0
    0.2754    0.4022    0.3582 C   0  0  0  0  0  0  0  0  0  0  0  0
    1.2041   -0.7591    0.4503 C   0  0  0  0  0  0  0  0  0  0  0  0
    2.3599   -0.9342   -0.3647 C   0  0  0  0  0  0  0  0  0  0  0  0
    1.1238   -1.5925   -0.7338 O   0  0  0  0  0  0  0  0  0  0  0  0
   -2.5358    0.5832    1.3228 H   0  0  0  0  0  0  0  0  0  0  0  0
   -1.0245   -0.6560   -1.0944 H   0  0  0  0  0  0  0  0  0  0  0  0
   -1.2612    1.6839   -1.7503 H   0  0  0  0  0  0  0  0  0  0  0  0
   -1.2253    2.2519   -0.0035 H   0  0  0  0  0  0  0  0  0  0  0  0
    0.1042    0.9512    1.3026 H   0  0  0  0  0  0  0  0  0  0  0  0
    1.1318   -1.3227    1.4132 H   0  0  0  0  0  0  0  0  0  0  0  0
    2.6858   -0.1249   -1.0401 H   0  0  0  0  0  0  0  0  0  0  0  0
    3.1221   -1.6847   -0.0836 H   0  0  0  0  0  0  0  0  0  0  0  0
  1  2  2  0
  2  3  1  0
  3  4  1  0
  4  5  1  0
  5  6  1  0
  6  7  1  0
  7  8  1  0
  8  9  1  0
  6  3  1  0
  9  7  1  0
  2 10  1  0
  3 11  1  0
  4 12  1  0
  4 13  1  0
  6 14  1  0
  7 15  1  0
  8 16  1  0
  8 17  1  0
M  END
