
     RDKit          3D

 17 18  0  0  0  0  0  0  0  0999 V2000
    4.0877    0.7870    1.4585 O   0  0  0  0  0  0  0  0  0  0  0  0
    3.6402    0.1034    0.5029 C   0  0  0  0  0  0  0  0  0  0  0  0
    2.2746    0.2769    0.1395 C   0  0  0  0  0  0  0  0  0  0  0  0
    1.1162    0.4211   -0.1473 C   0  0  0  0  0  0  0  0  0  0  0  0
   -0.3064    0.6022   -0.4939 C   0  0  0  0  0  0  0  0  0  0  0  0
   -1.0738   -0.6859   -0.5927 C   0  0  0  0  0  0  0  0  0  0  0  0
   -2.2789    0.1144   -0.1815 C   0  0  0  0  0  0  0  0  0  0  0  0
   -1.1833    0.6146    0.7180 C   0  0  0  0  0  0  0  0  0  0  0  0
   -0.8110   -0.8376    0.8784 C   0  0  0  0  0  0  0  0  0  0  0  0
    4.3256   -0.5752    0.0174 H   0  0  0  0  0  0  0  0  0  0  0  0
   -0.5162    1.3145   -1.2864 H   0  0  0  0  0  0  0  0  0  0  0  0
   -1.0154   -1.3829   -1.3029 H   0  0  0  0  0  0  0  0  0  0  0  0
   -3.0459   -0.5019    0.3546 H   0  0  0  0  0  0  0  0  0  0  0  0
   -2.6569    0.8498   -0.8911 H   0  0  0  0  0  0  0  0  0  0  0  0
   -1.2475    1.3053    1.4354 H   0  0  0  0  0  0  0  0  0  0  0  0
   -1.5518   -1.4507    1.3953 H   0  0  0  0  0  0  0  0  0  0  0  0
    0.2427   -0.9550    1.1539 H   0  0  0  0  0  0  0  0  0  0  0  0
  1  2  2  0
  2  3  1  0
  3  4  3  0
  4  5  1  0
  5  6  1  0
  6  7  1  0
  7  8  1  0
  8  9  1  0
  8  5  1  0
  9  6  1  0
  2 10  1  0
  5 11  1  0
  6 12  1  0
  7 13  1  0
  7 14  1  0
  8 15  1  0
  9 16  1  0
  9 17  1  0
M  END
