
     RDKit          3D

 19 20  0  0  0  0  0  0  0  0999 V2000
    2.4727    1.3771    0.0670 O   0  0  0  0  0  0  0  0  0  0  0  0
    2.1722    0.2484    0.4140 C   0  0  0  0  0  0  0  0  0  0  0  0
    1.1074   -0.5648   -0.1593 C   0  0  0  0  0  0  0  0  0  0  0  0
    0.0916    0.1224   -1.0246 C   0  0  0  0  0  0  0  0  0  0  0  0
   -0.4610    1.2649   -0.2178 C   0  0  0  0  0  0  0  0  0  0  0  0
   -0.5978    0.5499    1.1406 C   0  0  0  0  0  0  0  0  0  0  0  0
   -0.0995   -0.7994    0.7590 C   0  0  0  0  0  0  0  0  0  0  0  0
   -0.8328   -1.0222   -0.5718 C   0  0  0  0  0  0  0  0  0  0  0  0
   -2.1583   -0.6822   -0.4746 O   0  0  0  0  0  0  0  0  0  0  0  0
    2.7559   -0.1806    1.2231 H   0  0  0  0  0  0  0  0  0  0  0  0
    1.4070   -1.5355   -0.6134 H   0  0  0  0  0  0  0  0  0  0  0  0
    0.2553    0.2301   -2.0668 H   0  0  0  0  0  0  0  0  0  0  0  0
    0.2060    2.1233   -0.1479 H   0  0  0  0  0  0  0  0  0  0  0  0
   -1.4475    1.5262   -0.6322 H   0  0  0  0  0  0  0  0  0  0  0  0
   -0.0228    1.0625    1.9171 H   0  0  0  0  0  0  0  0  0  0  0  0
   -1.6641    0.5537    1.3981 H   0  0  0  0  0  0  0  0  0  0  0  0
   -0.0577   -1.6018    1.4425 H   0  0  0  0  0  0  0  0  0  0  0  0
   -0.5789   -1.9570   -1.0714 H   0  0  0  0  0  0  0  0  0  0  0  0
   -2.5477   -0.7151   -1.3815 H   0  0  0  0  0  0  0  0  0  0  0  0
  1  2  2  0
  2  3  1  0
  3  4  1  0
  4  5  1  0
  5  6  1  0
  6  7  1  0
  7  8  1  0
  8  9  1  0
  7  3  1  0
  8  4  1  0
  2 10  1  0
  3 11  1  0
  4 12  1  0
  5 13  1  0
  5 14  1  0
  6 15  1  0
  6 16  1  0
  7 17  1  0
  8 18  1  0
  9 19  1  0
M  END
