
     RDKit          3D

 15 15  0  0  0  0  0  0  0  0999 V2000
    3.9883   -1.0991    1.1027 O   0  0  0  0  0  0  0  0  0  0  0  0
    3.5638   -0.2412    0.2897 C   0  0  0  0  0  0  0  0  0  0  0  0
    2.1492   -0.2302    0.0391 C   0  0  0  0  0  0  0  0  0  0  0  0
    0.9500   -0.2011   -0.1658 C   0  0  0  0  0  0  0  0  0  0  0  0
   -0.4638   -0.1771   -0.4304 C   0  0  0  0  0  0  0  0  0  0  0  0
   -1.2509   -0.6332    0.8002 C   0  0  0  0  0  0  0  0  0  0  0  0
   -2.2715    0.4156    0.3491 C   0  0  0  0  0  0  0  0  0  0  0  0
   -1.1224    1.1560   -0.2578 C   0  0  0  0  0  0  0  0  0  0  0  0
   -0.8897    2.3310   -0.4830 O   0  0  0  0  0  0  0  0  0  0  0  0
    4.2366    0.4357   -0.1800 H   0  0  0  0  0  0  0  0  0  0  0  0
   -0.8076   -0.6869   -1.3476 H   0  0  0  0  0  0  0  0  0  0  0  0
   -1.6129   -1.6582    0.7712 H   0  0  0  0  0  0  0  0  0  0  0  0
   -0.7527   -0.2845    1.7171 H   0  0  0  0  0  0  0  0  0  0  0  0
   -2.7777    0.9401    1.1554 H   0  0  0  0  0  0  0  0  0  0  0  0
   -2.9388   -0.0668   -0.4219 H   0  0  0  0  0  0  0  0  0  0  0  0
  1  2  2  0
  2  3  1  0
  3  4  3  0
  4  5  1  0
  5  6  1  0
  6  7  1  0
  7  8  1  0
  8  9  2  0
  8  5  1  0
  2 10  1  0
  5 11  1  0
  6 12  1  0
  6 13  1  0
  7 14  1  0
  7 15  1  0
M  END
