
     RDKit          3D

 15 14  0  0  0  0  0  0  0  0999 V2000
   -1.5112    0.9214    2.5329 O   0  0  0  0  0  0  0  0  0  0  0  0
   -1.4117    1.3493    1.4404 C   0  0  0  0  0  0  0  0  0  0  0  0
   -0.1440    1.2984    0.6523 C   0  0  0  0  0  0  0  0  0  0  0  0
   -0.0867    0.2647   -0.3376 C   0  0  0  0  0  0  0  0  0  0  0  0
   -0.0436   -0.6633   -1.2095 C   0  0  0  0  0  0  0  0  0  0  0  0
    0.0282   -1.6941   -2.1849 C   0  0  0  0  0  0  0  0  0  0  0  0
    1.3157   -2.2473   -2.2138 O   0  0  0  0  0  0  0  0  0  0  0  0
    0.9747    1.1275    1.6119 C   0  0  0  0  0  0  0  0  0  0  0  0
    1.8074    0.2985    1.4764 O   0  0  0  0  0  0  0  0  0  0  0  0
   -2.2719    1.8360    0.8958 H   0  0  0  0  0  0  0  0  0  0  0  0
   -0.0838    2.2825    0.1211 H   0  0  0  0  0  0  0  0  0  0  0  0
   -0.2828   -1.3630   -3.2014 H   0  0  0  0  0  0  0  0  0  0  0  0
   -0.6500   -2.5730   -1.9387 H   0  0  0  0  0  0  0  0  0  0  0  0
    1.3603   -2.6461   -3.1688 H   0  0  0  0  0  0  0  0  0  0  0  0
    0.9994    1.8085    2.4539 H   0  0  0  0  0  0  0  0  0  0  0  0
  1  2  2  0
  2  3  1  0
  3  4  1  0
  4  5  3  0
  5  6  1  0
  6  7  1  0
  3  8  1  0
  8  9  2  0
  2 10  1  0
  3 11  1  0
  6 12  1  0
  6 13  1  0
  7 14  1  0
  8 15  1  0
M  END
