
     RDKit          3D

 17 18  0  0  0  0  0  0  0  0999 V2000
   -2.3381   -1.0889    1.0948 O   0  0  0  0  0  0  0  0  0  0  0  0
   -1.7544   -0.0681    0.7311 C   0  0  0  0  0  0  0  0  0  0  0  0
   -1.1644    0.0612   -0.6487 C   0  0  0  0  0  0  0  0  0  0  0  0
   -0.4291    1.3129   -0.8272 C   0  0  0  0  0  0  0  0  0  0  0  0
    0.7558    1.3238   -0.1708 C   0  0  0  0  0  0  0  0  0  0  0  0
    1.2429    0.1765    0.6410 C   0  0  0  0  0  0  0  0  0  0  0  0
    0.6216   -1.1506    0.2531 C   0  0  0  0  0  0  0  0  0  0  0  0
   -0.0679   -0.9719   -1.0251 C   0  0  0  0  0  0  0  0  0  0  0  0
   -1.3223   -0.9898   -1.4124 O   0  0  0  0  0  0  0  0  0  0  0  0
   -1.7036    0.7154    1.4788 H   0  0  0  0  0  0  0  0  0  0  0  0
   -0.7679    2.1472   -1.4088 H   0  0  0  0  0  0  0  0  0  0  0  0
    1.4030    2.2003   -0.2215 H   0  0  0  0  0  0  0  0  0  0  0  0
    2.3421    0.0935    0.4228 H   0  0  0  0  0  0  0  0  0  0  0  0
    1.1585    0.3705    1.7299 H   0  0  0  0  0  0  0  0  0  0  0  0
    1.4220   -1.9392    0.1289 H   0  0  0  0  0  0  0  0  0  0  0  0
   -0.0416   -1.5089    1.0883 H   0  0  0  0  0  0  0  0  0  0  0  0
    0.6432   -0.6840   -1.8541 H   0  0  0  0  0  0  0  0  0  0  0  0
  1  2  2  0
  2  3  1  0
  3  4  1  0
  4  5  2  0
  5  6  1  0
  6  7  1  0
  7  8  1  0
  8  9  1  0
  8  3  1  0
  9  3  1  0
  2 10  1  0
  4 11  1  0
  5 12  1  0
  6 13  1  0
  6 14  1  0
  7 15  1  0
  7 16  1  0
  8 17  1  0
M  END
