
     RDKit          3D

 17 16  0  0  0  0  0  0  0  0999 V2000
    3.7929    0.2242   -0.2487 O   0  0  0  0  0  0  0  0  0  0  0  0
    3.1763   -0.3335    0.6997 C   0  0  0  0  0  0  0  0  0  0  0  0
    1.7295   -0.1157    0.9037 C   0  0  0  0  0  0  0  0  0  0  0  0
    1.2025   -0.7127    1.8733 O   0  0  0  0  0  0  0  0  0  0  0  0
    0.9663    0.7633   -0.0002 C   0  0  0  0  0  0  0  0  0  0  0  0
   -0.3832    0.8328    0.2428 O   0  0  0  0  0  0  0  0  0  0  0  0
   -0.9887   -0.3715    0.0525 C   0  0  0  0  0  0  0  0  0  0  0  0
   -2.4962   -0.3094    0.3231 C   0  0  0  0  0  0  0  0  0  0  0  0
   -3.0893    0.6001   -0.5246 O   0  0  0  0  0  0  0  0  0  0  0  0
    3.7267   -0.9691    1.3538 H   0  0  0  0  0  0  0  0  0  0  0  0
    1.1914    0.4017   -1.0400 H   0  0  0  0  0  0  0  0  0  0  0  0
    1.4183    1.7814    0.0452 H   0  0  0  0  0  0  0  0  0  0  0  0
   -0.5417   -1.2318    0.5659 H   0  0  0  0  0  0  0  0  0  0  0  0
   -0.9281   -0.6211   -1.0516 H   0  0  0  0  0  0  0  0  0  0  0  0
   -2.6807   -0.1159    1.3881 H   0  0  0  0  0  0  0  0  0  0  0  0
   -2.8923   -1.3150    0.0700 H   0  0  0  0  0  0  0  0  0  0  0  0
   -3.2037    1.4923   -0.1541 H   0  0  0  0  0  0  0  0  0  0  0  0
  1  2  2  0
  2  3  1  0
  3  4  2  0
  3  5  1  0
  5  6  1  0
  6  7  1  0
  7  8  1  0
  8  9  1  0
  2 10  1  0
  5 11  1  0
  5 12  1  0
  7 13  1  0
  7 14  1  0
  8 15  1  0
  8 16  1  0
  9 17  1  0
M  END
