
     RDKit          3D

 15 16  0  0  0  0  0  0  0  0999 V2000
   -2.6209   -0.6853    0.0203 O   0  0  0  0  0  0  0  0  0  0  0  0
   -1.5467   -1.0958    0.4322 C   0  0  0  0  0  0  0  0  0  0  0  0
   -0.4549   -0.1170    0.5649 C   0  0  0  0  0  0  0  0  0  0  0  0
   -0.7304    1.3397    0.5526 C   0  0  0  0  0  0  0  0  0  0  0  0
   -0.1302    0.7692   -0.6513 C   0  0  0  0  0  0  0  0  0  0  0  0
    1.3307    0.5349   -0.7752 C   0  0  0  0  0  0  0  0  0  0  0  0
    2.1911    1.2075   -1.2988 O   0  0  0  0  0  0  0  0  0  0  0  0
    1.5295   -0.7804   -0.0785 C   0  0  0  0  0  0  0  0  0  0  0  0
    0.7359   -0.6037    1.0281 O   0  0  0  0  0  0  0  0  0  0  0  0
   -1.4080   -2.1232    0.6850 H   0  0  0  0  0  0  0  0  0  0  0  0
   -0.0530    1.9647    1.1880 H   0  0  0  0  0  0  0  0  0  0  0  0
   -1.7732    1.6515    0.5027 H   0  0  0  0  0  0  0  0  0  0  0  0
   -0.6998    0.4899   -1.5553 H   0  0  0  0  0  0  0  0  0  0  0  0
    1.0541   -1.5516   -0.7425 H   0  0  0  0  0  0  0  0  0  0  0  0
    2.5759   -1.0002    0.1278 H   0  0  0  0  0  0  0  0  0  0  0  0
  1  2  2  0
  2  3  1  0
  3  4  1  0
  4  5  1  0
  5  6  1  0
  6  7  2  0
  6  8  1  0
  8  9  1  0
  5  3  1  0
  9  3  1  0
  2 10  1  0
  4 11  1  0
  4 12  1  0
  5 13  1  0
  8 14  1  0
  8 15  1  0
M  END
