
     RDKit          3D

 21 22  0  0  0  0  0  0  0  0999 V2000
   -0.4435    2.5311    0.6684 O   0  0  0  0  0  0  0  0  0  0  0  0
   -0.6533    1.3932    0.9866 C   0  0  0  0  0  0  0  0  0  0  0  0
   -0.3486    0.3057    0.0090 C   0  0  0  0  0  0  0  0  0  0  0  0
    0.9364    0.4976   -0.7220 C   0  0  0  0  0  0  0  0  0  0  0  0
    2.1512    0.5564    0.2069 C   0  0  0  0  0  0  0  0  0  0  0  0
    1.9886   -0.5272   -0.7843 C   0  0  0  0  0  0  0  0  0  0  0  0
   -1.5623   -0.0032   -0.8321 C   0  0  0  0  0  0  0  0  0  0  0  0
   -2.0048   -0.8859    0.3481 C   0  0  0  0  0  0  0  0  0  0  0  0
   -0.5017   -1.0947    0.5723 C   0  0  0  0  0  0  0  0  0  0  0  0
   -1.0533    1.0909    1.9444 H   0  0  0  0  0  0  0  0  0  0  0  0
    0.9374    1.2793   -1.5314 H   0  0  0  0  0  0  0  0  0  0  0  0
    2.0318    0.2907    1.2603 H   0  0  0  0  0  0  0  0  0  0  0  0
    2.8612    1.3961    0.0424 H   0  0  0  0  0  0  0  0  0  0  0  0
    2.6968   -0.4744   -1.6594 H   0  0  0  0  0  0  0  0  0  0  0  0
    1.8546   -1.5553   -0.4294 H   0  0  0  0  0  0  0  0  0  0  0  0
   -2.2049    0.8642   -1.0031 H   0  0  0  0  0  0  0  0  0  0  0  0
   -1.3488   -0.5897   -1.7308 H   0  0  0  0  0  0  0  0  0  0  0  0
   -2.4197   -0.2332    1.1305 H   0  0  0  0  0  0  0  0  0  0  0  0
   -2.5602   -1.7754    0.0717 H   0  0  0  0  0  0  0  0  0  0  0  0
   -0.2094   -1.2314    1.6120 H   0  0  0  0  0  0  0  0  0  0  0  0
   -0.1478   -1.8348   -0.1603 H   0  0  0  0  0  0  0  0  0  0  0  0
  1  2  2  0
  2  3  1  0
  3  4  1  0
  4  5  1  0
  5  6  1  0
  3  7  1  0
  7  8  1  0
  8  9  1  0
  9  3  1  0
  6  4  1  0
  2 10  1  0
  4 11  1  0
  5 12  1  0
  5 13  1  0
  6 14  1  0
  6 15  1  0
  7 16  1  0
  7 17  1  0
  8 18  1  0
  8 19  1  0
  9 20  1  0
  9 21  1  0
M  END
