
     RDKit          3D

 15 15  0  0  0  0  0  0  0  0999 V2000
   -2.8869    0.6150    0.0598 O   0  0  0  0  0  0  0  0  0  0  0  0
   -1.6986    0.7954   -0.1365 C   0  0  0  0  0  0  0  0  0  0  0  0
   -0.8310   -0.3714   -0.3251 C   0  0  0  0  0  0  0  0  0  0  0  0
    0.3815   -0.0917   -1.1637 C   0  0  0  0  0  0  0  0  0  0  0  0
    1.3519    0.6415   -0.5586 O   0  0  0  0  0  0  0  0  0  0  0  0
    1.7196    0.2974    0.6990 C   0  0  0  0  0  0  0  0  0  0  0  0
    0.9559   -0.7179    1.3008 O   0  0  0  0  0  0  0  0  0  0  0  0
   -0.3781   -0.8994    0.9791 C   0  0  0  0  0  0  0  0  0  0  0  0
   -1.1993   -1.4797    1.7309 O   0  0  0  0  0  0  0  0  0  0  0  0
   -1.3507    1.8203   -0.1602 H   0  0  0  0  0  0  0  0  0  0  0  0
   -1.4347   -1.1415   -0.8897 H   0  0  0  0  0  0  0  0  0  0  0  0
    0.8053   -1.0690   -1.4958 H   0  0  0  0  0  0  0  0  0  0  0  0
    0.0491    0.4298   -2.0829 H   0  0  0  0  0  0  0  0  0  0  0  0
    1.7383    1.2399    1.3228 H   0  0  0  0  0  0  0  0  0  0  0  0
    2.7780   -0.0688    0.7201 H   0  0  0  0  0  0  0  0  0  0  0  0
  1  2  2  0
  2  3  1  0
  3  4  1  0
  4  5  1  0
  5  6  1  0
  6  7  1  0
  7  8  1  0
  8  9  2  0
  8  3  1  0
  2 10  1  0
  3 11  1  0
  4 12  1  0
  4 13  1  0
  6 14  1  0
  6 15  1  0
M  END
