
     RDKit          3D

 19 20  0  0  0  0  0  0  0  0999 V2000
    2.6525   -0.7731    0.8550 O   0  0  0  0  0  0  0  0  0  0  0  0
    2.6109   -0.3792   -0.2975 C   0  0  0  0  0  0  0  0  0  0  0  0
    1.3979    0.2816   -0.8816 C   0  0  0  0  0  0  0  0  0  0  0  0
    0.3654    0.3359    0.1723 C   0  0  0  0  0  0  0  0  0  0  0  0
   -0.9632    0.9588   -0.1587 C   0  0  0  0  0  0  0  0  0  0  0  0
   -1.6786    0.7681    1.1237 C   0  0  0  0  0  0  0  0  0  0  0  0
   -1.3710   -0.4876    1.4617 C   0  0  0  0  0  0  0  0  0  0  0  0
   -0.5034   -0.9194    0.3260 C   0  0  0  0  0  0  0  0  0  0  0  0
   -1.2866   -0.3783   -0.8427 C   0  0  0  0  0  0  0  0  0  0  0  0
    3.4834   -0.5145   -0.9146 H   0  0  0  0  0  0  0  0  0  0  0  0
    1.1188   -0.1663   -1.8311 H   0  0  0  0  0  0  0  0  0  0  0  0
    1.7176    1.3309   -1.1046 H   0  0  0  0  0  0  0  0  0  0  0  0
    0.7705    0.6321    1.1437 H   0  0  0  0  0  0  0  0  0  0  0  0
   -1.0374    1.8417   -0.7106 H   0  0  0  0  0  0  0  0  0  0  0  0
   -2.2838    1.5167    1.6036 H   0  0  0  0  0  0  0  0  0  0  0  0
   -1.6840   -1.0339    2.3430 H   0  0  0  0  0  0  0  0  0  0  0  0
   -0.0568   -1.8614    0.3069 H   0  0  0  0  0  0  0  0  0  0  0  0
   -2.3676   -0.6411   -0.7563 H   0  0  0  0  0  0  0  0  0  0  0  0
   -0.8849   -0.5109   -1.8386 H   0  0  0  0  0  0  0  0  0  0  0  0
  1  2  2  0
  2  3  1  0
  3  4  1  0
  4  5  1  0
  5  6  1  0
  6  7  2  0
  7  8  1  0
  8  9  1  0
  8  4  1  0
  9  5  1  0
  2 10  1  0
  3 11  1  0
  3 12  1  0
  4 13  1  0
  5 14  1  0
  6 15  1  0
  7 16  1  0
  8 17  1  0
  9 18  1  0
  9 19  1  0
M  END
