
     RDKit          3D

 13 14  0  0  0  0  0  0  0  0999 V2000
    2.1993    0.5856    1.2131 O   0  0  0  0  0  0  0  0  0  0  0  0
    1.4882    0.3777    0.2176 C   0  0  0  0  0  0  0  0  0  0  0  0
    0.1601    0.0240    0.2931 C   0  0  0  0  0  0  0  0  0  0  0  0
   -0.7933    1.1351    0.0181 C   0  0  0  0  0  0  0  0  0  0  0  0
   -1.5595    0.3621   -0.8042 O   0  0  0  0  0  0  0  0  0  0  0  0
   -1.0176   -0.6421    0.0395 C   0  0  0  0  0  0  0  0  0  0  0  0
    0.0553   -1.3689   -0.4241 C   0  0  0  0  0  0  0  0  0  0  0  0
    2.0395    0.5080   -0.7326 H   0  0  0  0  0  0  0  0  0  0  0  0
   -0.3926    2.0782   -0.3741 H   0  0  0  0  0  0  0  0  0  0  0  0
   -1.3715    1.3719    0.9605 H   0  0  0  0  0  0  0  0  0  0  0  0
   -1.7427   -0.8802    0.8630 H   0  0  0  0  0  0  0  0  0  0  0  0
    0.5635   -2.1490    0.2009 H   0  0  0  0  0  0  0  0  0  0  0  0
    0.3711   -1.4023   -1.4707 H   0  0  0  0  0  0  0  0  0  0  0  0
  1  2  2  0
  2  3  1  0
  3  4  1  0
  4  5  1  0
  5  6  1  0
  6  7  1  0
  6  3  1  0
  7  3  1  0
  2  8  1  0
  4  9  1  0
  4 10  1  0
  6 11  1  0
  7 12  1  0
  7 13  1  0
M  END
