
     RDKit          3D

 15 16  0  0  0  0  0  0  0  0999 V2000
    3.1826   -0.1529   -0.5708 O   0  0  0  0  0  0  0  0  0  0  0  0
    2.3933   -0.2272    0.3444 C   0  0  0  0  0  0  0  0  0  0  0  0
    0.9897   -0.5183    0.0861 C   0  0  0  0  0  0  0  0  0  0  0  0
    0.1598   -0.5829    1.2110 O   0  0  0  0  0  0  0  0  0  0  0  0
   -0.8407   -0.0558    0.3843 C   0  0  0  0  0  0  0  0  0  0  0  0
   -1.9387   -0.8943   -0.0634 C   0  0  0  0  0  0  0  0  0  0  0  0
   -2.8074   -0.4459   -0.7782 O   0  0  0  0  0  0  0  0  0  0  0  0
   -0.7923    1.4003    0.1999 C   0  0  0  0  0  0  0  0  0  0  0  0
    0.1527    0.5597   -0.5188 C   0  0  0  0  0  0  0  0  0  0  0  0
    2.7617   -0.0722    1.3427 H   0  0  0  0  0  0  0  0  0  0  0  0
    0.8190   -1.4719   -0.4999 H   0  0  0  0  0  0  0  0  0  0  0  0
   -1.9901   -1.9259    0.2374 H   0  0  0  0  0  0  0  0  0  0  0  0
   -0.5131    2.0159    1.0896 H   0  0  0  0  0  0  0  0  0  0  0  0
   -1.6508    1.8347   -0.3496 H   0  0  0  0  0  0  0  0  0  0  0  0
    0.0741    0.5367   -1.6138 H   0  0  0  0  0  0  0  0  0  0  0  0
  1  2  2  0
  2  3  1  0
  3  4  1  0
  4  5  1  0
  5  6  1  0
  6  7  2  0
  5  8  1  0
  8  9  1  0
  9  3  1  0
  9  5  1  0
  2 10  1  0
  3 11  1  0
  6 12  1  0
  8 13  1  0
  8 14  1  0
  9 15  1  0
M  END
