
     RDKit          3D

 19 20  0  0  0  0  0  0  0  0999 V2000
   -2.1204    2.3477   -0.6206 O   0  0  0  0  0  0  0  0  0  0  0  0
   -1.5520    1.5588    0.0929 C   0  0  0  0  0  0  0  0  0  0  0  0
   -0.6169    0.5547   -0.5398 C   0  0  0  0  0  0  0  0  0  0  0  0
   -1.2517   -0.8069   -0.2686 C   0  0  0  0  0  0  0  0  0  0  0  0
   -0.0858   -1.7113   -0.0276 C   0  0  0  0  0  0  0  0  0  0  0  0
    0.9121   -0.8052    0.6450 C   0  0  0  0  0  0  0  0  0  0  0  0
    1.8778   -0.1389   -0.2732 C   0  0  0  0  0  0  0  0  0  0  0  0
    0.6881    0.5787    0.1828 C   0  0  0  0  0  0  0  0  0  0  0  0
    0.8850    1.6642    1.0689 O   0  0  0  0  0  0  0  0  0  0  0  0
   -1.6438    1.4938    1.1607 H   0  0  0  0  0  0  0  0  0  0  0  0
   -0.4789    0.7473   -1.6061 H   0  0  0  0  0  0  0  0  0  0  0  0
   -1.8454   -0.7704    0.6759 H   0  0  0  0  0  0  0  0  0  0  0  0
   -1.8552   -1.1343   -1.1279 H   0  0  0  0  0  0  0  0  0  0  0  0
   -0.3501   -2.5995    0.5710 H   0  0  0  0  0  0  0  0  0  0  0  0
    0.2755   -2.0519   -1.0426 H   0  0  0  0  0  0  0  0  0  0  0  0
    1.1239   -0.9194    1.7266 H   0  0  0  0  0  0  0  0  0  0  0  0
    1.9956   -0.5629   -1.2878 H   0  0  0  0  0  0  0  0  0  0  0  0
    2.8412    0.1486    0.1857 H   0  0  0  0  0  0  0  0  0  0  0  0
    1.2010    2.4068    0.4848 H   0  0  0  0  0  0  0  0  0  0  0  0
  1  2  2  0
  2  3  1  0
  3  4  1  0
  4  5  1  0
  5  6  1  0
  6  7  1  0
  7  8  1  0
  8  9  1  0
  8  3  1  0
  8  6  1  0
  2 10  1  0
  3 11  1  0
  4 12  1  0
  4 13  1  0
  5 14  1  0
  5 15  1  0
  6 16  1  0
  7 17  1  0
  7 18  1  0
  9 19  1  0
M  END
