
     RDKit          3D

 19 19  0  0  0  0  0  0  0  0999 V2000
   -3.4993    0.7120    1.0255 O   0  0  0  0  0  0  0  0  0  0  0  0
   -3.2607    0.2216   -0.0567 C   0  0  0  0  0  0  0  0  0  0  0  0
   -2.0885   -0.6497   -0.2270 C   0  0  0  0  0  0  0  0  0  0  0  0
   -0.8848    0.1022    0.3127 C   0  0  0  0  0  0  0  0  0  0  0  0
    0.3994   -0.6725    0.2097 C   0  0  0  0  0  0  0  0  0  0  0  0
    0.8782   -1.0985   -1.0242 O   0  0  0  0  0  0  0  0  0  0  0  0
    1.4829    0.0589   -0.6018 C   0  0  0  0  0  0  0  0  0  0  0  0
    2.8600    0.0205   -0.0154 C   0  0  0  0  0  0  0  0  0  0  0  0
    3.2491    1.3232    0.3162 O   0  0  0  0  0  0  0  0  0  0  0  0
   -3.9000    0.4223   -0.8984 H   0  0  0  0  0  0  0  0  0  0  0  0
   -2.2956   -1.5483    0.4229 H   0  0  0  0  0  0  0  0  0  0  0  0
   -1.9779   -0.9173   -1.2924 H   0  0  0  0  0  0  0  0  0  0  0  0
   -1.0683    0.3105    1.3835 H   0  0  0  0  0  0  0  0  0  0  0  0
   -0.8426    1.0691   -0.2009 H   0  0  0  0  0  0  0  0  0  0  0  0
    0.7637   -1.2414    1.0909 H   0  0  0  0  0  0  0  0  0  0  0  0
    1.2156    1.0333   -1.0639 H   0  0  0  0  0  0  0  0  0  0  0  0
    3.6150   -0.4392   -0.7230 H   0  0  0  0  0  0  0  0  0  0  0  0
    2.8896   -0.6434    0.8942 H   0  0  0  0  0  0  0  0  0  0  0  0
    2.4642    1.9365    0.4483 H   0  0  0  0  0  0  0  0  0  0  0  0
  1  2  2  0
  2  3  1  0
  3  4  1  0
  4  5  1  0
  5  6  1  0
  6  7  1  0
  7  8  1  0
  8  9  1  0
  7  5  1  0
  2 10  1  0
  3 11  1  0
  3 12  1  0
  4 13  1  0
  4 14  1  0
  5 15  1  0
  7 16  1  0
  8 17  1  0
  8 18  1  0
  9 19  1  0
M  END
