
     RDKit          3D

 17 18  0  0  0  0  0  0  0  0999 V2000
    2.9310   -0.5662    0.8884 O   0  0  0  0  0  0  0  0  0  0  0  0
    2.1541   -0.1521    0.0716 C   0  0  0  0  0  0  0  0  0  0  0  0
    0.7445   -0.2331    0.2664 C   0  0  0  0  0  0  0  0  0  0  0  0
   -0.1008   -0.8212   -0.8732 C   0  0  0  0  0  0  0  0  0  0  0  0
   -1.1900   -0.0050   -0.1732 C   0  0  0  0  0  0  0  0  0  0  0  0
   -1.1925   -0.6365    1.1805 C   0  0  0  0  0  0  0  0  0  0  0  0
    0.2049   -0.7848    1.3902 O   0  0  0  0  0  0  0  0  0  0  0  0
   -0.0826    1.0389    0.0241 C   0  0  0  0  0  0  0  0  0  0  0  0
    0.2243    1.7099   -1.1261 O   0  0  0  0  0  0  0  0  0  0  0  0
    2.5635    0.2905   -0.8293 H   0  0  0  0  0  0  0  0  0  0  0  0
   -0.2484   -1.9000   -0.8115 H   0  0  0  0  0  0  0  0  0  0  0  0
    0.1122   -0.3820   -1.8443 H   0  0  0  0  0  0  0  0  0  0  0  0
   -2.0570    0.2570   -0.6894 H   0  0  0  0  0  0  0  0  0  0  0  0
   -1.5175    0.1126    1.9134 H   0  0  0  0  0  0  0  0  0  0  0  0
   -1.7159   -1.5924    1.2388 H   0  0  0  0  0  0  0  0  0  0  0  0
   -0.2443    1.6122    0.9370 H   0  0  0  0  0  0  0  0  0  0  0  0
   -0.5856    2.0520   -1.5634 H   0  0  0  0  0  0  0  0  0  0  0  0
  1  2  2  0
  2  3  1  0
  3  4  1  0
  4  5  1  0
  5  6  1  0
  6  7  1  0
  5  8  1  0
  8  9  1  0
  7  3  1  0
  8  3  1  0
  2 10  1  0
  4 11  1  0
  4 12  1  0
  5 13  1  0
  6 14  1  0
  6 15  1  0
  8 16  1  0
  9 17  1  0
M  END
