
     RDKit          3D

 17 18  0  0  0  0  0  0  0  0999 V2000
   -3.3517    0.0597    0.5138 O   0  0  0  0  0  0  0  0  0  0  0  0
   -2.3221   -0.0848    1.1447 C   0  0  0  0  0  0  0  0  0  0  0  0
   -1.0862   -0.3649    0.4123 C   0  0  0  0  0  0  0  0  0  0  0  0
   -1.0883   -0.7306   -1.0138 C   0  0  0  0  0  0  0  0  0  0  0  0
   -0.4660    0.5528   -0.5425 C   0  0  0  0  0  0  0  0  0  0  0  0
    0.7535    0.4536    0.3656 C   0  0  0  0  0  0  0  0  0  0  0  0
    1.9417    0.0243   -0.4506 C   0  0  0  0  0  0  0  0  0  0  0  0
    2.9519   -0.5328    0.3013 O   0  0  0  0  0  0  0  0  0  0  0  0
    0.1155   -0.5375    1.0822 O   0  0  0  0  0  0  0  0  0  0  0  0
   -2.3719    0.0014    2.2197 H   0  0  0  0  0  0  0  0  0  0  0  0
   -0.4237   -1.5735   -1.3038 H   0  0  0  0  0  0  0  0  0  0  0  0
   -1.9652   -0.5954   -1.6617 H   0  0  0  0  0  0  0  0  0  0  0  0
   -0.9061    1.5229   -0.7659 H   0  0  0  0  0  0  0  0  0  0  0  0
    0.9431    1.3329    0.9782 H   0  0  0  0  0  0  0  0  0  0  0  0
    2.3598    0.9571   -0.9150 H   0  0  0  0  0  0  0  0  0  0  0  0
    1.6182   -0.6206   -1.2888 H   0  0  0  0  0  0  0  0  0  0  0  0
    3.2974    0.1354    0.9242 H   0  0  0  0  0  0  0  0  0  0  0  0
  1  2  2  0
  2  3  1  0
  3  4  1  0
  4  5  1  0
  5  6  1  0
  6  7  1  0
  7  8  1  0
  6  9  1  0
  5  3  1  0
  9  3  1  0
  2 10  1  0
  4 11  1  0
  4 12  1  0
  5 13  1  0
  6 14  1  0
  7 15  1  0
  7 16  1  0
  8 17  1  0
M  END
