
     RDKit          3D

 17 19  0  0  0  0  0  0  0  0999 V2000
    1.9944    0.9348   -1.5594 O   0  0  0  0  0  0  0  0  0  0  0  0
    2.0761    0.1212   -0.6545 C   0  0  0  0  0  0  0  0  0  0  0  0
    1.3390    0.2281    0.6372 C   0  0  0  0  0  0  0  0  0  0  0  0
   -0.1013   -0.1151    0.5589 C   0  0  0  0  0  0  0  0  0  0  0  0
   -0.5146   -1.4582    0.1167 C   0  0  0  0  0  0  0  0  0  0  0  0
   -0.6844   -0.2869   -0.8221 C   0  0  0  0  0  0  0  0  0  0  0  0
   -1.7519    0.7089   -0.4331 C   0  0  0  0  0  0  0  0  0  0  0  0
   -1.4305    1.9501    0.0336 O   0  0  0  0  0  0  0  0  0  0  0  0
   -1.1929    0.8531    0.8634 C   0  0  0  0  0  0  0  0  0  0  0  0
    2.7445   -0.7336   -0.8364 H   0  0  0  0  0  0  0  0  0  0  0  0
    1.4555    1.2715    1.0001 H   0  0  0  0  0  0  0  0  0  0  0  0
    1.8670   -0.4122    1.3811 H   0  0  0  0  0  0  0  0  0  0  0  0
   -1.4814   -1.9036    0.4362 H   0  0  0  0  0  0  0  0  0  0  0  0
    0.2453   -2.2160   -0.1359 H   0  0  0  0  0  0  0  0  0  0  0  0
   -0.0617   -0.1510   -1.6979 H   0  0  0  0  0  0  0  0  0  0  0  0
   -2.7632    0.4136   -0.7280 H   0  0  0  0  0  0  0  0  0  0  0  0
   -1.7399    0.7951    1.8402 H   0  0  0  0  0  0  0  0  0  0  0  0
  1  2  2  0
  2  3  1  0
  3  4  1  0
  4  5  1  0
  5  6  1  0
  6  7  1  0
  7  8  1  0
  8  9  1  0
  6  4  1  0
  9  7  1  0
  9  4  1  0
  2 10  1  0
  3 11  1  0
  3 12  1  0
  5 13  1  0
  5 14  1  0
  6 15  1  0
  7 16  1  0
  9 17  1  0
M  END
