
     RDKit          3D

 19 20  0  0  0  0  0  0  0  0999 V2000
    3.0038    0.9861   -0.9837 O   0  0  0  0  0  0  0  0  0  0  0  0
    2.5420   -0.1180   -0.8622 C   0  0  0  0  0  0  0  0  0  0  0  0
    1.5752   -0.4496    0.1930 C   0  0  0  0  0  0  0  0  0  0  0  0
    0.3461    0.4187    0.1579 C   0  0  0  0  0  0  0  0  0  0  0  0
   -0.5423   -0.0627    1.3241 C   0  0  0  0  0  0  0  0  0  0  0  0
   -1.7441   -0.4876    0.4822 C   0  0  0  0  0  0  0  0  0  0  0  0
   -1.8929    0.6668   -0.4664 C   0  0  0  0  0  0  0  0  0  0  0  0
   -0.6003    0.0194   -0.9551 C   0  0  0  0  0  0  0  0  0  0  0  0
   -1.1823   -1.1959   -0.5705 O   0  0  0  0  0  0  0  0  0  0  0  0
    2.8433   -0.8887   -1.5505 H   0  0  0  0  0  0  0  0  0  0  0  0
    2.0842   -0.2039    1.1730 H   0  0  0  0  0  0  0  0  0  0  0  0
    1.2990   -1.5023    0.2646 H   0  0  0  0  0  0  0  0  0  0  0  0
    0.5510    1.4797    0.1815 H   0  0  0  0  0  0  0  0  0  0  0  0
   -0.1397   -0.9528    1.8160 H   0  0  0  0  0  0  0  0  0  0  0  0
   -0.7853    0.7676    1.9819 H   0  0  0  0  0  0  0  0  0  0  0  0
   -2.5950   -0.8849    0.9858 H   0  0  0  0  0  0  0  0  0  0  0  0
   -2.7018    0.6021   -1.2070 H   0  0  0  0  0  0  0  0  0  0  0  0
   -1.7417    1.6513    0.0063 H   0  0  0  0  0  0  0  0  0  0  0  0
   -0.3192    0.1545   -1.9709 H   0  0  0  0  0  0  0  0  0  0  0  0
  1  2  2  0
  2  3  1  0
  3  4  1  0
  4  5  1  0
  5  6  1  0
  6  7  1  0
  7  8  1  0
  8  9  1  0
  8  4  1  0
  9  6  1  0
  2 10  1  0
  3 11  1  0
  3 12  1  0
  4 13  1  0
  5 14  1  0
  5 15  1  0
  6 16  1  0
  7 17  1  0
  7 18  1  0
  8 19  1  0
M  END
