
     RDKit          3D

 17 17  0  0  0  0  0  0  0  0999 V2000
   -3.6561    0.4973    0.2492 O   0  0  0  0  0  0  0  0  0  0  0  0
   -2.5134    0.3916    0.6545 C   0  0  0  0  0  0  0  0  0  0  0  0
   -1.5021   -0.1921   -0.2585 C   0  0  0  0  0  0  0  0  0  0  0  0
   -0.1402   -0.2702    0.3487 C   0  0  0  0  0  0  0  0  0  0  0  0
    0.7869   -0.8863   -0.6981 C   0  0  0  0  0  0  0  0  0  0  0  0
    2.0820   -0.3279   -0.2363 C   0  0  0  0  0  0  0  0  0  0  0  0
    3.1590   -0.8421   -0.2714 O   0  0  0  0  0  0  0  0  0  0  0  0
    1.6953    1.0112    0.2710 C   0  0  0  0  0  0  0  0  0  0  0  0
    0.4025    0.9242    0.7223 O   0  0  0  0  0  0  0  0  0  0  0  0
   -2.3003    0.7268    1.6507 H   0  0  0  0  0  0  0  0  0  0  0  0
   -1.8236   -1.2071   -0.5377 H   0  0  0  0  0  0  0  0  0  0  0  0
   -1.4342    0.4868   -1.1470 H   0  0  0  0  0  0  0  0  0  0  0  0
   -0.1268   -1.0000    1.2062 H   0  0  0  0  0  0  0  0  0  0  0  0
    0.5654   -0.4151   -1.6997 H   0  0  0  0  0  0  0  0  0  0  0  0
    0.7452   -1.9687   -0.7157 H   0  0  0  0  0  0  0  0  0  0  0  0
    1.6935    1.6995   -0.6124 H   0  0  0  0  0  0  0  0  0  0  0  0
    2.3670    1.3720    1.0743 H   0  0  0  0  0  0  0  0  0  0  0  0
  1  2  2  0
  2  3  1  0
  3  4  1  0
  4  5  1  0
  5  6  1  0
  6  7  2  0
  6  8  1  0
  8  9  1  0
  9  4  1  0
  2 10  1  0
  3 11  1  0
  3 12  1  0
  4 13  1  0
  5 14  1  0
  5 15  1  0
  8 16  1  0
  8 17  1  0
M  END
