
     RDKit          3D

 15 16  0  0  0  0  0  0  0  0999 V2000
    1.6626   -1.7903    1.3988 O   0  0  0  0  0  0  0  0  0  0  0  0
    1.3944   -1.4164    0.2447 C   0  0  0  0  0  0  0  0  0  0  0  0
    0.3591   -0.4339    0.0713 C   0  0  0  0  0  0  0  0  0  0  0  0
    0.8282    0.9079   -0.4239 C   0  0  0  0  0  0  0  0  0  0  0  0
   -0.1165    1.7612   -0.0360 C   0  0  0  0  0  0  0  0  0  0  0  0
   -1.1104    0.9212    0.6877 C   0  0  0  0  0  0  0  0  0  0  0  0
   -1.7880    0.1240   -0.2311 O   0  0  0  0  0  0  0  0  0  0  0  0
   -0.8733   -0.8567   -0.6611 C   0  0  0  0  0  0  0  0  0  0  0  0
   -0.2313   -0.0154    1.2926 O   0  0  0  0  0  0  0  0  0  0  0  0
    1.9537   -1.8506   -0.5614 H   0  0  0  0  0  0  0  0  0  0  0  0
    1.7390    1.1049   -0.9727 H   0  0  0  0  0  0  0  0  0  0  0  0
   -0.1075    2.8250   -0.2343 H   0  0  0  0  0  0  0  0  0  0  0  0
   -1.7322    1.4406    1.3916 H   0  0  0  0  0  0  0  0  0  0  0  0
   -1.2070   -1.8278   -0.2196 H   0  0  0  0  0  0  0  0  0  0  0  0
   -0.7708   -0.8938   -1.7466 H   0  0  0  0  0  0  0  0  0  0  0  0
  1  2  2  0
  2  3  1  0
  3  4  1  0
  4  5  2  0
  5  6  1  0
  6  7  1  0
  7  8  1  0
  6  9  1  0
  8  3  1  0
  9  3  1  0
  2 10  1  0
  4 11  1  0
  5 12  1  0
  6 13  1  0
  8 14  1  0
  8 15  1  0
M  END
