
     RDKit          3D

 19 20  0  0  0  0  0  0  0  0999 V2000
    3.7659   -0.2699    0.0393 O   0  0  0  0  0  0  0  0  0  0  0  0
    2.6788    0.1608    0.3705 C   0  0  0  0  0  0  0  0  0  0  0  0
    1.5215   -0.1158   -0.5316 C   0  0  0  0  0  0  0  0  0  0  0  0
    0.2542    0.4662   -0.0096 C   0  0  0  0  0  0  0  0  0  0  0  0
   -1.0019    0.2900   -0.7864 C   0  0  0  0  0  0  0  0  0  0  0  0
   -2.0279    0.8744    0.1561 C   0  0  0  0  0  0  0  0  0  0  0  0
   -1.5124    0.3898    1.3862 O   0  0  0  0  0  0  0  0  0  0  0  0
   -0.4772   -0.4363    0.9882 C   0  0  0  0  0  0  0  0  0  0  0  0
   -1.0200   -1.1416   -0.2376 C   0  0  0  0  0  0  0  0  0  0  0  0
    2.6188    0.7153    1.2943 H   0  0  0  0  0  0  0  0  0  0  0  0
    1.8140    0.2828   -1.5298 H   0  0  0  0  0  0  0  0  0  0  0  0
    1.4963   -1.2195   -0.6294 H   0  0  0  0  0  0  0  0  0  0  0  0
    0.3853    1.5073    0.3775 H   0  0  0  0  0  0  0  0  0  0  0  0
   -1.0644    0.4391   -1.8205 H   0  0  0  0  0  0  0  0  0  0  0  0
   -2.0757    1.9645    0.1338 H   0  0  0  0  0  0  0  0  0  0  0  0
   -2.9956    0.3847   -0.0872 H   0  0  0  0  0  0  0  0  0  0  0  0
    0.0975   -0.9749    1.6921 H   0  0  0  0  0  0  0  0  0  0  0  0
   -0.3860   -1.8446   -0.7542 H   0  0  0  0  0  0  0  0  0  0  0  0
   -2.0713   -1.4722   -0.0517 H   0  0  0  0  0  0  0  0  0  0  0  0
  1  2  2  0
  2  3  1  0
  3  4  1  0
  4  5  1  0
  5  6  1  0
  6  7  1  0
  7  8  1  0
  8  9  1  0
  8  4  1  0
  9  5  1  0
  2 10  1  0
  3 11  1  0
  3 12  1  0
  4 13  1  0
  5 14  1  0
  6 15  1  0
  6 16  1  0
  8 17  1  0
  9 18  1  0
  9 19  1  0
M  END
