
     RDKit          3D

 19 19  0  0  0  0  0  0  0  0999 V2000
    3.5962    0.4312    1.1813 O   0  0  0  0  0  0  0  0  0  0  0  0
    2.5090    0.6096    0.6852 C   0  0  0  0  0  0  0  0  0  0  0  0
    2.1718   -0.0343   -0.6042 C   0  0  0  0  0  0  0  0  0  0  0  0
    0.8813    0.2845   -1.0187 O   0  0  0  0  0  0  0  0  0  0  0  0
   -0.0676   -0.1179   -0.1135 C   0  0  0  0  0  0  0  0  0  0  0  0
   -0.9757    1.0335    0.2542 C   0  0  0  0  0  0  0  0  0  0  0  0
   -2.2210    0.3411    0.6795 C   0  0  0  0  0  0  0  0  0  0  0  0
   -2.2642   -0.8671    0.1125 C   0  0  0  0  0  0  0  0  0  0  0  0
   -1.0703   -1.0915   -0.7316 C   0  0  0  0  0  0  0  0  0  0  0  0
    1.7769    1.2315    1.1661 H   0  0  0  0  0  0  0  0  0  0  0  0
    2.2382   -1.1386   -0.5184 H   0  0  0  0  0  0  0  0  0  0  0  0
    2.9240    0.2827   -1.3422 H   0  0  0  0  0  0  0  0  0  0  0  0
    0.3903   -0.6117    0.7598 H   0  0  0  0  0  0  0  0  0  0  0  0
   -0.5700    1.7013    1.0108 H   0  0  0  0  0  0  0  0  0  0  0  0
   -1.2265    1.5472   -0.7130 H   0  0  0  0  0  0  0  0  0  0  0  0
   -2.9420    0.7998    1.3480 H   0  0  0  0  0  0  0  0  0  0  0  0
   -3.1119   -1.5380    0.3039 H   0  0  0  0  0  0  0  0  0  0  0  0
   -0.7118   -2.1268   -0.7015 H   0  0  0  0  0  0  0  0  0  0  0  0
   -1.3267   -0.7365   -1.7579 H   0  0  0  0  0  0  0  0  0  0  0  0
  1  2  2  0
  2  3  1  0
  3  4  1  0
  4  5  1  0
  5  6  1  0
  6  7  1  0
  7  8  2  0
  8  9  1  0
  9  5  1  0
  2 10  1  0
  3 11  1  0
  3 12  1  0
  5 13  1  0
  6 14  1  0
  6 15  1  0
  7 16  1  0
  8 17  1  0
  9 18  1  0
  9 19  1  0
M  END
