
     RDKit          3D

 17 18  0  0  0  0  0  0  0  0999 V2000
   -1.5956    0.3720   -1.9550 O   0  0  0  0  0  0  0  0  0  0  0  0
   -1.6802    0.7204   -0.7909 C   0  0  0  0  0  0  0  0  0  0  0  0
   -1.4089   -0.1721    0.3680 C   0  0  0  0  0  0  0  0  0  0  0  0
   -1.0421   -1.4614    0.0500 O   0  0  0  0  0  0  0  0  0  0  0  0
    0.2741   -1.2013    0.4516 C   0  0  0  0  0  0  0  0  0  0  0  0
    1.2099   -0.8015   -0.6272 C   0  0  0  0  0  0  0  0  0  0  0  0
    1.4816    0.6368   -0.4664 C   0  0  0  0  0  0  0  0  0  0  0  0
    0.7341    1.1359    0.4919 C   0  0  0  0  0  0  0  0  0  0  0  0
   -0.1143    0.0969    1.0751 C   0  0  0  0  0  0  0  0  0  0  0  0
   -1.9715    1.7449   -0.5935 H   0  0  0  0  0  0  0  0  0  0  0  0
   -2.2586   -0.1873    1.1021 H   0  0  0  0  0  0  0  0  0  0  0  0
    0.6764   -1.9769    1.1431 H   0  0  0  0  0  0  0  0  0  0  0  0
    2.1509   -1.4055   -0.5267 H   0  0  0  0  0  0  0  0  0  0  0  0
    0.7981   -0.9440   -1.6506 H   0  0  0  0  0  0  0  0  0  0  0  0
    2.2159    1.1644   -1.0879 H   0  0  0  0  0  0  0  0  0  0  0  0
    0.7260    2.1848    0.8303 H   0  0  0  0  0  0  0  0  0  0  0  0
   -0.1958    0.0937    2.1862 H   0  0  0  0  0  0  0  0  0  0  0  0
  1  2  2  0
  2  3  1  0
  3  4  1  0
  4  5  1  0
  5  6  1  0
  6  7  1  0
  7  8  2  0
  8  9  1  0
  9  3  1  0
  9  5  1  0
  2 10  1  0
  3 11  1  0
  5 12  1  0
  6 13  1  0
  6 14  1  0
  7 15  1  0
  8 16  1  0
  9 17  1  0
M  END
