
     RDKit          3D

 17 18  0  0  0  0  0  0  0  0999 V2000
    3.1955    0.9292    0.5998 O   0  0  0  0  0  0  0  0  0  0  0  0
    2.6043   -0.0672    0.1234 C   0  0  0  0  0  0  0  0  0  0  0  0
    1.1228   -0.1535    0.0672 C   0  0  0  0  0  0  0  0  0  0  0  0
    0.2678    0.7535    0.4863 C   0  0  0  0  0  0  0  0  0  0  0  0
   -1.1287    0.3201    0.2657 C   0  0  0  0  0  0  0  0  0  0  0  0
   -1.7195    1.1182   -0.8699 C   0  0  0  0  0  0  0  0  0  0  0  0
   -0.9774    0.2758   -1.7284 O   0  0  0  0  0  0  0  0  0  0  0  0
   -0.9782   -0.7378   -0.8024 C   0  0  0  0  0  0  0  0  0  0  0  0
    0.3713   -1.3032   -0.4701 C   0  0  0  0  0  0  0  0  0  0  0  0
    3.2025   -0.8781   -0.2531 H   0  0  0  0  0  0  0  0  0  0  0  0
    0.5444    1.6909    0.9327 H   0  0  0  0  0  0  0  0  0  0  0  0
   -1.7488    0.0999    1.1195 H   0  0  0  0  0  0  0  0  0  0  0  0
   -2.7988    1.0201   -1.0130 H   0  0  0  0  0  0  0  0  0  0  0  0
   -1.3502    2.1638   -0.8759 H   0  0  0  0  0  0  0  0  0  0  0  0
   -1.8083   -1.4600   -0.8834 H   0  0  0  0  0  0  0  0  0  0  0  0
    0.3112   -2.0613    0.3378 H   0  0  0  0  0  0  0  0  0  0  0  0
    0.8901   -1.7105   -1.3741 H   0  0  0  0  0  0  0  0  0  0  0  0
  1  2  2  0
  2  3  1  0
  3  4  2  0
  4  5  1  0
  5  6  1  0
  6  7  1  0
  7  8  1  0
  8  9  1  0
  9  3  1  0
  8  5  1  0
  2 10  1  0
  4 11  1  0
  5 12  1  0
  6 13  1  0
  6 14  1  0
  8 15  1  0
  9 16  1  0
  9 17  1  0
M  END
