
     RDKit          3D

 19 19  0  0  0  0  0  0  0  0999 V2000
   -1.9417   -1.8529   -0.8935 O   0  0  0  0  0  0  0  0  0  0  0  0
   -2.0181   -0.6517   -1.0638 C   0  0  0  0  0  0  0  0  0  0  0  0
   -0.9491    0.2959   -0.6329 C   0  0  0  0  0  0  0  0  0  0  0  0
   -1.5976    1.2250    0.3873 C   0  0  0  0  0  0  0  0  0  0  0  0
   -2.1115    0.3990    1.3994 O   0  0  0  0  0  0  0  0  0  0  0  0
    0.0506   -0.4298   -0.0525 O   0  0  0  0  0  0  0  0  0  0  0  0
    1.2862   -0.3198   -0.6393 C   0  0  0  0  0  0  0  0  0  0  0  0
    2.4225   -0.0752    0.3757 C   0  0  0  0  0  0  0  0  0  0  0  0
    2.3754   -1.2729   -0.4906 C   0  0  0  0  0  0  0  0  0  0  0  0
   -2.9325   -0.3037   -1.5599 H   0  0  0  0  0  0  0  0  0  0  0  0
   -0.6291    0.8877   -1.5144 H   0  0  0  0  0  0  0  0  0  0  0  0
   -0.8769    1.9131    0.8426 H   0  0  0  0  0  0  0  0  0  0  0  0
   -2.4034    1.8230   -0.0550 H   0  0  0  0  0  0  0  0  0  0  0  0
   -2.7080    0.9289    1.9744 H   0  0  0  0  0  0  0  0  0  0  0  0
    1.2965    0.3629   -1.5269 H   0  0  0  0  0  0  0  0  0  0  0  0
    3.1019    0.7803    0.1435 H   0  0  0  0  0  0  0  0  0  0  0  0
    2.1980   -0.1867    1.4353 H   0  0  0  0  0  0  0  0  0  0  0  0
    3.1450   -1.2851   -1.3083 H   0  0  0  0  0  0  0  0  0  0  0  0
    2.2918   -2.2380    0.0217 H   0  0  0  0  0  0  0  0  0  0  0  0
  1  2  2  0
  2  3  1  0
  3  4  1  0
  4  5  1  0
  3  6  1  0
  6  7  1  0
  7  8  1  0
  8  9  1  0
  9  7  1  0
  2 10  1  0
  3 11  1  0
  4 12  1  0
  4 13  1  0
  5 14  1  0
  7 15  1  0
  8 16  1  0
  8 17  1  0
  9 18  1  0
  9 19  1  0
M  END
