
     RDKit          3D

 19 18  0  0  0  0  0  0  0  0999 V2000
   -0.7203    2.6569    0.9825 O   0  0  0  0  0  0  0  0  0  0  0  0
   -1.2137    2.0833    0.0496 C   0  0  0  0  0  0  0  0  0  0  0  0
   -0.8968    0.6516   -0.2634 C   0  0  0  0  0  0  0  0  0  0  0  0
   -2.1430   -0.2010   -0.2177 C   0  0  0  0  0  0  0  0  0  0  0  0
   -1.7547   -1.5017   -0.5485 O   0  0  0  0  0  0  0  0  0  0  0  0
    0.0138    0.1409    0.6630 O   0  0  0  0  0  0  0  0  0  0  0  0
    1.1279   -0.2741   -0.0482 C   0  0  0  0  0  0  0  0  0  0  0  0
    2.1522   -0.8372    0.8935 C   0  0  0  0  0  0  0  0  0  0  0  0
    3.2509   -1.2363    0.1032 O   0  0  0  0  0  0  0  0  0  0  0  0
   -1.9231    2.5607   -0.6319 H   0  0  0  0  0  0  0  0  0  0  0  0
   -0.5138    0.5999   -1.3065 H   0  0  0  0  0  0  0  0  0  0  0  0
   -2.5979   -0.1412    0.7957 H   0  0  0  0  0  0  0  0  0  0  0  0
   -2.8482    0.2099   -0.9843 H   0  0  0  0  0  0  0  0  0  0  0  0
   -2.5346   -2.1130   -0.6118 H   0  0  0  0  0  0  0  0  0  0  0  0
    0.9093   -0.9907   -0.8475 H   0  0  0  0  0  0  0  0  0  0  0  0
    1.5894    0.6405   -0.5121 H   0  0  0  0  0  0  0  0  0  0  0  0
    1.7963   -1.7488    1.4084 H   0  0  0  0  0  0  0  0  0  0  0  0
    2.5223   -0.0903    1.6014 H   0  0  0  0  0  0  0  0  0  0  0  0
    3.7839   -0.4094   -0.0793 H   0  0  0  0  0  0  0  0  0  0  0  0
  1  2  2  0
  2  3  1  0
  3  4  1  0
  4  5  1  0
  3  6  1  0
  6  7  1  0
  7  8  1  0
  8  9  1  0
  2 10  1  0
  3 11  1  0
  4 12  1  0
  4 13  1  0
  5 14  1  0
  7 15  1  0
  7 16  1  0
  8 17  1  0
  8 18  1  0
  9 19  1  0
M  END
