
     RDKit          3D

 16 16  0  0  0  0  0  0  0  0999 V2000
    3.2458    2.7178    2.4589 O   0  0  0  0  0  0  0  0  0  0  0  0
    2.9348    2.0508    1.3742 C   0  0  0  0  0  0  0  0  0  0  0  0
    2.0808    1.2295    1.1330 C   0  0  0  0  0  0  0  0  0  0  0  0
    0.9866    0.1763    0.8508 C   0  0  0  0  0  0  0  0  0  0  0  0
    0.1163   -0.6584    0.6208 C   0  0  0  0  0  0  0  0  0  0  0  0
   -0.5639   -0.4487   -0.7850 C   0  0  0  0  0  0  0  0  0  0  0  0
   -1.5906   -1.4309   -1.1397 C   0  0  0  0  0  0  0  0  0  0  0  0
   -2.0191   -0.0839   -0.5601 C   0  0  0  0  0  0  0  0  0  0  0  0
    3.7036    2.4003    0.5441 H   0  0  0  0  0  0  0  0  0  0  0  0
   -0.7777   -0.7426    1.3973 H   0  0  0  0  0  0  0  0  0  0  0  0
    0.4503   -1.7750    0.5942 H   0  0  0  0  0  0  0  0  0  0  0  0
    0.0115    0.0199   -1.5735 H   0  0  0  0  0  0  0  0  0  0  0  0
   -1.8415   -1.5128   -2.2317 H   0  0  0  0  0  0  0  0  0  0  0  0
   -1.7346   -2.3368   -0.5489 H   0  0  0  0  0  0  0  0  0  0  0  0
   -2.5573    0.5772   -1.2563 H   0  0  0  0  0  0  0  0  0  0  0  0
   -2.4450   -0.1828    0.4427 H   0  0  0  0  0  0  0  0  0  0  0  0
  1  2  2  0
  2  3  1  0
  3  4  3  0
  4  5  1  0
  5  6  1  0
  6  7  1  0
  7  8  1  0
  8  6  1  0
  2  9  1  0
  5 10  1  0
  5 11  1  0
  6 12  1  0
  7 13  1  0
  7 14  1  0
  8 15  1  0
  8 16  1  0
M  END
