
     RDKit          3D

 15 16  0  0  0  0  0  0  0  0999 V2000
   -2.8147    0.9037   -1.0145 O   0  0  0  0  0  0  0  0  0  0  0  0
   -2.2612    0.2137   -0.1593 C   0  0  0  0  0  0  0  0  0  0  0  0
   -1.2182   -0.7675   -0.4505 C   0  0  0  0  0  0  0  0  0  0  0  0
   -0.7677   -1.4051    0.6989 O   0  0  0  0  0  0  0  0  0  0  0  0
    0.4722   -0.8259    0.7741 C   0  0  0  0  0  0  0  0  0  0  0  0
    0.7134    0.5946    0.4817 C   0  0  0  0  0  0  0  0  0  0  0  0
    2.1245    1.0290    0.3126 C   0  0  0  0  0  0  0  0  0  0  0  0
    2.9276    0.2054   -0.0918 O   0  0  0  0  0  0  0  0  0  0  0  0
    0.1779   -0.2200   -0.6329 C   0  0  0  0  0  0  0  0  0  0  0  0
   -2.5963    0.3752    0.8525 H   0  0  0  0  0  0  0  0  0  0  0  0
   -1.4550   -1.4465   -1.2974 H   0  0  0  0  0  0  0  0  0  0  0  0
    1.3557   -1.4745    0.8554 H   0  0  0  0  0  0  0  0  0  0  0  0
    0.0140    1.3905    0.8565 H   0  0  0  0  0  0  0  0  0  0  0  0
    2.4926    2.0206    0.5212 H   0  0  0  0  0  0  0  0  0  0  0  0
    0.8353   -0.5935   -1.4139 H   0  0  0  0  0  0  0  0  0  0  0  0
  1  2  2  0
  2  3  1  0
  3  4  1  0
  4  5  1  0
  5  6  1  0
  6  7  1  0
  7  8  2  0
  6  9  1  0
  9  3  1  0
  9  5  1  0
  2 10  1  0
  3 11  1  0
  5 12  1  0
  6 13  1  0
  7 14  1  0
  9 15  1  0
M  END
