
     RDKit          3D

 17 18  0  0  0  0  0  0  0  0999 V2000
    2.9840   -0.8559    0.7148 O   0  0  0  0  0  0  0  0  0  0  0  0
    1.7742   -0.7757    0.6425 C   0  0  0  0  0  0  0  0  0  0  0  0
    1.0821    0.1655   -0.2556 C   0  0  0  0  0  0  0  0  0  0  0  0
    0.1991    1.1527    0.5185 C   0  0  0  0  0  0  0  0  0  0  0  0
   -1.0823    1.0688   -0.2404 C   0  0  0  0  0  0  0  0  0  0  0  0
   -1.7794   -0.1765    0.2447 C   0  0  0  0  0  0  0  0  0  0  0  0
   -0.9912   -1.1703   -0.2228 C   0  0  0  0  0  0  0  0  0  0  0  0
    0.0015   -0.5264   -1.0916 C   0  0  0  0  0  0  0  0  0  0  0  0
   -0.7051    0.6216   -1.5287 O   0  0  0  0  0  0  0  0  0  0  0  0
    1.1762   -1.4220    1.2633 H   0  0  0  0  0  0  0  0  0  0  0  0
    1.7544    0.7425   -0.8874 H   0  0  0  0  0  0  0  0  0  0  0  0
    0.0784    0.6823    1.5350 H   0  0  0  0  0  0  0  0  0  0  0  0
    0.6463    2.1444    0.5784 H   0  0  0  0  0  0  0  0  0  0  0  0
   -1.7024    1.9394   -0.2474 H   0  0  0  0  0  0  0  0  0  0  0  0
   -2.6872   -0.2586    0.8244 H   0  0  0  0  0  0  0  0  0  0  0  0
   -1.1426   -2.2130    0.0493 H   0  0  0  0  0  0  0  0  0  0  0  0
    0.3941   -1.1189   -1.8968 H   0  0  0  0  0  0  0  0  0  0  0  0
  1  2  2  0
  2  3  1  0
  3  4  1  0
  4  5  1  0
  5  6  1  0
  6  7  2  0
  7  8  1  0
  8  9  1  0
  8  3  1  0
  9  5  1  0
  2 10  1  0
  3 11  1  0
  4 12  1  0
  4 13  1  0
  5 14  1  0
  6 15  1  0
  7 16  1  0
  8 17  1  0
M  END
