
     RDKit          3D

 17 17  0  0  0  0  0  0  0  0999 V2000
    3.1464    0.3318   -0.8954 O   0  0  0  0  0  0  0  0  0  0  0  0
    2.3632    0.4347    0.0454 C   0  0  0  0  0  0  0  0  0  0  0  0
    1.4065   -0.6786    0.3365 C   0  0  0  0  0  0  0  0  0  0  0  0
    0.1072   -0.3223   -0.3043 C   0  0  0  0  0  0  0  0  0  0  0  0
   -0.4882    0.9763    0.2379 C   0  0  0  0  0  0  0  0  0  0  0  0
   -1.8788    0.8805   -0.2332 C   0  0  0  0  0  0  0  0  0  0  0  0
   -2.1912   -0.4151   -0.3735 C   0  0  0  0  0  0  0  0  0  0  0  0
   -1.0259   -1.2238   -0.0022 C   0  0  0  0  0  0  0  0  0  0  0  0
   -1.0046   -2.3713    0.4504 O   0  0  0  0  0  0  0  0  0  0  0  0
    2.3534    1.3141    0.6609 H   0  0  0  0  0  0  0  0  0  0  0  0
    1.3544   -0.7110    1.4560 H   0  0  0  0  0  0  0  0  0  0  0  0
    1.7467   -1.6418   -0.0604 H   0  0  0  0  0  0  0  0  0  0  0  0
    0.2852   -0.2289   -1.4000 H   0  0  0  0  0  0  0  0  0  0  0  0
    0.0620    1.8680   -0.1101 H   0  0  0  0  0  0  0  0  0  0  0  0
   -0.5009    0.8879    1.3493 H   0  0  0  0  0  0  0  0  0  0  0  0
   -2.5892    1.6932   -0.4496 H   0  0  0  0  0  0  0  0  0  0  0  0
   -3.1461   -0.7937   -0.7077 H   0  0  0  0  0  0  0  0  0  0  0  0
  1  2  2  0
  2  3  1  0
  3  4  1  0
  4  5  1  0
  5  6  1  0
  6  7  2  0
  7  8  1  0
  8  9  2  0
  8  4  1  0
  2 10  1  0
  3 11  1  0
  3 12  1  0
  4 13  1  0
  5 14  1  0
  5 15  1  0
  6 16  1  0
  7 17  1  0
M  END
