
     RDKit          3D

 19 20  0  0  0  0  0  0  0  0999 V2000
    1.6161   -2.3499   -0.8300 O   0  0  0  0  0  0  0  0  0  0  0  0
    1.9352   -1.2238   -0.4959 C   0  0  0  0  0  0  0  0  0  0  0  0
    0.9450   -0.1295   -0.6392 C   0  0  0  0  0  0  0  0  0  0  0  0
    1.4217    1.0579    0.1766 C   0  0  0  0  0  0  0  0  0  0  0  0
    0.1274    1.6584    0.6324 C   0  0  0  0  0  0  0  0  0  0  0  0
   -0.8689    0.8030    0.5989 C   0  0  0  0  0  0  0  0  0  0  0  0
   -2.1388    0.0362    0.6503 C   0  0  0  0  0  0  0  0  0  0  0  0
   -1.5840   -0.6375   -0.6245 C   0  0  0  0  0  0  0  0  0  0  0  0
   -0.2872   -0.5177    0.1152 C   0  0  0  0  0  0  0  0  0  0  0  0
    2.9432   -1.0487   -0.0990 H   0  0  0  0  0  0  0  0  0  0  0  0
    0.8072    0.0838   -1.6950 H   0  0  0  0  0  0  0  0  0  0  0  0
    1.9806    0.7737    1.0647 H   0  0  0  0  0  0  0  0  0  0  0  0
    1.9894    1.7046   -0.4876 H   0  0  0  0  0  0  0  0  0  0  0  0
    0.0610    2.6918    0.9483 H   0  0  0  0  0  0  0  0  0  0  0  0
   -2.1159   -0.6984    1.4619 H   0  0  0  0  0  0  0  0  0  0  0  0
   -3.0567    0.5976    0.4917 H   0  0  0  0  0  0  0  0  0  0  0  0
   -1.9817   -1.6482   -0.7630 H   0  0  0  0  0  0  0  0  0  0  0  0
   -1.6541    0.0717   -1.4453 H   0  0  0  0  0  0  0  0  0  0  0  0
   -0.1397   -1.2249    0.9396 H   0  0  0  0  0  0  0  0  0  0  0  0
  1  2  2  0
  2  3  1  0
  3  4  1  0
  4  5  1  0
  5  6  2  0
  6  7  1  0
  7  8  1  0
  8  9  1  0
  9  3  1  0
  9  6  1  0
  2 10  1  0
  3 11  1  0
  4 12  1  0
  4 13  1  0
  5 14  1  0
  7 15  1  0
  7 16  1  0
  8 17  1  0
  8 18  1  0
  9 19  1  0
M  END
