
     RDKit          3D

 19 20  0  0  0  0  0  0  0  0999 V2000
    2.6315    1.2065    0.9015 O   0  0  0  0  0  0  0  0  0  0  0  0
    2.7673    0.1673    0.2783 C   0  0  0  0  0  0  0  0  0  0  0  0
    1.6285   -0.4038   -0.4655 C   0  0  0  0  0  0  0  0  0  0  0  0
    0.4156    0.4681   -0.3060 C   0  0  0  0  0  0  0  0  0  0  0  0
    0.0457    0.5802    1.0598 O   0  0  0  0  0  0  0  0  0  0  0  0
   -1.2666    0.1911    1.0630 C   0  0  0  0  0  0  0  0  0  0  0  0
   -1.2344   -1.0964    0.2245 C   0  0  0  0  0  0  0  0  0  0  0  0
   -0.8339   -0.0963   -0.8693 C   0  0  0  0  0  0  0  0  0  0  0  0
   -1.8772    0.8126   -0.2021 C   0  0  0  0  0  0  0  0  0  0  0  0
    3.7189   -0.3582    0.2552 H   0  0  0  0  0  0  0  0  0  0  0  0
    1.8959   -0.3921   -1.5396 H   0  0  0  0  0  0  0  0  0  0  0  0
    1.4401   -1.4578   -0.1769 H   0  0  0  0  0  0  0  0  0  0  0  0
    0.6703    1.4852   -0.6318 H   0  0  0  0  0  0  0  0  0  0  0  0
   -1.8538    0.1884    1.9421 H   0  0  0  0  0  0  0  0  0  0  0  0
   -2.2323   -1.5219    0.0415 H   0  0  0  0  0  0  0  0  0  0  0  0
   -0.4396   -1.7671    0.5505 H   0  0  0  0  0  0  0  0  0  0  0  0
   -0.9594   -0.3618   -1.8724 H   0  0  0  0  0  0  0  0  0  0  0  0
   -2.8902    0.4863   -0.4172 H   0  0  0  0  0  0  0  0  0  0  0  0
   -1.6265    1.8699   -0.3108 H   0  0  0  0  0  0  0  0  0  0  0  0
  1  2  2  0
  2  3  1  0
  3  4  1  0
  4  5  1  0
  5  6  1  0
  6  7  1  0
  7  8  1  0
  8  9  1  0
  8  4  1  0
  9  6  1  0
  2 10  1  0
  3 11  1  0
  3 12  1  0
  4 13  1  0
  6 14  1  0
  7 15  1  0
  7 16  1  0
  8 17  1  0
  9 18  1  0
  9 19  1  0
M  END
