
     RDKit          3D

 19 19  0  0  0  0  0  0  0  0999 V2000
   -2.1166   -1.1594    1.9034 O   0  0  0  0  0  0  0  0  0  0  0  0
   -1.3827   -1.3580    0.9600 C   0  0  0  0  0  0  0  0  0  0  0  0
   -0.5421   -0.3188    0.3093 C   0  0  0  0  0  0  0  0  0  0  0  0
    0.7043   -0.8843   -0.2800 C   0  0  0  0  0  0  0  0  0  0  0  0
    1.6022    0.0939   -0.9542 C   0  0  0  0  0  0  0  0  0  0  0  0
    2.0192    1.0590   -0.0621 O   0  0  0  0  0  0  0  0  0  0  0  0
   -1.3621    0.5471   -0.6222 C   0  0  0  0  0  0  0  0  0  0  0  0
   -0.5474    1.6236   -0.2153 O   0  0  0  0  0  0  0  0  0  0  0  0
   -0.4716    0.9900    1.0218 C   0  0  0  0  0  0  0  0  0  0  0  0
   -1.3233   -2.3594    0.5492 H   0  0  0  0  0  0  0  0  0  0  0  0
    0.3860   -1.6900   -1.0022 H   0  0  0  0  0  0  0  0  0  0  0  0
    1.3050   -1.3836    0.5234 H   0  0  0  0  0  0  0  0  0  0  0  0
    2.4684   -0.4604   -1.3578 H   0  0  0  0  0  0  0  0  0  0  0  0
    1.0623    0.5123   -1.8264 H   0  0  0  0  0  0  0  0  0  0  0  0
    2.8826    1.4667   -0.3009 H   0  0  0  0  0  0  0  0  0  0  0  0
   -1.3032    0.2885   -1.6760 H   0  0  0  0  0  0  0  0  0  0  0  0
   -2.3970    0.6594   -0.2020 H   0  0  0  0  0  0  0  0  0  0  0  0
    0.4083    1.2330    1.6061 H   0  0  0  0  0  0  0  0  0  0  0  0
   -1.3922    1.1404    1.6258 H   0  0  0  0  0  0  0  0  0  0  0  0
  1  2  2  0
  2  3  1  0
  3  4  1  0
  4  5  1  0
  5  6  1  0
  3  7  1  0
  7  8  1  0
  8  9  1  0
  9  3  1  0
  2 10  1  0
  4 11  1  0
  4 12  1  0
  5 13  1  0
  5 14  1  0
  6 15  1  0
  7 16  1  0
  7 17  1  0
  9 18  1  0
  9 19  1  0
M  END
