
     RDKit          3D

 14 15  0  0  0  0  0  0  0  0999 V2000
    2.1719    0.6785   -1.4471 O   0  0  0  0  0  0  0  0  0  0  0  0
    1.8155    1.0385   -0.3372 C   0  0  0  0  0  0  0  0  0  0  0  0
    1.0523    0.0956    0.4829 C   0  0  0  0  0  0  0  0  0  0  0  0
    0.8168   -1.1377   -0.1202 O   0  0  0  0  0  0  0  0  0  0  0  0
   -0.3466   -1.1869    0.6529 C   0  0  0  0  0  0  0  0  0  0  0  0
   -1.4840   -0.4116    0.1194 C   0  0  0  0  0  0  0  0  0  0  0  0
   -1.6224   -0.3092   -1.2567 O   0  0  0  0  0  0  0  0  0  0  0  0
   -0.3752    0.3574    0.7338 C   0  0  0  0  0  0  0  0  0  0  0  0
    2.0720    2.0261   -0.0035 H   0  0  0  0  0  0  0  0  0  0  0  0
    1.6113   -0.0991    1.4452 H   0  0  0  0  0  0  0  0  0  0  0  0
   -0.3534   -1.6961    1.6142 H   0  0  0  0  0  0  0  0  0  0  0  0
   -2.4437   -0.5592    0.6570 H   0  0  0  0  0  0  0  0  0  0  0  0
   -2.3034    0.3995   -1.4601 H   0  0  0  0  0  0  0  0  0  0  0  0
   -0.6112    0.8042    1.7223 H   0  0  0  0  0  0  0  0  0  0  0  0
  1  2  2  0
  2  3  1  0
  3  4  1  0
  4  5  1  0
  5  6  1  0
  6  7  1  0
  6  8  1  0
  8  3  1  0
  8  5  1  0
  2  9  1  0
  3 10  1  0
  5 11  1  0
  6 12  1  0
  7 13  1  0
  8 14  1  0
M  END
