
     RDKit          3D

 17 19  0  0  0  0  0  0  0  0999 V2000
    1.4981    1.9235   -0.5492 O   0  0  0  0  0  0  0  0  0  0  0  0
    2.1012    0.9077   -0.2500 C   0  0  0  0  0  0  0  0  0  0  0  0
    1.4267   -0.3497    0.1628 C   0  0  0  0  0  0  0  0  0  0  0  0
    0.2110   -0.3433    0.9874 C   0  0  0  0  0  0  0  0  0  0  0  0
   -0.9097    0.6255    0.8075 C   0  0  0  0  0  0  0  0  0  0  0  0
   -2.1366    0.2173    0.0346 C   0  0  0  0  0  0  0  0  0  0  0  0
   -0.8381    0.4727   -0.6404 C   0  0  0  0  0  0  0  0  0  0  0  0
    0.1570   -0.6253   -0.5304 C   0  0  0  0  0  0  0  0  0  0  0  0
   -0.2744   -1.8906   -0.8489 O   0  0  0  0  0  0  0  0  0  0  0  0
    3.1900    0.8877   -0.2763 H   0  0  0  0  0  0  0  0  0  0  0  0
    2.1422   -1.1701    0.4041 H   0  0  0  0  0  0  0  0  0  0  0  0
    0.0104   -1.1841    1.6612 H   0  0  0  0  0  0  0  0  0  0  0  0
   -0.9734    1.5609    1.3520 H   0  0  0  0  0  0  0  0  0  0  0  0
   -2.9122    0.9638   -0.1058 H   0  0  0  0  0  0  0  0  0  0  0  0
   -2.4633   -0.8391    0.0391 H   0  0  0  0  0  0  0  0  0  0  0  0
   -0.6551    1.3876   -1.2227 H   0  0  0  0  0  0  0  0  0  0  0  0
    0.4261   -2.5443   -1.0250 H   0  0  0  0  0  0  0  0  0  0  0  0
  1  2  2  0
  2  3  1  0
  3  4  1  0
  4  5  1  0
  5  6  1  0
  6  7  1  0
  7  8  1  0
  8  9  1  0
  8  3  1  0
  8  4  1  0
  7  5  1  0
  2 10  1  0
  3 11  1  0
  4 12  1  0
  5 13  1  0
  6 14  1  0
  6 15  1  0
  7 16  1  0
  9 17  1  0
M  END
