
     RDKit          3D

 17 17  0  0  0  0  0  0  0  0999 V2000
    2.7551   -2.2495   -2.8109 O   0  0  0  0  0  0  0  0  0  0  0  0
    2.6834   -1.0450   -2.6050 C   0  0  0  0  0  0  0  0  0  0  0  0
    1.5997   -0.4706   -1.7228 C   0  0  0  0  0  0  0  0  0  0  0  0
    0.7603   -0.0256   -1.0484 C   0  0  0  0  0  0  0  0  0  0  0  0
   -0.2731    0.5206   -0.2491 C   0  0  0  0  0  0  0  0  0  0  0  0
   -1.3467   -0.4544    0.0955 C   0  0  0  0  0  0  0  0  0  0  0  0
   -1.8996   -0.0276    1.2429 C   0  0  0  0  0  0  0  0  0  0  0  0
   -1.2171    1.2320    1.7102 C   0  0  0  0  0  0  0  0  0  0  0  0
    0.1862    0.9958    1.1023 C   0  0  0  0  0  0  0  0  0  0  0  0
    3.3400   -0.3194   -3.0017 H   0  0  0  0  0  0  0  0  0  0  0  0
   -0.8066    1.3741   -0.7413 H   0  0  0  0  0  0  0  0  0  0  0  0
   -1.6497   -1.3478   -0.4238 H   0  0  0  0  0  0  0  0  0  0  0  0
   -2.7204   -0.5288    1.7324 H   0  0  0  0  0  0  0  0  0  0  0  0
   -1.6363    2.0771    1.1352 H   0  0  0  0  0  0  0  0  0  0  0  0
   -1.1952    1.3285    2.7922 H   0  0  0  0  0  0  0  0  0  0  0  0
    0.6194    0.1670    1.7034 H   0  0  0  0  0  0  0  0  0  0  0  0
    0.8007    1.8900    1.0889 H   0  0  0  0  0  0  0  0  0  0  0  0
  1  2  2  0
  2  3  1  0
  3  4  3  0
  4  5  1  0
  5  6  1  0
  6  7  2  0
  7  8  1  0
  8  9  1  0
  9  5  1  0
  2 10  1  0
  5 11  1  0
  6 12  1  0
  7 13  1  0
  8 14  1  0
  8 15  1  0
  9 16  1  0
  9 17  1  0
M  END
