
     RDKit          3D

 14 14  0  0  0  0  0  0  0  0999 V2000
   -2.7448    0.8246   -0.3667 O   0  0  0  0  0  0  0  0  0  0  0  0
   -1.7656    0.1276   -0.5240 C   0  0  0  0  0  0  0  0  0  0  0  0
   -0.5649    0.2570    0.3128 C   0  0  0  0  0  0  0  0  0  0  0  0
    0.6043    0.9824   -0.2937 C   0  0  0  0  0  0  0  0  0  0  0  0
    1.2865   -0.3304   -0.5577 C   0  0  0  0  0  0  0  0  0  0  0  0
    0.2936   -0.9834    0.3855 C   0  0  0  0  0  0  0  0  0  0  0  0
   -1.7933   -0.6083   -1.3100 H   0  0  0  0  0  0  0  0  0  0  0  0
   -0.8387    0.6315    1.3276 H   0  0  0  0  0  0  0  0  0  0  0  0
    0.4011    1.5925   -1.1844 H   0  0  0  0  0  0  0  0  0  0  0  0
    1.1587    1.5646    0.4906 H   0  0  0  0  0  0  0  0  0  0  0  0
    2.3049   -0.4410   -0.1336 H   0  0  0  0  0  0  0  0  0  0  0  0
    1.1875   -0.6036   -1.6179 H   0  0  0  0  0  0  0  0  0  0  0  0
   -0.2143   -1.8616   -0.0745 H   0  0  0  0  0  0  0  0  0  0  0  0
    0.6852   -1.1519    1.4078 H   0  0  0  0  0  0  0  0  0  0  0  0
  1  2  2  0
  2  3  1  0
  3  4  1  0
  4  5  1  0
  5  6  1  0
  6  3  1  0
  2  7  1  0
  3  8  1  0
  4  9  1  0
  4 10  1  0
  5 11  1  0
  5 12  1  0
  6 13  1  0
  6 14  1  0
M  END
