
     RDKit          3D

 17 18  0  0  0  0  0  0  0  0999 V2000
    3.0018   -0.4517   -1.3094 O   0  0  0  0  0  0  0  0  0  0  0  0
    2.3540   -0.7699   -0.2786 C   0  0  0  0  0  0  0  0  0  0  0  0
    1.0063   -0.3170   -0.0149 C   0  0  0  0  0  0  0  0  0  0  0  0
    0.2648   -0.6067    1.0390 C   0  0  0  0  0  0  0  0  0  0  0  0
   -1.0540    0.0947    0.8420 C   0  0  0  0  0  0  0  0  0  0  0  0
   -1.6713   -0.5270   -0.3804 C   0  0  0  0  0  0  0  0  0  0  0  0
   -0.8777   -0.1175   -1.4332 O   0  0  0  0  0  0  0  0  0  0  0  0
    0.2158    0.5676   -0.9039 C   0  0  0  0  0  0  0  0  0  0  0  0
   -0.5068    1.3798    0.1935 C   0  0  0  0  0  0  0  0  0  0  0  0
    2.8762   -1.4254    0.4285 H   0  0  0  0  0  0  0  0  0  0  0  0
    0.6020   -1.2314    1.8477 H   0  0  0  0  0  0  0  0  0  0  0  0
   -1.6458    0.2304    1.6987 H   0  0  0  0  0  0  0  0  0  0  0  0
   -1.5704   -1.6407   -0.2534 H   0  0  0  0  0  0  0  0  0  0  0  0
   -2.7316   -0.2148   -0.4720 H   0  0  0  0  0  0  0  0  0  0  0  0
    0.7617    1.1698   -1.5909 H   0  0  0  0  0  0  0  0  0  0  0  0
   -1.2874    2.0083   -0.2074 H   0  0  0  0  0  0  0  0  0  0  0  0
    0.2625    1.8513    0.7949 H   0  0  0  0  0  0  0  0  0  0  0  0
  1  2  2  0
  2  3  1  0
  3  4  2  0
  4  5  1  0
  5  6  1  0
  6  7  1  0
  7  8  1  0
  8  9  1  0
  8  3  1  0
  9  5  1  0
  2 10  1  0
  4 11  1  0
  5 12  1  0
  6 13  1  0
  6 14  1  0
  8 15  1  0
  9 16  1  0
  9 17  1  0
M  END
