
     RDKit          3D

 17 18  0  0  0  0  0  0  0  0999 V2000
    2.4738   -0.4767    1.3088 O   0  0  0  0  0  0  0  0  0  0  0  0
    2.0137   -0.0500    0.2413 C   0  0  0  0  0  0  0  0  0  0  0  0
    0.6319   -0.0643   -0.0378 C   0  0  0  0  0  0  0  0  0  0  0  0
    0.0959    1.0892   -0.8592 C   0  0  0  0  0  0  0  0  0  0  0  0
   -1.2158    1.1342   -0.6707 C   0  0  0  0  0  0  0  0  0  0  0  0
   -1.5589    0.0447    0.2736 C   0  0  0  0  0  0  0  0  0  0  0  0
   -0.3049    0.1005    1.1767 C   0  0  0  0  0  0  0  0  0  0  0  0
   -1.3639   -1.1907   -0.3447 O   0  0  0  0  0  0  0  0  0  0  0  0
    0.0084   -1.3006   -0.6080 C   0  0  0  0  0  0  0  0  0  0  0  0
    2.7500    0.3327   -0.4575 H   0  0  0  0  0  0  0  0  0  0  0  0
    0.7250    1.7281   -1.4722 H   0  0  0  0  0  0  0  0  0  0  0  0
   -1.9091    1.8202   -1.1093 H   0  0  0  0  0  0  0  0  0  0  0  0
   -2.4730    0.1431    0.8130 H   0  0  0  0  0  0  0  0  0  0  0  0
   -0.2513   -0.7638    1.8379 H   0  0  0  0  0  0  0  0  0  0  0  0
   -0.1923    1.0775    1.6461 H   0  0  0  0  0  0  0  0  0  0  0  0
    0.2091   -1.4349   -1.6875 H   0  0  0  0  0  0  0  0  0  0  0  0
    0.3614   -2.1892   -0.0505 H   0  0  0  0  0  0  0  0  0  0  0  0
  1  2  2  0
  2  3  1  0
  3  4  1  0
  4  5  2  0
  5  6  1  0
  6  7  1  0
  6  8  1  0
  8  9  1  0
  7  3  1  0
  9  3  1  0
  2 10  1  0
  4 11  1  0
  5 12  1  0
  6 13  1  0
  7 14  1  0
  7 15  1  0
  9 16  1  0
  9 17  1  0
M  END
