
     RDKit          3D

 19 19  0  0  0  0  0  0  0  0999 V2000
    3.7418    0.2393   -0.5293 O   0  0  0  0  0  0  0  0  0  0  0  0
    2.8631    0.6304    0.2746 C   0  0  0  0  0  0  0  0  0  0  0  0
    1.4702    0.0785    0.1750 C   0  0  0  0  0  0  0  0  0  0  0  0
    0.4675    0.3992    0.9451 C   0  0  0  0  0  0  0  0  0  0  0  0
   -0.7537   -0.3310    0.5665 C   0  0  0  0  0  0  0  0  0  0  0  0
   -1.8913    0.6613    0.5217 C   0  0  0  0  0  0  0  0  0  0  0  0
   -3.0981    0.1025    0.1775 O   0  0  0  0  0  0  0  0  0  0  0  0
   -0.4546   -0.7385   -0.8905 C   0  0  0  0  0  0  0  0  0  0  0  0
    1.0327   -0.9280   -0.8121 C   0  0  0  0  0  0  0  0  0  0  0  0
    3.0223    1.3472    1.0523 H   0  0  0  0  0  0  0  0  0  0  0  0
    0.5017    1.1151    1.7727 H   0  0  0  0  0  0  0  0  0  0  0  0
   -0.9553   -1.2142    1.1659 H   0  0  0  0  0  0  0  0  0  0  0  0
   -1.6457    1.4294   -0.2475 H   0  0  0  0  0  0  0  0  0  0  0  0
   -2.0126    1.1809    1.5003 H   0  0  0  0  0  0  0  0  0  0  0  0
   -3.3777    0.3231   -0.7446 H   0  0  0  0  0  0  0  0  0  0  0  0
   -0.7182    0.0666   -1.5916 H   0  0  0  0  0  0  0  0  0  0  0  0
   -0.9894   -1.6832   -1.1195 H   0  0  0  0  0  0  0  0  0  0  0  0
    1.5257   -0.7265   -1.7849 H   0  0  0  0  0  0  0  0  0  0  0  0
    1.2716   -1.9520   -0.4317 H   0  0  0  0  0  0  0  0  0  0  0  0
  1  2  2  0
  2  3  1  0
  3  4  2  0
  4  5  1  0
  5  6  1  0
  6  7  1  0
  5  8  1  0
  8  9  1  0
  9  3  1  0
  2 10  1  0
  4 11  1  0
  5 12  1  0
  6 13  1  0
  6 14  1  0
  7 15  1  0
  8 16  1  0
  8 17  1  0
  9 18  1  0
  9 19  1  0
M  END
