
     RDKit          3D

 16 17  0  0  0  0  0  0  0  0999 V2000
    2.9357    1.4122   -0.1516 O   0  0  0  0  0  0  0  0  0  0  0  0
    1.9969    0.7548    0.2414 C   0  0  0  0  0  0  0  0  0  0  0  0
    1.1139    0.0580   -0.7306 C   0  0  0  0  0  0  0  0  0  0  0  0
    0.6650   -1.3451   -0.2395 C   0  0  0  0  0  0  0  0  0  0  0  0
   -0.2652   -0.2513   -0.3546 C   0  0  0  0  0  0  0  0  0  0  0  0
   -0.8877    0.5029    0.7574 C   0  0  0  0  0  0  0  0  0  0  0  0
   -2.1308    0.1184   -0.0380 C   0  0  0  0  0  0  0  0  0  0  0  0
   -1.3481   -0.1867   -1.1639 O   0  0  0  0  0  0  0  0  0  0  0  0
    1.8315    0.6973    1.3079 H   0  0  0  0  0  0  0  0  0  0  0  0
    1.3380    0.1584   -1.7946 H   0  0  0  0  0  0  0  0  0  0  0  0
    0.6556   -2.1180   -1.0632 H   0  0  0  0  0  0  0  0  0  0  0  0
    1.1073   -1.7288    0.6789 H   0  0  0  0  0  0  0  0  0  0  0  0
   -0.8321    0.1067    1.7685 H   0  0  0  0  0  0  0  0  0  0  0  0
   -0.7323    1.5974    0.6468 H   0  0  0  0  0  0  0  0  0  0  0  0
   -2.6388   -0.7563    0.3924 H   0  0  0  0  0  0  0  0  0  0  0  0
   -2.8090    0.9799   -0.2574 H   0  0  0  0  0  0  0  0  0  0  0  0
  1  2  2  0
  2  3  1  0
  3  4  1  0
  4  5  1  0
  5  6  1  0
  6  7  1  0
  7  8  1  0
  5  3  1  0
  8  5  1  0
  2  9  1  0
  3 10  1  0
  4 11  1  0
  4 12  1  0
  6 13  1  0
  6 14  1  0
  7 15  1  0
  7 16  1  0
M  END
