
     RDKit          3D

 16 15  0  0  0  0  0  0  0  0999 V2000
   -4.1223    0.9796   -1.5264 O   0  0  0  0  0  0  0  0  0  0  0  0
   -3.1448    0.7292   -0.8468 C   0  0  0  0  0  0  0  0  0  0  0  0
   -2.0048    0.0414   -1.5036 C   0  0  0  0  0  0  0  0  0  0  0  0
   -0.9252   -0.2083   -0.5827 C   0  0  0  0  0  0  0  0  0  0  0  0
   -0.0067   -0.4397    0.1905 C   0  0  0  0  0  0  0  0  0  0  0  0
    1.0973   -0.6922    1.1177 C   0  0  0  0  0  0  0  0  0  0  0  0
    2.3473   -0.0290    0.5710 C   0  0  0  0  0  0  0  0  0  0  0  0
    3.4358   -0.2359    1.4170 O   0  0  0  0  0  0  0  0  0  0  0  0
   -3.1536    1.0169    0.1924 H   0  0  0  0  0  0  0  0  0  0  0  0
   -1.6870    0.6831   -2.3517 H   0  0  0  0  0  0  0  0  0  0  0  0
   -2.4141   -0.8959   -1.9644 H   0  0  0  0  0  0  0  0  0  0  0  0
    1.2904   -1.7879    1.2157 H   0  0  0  0  0  0  0  0  0  0  0  0
    0.8933   -0.3019    2.1346 H   0  0  0  0  0  0  0  0  0  0  0  0
    2.1940    1.0442    0.4260 H   0  0  0  0  0  0  0  0  0  0  0  0
    2.6291   -0.4998   -0.4099 H   0  0  0  0  0  0  0  0  0  0  0  0
    3.5712    0.5963    1.9401 H   0  0  0  0  0  0  0  0  0  0  0  0
  1  2  2  0
  2  3  1  0
  3  4  1  0
  4  5  3  0
  5  6  1  0
  6  7  1  0
  7  8  1  0
  2  9  1  0
  3 10  1  0
  3 11  1  0
  6 12  1  0
  6 13  1  0
  7 14  1  0
  7 15  1  0
  8 16  1  0
M  END
