
     RDKit          3D

 19 20  0  0  0  0  0  0  0  0999 V2000
    3.6200    0.4090   -1.1078 O   0  0  0  0  0  0  0  0  0  0  0  0
    2.6654    0.1007   -0.3896 C   0  0  0  0  0  0  0  0  0  0  0  0
    1.4645    0.9560   -0.2564 C   0  0  0  0  0  0  0  0  0  0  0  0
    1.1771    1.2690    1.1695 O   0  0  0  0  0  0  0  0  0  0  0  0
    0.3184    0.4910    0.4036 C   0  0  0  0  0  0  0  0  0  0  0  0
   -1.0681    1.0596    0.2725 C   0  0  0  0  0  0  0  0  0  0  0  0
   -2.0288   -0.0811    0.2170 C   0  0  0  0  0  0  0  0  0  0  0  0
   -1.1548   -1.2707   -0.0765 C   0  0  0  0  0  0  0  0  0  0  0  0
    0.0998   -0.9491    0.7184 C   0  0  0  0  0  0  0  0  0  0  0  0
    2.7826   -0.8492    0.1342 H   0  0  0  0  0  0  0  0  0  0  0  0
    1.5130    1.8871   -0.8601 H   0  0  0  0  0  0  0  0  0  0  0  0
   -1.3153    1.6719    1.1800 H   0  0  0  0  0  0  0  0  0  0  0  0
   -1.1896    1.7162   -0.6179 H   0  0  0  0  0  0  0  0  0  0  0  0
   -2.5298   -0.2846    1.1959 H   0  0  0  0  0  0  0  0  0  0  0  0
   -2.7475    0.0710   -0.6052 H   0  0  0  0  0  0  0  0  0  0  0  0
   -0.8851   -1.2208   -1.1496 H   0  0  0  0  0  0  0  0  0  0  0  0
   -1.5984   -2.2189    0.2274 H   0  0  0  0  0  0  0  0  0  0  0  0
    0.9076   -1.6217    0.3570 H   0  0  0  0  0  0  0  0  0  0  0  0
   -0.0308   -1.1355    1.7888 H   0  0  0  0  0  0  0  0  0  0  0  0
  1  2  2  0
  2  3  1  0
  3  4  1  0
  4  5  1  0
  5  6  1  0
  6  7  1  0
  7  8  1  0
  8  9  1  0
  5  3  1  0
  9  5  1  0
  2 10  1  0
  3 11  1  0
  6 12  1  0
  6 13  1  0
  7 14  1  0
  7 15  1  0
  8 16  1  0
  8 17  1  0
  9 18  1  0
  9 19  1  0
M  END
