
     RDKit          3D

 19 19  0  0  0  0  0  0  0  0999 V2000
   -3.2165   -0.8778   -1.1001 O   0  0  0  0  0  0  0  0  0  0  0  0
   -2.1741   -0.9910   -0.4771 C   0  0  0  0  0  0  0  0  0  0  0  0
   -1.6045    0.0850    0.3270 C   0  0  0  0  0  0  0  0  0  0  0  0
   -2.4624    1.1971    0.2294 O   0  0  0  0  0  0  0  0  0  0  0  0
   -0.2485    0.5421   -0.0959 C   0  0  0  0  0  0  0  0  0  0  0  0
   -0.3182    1.0022   -1.4011 O   0  0  0  0  0  0  0  0  0  0  0  0
    0.8189   -0.5036   -0.0244 C   0  0  0  0  0  0  0  0  0  0  0  0
    2.1931    0.0344   -0.4744 C   0  0  0  0  0  0  0  0  0  0  0  0
    1.9386   -0.4532    0.9164 C   0  0  0  0  0  0  0  0  0  0  0  0
   -1.6680   -1.9453   -0.5410 H   0  0  0  0  0  0  0  0  0  0  0  0
   -1.6512   -0.2233    1.3977 H   0  0  0  0  0  0  0  0  0  0  0  0
   -2.2644    1.7358   -0.5772 H   0  0  0  0  0  0  0  0  0  0  0  0
    0.0443    1.3935    0.5516 H   0  0  0  0  0  0  0  0  0  0  0  0
    0.5983    1.1314   -1.7753 H   0  0  0  0  0  0  0  0  0  0  0  0
    0.5408   -1.4688   -0.5234 H   0  0  0  0  0  0  0  0  0  0  0  0
    2.7626   -0.5764   -1.1949 H   0  0  0  0  0  0  0  0  0  0  0  0
    2.3340    1.1052   -0.5778 H   0  0  0  0  0  0  0  0  0  0  0  0
    2.4297   -1.4414    1.1504 H   0  0  0  0  0  0  0  0  0  0  0  0
    1.9476    0.2541    1.7558 H   0  0  0  0  0  0  0  0  0  0  0  0
  1  2  2  0
  2  3  1  0
  3  4  1  0
  3  5  1  0
  5  6  1  0
  5  7  1  0
  7  8  1  0
  8  9  1  0
  9  7  1  0
  2 10  1  0
  3 11  1  0
  4 12  1  0
  5 13  1  0
  6 14  1  0
  7 15  1  0
  8 16  1  0
  8 17  1  0
  9 18  1  0
  9 19  1  0
M  END
