
     RDKit          3D

 16 16  0  0  0  0  0  0  0  0999 V2000
   -1.9889    1.3700    0.3899 O   0  0  0  0  0  0  0  0  0  0  0  0
   -2.4057    0.2775    0.0417 C   0  0  0  0  0  0  0  0  0  0  0  0
   -1.4112   -0.7736   -0.3350 C   0  0  0  0  0  0  0  0  0  0  0  0
   -0.0234   -0.2408   -0.2008 C   0  0  0  0  0  0  0  0  0  0  0  0
    0.9016   -0.7541    0.6033 C   0  0  0  0  0  0  0  0  0  0  0  0
    2.1454    0.0785    0.4313 C   0  0  0  0  0  0  0  0  0  0  0  0
    1.5961    1.2882    0.0128 O   0  0  0  0  0  0  0  0  0  0  0  0
    0.6004    0.9116   -0.8920 C   0  0  0  0  0  0  0  0  0  0  0  0
   -3.4707    0.0540   -0.0002 H   0  0  0  0  0  0  0  0  0  0  0  0
   -1.6198   -1.1260   -1.3712 H   0  0  0  0  0  0  0  0  0  0  0  0
   -1.5778   -1.6498    0.3232 H   0  0  0  0  0  0  0  0  0  0  0  0
    0.8361   -1.6036    1.2755 H   0  0  0  0  0  0  0  0  0  0  0  0
    2.7278   -0.3785   -0.4014 H   0  0  0  0  0  0  0  0  0  0  0  0
    2.6941    0.1472    1.3741 H   0  0  0  0  0  0  0  0  0  0  0  0
   -0.0952    1.7679   -1.0106 H   0  0  0  0  0  0  0  0  0  0  0  0
    1.0912    0.6316   -1.8434 H   0  0  0  0  0  0  0  0  0  0  0  0
  1  2  2  0
  2  3  1  0
  3  4  1  0
  4  5  2  0
  5  6  1  0
  6  7  1  0
  7  8  1  0
  8  4  1  0
  2  9  1  0
  3 10  1  0
  3 11  1  0
  5 12  1  0
  6 13  1  0
  6 14  1  0
  8 15  1  0
  8 16  1  0
M  END
