
     RDKit          3D

 19 18  0  0  0  0  0  0  0  0999 V2000
    1.9467   -1.2859    1.1036 O   0  0  0  0  0  0  0  0  0  0  0  0
    1.3385   -0.3635    1.6041 C   0  0  0  0  0  0  0  0  0  0  0  0
    0.3059    0.3360    0.7977 C   0  0  0  0  0  0  0  0  0  0  0  0
    1.0279    1.1292   -0.2773 C   0  0  0  0  0  0  0  0  0  0  0  0
    1.7817    0.2959   -1.1050 O   0  0  0  0  0  0  0  0  0  0  0  0
   -0.6111   -0.6855    0.2387 C   0  0  0  0  0  0  0  0  0  0  0  0
    0.1054   -1.5599   -0.5583 O   0  0  0  0  0  0  0  0  0  0  0  0
   -1.7497   -0.1415   -0.5720 C   0  0  0  0  0  0  0  0  0  0  0  0
   -2.5442    0.7513    0.1230 O   0  0  0  0  0  0  0  0  0  0  0  0
    1.5720   -0.0868    2.6177 H   0  0  0  0  0  0  0  0  0  0  0  0
   -0.1801    1.0780    1.4573 H   0  0  0  0  0  0  0  0  0  0  0  0
    1.7287    1.8563    0.1799 H   0  0  0  0  0  0  0  0  0  0  0  0
    0.3146    1.7240   -0.8896 H   0  0  0  0  0  0  0  0  0  0  0  0
    2.6484    0.1434   -0.6151 H   0  0  0  0  0  0  0  0  0  0  0  0
   -1.0315   -1.2782    1.0760 H   0  0  0  0  0  0  0  0  0  0  0  0
   -0.5469   -2.0469   -1.1220 H   0  0  0  0  0  0  0  0  0  0  0  0
   -2.4030   -1.0123   -0.8357 H   0  0  0  0  0  0  0  0  0  0  0  0
   -1.4013    0.2681   -1.5463 H   0  0  0  0  0  0  0  0  0  0  0  0
   -2.3021    0.8783    1.0586 H   0  0  0  0  0  0  0  0  0  0  0  0
  1  2  2  0
  2  3  1  0
  3  4  1  0
  4  5  1  0
  3  6  1  0
  6  7  1  0
  6  8  1  0
  8  9  1  0
  2 10  1  0
  3 11  1  0
  4 12  1  0
  4 13  1  0
  5 14  1  0
  6 15  1  0
  7 16  1  0
  8 17  1  0
  8 18  1  0
  9 19  1  0
M  END
