
     RDKit          3D

 17 17  0  0  0  0  0  0  0  0999 V2000
   -3.1588   -0.9478   -0.7770 O   0  0  0  0  0  0  0  0  0  0  0  0
   -2.6104   -0.7076    0.2849 C   0  0  0  0  0  0  0  0  0  0  0  0
   -1.1453   -0.8716    0.4929 C   0  0  0  0  0  0  0  0  0  0  0  0
   -0.4646    0.3095   -0.1337 C   0  0  0  0  0  0  0  0  0  0  0  0
    1.0333    0.2882   -0.0037 C   0  0  0  0  0  0  0  0  0  0  0  0
    1.8122   -0.8139   -0.5755 C   0  0  0  0  0  0  0  0  0  0  0  0
    3.0134   -0.8472   -0.4839 O   0  0  0  0  0  0  0  0  0  0  0  0
    1.6629    1.6663    0.0663 C   0  0  0  0  0  0  0  0  0  0  0  0
    1.6117    0.8173    1.1702 O   0  0  0  0  0  0  0  0  0  0  0  0
   -3.2417   -0.3615    1.0934 H   0  0  0  0  0  0  0  0  0  0  0  0
   -0.9426   -0.9039    1.5790 H   0  0  0  0  0  0  0  0  0  0  0  0
   -0.8413   -1.8344    0.0369 H   0  0  0  0  0  0  0  0  0  0  0  0
   -0.6911    0.2552   -1.2371 H   0  0  0  0  0  0  0  0  0  0  0  0
   -0.9296    1.2154    0.2592 H   0  0  0  0  0  0  0  0  0  0  0  0
    1.3061   -1.6123   -1.0896 H   0  0  0  0  0  0  0  0  0  0  0  0
    0.9801    2.5449    0.1832 H   0  0  0  0  0  0  0  0  0  0  0  0
    2.6058    1.8034   -0.4799 H   0  0  0  0  0  0  0  0  0  0  0  0
  1  2  2  0
  2  3  1  0
  3  4  1  0
  4  5  1  0
  5  6  1  0
  6  7  2  0
  5  8  1  0
  8  9  1  0
  9  5  1  0
  2 10  1  0
  3 11  1  0
  3 12  1  0
  4 13  1  0
  4 14  1  0
  6 15  1  0
  8 16  1  0
  8 17  1  0
M  END
