
     RDKit          3D

 16 16  0  0  0  0  0  0  0  0999 V2000
   -2.4865   -0.6223    1.7460 O   0  0  0  0  0  0  0  0  0  0  0  0
   -1.3043   -0.4527    1.4166 C   0  0  0  0  0  0  0  0  0  0  0  0
   -0.8777   -0.7552    0.0446 C   0  0  0  0  0  0  0  0  0  0  0  0
   -1.9687   -1.2421   -0.7199 O   0  0  0  0  0  0  0  0  0  0  0  0
   -0.2348    0.3993   -0.6309 C   0  0  0  0  0  0  0  0  0  0  0  0
    1.0012    0.9263   -0.0339 C   0  0  0  0  0  0  0  0  0  0  0  0
    2.2255    0.1875    0.1463 C   0  0  0  0  0  0  0  0  0  0  0  0
    1.3207    0.3538    1.2946 O   0  0  0  0  0  0  0  0  0  0  0  0
   -0.6622   -0.0870    2.1810 H   0  0  0  0  0  0  0  0  0  0  0  0
   -0.0975   -1.5768    0.0596 H   0  0  0  0  0  0  0  0  0  0  0  0
   -2.4073   -0.4640   -1.1406 H   0  0  0  0  0  0  0  0  0  0  0  0
   -1.0100    1.2309   -0.6362 H   0  0  0  0  0  0  0  0  0  0  0  0
   -0.1269    0.1636   -1.7339 H   0  0  0  0  0  0  0  0  0  0  0  0
    1.0857    2.0468    0.0036 H   0  0  0  0  0  0  0  0  0  0  0  0
    2.3925   -0.8609   -0.0975 H   0  0  0  0  0  0  0  0  0  0  0  0
    3.1503    0.7526    0.3729 H   0  0  0  0  0  0  0  0  0  0  0  0
  1  2  2  0
  2  3  1  0
  3  4  1  0
  3  5  1  0
  5  6  1  0
  6  7  1  0
  7  8  1  0
  8  6  1  0
  2  9  1  0
  3 10  1  0
  4 11  1  0
  5 12  1  0
  5 13  1  0
  6 14  1  0
  7 15  1  0
  7 16  1  0
M  END
