
     RDKit          3D

 15 15  0  0  0  0  0  0  0  0999 V2000
    1.7376    1.2959   -0.9041 O   0  0  0  0  0  0  0  0  0  0  0  0
    2.1001    0.5107   -0.0584 C   0  0  0  0  0  0  0  0  0  0  0  0
    1.2188   -0.5837    0.3624 C   0  0  0  0  0  0  0  0  0  0  0  0
   -0.1059   -0.5771   -0.3665 C   0  0  0  0  0  0  0  0  0  0  0  0
   -0.9850   -1.6211    0.0140 O   0  0  0  0  0  0  0  0  0  0  0  0
   -2.0278   -0.7507   -0.2087 C   0  0  0  0  0  0  0  0  0  0  0  0
   -3.1898   -0.8873   -0.6094 O   0  0  0  0  0  0  0  0  0  0  0  0
   -1.1516    0.3440    0.2303 C   0  0  0  0  0  0  0  0  0  0  0  0
   -1.2938    1.5501   -0.4341 O   0  0  0  0  0  0  0  0  0  0  0  0
    3.0753    0.6300    0.3763 H   0  0  0  0  0  0  0  0  0  0  0  0
    1.6737   -1.5886    0.1866 H   0  0  0  0  0  0  0  0  0  0  0  0
    0.9886   -0.5644    1.4602 H   0  0  0  0  0  0  0  0  0  0  0  0
   -0.0490   -0.4946   -1.4576 H   0  0  0  0  0  0  0  0  0  0  0  0
   -0.9845    0.4212    1.3196 H   0  0  0  0  0  0  0  0  0  0  0  0
   -1.0067    2.3157    0.0892 H   0  0  0  0  0  0  0  0  0  0  0  0
  1  2  2  0
  2  3  1  0
  3  4  1  0
  4  5  1  0
  5  6  1  0
  6  7  2  0
  6  8  1  0
  8  9  1  0
  8  4  1  0
  2 10  1  0
  3 11  1  0
  3 12  1  0
  4 13  1  0
  8 14  1  0
  9 15  1  0
M  END
