
     RDKit          3D

 17 17  0  0  0  0  0  0  0  0999 V2000
    2.9970    2.4853    1.5564 O   0  0  0  0  0  0  0  0  0  0  0  0
    3.0379    1.2767    1.2137 C   0  0  0  0  0  0  0  0  0  0  0  0
    1.9365    0.5013    0.8674 C   0  0  0  0  0  0  0  0  0  0  0  0
    0.7691   -0.2895    0.5075 C   0  0  0  0  0  0  0  0  0  0  0  0
   -0.1764   -0.9192    0.2242 C   0  0  0  0  0  0  0  0  0  0  0  0
   -0.2975   -2.3123    0.0720 O   0  0  0  0  0  0  0  0  0  0  0  0
   -1.5969   -0.2905    0.7484 C   0  0  0  0  0  0  0  0  0  0  0  0
   -1.3337    0.7884   -0.2704 C   0  0  0  0  0  0  0  0  0  0  0  0
   -0.8908   -0.3154   -1.1982 C   0  0  0  0  0  0  0  0  0  0  0  0
    4.0500    0.7919    1.1933 H   0  0  0  0  0  0  0  0  0  0  0  0
   -1.0981   -2.4306   -0.5753 H   0  0  0  0  0  0  0  0  0  0  0  0
   -1.3113    0.0256    1.7992 H   0  0  0  0  0  0  0  0  0  0  0  0
   -2.3888   -0.9799    0.6091 H   0  0  0  0  0  0  0  0  0  0  0  0
   -1.9849    1.5255   -0.5787 H   0  0  0  0  0  0  0  0  0  0  0  0
   -0.2827    1.2934    0.0059 H   0  0  0  0  0  0  0  0  0  0  0  0
    0.0670   -0.0821   -1.7441 H   0  0  0  0  0  0  0  0  0  0  0  0
   -1.4963   -1.0685   -1.5769 H   0  0  0  0  0  0  0  0  0  0  0  0
  1  2  2  0
  2  3  1  0
  3  4  3  0
  4  5  1  0
  5  6  1  0
  5  7  1  0
  7  8  1  0
  8  9  1  0
  9  5  1  0
  2 10  1  0
  6 11  1  0
  7 12  1  0
  7 13  1  0
  8 14  1  0
  8 15  1  0
  9 16  1  0
  9 17  1  0
M  END
