
     RDKit          3D

 19 20  0  0  0  0  0  0  0  0999 V2000
   -1.9004    2.6220   -0.3987 O   0  0  0  0  0  0  0  0  0  0  0  0
   -1.1573    1.7656    0.0662 C   0  0  0  0  0  0  0  0  0  0  0  0
   -0.9496    0.4373   -0.5559 C   0  0  0  0  0  0  0  0  0  0  0  0
   -1.3065   -0.6446    0.4335 C   0  0  0  0  0  0  0  0  0  0  0  0
   -0.0603   -1.4282    0.6828 C   0  0  0  0  0  0  0  0  0  0  0  0
    0.8422   -1.0931   -0.4540 C   0  0  0  0  0  0  0  0  0  0  0  0
    1.6315    0.1821   -0.2523 C   0  0  0  0  0  0  0  0  0  0  0  0
    1.6648    0.7381    1.0332 O   0  0  0  0  0  0  0  0  0  0  0  0
    0.4076    0.1894   -1.0644 C   0  0  0  0  0  0  0  0  0  0  0  0
   -0.6470    2.0304    0.9745 H   0  0  0  0  0  0  0  0  0  0  0  0
   -1.6801    0.3548   -1.3889 H   0  0  0  0  0  0  0  0  0  0  0  0
   -1.7336   -0.2384    1.3700 H   0  0  0  0  0  0  0  0  0  0  0  0
   -2.0737   -1.3553    0.0274 H   0  0  0  0  0  0  0  0  0  0  0  0
   -0.2212   -2.5033    0.8450 H   0  0  0  0  0  0  0  0  0  0  0  0
    0.3798   -1.0390    1.6476 H   0  0  0  0  0  0  0  0  0  0  0  0
    1.1916   -1.8579   -1.1574 H   0  0  0  0  0  0  0  0  0  0  0  0
    2.5961    0.1891   -0.7640 H   0  0  0  0  0  0  0  0  0  0  0  0
    2.4602    1.3201    1.1314 H   0  0  0  0  0  0  0  0  0  0  0  0
    0.5561    0.3310   -2.1761 H   0  0  0  0  0  0  0  0  0  0  0  0
  1  2  2  0
  2  3  1  0
  3  4  1  0
  4  5  1  0
  5  6  1  0
  6  7  1  0
  7  8  1  0
  7  9  1  0
  9  3  1  0
  9  6  1  0
  2 10  1  0
  3 11  1  0
  4 12  1  0
  4 13  1  0
  5 14  1  0
  5 15  1  0
  6 16  1  0
  7 17  1  0
  8 18  1  0
  9 19  1  0
M  END
