
     RDKit          3D

 15 15  0  0  0  0  0  0  0  0999 V2000
    1.2461   -1.4666    1.6776 O   0  0  0  0  0  0  0  0  0  0  0  0
    1.5388   -0.2418    1.4098 C   0  0  0  0  0  0  0  0  0  0  0  0
    0.9879    0.2811    0.1704 C   0  0  0  0  0  0  0  0  0  0  0  0
    0.6162   -0.4873   -1.0085 C   0  0  0  0  0  0  0  0  0  0  0  0
   -0.4587    0.2302   -0.1358 C   0  0  0  0  0  0  0  0  0  0  0  0
   -1.0897    1.4052   -0.7044 C   0  0  0  0  0  0  0  0  0  0  0  0
   -0.8786    2.5712   -0.3858 O   0  0  0  0  0  0  0  0  0  0  0  0
   -1.4066   -0.8103    0.3965 C   0  0  0  0  0  0  0  0  0  0  0  0
   -1.0487   -1.9386    0.7069 O   0  0  0  0  0  0  0  0  0  0  0  0
    2.1423    0.1868    2.1277 H   0  0  0  0  0  0  0  0  0  0  0  0
    1.4584    1.3023   -0.0655 H   0  0  0  0  0  0  0  0  0  0  0  0
    0.6372   -0.0447   -2.0628 H   0  0  0  0  0  0  0  0  0  0  0  0
    0.5526   -1.5965   -1.1013 H   0  0  0  0  0  0  0  0  0  0  0  0
   -1.8576    1.2232   -1.5509 H   0  0  0  0  0  0  0  0  0  0  0  0
   -2.4396   -0.6142    0.5260 H   0  0  0  0  0  0  0  0  0  0  0  0
  1  2  2  0
  2  3  1  0
  3  4  1  0
  4  5  1  0
  5  6  1  0
  6  7  2  0
  5  8  1  0
  8  9  2  0
  5  3  1  0
  2 10  1  0
  3 11  1  0
  4 12  1  0
  4 13  1  0
  6 14  1  0
  8 15  1  0
M  END
