
     RDKit          3D

 21 21  0  0  0  0  0  0  0  0999 V2000
    3.5851    0.2094    0.7913 O   0  0  0  0  0  0  0  0  0  0  0  0
    2.6585    0.1531    0.0059 C   0  0  0  0  0  0  0  0  0  0  0  0
    1.6200   -0.8846    0.0824 C   0  0  0  0  0  0  0  0  0  0  0  0
    0.5814   -0.7408   -1.0009 C   0  0  0  0  0  0  0  0  0  0  0  0
   -0.3508   -1.7574   -0.8488 O   0  0  0  0  0  0  0  0  0  0  0  0
   -0.1069    0.5886   -0.9713 C   0  0  0  0  0  0  0  0  0  0  0  0
   -0.8197    0.8627    0.3042 C   0  0  0  0  0  0  0  0  0  0  0  0
   -1.9089   -0.0788    0.6883 C   0  0  0  0  0  0  0  0  0  0  0  0
   -2.1941    1.3551    0.4187 C   0  0  0  0  0  0  0  0  0  0  0  0
    2.6137    0.9048   -0.7724 H   0  0  0  0  0  0  0  0  0  0  0  0
    1.1930   -0.9326    1.0944 H   0  0  0  0  0  0  0  0  0  0  0  0
    2.1329   -1.8716   -0.1074 H   0  0  0  0  0  0  0  0  0  0  0  0
    1.1086   -0.9294   -1.9614 H   0  0  0  0  0  0  0  0  0  0  0  0
   -0.1845   -2.3088   -0.0492 H   0  0  0  0  0  0  0  0  0  0  0  0
   -0.8477    0.5837   -1.8174 H   0  0  0  0  0  0  0  0  0  0  0  0
    0.6018    1.4348   -1.1526 H   0  0  0  0  0  0  0  0  0  0  0  0
   -0.1230    1.1628    1.1430 H   0  0  0  0  0  0  0  0  0  0  0  0
   -1.9643   -0.4332    1.7490 H   0  0  0  0  0  0  0  0  0  0  0  0
   -2.2925   -0.8440   -0.0154 H   0  0  0  0  0  0  0  0  0  0  0  0
   -2.4623    1.9847    1.2921 H   0  0  0  0  0  0  0  0  0  0  0  0
   -2.8403    1.5417   -0.4659 H   0  0  0  0  0  0  0  0  0  0  0  0
  1  2  2  0
  2  3  1  0
  3  4  1  0
  4  5  1  0
  4  6  1  0
  6  7  1  0
  7  8  1  0
  8  9  1  0
  9  7  1  0
  2 10  1  0
  3 11  1  0
  3 12  1  0
  4 13  1  0
  5 14  1  0
  6 15  1  0
  6 16  1  0
  7 17  1  0
  8 18  1  0
  8 19  1  0
  9 20  1  0
  9 21  1  0
M  END
