
     RDKit          3D

 17 18  0  0  0  0  0  0  0  0999 V2000
    3.0514   -1.4025    0.3398 O   0  0  0  0  0  0  0  0  0  0  0  0
    2.6340   -0.2370    0.4679 C   0  0  0  0  0  0  0  0  0  0  0  0
    1.2528    0.0876    0.0914 C   0  0  0  0  0  0  0  0  0  0  0  0
    0.7069    1.2865    0.1851 C   0  0  0  0  0  0  0  0  0  0  0  0
   -0.7027    1.2697   -0.2773 C   0  0  0  0  0  0  0  0  0  0  0  0
   -1.0381   -0.2037   -0.2457 C   0  0  0  0  0  0  0  0  0  0  0  0
   -2.1474   -0.7627    0.4409 C   0  0  0  0  0  0  0  0  0  0  0  0
   -2.1485   -0.5559   -1.0555 O   0  0  0  0  0  0  0  0  0  0  0  0
    0.2659   -0.8769   -0.4541 C   0  0  0  0  0  0  0  0  0  0  0  0
    3.2645    0.5220    0.8454 H   0  0  0  0  0  0  0  0  0  0  0  0
    1.2642    2.1665    0.5657 H   0  0  0  0  0  0  0  0  0  0  0  0
   -0.7380    1.6241   -1.3276 H   0  0  0  0  0  0  0  0  0  0  0  0
   -1.3734    1.8828    0.3373 H   0  0  0  0  0  0  0  0  0  0  0  0
   -2.2108   -1.8565    0.5682 H   0  0  0  0  0  0  0  0  0  0  0  0
   -2.8998   -0.1145    0.9249 H   0  0  0  0  0  0  0  0  0  0  0  0
    0.4663   -1.0156   -1.5342 H   0  0  0  0  0  0  0  0  0  0  0  0
    0.3527   -1.8141    0.1277 H   0  0  0  0  0  0  0  0  0  0  0  0
  1  2  2  0
  2  3  1  0
  3  4  2  0
  4  5  1  0
  5  6  1  0
  6  7  1  0
  7  8  1  0
  6  9  1  0
  9  3  1  0
  8  6  1  0
  2 10  1  0
  4 11  1  0
  5 12  1  0
  5 13  1  0
  7 14  1  0
  7 15  1  0
  9 16  1  0
  9 17  1  0
M  END
