
     RDKit          3D

 19 18  0  0  0  0  0  0  0  0999 V2000
   -3.6144   -0.8193    1.2220 O   0  0  0  0  0  0  0  0  0  0  0  0
   -2.9000   -0.6517    0.2633 C   0  0  0  0  0  0  0  0  0  0  0  0
   -2.8068    0.5781   -0.5370 C   0  0  0  0  0  0  0  0  0  0  0  0
   -1.5314    0.4735   -1.4743 C   0  0  0  0  0  0  0  0  0  0  0  0
   -0.4615    0.4921   -0.6172 C   0  0  0  0  0  0  0  0  0  0  0  0
    0.6870    0.4948    0.2807 C   0  0  0  0  0  0  0  0  0  0  0  0
    1.9081    0.4769    1.2139 C   0  0  0  0  0  0  0  0  0  0  0  0
    2.7947   -0.4165    0.0829 C   0  0  0  0  0  0  0  0  0  0  0  0
    3.8773   -0.9693    0.6219 O   0  0  0  0  0  0  0  0  0  0  0  0
   -2.2481   -1.5305   -0.0300 H   0  0  0  0  0  0  0  0  0  0  0  0
   -3.6617    0.7785   -1.1721 H   0  0  0  0  0  0  0  0  0  0  0  0
   -2.6179    1.4346    0.1652 H   0  0  0  0  0  0  0  0  0  0  0  0
   -1.5625    1.2761   -2.1732 H   0  0  0  0  0  0  0  0  0  0  0  0
   -1.6392   -0.5758   -1.8911 H   0  0  0  0  0  0  0  0  0  0  0  0
    2.3986    1.4260    1.1072 H   0  0  0  0  0  0  0  0  0  0  0  0
    1.8316   -0.3070    1.8568 H   0  0  0  0  0  0  0  0  0  0  0  0
    2.0948   -0.9948   -0.4692 H   0  0  0  0  0  0  0  0  0  0  0  0
    3.2307    0.5060   -0.5182 H   0  0  0  0  0  0  0  0  0  0  0  0
    4.2204   -1.6716   -0.0887 H   0  0  0  0  0  0  0  0  0  0  0  0
  1  2  2  0
  2  3  1  0
  3  4  1  0
  4  5  1  0
  5  6  3  0
  6  7  1  0
  7  8  1  0
  8  9  1  0
  2 10  1  0
  3 11  1  0
  3 12  1  0
  4 13  1  0
  4 14  1  0
  7 15  1  0
  7 16  1  0
  8 17  1  0
  8 18  1  0
  9 19  1  0
M  END
