
     RDKit          3D

 17 18  0  0  0  0  0  0  0  0999 V2000
   -2.3977    0.7658    1.5155 O   0  0  0  0  0  0  0  0  0  0  0  0
   -2.0505    0.6765    0.3584 C   0  0  0  0  0  0  0  0  0  0  0  0
   -0.6838    1.0343   -0.1429 C   0  0  0  0  0  0  0  0  0  0  0  0
   -0.0013   -0.2700   -0.5030 C   0  0  0  0  0  0  0  0  0  0  0  0
    1.3810    0.0379   -1.0390 C   0  0  0  0  0  0  0  0  0  0  0  0
    1.6072    0.3588    0.3966 C   0  0  0  0  0  0  0  0  0  0  0  0
    2.1028    1.2393    0.9946 O   0  0  0  0  0  0  0  0  0  0  0  0
    0.9291   -0.9310    0.5785 C   0  0  0  0  0  0  0  0  0  0  0  0
   -0.4154   -1.3533    0.3413 C   0  0  0  0  0  0  0  0  0  0  0  0
   -2.7911    0.3117   -0.3603 H   0  0  0  0  0  0  0  0  0  0  0  0
   -0.1461    1.5213    0.7444 H   0  0  0  0  0  0  0  0  0  0  0  0
   -0.7615    1.7537   -0.9589 H   0  0  0  0  0  0  0  0  0  0  0  0
    1.9594   -0.8362   -1.3886 H   0  0  0  0  0  0  0  0  0  0  0  0
    1.3962    0.9146   -1.7072 H   0  0  0  0  0  0  0  0  0  0  0  0
    1.6690   -1.7054    0.1624 H   0  0  0  0  0  0  0  0  0  0  0  0
   -0.6814   -2.2891   -0.2061 H   0  0  0  0  0  0  0  0  0  0  0  0
   -1.1159   -1.2289    1.2143 H   0  0  0  0  0  0  0  0  0  0  0  0
  1  2  2  0
  2  3  1  0
  3  4  1  0
  4  5  1  0
  5  6  1  0
  6  7  2  0
  6  8  1  0
  8  9  1  0
  8  4  1  0
  9  4  1  0
  2 10  1  0
  3 11  1  0
  3 12  1  0
  5 13  1  0
  5 14  1  0
  8 15  1  0
  9 16  1  0
  9 17  1  0
M  END
