
     RDKit          3D

 15 16  0  0  0  0  0  0  0  0999 V2000
    0.8304   -1.4639   -1.4836 O   0  0  0  0  0  0  0  0  0  0  0  0
    1.5816   -0.7980   -0.8070 C   0  0  0  0  0  0  0  0  0  0  0  0
    1.0962    0.1146    0.2321 C   0  0  0  0  0  0  0  0  0  0  0  0
   -0.0837   -0.2267    1.0347 C   0  0  0  0  0  0  0  0  0  0  0  0
   -1.2111   -0.9514    0.3978 C   0  0  0  0  0  0  0  0  0  0  0  0
   -1.3177    0.1336   -0.6097 C   0  0  0  0  0  0  0  0  0  0  0  0
   -2.0702    0.3456   -1.5348 O   0  0  0  0  0  0  0  0  0  0  0  0
   -0.1554    0.8556   -0.0527 C   0  0  0  0  0  0  0  0  0  0  0  0
   -0.2367    2.1673    0.3256 O   0  0  0  0  0  0  0  0  0  0  0  0
    2.6610   -0.8968   -0.9953 H   0  0  0  0  0  0  0  0  0  0  0  0
    1.8988    0.6962    0.7561 H   0  0  0  0  0  0  0  0  0  0  0  0
   -0.2157    0.1976    2.0666 H   0  0  0  0  0  0  0  0  0  0  0  0
   -2.1310   -1.0740    1.0262 H   0  0  0  0  0  0  0  0  0  0  0  0
   -0.8757   -1.8943   -0.0723 H   0  0  0  0  0  0  0  0  0  0  0  0
    0.2293    2.7945   -0.2836 H   0  0  0  0  0  0  0  0  0  0  0  0
  1  2  2  0
  2  3  1  0
  3  4  1  0
  4  5  1  0
  5  6  1  0
  6  7  2  0
  6  8  1  0
  8  9  1  0
  8  3  1  0
  8  4  1  0
  2 10  1  0
  3 11  1  0
  4 12  1  0
  5 13  1  0
  5 14  1  0
  9 15  1  0
M  END
