
     RDKit          3D

 19 19  0  0  0  0  0  0  0  0999 V2000
    4.0422    0.5636    0.1870 O   0  0  0  0  0  0  0  0  0  0  0  0
    2.9555    0.4214   -0.3524 C   0  0  0  0  0  0  0  0  0  0  0  0
    1.7963    0.1649    0.5385 C   0  0  0  0  0  0  0  0  0  0  0  0
    0.5098    0.0048   -0.2162 C   0  0  0  0  0  0  0  0  0  0  0  0
    0.5430   -1.0552   -1.1181 O   0  0  0  0  0  0  0  0  0  0  0  0
   -0.5610   -0.3603    0.8211 C   0  0  0  0  0  0  0  0  0  0  0  0
   -1.8983   -0.5477    0.1864 C   0  0  0  0  0  0  0  0  0  0  0  0
   -2.5410    0.5424   -0.5482 C   0  0  0  0  0  0  0  0  0  0  0  0
   -2.9009    0.3642    0.8004 O   0  0  0  0  0  0  0  0  0  0  0  0
    2.8888    0.4868   -1.4230 H   0  0  0  0  0  0  0  0  0  0  0  0
    1.6726    0.9571    1.2812 H   0  0  0  0  0  0  0  0  0  0  0  0
    2.0128   -0.7867    1.0807 H   0  0  0  0  0  0  0  0  0  0  0  0
    0.2399    0.9470   -0.7358 H   0  0  0  0  0  0  0  0  0  0  0  0
   -0.3501   -1.0366   -1.5819 H   0  0  0  0  0  0  0  0  0  0  0  0
   -0.5294    0.4357    1.5737 H   0  0  0  0  0  0  0  0  0  0  0  0
   -0.2061   -1.3132    1.2978 H   0  0  0  0  0  0  0  0  0  0  0  0
   -2.3636   -1.5687    0.1785 H   0  0  0  0  0  0  0  0  0  0  0  0
   -1.9498    1.4643   -0.7098 H   0  0  0  0  0  0  0  0  0  0  0  0
   -3.3606    0.3163   -1.2600 H   0  0  0  0  0  0  0  0  0  0  0  0
  1  2  2  0
  2  3  1  0
  3  4  1  0
  4  5  1  0
  4  6  1  0
  6  7  1  0
  7  8  1  0
  8  9  1  0
  9  7  1  0
  2 10  1  0
  3 11  1  0
  3 12  1  0
  4 13  1  0
  5 14  1  0
  6 15  1  0
  6 16  1  0
  7 17  1  0
  8 18  1  0
  8 19  1  0
M  END
