
     RDKit          3D

 16 16  0  0  0  0  0  0  0  0999 V2000
   -0.6214    2.4377    0.7504 O   0  0  0  0  0  0  0  0  0  0  0  0
   -1.1865    1.5675    0.1160 C   0  0  0  0  0  0  0  0  0  0  0  0
   -0.4374    0.6022   -0.7479 C   0  0  0  0  0  0  0  0  0  0  0  0
   -0.7933   -0.8064   -0.2977 C   0  0  0  0  0  0  0  0  0  0  0  0
    0.3903   -1.5739    0.1750 C   0  0  0  0  0  0  0  0  0  0  0  0
    1.3751   -0.8638    0.7765 O   0  0  0  0  0  0  0  0  0  0  0  0
    1.5370    0.4331    0.4353 C   0  0  0  0  0  0  0  0  0  0  0  0
    0.9094    0.8549   -0.7014 O   0  0  0  0  0  0  0  0  0  0  0  0
   -2.2644    1.5180    0.2018 H   0  0  0  0  0  0  0  0  0  0  0  0
   -0.7737    0.7729   -1.8050 H   0  0  0  0  0  0  0  0  0  0  0  0
   -1.6370   -0.7869    0.4464 H   0  0  0  0  0  0  0  0  0  0  0  0
   -1.2375   -1.3487   -1.1799 H   0  0  0  0  0  0  0  0  0  0  0  0
    0.8267   -2.1437   -0.6878 H   0  0  0  0  0  0  0  0  0  0  0  0
    0.0444   -2.3645    0.8944 H   0  0  0  0  0  0  0  0  0  0  0  0
    1.2337    1.0684    1.3188 H   0  0  0  0  0  0  0  0  0  0  0  0
    2.6347    0.6332    0.3049 H   0  0  0  0  0  0  0  0  0  0  0  0
  1  2  2  0
  2  3  1  0
  3  4  1  0
  4  5  1  0
  5  6  1  0
  6  7  1  0
  7  8  1  0
  8  3  1  0
  2  9  1  0
  3 10  1  0
  4 11  1  0
  4 12  1  0
  5 13  1  0
  5 14  1  0
  7 15  1  0
  7 16  1  0
M  END
