
     RDKit          3D

 15 15  0  0  0  0  0  0  0  0999 V2000
    2.6599   -0.3874   -1.5311 O   0  0  0  0  0  0  0  0  0  0  0  0
    2.6939   -0.2193   -0.2719 C   0  0  0  0  0  0  0  0  0  0  0  0
    1.5450   -0.1714    0.5047 O   0  0  0  0  0  0  0  0  0  0  0  0
    0.2989   -0.3106   -0.0985 C   0  0  0  0  0  0  0  0  0  0  0  0
   -0.6629   -1.2226    0.5685 C   0  0  0  0  0  0  0  0  0  0  0  0
   -0.6481   -2.2523    1.1988 O   0  0  0  0  0  0  0  0  0  0  0  0
   -1.7278   -0.2935    0.1169 C   0  0  0  0  0  0  0  0  0  0  0  0
   -0.6680    0.8014    0.2984 C   0  0  0  0  0  0  0  0  0  0  0  0
   -0.7694    1.8424   -0.5819 O   0  0  0  0  0  0  0  0  0  0  0  0
    3.6565   -0.1099    0.2081 H   0  0  0  0  0  0  0  0  0  0  0  0
    0.3472   -0.4529   -1.1928 H   0  0  0  0  0  0  0  0  0  0  0  0
   -1.9140   -0.3923   -0.9795 H   0  0  0  0  0  0  0  0  0  0  0  0
   -2.6053   -0.1966    0.7557 H   0  0  0  0  0  0  0  0  0  0  0  0
   -0.5913    1.0371    1.3689 H   0  0  0  0  0  0  0  0  0  0  0  0
   -1.6148    2.3280   -0.3644 H   0  0  0  0  0  0  0  0  0  0  0  0
  1  2  2  0
  2  3  1  0
  3  4  1  0
  4  5  1  0
  5  6  2  0
  5  7  1  0
  7  8  1  0
  8  9  1  0
  8  4  1  0
  2 10  1  0
  4 11  1  0
  7 12  1  0
  7 13  1  0
  8 14  1  0
  9 15  1  0
M  END
