
     RDKit          3D

 17 18  0  0  0  0  0  0  0  0999 V2000
    2.1100    1.7443   -0.5719 O   0  0  0  0  0  0  0  0  0  0  0  0
    2.5873    0.6187   -0.3804 C   0  0  0  0  0  0  0  0  0  0  0  0
    1.6788   -0.3627   -0.1223 O   0  0  0  0  0  0  0  0  0  0  0  0
    0.3364   -0.3719   -0.0274 C   0  0  0  0  0  0  0  0  0  0  0  0
   -0.1754   -1.8168    0.2911 C   0  0  0  0  0  0  0  0  0  0  0  0
   -0.5409   -0.6484    1.0981 C   0  0  0  0  0  0  0  0  0  0  0  0
   -1.7291    0.0923    0.4604 C   0  0  0  0  0  0  0  0  0  0  0  0
   -0.6314    0.6499   -0.4562 C   0  0  0  0  0  0  0  0  0  0  0  0
   -0.4322    1.9721   -0.0789 O   0  0  0  0  0  0  0  0  0  0  0  0
    3.6615    0.4085   -0.4125 H   0  0  0  0  0  0  0  0  0  0  0  0
   -0.7929   -2.2182   -0.5203 H   0  0  0  0  0  0  0  0  0  0  0  0
    0.5067   -2.5255    0.7423 H   0  0  0  0  0  0  0  0  0  0  0  0
   -0.3282   -0.5241    2.1453 H   0  0  0  0  0  0  0  0  0  0  0  0
   -2.4417   -0.5703   -0.0660 H   0  0  0  0  0  0  0  0  0  0  0  0
   -2.2024    0.7946    1.1378 H   0  0  0  0  0  0  0  0  0  0  0  0
   -0.8871    0.5913   -1.5283 H   0  0  0  0  0  0  0  0  0  0  0  0
   -0.7194    2.1664    0.8468 H   0  0  0  0  0  0  0  0  0  0  0  0
  1  2  2  0
  2  3  1  0
  3  4  1  0
  4  5  1  0
  5  6  1  0
  6  7  1  0
  7  8  1  0
  8  9  1  0
  6  4  1  0
  8  4  1  0
  2 10  1  0
  5 11  1  0
  5 12  1  0
  6 13  1  0
  7 14  1  0
  7 15  1  0
  8 16  1  0
  9 17  1  0
M  END
