
     RDKit          3D

 19 19  0  0  0  0  0  0  0  0999 V2000
    2.7556    0.6678   -0.9003 O   0  0  0  0  0  0  0  0  0  0  0  0
    2.3406    1.1604    0.1755 C   0  0  0  0  0  0  0  0  0  0  0  0
    1.5856    0.3586    1.0105 O   0  0  0  0  0  0  0  0  0  0  0  0
    1.2421   -0.9803    0.7418 C   0  0  0  0  0  0  0  0  0  0  0  0
    0.4008   -1.1546   -0.4749 C   0  0  0  0  0  0  0  0  0  0  0  0
   -0.9225   -0.4931   -0.4412 C   0  0  0  0  0  0  0  0  0  0  0  0
   -1.0345    0.9736   -0.2712 C   0  0  0  0  0  0  0  0  0  0  0  0
   -2.3878    0.4751    0.2877 C   0  0  0  0  0  0  0  0  0  0  0  0
   -1.6187   -0.6098    0.7886 O   0  0  0  0  0  0  0  0  0  0  0  0
    2.5922    2.1882    0.4002 H   0  0  0  0  0  0  0  0  0  0  0  0
    0.8030   -1.4669    1.6396 H   0  0  0  0  0  0  0  0  0  0  0  0
    2.1939   -1.5496    0.5704 H   0  0  0  0  0  0  0  0  0  0  0  0
    0.9648   -0.7170   -1.3516 H   0  0  0  0  0  0  0  0  0  0  0  0
    0.2762   -2.2627   -0.6666 H   0  0  0  0  0  0  0  0  0  0  0  0
   -1.6491   -0.8303   -1.2272 H   0  0  0  0  0  0  0  0  0  0  0  0
   -0.4596    1.4420    0.5294 H   0  0  0  0  0  0  0  0  0  0  0  0
   -1.2217    1.5875   -1.1700 H   0  0  0  0  0  0  0  0  0  0  0  0
   -2.8236    1.1176    1.0476 H   0  0  0  0  0  0  0  0  0  0  0  0
   -3.0375    0.0936   -0.5150 H   0  0  0  0  0  0  0  0  0  0  0  0
  1  2  2  0
  2  3  1  0
  3  4  1  0
  4  5  1  0
  5  6  1  0
  6  7  1  0
  7  8  1  0
  8  9  1  0
  9  6  1  0
  2 10  1  0
  4 11  1  0
  4 12  1  0
  5 13  1  0
  5 14  1  0
  6 15  1  0
  7 16  1  0
  7 17  1  0
  8 18  1  0
  8 19  1  0
M  END
