
     RDKit          3D

 14 13  0  0  0  0  0  0  0  0999 V2000
   -2.3696   -0.4698   -0.3088 O   0  0  0  0  0  0  0  0  0  0  0  0
   -2.4204    0.3097   -1.2803 C   0  0  0  0  0  0  0  0  0  0  0  0
   -1.6166    1.4353   -1.2573 O   0  0  0  0  0  0  0  0  0  0  0  0
   -0.7845    1.6350   -0.1321 C   0  0  0  0  0  0  0  0  0  0  0  0
    0.1611    0.5044    0.0224 C   0  0  0  0  0  0  0  0  0  0  0  0
    0.9456   -0.4054    0.1375 C   0  0  0  0  0  0  0  0  0  0  0  0
    1.9087   -1.5021    0.2554 C   0  0  0  0  0  0  0  0  0  0  0  0
    2.6362   -1.3060    1.4100 O   0  0  0  0  0  0  0  0  0  0  0  0
   -3.0908    0.0814   -2.1101 H   0  0  0  0  0  0  0  0  0  0  0  0
   -1.4204    1.6442    0.7866 H   0  0  0  0  0  0  0  0  0  0  0  0
   -0.2306    2.5958   -0.1974 H   0  0  0  0  0  0  0  0  0  0  0  0
    1.3624   -2.4612    0.2813 H   0  0  0  0  0  0  0  0  0  0  0  0
    2.5953   -1.5405   -0.6179 H   0  0  0  0  0  0  0  0  0  0  0  0
    2.3234   -0.5206    1.9235 H   0  0  0  0  0  0  0  0  0  0  0  0
  1  2  2  0
  2  3  1  0
  3  4  1  0
  4  5  1  0
  5  6  3  0
  6  7  1  0
  7  8  1  0
  2  9  1  0
  4 10  1  0
  4 11  1  0
  7 12  1  0
  7 13  1  0
  8 14  1  0
M  END
