
     RDKit          3D

 12 11  0  0  0  0  0  0  0  0999 V2000
   -1.9108    0.4832    1.2783 O   0  0  0  0  0  0  0  0  0  0  0  0
   -2.2910    0.1924    0.1266 C   0  0  0  0  0  0  0  0  0  0  0  0
   -1.3902   -0.3933   -0.7332 O   0  0  0  0  0  0  0  0  0  0  0  0
   -0.0632   -0.6997   -0.4338 C   0  0  0  0  0  0  0  0  0  0  0  0
    0.7457    0.4837   -0.0584 C   0  0  0  0  0  0  0  0  0  0  0  0
    0.2195    1.6376   -0.0317 O   0  0  0  0  0  0  0  0  0  0  0  0
    2.1419    0.2849    0.2740 C   0  0  0  0  0  0  0  0  0  0  0  0
    2.6135   -0.8734    0.2327 O   0  0  0  0  0  0  0  0  0  0  0  0
   -3.2949    0.3800   -0.2243 H   0  0  0  0  0  0  0  0  0  0  0  0
    0.3964   -1.1447   -1.3521 H   0  0  0  0  0  0  0  0  0  0  0  0
    0.0530   -1.4577    0.3672 H   0  0  0  0  0  0  0  0  0  0  0  0
    2.7801    1.1069    0.5545 H   0  0  0  0  0  0  0  0  0  0  0  0
  1  2  2  0
  2  3  1  0
  3  4  1  0
  4  5  1  0
  5  6  2  0
  5  7  1  0
  7  8  2  0
  2  9  1  0
  4 10  1  0
  4 11  1  0
  7 12  1  0
M  END
