
     RDKit          3D

 17 18  0  0  0  0  0  0  0  0999 V2000
    3.5440    0.6183    0.2753 O   0  0  0  0  0  0  0  0  0  0  0  0
    2.8592   -0.4523    0.3858 C   0  0  0  0  0  0  0  0  0  0  0  0
    1.5022   -0.4901    0.1738 O   0  0  0  0  0  0  0  0  0  0  0  0
    0.8454    0.7042   -0.1795 C   0  0  0  0  0  0  0  0  0  0  0  0
   -0.6198    0.5387   -0.3826 C   0  0  0  0  0  0  0  0  0  0  0  0
   -1.3734    0.0271    0.8627 C   0  0  0  0  0  0  0  0  0  0  0  0
   -2.3607   -0.3562   -0.2446 C   0  0  0  0  0  0  0  0  0  0  0  0
   -2.2162   -1.2974   -1.1497 O   0  0  0  0  0  0  0  0  0  0  0  0
   -1.0100   -0.8416   -0.8646 C   0  0  0  0  0  0  0  0  0  0  0  0
    3.4240   -1.3335    0.6595 H   0  0  0  0  0  0  0  0  0  0  0  0
    1.2795    1.0420   -1.1432 H   0  0  0  0  0  0  0  0  0  0  0  0
    1.0828    1.4769    0.5702 H   0  0  0  0  0  0  0  0  0  0  0  0
   -1.1046    1.3853   -0.8516 H   0  0  0  0  0  0  0  0  0  0  0  0
   -0.9176   -0.8582    1.3075 H   0  0  0  0  0  0  0  0  0  0  0  0
   -1.7726    0.8030    1.5062 H   0  0  0  0  0  0  0  0  0  0  0  0
   -2.7298    0.6186   -0.7012 H   0  0  0  0  0  0  0  0  0  0  0  0
   -0.4325   -1.5849   -0.2240 H   0  0  0  0  0  0  0  0  0  0  0  0
  1  2  2  0
  2  3  1  0
  3  4  1  0
  4  5  1  0
  5  6  1  0
  6  7  1  0
  7  8  1  0
  8  9  1  0
  9  5  1  0
  9  7  1  0
  2 10  1  0
  4 11  1  0
  4 12  1  0
  5 13  1  0
  6 14  1  0
  6 15  1  0
  7 16  1  0
  9 17  1  0
M  END
