
     RDKit          3D

 17 17  0  0  0  0  0  0  0  0999 V2000
    2.7872    1.3379    0.1351 O   0  0  0  0  0  0  0  0  0  0  0  0
    3.1479    0.2300   -0.3461 C   0  0  0  0  0  0  0  0  0  0  0  0
    2.1932   -0.6570   -0.7921 O   0  0  0  0  0  0  0  0  0  0  0  0
    0.8014   -0.4054   -0.7465 C   0  0  0  0  0  0  0  0  0  0  0  0
    0.3235   -0.1801    0.6405 C   0  0  0  0  0  0  0  0  0  0  0  0
    1.1529   -0.2368    1.5323 O   0  0  0  0  0  0  0  0  0  0  0  0
   -1.0777    0.1006    0.9572 C   0  0  0  0  0  0  0  0  0  0  0  0
   -2.0803   -0.7049    0.1710 C   0  0  0  0  0  0  0  0  0  0  0  0
   -1.9661    0.8126    0.0022 C   0  0  0  0  0  0  0  0  0  0  0  0
    4.2172    0.0161   -0.3904 H   0  0  0  0  0  0  0  0  0  0  0  0
    0.6439    0.5139   -1.3808 H   0  0  0  0  0  0  0  0  0  0  0  0
    0.2695   -1.2211   -1.2459 H   0  0  0  0  0  0  0  0  0  0  0  0
   -1.3304    0.2539    2.0272 H   0  0  0  0  0  0  0  0  0  0  0  0
   -2.9512   -1.1014    0.6976 H   0  0  0  0  0  0  0  0  0  0  0  0
   -1.7368   -1.3363   -0.6728 H   0  0  0  0  0  0  0  0  0  0  0  0
   -1.6055    1.1373   -0.9919 H   0  0  0  0  0  0  0  0  0  0  0  0
   -2.7885    1.4409    0.4034 H   0  0  0  0  0  0  0  0  0  0  0  0
  1  2  2  0
  2  3  1  0
  3  4  1  0
  4  5  1  0
  5  6  2  0
  5  7  1  0
  7  8  1  0
  8  9  1  0
  9  7  1  0
  2 10  1  0
  4 11  1  0
  4 12  1  0
  7 13  1  0
  8 14  1  0
  8 15  1  0
  9 16  1  0
  9 17  1  0
M  END
