
     RDKit          3D

 12 11  0  0  0  0  0  0  0  0999 V2000
    1.7322   -0.7641    0.9079 O   0  0  0  0  0  0  0  0  0  0  0  0
    1.7624   -0.5612   -0.3294 C   0  0  0  0  0  0  0  0  0  0  0  0
    0.8543    0.3229   -0.8708 O   0  0  0  0  0  0  0  0  0  0  0  0
   -0.1256    1.0318   -0.1528 C   0  0  0  0  0  0  0  0  0  0  0  0
   -1.0645    0.0467    0.5004 C   0  0  0  0  0  0  0  0  0  0  0  0
   -1.6376   -0.7043   -0.5464 O   0  0  0  0  0  0  0  0  0  0  0  0
    2.5065   -1.0881   -0.9533 H   0  0  0  0  0  0  0  0  0  0  0  0
   -0.7132    1.6672   -0.8648 H   0  0  0  0  0  0  0  0  0  0  0  0
    0.3296    1.6774    0.6340 H   0  0  0  0  0  0  0  0  0  0  0  0
   -0.5391   -0.6230    1.2031 H   0  0  0  0  0  0  0  0  0  0  0  0
   -1.8718    0.6136    1.0405 H   0  0  0  0  0  0  0  0  0  0  0  0
   -1.2333   -1.6189   -0.5686 H   0  0  0  0  0  0  0  0  0  0  0  0
  1  2  2  0
  2  3  1  0
  3  4  1  0
  4  5  1  0
  5  6  1  0
  2  7  1  0
  4  8  1  0
  4  9  1  0
  5 10  1  0
  5 11  1  0
  6 12  1  0
M  END
