
     RDKit          3D

 19 19  0  0  0  0  0  0  0  0999 V2000
    3.3694    0.3426   -1.3754 O   0  0  0  0  0  0  0  0  0  0  0  0
    3.2398    0.5591   -0.1301 C   0  0  0  0  0  0  0  0  0  0  0  0
    2.0342    0.2058    0.4195 O   0  0  0  0  0  0  0  0  0  0  0  0
    0.9734   -0.3745   -0.3521 C   0  0  0  0  0  0  0  0  0  0  0  0
   -0.1650   -0.6098    0.6252 C   0  0  0  0  0  0  0  0  0  0  0  0
   -1.4011   -1.2176    0.0453 C   0  0  0  0  0  0  0  0  0  0  0  0
   -1.9685    0.1666   -0.1284 C   0  0  0  0  0  0  0  0  0  0  0  0
   -1.7854    0.7120   -1.4137 O   0  0  0  0  0  0  0  0  0  0  0  0
   -0.9804    0.6579    0.8945 C   0  0  0  0  0  0  0  0  0  0  0  0
    4.0549    0.9971    0.4260 H   0  0  0  0  0  0  0  0  0  0  0  0
    1.3407   -1.3621   -0.6970 H   0  0  0  0  0  0  0  0  0  0  0  0
    0.6942    0.2530   -1.1935 H   0  0  0  0  0  0  0  0  0  0  0  0
    0.1834   -1.0033    1.5963 H   0  0  0  0  0  0  0  0  0  0  0  0
   -1.2631   -1.7975   -0.8898 H   0  0  0  0  0  0  0  0  0  0  0  0
   -1.9657   -1.7755    0.8313 H   0  0  0  0  0  0  0  0  0  0  0  0
   -3.0111    0.3082    0.2216 H   0  0  0  0  0  0  0  0  0  0  0  0
   -1.5412    1.6783   -1.2561 H   0  0  0  0  0  0  0  0  0  0  0  0
   -1.4047    0.7168    1.9125 H   0  0  0  0  0  0  0  0  0  0  0  0
   -0.4038    1.5429    0.6523 H   0  0  0  0  0  0  0  0  0  0  0  0
  1  2  2  0
  2  3  1  0
  3  4  1  0
  4  5  1  0
  5  6  1  0
  6  7  1  0
  7  8  1  0
  7  9  1  0
  9  5  1  0
  2 10  1  0
  4 11  1  0
  4 12  1  0
  5 13  1  0
  6 14  1  0
  6 15  1  0
  7 16  1  0
  8 17  1  0
  9 18  1  0
  9 19  1  0
M  END
