
     RDKit          3D

 17 17  0  0  0  0  0  0  0  0999 V2000
   -3.3734    0.3067   -1.2895 O   0  0  0  0  0  0  0  0  0  0  0  0
   -3.1330    0.7883   -0.1543 C   0  0  0  0  0  0  0  0  0  0  0  0
   -1.8890    0.5328    0.3986 O   0  0  0  0  0  0  0  0  0  0  0  0
   -0.9663   -0.2476   -0.3351 C   0  0  0  0  0  0  0  0  0  0  0  0
    0.2896   -0.3600    0.5052 C   0  0  0  0  0  0  0  0  0  0  0  0
    1.3902   -1.0639   -0.2600 C   0  0  0  0  0  0  0  0  0  0  0  0
    2.5287   -0.5930    0.4337 O   0  0  0  0  0  0  0  0  0  0  0  0
    2.2246    0.7615    0.5379 C   0  0  0  0  0  0  0  0  0  0  0  0
    0.8641    0.8585    0.7889 O   0  0  0  0  0  0  0  0  0  0  0  0
   -3.8900    1.3902    0.3734 H   0  0  0  0  0  0  0  0  0  0  0  0
   -0.7645    0.1460   -1.3390 H   0  0  0  0  0  0  0  0  0  0  0  0
   -1.3376   -1.3002   -0.4660 H   0  0  0  0  0  0  0  0  0  0  0  0
    0.0317   -0.9422    1.4163 H   0  0  0  0  0  0  0  0  0  0  0  0
    1.3148   -2.1544   -0.2313 H   0  0  0  0  0  0  0  0  0  0  0  0
    1.4525   -0.6651   -1.2897 H   0  0  0  0  0  0  0  0  0  0  0  0
    2.4400    1.2846   -0.4314 H   0  0  0  0  0  0  0  0  0  0  0  0
    2.8178    1.2577    1.3421 H   0  0  0  0  0  0  0  0  0  0  0  0
  1  2  2  0
  2  3  1  0
  3  4  1  0
  4  5  1  0
  5  6  1  0
  6  7  1  0
  7  8  1  0
  8  9  1  0
  9  5  1  0
  2 10  1  0
  4 11  1  0
  4 12  1  0
  5 13  1  0
  6 14  1  0
  6 15  1  0
  8 16  1  0
  8 17  1  0
M  END
