
     RDKit          3D

 15 15  0  0  0  0  0  0  0  0999 V2000
    3.0124    0.3511   -1.3413 O   0  0  0  0  0  0  0  0  0  0  0  0
    2.9075    0.1801   -0.1141 C   0  0  0  0  0  0  0  0  0  0  0  0
    1.6572   -0.0739    0.3802 O   0  0  0  0  0  0  0  0  0  0  0  0
    0.5107   -0.1498   -0.4099 C   0  0  0  0  0  0  0  0  0  0  0  0
   -0.3382   -1.4033   -0.1037 C   0  0  0  0  0  0  0  0  0  0  0  0
   -0.8589   -0.0271    0.0765 C   0  0  0  0  0  0  0  0  0  0  0  0
   -1.1700    0.4403    1.3798 O   0  0  0  0  0  0  0  0  0  0  0  0
   -2.2895    1.1766    1.6868 C   0  0  0  0  0  0  0  0  0  0  0  0
   -3.0980    1.4665    0.7879 O   0  0  0  0  0  0  0  0  0  0  0  0
    3.8122    0.2449    0.4706 H   0  0  0  0  0  0  0  0  0  0  0  0
    0.7044    0.0165   -1.4919 H   0  0  0  0  0  0  0  0  0  0  0  0
   -0.1268   -1.9674    0.7997 H   0  0  0  0  0  0  0  0  0  0  0  0
   -0.6296   -2.0245   -0.9721 H   0  0  0  0  0  0  0  0  0  0  0  0
   -1.6287    0.2722   -0.6705 H   0  0  0  0  0  0  0  0  0  0  0  0
   -2.4648    1.4978    2.6889 H   0  0  0  0  0  0  0  0  0  0  0  0
  1  2  2  0
  2  3  1  0
  3  4  1  0
  4  5  1  0
  5  6  1  0
  6  7  1  0
  7  8  1  0
  8  9  2  0
  6  4  1  0
  2 10  1  0
  4 11  1  0
  5 12  1  0
  5 13  1  0
  6 14  1  0
  8 15  1  0
M  END
