
     RDKit          3D

 17 18  0  0  0  0  0  0  0  0999 V2000
    2.2468   -1.3935   -0.9709 O   0  0  0  0  0  0  0  0  0  0  0  0
    2.1961   -1.0671    0.2362 C   0  0  0  0  0  0  0  0  0  0  0  0
    1.2868   -0.1550    0.7294 O   0  0  0  0  0  0  0  0  0  0  0  0
    0.3600    0.4372   -0.1646 C   0  0  0  0  0  0  0  0  0  0  0  0
   -0.5173   -0.5716   -0.7771 C   0  0  0  0  0  0  0  0  0  0  0  0
   -1.4210   -0.8425    0.4516 C   0  0  0  0  0  0  0  0  0  0  0  0
   -1.0599    0.1680    1.3879 O   0  0  0  0  0  0  0  0  0  0  0  0
   -0.8484    1.2056    0.5193 C   0  0  0  0  0  0  0  0  0  0  0  0
    0.2631    1.8513   -0.0439 C   0  0  0  0  0  0  0  0  0  0  0  0
    2.9278   -1.5579    0.8800 H   0  0  0  0  0  0  0  0  0  0  0  0
   -1.1269   -0.1285   -1.6041 H   0  0  0  0  0  0  0  0  0  0  0  0
   -0.0124   -1.4927   -1.0700 H   0  0  0  0  0  0  0  0  0  0  0  0
   -2.4507   -0.7291    0.1109 H   0  0  0  0  0  0  0  0  0  0  0  0
   -1.1738   -1.8341    0.8288 H   0  0  0  0  0  0  0  0  0  0  0  0
   -1.7929    1.2908   -0.1065 H   0  0  0  0  0  0  0  0  0  0  0  0
    0.1617    2.4158   -1.0189 H   0  0  0  0  0  0  0  0  0  0  0  0
    0.9611    2.4034    0.6119 H   0  0  0  0  0  0  0  0  0  0  0  0
  1  2  2  0
  2  3  1  0
  3  4  1  0
  4  5  1  0
  5  6  1  0
  6  7  1  0
  7  8  1  0
  8  9  1  0
  8  4  1  0
  9  4  1  0
  2 10  1  0
  5 11  1  0
  5 12  1  0
  6 13  1  0
  6 14  1  0
  8 15  1  0
  9 16  1  0
  9 17  1  0
M  END
