
     RDKit          3D

 15 14  0  0  0  0  0  0  0  0999 V2000
    2.9467   -0.3360   -1.3744 O   0  0  0  0  0  0  0  0  0  0  0  0
    2.7182    0.5050   -0.4678 C   0  0  0  0  0  0  0  0  0  0  0  0
    1.4510    0.5304    0.0899 O   0  0  0  0  0  0  0  0  0  0  0  0
    0.4885   -0.3891   -0.3910 C   0  0  0  0  0  0  0  0  0  0  0  0
   -0.8120   -0.1845    0.3535 C   0  0  0  0  0  0  0  0  0  0  0  0
   -1.8665   -1.1201   -0.1043 C   0  0  0  0  0  0  0  0  0  0  0  0
   -3.0004   -0.9283    0.2828 O   0  0  0  0  0  0  0  0  0  0  0  0
   -1.2973    1.2025    0.1079 C   0  0  0  0  0  0  0  0  0  0  0  0
   -1.9539    1.3716   -0.9061 O   0  0  0  0  0  0  0  0  0  0  0  0
    3.5119    1.1948   -0.1371 H   0  0  0  0  0  0  0  0  0  0  0  0
    0.8384   -1.4240   -0.3542 H   0  0  0  0  0  0  0  0  0  0  0  0
    0.3324   -0.1293   -1.4703 H   0  0  0  0  0  0  0  0  0  0  0  0
   -0.6447   -0.3145    1.4378 H   0  0  0  0  0  0  0  0  0  0  0  0
   -1.6586   -1.9506   -0.7591 H   0  0  0  0  0  0  0  0  0  0  0  0
   -1.0537    1.9720    0.8163 H   0  0  0  0  0  0  0  0  0  0  0  0
  1  2  2  0
  2  3  1  0
  3  4  1  0
  4  5  1  0
  5  6  1  0
  6  7  2  0
  5  8  1  0
  8  9  2  0
  2 10  1  0
  4 11  1  0
  4 12  1  0
  5 13  1  0
  6 14  1  0
  8 15  1  0
M  END
