
     RDKit          3D

 17 18  0  0  0  0  0  0  0  0999 V2000
    2.3075    0.3354    1.5170 O   0  0  0  0  0  0  0  0  0  0  0  0
    2.5906   -0.4006    0.5425 C   0  0  0  0  0  0  0  0  0  0  0  0
    1.8512   -0.2330   -0.6147 O   0  0  0  0  0  0  0  0  0  0  0  0
    0.8329    0.7328   -0.6342 C   0  0  0  0  0  0  0  0  0  0  0  0
   -0.2907    0.4499    0.3461 C   0  0  0  0  0  0  0  0  0  0  0  0
   -0.3054   -0.8192    1.1493 C   0  0  0  0  0  0  0  0  0  0  0  0
   -1.2591   -0.6391    0.0501 C   0  0  0  0  0  0  0  0  0  0  0  0
   -2.2856    0.4308    0.1270 C   0  0  0  0  0  0  0  0  0  0  0  0
   -1.3191    1.3712    0.4449 O   0  0  0  0  0  0  0  0  0  0  0  0
    3.3921   -1.1260    0.6496 H   0  0  0  0  0  0  0  0  0  0  0  0
    0.3670    0.6833   -1.6532 H   0  0  0  0  0  0  0  0  0  0  0  0
    1.1929    1.7655   -0.5150 H   0  0  0  0  0  0  0  0  0  0  0  0
   -0.5973   -0.6647    2.2118 H   0  0  0  0  0  0  0  0  0  0  0  0
    0.4737   -1.5617    1.0107 H   0  0  0  0  0  0  0  0  0  0  0  0
   -1.1522   -1.2409   -0.8707 H   0  0  0  0  0  0  0  0  0  0  0  0
   -2.7684    0.6892   -0.8465 H   0  0  0  0  0  0  0  0  0  0  0  0
   -3.0303    0.2271    0.9169 H   0  0  0  0  0  0  0  0  0  0  0  0
  1  2  2  0
  2  3  1  0
  3  4  1  0
  4  5  1  0
  5  6  1  0
  6  7  1  0
  7  8  1  0
  8  9  1  0
  7  5  1  0
  9  5  1  0
  2 10  1  0
  4 11  1  0
  4 12  1  0
  6 13  1  0
  6 14  1  0
  7 15  1  0
  8 16  1  0
  8 17  1  0
M  END
