
     RDKit          3D

 18 18  0  0  0  0  0  0  0  0999 V2000
    2.0293    0.7690   -1.5867 O   0  0  0  0  0  0  0  0  0  0  0  0
    2.4758    1.2359   -0.5410 C   0  0  0  0  0  0  0  0  0  0  0  0
    2.0380    0.7941    0.6609 O   0  0  0  0  0  0  0  0  0  0  0  0
    1.0953   -0.1614    0.9657 C   0  0  0  0  0  0  0  0  0  0  0  0
   -0.2961    0.0874    0.5697 C   0  0  0  0  0  0  0  0  0  0  0  0
   -0.6059    0.2403   -0.8892 C   0  0  0  0  0  0  0  0  0  0  0  0
   -2.0291   -0.2527   -0.4860 C   0  0  0  0  0  0  0  0  0  0  0  0
   -1.2329   -1.1344    0.5031 C   0  0  0  0  0  0  0  0  0  0  0  0
    3.2416    2.0231   -0.6298 H   0  0  0  0  0  0  0  0  0  0  0  0
    1.0884   -0.2802    2.1041 H   0  0  0  0  0  0  0  0  0  0  0  0
    1.4737   -1.1748    0.6418 H   0  0  0  0  0  0  0  0  0  0  0  0
   -0.8208    0.8396    1.2251 H   0  0  0  0  0  0  0  0  0  0  0  0
   -0.1938   -0.6064   -1.4786 H   0  0  0  0  0  0  0  0  0  0  0  0
   -0.6136    1.2352   -1.3136 H   0  0  0  0  0  0  0  0  0  0  0  0
   -2.5597    0.5115    0.1007 H   0  0  0  0  0  0  0  0  0  0  0  0
   -2.5474   -0.7992   -1.2621 H   0  0  0  0  0  0  0  0  0  0  0  0
   -0.7789   -1.9881   -0.0236 H   0  0  0  0  0  0  0  0  0  0  0  0
   -1.7641   -1.3389    1.4394 H   0  0  0  0  0  0  0  0  0  0  0  0
  1  2  2  0
  2  3  1  0
  3  4  1  0
  4  5  1  0
  5  6  1  0
  6  7  1  0
  7  8  1  0
  8  5  1  0
  2  9  1  0
  4 10  1  0
  4 11  1  0
  5 12  1  0
  6 13  1  0
  6 14  1  0
  7 15  1  0
  7 16  1  0
  8 17  1  0
  8 18  1  0
M  END
