
     RDKit          3D

 19 20  0  0  0  0  0  0  0  0999 V2000
    3.6927    0.5086    1.3346 O   0  0  0  0  0  0  0  0  0  0  0  0
    3.2821    1.0057    0.2778 C   0  0  0  0  0  0  0  0  0  0  0  0
    2.0554    0.6231   -0.2089 O   0  0  0  0  0  0  0  0  0  0  0  0
    1.2014   -0.3140    0.4116 C   0  0  0  0  0  0  0  0  0  0  0  0
   -0.0321   -0.4519   -0.4307 C   0  0  0  0  0  0  0  0  0  0  0  0
   -1.0719   -1.4162    0.0721 C   0  0  0  0  0  0  0  0  0  0  0  0
   -2.1126   -0.3741   -0.3591 C   0  0  0  0  0  0  0  0  0  0  0  0
   -2.1192    0.8457    0.4526 C   0  0  0  0  0  0  0  0  0  0  0  0
   -0.9802    0.6792   -0.4597 C   0  0  0  0  0  0  0  0  0  0  0  0
    3.8472    1.7441   -0.3020 H   0  0  0  0  0  0  0  0  0  0  0  0
    1.0071   -0.0075    1.4398 H   0  0  0  0  0  0  0  0  0  0  0  0
    1.7346   -1.3038    0.3627 H   0  0  0  0  0  0  0  0  0  0  0  0
    0.2728   -0.7649   -1.4712 H   0  0  0  0  0  0  0  0  0  0  0  0
   -1.1170   -1.5049    1.1861 H   0  0  0  0  0  0  0  0  0  0  0  0
   -1.1777   -2.3610   -0.4640 H   0  0  0  0  0  0  0  0  0  0  0  0
   -2.6526   -0.5121   -1.2905 H   0  0  0  0  0  0  0  0  0  0  0  0
   -2.0083    0.6819    1.5629 H   0  0  0  0  0  0  0  0  0  0  0  0
   -2.8578    1.6107    0.2175 H   0  0  0  0  0  0  0  0  0  0  0  0
   -0.9640    1.3113   -1.3673 H   0  0  0  0  0  0  0  0  0  0  0  0
  1  2  2  0
  2  3  1  0
  3  4  1  0
  4  5  1  0
  5  6  1  0
  6  7  1  0
  7  8  1  0
  8  9  1  0
  9  5  1  0
  9  7  1  0
  2 10  1  0
  4 11  1  0
  4 12  1  0
  5 13  1  0
  6 14  1  0
  6 15  1  0
  7 16  1  0
  8 17  1  0
  8 18  1  0
  9 19  1  0
M  END
