
     RDKit          3D

 14 15  0  0  0  0  0  0  0  0999 V2000
    2.3375    1.6491   -1.0522 O   0  0  0  0  0  0  0  0  0  0  0  0
    2.3836    0.4874   -0.5734 C   0  0  0  0  0  0  0  0  0  0  0  0
    1.2019   -0.1043   -0.1517 O   0  0  0  0  0  0  0  0  0  0  0  0
   -0.0548    0.5113   -0.2234 C   0  0  0  0  0  0  0  0  0  0  0  0
   -0.9438    0.3255    0.9571 C   0  0  0  0  0  0  0  0  0  0  0  0
   -0.9691   -1.1379    0.6512 C   0  0  0  0  0  0  0  0  0  0  0  0
   -1.1880   -0.3991   -0.6233 C   0  0  0  0  0  0  0  0  0  0  0  0
   -2.0143    0.4511    0.0791 O   0  0  0  0  0  0  0  0  0  0  0  0
    3.3550    0.0150   -0.5194 H   0  0  0  0  0  0  0  0  0  0  0  0
   -0.0803    1.5323   -0.6464 H   0  0  0  0  0  0  0  0  0  0  0  0
   -0.8633    0.7560    1.8648 H   0  0  0  0  0  0  0  0  0  0  0  0
   -0.0022   -1.6620    0.6727 H   0  0  0  0  0  0  0  0  0  0  0  0
   -1.8235   -1.6407    1.1081 H   0  0  0  0  0  0  0  0  0  0  0  0
   -1.3387   -0.7837   -1.5432 H   0  0  0  0  0  0  0  0  0  0  0  0
  1  2  2  0
  2  3  1  0
  3  4  1  0
  4  5  1  0
  5  6  1  0
  6  7  1  0
  7  8  1  0
  7  4  1  0
  8  5  1  0
  2  9  1  0
  4 10  1  0
  5 11  1  0
  6 12  1  0
  6 13  1  0
  7 14  1  0
M  END
