
     RDKit          3D

 17 17  0  0  0  0  0  0  0  0999 V2000
    3.5570   -0.0648   -0.1925 O   0  0  0  0  0  0  0  0  0  0  0  0
    2.8709    0.8161    0.3891 C   0  0  0  0  0  0  0  0  0  0  0  0
    1.5038    0.6440    0.4178 O   0  0  0  0  0  0  0  0  0  0  0  0
    0.9252   -0.4941   -0.1948 C   0  0  0  0  0  0  0  0  0  0  0  0
   -0.5575   -0.4221   -0.0118 C   0  0  0  0  0  0  0  0  0  0  0  0
   -1.2007    0.8345   -0.5602 C   0  0  0  0  0  0  0  0  0  0  0  0
   -2.5618    0.7983   -0.2763 O   0  0  0  0  0  0  0  0  0  0  0  0
   -1.3147   -1.3038    0.7905 C   0  0  0  0  0  0  0  0  0  0  0  0
   -1.1780   -1.6149   -0.6526 O   0  0  0  0  0  0  0  0  0  0  0  0
    3.3798    1.6579    0.8346 H   0  0  0  0  0  0  0  0  0  0  0  0
    1.3766   -1.4381    0.1217 H   0  0  0  0  0  0  0  0  0  0  0  0
    1.1201   -0.4144   -1.3039 H   0  0  0  0  0  0  0  0  0  0  0  0
   -0.6862    1.6883   -0.1181 H   0  0  0  0  0  0  0  0  0  0  0  0
   -1.0191    0.8353   -1.6614 H   0  0  0  0  0  0  0  0  0  0  0  0
   -2.9244    1.6472    0.0405 H   0  0  0  0  0  0  0  0  0  0  0  0
   -2.3811   -1.0781    0.9861 H   0  0  0  0  0  0  0  0  0  0  0  0
   -0.9099   -2.0915    1.4418 H   0  0  0  0  0  0  0  0  0  0  0  0
  1  2  2  0
  2  3  1  0
  3  4  1  0
  4  5  1  0
  5  6  1  0
  6  7  1  0
  5  8  1  0
  8  9  1  0
  9  5  1  0
  2 10  1  0
  4 11  1  0
  4 12  1  0
  6 13  1  0
  6 14  1  0
  7 15  1  0
  8 16  1  0
  8 17  1  0
M  END
