
     RDKit          3D

 17 17  0  0  0  0  0  0  0  0999 V2000
    3.0954   -0.9881    0.5092 O   0  0  0  0  0  0  0  0  0  0  0  0
    2.8292    0.1427    0.0212 C   0  0  0  0  0  0  0  0  0  0  0  0
    1.5076    0.4555   -0.1756 O   0  0  0  0  0  0  0  0  0  0  0  0
    0.4348   -0.4145    0.1366 C   0  0  0  0  0  0  0  0  0  0  0  0
   -0.4975   -0.6390   -1.0012 C   0  0  0  0  0  0  0  0  0  0  0  0
   -1.8271   -0.0074   -0.6404 C   0  0  0  0  0  0  0  0  0  0  0  0
   -1.3857    1.0249    0.3382 C   0  0  0  0  0  0  0  0  0  0  0  0
   -1.7460    2.1786    0.4168 O   0  0  0  0  0  0  0  0  0  0  0  0
   -0.3875    0.2967    1.2051 C   0  0  0  0  0  0  0  0  0  0  0  0
    3.5945    0.8685   -0.2457 H   0  0  0  0  0  0  0  0  0  0  0  0
    0.7564   -1.3696    0.5536 H   0  0  0  0  0  0  0  0  0  0  0  0
   -0.7188   -1.7371   -1.1431 H   0  0  0  0  0  0  0  0  0  0  0  0
   -0.1454   -0.2213   -1.9650 H   0  0  0  0  0  0  0  0  0  0  0  0
   -2.2963    0.4959   -1.5051 H   0  0  0  0  0  0  0  0  0  0  0  0
   -2.4922   -0.7150   -0.1283 H   0  0  0  0  0  0  0  0  0  0  0  0
    0.1900    1.0435    1.7538 H   0  0  0  0  0  0  0  0  0  0  0  0
   -0.9114   -0.4142    1.8699 H   0  0  0  0  0  0  0  0  0  0  0  0
  1  2  2  0
  2  3  1  0
  3  4  1  0
  4  5  1  0
  5  6  1  0
  6  7  1  0
  7  8  2  0
  7  9  1  0
  9  4  1  0
  2 10  1  0
  4 11  1  0
  5 12  1  0
  5 13  1  0
  6 14  1  0
  6 15  1  0
  9 16  1  0
  9 17  1  0
M  END
