
     RDKit          3D

 15 15  0  0  0  0  0  0  0  0999 V2000
    3.1614    0.1715   -0.6682 O   0  0  0  0  0  0  0  0  0  0  0  0
    2.5358    0.7849    0.2304 C   0  0  0  0  0  0  0  0  0  0  0  0
    1.1972    0.4836    0.4564 O   0  0  0  0  0  0  0  0  0  0  0  0
    0.4888   -0.4917   -0.2819 C   0  0  0  0  0  0  0  0  0  0  0  0
   -0.6178   -1.2288    0.3326 C   0  0  0  0  0  0  0  0  0  0  0  0
   -1.0955   -0.8659    1.6131 O   0  0  0  0  0  0  0  0  0  0  0  0
   -0.9339   -0.1826   -0.7070 C   0  0  0  0  0  0  0  0  0  0  0  0
   -1.4064    1.1478   -0.2838 C   0  0  0  0  0  0  0  0  0  0  0  0
   -2.1847    1.7314   -1.0135 O   0  0  0  0  0  0  0  0  0  0  0  0
    3.0672    1.5289    0.7973 H   0  0  0  0  0  0  0  0  0  0  0  0
    1.0716   -1.0117   -1.0649 H   0  0  0  0  0  0  0  0  0  0  0  0
   -0.7900   -2.2850    0.1104 H   0  0  0  0  0  0  0  0  0  0  0  0
   -2.0912   -0.8207    1.5037 H   0  0  0  0  0  0  0  0  0  0  0  0
   -1.3147   -0.5654   -1.6565 H   0  0  0  0  0  0  0  0  0  0  0  0
   -1.0876    1.6036    0.6317 H   0  0  0  0  0  0  0  0  0  0  0  0
  1  2  2  0
  2  3  1  0
  3  4  1  0
  4  5  1  0
  5  6  1  0
  5  7  1  0
  7  8  1  0
  8  9  2  0
  7  4  1  0
  2 10  1  0
  4 11  1  0
  5 12  1  0
  6 13  1  0
  7 14  1  0
  8 15  1  0
M  END
