
     RDKit          3D

 17 18  0  0  0  0  0  0  0  0999 V2000
    3.2848   -0.1550    0.1209 O   0  0  0  0  0  0  0  0  0  0  0  0
    2.4886    0.1478    1.0286 C   0  0  0  0  0  0  0  0  0  0  0  0
    1.1394    0.1863    0.7703 O   0  0  0  0  0  0  0  0  0  0  0  0
    0.6617   -0.1148   -0.5121 C   0  0  0  0  0  0  0  0  0  0  0  0
   -0.4795   -1.0815   -0.5798 C   0  0  0  0  0  0  0  0  0  0  0  0
   -1.4565   -0.6374    0.4914 C   0  0  0  0  0  0  0  0  0  0  0  0
   -1.3389    0.8798    0.2267 C   0  0  0  0  0  0  0  0  0  0  0  0
   -0.4469    0.7750   -1.0094 C   0  0  0  0  0  0  0  0  0  0  0  0
   -0.9441   -0.3364   -1.6892 O   0  0  0  0  0  0  0  0  0  0  0  0
    2.8636    0.3755    2.0027 H   0  0  0  0  0  0  0  0  0  0  0  0
    1.4413   -0.3679   -1.2367 H   0  0  0  0  0  0  0  0  0  0  0  0
   -0.3029   -2.1185   -0.7205 H   0  0  0  0  0  0  0  0  0  0  0  0
   -1.1427   -0.8948    1.5034 H   0  0  0  0  0  0  0  0  0  0  0  0
   -2.4546   -0.9812    0.1988 H   0  0  0  0  0  0  0  0  0  0  0  0
   -2.3173    1.3019    0.0116 H   0  0  0  0  0  0  0  0  0  0  0  0
   -0.7773    1.3609    1.0379 H   0  0  0  0  0  0  0  0  0  0  0  0
   -0.2187    1.6602   -1.5436 H   0  0  0  0  0  0  0  0  0  0  0  0
  1  2  2  0
  2  3  1  0
  3  4  1  0
  4  5  1  0
  5  6  1  0
  6  7  1  0
  7  8  1  0
  8  9  1  0
  8  4  1  0
  9  5  1  0
  2 10  1  0
  4 11  1  0
  5 12  1  0
  6 13  1  0
  6 14  1  0
  7 15  1  0
  7 16  1  0
  8 17  1  0
M  END
