
     RDKit          3D

 15 16  0  0  0  0  0  0  0  0999 V2000
    3.0841   -0.0672    0.3883 O   0  0  0  0  0  0  0  0  0  0  0  0
    2.3397    0.8344   -0.0703 C   0  0  0  0  0  0  0  0  0  0  0  0
    0.9931    0.6164   -0.1292 O   0  0  0  0  0  0  0  0  0  0  0  0
    0.3871   -0.5830    0.3032 C   0  0  0  0  0  0  0  0  0  0  0  0
   -0.6580   -1.0021   -0.7010 C   0  0  0  0  0  0  0  0  0  0  0  0
   -1.3116    0.3100   -0.9921 C   0  0  0  0  0  0  0  0  0  0  0  0
   -1.4963    0.7827    0.2403 C   0  0  0  0  0  0  0  0  0  0  0  0
   -0.8970   -0.3383    1.0544 C   0  0  0  0  0  0  0  0  0  0  0  0
   -1.4027   -1.4510    0.3894 O   0  0  0  0  0  0  0  0  0  0  0  0
    2.7280    1.7916   -0.4260 H   0  0  0  0  0  0  0  0  0  0  0  0
    1.0380   -1.3561    0.6978 H   0  0  0  0  0  0  0  0  0  0  0  0
   -0.4142   -1.6560   -1.4893 H   0  0  0  0  0  0  0  0  0  0  0  0
   -1.5369    0.6940   -1.9727 H   0  0  0  0  0  0  0  0  0  0  0  0
   -1.9419    1.6997    0.6057 H   0  0  0  0  0  0  0  0  0  0  0  0
   -0.9114   -0.2750    2.1014 H   0  0  0  0  0  0  0  0  0  0  0  0
  1  2  2  0
  2  3  1  0
  3  4  1  0
  4  5  1  0
  5  6  1  0
  6  7  2  0
  7  8  1  0
  8  9  1  0
  8  4  1  0
  9  5  1  0
  2 10  1  0
  4 11  1  0
  5 12  1  0
  6 13  1  0
  7 14  1  0
  8 15  1  0
M  END
