
     RDKit          3D

 14 13  0  0  0  0  0  0  0  0999 V2000
   -1.6129    1.4881   -0.1744 O   0  0  0  0  0  0  0  0  0  0  0  0
   -2.2529    0.5180    0.2977 C   0  0  0  0  0  0  0  0  0  0  0  0
   -1.7692   -0.7478    0.1420 O   0  0  0  0  0  0  0  0  0  0  0  0
   -0.6010   -1.1175   -0.4963 C   0  0  0  0  0  0  0  0  0  0  0  0
    0.6613   -0.6145    0.1132 C   0  0  0  0  0  0  0  0  0  0  0  0
    0.7924    0.7804    0.1861 O   0  0  0  0  0  0  0  0  0  0  0  0
    1.9564    1.2836    0.7485 C   0  0  0  0  0  0  0  0  0  0  0  0
    2.8418    0.4979    1.1679 O   0  0  0  0  0  0  0  0  0  0  0  0
   -3.2091    0.6955    0.8394 H   0  0  0  0  0  0  0  0  0  0  0  0
   -0.6020   -0.8509   -1.5931 H   0  0  0  0  0  0  0  0  0  0  0  0
   -0.5322   -2.2487   -0.5143 H   0  0  0  0  0  0  0  0  0  0  0  0
    0.7445   -1.0649    1.1513 H   0  0  0  0  0  0  0  0  0  0  0  0
    1.5152   -0.9874   -0.5167 H   0  0  0  0  0  0  0  0  0  0  0  0
    2.0676    2.3682    0.8096 H   0  0  0  0  0  0  0  0  0  0  0  0
  1  2  2  0
  2  3  1  0
  3  4  1  0
  4  5  1  0
  5  6  1  0
  6  7  1  0
  7  8  2  0
  2  9  1  0
  4 10  1  0
  4 11  1  0
  5 12  1  0
  5 13  1  0
  7 14  1  0
M  END
