
     RDKit          3D

 17 18  0  0  0  0  0  0  0  0999 V2000
    3.0459   -1.2371   -0.0353 O   0  0  0  0  0  0  0  0  0  0  0  0
    2.8987    0.0119   -0.0656 C   0  0  0  0  0  0  0  0  0  0  0  0
    1.5952    0.4821   -0.1476 O   0  0  0  0  0  0  0  0  0  0  0  0
    0.4598   -0.3258   -0.1975 C   0  0  0  0  0  0  0  0  0  0  0  0
   -0.6355    0.0987   -1.1236 C   0  0  0  0  0  0  0  0  0  0  0  0
   -0.8926    1.2260   -0.1680 C   0  0  0  0  0  0  0  0  0  0  0  0
   -0.6682    0.0460    0.7347 C   0  0  0  0  0  0  0  0  0  0  0  0
   -0.6927   -0.0077    1.9795 O   0  0  0  0  0  0  0  0  0  0  0  0
   -1.5475   -0.7177   -0.2403 C   0  0  0  0  0  0  0  0  0  0  0  0
    3.7711    0.6509   -0.0276 H   0  0  0  0  0  0  0  0  0  0  0  0
    0.6890   -1.3999   -0.1656 H   0  0  0  0  0  0  0  0  0  0  0  0
   -0.6315    0.1252   -2.1227 H   0  0  0  0  0  0  0  0  0  0  0  0
   -1.9040    1.6512   -0.1719 H   0  0  0  0  0  0  0  0  0  0  0  0
   -0.0932    1.9689   -0.0955 H   0  0  0  0  0  0  0  0  0  0  0  0
   -1.4915   -0.3274    2.4303 H   0  0  0  0  0  0  0  0  0  0  0  0
   -2.6053   -0.4513   -0.2438 H   0  0  0  0  0  0  0  0  0  0  0  0
   -1.2979   -1.7939   -0.3395 H   0  0  0  0  0  0  0  0  0  0  0  0
  1  2  2  0
  2  3  1  0
  3  4  1  0
  4  5  1  0
  5  6  1  0
  6  7  1  0
  7  8  1  0
  7  9  1  0
  7  4  1  0
  9  5  1  0
  2 10  1  0
  4 11  1  0
  5 12  1  0
  6 13  1  0
  6 14  1  0
  8 15  1  0
  9 16  1  0
  9 17  1  0
M  END
