
     RDKit          3D

 17 18  0  0  0  0  0  0  0  0999 V2000
    2.4781    0.9076   -0.3202 O   0  0  0  0  0  0  0  0  0  0  0  0
    2.5972   -0.2023    0.3013 C   0  0  0  0  0  0  0  0  0  0  0  0
    1.4002   -0.8573    0.5329 O   0  0  0  0  0  0  0  0  0  0  0  0
    0.2203   -0.5051    0.2138 C   0  0  0  0  0  0  0  0  0  0  0  0
   -1.0688   -1.1992    0.4572 C   0  0  0  0  0  0  0  0  0  0  0  0
   -1.4866    0.0737   -0.2362 C   0  0  0  0  0  0  0  0  0  0  0  0
   -0.3313   -0.2296   -1.1626 C   0  0  0  0  0  0  0  0  0  0  0  0
   -0.4873    0.7747    0.6309 C   0  0  0  0  0  0  0  0  0  0  0  0
    0.0293    1.9103    0.0440 O   0  0  0  0  0  0  0  0  0  0  0  0
    3.5571   -0.5745    0.6079 H   0  0  0  0  0  0  0  0  0  0  0  0
   -1.4099   -1.3366    1.4818 H   0  0  0  0  0  0  0  0  0  0  0  0
   -1.2656   -2.0609   -0.2331 H   0  0  0  0  0  0  0  0  0  0  0  0
   -2.4071    0.3550   -0.4907 H   0  0  0  0  0  0  0  0  0  0  0  0
    0.0833    0.6213   -1.7009 H   0  0  0  0  0  0  0  0  0  0  0  0
   -0.5522   -1.1431   -1.7600 H   0  0  0  0  0  0  0  0  0  0  0  0
   -0.7175    0.8310    1.7097 H   0  0  0  0  0  0  0  0  0  0  0  0
   -0.6392    2.6349   -0.0758 H   0  0  0  0  0  0  0  0  0  0  0  0
  1  2  2  0
  2  3  1  0
  3  4  1  0
  4  5  1  0
  5  6  1  0
  6  7  1  0
  6  8  1  0
  8  9  1  0
  7  4  1  0
  8  4  1  0
  2 10  1  0
  5 11  1  0
  5 12  1  0
  6 13  1  0
  7 14  1  0
  7 15  1  0
  8 16  1  0
  9 17  1  0
M  END
