
     RDKit          3D

 17 16  0  0  0  0  0  0  0  0999 V2000
    3.2043   -0.7900   -0.9429 O   0  0  0  0  0  0  0  0  0  0  0  0
    2.8361    0.3754   -0.6042 C   0  0  0  0  0  0  0  0  0  0  0  0
    1.5485    0.4732   -0.1121 O   0  0  0  0  0  0  0  0  0  0  0  0
    0.7107   -0.6643   -0.0010 C   0  0  0  0  0  0  0  0  0  0  0  0
   -0.6090   -0.1672    0.5724 C   0  0  0  0  0  0  0  0  0  0  0  0
   -1.5180   -1.3028    0.7101 C   0  0  0  0  0  0  0  0  0  0  0  0
   -1.3738   -2.0970    1.6103 O   0  0  0  0  0  0  0  0  0  0  0  0
   -1.1319    0.8842   -0.3947 C   0  0  0  0  0  0  0  0  0  0  0  0
   -2.3432    1.4142    0.0283 O   0  0  0  0  0  0  0  0  0  0  0  0
    3.5083    1.2314   -0.7032 H   0  0  0  0  0  0  0  0  0  0  0  0
    1.1525   -1.4711    0.6042 H   0  0  0  0  0  0  0  0  0  0  0  0
    0.5226   -1.0573   -1.0355 H   0  0  0  0  0  0  0  0  0  0  0  0
   -0.3647    0.3201    1.5524 H   0  0  0  0  0  0  0  0  0  0  0  0
   -2.3237   -1.4452    0.0143 H   0  0  0  0  0  0  0  0  0  0  0  0
   -0.3497    1.6639   -0.5117 H   0  0  0  0  0  0  0  0  0  0  0  0
   -1.2814    0.3903   -1.3617 H   0  0  0  0  0  0  0  0  0  0  0  0
   -2.1876    2.2421    0.5750 H   0  0  0  0  0  0  0  0  0  0  0  0
  1  2  2  0
  2  3  1  0
  3  4  1  0
  4  5  1  0
  5  6  1  0
  6  7  2  0
  5  8  1  0
  8  9  1  0
  2 10  1  0
  4 11  1  0
  4 12  1  0
  5 13  1  0
  6 14  1  0
  8 15  1  0
  8 16  1  0
  9 17  1  0
M  END
