
     RDKit          3D

 17 18  0  0  0  0  0  0  0  0999 V2000
    2.9428   -0.7354    0.7280 O   0  0  0  0  0  0  0  0  0  0  0  0
    2.7446   -0.4226   -0.4912 C   0  0  0  0  0  0  0  0  0  0  0  0
    1.4652    0.0632   -0.7790 O   0  0  0  0  0  0  0  0  0  0  0  0
    0.4741    0.1944    0.2101 C   0  0  0  0  0  0  0  0  0  0  0  0
   -0.2144    1.5406    0.2655 C   0  0  0  0  0  0  0  0  0  0  0  0
   -1.3846    0.8911   -0.4797 C   0  0  0  0  0  0  0  0  0  0  0  0
   -0.8457   -0.4266   -0.1163 C   0  0  0  0  0  0  0  0  0  0  0  0
   -1.3714   -1.5343    0.4735 C   0  0  0  0  0  0  0  0  0  0  0  0
   -0.9593   -1.5470   -0.8835 O   0  0  0  0  0  0  0  0  0  0  0  0
    3.5167   -0.5297   -1.2372 H   0  0  0  0  0  0  0  0  0  0  0  0
    0.7943   -0.1199    1.2348 H   0  0  0  0  0  0  0  0  0  0  0  0
   -0.5601    1.8505    1.2647 H   0  0  0  0  0  0  0  0  0  0  0  0
    0.2892    2.3449   -0.2776 H   0  0  0  0  0  0  0  0  0  0  0  0
   -1.2739    1.1621   -1.5653 H   0  0  0  0  0  0  0  0  0  0  0  0
   -2.3662    1.1910   -0.0876 H   0  0  0  0  0  0  0  0  0  0  0  0
   -2.4775   -1.6751    0.6544 H   0  0  0  0  0  0  0  0  0  0  0  0
   -0.7739   -2.2472    1.0866 H   0  0  0  0  0  0  0  0  0  0  0  0
  1  2  2  0
  2  3  1  0
  3  4  1  0
  4  5  1  0
  5  6  1  0
  6  7  1  0
  7  8  1  0
  8  9  1  0
  7  4  1  0
  9  7  1  0
  2 10  1  0
  4 11  1  0
  5 12  1  0
  5 13  1  0
  6 14  1  0
  6 15  1  0
  8 16  1  0
  8 17  1  0
M  END
