
     RDKit          3D

 17 17  0  0  0  0  0  0  0  0999 V2000
    3.1501   -0.5391    0.5601 O   0  0  0  0  0  0  0  0  0  0  0  0
    2.7422    0.6113    0.1938 C   0  0  0  0  0  0  0  0  0  0  0  0
    1.3911    0.8148   -0.0732 O   0  0  0  0  0  0  0  0  0  0  0  0
    0.5227   -0.2592    0.0711 C   0  0  0  0  0  0  0  0  0  0  0  0
   -0.3611   -0.5522   -1.1515 C   0  0  0  0  0  0  0  0  0  0  0  0
   -1.3720   -1.0665   -0.1145 C   0  0  0  0  0  0  0  0  0  0  0  0
   -0.7833    0.0277    0.7909 C   0  0  0  0  0  0  0  0  0  0  0  0
   -1.3642    1.3344    0.3719 C   0  0  0  0  0  0  0  0  0  0  0  0
   -2.5640    1.4853    0.5821 O   0  0  0  0  0  0  0  0  0  0  0  0
    3.4946    1.3732    0.1130 H   0  0  0  0  0  0  0  0  0  0  0  0
    0.9721   -1.2211    0.3945 H   0  0  0  0  0  0  0  0  0  0  0  0
   -0.7800    0.3598   -1.6072 H   0  0  0  0  0  0  0  0  0  0  0  0
    0.0411   -1.3156   -1.8161 H   0  0  0  0  0  0  0  0  0  0  0  0
   -2.4151   -0.9266   -0.3855 H   0  0  0  0  0  0  0  0  0  0  0  0
   -1.0879   -2.0539    0.3118 H   0  0  0  0  0  0  0  0  0  0  0  0
   -0.8085   -0.1937    1.8530 H   0  0  0  0  0  0  0  0  0  0  0  0
   -0.7778    2.1216   -0.0942 H   0  0  0  0  0  0  0  0  0  0  0  0
  1  2  2  0
  2  3  1  0
  3  4  1  0
  4  5  1  0
  5  6  1  0
  6  7  1  0
  7  8  1  0
  8  9  2  0
  7  4  1  0
  2 10  1  0
  4 11  1  0
  5 12  1  0
  5 13  1  0
  6 14  1  0
  6 15  1  0
  7 16  1  0
  8 17  1  0
M  END
