
     RDKit          3D

 17 17  0  0  0  0  0  0  0  0999 V2000
    3.7236   -0.7517    0.3276 O   0  0  0  0  0  0  0  0  0  0  0  0
    3.2294   -0.0480    1.2416 C   0  0  0  0  0  0  0  0  0  0  0  0
    1.8961    0.3215    1.1428 O   0  0  0  0  0  0  0  0  0  0  0  0
    1.0746   -0.0601    0.0601 C   0  0  0  0  0  0  0  0  0  0  0  0
   -0.3168    0.4551    0.1744 C   0  0  0  0  0  0  0  0  0  0  0  0
   -1.2187    0.0506   -0.9901 C   0  0  0  0  0  0  0  0  0  0  0  0
   -1.4773   -0.4454    0.3870 C   0  0  0  0  0  0  0  0  0  0  0  0
   -2.6782    0.0912    1.0448 C   0  0  0  0  0  0  0  0  0  0  0  0
   -3.0055    1.2417    0.8675 O   0  0  0  0  0  0  0  0  0  0  0  0
    3.8163    0.2803    2.1084 H   0  0  0  0  0  0  0  0  0  0  0  0
    1.5276    0.3884   -0.8646 H   0  0  0  0  0  0  0  0  0  0  0  0
    1.0750   -1.1623   -0.0828 H   0  0  0  0  0  0  0  0  0  0  0  0
   -0.3828    1.5288    0.4801 H   0  0  0  0  0  0  0  0  0  0  0  0
   -1.8910    0.8385   -1.4116 H   0  0  0  0  0  0  0  0  0  0  0  0
   -0.8601   -0.6814   -1.7131 H   0  0  0  0  0  0  0  0  0  0  0  0
   -1.2397   -1.5163    0.5994 H   0  0  0  0  0  0  0  0  0  0  0  0
   -3.2724   -0.5309    1.6855 H   0  0  0  0  0  0  0  0  0  0  0  0
  1  2  2  0
  2  3  1  0
  3  4  1  0
  4  5  1  0
  5  6  1  0
  6  7  1  0
  7  8  1  0
  8  9  2  0
  7  5  1  0
  2 10  1  0
  4 11  1  0
  4 12  1  0
  5 13  1  0
  6 14  1  0
  6 15  1  0
  7 16  1  0
  8 17  1  0
M  END
