
     RDKit          3D

 15 15  0  0  0  0  0  0  0  0999 V2000
    2.7045    0.0243   -1.6810 O   0  0  0  0  0  0  0  0  0  0  0  0
    2.6227   -0.1113   -0.4500 C   0  0  0  0  0  0  0  0  0  0  0  0
    1.4083   -0.1059    0.1597 O   0  0  0  0  0  0  0  0  0  0  0  0
    0.1676    0.0440   -0.4817 C   0  0  0  0  0  0  0  0  0  0  0  0
   -0.6770    1.1455    0.0849 C   0  0  0  0  0  0  0  0  0  0  0  0
   -1.5647    0.4609    1.0847 C   0  0  0  0  0  0  0  0  0  0  0  0
   -1.5525   -0.8453    0.8616 C   0  0  0  0  0  0  0  0  0  0  0  0
   -0.6898   -1.1518   -0.2647 C   0  0  0  0  0  0  0  0  0  0  0  0
   -0.6709   -2.2361   -0.9375 O   0  0  0  0  0  0  0  0  0  0  0  0
    3.5229   -0.2319    0.1197 H   0  0  0  0  0  0  0  0  0  0  0  0
    0.3600    0.1555   -1.5616 H   0  0  0  0  0  0  0  0  0  0  0  0
   -1.2951    1.5516   -0.7430 H   0  0  0  0  0  0  0  0  0  0  0  0
   -0.1115    1.9698    0.5247 H   0  0  0  0  0  0  0  0  0  0  0  0
   -2.1309    0.9574    1.8708 H   0  0  0  0  0  0  0  0  0  0  0  0
   -2.0938   -1.6266    1.4134 H   0  0  0  0  0  0  0  0  0  0  0  0
  1  2  2  0
  2  3  1  0
  3  4  1  0
  4  5  1  0
  5  6  1  0
  6  7  2  0
  7  8  1  0
  8  9  2  0
  8  4  1  0
  2 10  1  0
  4 11  1  0
  5 12  1  0
  5 13  1  0
  6 14  1  0
  7 15  1  0
M  END
