
     RDKit          3D

 19 19  0  0  0  0  0  0  0  0999 V2000
    1.6780    2.2388   -1.2678 O   0  0  0  0  0  0  0  0  0  0  0  0
    2.4552    1.7314   -0.4210 C   0  0  0  0  0  0  0  0  0  0  0  0
    2.0503    0.5144    0.0989 O   0  0  0  0  0  0  0  0  0  0  0  0
    0.8757   -0.1571   -0.2476 C   0  0  0  0  0  0  0  0  0  0  0  0
    0.8575   -1.6349   -0.4423 C   0  0  0  0  0  0  0  0  0  0  0  0
    0.0940   -0.9647    0.7006 C   0  0  0  0  0  0  0  0  0  0  0  0
   -1.4164   -0.9372    0.5959 C   0  0  0  0  0  0  0  0  0  0  0  0
   -1.8336    0.5231    0.8070 C   0  0  0  0  0  0  0  0  0  0  0  0
   -1.3973    0.9066    2.0602 O   0  0  0  0  0  0  0  0  0  0  0  0
    3.3811    2.1935   -0.1043 H   0  0  0  0  0  0  0  0  0  0  0  0
    0.2718    0.4041   -1.0139 H   0  0  0  0  0  0  0  0  0  0  0  0
    1.7413   -2.2591   -0.1629 H   0  0  0  0  0  0  0  0  0  0  0  0
    0.2475   -2.0959   -1.2411 H   0  0  0  0  0  0  0  0  0  0  0  0
    0.4604   -1.1980    1.7160 H   0  0  0  0  0  0  0  0  0  0  0  0
   -1.7577   -1.3105   -0.3944 H   0  0  0  0  0  0  0  0  0  0  0  0
   -1.9021   -1.5024    1.4123 H   0  0  0  0  0  0  0  0  0  0  0  0
   -1.4345    1.1319   -0.0175 H   0  0  0  0  0  0  0  0  0  0  0  0
   -2.9584    0.5342    0.8038 H   0  0  0  0  0  0  0  0  0  0  0  0
   -1.4129    1.8818    2.2075 H   0  0  0  0  0  0  0  0  0  0  0  0
  1  2  2  0
  2  3  1  0
  3  4  1  0
  4  5  1  0
  5  6  1  0
  6  7  1  0
  7  8  1  0
  8  9  1  0
  6  4  1  0
  2 10  1  0
  4 11  1  0
  5 12  1  0
  5 13  1  0
  6 14  1  0
  7 15  1  0
  7 16  1  0
  8 17  1  0
  8 18  1  0
  9 19  1  0
M  END
