
     RDKit          3D

 17 18  0  0  0  0  0  0  0  0999 V2000
    3.5253    0.5602   -0.3322 O   0  0  0  0  0  0  0  0  0  0  0  0
    3.0953    0.4011    0.8325 C   0  0  0  0  0  0  0  0  0  0  0  0
    1.7860    0.0509    1.0232 O   0  0  0  0  0  0  0  0  0  0  0  0
    0.9165   -0.1332   -0.0640 C   0  0  0  0  0  0  0  0  0  0  0  0
    0.0003   -1.3875   -0.0054 C   0  0  0  0  0  0  0  0  0  0  0  0
   -0.5222   -0.0418    0.1197 C   0  0  0  0  0  0  0  0  0  0  0  0
   -1.4745    0.6049   -0.7999 C   0  0  0  0  0  0  0  0  0  0  0  0
   -2.3528    0.4442    0.4423 C   0  0  0  0  0  0  0  0  0  0  0  0
   -1.1623    0.4652    1.2085 O   0  0  0  0  0  0  0  0  0  0  0  0
    3.8046    0.5539    1.6540 H   0  0  0  0  0  0  0  0  0  0  0  0
    1.3575    0.0220   -1.0609 H   0  0  0  0  0  0  0  0  0  0  0  0
   -0.0658   -2.0095   -0.8983 H   0  0  0  0  0  0  0  0  0  0  0  0
    0.1090   -1.9797    0.9343 H   0  0  0  0  0  0  0  0  0  0  0  0
   -1.8314    0.0294   -1.6780 H   0  0  0  0  0  0  0  0  0  0  0  0
   -1.3355    1.6960   -0.9783 H   0  0  0  0  0  0  0  0  0  0  0  0
   -3.0298    1.2714    0.6472 H   0  0  0  0  0  0  0  0  0  0  0  0
   -2.8202   -0.5474    0.5487 H   0  0  0  0  0  0  0  0  0  0  0  0
  1  2  2  0
  2  3  1  0
  3  4  1  0
  4  5  1  0
  5  6  1  0
  6  7  1  0
  7  8  1  0
  8  9  1  0
  6  4  1  0
  9  6  1  0
  2 10  1  0
  4 11  1  0
  5 12  1  0
  5 13  1  0
  7 14  1  0
  7 15  1  0
  8 16  1  0
  8 17  1  0
M  END
