
     RDKit          3D

 15 16  0  0  0  0  0  0  0  0999 V2000
    3.0882    0.1297    0.4402 O   0  0  0  0  0  0  0  0  0  0  0  0
    2.5578    0.6304   -0.5844 C   0  0  0  0  0  0  0  0  0  0  0  0
    1.1944    0.5357   -0.7143 O   0  0  0  0  0  0  0  0  0  0  0  0
    0.3445   -0.0842    0.2214 C   0  0  0  0  0  0  0  0  0  0  0  0
   -0.6762   -1.0273   -0.3628 C   0  0  0  0  0  0  0  0  0  0  0  0
   -1.2839    0.2163   -0.9707 C   0  0  0  0  0  0  0  0  0  0  0  0
   -0.9816    0.5872    0.4521 C   0  0  0  0  0  0  0  0  0  0  0  0
   -1.4754   -0.7364    0.7985 C   0  0  0  0  0  0  0  0  0  0  0  0
   -2.1644   -1.2647    1.6074 O   0  0  0  0  0  0  0  0  0  0  0  0
    3.2242    1.1030   -1.2936 H   0  0  0  0  0  0  0  0  0  0  0  0
    0.8041   -0.5161    1.1057 H   0  0  0  0  0  0  0  0  0  0  0  0
   -0.4902   -1.8873   -0.8402 H   0  0  0  0  0  0  0  0  0  0  0  0
   -2.3530    0.1272   -1.2081 H   0  0  0  0  0  0  0  0  0  0  0  0
   -0.6465    0.7192   -1.7264 H   0  0  0  0  0  0  0  0  0  0  0  0
   -1.1420    1.4673    0.8985 H   0  0  0  0  0  0  0  0  0  0  0  0
  1  2  2  0
  2  3  1  0
  3  4  1  0
  4  5  1  0
  5  6  1  0
  6  7  1  0
  7  8  1  0
  8  9  2  0
  7  4  1  0
  8  5  1  0
  2 10  1  0
  4 11  1  0
  5 12  1  0
  6 13  1  0
  6 14  1  0
  7 15  1  0
M  END
