
     RDKit          3D

 19 19  0  0  0  0  0  0  0  0999 V2000
    2.8073   -0.1779    1.5539 O   0  0  0  0  0  0  0  0  0  0  0  0
    2.9626   -0.1482    0.3063 C   0  0  0  0  0  0  0  0  0  0  0  0
    1.8971   -0.0576   -0.5778 O   0  0  0  0  0  0  0  0  0  0  0  0
    0.5949    0.0041   -0.0823 C   0  0  0  0  0  0  0  0  0  0  0  0
   -0.2537   -1.1911   -0.5175 C   0  0  0  0  0  0  0  0  0  0  0  0
   -1.6283   -1.0154    0.1008 C   0  0  0  0  0  0  0  0  0  0  0  0
   -2.2072    0.1904   -0.1825 O   0  0  0  0  0  0  0  0  0  0  0  0
   -1.4348    1.2559    0.2943 C   0  0  0  0  0  0  0  0  0  0  0  0
   -0.1667    1.2310   -0.5597 C   0  0  0  0  0  0  0  0  0  0  0  0
    3.9749   -0.1966   -0.0668 H   0  0  0  0  0  0  0  0  0  0  0  0
    0.5817   -0.0301    1.0407 H   0  0  0  0  0  0  0  0  0  0  0  0
   -0.3475   -1.1923   -1.6243 H   0  0  0  0  0  0  0  0  0  0  0  0
    0.1914   -2.1144   -0.1124 H   0  0  0  0  0  0  0  0  0  0  0  0
   -2.3176   -1.8165   -0.2536 H   0  0  0  0  0  0  0  0  0  0  0  0
   -1.4819   -1.0663    1.2100 H   0  0  0  0  0  0  0  0  0  0  0  0
   -1.1448    0.9718    1.3367 H   0  0  0  0  0  0  0  0  0  0  0  0
   -1.9532    2.2110    0.2568 H   0  0  0  0  0  0  0  0  0  0  0  0
   -0.4784    0.9923   -1.6186 H   0  0  0  0  0  0  0  0  0  0  0  0
    0.4042    2.1498   -0.5041 H   0  0  0  0  0  0  0  0  0  0  0  0
  1  2  2  0
  2  3  1  0
  3  4  1  0
  4  5  1  0
  5  6  1  0
  6  7  1  0
  7  8  1  0
  8  9  1  0
  9  4  1  0
  2 10  1  0
  4 11  1  0
  5 12  1  0
  5 13  1  0
  6 14  1  0
  6 15  1  0
  8 16  1  0
  8 17  1  0
  9 18  1  0
  9 19  1  0
M  END
