
     RDKit          3D

 17 18  0  0  0  0  0  0  0  0999 V2000
    3.1016   -0.6522    0.0381 O   0  0  0  0  0  0  0  0  0  0  0  0
    2.7590    0.3866   -0.5653 C   0  0  0  0  0  0  0  0  0  0  0  0
    1.4223    0.6962   -0.4001 O   0  0  0  0  0  0  0  0  0  0  0  0
    0.5019   -0.0171    0.3371 C   0  0  0  0  0  0  0  0  0  0  0  0
   -0.3763    0.6374    1.3209 C   0  0  0  0  0  0  0  0  0  0  0  0
   -1.5631   -0.0138    0.6366 C   0  0  0  0  0  0  0  0  0  0  0  0
   -1.8053    0.4230   -0.7328 C   0  0  0  0  0  0  0  0  0  0  0  0
   -0.6772   -0.5042   -0.4809 C   0  0  0  0  0  0  0  0  0  0  0  0
   -0.7402   -1.8293   -0.8684 O   0  0  0  0  0  0  0  0  0  0  0  0
    3.4144    1.0026   -1.1629 H   0  0  0  0  0  0  0  0  0  0  0  0
    1.0073   -0.8997    0.7899 H   0  0  0  0  0  0  0  0  0  0  0  0
   -0.2433    0.2964    2.3885 H   0  0  0  0  0  0  0  0  0  0  0  0
   -0.5031    1.7162    1.3094 H   0  0  0  0  0  0  0  0  0  0  0  0
   -2.1844   -0.7370    1.1841 H   0  0  0  0  0  0  0  0  0  0  0  0
   -1.4899    1.4685   -1.0071 H   0  0  0  0  0  0  0  0  0  0  0  0
   -2.6430    0.0534   -1.3233 H   0  0  0  0  0  0  0  0  0  0  0  0
    0.0195   -2.0268   -1.4638 H   0  0  0  0  0  0  0  0  0  0  0  0
  1  2  2  0
  2  3  1  0
  3  4  1  0
  4  5  1  0
  5  6  1  0
  6  7  1  0
  7  8  1  0
  8  9  1  0
  8  4  1  0
  8  6  1  0
  2 10  1  0
  4 11  1  0
  5 12  1  0
  5 13  1  0
  6 14  1  0
  7 15  1  0
  7 16  1  0
  9 17  1  0
M  END
