
     RDKit          3D

 15 15  0  0  0  0  0  0  0  0999 V2000
   -2.5115    0.7320    1.3571 O   0  0  0  0  0  0  0  0  0  0  0  0
   -2.5439    0.5739    0.0963 C   0  0  0  0  0  0  0  0  0  0  0  0
   -1.3896    0.1674   -0.5674 O   0  0  0  0  0  0  0  0  0  0  0  0
   -0.2094   -0.0645    0.1396 C   0  0  0  0  0  0  0  0  0  0  0  0
    0.4023   -1.4184   -0.1616 C   0  0  0  0  0  0  0  0  0  0  0  0
    1.7756   -1.2420    0.1616 O   0  0  0  0  0  0  0  0  0  0  0  0
    2.1037    0.1001    0.1800 C   0  0  0  0  0  0  0  0  0  0  0  0
    3.1703    0.6386    0.5658 O   0  0  0  0  0  0  0  0  0  0  0  0
    0.9329    0.8333   -0.3563 C   0  0  0  0  0  0  0  0  0  0  0  0
   -3.4673    0.7582   -0.4356 H   0  0  0  0  0  0  0  0  0  0  0  0
   -0.2942    0.1035    1.2321 H   0  0  0  0  0  0  0  0  0  0  0  0
   -0.0629   -2.1876    0.4658 H   0  0  0  0  0  0  0  0  0  0  0  0
    0.3071   -1.5910   -1.2426 H   0  0  0  0  0  0  0  0  0  0  0  0
    0.9464    0.7398   -1.4501 H   0  0  0  0  0  0  0  0  0  0  0  0
    0.8404    1.8566    0.0153 H   0  0  0  0  0  0  0  0  0  0  0  0
  1  2  2  0
  2  3  1  0
  3  4  1  0
  4  5  1  0
  5  6  1  0
  6  7  1  0
  7  8  2  0
  7  9  1  0
  9  4  1  0
  2 10  1  0
  4 11  1  0
  5 12  1  0
  5 13  1  0
  9 14  1  0
  9 15  1  0
M  END
