
     RDKit          3D

 19 19  0  0  0  0  0  0  0  0999 V2000
    3.2932   -0.9179   -0.9276 O   0  0  0  0  0  0  0  0  0  0  0  0
    3.2276   -0.5253    0.2688 C   0  0  0  0  0  0  0  0  0  0  0  0
    1.9787   -0.1748    0.7633 O   0  0  0  0  0  0  0  0  0  0  0  0
    0.8054   -0.2483   -0.0323 C   0  0  0  0  0  0  0  0  0  0  0  0
    0.2486    1.1160   -0.2069 C   0  0  0  0  0  0  0  0  0  0  0  0
   -1.2057    1.2420    0.1770 C   0  0  0  0  0  0  0  0  0  0  0  0
   -1.9992   -0.0064   -0.1370 C   0  0  0  0  0  0  0  0  0  0  0  0
   -1.2933   -1.2678    0.1599 C   0  0  0  0  0  0  0  0  0  0  0  0
    0.0056   -1.1870    0.5235 O   0  0  0  0  0  0  0  0  0  0  0  0
    4.1198   -0.4754    0.8550 H   0  0  0  0  0  0  0  0  0  0  0  0
    1.1297   -0.6188   -1.0349 H   0  0  0  0  0  0  0  0  0  0  0  0
    0.3248    1.4714   -1.2574 H   0  0  0  0  0  0  0  0  0  0  0  0
    0.8141    1.8581    0.3999 H   0  0  0  0  0  0  0  0  0  0  0  0
   -1.6951    2.0791   -0.3660 H   0  0  0  0  0  0  0  0  0  0  0  0
   -1.2624    1.3924    1.2760 H   0  0  0  0  0  0  0  0  0  0  0  0
   -2.9176    0.0452    0.5197 H   0  0  0  0  0  0  0  0  0  0  0  0
   -2.3908    0.0175   -1.1686 H   0  0  0  0  0  0  0  0  0  0  0  0
   -1.3516   -1.9276   -0.7570 H   0  0  0  0  0  0  0  0  0  0  0  0
   -1.8320   -1.8722    0.9446 H   0  0  0  0  0  0  0  0  0  0  0  0
  1  2  2  0
  2  3  1  0
  3  4  1  0
  4  5  1  0
  5  6  1  0
  6  7  1  0
  7  8  1  0
  8  9  1  0
  9  4  1  0
  2 10  1  0
  4 11  1  0
  5 12  1  0
  5 13  1  0
  6 14  1  0
  6 15  1  0
  7 16  1  0
  7 17  1  0
  8 18  1  0
  8 19  1  0
M  END
