
     RDKit          3D

 17 18  0  0  0  0  0  0  0  0999 V2000
   -3.3018   -0.0014    0.0382 O   0  0  0  0  0  0  0  0  0  0  0  0
   -2.5019    0.7220    0.6802 C   0  0  0  0  0  0  0  0  0  0  0  0
   -1.1730    0.3427    0.6832 O   0  0  0  0  0  0  0  0  0  0  0  0
   -0.7535   -0.7916    0.0017 C   0  0  0  0  0  0  0  0  0  0  0  0
    0.3263   -1.6738    0.4941 C   0  0  0  0  0  0  0  0  0  0  0  0
    0.5239   -0.7944   -0.7608 C   0  0  0  0  0  0  0  0  0  0  0  0
    1.5498    0.2804   -0.5932 C   0  0  0  0  0  0  0  0  0  0  0  0
    1.3440    1.6676   -0.8415 C   0  0  0  0  0  0  0  0  0  0  0  0
    1.3420    1.1234    0.5636 O   0  0  0  0  0  0  0  0  0  0  0  0
   -2.8327    1.6062    1.2108 H   0  0  0  0  0  0  0  0  0  0  0  0
   -1.5701   -1.3411   -0.5266 H   0  0  0  0  0  0  0  0  0  0  0  0
    0.9264   -1.4259    1.3881 H   0  0  0  0  0  0  0  0  0  0  0  0
    0.2909   -2.7646    0.2949 H   0  0  0  0  0  0  0  0  0  0  0  0
    0.6086   -1.3467   -1.7265 H   0  0  0  0  0  0  0  0  0  0  0  0
    2.5941   -0.1026   -0.5813 H   0  0  0  0  0  0  0  0  0  0  0  0
    0.3961    2.1791   -0.9724 H   0  0  0  0  0  0  0  0  0  0  0  0
    2.2308    2.3208   -1.0118 H   0  0  0  0  0  0  0  0  0  0  0  0
  1  2  2  0
  2  3  1  0
  3  4  1  0
  4  5  1  0
  5  6  1  0
  6  7  1  0
  7  8  1  0
  8  9  1  0
  6  4  1  0
  9  7  1  0
  2 10  1  0
  4 11  1  0
  5 12  1  0
  5 13  1  0
  6 14  1  0
  7 15  1  0
  8 16  1  0
  8 17  1  0
M  END
