
     RDKit          3D

 17 18  0  0  0  0  0  0  0  0999 V2000
   -2.1458    0.3516    1.4900 O   0  0  0  0  0  0  0  0  0  0  0  0
   -2.4647    0.4611    0.2951 C   0  0  0  0  0  0  0  0  0  0  0  0
   -1.8544   -0.2721   -0.6697 O   0  0  0  0  0  0  0  0  0  0  0  0
   -0.8387   -1.1922   -0.5035 C   0  0  0  0  0  0  0  0  0  0  0  0
    0.4303   -0.6389   -0.0320 C   0  0  0  0  0  0  0  0  0  0  0  0
    1.0831    0.4052   -0.8971 C   0  0  0  0  0  0  0  0  0  0  0  0
    2.0239    0.6262    0.2302 C   0  0  0  0  0  0  0  0  0  0  0  0
    0.6044    0.5461    0.7849 C   0  0  0  0  0  0  0  0  0  0  0  0
    0.2455    1.3140   -0.2786 O   0  0  0  0  0  0  0  0  0  0  0  0
   -3.2617    1.1790    0.0664 H   0  0  0  0  0  0  0  0  0  0  0  0
   -0.6436   -1.6229   -1.5411 H   0  0  0  0  0  0  0  0  0  0  0  0
   -1.1936   -2.0910    0.0568 H   0  0  0  0  0  0  0  0  0  0  0  0
    1.1740   -1.4412    0.2413 H   0  0  0  0  0  0  0  0  0  0  0  0
    1.2858    0.3255   -1.8806 H   0  0  0  0  0  0  0  0  0  0  0  0
    2.6104   -0.2625    0.5198 H   0  0  0  0  0  0  0  0  0  0  0  0
    2.5055    1.6001    0.3248 H   0  0  0  0  0  0  0  0  0  0  0  0
    0.4396    0.7119    1.7933 H   0  0  0  0  0  0  0  0  0  0  0  0
  1  2  2  0
  2  3  1  0
  3  4  1  0
  4  5  1  0
  5  6  1  0
  6  7  1  0
  7  8  1  0
  8  9  1  0
  8  5  1  0
  9  6  1  0
  2 10  1  0
  4 11  1  0
  4 12  1  0
  5 13  1  0
  6 14  1  0
  7 15  1  0
  7 16  1  0
  8 17  1  0
M  END
