
     RDKit          3D

 17 17  0  0  0  0  0  0  0  0999 V2000
    2.6012   -0.2479    0.6065 O   0  0  0  0  0  0  0  0  0  0  0  0
    2.3122   -0.9678   -0.3786 C   0  0  0  0  0  0  0  0  0  0  0  0
    1.0585   -0.8486   -0.9087 O   0  0  0  0  0  0  0  0  0  0  0  0
    0.1391    0.0652   -0.3436 C   0  0  0  0  0  0  0  0  0  0  0  0
    0.5510    1.4710   -0.3481 C   0  0  0  0  0  0  0  0  0  0  0  0
   -0.1807    2.3035    0.1162 O   0  0  0  0  0  0  0  0  0  0  0  0
   -0.3548   -0.3278    1.0320 C   0  0  0  0  0  0  0  0  0  0  0  0
   -1.7482    0.0155    0.5614 C   0  0  0  0  0  0  0  0  0  0  0  0
   -1.2696   -0.1802   -0.8460 C   0  0  0  0  0  0  0  0  0  0  0  0
    3.0767   -1.6445   -0.7525 H   0  0  0  0  0  0  0  0  0  0  0  0
    1.4889    1.7796   -0.7548 H   0  0  0  0  0  0  0  0  0  0  0  0
   -0.2367   -1.4307    1.2026 H   0  0  0  0  0  0  0  0  0  0  0  0
    0.0330    0.2959    1.8621 H   0  0  0  0  0  0  0  0  0  0  0  0
   -2.0312    1.0745    0.7987 H   0  0  0  0  0  0  0  0  0  0  0  0
   -2.4682   -0.7408    0.9333 H   0  0  0  0  0  0  0  0  0  0  0  0
   -1.4050   -1.2204   -1.2020 H   0  0  0  0  0  0  0  0  0  0  0  0
   -1.5663    0.6037   -1.5785 H   0  0  0  0  0  0  0  0  0  0  0  0
  1  2  2  0
  2  3  1  0
  3  4  1  0
  4  5  1  0
  5  6  2  0
  4  7  1  0
  7  8  1  0
  8  9  1  0
  9  4  1  0
  2 10  1  0
  5 11  1  0
  7 12  1  0
  7 13  1  0
  8 14  1  0
  8 15  1  0
  9 16  1  0
  9 17  1  0
M  END
