
     RDKit          3D

 17 17  0  0  0  0  0  0  0  0999 V2000
   -1.3820    1.2251    0.7533 O   0  0  0  0  0  0  0  0  0  0  0  0
   -2.4534    0.9681    0.1463 C   0  0  0  0  0  0  0  0  0  0  0  0
   -2.5398   -0.2542   -0.5015 O   0  0  0  0  0  0  0  0  0  0  0  0
   -1.4629   -1.1539   -0.4687 C   0  0  0  0  0  0  0  0  0  0  0  0
   -0.2056   -0.5455   -1.0824 C   0  0  0  0  0  0  0  0  0  0  0  0
    0.9018   -1.5295   -1.0254 O   0  0  0  0  0  0  0  0  0  0  0  0
    0.9076   -0.3194   -0.1992 C   0  0  0  0  0  0  0  0  0  0  0  0
    2.1143    0.4979   -0.5234 C   0  0  0  0  0  0  0  0  0  0  0  0
    2.1369    1.6546    0.2537 O   0  0  0  0  0  0  0  0  0  0  0  0
   -3.2944    1.6667    0.1187 H   0  0  0  0  0  0  0  0  0  0  0  0
   -1.2316   -1.5375    0.5428 H   0  0  0  0  0  0  0  0  0  0  0  0
   -1.7891   -2.0558   -1.0610 H   0  0  0  0  0  0  0  0  0  0  0  0
   -0.3066   -0.1573   -2.0943 H   0  0  0  0  0  0  0  0  0  0  0  0
    0.7716   -0.5209    0.8807 H   0  0  0  0  0  0  0  0  0  0  0  0
    3.0391   -0.0904   -0.2472 H   0  0  0  0  0  0  0  0  0  0  0  0
    2.2250    0.7060   -1.6045 H   0  0  0  0  0  0  0  0  0  0  0  0
    2.5691    1.4459    1.1025 H   0  0  0  0  0  0  0  0  0  0  0  0
  1  2  2  0
  2  3  1  0
  3  4  1  0
  4  5  1  0
  5  6  1  0
  6  7  1  0
  7  8  1  0
  8  9  1  0
  7  5  1  0
  2 10  1  0
  4 11  1  0
  4 12  1  0
  5 13  1  0
  7 14  1  0
  8 15  1  0
  8 16  1  0
  9 17  1  0
M  END
