
     RDKit          3D

 19 18  0  0  0  0  0  0  0  0999 V2000
    3.2492   -1.6846   -0.5359 O   0  0  0  0  0  0  0  0  0  0  0  0
    3.4049   -0.6058    0.0887 C   0  0  0  0  0  0  0  0  0  0  0  0
    2.2814    0.1755    0.3117 O   0  0  0  0  0  0  0  0  0  0  0  0
    1.0138   -0.2635   -0.1658 C   0  0  0  0  0  0  0  0  0  0  0  0
    0.0291    0.7870    0.2315 C   0  0  0  0  0  0  0  0  0  0  0  0
    0.3588    2.0385   -0.3184 O   0  0  0  0  0  0  0  0  0  0  0  0
   -1.4031    0.4835   -0.1153 C   0  0  0  0  0  0  0  0  0  0  0  0
   -1.8178   -0.7871    0.5856 C   0  0  0  0  0  0  0  0  0  0  0  0
   -3.1514   -1.1120    0.3092 O   0  0  0  0  0  0  0  0  0  0  0  0
    4.3464   -0.2492    0.4602 H   0  0  0  0  0  0  0  0  0  0  0  0
    1.0746   -0.2982   -1.2825 H   0  0  0  0  0  0  0  0  0  0  0  0
    0.7472   -1.2475    0.2303 H   0  0  0  0  0  0  0  0  0  0  0  0
    0.0649    0.9372    1.3463 H   0  0  0  0  0  0  0  0  0  0  0  0
   -0.1376    2.7057    0.2233 H   0  0  0  0  0  0  0  0  0  0  0  0
   -1.5635    0.4091   -1.2125 H   0  0  0  0  0  0  0  0  0  0  0  0
   -2.0265    1.3118    0.3089 H   0  0  0  0  0  0  0  0  0  0  0  0
   -1.1929   -1.6656    0.2448 H   0  0  0  0  0  0  0  0  0  0  0  0
   -1.7347   -0.6099    1.6699 H   0  0  0  0  0  0  0  0  0  0  0  0
   -3.5427   -0.3250   -0.1383 H   0  0  0  0  0  0  0  0  0  0  0  0
  1  2  2  0
  2  3  1  0
  3  4  1  0
  4  5  1  0
  5  6  1  0
  5  7  1  0
  7  8  1  0
  8  9  1  0
  2 10  1  0
  4 11  1  0
  4 12  1  0
  5 13  1  0
  6 14  1  0
  7 15  1  0
  7 16  1  0
  8 17  1  0
  8 18  1  0
  9 19  1  0
M  END
