
     RDKit          3D

 13 13  0  0  0  0  0  0  0  0999 V2000
    2.2166    1.1907   -0.4458 O   0  0  0  0  0  0  0  0  0  0  0  0
    2.1659    0.0627   -0.9988 C   0  0  0  0  0  0  0  0  0  0  0  0
    1.2602   -0.8444   -0.5195 O   0  0  0  0  0  0  0  0  0  0  0  0
    0.3737   -0.6561    0.5290 C   0  0  0  0  0  0  0  0  0  0  0  0
   -0.5897    0.4774    0.3077 C   0  0  0  0  0  0  0  0  0  0  0  0
   -2.0336    0.0884    0.1099 C   0  0  0  0  0  0  0  0  0  0  0  0
   -1.5386    0.7174    1.3736 O   0  0  0  0  0  0  0  0  0  0  0  0
    2.7942   -0.2324   -1.8290 H   0  0  0  0  0  0  0  0  0  0  0  0
    0.8855   -0.4699    1.5167 H   0  0  0  0  0  0  0  0  0  0  0  0
   -0.1882   -1.6028    0.6789 H   0  0  0  0  0  0  0  0  0  0  0  0
   -0.2741    1.4067   -0.1596 H   0  0  0  0  0  0  0  0  0  0  0  0
   -2.3674   -0.9354    0.3265 H   0  0  0  0  0  0  0  0  0  0  0  0
   -2.7045    0.7976   -0.4312 H   0  0  0  0  0  0  0  0  0  0  0  0
  1  2  2  0
  2  3  1  0
  3  4  1  0
  4  5  1  0
  5  6  1  0
  6  7  1  0
  7  5  1  0
  2  8  1  0
  4  9  1  0
  4 10  1  0
  5 11  1  0
  6 12  1  0
  6 13  1  0
M  END
