
     RDKit          3D

 17 17  0  0  0  0  0  0  0  0999 V2000
    2.7643   -1.4678    0.7992 O   0  0  0  0  0  0  0  0  0  0  0  0
    2.8982   -0.7121   -0.1995 C   0  0  0  0  0  0  0  0  0  0  0  0
    1.8360    0.1171   -0.5103 O   0  0  0  0  0  0  0  0  0  0  0  0
    0.6646    0.0939    0.2783 C   0  0  0  0  0  0  0  0  0  0  0  0
   -0.0109    1.4476    0.4072 C   0  0  0  0  0  0  0  0  0  0  0  0
   -0.6599    0.3631   -0.3510 C   0  0  0  0  0  0  0  0  0  0  0  0
   -0.6400    0.4105   -1.7504 O   0  0  0  0  0  0  0  0  0  0  0  0
   -1.8950   -0.2670    0.2383 C   0  0  0  0  0  0  0  0  0  0  0  0
   -2.0534   -1.5992   -0.1865 O   0  0  0  0  0  0  0  0  0  0  0  0
    3.8257   -0.7188   -0.7936 H   0  0  0  0  0  0  0  0  0  0  0  0
    0.6156   -0.6025    1.1502 H   0  0  0  0  0  0  0  0  0  0  0  0
    0.4502    2.3236   -0.0929 H   0  0  0  0  0  0  0  0  0  0  0  0
   -0.3746    1.6849    1.4337 H   0  0  0  0  0  0  0  0  0  0  0  0
   -1.2021    1.1999   -2.0033 H   0  0  0  0  0  0  0  0  0  0  0  0
   -2.8190    0.2571   -0.0254 H   0  0  0  0  0  0  0  0  0  0  0  0
   -1.7719   -0.3028    1.3529 H   0  0  0  0  0  0  0  0  0  0  0  0
   -1.6280   -2.2274    0.4699 H   0  0  0  0  0  0  0  0  0  0  0  0
  1  2  2  0
  2  3  1  0
  3  4  1  0
  4  5  1  0
  5  6  1  0
  6  7  1  0
  6  8  1  0
  8  9  1  0
  6  4  1  0
  2 10  1  0
  4 11  1  0
  5 12  1  0
  5 13  1  0
  7 14  1  0
  8 15  1  0
  8 16  1  0
  9 17  1  0
M  END
