
     RDKit          3D

 15 16  0  0  0  0  0  0  0  0999 V2000
    2.2454    0.9134    1.3483 O   0  0  0  0  0  0  0  0  0  0  0  0
    2.4320    0.8123    0.1072 C   0  0  0  0  0  0  0  0  0  0  0  0
    1.3264    0.4224   -0.6326 O   0  0  0  0  0  0  0  0  0  0  0  0
    0.1337    0.1412   -0.2893 C   0  0  0  0  0  0  0  0  0  0  0  0
   -0.2711   -0.9792    0.6750 C   0  0  0  0  0  0  0  0  0  0  0  0
   -1.5626   -0.3879    0.1879 C   0  0  0  0  0  0  0  0  0  0  0  0
   -0.9500   -0.4183   -1.1849 C   0  0  0  0  0  0  0  0  0  0  0  0
   -0.9080    0.9326    0.3374 C   0  0  0  0  0  0  0  0  0  0  0  0
   -1.2366    2.0065    0.7815 O   0  0  0  0  0  0  0  0  0  0  0  0
    3.4005    1.0199   -0.3410 H   0  0  0  0  0  0  0  0  0  0  0  0
   -0.0093   -0.7723    1.7262 H   0  0  0  0  0  0  0  0  0  0  0  0
   -0.0225   -1.9794    0.3002 H   0  0  0  0  0  0  0  0  0  0  0  0
   -2.4939   -0.6413    0.4494 H   0  0  0  0  0  0  0  0  0  0  0  0
   -1.3650    0.3379   -1.8625 H   0  0  0  0  0  0  0  0  0  0  0  0
   -0.7190   -1.4078   -1.6027 H   0  0  0  0  0  0  0  0  0  0  0  0
  1  2  2  0
  2  3  1  0
  3  4  1  0
  4  5  1  0
  5  6  1  0
  6  7  1  0
  6  8  1  0
  8  9  2  0
  7  4  1  0
  8  4  1  0
  2 10  1  0
  5 11  1  0
  5 12  1  0
  6 13  1  0
  7 14  1  0
  7 15  1  0
M  END
