
     RDKit          3D

 14 14  0  0  0  0  0  0  0  0999 V2000
    2.3098   -0.5474   -1.6368 O   0  0  0  0  0  0  0  0  0  0  0  0
    2.5410   -0.4713   -0.4075 C   0  0  0  0  0  0  0  0  0  0  0  0
    1.4412   -0.1981    0.3740 O   0  0  0  0  0  0  0  0  0  0  0  0
    0.2022   -0.0286   -0.1877 C   0  0  0  0  0  0  0  0  0  0  0  0
   -0.6643    1.1040    0.2213 C   0  0  0  0  0  0  0  0  0  0  0  0
   -1.8078    0.1196    0.3535 C   0  0  0  0  0  0  0  0  0  0  0  0
   -0.7963   -0.9638    0.4219 C   0  0  0  0  0  0  0  0  0  0  0  0
   -0.8037   -2.1187    0.8141 O   0  0  0  0  0  0  0  0  0  0  0  0
    3.5514   -0.6144   -0.0007 H   0  0  0  0  0  0  0  0  0  0  0  0
    0.1818   -0.1325   -1.3110 H   0  0  0  0  0  0  0  0  0  0  0  0
   -0.8600    1.8502   -0.5879 H   0  0  0  0  0  0  0  0  0  0  0  0
   -0.4529    1.6068    1.1761 H   0  0  0  0  0  0  0  0  0  0  0  0
   -2.4612    0.1169   -0.5382 H   0  0  0  0  0  0  0  0  0  0  0  0
   -2.3813    0.2774    1.3089 H   0  0  0  0  0  0  0  0  0  0  0  0
  1  2  2  0
  2  3  1  0
  3  4  1  0
  4  5  1  0
  5  6  1  0
  6  7  1  0
  7  8  2  0
  7  4  1  0
  2  9  1  0
  4 10  1  0
  5 11  1  0
  5 12  1  0
  6 13  1  0
  6 14  1  0
M  END
