
     RDKit          3D

 12 12  0  0  0  0  0  0  0  0999 V2000
    2.1572    1.0225    1.1677 O   0  0  0  0  0  0  0  0  0  0  0  0
    2.1993    0.0713    0.3456 C   0  0  0  0  0  0  0  0  0  0  0  0
    1.0228   -0.3060   -0.2518 O   0  0  0  0  0  0  0  0  0  0  0  0
   -0.2265    0.2913   -0.0136 C   0  0  0  0  0  0  0  0  0  0  0  0
   -1.2413   -0.7613    0.3332 C   0  0  0  0  0  0  0  0  0  0  0  0
   -1.5626   -0.7979   -1.0382 O   0  0  0  0  0  0  0  0  0  0  0  0
   -1.1067    0.4964   -1.1499 C   0  0  0  0  0  0  0  0  0  0  0  0
   -1.3694    1.4297   -1.9251 O   0  0  0  0  0  0  0  0  0  0  0  0
    3.1470   -0.4081    0.1419 H   0  0  0  0  0  0  0  0  0  0  0  0
   -0.1356    1.1155    0.7274 H   0  0  0  0  0  0  0  0  0  0  0  0
   -0.8202   -1.7225    0.6950 H   0  0  0  0  0  0  0  0  0  0  0  0
   -2.0641   -0.4310    0.9677 H   0  0  0  0  0  0  0  0  0  0  0  0
  1  2  2  0
  2  3  1  0
  3  4  1  0
  4  5  1  0
  5  6  1  0
  6  7  1  0
  7  8  2  0
  7  4  1  0
  2  9  1  0
  4 10  1  0
  5 11  1  0
  5 12  1  0
M  END
