
     RDKit          3D

 14 15  0  0  0  0  0  0  0  0999 V2000
    3.0890   -0.4036   -0.8766 O   0  0  0  0  0  0  0  0  0  0  0  0
    2.6340    0.0946    0.1803 C   0  0  0  0  0  0  0  0  0  0  0  0
    1.2775    0.1369    0.4640 O   0  0  0  0  0  0  0  0  0  0  0  0
    0.3282   -0.3774   -0.4180 C   0  0  0  0  0  0  0  0  0  0  0  0
   -0.9821    0.3058   -0.5903 C   0  0  0  0  0  0  0  0  0  0  0  0
   -1.5959    0.8377    0.6836 C   0  0  0  0  0  0  0  0  0  0  0  0
   -1.6401   -0.5057    1.1238 O   0  0  0  0  0  0  0  0  0  0  0  0
   -0.9254   -1.0184    0.0589 C   0  0  0  0  0  0  0  0  0  0  0  0
    3.3206    0.5027    0.8900 H   0  0  0  0  0  0  0  0  0  0  0  0
    0.7444   -0.8136   -1.3461 H   0  0  0  0  0  0  0  0  0  0  0  0
   -1.4384    0.4883   -1.5587 H   0  0  0  0  0  0  0  0  0  0  0  0
   -2.5968    1.2723    0.4890 H   0  0  0  0  0  0  0  0  0  0  0  0
   -0.9273    1.4190    1.3374 H   0  0  0  0  0  0  0  0  0  0  0  0
   -1.2876   -1.9385   -0.4373 H   0  0  0  0  0  0  0  0  0  0  0  0
  1  2  2  0
  2  3  1  0
  3  4  1  0
  4  5  1  0
  5  6  1  0
  6  7  1  0
  7  8  1  0
  8  4  1  0
  8  5  1  0
  2  9  1  0
  4 10  1  0
  5 11  1  0
  6 12  1  0
  6 13  1  0
  8 14  1  0
M  END
