
     RDKit          3D

 17 17  0  0  0  0  0  0  0  0999 V2000
    3.4304   -0.5072    0.4186 O   0  0  0  0  0  0  0  0  0  0  0  0
    2.9089    0.4839   -0.1386 C   0  0  0  0  0  0  0  0  0  0  0  0
    1.5350    0.5380   -0.2099 O   0  0  0  0  0  0  0  0  0  0  0  0
    0.7063   -0.4636    0.3120 C   0  0  0  0  0  0  0  0  0  0  0  0
   -0.3509   -0.8297   -0.7407 C   0  0  0  0  0  0  0  0  0  0  0  0
   -1.0757    0.4233   -0.2968 C   0  0  0  0  0  0  0  0  0  0  0  0
   -2.5375    0.3689   -0.3225 C   0  0  0  0  0  0  0  0  0  0  0  0
   -3.0873   -0.7124   -0.2404 O   0  0  0  0  0  0  0  0  0  0  0  0
   -0.4600    0.1626    1.0841 C   0  0  0  0  0  0  0  0  0  0  0  0
    3.5029    1.2764   -0.5534 H   0  0  0  0  0  0  0  0  0  0  0  0
    1.1775   -1.3169    0.7924 H   0  0  0  0  0  0  0  0  0  0  0  0
   -0.8622   -1.7758   -0.5271 H   0  0  0  0  0  0  0  0  0  0  0  0
    0.0432   -0.7389   -1.7743 H   0  0  0  0  0  0  0  0  0  0  0  0
   -0.5931    1.3127   -0.7279 H   0  0  0  0  0  0  0  0  0  0  0  0
   -3.0889    1.2936   -0.4141 H   0  0  0  0  0  0  0  0  0  0  0  0
   -1.0302   -0.5655    1.6813 H   0  0  0  0  0  0  0  0  0  0  0  0
   -0.2185    1.0507    1.6573 H   0  0  0  0  0  0  0  0  0  0  0  0
  1  2  2  0
  2  3  1  0
  3  4  1  0
  4  5  1  0
  5  6  1  0
  6  7  1  0
  7  8  2  0
  6  9  1  0
  9  4  1  0
  2 10  1  0
  4 11  1  0
  5 12  1  0
  5 13  1  0
  6 14  1  0
  7 15  1  0
  9 16  1  0
  9 17  1  0
M  END
