
     RDKit          3D

 17 17  0  0  0  0  0  0  0  0999 V2000
    2.1870    1.2641   -1.0610 O   0  0  0  0  0  0  0  0  0  0  0  0
    2.8478    0.7992   -0.1012 C   0  0  0  0  0  0  0  0  0  0  0  0
    2.2912   -0.2413    0.6155 O   0  0  0  0  0  0  0  0  0  0  0  0
    1.0383   -0.7335    0.2608 C   0  0  0  0  0  0  0  0  0  0  0  0
   -0.0861    0.2491    0.3270 C   0  0  0  0  0  0  0  0  0  0  0  0
   -0.2282    0.7488    1.6390 O   0  0  0  0  0  0  0  0  0  0  0  0
   -1.3726   -0.5460    0.0781 C   0  0  0  0  0  0  0  0  0  0  0  0
   -2.3452   -0.0960   -0.9128 C   0  0  0  0  0  0  0  0  0  0  0  0
   -1.4474   -1.1561   -1.2221 O   0  0  0  0  0  0  0  0  0  0  0  0
    3.8088    1.2474    0.0973 H   0  0  0  0  0  0  0  0  0  0  0  0
    1.0740   -1.2151   -0.7486 H   0  0  0  0  0  0  0  0  0  0  0  0
    0.7508   -1.5838    0.9486 H   0  0  0  0  0  0  0  0  0  0  0  0
   -0.0087    1.1123   -0.3256 H   0  0  0  0  0  0  0  0  0  0  0  0
   -1.1996    0.9746    1.7747 H   0  0  0  0  0  0  0  0  0  0  0  0
   -1.6959   -1.2106    0.9047 H   0  0  0  0  0  0  0  0  0  0  0  0
   -3.3801   -0.4632   -0.8144 H   0  0  0  0  0  0  0  0  0  0  0  0
   -2.2341    0.8499   -1.4601 H   0  0  0  0  0  0  0  0  0  0  0  0
  1  2  2  0
  2  3  1  0
  3  4  1  0
  4  5  1  0
  5  6  1  0
  5  7  1  0
  7  8  1  0
  8  9  1  0
  9  7  1  0
  2 10  1  0
  4 11  1  0
  4 12  1  0
  5 13  1  0
  6 14  1  0
  7 15  1  0
  8 16  1  0
  8 17  1  0
M  END
