
     RDKit          3D

 19 19  0  0  0  0  0  0  0  0999 V2000
    1.6193   -1.5610    1.4874 O   0  0  0  0  0  0  0  0  0  0  0  0
    1.9201   -1.5345    0.2961 C   0  0  0  0  0  0  0  0  0  0  0  0
    1.3878   -0.5718   -0.5221 O   0  0  0  0  0  0  0  0  0  0  0  0
    0.4929    0.4004   -0.0424 C   0  0  0  0  0  0  0  0  0  0  0  0
   -0.7933   -0.1488    0.5349 C   0  0  0  0  0  0  0  0  0  0  0  0
   -1.4808   -0.9200   -0.5684 C   0  0  0  0  0  0  0  0  0  0  0  0
   -2.6893   -1.4717   -0.1316 O   0  0  0  0  0  0  0  0  0  0  0  0
    0.4972    1.6830   -0.7762 C   0  0  0  0  0  0  0  0  0  0  0  0
    1.0154    1.6284    0.6386 C   0  0  0  0  0  0  0  0  0  0  0  0
    2.6055   -2.2433   -0.1896 H   0  0  0  0  0  0  0  0  0  0  0  0
   -0.5280   -0.7646    1.4116 H   0  0  0  0  0  0  0  0  0  0  0  0
   -1.4661    0.6823    0.8765 H   0  0  0  0  0  0  0  0  0  0  0  0
   -1.5973   -0.2448   -1.4249 H   0  0  0  0  0  0  0  0  0  0  0  0
   -0.8174   -1.7944   -0.8021 H   0  0  0  0  0  0  0  0  0  0  0  0
   -3.4228   -0.8698   -0.4505 H   0  0  0  0  0  0  0  0  0  0  0  0
   -0.4994    2.1313   -0.9692 H   0  0  0  0  0  0  0  0  0  0  0  0
    1.2799    1.8426   -1.5446 H   0  0  0  0  0  0  0  0  0  0  0  0
    0.3661    2.1169    1.3834 H   0  0  0  0  0  0  0  0  0  0  0  0
    2.1102    1.6398    0.7931 H   0  0  0  0  0  0  0  0  0  0  0  0
  1  2  2  0
  2  3  1  0
  3  4  1  0
  4  5  1  0
  5  6  1  0
  6  7  1  0
  4  8  1  0
  8  9  1  0
  9  4  1  0
  2 10  1  0
  5 11  1  0
  5 12  1  0
  6 13  1  0
  6 14  1  0
  7 15  1  0
  8 16  1  0
  8 17  1  0
  9 18  1  0
  9 19  1  0
M  END
