
     RDKit          3D

 15 15  0  0  0  0  0  0  0  0999 V2000
    3.1256    0.0612   -0.8056 O   0  0  0  0  0  0  0  0  0  0  0  0
    2.8660   -0.0967    0.4326 C   0  0  0  0  0  0  0  0  0  0  0  0
    1.5342   -0.2029    0.7666 O   0  0  0  0  0  0  0  0  0  0  0  0
    0.4861   -0.1438   -0.1909 C   0  0  0  0  0  0  0  0  0  0  0  0
   -0.3203   -1.2521   -0.1853 O   0  0  0  0  0  0  0  0  0  0  0  0
   -1.6058   -0.8026   -0.5536 C   0  0  0  0  0  0  0  0  0  0  0  0
   -1.7503    0.3918    0.3965 C   0  0  0  0  0  0  0  0  0  0  0  0
   -0.3919    0.9993    0.2285 C   0  0  0  0  0  0  0  0  0  0  0  0
   -0.1111    2.1474    0.4007 O   0  0  0  0  0  0  0  0  0  0  0  0
    3.6833   -0.1385    1.1422 H   0  0  0  0  0  0  0  0  0  0  0  0
    0.8690   -0.0042   -1.2196 H   0  0  0  0  0  0  0  0  0  0  0  0
   -1.5909   -0.4166   -1.5880 H   0  0  0  0  0  0  0  0  0  0  0  0
   -2.3600   -1.5586   -0.3491 H   0  0  0  0  0  0  0  0  0  0  0  0
   -1.8734   -0.0431    1.4198 H   0  0  0  0  0  0  0  0  0  0  0  0
   -2.5605    1.0596    0.1051 H   0  0  0  0  0  0  0  0  0  0  0  0
  1  2  2  0
  2  3  1  0
  3  4  1  0
  4  5  1  0
  5  6  1  0
  6  7  1  0
  7  8  1  0
  8  9  2  0
  8  4  1  0
  2 10  1  0
  4 11  1  0
  6 12  1  0
  6 13  1  0
  7 14  1  0
  7 15  1  0
M  END
