
     RDKit          3D

 14 14  0  0  0  0  0  0  0  0999 V2000
    2.9539    0.6383   -0.9810 O   0  0  0  0  0  0  0  0  0  0  0  0
    2.6618    0.8727    0.2198 C   0  0  0  0  0  0  0  0  0  0  0  0
    1.3836    0.5296    0.6192 O   0  0  0  0  0  0  0  0  0  0  0  0
    0.4235   -0.0637   -0.2714 C   0  0  0  0  0  0  0  0  0  0  0  0
   -0.4232   -1.0128    0.2301 C   0  0  0  0  0  0  0  0  0  0  0  0
   -0.9697    0.2170   -0.2914 C   0  0  0  0  0  0  0  0  0  0  0  0
   -2.3375   -0.0597   -0.3351 C   0  0  0  0  0  0  0  0  0  0  0  0
   -3.2783    0.7341   -0.0987 O   0  0  0  0  0  0  0  0  0  0  0  0
    3.3830    1.3231    0.9050 H   0  0  0  0  0  0  0  0  0  0  0  0
    0.8773   -0.2019   -1.3044 H   0  0  0  0  0  0  0  0  0  0  0  0
   -0.6228   -1.9381   -0.3671 H   0  0  0  0  0  0  0  0  0  0  0  0
   -0.3716   -1.2828    1.3213 H   0  0  0  0  0  0  0  0  0  0  0  0
   -0.9167    1.2958   -0.0792 H   0  0  0  0  0  0  0  0  0  0  0  0
   -2.7635   -1.0517   -0.5963 H   0  0  0  0  0  0  0  0  0  0  0  0
  1  2  2  0
  2  3  1  0
  3  4  1  0
  4  5  1  0
  5  6  1  0
  6  7  1  0
  7  8  2  0
  6  4  1  0
  2  9  1  0
  4 10  1  0
  5 11  1  0
  5 12  1  0
  6 13  1  0
  7 14  1  0
M  END
