
     RDKit          3D

 19 20  0  0  0  0  0  0  0  0999 V2000
    3.1142    0.9966    1.1484 O   0  0  0  0  0  0  0  0  0  0  0  0
    2.8393    1.1004   -0.0942 C   0  0  0  0  0  0  0  0  0  0  0  0
    1.7617    0.3522   -0.5143 O   0  0  0  0  0  0  0  0  0  0  0  0
    0.9918   -0.4762    0.3178 C   0  0  0  0  0  0  0  0  0  0  0  0
    0.3471   -1.7243   -0.2614 C   0  0  0  0  0  0  0  0  0  0  0  0
   -0.4310   -0.5419   -0.0458 C   0  0  0  0  0  0  0  0  0  0  0  0
   -1.0713    0.3164   -1.0595 C   0  0  0  0  0  0  0  0  0  0  0  0
   -1.7822    1.0014    0.1156 C   0  0  0  0  0  0  0  0  0  0  0  0
   -1.5468   -0.3084    0.8774 C   0  0  0  0  0  0  0  0  0  0  0  0
    3.4351    1.7396   -0.7309 H   0  0  0  0  0  0  0  0  0  0  0  0
    1.2282   -0.5672    1.3928 H   0  0  0  0  0  0  0  0  0  0  0  0
    0.7005   -1.9384   -1.3033 H   0  0  0  0  0  0  0  0  0  0  0  0
    0.2989   -2.6402    0.3557 H   0  0  0  0  0  0  0  0  0  0  0  0
   -0.3851    0.9593   -1.6082 H   0  0  0  0  0  0  0  0  0  0  0  0
   -1.7884   -0.2744   -1.6936 H   0  0  0  0  0  0  0  0  0  0  0  0
   -2.8293    1.2501   -0.0630 H   0  0  0  0  0  0  0  0  0  0  0  0
   -1.1382    1.8119    0.5019 H   0  0  0  0  0  0  0  0  0  0  0  0
   -1.3007   -0.0781    1.9191 H   0  0  0  0  0  0  0  0  0  0  0  0
   -2.4438   -0.9789    0.7455 H   0  0  0  0  0  0  0  0  0  0  0  0
  1  2  2  0
  2  3  1  0
  3  4  1  0
  4  5  1  0
  5  6  1  0
  6  7  1  0
  7  8  1  0
  8  9  1  0
  6  4  1  0
  9  6  1  0
  2 10  1  0
  4 11  1  0
  5 12  1  0
  5 13  1  0
  7 14  1  0
  7 15  1  0
  8 16  1  0
  8 17  1  0
  9 18  1  0
  9 19  1  0
M  END
