
     RDKit          3D

 15 16  0  0  0  0  0  0  0  0999 V2000
    2.2191   -1.0889    0.7535 O   0  0  0  0  0  0  0  0  0  0  0  0
    2.3276    0.1316    0.4847 C   0  0  0  0  0  0  0  0  0  0  0  0
    1.2646    0.9717    0.2294 O   0  0  0  0  0  0  0  0  0  0  0  0
   -0.0332    0.4978    0.2608 C   0  0  0  0  0  0  0  0  0  0  0  0
   -1.2082    1.3556   -0.0279 C   0  0  0  0  0  0  0  0  0  0  0  0
   -0.7977    0.2724   -0.9615 C   0  0  0  0  0  0  0  0  0  0  0  0
   -0.9252   -1.1664   -0.5477 C   0  0  0  0  0  0  0  0  0  0  0  0
   -0.3113   -0.8695    0.7843 C   0  0  0  0  0  0  0  0  0  0  0  0
   -0.0860   -1.3931    1.8542 O   0  0  0  0  0  0  0  0  0  0  0  0
    3.3725    0.5012    0.4657 H   0  0  0  0  0  0  0  0  0  0  0  0
   -2.1265    1.1434    0.5533 H   0  0  0  0  0  0  0  0  0  0  0  0
   -1.0063    2.3916   -0.2689 H   0  0  0  0  0  0  0  0  0  0  0  0
   -0.5006    0.5623   -1.9645 H   0  0  0  0  0  0  0  0  0  0  0  0
   -1.9535   -1.5183   -0.4523 H   0  0  0  0  0  0  0  0  0  0  0  0
   -0.2354   -1.7912   -1.1631 H   0  0  0  0  0  0  0  0  0  0  0  0
  1  2  2  0
  2  3  1  0
  3  4  1  0
  4  5  1  0
  5  6  1  0
  6  7  1  0
  7  8  1  0
  8  9  2  0
  6  4  1  0
  8  4  1  0
  2 10  1  0
  5 11  1  0
  5 12  1  0
  6 13  1  0
  7 14  1  0
  7 15  1  0
M  END
