
     RDKit          3D

 15 15  0  0  0  0  0  0  0  0999 V2000
    2.1667    1.0852    0.2436 O   0  0  0  0  0  0  0  0  0  0  0  0
    1.8553    0.7682   -0.9324 C   0  0  0  0  0  0  0  0  0  0  0  0
    1.0679   -0.3313   -1.2011 O   0  0  0  0  0  0  0  0  0  0  0  0
    0.5393   -1.1707   -0.2167 C   0  0  0  0  0  0  0  0  0  0  0  0
   -0.4930   -0.5590    0.6616 C   0  0  0  0  0  0  0  0  0  0  0  0
   -1.7662   -0.0716    0.0648 C   0  0  0  0  0  0  0  0  0  0  0  0
   -0.7193    0.8826    0.6482 C   0  0  0  0  0  0  0  0  0  0  0  0
    2.2088    1.3655   -1.7525 H   0  0  0  0  0  0  0  0  0  0  0  0
    0.1747   -2.1150   -0.7213 H   0  0  0  0  0  0  0  0  0  0  0  0
    1.4160   -1.5503    0.3897 H   0  0  0  0  0  0  0  0  0  0  0  0
   -0.5456   -1.0741    1.6663 H   0  0  0  0  0  0  0  0  0  0  0  0
   -2.7031   -0.0781    0.6204 H   0  0  0  0  0  0  0  0  0  0  0  0
   -1.8744   -0.1233   -1.0221 H   0  0  0  0  0  0  0  0  0  0  0  0
   -0.3705    1.6142   -0.0822 H   0  0  0  0  0  0  0  0  0  0  0  0
   -0.9564    1.3579    1.6338 H   0  0  0  0  0  0  0  0  0  0  0  0
  1  2  2  0
  2  3  1  0
  3  4  1  0
  4  5  1  0
  5  6  1  0
  6  7  1  0
  7  5  1  0
  2  8  1  0
  4  9  1  0
  4 10  1  0
  5 11  1  0
  6 12  1  0
  6 13  1  0
  7 14  1  0
  7 15  1  0
M  END
