
     RDKit          3D

 19 20  0  0  0  0  0  0  0  0999 V2000
   -1.5373    2.4280    0.1907 O   0  0  0  0  0  0  0  0  0  0  0  0
   -1.8718    1.8182   -0.8477 C   0  0  0  0  0  0  0  0  0  0  0  0
   -1.4110    0.5442   -1.1115 O   0  0  0  0  0  0  0  0  0  0  0  0
   -0.5385   -0.1291   -0.2170 C   0  0  0  0  0  0  0  0  0  0  0  0
    0.7527    0.5739    0.0155 C   0  0  0  0  0  0  0  0  0  0  0  0
    1.8061    0.0389    0.9067 C   0  0  0  0  0  0  0  0  0  0  0  0
    1.9675   -0.1379   -0.5635 C   0  0  0  0  0  0  0  0  0  0  0  0
   -0.6193   -1.6229   -0.2642 C   0  0  0  0  0  0  0  0  0  0  0  0
   -1.2373   -0.8616    0.8672 C   0  0  0  0  0  0  0  0  0  0  0  0
   -2.5295    2.2814   -1.5576 H   0  0  0  0  0  0  0  0  0  0  0  0
    0.6908    1.6776   -0.0767 H   0  0  0  0  0  0  0  0  0  0  0  0
    2.4995    0.7804    1.3544 H   0  0  0  0  0  0  0  0  0  0  0  0
    1.6447   -0.8395    1.5563 H   0  0  0  0  0  0  0  0  0  0  0  0
    1.8789   -1.1580   -0.9319 H   0  0  0  0  0  0  0  0  0  0  0  0
    2.6280    0.5389   -1.1407 H   0  0  0  0  0  0  0  0  0  0  0  0
    0.3259   -2.1564   -0.0704 H   0  0  0  0  0  0  0  0  0  0  0  0
   -1.3741   -2.1022   -0.9438 H   0  0  0  0  0  0  0  0  0  0  0  0
   -2.3366   -0.7947    0.9611 H   0  0  0  0  0  0  0  0  0  0  0  0
   -0.7386   -0.8793    1.8729 H   0  0  0  0  0  0  0  0  0  0  0  0
  1  2  2  0
  2  3  1  0
  3  4  1  0
  4  5  1  0
  5  6  1  0
  6  7  1  0
  4  8  1  0
  8  9  1  0
  9  4  1  0
  7  5  1  0
  2 10  1  0
  5 11  1  0
  6 12  1  0
  6 13  1  0
  7 14  1  0
  7 15  1  0
  8 16  1  0
  8 17  1  0
  9 18  1  0
  9 19  1  0
M  END
