
     RDKit          3D

 21 21  0  0  0  0  0  0  0  0999 V2000
    2.3076    1.1630   -0.3984 O   0  0  0  0  0  0  0  0  0  0  0  0
    2.3227    0.8525    0.8162 C   0  0  0  0  0  0  0  0  0  0  0  0
    1.7450   -0.3134    1.1843 O   0  0  0  0  0  0  0  0  0  0  0  0
    1.0992   -1.2919    0.4998 C   0  0  0  0  0  0  0  0  0  0  0  0
   -0.1837   -1.0455   -0.1823 C   0  0  0  0  0  0  0  0  0  0  0  0
   -1.2710   -0.5521    0.7820 C   0  0  0  0  0  0  0  0  0  0  0  0
   -1.2136    0.9508    0.6496 C   0  0  0  0  0  0  0  0  0  0  0  0
   -0.9166    1.1534   -0.8120 C   0  0  0  0  0  0  0  0  0  0  0  0
   -0.2885   -0.1358   -1.3273 C   0  0  0  0  0  0  0  0  0  0  0  0
    2.8039    1.5327    1.5528 H   0  0  0  0  0  0  0  0  0  0  0  0
    1.7906   -1.8594   -0.2150 H   0  0  0  0  0  0  0  0  0  0  0  0
    0.8890   -2.1293    1.2608 H   0  0  0  0  0  0  0  0  0  0  0  0
   -0.6081   -2.0678   -0.5026 H   0  0  0  0  0  0  0  0  0  0  0  0
   -2.2490   -0.9554    0.5106 H   0  0  0  0  0  0  0  0  0  0  0  0
   -0.9665   -0.9098    1.7819 H   0  0  0  0  0  0  0  0  0  0  0  0
   -2.2013    1.3989    0.9248 H   0  0  0  0  0  0  0  0  0  0  0  0
   -0.4666    1.3847    1.3123 H   0  0  0  0  0  0  0  0  0  0  0  0
   -0.2043    1.9839   -1.0123 H   0  0  0  0  0  0  0  0  0  0  0  0
   -1.8998    1.3549   -1.3089 H   0  0  0  0  0  0  0  0  0  0  0  0
    0.5932    0.0220   -1.9574 H   0  0  0  0  0  0  0  0  0  0  0  0
   -1.0820   -0.5366   -2.0672 H   0  0  0  0  0  0  0  0  0  0  0  0
  1  2  2  0
  2  3  1  0
  3  4  1  0
  4  5  1  0
  5  6  1  0
  6  7  1  0
  7  8  1  0
  8  9  1  0
  9  5  1  0
  2 10  1  0
  4 11  1  0
  4 12  1  0
  5 13  1  0
  6 14  1  0
  6 15  1  0
  7 16  1  0
  7 17  1  0
  8 18  1  0
  8 19  1  0
  9 20  1  0
  9 21  1  0
M  END
