
     RDKit          3D

 19 20  0  0  0  0  0  0  0  0999 V2000
    3.4028    0.5160    0.7024 O   0  0  0  0  0  0  0  0  0  0  0  0
    3.0099   -0.1175   -0.3053 C   0  0  0  0  0  0  0  0  0  0  0  0
    1.6687   -0.2853   -0.5046 O   0  0  0  0  0  0  0  0  0  0  0  0
    0.6592    0.2043    0.3459 C   0  0  0  0  0  0  0  0  0  0  0  0
   -0.1743   -1.0222    0.7709 C   0  0  0  0  0  0  0  0  0  0  0  0
   -1.4543   -0.6718    0.0690 C   0  0  0  0  0  0  0  0  0  0  0  0
   -1.6033    0.7831    0.5432 C   0  0  0  0  0  0  0  0  0  0  0  0
   -0.3949    0.9839   -0.3740 C   0  0  0  0  0  0  0  0  0  0  0  0
   -1.0499   -0.0620   -1.2581 C   0  0  0  0  0  0  0  0  0  0  0  0
    3.7024   -0.5419   -1.0327 H   0  0  0  0  0  0  0  0  0  0  0  0
    1.0272    0.7525    1.2161 H   0  0  0  0  0  0  0  0  0  0  0  0
    0.2825   -1.9555    0.4584 H   0  0  0  0  0  0  0  0  0  0  0  0
   -0.3420   -0.9226    1.8504 H   0  0  0  0  0  0  0  0  0  0  0  0
   -2.2992   -1.2983    0.1246 H   0  0  0  0  0  0  0  0  0  0  0  0
   -2.5373    1.2149    0.1837 H   0  0  0  0  0  0  0  0  0  0  0  0
   -1.3807    0.8442    1.6163 H   0  0  0  0  0  0  0  0  0  0  0  0
   -0.2082    1.9480   -0.7577 H   0  0  0  0  0  0  0  0  0  0  0  0
   -1.9513    0.2998   -1.7916 H   0  0  0  0  0  0  0  0  0  0  0  0
   -0.3574   -0.6696   -1.8567 H   0  0  0  0  0  0  0  0  0  0  0  0
  1  2  2  0
  2  3  1  0
  3  4  1  0
  4  5  1  0
  5  6  1  0
  6  7  1  0
  7  8  1  0
  8  9  1  0
  8  4  1  0
  9  6  1  0
  2 10  1  0
  4 11  1  0
  5 12  1  0
  5 13  1  0
  6 14  1  0
  7 15  1  0
  7 16  1  0
  8 17  1  0
  9 18  1  0
  9 19  1  0
M  END
