
     RDKit          3D

 17 16  0  0  0  0  0  0  0  0999 V2000
    4.3013    1.8423   -0.6252 O   0  0  0  0  0  0  0  0  0  0  0  0
    3.4532    1.5009   -1.4858 C   0  0  0  0  0  0  0  0  0  0  0  0
    2.1834    1.0612   -1.1569 O   0  0  0  0  0  0  0  0  0  0  0  0
    1.8702    1.0107    0.2343 C   0  0  0  0  0  0  0  0  0  0  0  0
    0.4937    0.5235    0.3558 C   0  0  0  0  0  0  0  0  0  0  0  0
   -0.6504    0.1031    0.4632 C   0  0  0  0  0  0  0  0  0  0  0  0
   -2.0278   -0.3789    0.5818 C   0  0  0  0  0  0  0  0  0  0  0  0
   -2.1582   -1.7293   -0.0819 C   0  0  0  0  0  0  0  0  0  0  0  0
   -3.4473   -2.2034    0.0173 O   0  0  0  0  0  0  0  0  0  0  0  0
    3.7317    1.5541   -2.5351 H   0  0  0  0  0  0  0  0  0  0  0  0
    1.9986    2.0138    0.6686 H   0  0  0  0  0  0  0  0  0  0  0  0
    2.5549    0.2991    0.7621 H   0  0  0  0  0  0  0  0  0  0  0  0
   -2.3286   -0.4906    1.6480 H   0  0  0  0  0  0  0  0  0  0  0  0
   -2.6778    0.3843    0.1088 H   0  0  0  0  0  0  0  0  0  0  0  0
   -1.8147   -1.6763   -1.1415 H   0  0  0  0  0  0  0  0  0  0  0  0
   -1.4496   -2.4134    0.4398 H   0  0  0  0  0  0  0  0  0  0  0  0
   -4.0327   -1.4010    0.1889 H   0  0  0  0  0  0  0  0  0  0  0  0
  1  2  2  0
  2  3  1  0
  3  4  1  0
  4  5  1  0
  5  6  3  0
  6  7  1  0
  7  8  1  0
  8  9  1  0
  2 10  1  0
  4 11  1  0
  4 12  1  0
  7 13  1  0
  7 14  1  0
  8 15  1  0
  8 16  1  0
  9 17  1  0
M  END
