
     RDKit          3D

 19 20  0  0  0  0  0  0  0  0999 V2000
    3.1900    0.4217   -1.4583 O   0  0  0  0  0  0  0  0  0  0  0  0
    3.1373   -0.0551   -0.2977 C   0  0  0  0  0  0  0  0  0  0  0  0
    1.8694   -0.1996    0.2376 O   0  0  0  0  0  0  0  0  0  0  0  0
    0.7436    0.1708   -0.4926 C   0  0  0  0  0  0  0  0  0  0  0  0
   -0.1427   -1.0723   -0.6115 C   0  0  0  0  0  0  0  0  0  0  0  0
   -1.2107   -0.9066    0.4344 C   0  0  0  0  0  0  0  0  0  0  0  0
   -2.3725   -0.0623    0.0245 C   0  0  0  0  0  0  0  0  0  0  0  0
   -1.2723    0.5183    0.8121 C   0  0  0  0  0  0  0  0  0  0  0  0
   -0.1090    1.2095    0.1872 C   0  0  0  0  0  0  0  0  0  0  0  0
    4.0037   -0.3469    0.2807 H   0  0  0  0  0  0  0  0  0  0  0  0
    1.0324    0.5616   -1.4797 H   0  0  0  0  0  0  0  0  0  0  0  0
    0.4282   -1.9986   -0.5325 H   0  0  0  0  0  0  0  0  0  0  0  0
   -0.6125   -1.0486   -1.6074 H   0  0  0  0  0  0  0  0  0  0  0  0
   -1.2942   -1.6321    1.2603 H   0  0  0  0  0  0  0  0  0  0  0  0
   -2.5074    0.1582   -1.0617 H   0  0  0  0  0  0  0  0  0  0  0  0
   -3.3216   -0.2757    0.5327 H   0  0  0  0  0  0  0  0  0  0  0  0
   -1.5212    0.8061    1.8682 H   0  0  0  0  0  0  0  0  0  0  0  0
    0.4550    1.7729    0.9710 H   0  0  0  0  0  0  0  0  0  0  0  0
   -0.4954    1.9785   -0.5184 H   0  0  0  0  0  0  0  0  0  0  0  0
  1  2  2  0
  2  3  1  0
  3  4  1  0
  4  5  1  0
  5  6  1  0
  6  7  1  0
  7  8  1  0
  8  9  1  0
  9  4  1  0
  8  6  1  0
  2 10  1  0
  4 11  1  0
  5 12  1  0
  5 13  1  0
  6 14  1  0
  7 15  1  0
  7 16  1  0
  8 17  1  0
  9 18  1  0
  9 19  1  0
M  END
