
     RDKit          3D

 17 18  0  0  0  0  0  0  0  0999 V2000
    2.8485    0.6212   -1.7144 O   0  0  0  0  0  0  0  0  0  0  0  0
    2.6478    1.0157   -0.5371 C   0  0  0  0  0  0  0  0  0  0  0  0
    1.4965    0.5800    0.0698 O   0  0  0  0  0  0  0  0  0  0  0  0
    0.5534   -0.2662   -0.5479 C   0  0  0  0  0  0  0  0  0  0  0  0
    0.4472   -1.5034    0.1147 O   0  0  0  0  0  0  0  0  0  0  0  0
   -0.8276   -1.5328    0.7334 C   0  0  0  0  0  0  0  0  0  0  0  0
   -1.0219   -0.0858    0.9906 C   0  0  0  0  0  0  0  0  0  0  0  0
   -1.6299    0.9814    0.3226 C   0  0  0  0  0  0  0  0  0  0  0  0
   -0.8296    0.2277   -0.5523 C   0  0  0  0  0  0  0  0  0  0  0  0
    3.3886    1.6614   -0.0953 H   0  0  0  0  0  0  0  0  0  0  0  0
    0.9272   -0.4870   -1.5698 H   0  0  0  0  0  0  0  0  0  0  0  0
   -0.7571   -2.1518    1.6296 H   0  0  0  0  0  0  0  0  0  0  0  0
   -1.5864   -1.8917   -0.0006 H   0  0  0  0  0  0  0  0  0  0  0  0
   -0.1551    0.2304    1.6576 H   0  0  0  0  0  0  0  0  0  0  0  0
   -2.7538    0.9820    0.2396 H   0  0  0  0  0  0  0  0  0  0  0  0
   -1.3134    2.0501    0.5134 H   0  0  0  0  0  0  0  0  0  0  0  0
   -1.4345   -0.4313   -1.2539 H   0  0  0  0  0  0  0  0  0  0  0  0
  1  2  2  0
  2  3  1  0
  3  4  1  0
  4  5  1  0
  5  6  1  0
  6  7  1  0
  7  8  1  0
  8  9  1  0
  9  4  1  0
  9  7  1  0
  2 10  1  0
  4 11  1  0
  6 12  1  0
  6 13  1  0
  7 14  1  0
  8 15  1  0
  8 16  1  0
  9 17  1  0
M  END
