
     RDKit          3D

 19 19  0  0  0  0  0  0  0  0999 V2000
    2.7886   -1.1829    1.0926 O   0  0  0  0  0  0  0  0  0  0  0  0
    3.3248   -0.4306    0.2454 C   0  0  0  0  0  0  0  0  0  0  0  0
    2.5451    0.0683   -0.7795 O   0  0  0  0  0  0  0  0  0  0  0  0
    1.1829   -0.2378   -0.8969 C   0  0  0  0  0  0  0  0  0  0  0  0
    0.3439    0.2009    0.2534 C   0  0  0  0  0  0  0  0  0  0  0  0
   -1.1121   -0.1621    0.0553 C   0  0  0  0  0  0  0  0  0  0  0  0
   -1.3427   -1.5112   -0.0832 O   0  0  0  0  0  0  0  0  0  0  0  0
   -2.0140    0.8710   -0.4562 C   0  0  0  0  0  0  0  0  0  0  0  0
   -2.0805    0.5425    0.9970 C   0  0  0  0  0  0  0  0  0  0  0  0
    4.3963   -0.1788    0.3256 H   0  0  0  0  0  0  0  0  0  0  0  0
    1.1001   -1.3510   -0.9797 H   0  0  0  0  0  0  0  0  0  0  0  0
    0.8385    0.1837   -1.8626 H   0  0  0  0  0  0  0  0  0  0  0  0
    0.7314   -0.1519    1.2221 H   0  0  0  0  0  0  0  0  0  0  0  0
    0.4062    1.3281    0.2905 H   0  0  0  0  0  0  0  0  0  0  0  0
   -2.0227   -1.7517   -0.7345 H   0  0  0  0  0  0  0  0  0  0  0  0
   -2.8945    0.6724   -1.0828 H   0  0  0  0  0  0  0  0  0  0  0  0
   -1.5505    1.8723   -0.6710 H   0  0  0  0  0  0  0  0  0  0  0  0
   -1.6455    1.2409    1.7525 H   0  0  0  0  0  0  0  0  0  0  0  0
   -2.9952   -0.0222    1.3120 H   0  0  0  0  0  0  0  0  0  0  0  0
  1  2  2  0
  2  3  1  0
  3  4  1  0
  4  5  1  0
  5  6  1  0
  6  7  1  0
  6  8  1  0
  8  9  1  0
  9  6  1  0
  2 10  1  0
  4 11  1  0
  4 12  1  0
  5 13  1  0
  5 14  1  0
  7 15  1  0
  8 16  1  0
  8 17  1  0
  9 18  1  0
  9 19  1  0
M  END
