
     RDKit          3D

 17 18  0  0  0  0  0  0  0  0999 V2000
    2.4557   -1.2240    1.4589 O   0  0  0  0  0  0  0  0  0  0  0  0
    2.3959   -1.2856    0.2035 C   0  0  0  0  0  0  0  0  0  0  0  0
    1.4200   -0.5268   -0.3910 O   0  0  0  0  0  0  0  0  0  0  0  0
    0.5494    0.2629    0.3520 C   0  0  0  0  0  0  0  0  0  0  0  0
    0.5706    1.6974   -0.1893 C   0  0  0  0  0  0  0  0  0  0  0  0
   -0.4981    1.4067   -1.0483 O   0  0  0  0  0  0  0  0  0  0  0  0
   -0.7929    0.3315   -0.2539 C   0  0  0  0  0  0  0  0  0  0  0  0
   -1.4330   -0.8956   -0.7198 C   0  0  0  0  0  0  0  0  0  0  0  0
   -2.0533    0.0241    0.3514 C   0  0  0  0  0  0  0  0  0  0  0  0
    3.0838   -1.9089   -0.3759 H   0  0  0  0  0  0  0  0  0  0  0  0
    0.6477    0.2774    1.4360 H   0  0  0  0  0  0  0  0  0  0  0  0
    1.5091    1.9772   -0.6766 H   0  0  0  0  0  0  0  0  0  0  0  0
    0.2142    2.4263    0.5698 H   0  0  0  0  0  0  0  0  0  0  0  0
   -1.0531   -1.8821   -0.3555 H   0  0  0  0  0  0  0  0  0  0  0  0
   -1.8865   -0.8509   -1.7413 H   0  0  0  0  0  0  0  0  0  0  0  0
   -2.1600   -0.4317    1.3461 H   0  0  0  0  0  0  0  0  0  0  0  0
   -2.9695    0.6022    0.0339 H   0  0  0  0  0  0  0  0  0  0  0  0
  1  2  2  0
  2  3  1  0
  3  4  1  0
  4  5  1  0
  5  6  1  0
  6  7  1  0
  7  8  1  0
  8  9  1  0
  7  4  1  0
  9  7  1  0
  2 10  1  0
  4 11  1  0
  5 12  1  0
  5 13  1  0
  8 14  1  0
  8 15  1  0
  9 16  1  0
  9 17  1  0
M  END
