
     RDKit          3D

 17 17  0  0  0  0  0  0  0  0999 V2000
    1.8317    1.1497    1.2184 O   0  0  0  0  0  0  0  0  0  0  0  0
    2.5947    0.3836    0.5859 C   0  0  0  0  0  0  0  0  0  0  0  0
    2.1142   -0.2722   -0.5130 O   0  0  0  0  0  0  0  0  0  0  0  0
    0.8367   -0.1671   -1.0029 C   0  0  0  0  0  0  0  0  0  0  0  0
   -0.2847   -0.5652   -0.0934 C   0  0  0  0  0  0  0  0  0  0  0  0
   -0.1881   -1.9029    0.3965 O   0  0  0  0  0  0  0  0  0  0  0  0
   -1.6741   -0.2951   -0.7648 C   0  0  0  0  0  0  0  0  0  0  0  0
   -1.2442    0.3413    0.5222 C   0  0  0  0  0  0  0  0  0  0  0  0
   -1.0458    1.7178    0.4931 O   0  0  0  0  0  0  0  0  0  0  0  0
    3.6462    0.2464    0.9222 H   0  0  0  0  0  0  0  0  0  0  0  0
    0.7428   -0.8570   -1.8987 H   0  0  0  0  0  0  0  0  0  0  0  0
    0.6002    0.8590   -1.3994 H   0  0  0  0  0  0  0  0  0  0  0  0
   -0.4902   -1.9352    1.3331 H   0  0  0  0  0  0  0  0  0  0  0  0
   -1.6788    0.3695   -1.6507 H   0  0  0  0  0  0  0  0  0  0  0  0
   -2.3856   -1.1365   -0.7638 H   0  0  0  0  0  0  0  0  0  0  0  0
   -1.7861   -0.0712    1.4241 H   0  0  0  0  0  0  0  0  0  0  0  0
   -1.5888    2.1350    1.1913 H   0  0  0  0  0  0  0  0  0  0  0  0
  1  2  2  0
  2  3  1  0
  3  4  1  0
  4  5  1  0
  5  6  1  0
  5  7  1  0
  7  8  1  0
  8  9  1  0
  8  5  1  0
  2 10  1  0
  4 11  1  0
  4 12  1  0
  6 13  1  0
  7 14  1  0
  7 15  1  0
  8 16  1  0
  9 17  1  0
M  END
