
     RDKit          3D

 19 18  0  0  0  0  0  0  0  0999 V2000
    2.6812    0.3567    0.9626 O   0  0  0  0  0  0  0  0  0  0  0  0
    2.6988   -0.8230    0.5209 C   0  0  0  0  0  0  0  0  0  0  0  0
    1.7812   -1.1202   -0.4666 O   0  0  0  0  0  0  0  0  0  0  0  0
    0.8648   -0.2006   -0.9791 C   0  0  0  0  0  0  0  0  0  0  0  0
   -0.0903    0.3597    0.0613 C   0  0  0  0  0  0  0  0  0  0  0  0
   -1.0045    1.3298   -0.6622 C   0  0  0  0  0  0  0  0  0  0  0  0
   -1.9286    1.9030    0.2206 O   0  0  0  0  0  0  0  0  0  0  0  0
   -0.8247   -0.7758    0.6848 C   0  0  0  0  0  0  0  0  0  0  0  0
   -1.5651   -1.5117   -0.2471 O   0  0  0  0  0  0  0  0  0  0  0  0
    3.4079   -1.5683    0.9052 H   0  0  0  0  0  0  0  0  0  0  0  0
    1.3702    0.6541   -1.5170 H   0  0  0  0  0  0  0  0  0  0  0  0
    0.2925   -0.7234   -1.7771 H   0  0  0  0  0  0  0  0  0  0  0  0
    0.4279    0.9310    0.8380 H   0  0  0  0  0  0  0  0  0  0  0  0
   -1.5211    0.8489   -1.5240 H   0  0  0  0  0  0  0  0  0  0  0  0
   -0.3571    2.1249   -1.0870 H   0  0  0  0  0  0  0  0  0  0  0  0
   -2.6140    2.3633   -0.3251 H   0  0  0  0  0  0  0  0  0  0  0  0
   -1.4711   -0.4693    1.5314 H   0  0  0  0  0  0  0  0  0  0  0  0
   -0.0738   -1.4783    1.1003 H   0  0  0  0  0  0  0  0  0  0  0  0
   -2.0742   -2.2008    0.2755 H   0  0  0  0  0  0  0  0  0  0  0  0
  1  2  2  0
  2  3  1  0
  3  4  1  0
  4  5  1  0
  5  6  1  0
  6  7  1  0
  5  8  1  0
  8  9  1  0
  2 10  1  0
  4 11  1  0
  4 12  1  0
  5 13  1  0
  6 14  1  0
  6 15  1  0
  7 16  1  0
  8 17  1  0
  8 18  1  0
  9 19  1  0
M  END
