
     RDKit          3D

 16 17  0  0  0  0  0  0  0  0999 V2000
    3.1231   -0.7017   -0.4830 O   0  0  0  0  0  0  0  0  0  0  0  0
    2.8733    0.4471   -0.0630 C   0  0  0  0  0  0  0  0  0  0  0  0
    1.5455    0.7657    0.1916 O   0  0  0  0  0  0  0  0  0  0  0  0
    0.4862   -0.1454   -0.0034 C   0  0  0  0  0  0  0  0  0  0  0  0
   -0.4060   -0.2364    1.2192 C   0  0  0  0  0  0  0  0  0  0  0  0
   -1.6092    0.0965    0.3801 C   0  0  0  0  0  0  0  0  0  0  0  0
   -1.8221   -0.5183   -0.9448 C   0  0  0  0  0  0  0  0  0  0  0  0
   -0.7025    0.4267   -0.7500 C   0  0  0  0  0  0  0  0  0  0  0  0
    3.6832    1.1700    0.0950 H   0  0  0  0  0  0  0  0  0  0  0  0
    0.7752   -1.1392   -0.3747 H   0  0  0  0  0  0  0  0  0  0  0  0
   -0.4164   -1.2222    1.7164 H   0  0  0  0  0  0  0  0  0  0  0  0
   -0.2392    0.6065    1.9525 H   0  0  0  0  0  0  0  0  0  0  0  0
   -2.3485    0.7878    0.7792 H   0  0  0  0  0  0  0  0  0  0  0  0
   -2.6781   -0.1603   -1.5189 H   0  0  0  0  0  0  0  0  0  0  0  0
   -1.6021   -1.6001   -1.0173 H   0  0  0  0  0  0  0  0  0  0  0  0
   -0.6624    1.4234   -1.1789 H   0  0  0  0  0  0  0  0  0  0  0  0
  1  2  2  0
  2  3  1  0
  3  4  1  0
  4  5  1  0
  5  6  1  0
  6  7  1  0
  7  8  1  0
  8  4  1  0
  8  6  1  0
  2  9  1  0
  4 10  1  0
  5 11  1  0
  5 12  1  0
  6 13  1  0
  7 14  1  0
  7 15  1  0
  8 16  1  0
M  END
