
     RDKit          3D

 21 21  0  0  0  0  0  0  0  0999 V2000
    3.3883    1.0535    0.4506 O   0  0  0  0  0  0  0  0  0  0  0  0
    2.9417    0.3424   -0.5121 C   0  0  0  0  0  0  0  0  0  0  0  0
    1.5910    0.0434   -0.5773 O   0  0  0  0  0  0  0  0  0  0  0  0
    0.7264    0.5195    0.4071 C   0  0  0  0  0  0  0  0  0  0  0  0
    0.1767   -0.6734    1.1574 C   0  0  0  0  0  0  0  0  0  0  0  0
   -0.5082   -1.5201    0.0764 C   0  0  0  0  0  0  0  0  0  0  0  0
   -1.7261   -0.7897   -0.3552 C   0  0  0  0  0  0  0  0  0  0  0  0
   -1.5545    0.6432   -0.6673 C   0  0  0  0  0  0  0  0  0  0  0  0
   -0.3988    1.3527   -0.1170 C   0  0  0  0  0  0  0  0  0  0  0  0
    3.6765    0.0203   -1.2218 H   0  0  0  0  0  0  0  0  0  0  0  0
    1.3146    1.1067    1.1381 H   0  0  0  0  0  0  0  0  0  0  0  0
    0.9955   -1.2192    1.6274 H   0  0  0  0  0  0  0  0  0  0  0  0
   -0.6151   -0.3348    1.8466 H   0  0  0  0  0  0  0  0  0  0  0  0
   -0.8027   -2.4648    0.5823 H   0  0  0  0  0  0  0  0  0  0  0  0
    0.1821   -1.7907   -0.7292 H   0  0  0  0  0  0  0  0  0  0  0  0
   -2.1553   -1.3488   -1.2399 H   0  0  0  0  0  0  0  0  0  0  0  0
   -2.5096   -0.9396    0.4463 H   0  0  0  0  0  0  0  0  0  0  0  0
   -1.5379    0.7494   -1.7937 H   0  0  0  0  0  0  0  0  0  0  0  0
   -2.5160    1.1670   -0.3815 H   0  0  0  0  0  0  0  0  0  0  0  0
    0.0556    2.0675   -0.8651 H   0  0  0  0  0  0  0  0  0  0  0  0
   -0.7240    2.0155    0.7280 H   0  0  0  0  0  0  0  0  0  0  0  0
  1  2  2  0
  2  3  1  0
  3  4  1  0
  4  5  1  0
  5  6  1  0
  6  7  1  0
  7  8  1  0
  8  9  1  0
  9  4  1  0
  2 10  1  0
  4 11  1  0
  5 12  1  0
  5 13  1  0
  6 14  1  0
  6 15  1  0
  7 16  1  0
  7 17  1  0
  8 18  1  0
  8 19  1  0
  9 20  1  0
  9 21  1  0
M  END
