
     RDKit          3D

 16 16  0  0  0  0  0  0  0  0999 V2000
    3.5421   -0.3155    0.6893 O   0  0  0  0  0  0  0  0  0  0  0  0
    3.0979    0.4541   -0.1748 C   0  0  0  0  0  0  0  0  0  0  0  0
    1.7671    0.4146   -0.5082 O   0  0  0  0  0  0  0  0  0  0  0  0
    0.8291   -0.4657    0.0768 C   0  0  0  0  0  0  0  0  0  0  0  0
   -0.5025   -0.1731   -0.5761 C   0  0  0  0  0  0  0  0  0  0  0  0
   -1.7171   -0.9276   -0.1866 C   0  0  0  0  0  0  0  0  0  0  0  0
   -1.5140    0.4532    0.3520 C   0  0  0  0  0  0  0  0  0  0  0  0
   -2.1943    1.5284   -0.2040 O   0  0  0  0  0  0  0  0  0  0  0  0
    3.7113    1.1926   -0.7140 H   0  0  0  0  0  0  0  0  0  0  0  0
    1.1443   -1.5298   -0.1236 H   0  0  0  0  0  0  0  0  0  0  0  0
    0.7797   -0.2906    1.1717 H   0  0  0  0  0  0  0  0  0  0  0  0
   -0.4228    0.1826   -1.6229 H   0  0  0  0  0  0  0  0  0  0  0  0
   -1.6768   -1.7964    0.4824 H   0  0  0  0  0  0  0  0  0  0  0  0
   -2.5048   -1.0061   -0.9641 H   0  0  0  0  0  0  0  0  0  0  0  0
   -1.3169    0.5258    1.4216 H   0  0  0  0  0  0  0  0  0  0  0  0
   -3.0224    1.7535    0.2954 H   0  0  0  0  0  0  0  0  0  0  0  0
  1  2  2  0
  2  3  1  0
  3  4  1  0
  4  5  1  0
  5  6  1  0
  6  7  1  0
  7  8  1  0
  7  5  1  0
  2  9  1  0
  4 10  1  0
  4 11  1  0
  5 12  1  0
  6 13  1  0
  6 14  1  0
  7 15  1  0
  8 16  1  0
M  END
