
     RDKit          3D

 17 16  0  0  0  0  0  0  0  0999 V2000
    3.6432    0.3321   -1.1939 O   0  0  0  0  0  0  0  0  0  0  0  0
    3.4289    0.4178    0.0391 C   0  0  0  0  0  0  0  0  0  0  0  0
    2.1719    0.1544    0.5822 O   0  0  0  0  0  0  0  0  0  0  0  0
    1.1518   -0.2141   -0.3229 C   0  0  0  0  0  0  0  0  0  0  0  0
   -0.0963   -0.4541    0.4089 C   0  0  0  0  0  0  0  0  0  0  0  0
   -0.1128   -0.3151    1.6164 O   0  0  0  0  0  0  0  0  0  0  0  0
   -1.3707   -0.8652   -0.2375 C   0  0  0  0  0  0  0  0  0  0  0  0
   -2.3260    0.2671   -0.4646 C   0  0  0  0  0  0  0  0  0  0  0  0
   -2.6694    0.8727    0.7289 O   0  0  0  0  0  0  0  0  0  0  0  0
    4.2524    0.7047    0.6824 H   0  0  0  0  0  0  0  0  0  0  0  0
    1.5299   -1.1295   -0.8504 H   0  0  0  0  0  0  0  0  0  0  0  0
    1.0182    0.5636   -1.1215 H   0  0  0  0  0  0  0  0  0  0  0  0
   -1.1294   -1.3954   -1.1646 H   0  0  0  0  0  0  0  0  0  0  0  0
   -1.8708   -1.5823    0.4510 H   0  0  0  0  0  0  0  0  0  0  0  0
   -1.9817    1.0181   -1.1808 H   0  0  0  0  0  0  0  0  0  0  0  0
   -3.2691   -0.2014   -0.8648 H   0  0  0  0  0  0  0  0  0  0  0  0
   -2.3703    1.8264    0.7153 H   0  0  0  0  0  0  0  0  0  0  0  0
  1  2  2  0
  2  3  1  0
  3  4  1  0
  4  5  1  0
  5  6  2  0
  5  7  1  0
  7  8  1  0
  8  9  1  0
  2 10  1  0
  4 11  1  0
  4 12  1  0
  7 13  1  0
  7 14  1  0
  8 15  1  0
  8 16  1  0
  9 17  1  0
M  END
