
     RDKit          3D

 19 19  0  0  0  0  0  0  0  0999 V2000
    2.7695    1.0844    0.2369 O   0  0  0  0  0  0  0  0  0  0  0  0
    2.7682    0.5723   -0.9063 C   0  0  0  0  0  0  0  0  0  0  0  0
    1.8999   -0.4625   -1.1588 O   0  0  0  0  0  0  0  0  0  0  0  0
    1.0210   -0.9545   -0.1879 C   0  0  0  0  0  0  0  0  0  0  0  0
    0.0701    0.1156    0.2265 C   0  0  0  0  0  0  0  0  0  0  0  0
   -0.9119   -0.3593    1.2784 C   0  0  0  0  0  0  0  0  0  0  0  0
   -2.2321    0.0144    0.6591 C   0  0  0  0  0  0  0  0  0  0  0  0
   -2.0367   -0.2210   -0.7189 O   0  0  0  0  0  0  0  0  0  0  0  0
   -0.8405    0.4639   -0.9324 C   0  0  0  0  0  0  0  0  0  0  0  0
    3.4567    0.9578   -1.6798 H   0  0  0  0  0  0  0  0  0  0  0  0
    0.4729   -1.8211   -0.6566 H   0  0  0  0  0  0  0  0  0  0  0  0
    1.5457   -1.3964    0.6881 H   0  0  0  0  0  0  0  0  0  0  0  0
    0.5273    1.0323    0.6277 H   0  0  0  0  0  0  0  0  0  0  0  0
   -0.8462   -1.4571    1.3890 H   0  0  0  0  0  0  0  0  0  0  0  0
   -0.8178    0.1849    2.2294 H   0  0  0  0  0  0  0  0  0  0  0  0
   -3.0842   -0.5393    1.0567 H   0  0  0  0  0  0  0  0  0  0  0  0
   -2.3526    1.1262    0.7418 H   0  0  0  0  0  0  0  0  0  0  0  0
   -0.3860    0.1132   -1.8913 H   0  0  0  0  0  0  0  0  0  0  0  0
   -1.0230    1.5463   -1.0017 H   0  0  0  0  0  0  0  0  0  0  0  0
  1  2  2  0
  2  3  1  0
  3  4  1  0
  4  5  1  0
  5  6  1  0
  6  7  1  0
  7  8  1  0
  8  9  1  0
  9  5  1  0
  2 10  1  0
  4 11  1  0
  4 12  1  0
  5 13  1  0
  6 14  1  0
  6 15  1  0
  7 16  1  0
  7 17  1  0
  9 18  1  0
  9 19  1  0
M  END
