
     RDKit          3D

 19 19  0  0  0  0  0  0  0  0999 V2000
    2.6088    1.6735   -0.0140 O   0  0  0  0  0  0  0  0  0  0  0  0
    3.2750    0.6786    0.3107 C   0  0  0  0  0  0  0  0  0  0  0  0
    2.6989   -0.5631    0.2346 O   0  0  0  0  0  0  0  0  0  0  0  0
    1.3912   -0.8387   -0.1849 C   0  0  0  0  0  0  0  0  0  0  0  0
    0.3508   -0.1541    0.6981 C   0  0  0  0  0  0  0  0  0  0  0  0
   -1.0404   -0.4864    0.2007 C   0  0  0  0  0  0  0  0  0  0  0  0
   -1.4829   -0.1390   -1.1465 C   0  0  0  0  0  0  0  0  0  0  0  0
   -2.0538    0.6031    0.0606 C   0  0  0  0  0  0  0  0  0  0  0  0
   -3.3880    0.3495    0.3344 O   0  0  0  0  0  0  0  0  0  0  0  0
    4.3080    0.7282    0.6590 H   0  0  0  0  0  0  0  0  0  0  0  0
    1.2573   -1.9386   -0.1458 H   0  0  0  0  0  0  0  0  0  0  0  0
    1.2342   -0.5347   -1.2475 H   0  0  0  0  0  0  0  0  0  0  0  0
    0.5191    0.9399    0.7033 H   0  0  0  0  0  0  0  0  0  0  0  0
    0.5102   -0.5070    1.7377 H   0  0  0  0  0  0  0  0  0  0  0  0
   -1.4419   -1.4263    0.6336 H   0  0  0  0  0  0  0  0  0  0  0  0
   -0.9194    0.4990   -1.8435 H   0  0  0  0  0  0  0  0  0  0  0  0
   -2.1694   -0.8507   -1.6859 H   0  0  0  0  0  0  0  0  0  0  0  0
   -1.7612    1.6629    0.1988 H   0  0  0  0  0  0  0  0  0  0  0  0
   -3.8966    0.3041   -0.5174 H   0  0  0  0  0  0  0  0  0  0  0  0
  1  2  2  0
  2  3  1  0
  3  4  1  0
  4  5  1  0
  5  6  1  0
  6  7  1  0
  7  8  1  0
  8  9  1  0
  8  6  1  0
  2 10  1  0
  4 11  1  0
  4 12  1  0
  5 13  1  0
  5 14  1  0
  6 15  1  0
  7 16  1  0
  7 17  1  0
  8 18  1  0
  9 19  1  0
M  END
