
     RDKit          3D

 17 17  0  0  0  0  0  0  0  0999 V2000
    3.5354   -0.9933    1.3227 O   0  0  0  0  0  0  0  0  0  0  0  0
    3.3035   -0.1653    0.4317 C   0  0  0  0  0  0  0  0  0  0  0  0
    1.9904   -0.0076   -0.0120 O   0  0  0  0  0  0  0  0  0  0  0  0
    0.9032   -0.7271    0.4839 C   0  0  0  0  0  0  0  0  0  0  0  0
   -0.3416   -0.2809   -0.2381 C   0  0  0  0  0  0  0  0  0  0  0  0
   -0.6524    1.1459   -0.0298 C   0  0  0  0  0  0  0  0  0  0  0  0
   -1.9718    1.2404   -0.1652 C   0  0  0  0  0  0  0  0  0  0  0  0
   -2.4786   -0.1521   -0.4615 C   0  0  0  0  0  0  0  0  0  0  0  0
   -1.4769   -0.9264    0.1724 O   0  0  0  0  0  0  0  0  0  0  0  0
    4.0744    0.4453   -0.0220 H   0  0  0  0  0  0  0  0  0  0  0  0
    1.0556   -1.8008    0.2091 H   0  0  0  0  0  0  0  0  0  0  0  0
    0.7991   -0.6998    1.5797 H   0  0  0  0  0  0  0  0  0  0  0  0
   -0.1869   -0.5277   -1.3237 H   0  0  0  0  0  0  0  0  0  0  0  0
    0.0081    1.9814    0.1890 H   0  0  0  0  0  0  0  0  0  0  0  0
   -2.5935    2.1314   -0.0843 H   0  0  0  0  0  0  0  0  0  0  0  0
   -3.4651   -0.3262   -0.0126 H   0  0  0  0  0  0  0  0  0  0  0  0
   -2.5031   -0.3371   -1.5357 H   0  0  0  0  0  0  0  0  0  0  0  0
  1  2  2  0
  2  3  1  0
  3  4  1  0
  4  5  1  0
  5  6  1  0
  6  7  2  0
  7  8  1  0
  8  9  1  0
  9  5  1  0
  2 10  1  0
  4 11  1  0
  4 12  1  0
  5 13  1  0
  6 14  1  0
  7 15  1  0
  8 16  1  0
  8 17  1  0
M  END
