
     RDKit          3D

 17 19  0  0  0  0  0  0  0  0999 V2000
    2.1392   -1.9066    0.1266 O   0  0  0  0  0  0  0  0  0  0  0  0
    2.6166   -0.7788   -0.0749 C   0  0  0  0  0  0  0  0  0  0  0  0
    1.8030    0.2973    0.0415 O   0  0  0  0  0  0  0  0  0  0  0  0
    0.4630    0.3821    0.3611 C   0  0  0  0  0  0  0  0  0  0  0  0
   -0.2162    1.7280    0.4235 C   0  0  0  0  0  0  0  0  0  0  0  0
   -0.3869    0.9510   -0.8207 C   0  0  0  0  0  0  0  0  0  0  0  0
   -1.1050   -0.3741   -0.7935 C   0  0  0  0  0  0  0  0  0  0  0  0
   -1.9351   -0.5970    0.4113 C   0  0  0  0  0  0  0  0  0  0  0  0
   -0.4611   -0.7773    0.4944 C   0  0  0  0  0  0  0  0  0  0  0  0
    3.6602   -0.6175   -0.3409 H   0  0  0  0  0  0  0  0  0  0  0  0
   -1.0724    1.8299    1.1087 H   0  0  0  0  0  0  0  0  0  0  0  0
    0.4725    2.5763    0.4144 H   0  0  0  0  0  0  0  0  0  0  0  0
    0.1257    1.2984   -1.7115 H   0  0  0  0  0  0  0  0  0  0  0  0
   -1.1083   -1.0102   -1.6747 H   0  0  0  0  0  0  0  0  0  0  0  0
   -2.5331   -1.5142    0.4325 H   0  0  0  0  0  0  0  0  0  0  0  0
   -2.3983    0.2843    0.9125 H   0  0  0  0  0  0  0  0  0  0  0  0
   -0.0637   -1.7717    0.6895 H   0  0  0  0  0  0  0  0  0  0  0  0
  1  2  2  0
  2  3  1  0
  3  4  1  0
  4  5  1  0
  5  6  1  0
  6  7  1  0
  7  8  1  0
  8  9  1  0
  6  4  1  0
  9  7  1  0
  9  4  1  0
  2 10  1  0
  5 11  1  0
  5 12  1  0
  6 13  1  0
  7 14  1  0
  8 15  1  0
  8 16  1  0
  9 17  1  0
M  END
