
     RDKit          3D

 21 21  0  0  0  0  0  0  0  0999 V2000
    2.7386    0.0071    1.6667 O   0  0  0  0  0  0  0  0  0  0  0  0
    3.4873    0.0286    0.6566 C   0  0  0  0  0  0  0  0  0  0  0  0
    2.9321   -0.2822   -0.5684 O   0  0  0  0  0  0  0  0  0  0  0  0
    1.5659   -0.6094   -0.6665 C   0  0  0  0  0  0  0  0  0  0  0  0
    0.6308    0.4738   -0.2281 C   0  0  0  0  0  0  0  0  0  0  0  0
   -0.7929    0.0085   -0.3800 C   0  0  0  0  0  0  0  0  0  0  0  0
   -1.8004    1.0796    0.0552 C   0  0  0  0  0  0  0  0  0  0  0  0
   -2.6649   -0.1050    0.5094 C   0  0  0  0  0  0  0  0  0  0  0  0
   -1.3276   -0.8045    0.7894 C   0  0  0  0  0  0  0  0  0  0  0  0
    4.5509    0.2898    0.7657 H   0  0  0  0  0  0  0  0  0  0  0  0
    1.3281   -1.5112   -0.0379 H   0  0  0  0  0  0  0  0  0  0  0  0
    1.2828   -0.9012   -1.6980 H   0  0  0  0  0  0  0  0  0  0  0  0
    0.7772    0.8514    0.7779 H   0  0  0  0  0  0  0  0  0  0  0  0
    0.7569    1.3188   -0.9676 H   0  0  0  0  0  0  0  0  0  0  0  0
   -1.0701   -0.4087   -1.3446 H   0  0  0  0  0  0  0  0  0  0  0  0
   -2.1845    1.6104   -0.8262 H   0  0  0  0  0  0  0  0  0  0  0  0
   -1.4498    1.7001    0.8926 H   0  0  0  0  0  0  0  0  0  0  0  0
   -3.1763   -0.5041   -0.3991 H   0  0  0  0  0  0  0  0  0  0  0  0
   -3.2820    0.0807    1.3836 H   0  0  0  0  0  0  0  0  0  0  0  0
   -0.9606   -0.4355    1.7730 H   0  0  0  0  0  0  0  0  0  0  0  0
   -1.3417   -1.8869    0.6513 H   0  0  0  0  0  0  0  0  0  0  0  0
  1  2  2  0
  2  3  1  0
  3  4  1  0
  4  5  1  0
  5  6  1  0
  6  7  1  0
  7  8  1  0
  8  9  1  0
  9  6  1  0
  2 10  1  0
  4 11  1  0
  4 12  1  0
  5 13  1  0
  5 14  1  0
  6 15  1  0
  7 16  1  0
  7 17  1  0
  8 18  1  0
  8 19  1  0
  9 20  1  0
  9 21  1  0
M  END
