
     RDKit          3D

 14 15  0  0  0  0  0  0  0  0999 V2000
    2.2661    0.0328    1.2619 O   0  0  0  0  0  0  0  0  0  0  0  0
    2.2893    0.4531    0.0814 C   0  0  0  0  0  0  0  0  0  0  0  0
    1.1448    0.3581   -0.6583 O   0  0  0  0  0  0  0  0  0  0  0  0
   -0.0893   -0.1506   -0.2931 C   0  0  0  0  0  0  0  0  0  0  0  0
   -1.2015   -0.1341   -1.3314 C   0  0  0  0  0  0  0  0  0  0  0  0
   -2.0434    0.3792   -0.3746 O   0  0  0  0  0  0  0  0  0  0  0  0
   -1.0598    0.4963    0.5811 C   0  0  0  0  0  0  0  0  0  0  0  0
   -0.4001   -0.7776    1.0136 C   0  0  0  0  0  0  0  0  0  0  0  0
    3.2158    0.8839   -0.3314 H   0  0  0  0  0  0  0  0  0  0  0  0
   -0.9961    0.5769   -2.1601 H   0  0  0  0  0  0  0  0  0  0  0  0
   -1.4442   -1.1300   -1.7313 H   0  0  0  0  0  0  0  0  0  0  0  0
   -0.8890    1.4366    1.1182 H   0  0  0  0  0  0  0  0  0  0  0  0
    0.1979   -0.6875    1.9061 H   0  0  0  0  0  0  0  0  0  0  0  0
   -0.9904   -1.7371    0.9180 H   0  0  0  0  0  0  0  0  0  0  0  0
  1  2  2  0
  2  3  1  0
  3  4  1  0
  4  5  1  0
  5  6  1  0
  6  7  1  0
  7  8  1  0
  7  4  1  0
  8  4  1  0
  2  9  1  0
  5 10  1  0
  5 11  1  0
  7 12  1  0
  8 13  1  0
  8 14  1  0
M  END
