
     RDKit          3D

 19 19  0  0  0  0  0  0  0  0999 V2000
    3.7621    0.0574    0.8797 O   0  0  0  0  0  0  0  0  0  0  0  0
    3.2579    0.6551   -0.0919 C   0  0  0  0  0  0  0  0  0  0  0  0
    1.9361    0.4588   -0.3760 O   0  0  0  0  0  0  0  0  0  0  0  0
    1.0610   -0.3747    0.3390 C   0  0  0  0  0  0  0  0  0  0  0  0
   -0.3081   -0.3338   -0.2685 C   0  0  0  0  0  0  0  0  0  0  0  0
   -0.3957   -0.7403   -1.5792 O   0  0  0  0  0  0  0  0  0  0  0  0
   -1.4359   -0.8048    0.6302 C   0  0  0  0  0  0  0  0  0  0  0  0
   -2.2627    0.3038   -0.0324 C   0  0  0  0  0  0  0  0  0  0  0  0
   -0.9343    1.0606   -0.1330 C   0  0  0  0  0  0  0  0  0  0  0  0
    3.8172    1.3362   -0.7394 H   0  0  0  0  0  0  0  0  0  0  0  0
    1.4504   -1.4239    0.2157 H   0  0  0  0  0  0  0  0  0  0  0  0
    1.0396   -0.1768    1.4261 H   0  0  0  0  0  0  0  0  0  0  0  0
   -0.8831   -1.5809   -1.6785 H   0  0  0  0  0  0  0  0  0  0  0  0
   -1.8115   -1.8180    0.4350 H   0  0  0  0  0  0  0  0  0  0  0  0
   -1.2640   -0.5343    1.6756 H   0  0  0  0  0  0  0  0  0  0  0  0
   -2.5499   -0.0225   -1.0408 H   0  0  0  0  0  0  0  0  0  0  0  0
   -3.0134    0.7637    0.6022 H   0  0  0  0  0  0  0  0  0  0  0  0
   -0.6386    1.4775    0.8427 H   0  0  0  0  0  0  0  0  0  0  0  0
   -0.8273    1.6969   -1.0106 H   0  0  0  0  0  0  0  0  0  0  0  0
  1  2  2  0
  2  3  1  0
  3  4  1  0
  4  5  1  0
  5  6  1  0
  5  7  1  0
  7  8  1  0
  8  9  1  0
  9  5  1  0
  2 10  1  0
  4 11  1  0
  4 12  1  0
  6 13  1  0
  7 14  1  0
  7 15  1  0
  8 16  1  0
  8 17  1  0
  9 18  1  0
  9 19  1  0
M  END
