
     RDKit          3D

 19 19  0  0  0  0  0  0  0  0999 V2000
    2.5755    1.4573   -1.2230 O   0  0  0  0  0  0  0  0  0  0  0  0
    2.8885    0.7850   -0.2046 C   0  0  0  0  0  0  0  0  0  0  0  0
    1.9017   -0.0490    0.3121 O   0  0  0  0  0  0  0  0  0  0  0  0
    0.6059   -0.1492   -0.2650 C   0  0  0  0  0  0  0  0  0  0  0  0
    0.1371   -1.5485   -0.5315 C   0  0  0  0  0  0  0  0  0  0  0  0
   -0.8626   -1.3854    0.5889 C   0  0  0  0  0  0  0  0  0  0  0  0
   -0.4543    0.0487    0.7776 C   0  0  0  0  0  0  0  0  0  0  0  0
   -1.4569    1.0867    0.4095 C   0  0  0  0  0  0  0  0  0  0  0  0
   -2.1436    0.7935   -0.7667 O   0  0  0  0  0  0  0  0  0  0  0  0
    3.8699    0.8807    0.2075 H   0  0  0  0  0  0  0  0  0  0  0  0
    0.4457    0.4891   -1.1574 H   0  0  0  0  0  0  0  0  0  0  0  0
    0.9473   -2.2716   -0.3380 H   0  0  0  0  0  0  0  0  0  0  0  0
   -0.3242   -1.7314   -1.5163 H   0  0  0  0  0  0  0  0  0  0  0  0
   -0.6121   -2.0561    1.4460 H   0  0  0  0  0  0  0  0  0  0  0  0
   -1.9078   -1.5167    0.2216 H   0  0  0  0  0  0  0  0  0  0  0  0
   -0.0669    0.2179    1.7980 H   0  0  0  0  0  0  0  0  0  0  0  0
   -2.1499    1.3030    1.2502 H   0  0  0  0  0  0  0  0  0  0  0  0
   -0.8928    2.0401    0.1960 H   0  0  0  0  0  0  0  0  0  0  0  0
   -2.5004    1.6058   -1.2049 H   0  0  0  0  0  0  0  0  0  0  0  0
  1  2  2  0
  2  3  1  0
  3  4  1  0
  4  5  1  0
  5  6  1  0
  6  7  1  0
  7  8  1  0
  8  9  1  0
  7  4  1  0
  2 10  1  0
  4 11  1  0
  5 12  1  0
  5 13  1  0
  6 14  1  0
  6 15  1  0
  7 16  1  0
  8 17  1  0
  8 18  1  0
  9 19  1  0
M  END
