
     RDKit          3D

 19 19  0  0  0  0  0  0  0  0999 V2000
    4.1109   -0.2450   -0.4016 O   0  0  0  0  0  0  0  0  0  0  0  0
    3.5620    0.6601    0.2771 C   0  0  0  0  0  0  0  0  0  0  0  0
    2.1981    0.6282    0.4063 O   0  0  0  0  0  0  0  0  0  0  0  0
    1.4150   -0.3825   -0.1973 C   0  0  0  0  0  0  0  0  0  0  0  0
   -0.0316   -0.2046    0.0843 C   0  0  0  0  0  0  0  0  0  0  0  0
   -0.5562    0.7756    0.8116 C   0  0  0  0  0  0  0  0  0  0  0  0
   -2.0440    0.6213    0.8708 C   0  0  0  0  0  0  0  0  0  0  0  0
   -2.2983   -0.1447   -0.4348 C   0  0  0  0  0  0  0  0  0  0  0  0
   -1.1081   -1.1039   -0.4108 C   0  0  0  0  0  0  0  0  0  0  0  0
    4.0992    1.4575    0.7622 H   0  0  0  0  0  0  0  0  0  0  0  0
    1.5800   -0.3031   -1.2920 H   0  0  0  0  0  0  0  0  0  0  0  0
    1.7560   -1.3723    0.1305 H   0  0  0  0  0  0  0  0  0  0  0  0
   -0.0247    1.5825    1.3039 H   0  0  0  0  0  0  0  0  0  0  0  0
   -2.3633   -0.0164    1.7184 H   0  0  0  0  0  0  0  0  0  0  0  0
   -2.5728    1.5828    0.8630 H   0  0  0  0  0  0  0  0  0  0  0  0
   -3.2529   -0.6775   -0.4203 H   0  0  0  0  0  0  0  0  0  0  0  0
   -2.2013    0.5506   -1.2934 H   0  0  0  0  0  0  0  0  0  0  0  0
   -0.8977   -1.5228   -1.3992 H   0  0  0  0  0  0  0  0  0  0  0  0
   -1.3703   -1.8857    0.3444 H   0  0  0  0  0  0  0  0  0  0  0  0
  1  2  2  0
  2  3  1  0
  3  4  1  0
  4  5  1  0
  5  6  2  0
  6  7  1  0
  7  8  1  0
  8  9  1  0
  9  5  1  0
  2 10  1  0
  4 11  1  0
  4 12  1  0
  6 13  1  0
  7 14  1  0
  7 15  1  0
  8 16  1  0
  8 17  1  0
  9 18  1  0
  9 19  1  0
M  END
