
     RDKit          3D

 19 18  0  0  0  0  0  0  0  0999 V2000
   -1.1074    2.8314   -0.2853 O   0  0  0  0  0  0  0  0  0  0  0  0
   -1.3923    2.3972    0.8541 C   0  0  0  0  0  0  0  0  0  0  0  0
   -1.0503    1.0911    1.0001 O   0  0  0  0  0  0  0  0  0  0  0  0
   -0.4682    0.3051    0.0581 C   0  0  0  0  0  0  0  0  0  0  0  0
   -1.1277   -0.9433   -0.3721 C   0  0  0  0  0  0  0  0  0  0  0  0
   -1.2859   -1.8201    0.7051 O   0  0  0  0  0  0  0  0  0  0  0  0
    0.9357   -0.0022    0.5381 C   0  0  0  0  0  0  0  0  0  0  0  0
    1.7273   -0.8649   -0.3858 C   0  0  0  0  0  0  0  0  0  0  0  0
    1.8919   -0.3156   -1.6488 O   0  0  0  0  0  0  0  0  0  0  0  0
   -1.8623    3.0165    1.6277 H   0  0  0  0  0  0  0  0  0  0  0  0
   -0.3188    0.9346   -0.8722 H   0  0  0  0  0  0  0  0  0  0  0  0
   -2.1347   -0.8354   -0.8079 H   0  0  0  0  0  0  0  0  0  0  0  0
   -0.5438   -1.4966   -1.1309 H   0  0  0  0  0  0  0  0  0  0  0  0
   -1.9890   -2.5090    0.5186 H   0  0  0  0  0  0  0  0  0  0  0  0
    1.5264    0.9421    0.6890 H   0  0  0  0  0  0  0  0  0  0  0  0
    0.9252   -0.4794    1.5527 H   0  0  0  0  0  0  0  0  0  0  0  0
    1.3179   -1.8702   -0.4757 H   0  0  0  0  0  0  0  0  0  0  0  0
    2.7760   -1.0144    0.0026 H   0  0  0  0  0  0  0  0  0  0  0  0
    2.1801    0.6329   -1.5672 H   0  0  0  0  0  0  0  0  0  0  0  0
  1  2  2  0
  2  3  1  0
  3  4  1  0
  4  5  1  0
  5  6  1  0
  4  7  1  0
  7  8  1  0
  8  9  1  0
  2 10  1  0
  4 11  1  0
  5 12  1  0
  5 13  1  0
  6 14  1  0
  7 15  1  0
  7 16  1  0
  8 17  1  0
  8 18  1  0
  9 19  1  0
M  END
