
     RDKit          3D

 17 18  0  0  0  0  0  0  0  0999 V2000
    2.9852    1.3242    0.5150 O   0  0  0  0  0  0  0  0  0  0  0  0
    2.4755    1.1216   -0.6380 C   0  0  0  0  0  0  0  0  0  0  0  0
    1.2479    0.5238   -0.8197 O   0  0  0  0  0  0  0  0  0  0  0  0
    0.5172    0.1167    0.2884 C   0  0  0  0  0  0  0  0  0  0  0  0
   -0.9679    0.5097    0.2673 C   0  0  0  0  0  0  0  0  0  0  0  0
   -1.3831   -0.0225   -1.0580 C   0  0  0  0  0  0  0  0  0  0  0  0
   -0.7514   -1.2952   -1.0415 O   0  0  0  0  0  0  0  0  0  0  0  0
   -0.1072   -1.2840    0.1694 C   0  0  0  0  0  0  0  0  0  0  0  0
   -1.1312   -0.7096    1.1625 C   0  0  0  0  0  0  0  0  0  0  0  0
    3.0654    1.4483   -1.4846 H   0  0  0  0  0  0  0  0  0  0  0  0
    0.9297    0.2782    1.2817 H   0  0  0  0  0  0  0  0  0  0  0  0
   -1.2421    1.4591    0.6192 H   0  0  0  0  0  0  0  0  0  0  0  0
   -2.4752   -0.1228   -1.1809 H   0  0  0  0  0  0  0  0  0  0  0  0
   -0.8985    0.5694   -1.8596 H   0  0  0  0  0  0  0  0  0  0  0  0
    0.4786   -2.1053    0.4969 H   0  0  0  0  0  0  0  0  0  0  0  0
   -0.6345   -0.6230    2.1510 H   0  0  0  0  0  0  0  0  0  0  0  0
   -2.1081   -1.1888    1.1309 H   0  0  0  0  0  0  0  0  0  0  0  0
  1  2  2  0
  2  3  1  0
  3  4  1  0
  4  5  1  0
  5  6  1  0
  6  7  1  0
  7  8  1  0
  8  9  1  0
  8  4  1  0
  9  5  1  0
  2 10  1  0
  4 11  1  0
  5 12  1  0
  6 13  1  0
  6 14  1  0
  8 15  1  0
  9 16  1  0
  9 17  1  0
M  END
