
     RDKit          3D

 19 19  0  0  0  0  0  0  0  0999 V2000
   -3.7380    0.0616   -0.9528 O   0  0  0  0  0  0  0  0  0  0  0  0
   -3.2174    0.4634    0.1244 C   0  0  0  0  0  0  0  0  0  0  0  0
   -1.8651    0.3274    0.2698 O   0  0  0  0  0  0  0  0  0  0  0  0
   -0.9796   -0.2165   -0.6575 C   0  0  0  0  0  0  0  0  0  0  0  0
   -0.0090   -1.1679    0.0575 C   0  0  0  0  0  0  0  0  0  0  0  0
    0.6057    0.1384    0.5869 C   0  0  0  0  0  0  0  0  0  0  0  0
    2.0783    0.0342    0.8677 C   0  0  0  0  0  0  0  0  0  0  0  0
    2.6991   -0.3027   -0.3459 O   0  0  0  0  0  0  0  0  0  0  0  0
    0.2471    0.7044   -0.7725 C   0  0  0  0  0  0  0  0  0  0  0  0
   -3.8661    0.8942    0.8762 H   0  0  0  0  0  0  0  0  0  0  0  0
   -1.3671   -0.5784   -1.6005 H   0  0  0  0  0  0  0  0  0  0  0  0
   -0.4546   -1.8047    0.8120 H   0  0  0  0  0  0  0  0  0  0  0  0
    0.6491   -1.6374   -0.7003 H   0  0  0  0  0  0  0  0  0  0  0  0
   -0.0300    0.5066    1.3969 H   0  0  0  0  0  0  0  0  0  0  0  0
    2.3253   -0.6540    1.6715 H   0  0  0  0  0  0  0  0  0  0  0  0
    2.4326    1.0527    1.1264 H   0  0  0  0  0  0  0  0  0  0  0  0
    3.6071    0.0986   -0.3768 H   0  0  0  0  0  0  0  0  0  0  0  0
    0.8849    0.3132   -1.5797 H   0  0  0  0  0  0  0  0  0  0  0  0
   -0.0024    1.7670   -0.8034 H   0  0  0  0  0  0  0  0  0  0  0  0
  1  2  2  0
  2  3  1  0
  3  4  1  0
  4  5  1  0
  5  6  1  0
  6  7  1  0
  7  8  1  0
  6  9  1  0
  9  4  1  0
  2 10  1  0
  4 11  1  0
  5 12  1  0
  5 13  1  0
  6 14  1  0
  7 15  1  0
  7 16  1  0
  8 17  1  0
  9 18  1  0
  9 19  1  0
M  END
