
     RDKit          3D

 17 18  0  0  0  0  0  0  0  0999 V2000
   -3.3319   -0.5160   -1.1557 O   0  0  0  0  0  0  0  0  0  0  0  0
   -3.3175    0.0453   -0.0437 C   0  0  0  0  0  0  0  0  0  0  0  0
   -2.1041    0.2834    0.5566 O   0  0  0  0  0  0  0  0  0  0  0  0
   -0.8903   -0.0787   -0.0304 C   0  0  0  0  0  0  0  0  0  0  0  0
    0.2451   -0.3091    0.8870 C   0  0  0  0  0  0  0  0  0  0  0  0
    1.5242   -0.9515    0.3943 C   0  0  0  0  0  0  0  0  0  0  0  0
    2.2781    0.2678   -0.1317 C   0  0  0  0  0  0  0  0  0  0  0  0
    1.2601    0.9604   -0.7858 O   0  0  0  0  0  0  0  0  0  0  0  0
    0.2188    0.9813    0.1290 C   0  0  0  0  0  0  0  0  0  0  0  0
   -4.2158    0.3644    0.4917 H   0  0  0  0  0  0  0  0  0  0  0  0
   -0.8841   -0.5858   -1.0329 H   0  0  0  0  0  0  0  0  0  0  0  0
    0.0857   -0.2006    1.9792 H   0  0  0  0  0  0  0  0  0  0  0  0
    2.0746   -1.3118    1.2737 H   0  0  0  0  0  0  0  0  0  0  0  0
    1.3668   -1.6851   -0.3957 H   0  0  0  0  0  0  0  0  0  0  0  0
    3.0847   -0.0589   -0.7875 H   0  0  0  0  0  0  0  0  0  0  0  0
    2.6495    0.8683    0.7235 H   0  0  0  0  0  0  0  0  0  0  0  0
   -0.0439    1.9264    0.6175 H   0  0  0  0  0  0  0  0  0  0  0  0
  1  2  2  0
  2  3  1  0
  3  4  1  0
  4  5  1  0
  5  6  1  0
  6  7  1  0
  7  8  1  0
  8  9  1  0
  9  4  1  0
  9  5  1  0
  2 10  1  0
  4 11  1  0
  5 12  1  0
  6 13  1  0
  6 14  1  0
  7 15  1  0
  7 16  1  0
  9 17  1  0
M  END
