
     RDKit          3D

 21 22  0  0  0  0  0  0  0  0999 V2000
   -0.2413   -1.1160   -1.3876 O   0  0  0  0  0  0  0  0  0  0  0  0
   -0.1108   -0.0358   -0.4815 C   0  0  0  0  0  0  0  0  0  0  0  0
   -1.2498   -0.1687    0.4997 C   0  0  0  0  0  0  0  0  0  0  0  0
   -2.6520   -0.1177   -0.1017 C   0  0  0  0  0  0  0  0  0  0  0  0
   -2.1493    0.9520    0.7957 C   0  0  0  0  0  0  0  0  0  0  0  0
    1.2306   -0.1973    0.1625 C   0  0  0  0  0  0  0  0  0  0  0  0
    1.3891   -1.3945    0.8577 O   0  0  0  0  0  0  0  0  0  0  0  0
    2.3945    0.1460   -0.7639 C   0  0  0  0  0  0  0  0  0  0  0  0
    2.1133    0.9277    0.4654 C   0  0  0  0  0  0  0  0  0  0  0  0
   -0.2722   -1.9247   -0.7933 H   0  0  0  0  0  0  0  0  0  0  0  0
   -0.1926    0.9104   -1.0565 H   0  0  0  0  0  0  0  0  0  0  0  0
   -1.0589   -0.8755    1.3184 H   0  0  0  0  0  0  0  0  0  0  0  0
   -3.3967   -0.8576    0.2520 H   0  0  0  0  0  0  0  0  0  0  0  0
   -2.7032    0.0613   -1.1966 H   0  0  0  0  0  0  0  0  0  0  0  0
   -2.6449    1.0055    1.7877 H   0  0  0  0  0  0  0  0  0  0  0  0
   -2.0255    1.9606    0.3169 H   0  0  0  0  0  0  0  0  0  0  0  0
    1.5125   -2.1199    0.1863 H   0  0  0  0  0  0  0  0  0  0  0  0
    2.1713    0.6328   -1.7359 H   0  0  0  0  0  0  0  0  0  0  0  0
    3.2461   -0.5557   -0.8256 H   0  0  0  0  0  0  0  0  0  0  0  0
    2.8390    0.7797    1.3123 H   0  0  0  0  0  0  0  0  0  0  0  0
    1.8008    1.9876    0.3881 H   0  0  0  0  0  0  0  0  0  0  0  0
  1  2  1  0
  2  3  1  0
  3  4  1  0
  4  5  1  0
  2  6  1  0
  6  7  1  0
  6  8  1  0
  8  9  1  0
  5  3  1  0
  9  6  1  0
  1 10  1  0
  2 11  1  0
  3 12  1  0
  4 13  1  0
  4 14  1  0
  5 15  1  0
  5 16  1  0
  7 17  1  0
  8 18  1  0
  8 19  1  0
  9 20  1  0
  9 21  1  0
M  END
