
     RDKit          3D

 21 22  0  0  0  0  0  0  0  0999 V2000
    0.1396   -1.1268    1.3795 O   0  0  0  0  0  0  0  0  0  0  0  0
   -0.0820   -0.2764    0.2955 C   0  0  0  0  0  0  0  0  0  0  0  0
    0.9993   -0.5670   -0.7334 C   0  0  0  0  0  0  0  0  0  0  0  0
    2.3159   -0.2741   -0.0169 C   0  0  0  0  0  0  0  0  0  0  0  0
    2.5298    1.1198    0.4993 C   0  0  0  0  0  0  0  0  0  0  0  0
    3.2296    0.5672   -0.5859 O   0  0  0  0  0  0  0  0  0  0  0  0
   -1.4612   -0.3794   -0.2674 C   0  0  0  0  0  0  0  0  0  0  0  0
   -2.5714   -0.0580    0.6696 C   0  0  0  0  0  0  0  0  0  0  0  0
   -2.3009    0.8224   -0.4945 C   0  0  0  0  0  0  0  0  0  0  0  0
    0.0488   -2.0446    1.0507 H   0  0  0  0  0  0  0  0  0  0  0  0
    0.0512    0.7737    0.6592 H   0  0  0  0  0  0  0  0  0  0  0  0
    0.8839    0.0024   -1.6516 H   0  0  0  0  0  0  0  0  0  0  0  0
    1.0070   -1.6459   -0.9810 H   0  0  0  0  0  0  0  0  0  0  0  0
    2.6115   -1.0855    0.6746 H   0  0  0  0  0  0  0  0  0  0  0  0
    3.1265    1.2495    1.4255 H   0  0  0  0  0  0  0  0  0  0  0  0
    1.7833    1.9064    0.2832 H   0  0  0  0  0  0  0  0  0  0  0  0
   -1.5803   -1.2023   -1.0159 H   0  0  0  0  0  0  0  0  0  0  0  0
   -2.3066    0.2637    1.7110 H   0  0  0  0  0  0  0  0  0  0  0  0
   -3.4870   -0.6892    0.6548 H   0  0  0  0  0  0  0  0  0  0  0  0
   -3.0272    0.8016   -1.3280 H   0  0  0  0  0  0  0  0  0  0  0  0
   -1.9098    1.8424   -0.2495 H   0  0  0  0  0  0  0  0  0  0  0  0
  1  2  1  0
  2  3  1  0
  3  4  1  0
  4  5  1  0
  5  6  1  0
  2  7  1  0
  7  8  1  0
  8  9  1  0
  6  4  1  0
  9  7  1  0
  1 10  1  0
  2 11  1  0
  3 12  1  0
  3 13  1  0
  4 14  1  0
  5 15  1  0
  5 16  1  0
  7 17  1  0
  8 18  1  0
  8 19  1  0
  9 20  1  0
  9 21  1  0
M  END
