
     RDKit          3D

 20 21  0  0  0  0  0  0  0  0999 V2000
    0.0323   -0.4249   -1.5263 O   0  0  0  0  0  0  0  0  0  0  0  0
    0.0037   -0.7932   -0.2022 C   0  0  0  0  0  0  0  0  0  0  0  0
    1.3223   -0.4984    0.4858 C   0  0  0  0  0  0  0  0  0  0  0  0
    1.8592    0.8686    0.5648 C   0  0  0  0  0  0  0  0  0  0  0  0
    2.4641   -0.0723   -0.4547 C   0  0  0  0  0  0  0  0  0  0  0  0
   -1.1170   -0.1656    0.5760 C   0  0  0  0  0  0  0  0  0  0  0  0
   -2.5191   -0.5191    0.0321 C   0  0  0  0  0  0  0  0  0  0  0  0
   -1.9924    0.8716    0.0086 C   0  0  0  0  0  0  0  0  0  0  0  0
   -0.0244    0.5418   -1.6835 H   0  0  0  0  0  0  0  0  0  0  0  0
   -0.0948   -1.9185   -0.1850 H   0  0  0  0  0  0  0  0  0  0  0  0
    1.6506   -1.2082    1.2854 H   0  0  0  0  0  0  0  0  0  0  0  0
    2.5258    1.1175    1.4167 H   0  0  0  0  0  0  0  0  0  0  0  0
    1.3121    1.7392    0.1565 H   0  0  0  0  0  0  0  0  0  0  0  0
    2.1981    0.1201   -1.5134 H   0  0  0  0  0  0  0  0  0  0  0  0
    3.4664   -0.5121   -0.2647 H   0  0  0  0  0  0  0  0  0  0  0  0
   -1.0052   -0.2021    1.6810 H   0  0  0  0  0  0  0  0  0  0  0  0
   -3.2754   -0.8383    0.7671 H   0  0  0  0  0  0  0  0  0  0  0  0
   -2.5711   -1.0664   -0.9248 H   0  0  0  0  0  0  0  0  0  0  0  0
   -2.4589    1.5853    0.7401 H   0  0  0  0  0  0  0  0  0  0  0  0
   -1.7766    1.3749   -0.9595 H   0  0  0  0  0  0  0  0  0  0  0  0
  1  2  1  0
  2  3  1  0
  3  4  1  0
  4  5  1  0
  2  6  1  0
  6  7  1  0
  7  8  1  0
  5  3  1  0
  8  6  1  0
  1  9  1  0
  2 10  1  0
  3 11  1  0
  4 12  1  0
  4 13  1  0
  5 14  1  0
  5 15  1  0
  6 16  1  0
  7 17  1  0
  7 18  1  0
  8 19  1  0
  8 20  1  0
M  END
