
     RDKit          3D

 23 24  0  0  0  0  0  0  0  0999 V2000
   -0.6310    0.2654    1.4544 O   0  0  0  0  0  0  0  0  0  0  0  0
   -0.3888   -0.6548    0.4290 C   0  0  0  0  0  0  0  0  0  0  0  0
    1.0273   -0.5114   -0.0636 C   0  0  0  0  0  0  0  0  0  0  0  0
    1.3809    0.8467   -0.6214 C   0  0  0  0  0  0  0  0  0  0  0  0
    2.7578    0.6459    0.0305 C   0  0  0  0  0  0  0  0  0  0  0  0
    2.0090   -0.2199    1.0526 C   0  0  0  0  0  0  0  0  0  0  0  0
   -1.4051   -0.5741   -0.6646 C   0  0  0  0  0  0  0  0  0  0  0  0
   -2.8264   -0.8435   -0.2097 C   0  0  0  0  0  0  0  0  0  0  0  0
   -2.4139    0.5221   -0.6986 C   0  0  0  0  0  0  0  0  0  0  0  0
   -0.6820    1.1913    1.1429 H   0  0  0  0  0  0  0  0  0  0  0  0
   -0.4650   -1.6657    0.8925 H   0  0  0  0  0  0  0  0  0  0  0  0
    1.3688   -1.3157   -0.7192 H   0  0  0  0  0  0  0  0  0  0  0  0
    0.8654    1.6533   -0.1035 H   0  0  0  0  0  0  0  0  0  0  0  0
    1.4730    0.9136   -1.7107 H   0  0  0  0  0  0  0  0  0  0  0  0
    3.3924   -0.0191   -0.5783 H   0  0  0  0  0  0  0  0  0  0  0  0
    3.2140    1.5448    0.4324 H   0  0  0  0  0  0  0  0  0  0  0  0
    2.5672   -1.0655    1.4384 H   0  0  0  0  0  0  0  0  0  0  0  0
    1.5774    0.4817    1.8139 H   0  0  0  0  0  0  0  0  0  0  0  0
   -1.1173   -0.9989   -1.6371 H   0  0  0  0  0  0  0  0  0  0  0  0
   -3.5063   -1.3780   -0.9134 H   0  0  0  0  0  0  0  0  0  0  0  0
   -3.0268   -1.0128    0.8604 H   0  0  0  0  0  0  0  0  0  0  0  0
   -2.4097    1.3262    0.0669 H   0  0  0  0  0  0  0  0  0  0  0  0
   -2.7610    0.8683   -1.6938 H   0  0  0  0  0  0  0  0  0  0  0  0
  1  2  1  0
  2  3  1  0
  3  4  1  0
  4  5  1  0
  5  6  1  0
  2  7  1  0
  7  8  1  0
  8  9  1  0
  6  3  1  0
  9  7  1  0
  1 10  1  0
  2 11  1  0
  3 12  1  0
  4 13  1  0
  4 14  1  0
  5 15  1  0
  5 16  1  0
  6 17  1  0
  6 18  1  0
  7 19  1  0
  8 20  1  0
  8 21  1  0
  9 22  1  0
  9 23  1  0
M  END
