
     RDKit          3D

 19 20  0  0  0  0  0  0  0  0999 V2000
    0.4374   -1.5283   -0.7101 O   0  0  0  0  0  0  0  0  0  0  0  0
    0.5738   -0.1779   -0.4173 C   0  0  0  0  0  0  0  0  0  0  0  0
   -0.7734    0.3643   -0.0311 C   0  0  0  0  0  0  0  0  0  0  0  0
   -1.9408   -0.1900   -0.8399 C   0  0  0  0  0  0  0  0  0  0  0  0
   -2.5764   -0.0449    0.5331 C   0  0  0  0  0  0  0  0  0  0  0  0
   -1.3038   -0.2724    1.0766 O   0  0  0  0  0  0  0  0  0  0  0  0
    1.5549   -0.0072    0.7139 C   0  0  0  0  0  0  0  0  0  0  0  0
    2.8442    0.6768    0.3383 C   0  0  0  0  0  0  0  0  0  0  0  0
    1.8539    1.2515    1.1819 O   0  0  0  0  0  0  0  0  0  0  0  0
    1.3500   -1.8893   -0.8559 H   0  0  0  0  0  0  0  0  0  0  0  0
    0.9387    0.3132   -1.3427 H   0  0  0  0  0  0  0  0  0  0  0  0
   -0.8250    1.4602   -0.0242 H   0  0  0  0  0  0  0  0  0  0  0  0
   -1.8386   -1.2635   -1.1098 H   0  0  0  0  0  0  0  0  0  0  0  0
   -2.3231    0.4801   -1.6137 H   0  0  0  0  0  0  0  0  0  0  0  0
   -2.8942    1.0027    0.7520 H   0  0  0  0  0  0  0  0  0  0  0  0
   -3.3204   -0.8217    0.7127 H   0  0  0  0  0  0  0  0  0  0  0  0
    1.5901   -0.8138    1.4654 H   0  0  0  0  0  0  0  0  0  0  0  0
    2.9057    1.1782   -0.6400 H   0  0  0  0  0  0  0  0  0  0  0  0
    3.7470    0.2819    0.8112 H   0  0  0  0  0  0  0  0  0  0  0  0
  1  2  1  0
  2  3  1  0
  3  4  1  0
  4  5  1  0
  5  6  1  0
  2  7  1  0
  7  8  1  0
  8  9  1  0
  6  3  1  0
  9  7  1  0
  1 10  1  0
  2 11  1  0
  3 12  1  0
  4 13  1  0
  4 14  1  0
  5 15  1  0
  5 16  1  0
  7 17  1  0
  8 18  1  0
  8 19  1  0
M  END
