
     RDKit          3D

 21 22  0  0  0  0  0  0  0  0999 V2000
   -0.2609   -0.6240   -1.6902 O   0  0  0  0  0  0  0  0  0  0  0  0
   -0.0073    0.2224   -0.6344 C   0  0  0  0  0  0  0  0  0  0  0  0
   -1.2518    0.5903    0.1414 C   0  0  0  0  0  0  0  0  0  0  0  0
   -2.0708   -0.4585    0.7988 C   0  0  0  0  0  0  0  0  0  0  0  0
   -2.5392    0.0864   -0.5041 C   0  0  0  0  0  0  0  0  0  0  0  0
    0.9847   -0.3520    0.3463 C   0  0  0  0  0  0  0  0  0  0  0  0
    2.3493   -0.6671   -0.2334 C   0  0  0  0  0  0  0  0  0  0  0  0
    2.8903   -0.2248    0.9967 O   0  0  0  0  0  0  0  0  0  0  0  0
    1.8346    0.6798    1.0561 C   0  0  0  0  0  0  0  0  0  0  0  0
   -0.1681   -0.1748   -2.5870 H   0  0  0  0  0  0  0  0  0  0  0  0
    0.4283    1.1576   -1.0496 H   0  0  0  0  0  0  0  0  0  0  0  0
   -1.2508    1.5936    0.5932 H   0  0  0  0  0  0  0  0  0  0  0  0
   -2.6404   -0.1629    1.7069 H   0  0  0  0  0  0  0  0  0  0  0  0
   -1.7327   -1.5169    0.8338 H   0  0  0  0  0  0  0  0  0  0  0  0
   -2.4628   -0.5996   -1.3618 H   0  0  0  0  0  0  0  0  0  0  0  0
   -3.3542    0.8296   -0.5461 H   0  0  0  0  0  0  0  0  0  0  0  0
    0.6179   -1.1123    1.0292 H   0  0  0  0  0  0  0  0  0  0  0  0
    2.6797    0.0125   -1.0199 H   0  0  0  0  0  0  0  0  0  0  0  0
    2.5716   -1.7404   -0.3611 H   0  0  0  0  0  0  0  0  0  0  0  0
    1.9378    1.5695    0.4140 H   0  0  0  0  0  0  0  0  0  0  0  0
    1.4448    0.8915    2.0710 H   0  0  0  0  0  0  0  0  0  0  0  0
  1  2  1  0
  2  3  1  0
  3  4  1  0
  4  5  1  0
  2  6  1  0
  6  7  1  0
  7  8  1  0
  8  9  1  0
  5  3  1  0
  9  6  1  0
  1 10  1  0
  2 11  1  0
  3 12  1  0
  4 13  1  0
  4 14  1  0
  5 15  1  0
  5 16  1  0
  6 17  1  0
  7 18  1  0
  7 19  1  0
  9 20  1  0
  9 21  1  0
M  END
