
     RDKit          3D

 21 22  0  0  0  0  0  0  0  0999 V2000
   -0.2424    1.9394    1.1447 O   0  0  0  0  0  0  0  0  0  0  0  0
   -0.3978    0.9959    0.1334 C   0  0  0  0  0  0  0  0  0  0  0  0
    0.4050   -0.2313    0.5543 C   0  0  0  0  0  0  0  0  0  0  0  0
    1.8711    0.1059    0.7292 C   0  0  0  0  0  0  0  0  0  0  0  0
    2.0458   -0.2279   -0.7496 C   0  0  0  0  0  0  0  0  0  0  0  0
    0.8182   -1.1138   -0.6132 C   0  0  0  0  0  0  0  0  0  0  0  0
   -1.8599    0.6655   -0.0245 C   0  0  0  0  0  0  0  0  0  0  0  0
   -2.4650   -0.5797    0.3453 C   0  0  0  0  0  0  0  0  0  0  0  0
   -2.1042   -0.3362   -1.0876 O   0  0  0  0  0  0  0  0  0  0  0  0
   -0.5676    1.5876    2.0072 H   0  0  0  0  0  0  0  0  0  0  0  0
    0.0270    1.4303   -0.7898 H   0  0  0  0  0  0  0  0  0  0  0  0
   -0.0034   -0.7568    1.4147 H   0  0  0  0  0  0  0  0  0  0  0  0
    2.3870   -0.6377    1.3707 H   0  0  0  0  0  0  0  0  0  0  0  0
    2.0527    1.1659    0.9788 H   0  0  0  0  0  0  0  0  0  0  0  0
    1.8785    0.6353   -1.4221 H   0  0  0  0  0  0  0  0  0  0  0  0
    2.9186   -0.8538   -0.9734 H   0  0  0  0  0  0  0  0  0  0  0  0
    1.0743   -2.1302   -0.2334 H   0  0  0  0  0  0  0  0  0  0  0  0
    0.1274   -1.0916   -1.4762 H   0  0  0  0  0  0  0  0  0  0  0  0
   -2.5082    1.5388   -0.2157 H   0  0  0  0  0  0  0  0  0  0  0  0
   -1.9135   -1.4736    0.6593 H   0  0  0  0  0  0  0  0  0  0  0  0
   -3.5435   -0.6319    0.5078 H   0  0  0  0  0  0  0  0  0  0  0  0
  1  2  1  0
  2  3  1  0
  3  4  1  0
  4  5  1  0
  5  6  1  0
  2  7  1  0
  7  8  1  0
  8  9  1  0
  6  3  1  0
  9  7  1  0
  1 10  1  0
  2 11  1  0
  3 12  1  0
  4 13  1  0
  4 14  1  0
  5 15  1  0
  5 16  1  0
  6 17  1  0
  6 18  1  0
  7 19  1  0
  8 20  1  0
  8 21  1  0
M  END
