
     RDKit          3D

 21 22  0  0  0  0  0  0  0  0999 V2000
   -0.7014   -1.7120   -1.2116 O   0  0  0  0  0  0  0  0  0  0  0  0
   -0.5851   -0.5368   -0.4834 C   0  0  0  0  0  0  0  0  0  0  0  0
    0.7575    0.0845   -0.6852 C   0  0  0  0  0  0  0  0  0  0  0  0
    1.9020   -0.5132    0.0817 C   0  0  0  0  0  0  0  0  0  0  0  0
    2.3265    0.9418   -0.0018 C   0  0  0  0  0  0  0  0  0  0  0  0
    0.9723    1.2760    0.0087 O   0  0  0  0  0  0  0  0  0  0  0  0
   -1.0632   -0.5718    0.9286 C   0  0  0  0  0  0  0  0  0  0  0  0
   -1.8283    0.7176    0.6980 C   0  0  0  0  0  0  0  0  0  0  0  0
   -1.6829    0.4783   -0.7901 C   0  0  0  0  0  0  0  0  0  0  0  0
   -0.9141   -2.4989   -0.6874 H   0  0  0  0  0  0  0  0  0  0  0  0
    1.0069    0.1363   -1.7636 H   0  0  0  0  0  0  0  0  0  0  0  0
    1.6743   -0.8789    1.1014 H   0  0  0  0  0  0  0  0  0  0  0  0
    2.5639   -1.1579   -0.5291 H   0  0  0  0  0  0  0  0  0  0  0  0
    2.9160    1.3155    0.8439 H   0  0  0  0  0  0  0  0  0  0  0  0
    2.7392    1.1335   -1.0103 H   0  0  0  0  0  0  0  0  0  0  0  0
   -0.2514   -0.4915    1.6855 H   0  0  0  0  0  0  0  0  0  0  0  0
   -1.7656   -1.3854    1.1955 H   0  0  0  0  0  0  0  0  0  0  0  0
   -1.2761    1.6378    1.0258 H   0  0  0  0  0  0  0  0  0  0  0  0
   -2.8911    0.6812    1.0388 H   0  0  0  0  0  0  0  0  0  0  0  0
   -1.3217    1.3600   -1.3369 H   0  0  0  0  0  0  0  0  0  0  0  0
   -2.5778   -0.0163   -1.2082 H   0  0  0  0  0  0  0  0  0  0  0  0
  1  2  1  0
  2  3  1  0
  3  4  1  0
  4  5  1  0
  5  6  1  0
  2  7  1  0
  7  8  1  0
  8  9  1  0
  9  2  1  0
  6  3  1  0
  1 10  1  0
  3 11  1  0
  4 12  1  0
  4 13  1  0
  5 14  1  0
  5 15  1  0
  7 16  1  0
  7 17  1  0
  8 18  1  0
  8 19  1  0
  9 20  1  0
  9 21  1  0
M  END
