
     RDKit          3D

 21 22  0  0  0  0  0  0  0  0999 V2000
   -0.6396    1.3321    1.3248 O   0  0  0  0  0  0  0  0  0  0  0  0
   -0.5827    0.2997    0.3862 C   0  0  0  0  0  0  0  0  0  0  0  0
    0.3447    0.6218   -0.7325 C   0  0  0  0  0  0  0  0  0  0  0  0
    1.7580    0.8840   -0.3722 C   0  0  0  0  0  0  0  0  0  0  0  0
    2.6503    0.0102    0.2625 C   0  0  0  0  0  0  0  0  0  0  0  0
    2.6658    0.0967   -1.2443 O   0  0  0  0  0  0  0  0  0  0  0  0
   -1.9960    0.1094   -0.2004 C   0  0  0  0  0  0  0  0  0  0  0  0
   -1.8028   -1.3747   -0.1012 C   0  0  0  0  0  0  0  0  0  0  0  0
   -0.6731   -1.0934    0.8846 C   0  0  0  0  0  0  0  0  0  0  0  0
   -0.3650    2.1653    0.8959 H   0  0  0  0  0  0  0  0  0  0  0  0
    0.2390   -0.2091   -1.4792 H   0  0  0  0  0  0  0  0  0  0  0  0
   -0.1014    1.5289   -1.2467 H   0  0  0  0  0  0  0  0  0  0  0  0
    2.0805    1.9587   -0.5184 H   0  0  0  0  0  0  0  0  0  0  0  0
    2.4631   -1.0283    0.5337 H   0  0  0  0  0  0  0  0  0  0  0  0
    3.6532    0.3847    0.5722 H   0  0  0  0  0  0  0  0  0  0  0  0
   -2.0986    0.4441   -1.2419 H   0  0  0  0  0  0  0  0  0  0  0  0
   -2.7964    0.5298    0.4464 H   0  0  0  0  0  0  0  0  0  0  0  0
   -1.3504   -1.7988   -1.0315 H   0  0  0  0  0  0  0  0  0  0  0  0
   -2.6220   -1.9545    0.3332 H   0  0  0  0  0  0  0  0  0  0  0  0
    0.2150   -1.7029    0.7462 H   0  0  0  0  0  0  0  0  0  0  0  0
   -1.0417   -1.2037    1.9251 H   0  0  0  0  0  0  0  0  0  0  0  0
  1  2  1  0
  2  3  1  0
  3  4  1  0
  4  5  1  0
  5  6  1  0
  2  7  1  0
  7  8  1  0
  8  9  1  0
  9  2  1  0
  6  4  1  0
  1 10  1  0
  3 11  1  0
  3 12  1  0
  4 13  1  0
  5 14  1  0
  5 15  1  0
  7 16  1  0
  7 17  1  0
  8 18  1  0
  8 19  1  0
  9 20  1  0
  9 21  1  0
M  END
