
     RDKit          3D

 21 22  0  0  0  0  0  0  0  0999 V2000
   -1.1689    1.0762   -1.6304 O   0  0  0  0  0  0  0  0  0  0  0  0
   -1.3178    0.2003   -0.5737 C   0  0  0  0  0  0  0  0  0  0  0  0
   -0.0239   -0.4454   -0.1200 C   0  0  0  0  0  0  0  0  0  0  0  0
    0.9633    0.6350    0.3302 C   0  0  0  0  0  0  0  0  0  0  0  0
    2.2389   -0.0105    0.7767 C   0  0  0  0  0  0  0  0  0  0  0  0
    3.0268   -0.8537   -0.2028 C   0  0  0  0  0  0  0  0  0  0  0  0
    3.4124    0.4255    0.1713 O   0  0  0  0  0  0  0  0  0  0  0  0
   -2.5685   -0.6047   -0.4328 C   0  0  0  0  0  0  0  0  0  0  0  0
   -2.3461    0.5699    0.4548 C   0  0  0  0  0  0  0  0  0  0  0  0
   -1.5520    1.9532   -1.3812 H   0  0  0  0  0  0  0  0  0  0  0  0
    0.4538   -0.9990   -0.9555 H   0  0  0  0  0  0  0  0  0  0  0  0
   -0.2028   -1.1011    0.7445 H   0  0  0  0  0  0  0  0  0  0  0  0
    0.5043    1.1324    1.2023 H   0  0  0  0  0  0  0  0  0  0  0  0
    1.0962    1.3878   -0.4714 H   0  0  0  0  0  0  0  0  0  0  0  0
    2.2516   -0.3656    1.8213 H   0  0  0  0  0  0  0  0  0  0  0  0
    3.6606   -1.6802    0.1947 H   0  0  0  0  0  0  0  0  0  0  0  0
    2.5167   -1.0365   -1.1507 H   0  0  0  0  0  0  0  0  0  0  0  0
   -2.5541   -1.6042    0.0144 H   0  0  0  0  0  0  0  0  0  0  0  0
   -3.3252   -0.5025   -1.2588 H   0  0  0  0  0  0  0  0  0  0  0  0
   -2.0847    0.3713    1.5302 H   0  0  0  0  0  0  0  0  0  0  0  0
   -2.9806    1.4519    0.3319 H   0  0  0  0  0  0  0  0  0  0  0  0
  1  2  1  0
  2  3  1  0
  3  4  1  0
  4  5  1  0
  5  6  1  0
  6  7  1  0
  2  8  1  0
  8  9  1  0
  9  2  1  0
  7  5  1  0
  1 10  1  0
  3 11  1  0
  3 12  1  0
  4 13  1  0
  4 14  1  0
  5 15  1  0
  6 16  1  0
  6 17  1  0
  8 18  1  0
  8 19  1  0
  9 20  1  0
  9 21  1  0
M  END
