
     RDKit          3D

 17 19  0  0  0  0  0  0  0  0999 V2000
   -0.1452    2.0260   -0.4521 O   0  0  0  0  0  0  0  0  0  0  0  0
   -0.1681    0.6734   -0.0162 C   0  0  0  0  0  0  0  0  0  0  0  0
   -1.5828    0.3316    0.4161 C   0  0  0  0  0  0  0  0  0  0  0  0
   -2.1857   -0.8587   -0.1914 C   0  0  0  0  0  0  0  0  0  0  0  0
   -2.4948    0.5128   -0.6819 O   0  0  0  0  0  0  0  0  0  0  0  0
    0.7306   -0.2614   -0.6322 C   0  0  0  0  0  0  0  0  0  0  0  0
    2.1666   -0.5582   -0.1633 C   0  0  0  0  0  0  0  0  0  0  0  0
    1.4602   -1.0195    0.9840 O   0  0  0  0  0  0  0  0  0  0  0  0
    0.8726    0.2441    0.8606 C   0  0  0  0  0  0  0  0  0  0  0  0
    0.7747    2.3814   -0.4019 H   0  0  0  0  0  0  0  0  0  0  0  0
   -1.9309    0.6675    1.4067 H   0  0  0  0  0  0  0  0  0  0  0  0
   -1.7362   -1.4771   -0.9668 H   0  0  0  0  0  0  0  0  0  0  0  0
   -3.1532   -1.2615    0.1978 H   0  0  0  0  0  0  0  0  0  0  0  0
    0.2490   -1.2881   -0.7196 H   0  0  0  0  0  0  0  0  0  0  0  0
    2.6365   -1.4161   -0.6414 H   0  0  0  0  0  0  0  0  0  0  0  0
    2.8031    0.3068   -0.0163 H   0  0  0  0  0  0  0  0  0  0  0  0
    1.7036    0.9970    1.0180 H   0  0  0  0  0  0  0  0  0  0  0  0
  1  2  1  0
  2  3  1  0
  3  4  1  0
  4  5  1  0
  2  6  1  0
  6  7  1  0
  7  8  1  0
  8  9  1  0
  9  2  1  0
  5  3  1  0
  9  6  1  0
  1 10  1  0
  3 11  1  0
  4 12  1  0
  4 13  1  0
  6 14  1  0
  7 15  1  0
  7 16  1  0
  9 17  1  0
M  END
