
     RDKit          3D

 21 23  0  0  0  0  0  0  0  0999 V2000
   -1.3896    1.6816    0.8164 O   0  0  0  0  0  0  0  0  0  0  0  0
   -1.1066    0.4260    0.2607 C   0  0  0  0  0  0  0  0  0  0  0  0
    0.1995   -0.1276    0.7140 C   0  0  0  0  0  0  0  0  0  0  0  0
    1.4118    0.6813    0.4607 C   0  0  0  0  0  0  0  0  0  0  0  0
    2.1423   -0.6440    0.4690 C   0  0  0  0  0  0  0  0  0  0  0  0
    0.9039   -0.8949   -0.3699 C   0  0  0  0  0  0  0  0  0  0  0  0
    1.2336    0.4042   -0.9934 C   0  0  0  0  0  0  0  0  0  0  0  0
   -2.3120   -0.4499    0.2063 C   0  0  0  0  0  0  0  0  0  0  0  0
   -1.6756   -0.0090   -1.0359 C   0  0  0  0  0  0  0  0  0  0  0  0
   -1.0572    1.6720    1.7473 H   0  0  0  0  0  0  0  0  0  0  0  0
    0.2018   -0.6078    1.7149 H   0  0  0  0  0  0  0  0  0  0  0  0
    1.7189    1.5242    0.9019 H   0  0  0  0  0  0  0  0  0  0  0  0
    2.1013   -1.1134    1.4469 H   0  0  0  0  0  0  0  0  0  0  0  0
    3.0581   -0.6996   -0.1152 H   0  0  0  0  0  0  0  0  0  0  0  0
    0.6362   -1.7640   -0.7769 H   0  0  0  0  0  0  0  0  0  0  0  0
    0.4793    1.0065   -1.4834 H   0  0  0  0  0  0  0  0  0  0  0  0
    2.2061    0.4087   -1.5669 H   0  0  0  0  0  0  0  0  0  0  0  0
   -2.2300   -1.5213    0.4729 H   0  0  0  0  0  0  0  0  0  0  0  0
   -3.3092   -0.0237    0.4242 H   0  0  0  0  0  0  0  0  0  0  0  0
   -1.1196   -0.7552   -1.6309 H   0  0  0  0  0  0  0  0  0  0  0  0
   -2.0931    0.8061   -1.6624 H   0  0  0  0  0  0  0  0  0  0  0  0
  1  2  1  0
  2  3  1  0
  3  4  1  0
  4  5  1  0
  5  6  1  0
  6  7  1  0
  2  8  1  0
  8  9  1  0
  9  2  1  0
  6  3  1  0
  7  4  1  0
  1 10  1  0
  3 11  1  0
  4 12  1  0
  5 13  1  0
  5 14  1  0
  6 15  1  0
  7 16  1  0
  7 17  1  0
  8 18  1  0
  8 19  1  0
  9 20  1  0
  9 21  1  0
M  END
