
     RDKit          3D

 19 20  0  0  0  0  0  0  0  0999 V2000
    0.2263   -1.1098    1.1385 O   0  0  0  0  0  0  0  0  0  0  0  0
    0.0183   -0.1361    0.2012 C   0  0  0  0  0  0  0  0  0  0  0  0
    1.2762    0.3876   -0.4285 C   0  0  0  0  0  0  0  0  0  0  0  0
    2.6186   -0.0599    0.0425 C   0  0  0  0  0  0  0  0  0  0  0  0
    2.0270   -0.6663   -1.1142 O   0  0  0  0  0  0  0  0  0  0  0  0
   -0.9814   -0.6381   -0.8299 C   0  0  0  0  0  0  0  0  0  0  0  0
   -2.2333    0.0942   -0.3301 C   0  0  0  0  0  0  0  0  0  0  0  0
   -1.6800    1.3592   -0.0829 O   0  0  0  0  0  0  0  0  0  0  0  0
   -0.6872    1.0285    0.8621 C   0  0  0  0  0  0  0  0  0  0  0  0
    0.6610   -1.9252    0.8023 H   0  0  0  0  0  0  0  0  0  0  0  0
    1.2189    1.3450   -0.9828 H   0  0  0  0  0  0  0  0  0  0  0  0
    3.4798    0.6016   -0.1587 H   0  0  0  0  0  0  0  0  0  0  0  0
    2.7005   -0.7321    0.9275 H   0  0  0  0  0  0  0  0  0  0  0  0
   -0.7592   -0.3064   -1.8422 H   0  0  0  0  0  0  0  0  0  0  0  0
   -1.1131   -1.7324   -0.7932 H   0  0  0  0  0  0  0  0  0  0  0  0
   -3.0072    0.1672   -1.0847 H   0  0  0  0  0  0  0  0  0  0  0  0
   -2.5589   -0.3025    0.6425 H   0  0  0  0  0  0  0  0  0  0  0  0
   -0.0299    1.8992    1.0170 H   0  0  0  0  0  0  0  0  0  0  0  0
   -1.1765    0.7264    1.8173 H   0  0  0  0  0  0  0  0  0  0  0  0
  1  2  1  0
  2  3  1  0
  3  4  1  0
  4  5  1  0
  2  6  1  0
  6  7  1  0
  7  8  1  0
  8  9  1  0
  9  2  1  0
  5  3  1  0
  1 10  1  0
  3 11  1  0
  4 12  1  0
  4 13  1  0
  6 14  1  0
  6 15  1  0
  7 16  1  0
  7 17  1  0
  9 18  1  0
  9 19  1  0
M  END
