
     RDKit          3D

 23 24  0  0  0  0  0  0  0  0999 V2000
    1.3454   -1.4350    0.8595 O   0  0  0  0  0  0  0  0  0  0  0  0
    0.7483   -0.3993    0.1653 C   0  0  0  0  0  0  0  0  0  0  0  0
   -0.6320   -0.7285   -0.2641 C   0  0  0  0  0  0  0  0  0  0  0  0
   -1.4137    0.2638   -1.0156 C   0  0  0  0  0  0  0  0  0  0  0  0
   -2.5074    0.1791    0.0364 C   0  0  0  0  0  0  0  0  0  0  0  0
   -1.5961   -0.6610    0.9030 C   0  0  0  0  0  0  0  0  0  0  0  0
    1.6922    0.0636   -0.9540 C   0  0  0  0  0  0  0  0  0  0  0  0
    2.4044    0.8207    0.1807 C   0  0  0  0  0  0  0  0  0  0  0  0
    0.9873    0.9563    0.7630 C   0  0  0  0  0  0  0  0  0  0  0  0
    1.2048   -2.2733    0.3426 H   0  0  0  0  0  0  0  0  0  0  0  0
   -0.6789   -1.7344   -0.7198 H   0  0  0  0  0  0  0  0  0  0  0  0
   -1.8372   -0.1089   -1.9884 H   0  0  0  0  0  0  0  0  0  0  0  0
   -1.0111    1.2646   -1.1701 H   0  0  0  0  0  0  0  0  0  0  0  0
   -2.7901    1.1451    0.4893 H   0  0  0  0  0  0  0  0  0  0  0  0
   -3.4158   -0.3656   -0.2729 H   0  0  0  0  0  0  0  0  0  0  0  0
   -2.0683   -1.6382    1.1677 H   0  0  0  0  0  0  0  0  0  0  0  0
   -1.2244   -0.1046    1.7841 H   0  0  0  0  0  0  0  0  0  0  0  0
    2.2881   -0.7237   -1.4101 H   0  0  0  0  0  0  0  0  0  0  0  0
    1.2280    0.7885   -1.6431 H   0  0  0  0  0  0  0  0  0  0  0  0
    2.8655    1.7567   -0.1259 H   0  0  0  0  0  0  0  0  0  0  0  0
    2.9788    0.1450    0.8275 H   0  0  0  0  0  0  0  0  0  0  0  0
    0.4822    1.7610    0.1932 H   0  0  0  0  0  0  0  0  0  0  0  0
    0.9497    1.0283    1.8517 H   0  0  0  0  0  0  0  0  0  0  0  0
  1  2  1  0
  2  3  1  0
  3  4  1  0
  4  5  1  0
  5  6  1  0
  2  7  1  0
  7  8  1  0
  8  9  1  0
  9  2  1  0
  6  3  1  0
  1 10  1  0
  3 11  1  0
  4 12  1  0
  4 13  1  0
  5 14  1  0
  5 15  1  0
  6 16  1  0
  6 17  1  0
  7 18  1  0
  7 19  1  0
  8 20  1  0
  8 21  1  0
  9 22  1  0
  9 23  1  0
M  END
