
     RDKit          3D

 18 19  0  0  0  0  0  0  0  0999 V2000
    1.2022   -1.1761   -1.3182 O   0  0  0  0  0  0  0  0  0  0  0  0
    0.7447   -0.2030   -0.4532 C   0  0  0  0  0  0  0  0  0  0  0  0
   -0.7560   -0.1466   -0.3203 C   0  0  0  0  0  0  0  0  0  0  0  0
   -1.3940    0.1175   -1.5536 O   0  0  0  0  0  0  0  0  0  0  0  0
   -1.3729    0.4621    0.9015 C   0  0  0  0  0  0  0  0  0  0  0  0
   -1.3877   -1.0127    0.6830 C   0  0  0  0  0  0  0  0  0  0  0  0
    1.6257    0.0689    0.7211 C   0  0  0  0  0  0  0  0  0  0  0  0
    1.4443    1.0897   -0.3644 C   0  0  0  0  0  0  0  0  0  0  0  0
    1.2926   -0.7766   -2.2294 H   0  0  0  0  0  0  0  0  0  0  0  0
   -2.2750   -0.3426   -1.5449 H   0  0  0  0  0  0  0  0  0  0  0  0
   -2.3210    1.0467    0.7189 H   0  0  0  0  0  0  0  0  0  0  0  0
   -0.7589    0.9251    1.6868 H   0  0  0  0  0  0  0  0  0  0  0  0
   -2.3105   -1.5310    0.4022 H   0  0  0  0  0  0  0  0  0  0  0  0
   -0.7028   -1.5948    1.3554 H   0  0  0  0  0  0  0  0  0  0  0  0
    2.6283   -0.3922    0.7481 H   0  0  0  0  0  0  0  0  0  0  0  0
    1.1386    0.1766    1.6854 H   0  0  0  0  0  0  0  0  0  0  0  0
    0.9410    2.0118   -0.0329 H   0  0  0  0  0  0  0  0  0  0  0  0
    2.2616    1.2771   -1.0856 H   0  0  0  0  0  0  0  0  0  0  0  0
  1  2  1  0
  2  3  1  0
  3  4  1  0
  3  5  1  0
  5  6  1  0
  2  7  1  0
  7  8  1  0
  8  2  1  0
  6  3  1  0
  1  9  1  0
  4 10  1  0
  5 11  1  0
  5 12  1  0
  6 13  1  0
  6 14  1  0
  7 15  1  0
  7 16  1  0
  8 17  1  0
  8 18  1  0
M  END
