
     RDKit          3D

 17 19  0  0  0  0  0  0  0  0999 V2000
   -0.4618    0.0823   -1.6068 O   0  0  0  0  0  0  0  0  0  0  0  0
   -0.1395    0.2048   -0.2798 C   0  0  0  0  0  0  0  0  0  0  0  0
    1.2372    0.7158    0.0075 C   0  0  0  0  0  0  0  0  0  0  0  0
    2.3414   -0.0970    0.4625 C   0  0  0  0  0  0  0  0  0  0  0  0
    1.5817    0.8465    1.3506 O   0  0  0  0  0  0  0  0  0  0  0  0
   -1.1967    0.7789    0.6098 C   0  0  0  0  0  0  0  0  0  0  0  0
   -2.0469   -0.4062    0.2828 C   0  0  0  0  0  0  0  0  0  0  0  0
   -0.6569   -0.8949    0.5696 C   0  0  0  0  0  0  0  0  0  0  0  0
   -0.6579    0.0065    1.6294 O   0  0  0  0  0  0  0  0  0  0  0  0
   -0.1323   -0.8130   -1.9111 H   0  0  0  0  0  0  0  0  0  0  0  0
    1.4963    1.6359   -0.5811 H   0  0  0  0  0  0  0  0  0  0  0  0
    3.3696    0.2494    0.3000 H   0  0  0  0  0  0  0  0  0  0  0  0
    2.2466   -1.0874    0.8958 H   0  0  0  0  0  0  0  0  0  0  0  0
   -1.4860    1.7420    0.6725 H   0  0  0  0  0  0  0  0  0  0  0  0
   -2.3216   -0.4293   -0.7704 H   0  0  0  0  0  0  0  0  0  0  0  0
   -2.8186   -0.6779    1.0150 H   0  0  0  0  0  0  0  0  0  0  0  0
   -0.3548   -1.8563    0.6062 H   0  0  0  0  0  0  0  0  0  0  0  0
  1  2  1  0
  2  3  1  0
  3  4  1  0
  4  5  1  0
  2  6  1  0
  6  7  1  0
  7  8  1  0
  8  9  1  0
  8  2  1  0
  5  3  1  0
  9  6  1  0
  1 10  1  0
  3 11  1  0
  4 12  1  0
  4 13  1  0
  6 14  1  0
  7 15  1  0
  7 16  1  0
  8 17  1  0
M  END
