
     RDKit          3D

 19 21  0  0  0  0  0  0  0  0999 V2000
    0.2394   -2.0239   -0.0483 O   0  0  0  0  0  0  0  0  0  0  0  0
    0.3079   -0.6265   -0.1036 C   0  0  0  0  0  0  0  0  0  0  0  0
   -0.9036    0.0324   -0.6646 C   0  0  0  0  0  0  0  0  0  0  0  0
   -2.2365   -0.1888    0.0495 C   0  0  0  0  0  0  0  0  0  0  0  0
   -1.5952    1.1577   -0.0499 C   0  0  0  0  0  0  0  0  0  0  0  0
    0.9563    0.0277    1.0833 C   0  0  0  0  0  0  0  0  0  0  0  0
    2.0157    0.5544    0.1425 C   0  0  0  0  0  0  0  0  0  0  0  0
    1.6146    1.1876   -1.0348 O   0  0  0  0  0  0  0  0  0  0  0  0
    1.5438   -0.1834   -0.9021 C   0  0  0  0  0  0  0  0  0  0  0  0
    1.0575   -2.3644    0.3954 H   0  0  0  0  0  0  0  0  0  0  0  0
   -0.9899   -0.0634   -1.7808 H   0  0  0  0  0  0  0  0  0  0  0  0
   -3.1349   -0.4050   -0.5709 H   0  0  0  0  0  0  0  0  0  0  0  0
   -2.2158   -0.6593    1.0525 H   0  0  0  0  0  0  0  0  0  0  0  0
   -1.2964    1.6460    0.8917 H   0  0  0  0  0  0  0  0  0  0  0  0
   -2.1285    1.8826   -0.7335 H   0  0  0  0  0  0  0  0  0  0  0  0
    0.3800    0.7579    1.6400 H   0  0  0  0  0  0  0  0  0  0  0  0
    1.4196   -0.7364    1.7604 H   0  0  0  0  0  0  0  0  0  0  0  0
    2.9888    0.8699    0.5037 H   0  0  0  0  0  0  0  0  0  0  0  0
    1.9774   -0.8651   -1.6305 H   0  0  0  0  0  0  0  0  0  0  0  0
  1  2  1  0
  2  3  1  0
  3  4  1  0
  4  5  1  0
  2  6  1  0
  6  7  1  0
  7  8  1  0
  8  9  1  0
  9  2  1  0
  5  3  1  0
  9  7  1  0
  1 10  1  0
  3 11  1  0
  4 12  1  0
  4 13  1  0
  5 14  1  0
  5 15  1  0
  6 16  1  0
  6 17  1  0
  7 18  1  0
  9 19  1  0
M  END
