
     RDKit          3D

 23 24  0  0  0  0  0  0  0  0999 V2000
   -1.0510   -1.4227    1.0131 O   0  0  0  0  0  0  0  0  0  0  0  0
   -0.9142   -0.4351    0.0628 C   0  0  0  0  0  0  0  0  0  0  0  0
    0.3188   -0.5383   -0.7928 C   0  0  0  0  0  0  0  0  0  0  0  0
    1.5104   -0.4596    0.1445 C   0  0  0  0  0  0  0  0  0  0  0  0
    2.8877   -0.5309   -0.3750 C   0  0  0  0  0  0  0  0  0  0  0  0
    2.2923    0.7792    0.1338 C   0  0  0  0  0  0  0  0  0  0  0  0
   -2.1891   -0.1001   -0.6431 C   0  0  0  0  0  0  0  0  0  0  0  0
   -2.4874    0.8837    0.4975 C   0  0  0  0  0  0  0  0  0  0  0  0
   -0.9789    0.9498    0.7162 C   0  0  0  0  0  0  0  0  0  0  0  0
   -0.8058   -2.3076    0.6274 H   0  0  0  0  0  0  0  0  0  0  0  0
    0.3201    0.2410   -1.5566 H   0  0  0  0  0  0  0  0  0  0  0  0
    0.2976   -1.5186   -1.3327 H   0  0  0  0  0  0  0  0  0  0  0  0
    1.3308   -0.9763    1.1255 H   0  0  0  0  0  0  0  0  0  0  0  0
    3.0550   -0.6588   -1.4538 H   0  0  0  0  0  0  0  0  0  0  0  0
    3.6667   -0.9749    0.2737 H   0  0  0  0  0  0  0  0  0  0  0  0
    2.6189    1.1610    1.1219 H   0  0  0  0  0  0  0  0  0  0  0  0
    2.1534    1.5254   -0.6676 H   0  0  0  0  0  0  0  0  0  0  0  0
   -2.1065    0.4117   -1.6130 H   0  0  0  0  0  0  0  0  0  0  0  0
   -2.9023   -0.9493   -0.6053 H   0  0  0  0  0  0  0  0  0  0  0  0
   -2.9138    1.8382    0.1725 H   0  0  0  0  0  0  0  0  0  0  0  0
   -2.9514    0.3898    1.3612 H   0  0  0  0  0  0  0  0  0  0  0  0
   -0.5001    1.7033    0.0370 H   0  0  0  0  0  0  0  0  0  0  0  0
   -0.6514    0.9892    1.7528 H   0  0  0  0  0  0  0  0  0  0  0  0
  1  2  1  0
  2  3  1  0
  3  4  1  0
  4  5  1  0
  5  6  1  0
  2  7  1  0
  7  8  1  0
  8  9  1  0
  9  2  1  0
  6  4  1  0
  1 10  1  0
  3 11  1  0
  3 12  1  0
  4 13  1  0
  5 14  1  0
  5 15  1  0
  6 16  1  0
  6 17  1  0
  7 18  1  0
  7 19  1  0
  8 20  1  0
  8 21  1  0
  9 22  1  0
  9 23  1  0
M  END
