
     RDKit          3D

 19 21  0  0  0  0  0  0  0  0999 V2000
   -0.9746    0.7227    1.9142 O   0  0  0  0  0  0  0  0  0  0  0  0
   -0.8764    0.1270    0.6488 C   0  0  0  0  0  0  0  0  0  0  0  0
    0.3958    0.4473   -0.0712 C   0  0  0  0  0  0  0  0  0  0  0  0
    1.6703    0.0471    0.5785 C   0  0  0  0  0  0  0  0  0  0  0  0
    2.3095    0.0852   -0.7810 C   0  0  0  0  0  0  0  0  0  0  0  0
    1.0018   -0.6392   -0.8954 C   0  0  0  0  0  0  0  0  0  0  0  0
    1.3426   -1.2683    0.2907 O   0  0  0  0  0  0  0  0  0  0  0  0
   -2.1344    0.3434   -0.2041 C   0  0  0  0  0  0  0  0  0  0  0  0
   -1.7200   -1.0242    0.2832 C   0  0  0  0  0  0  0  0  0  0  0  0
   -0.9818    1.7035    1.7437 H   0  0  0  0  0  0  0  0  0  0  0  0
    0.4396    1.4124   -0.6020 H   0  0  0  0  0  0  0  0  0  0  0  0
    2.0709    0.3962    1.4360 H   0  0  0  0  0  0  0  0  0  0  0  0
    2.2960    1.0579   -1.2882 H   0  0  0  0  0  0  0  0  0  0  0  0
    3.2252   -0.5196   -0.9098 H   0  0  0  0  0  0  0  0  0  0  0  0
    0.6199   -1.0700   -1.7228 H   0  0  0  0  0  0  0  0  0  0  0  0
   -2.9972    0.8417    0.2472 H   0  0  0  0  0  0  0  0  0  0  0  0
   -2.0064    0.5512   -1.2781 H   0  0  0  0  0  0  0  0  0  0  0  0
   -2.3981   -1.4592    1.0233 H   0  0  0  0  0  0  0  0  0  0  0  0
   -1.2825   -1.7552   -0.4132 H   0  0  0  0  0  0  0  0  0  0  0  0
  1  2  1  0
  2  3  1  0
  3  4  1  0
  4  5  1  0
  5  6  1  0
  6  7  1  0
  2  8  1  0
  8  9  1  0
  9  2  1  0
  6  3  1  0
  7  4  1  0
  1 10  1  0
  3 11  1  0
  4 12  1  0
  5 13  1  0
  5 14  1  0
  6 15  1  0
  8 16  1  0
  8 17  1  0
  9 18  1  0
  9 19  1  0
M  END
