
     RDKit          3D

 16 17  0  0  0  0  0  0  0  0999 V2000
   -1.2707    1.4197    0.4238 O   0  0  0  0  0  0  0  0  0  0  0  0
   -0.4967    0.3604   -0.0339 C   0  0  0  0  0  0  0  0  0  0  0  0
    0.9740    0.6047   -0.1161 C   0  0  0  0  0  0  0  0  0  0  0  0
    1.9970   -0.1512    0.5153 C   0  0  0  0  0  0  0  0  0  0  0  0
    1.4908    0.9390    1.2387 O   0  0  0  0  0  0  0  0  0  0  0  0
   -0.9124   -0.9282    0.6415 C   0  0  0  0  0  0  0  0  0  0  0  0
   -2.0243   -0.9169   -0.2308 O   0  0  0  0  0  0  0  0  0  0  0  0
   -1.1444   -0.3394   -1.1771 C   0  0  0  0  0  0  0  0  0  0  0  0
   -0.9940    2.2153   -0.1263 H   0  0  0  0  0  0  0  0  0  0  0  0
    1.2526    1.4575   -0.7692 H   0  0  0  0  0  0  0  0  0  0  0  0
    3.0363   -0.0693    0.1341 H   0  0  0  0  0  0  0  0  0  0  0  0
    1.8101   -1.1665    0.9594 H   0  0  0  0  0  0  0  0  0  0  0  0
   -1.2051   -0.8043    1.7013 H   0  0  0  0  0  0  0  0  0  0  0  0
   -0.2543   -1.7748    0.4041 H   0  0  0  0  0  0  0  0  0  0  0  0
   -1.6837    0.3063   -1.9114 H   0  0  0  0  0  0  0  0  0  0  0  0
   -0.5752   -1.1525   -1.6532 H   0  0  0  0  0  0  0  0  0  0  0  0
  1  2  1  0
  2  3  1  0
  3  4  1  0
  4  5  1  0
  2  6  1  0
  6  7  1  0
  7  8  1  0
  8  2  1  0
  5  3  1  0
  1  9  1  0
  3 10  1  0
  4 11  1  0
  4 12  1  0
  6 13  1  0
  6 14  1  0
  8 15  1  0
  8 16  1  0
M  END
