
     RDKit          3D

 21 22  0  0  0  0  0  0  0  0999 V2000
   -0.1474    1.9667    0.3646 O   0  0  0  0  0  0  0  0  0  0  0  0
   -0.2850    0.6173    0.0951 C   0  0  0  0  0  0  0  0  0  0  0  0
    0.9353    0.1676   -0.6593 C   0  0  0  0  0  0  0  0  0  0  0  0
    2.2311    0.3651    0.0985 C   0  0  0  0  0  0  0  0  0  0  0  0
    1.7208   -1.0103   -0.2259 C   0  0  0  0  0  0  0  0  0  0  0  0
   -1.5675    0.2953   -0.6269 C   0  0  0  0  0  0  0  0  0  0  0  0
   -2.0749   -0.9001    0.1467 C   0  0  0  0  0  0  0  0  0  0  0  0
   -0.9983   -1.3661    0.8976 O   0  0  0  0  0  0  0  0  0  0  0  0
   -0.4464   -0.1737    1.3729 C   0  0  0  0  0  0  0  0  0  0  0  0
    0.5282    2.3852   -0.2495 H   0  0  0  0  0  0  0  0  0  0  0  0
    0.9353    0.3849   -1.7493 H   0  0  0  0  0  0  0  0  0  0  0  0
    2.1921    0.6903    1.1547 H   0  0  0  0  0  0  0  0  0  0  0  0
    3.1068    0.7726   -0.4471 H   0  0  0  0  0  0  0  0  0  0  0  0
    2.2554   -1.5992   -0.9983 H   0  0  0  0  0  0  0  0  0  0  0  0
    1.4040   -1.6304    0.6503 H   0  0  0  0  0  0  0  0  0  0  0  0
   -2.2616    1.1621   -0.4405 H   0  0  0  0  0  0  0  0  0  0  0  0
   -1.4504    0.1158   -1.6951 H   0  0  0  0  0  0  0  0  0  0  0  0
   -2.4443   -1.6378   -0.5832 H   0  0  0  0  0  0  0  0  0  0  0  0
   -2.9310   -0.6426    0.8018 H   0  0  0  0  0  0  0  0  0  0  0  0
    0.4777   -0.3173    1.9283 H   0  0  0  0  0  0  0  0  0  0  0  0
   -1.1799    0.3546    2.0300 H   0  0  0  0  0  0  0  0  0  0  0  0
  1  2  1  0
  2  3  1  0
  3  4  1  0
  4  5  1  0
  2  6  1  0
  6  7  1  0
  7  8  1  0
  8  9  1  0
  9  2  1  0
  5  3  1  0
  1 10  1  0
  3 11  1  0
  4 12  1  0
  4 13  1  0
  5 14  1  0
  5 15  1  0
  6 16  1  0
  6 17  1  0
  7 18  1  0
  7 19  1  0
  9 20  1  0
  9 21  1  0
M  END
