
     RDKit          3D

 21 22  0  0  0  0  0  0  0  0999 V2000
    0.3458   -0.2287   -1.7891 O   0  0  0  0  0  0  0  0  0  0  0  0
   -0.1262   -0.1347   -0.5045 C   0  0  0  0  0  0  0  0  0  0  0  0
    0.9142   -0.3894    0.5465 C   0  0  0  0  0  0  0  0  0  0  0  0
    2.0947    0.5881    0.4869 C   0  0  0  0  0  0  0  0  0  0  0  0
    2.2543   -0.9048    0.2256 C   0  0  0  0  0  0  0  0  0  0  0  0
   -0.7127    1.2383   -0.2573 C   0  0  0  0  0  0  0  0  0  0  0  0
   -1.9081    0.9878    0.5490 C   0  0  0  0  0  0  0  0  0  0  0  0
   -2.2470   -0.2833    0.5051 C   0  0  0  0  0  0  0  0  0  0  0  0
   -1.3142   -1.0624   -0.3451 C   0  0  0  0  0  0  0  0  0  0  0  0
   -0.4141   -0.0508   -2.4000 H   0  0  0  0  0  0  0  0  0  0  0  0
    0.5022   -0.6038    1.5474 H   0  0  0  0  0  0  0  0  0  0  0  0
    2.4305    0.9650    1.4934 H   0  0  0  0  0  0  0  0  0  0  0  0
    2.1549    1.2884   -0.3602 H   0  0  0  0  0  0  0  0  0  0  0  0
    2.7752   -1.5085    1.0119 H   0  0  0  0  0  0  0  0  0  0  0  0
    2.5843   -1.1403   -0.7973 H   0  0  0  0  0  0  0  0  0  0  0  0
   -0.9275    1.7295   -1.2379 H   0  0  0  0  0  0  0  0  0  0  0  0
    0.0080    1.8888    0.3102 H   0  0  0  0  0  0  0  0  0  0  0  0
   -2.4994    1.7235    1.1433 H   0  0  0  0  0  0  0  0  0  0  0  0
   -3.1048   -0.7724    1.0134 H   0  0  0  0  0  0  0  0  0  0  0  0
   -1.7974   -1.3055   -1.2979 H   0  0  0  0  0  0  0  0  0  0  0  0
   -1.0125   -2.0246    0.1565 H   0  0  0  0  0  0  0  0  0  0  0  0
  1  2  1  0
  2  3  1  0
  3  4  1  0
  4  5  1  0
  2  6  1  0
  6  7  1  0
  7  8  2  0
  8  9  1  0
  9  2  1  0
  5  3  1  0
  1 10  1  0
  3 11  1  0
  4 12  1  0
  4 13  1  0
  5 14  1  0
  5 15  1  0
  6 16  1  0
  6 17  1  0
  7 18  1  0
  8 19  1  0
  9 20  1  0
  9 21  1  0
M  END
