
     RDKit          3D

 21 23  0  0  0  0  0  0  0  0999 V2000
    1.5898    0.0496   -1.8323 O   0  0  0  0  0  0  0  0  0  0  0  0
    1.1545   -0.1173   -0.4986 C   0  0  0  0  0  0  0  0  0  0  0  0
   -0.0815    0.6585   -0.1806 C   0  0  0  0  0  0  0  0  0  0  0  0
   -1.3020    0.3294   -1.0007 C   0  0  0  0  0  0  0  0  0  0  0  0
   -2.0940    0.4658    0.3019 C   0  0  0  0  0  0  0  0  0  0  0  0
   -1.8317   -0.5991    1.2839 C   0  0  0  0  0  0  0  0  0  0  0  0
   -0.7599    0.3793    1.1115 C   0  0  0  0  0  0  0  0  0  0  0  0
    2.2360    0.0001    0.5883 C   0  0  0  0  0  0  0  0  0  0  0  0
    1.5876   -1.3067    0.2112 C   0  0  0  0  0  0  0  0  0  0  0  0
    1.3673    0.9561   -2.1334 H   0  0  0  0  0  0  0  0  0  0  0  0
    0.1364    1.7615   -0.3028 H   0  0  0  0  0  0  0  0  0  0  0  0
   -1.3780   -0.7284   -1.3314 H   0  0  0  0  0  0  0  0  0  0  0  0
   -1.5867    1.0665   -1.7679 H   0  0  0  0  0  0  0  0  0  0  0  0
   -2.6674    1.3653    0.4958 H   0  0  0  0  0  0  0  0  0  0  0  0
   -2.4121   -0.5587    2.2178 H   0  0  0  0  0  0  0  0  0  0  0  0
   -1.7795   -1.6372    0.8604 H   0  0  0  0  0  0  0  0  0  0  0  0
   -0.6280    1.1441    1.9043 H   0  0  0  0  0  0  0  0  0  0  0  0
    1.9402    0.3850    1.5755 H   0  0  0  0  0  0  0  0  0  0  0  0
    3.2609    0.2270    0.2897 H   0  0  0  0  0  0  0  0  0  0  0  0
    0.9614   -1.8490    0.9518 H   0  0  0  0  0  0  0  0  0  0  0  0
    2.2866   -1.9916   -0.3375 H   0  0  0  0  0  0  0  0  0  0  0  0
  1  2  1  0
  2  3  1  0
  3  4  1  0
  4  5  1  0
  5  6  1  0
  6  7  1  0
  2  8  1  0
  8  9  1  0
  9  2  1  0
  7  3  1  0
  7  5  1  0
  1 10  1  0
  3 11  1  0
  4 12  1  0
  4 13  1  0
  5 14  1  0
  6 15  1  0
  6 16  1  0
  7 17  1  0
  8 18  1  0
  8 19  1  0
  9 20  1  0
  9 21  1  0
M  END
