
     RDKit          3D

 21 22  0  0  0  0  0  0  0  0999 V2000
   -0.5375   -1.6257    0.1255 O   0  0  0  0  0  0  0  0  0  0  0  0
   -0.9601   -0.3145   -0.0831 C   0  0  0  0  0  0  0  0  0  0  0  0
   -0.1578    0.6182   -0.9204 C   0  0  0  0  0  0  0  0  0  0  0  0
    1.2320    0.8969   -0.4628 C   0  0  0  0  0  0  0  0  0  0  0  0
    2.0777   -0.3344   -0.4050 C   0  0  0  0  0  0  0  0  0  0  0  0
    2.0636   -0.0521    1.0617 C   0  0  0  0  0  0  0  0  0  0  0  0
    1.3914    1.1481    0.8886 O   0  0  0  0  0  0  0  0  0  0  0  0
   -1.8408    0.2108    1.0110 C   0  0  0  0  0  0  0  0  0  0  0  0
   -2.4653   -0.1496   -0.3066 C   0  0  0  0  0  0  0  0  0  0  0  0
   -1.1350   -2.2080   -0.4113 H   0  0  0  0  0  0  0  0  0  0  0  0
   -0.6974    1.6036   -0.9516 H   0  0  0  0  0  0  0  0  0  0  0  0
   -0.1791    0.2186   -1.9747 H   0  0  0  0  0  0  0  0  0  0  0  0
    1.7526    1.7156   -1.0464 H   0  0  0  0  0  0  0  0  0  0  0  0
    1.5945   -1.2999   -0.6371 H   0  0  0  0  0  0  0  0  0  0  0  0
    3.0689   -0.1986   -0.9031 H   0  0  0  0  0  0  0  0  0  0  0  0
    1.5258   -0.7854    1.7141 H   0  0  0  0  0  0  0  0  0  0  0  0
    3.1023    0.0731    1.4427 H   0  0  0  0  0  0  0  0  0  0  0  0
   -2.1188   -0.4527    1.8389 H   0  0  0  0  0  0  0  0  0  0  0  0
   -1.7897    1.2782    1.3034 H   0  0  0  0  0  0  0  0  0  0  0  0
   -2.8394    0.7106   -0.8782 H   0  0  0  0  0  0  0  0  0  0  0  0
   -3.0879   -1.0527   -0.4056 H   0  0  0  0  0  0  0  0  0  0  0  0
  1  2  1  0
  2  3  1  0
  3  4  1  0
  4  5  1  0
  5  6  1  0
  6  7  1  0
  2  8  1  0
  8  9  1  0
  9  2  1  0
  7  4  1  0
  1 10  1  0
  3 11  1  0
  3 12  1  0
  4 13  1  0
  5 14  1  0
  5 15  1  0
  6 16  1  0
  6 17  1  0
  8 18  1  0
  8 19  1  0
  9 20  1  0
  9 21  1  0
M  END
