
     RDKit          3D

 18 19  0  0  0  0  0  0  0  0999 V2000
    0.0359   -1.9492   -0.6727 O   0  0  0  0  0  0  0  0  0  0  0  0
    0.0249   -0.6614   -0.1383 C   0  0  0  0  0  0  0  0  0  0  0  0
    1.3485   -0.2904    0.4230 C   0  0  0  0  0  0  0  0  0  0  0  0
    2.1846    0.7731   -0.0664 C   0  0  0  0  0  0  0  0  0  0  0  0
    1.3096    1.0726    0.9800 O   0  0  0  0  0  0  0  0  0  0  0  0
   -0.7007    0.3649   -0.9324 C   0  0  0  0  0  0  0  0  0  0  0  0
   -1.6894    0.6122    0.2140 C   0  0  0  0  0  0  0  0  0  0  0  0
   -1.0571   -0.5367    0.9370 C   0  0  0  0  0  0  0  0  0  0  0  0
   -0.3528   -1.9307   -1.5892 H   0  0  0  0  0  0  0  0  0  0  0  0
    1.7717   -1.0293    1.1419 H   0  0  0  0  0  0  0  0  0  0  0  0
    1.9679    1.1859   -1.0804 H   0  0  0  0  0  0  0  0  0  0  0  0
    3.2569    0.7776    0.2342 H   0  0  0  0  0  0  0  0  0  0  0  0
   -0.1700    1.2654   -1.2361 H   0  0  0  0  0  0  0  0  0  0  0  0
   -1.2565   -0.0805   -1.7945 H   0  0  0  0  0  0  0  0  0  0  0  0
   -2.7527    0.4809   -0.0778 H   0  0  0  0  0  0  0  0  0  0  0  0
   -1.5559    1.6028    0.6854 H   0  0  0  0  0  0  0  0  0  0  0  0
   -0.6863   -0.2127    1.9232 H   0  0  0  0  0  0  0  0  0  0  0  0
   -1.6784   -1.4447    1.0490 H   0  0  0  0  0  0  0  0  0  0  0  0
  1  2  1  0
  2  3  1  0
  3  4  1  0
  4  5  1  0
  2  6  1  0
  6  7  1  0
  7  8  1  0
  8  2  1  0
  5  3  1  0
  1  9  1  0
  3 10  1  0
  4 11  1  0
  4 12  1  0
  6 13  1  0
  6 14  1  0
  7 15  1  0
  7 16  1  0
  8 17  1  0
  8 18  1  0
M  END
