
     RDKit          3D

 21 22  0  0  0  0  0  0  0  0999 V2000
   -1.7778    1.5474   -0.9304 O   0  0  0  0  0  0  0  0  0  0  0  0
   -1.3455    0.4272   -0.1846 C   0  0  0  0  0  0  0  0  0  0  0  0
    0.1221    0.1902   -0.1074 C   0  0  0  0  0  0  0  0  0  0  0  0
    1.0420    1.1372   -0.2546 C   0  0  0  0  0  0  0  0  0  0  0  0
    2.3869    0.5106   -0.1109 C   0  0  0  0  0  0  0  0  0  0  0  0
    2.0717   -0.6491    0.8048 C   0  0  0  0  0  0  0  0  0  0  0  0
    0.7690   -1.1265    0.1441 C   0  0  0  0  0  0  0  0  0  0  0  0
   -2.2013    0.1115    0.9954 C   0  0  0  0  0  0  0  0  0  0  0  0
   -2.2225   -0.7982   -0.2274 C   0  0  0  0  0  0  0  0  0  0  0  0
   -1.7417    2.3495   -0.3613 H   0  0  0  0  0  0  0  0  0  0  0  0
    0.8831    2.1935   -0.4469 H   0  0  0  0  0  0  0  0  0  0  0  0
    2.6782    0.0933   -1.1121 H   0  0  0  0  0  0  0  0  0  0  0  0
    3.1361    1.1957    0.2956 H   0  0  0  0  0  0  0  0  0  0  0  0
    1.8128   -0.2437    1.8172 H   0  0  0  0  0  0  0  0  0  0  0  0
    2.8288   -1.4279    0.8194 H   0  0  0  0  0  0  0  0  0  0  0  0
    1.0990   -1.6130   -0.8106 H   0  0  0  0  0  0  0  0  0  0  0  0
    0.1971   -1.7875    0.7842 H   0  0  0  0  0  0  0  0  0  0  0  0
   -1.7504   -0.2851    1.9274 H   0  0  0  0  0  0  0  0  0  0  0  0
   -3.1048    0.7332    1.1844 H   0  0  0  0  0  0  0  0  0  0  0  0
   -1.7184   -1.7868   -0.1451 H   0  0  0  0  0  0  0  0  0  0  0  0
   -3.1643   -0.7714   -0.8270 H   0  0  0  0  0  0  0  0  0  0  0  0
  1  2  1  0
  2  3  1  0
  3  4  2  0
  4  5  1  0
  5  6  1  0
  6  7  1  0
  2  8  1  0
  8  9  1  0
  9  2  1  0
  7  3  1  0
  1 10  1  0
  4 11  1  0
  5 12  1  0
  5 13  1  0
  6 14  1  0
  6 15  1  0
  7 16  1  0
  7 17  1  0
  8 18  1  0
  8 19  1  0
  9 20  1  0
  9 21  1  0
M  END
