
     RDKit          3D

 19 20  0  0  0  0  0  0  0  0999 V2000
   -0.4567    1.5998    0.2497 O   0  0  0  0  0  0  0  0  0  0  0  0
   -0.7788    0.2953   -0.0576 C   0  0  0  0  0  0  0  0  0  0  0  0
    0.2535   -0.4808   -0.8309 C   0  0  0  0  0  0  0  0  0  0  0  0
    1.5504   -0.6110   -0.1521 C   0  0  0  0  0  0  0  0  0  0  0  0
    2.4131    0.4570    0.2556 C   0  0  0  0  0  0  0  0  0  0  0  0
    2.6632   -0.2221   -1.0502 O   0  0  0  0  0  0  0  0  0  0  0  0
   -2.1762    0.1350   -0.5439 C   0  0  0  0  0  0  0  0  0  0  0  0
   -2.5481   -0.5574    0.6118 O   0  0  0  0  0  0  0  0  0  0  0  0
   -1.2535   -0.4804    1.1217 C   0  0  0  0  0  0  0  0  0  0  0  0
   -0.0354    2.0910   -0.4962 H   0  0  0  0  0  0  0  0  0  0  0  0
   -0.1902   -1.5099   -0.9723 H   0  0  0  0  0  0  0  0  0  0  0  0
    0.3601   -0.0764   -1.8559 H   0  0  0  0  0  0  0  0  0  0  0  0
    1.7404   -1.6138    0.3343 H   0  0  0  0  0  0  0  0  0  0  0  0
    3.2847    0.2409    0.8878 H   0  0  0  0  0  0  0  0  0  0  0  0
    2.2263    1.5274    0.0880 H   0  0  0  0  0  0  0  0  0  0  0  0
   -2.3078   -0.4462   -1.4854 H   0  0  0  0  0  0  0  0  0  0  0  0
   -2.7462    1.0858   -0.6395 H   0  0  0  0  0  0  0  0  0  0  0  0
   -1.1631    0.0861    2.0680 H   0  0  0  0  0  0  0  0  0  0  0  0
   -0.8356   -1.5203    1.2255 H   0  0  0  0  0  0  0  0  0  0  0  0
  1  2  1  0
  2  3  1  0
  3  4  1  0
  4  5  1  0
  5  6  1  0
  2  7  1  0
  7  8  1  0
  8  9  1  0
  9  2  1  0
  6  4  1  0
  1 10  1  0
  3 11  1  0
  3 12  1  0
  4 13  1  0
  5 14  1  0
  5 15  1  0
  7 16  1  0
  7 17  1  0
  9 18  1  0
  9 19  1  0
M  END
