
     RDKit          3D

 21 22  0  0  0  0  0  0  0  0999 V2000
   -1.9804    1.7370   -0.1193 O   0  0  0  0  0  0  0  0  0  0  0  0
   -1.6906    0.4440    0.2354 C   0  0  0  0  0  0  0  0  0  0  0  0
   -0.2751    0.0645    0.5963 C   0  0  0  0  0  0  0  0  0  0  0  0
    0.6140    0.2810   -0.4196 O   0  0  0  0  0  0  0  0  0  0  0  0
    1.8984   -0.0889   -0.0230 C   0  0  0  0  0  0  0  0  0  0  0  0
    2.8531   -0.7334   -0.8968 C   0  0  0  0  0  0  0  0  0  0  0  0
    2.9859    0.6147   -0.4373 C   0  0  0  0  0  0  0  0  0  0  0  0
   -2.7674   -0.4334    0.8376 C   0  0  0  0  0  0  0  0  0  0  0  0
   -2.4463   -0.6133   -0.5957 C   0  0  0  0  0  0  0  0  0  0  0  0
   -2.2542    2.3188    0.6120 H   0  0  0  0  0  0  0  0  0  0  0  0
    0.0191    0.7445    1.4434 H   0  0  0  0  0  0  0  0  0  0  0  0
   -0.2549   -1.0003    0.9149 H   0  0  0  0  0  0  0  0  0  0  0  0
    1.8930   -0.4788    1.0444 H   0  0  0  0  0  0  0  0  0  0  0  0
    2.2659   -1.6166   -1.1063 H   0  0  0  0  0  0  0  0  0  0  0  0
    3.5991   -0.7479   -1.6430 H   0  0  0  0  0  0  0  0  0  0  0  0
    3.8658    0.8048    0.2550 H   0  0  0  0  0  0  0  0  0  0  0  0
    2.8593    1.5374   -1.0844 H   0  0  0  0  0  0  0  0  0  0  0  0
   -2.4626   -1.2127    1.5630 H   0  0  0  0  0  0  0  0  0  0  0  0
   -3.6845    0.1213    1.1143 H   0  0  0  0  0  0  0  0  0  0  0  0
   -3.1730   -0.2541   -1.3433 H   0  0  0  0  0  0  0  0  0  0  0  0
   -1.8648   -1.4886   -0.9478 H   0  0  0  0  0  0  0  0  0  0  0  0
  1  2  1  0
  2  3  1  0
  3  4  1  0
  4  5  1  0
  5  6  1  0
  6  7  1  0
  2  8  1  0
  8  9  1  0
  9  2  1  0
  7  5  1  0
  1 10  1  0
  3 11  1  0
  3 12  1  0
  5 13  1  0
  6 14  1  0
  6 15  1  0
  7 16  1  0
  7 17  1  0
  8 18  1  0
  8 19  1  0
  9 20  1  0
  9 21  1  0
M  END
