
     RDKit          3D

 19 21  0  0  0  0  0  0  0  0999 V2000
    0.6026    1.7365    0.0278 O   0  0  0  0  0  0  0  0  0  0  0  0
    0.3985    0.4020   -0.2395 C   0  0  0  0  0  0  0  0  0  0  0  0
   -0.9685    0.1382   -0.7941 C   0  0  0  0  0  0  0  0  0  0  0  0
   -2.0923    0.5627    0.1655 C   0  0  0  0  0  0  0  0  0  0  0  0
   -1.8604   -0.8894   -0.2272 C   0  0  0  0  0  0  0  0  0  0  0  0
    0.8933   -0.5611    0.7937 C   0  0  0  0  0  0  0  0  0  0  0  0
    2.2752   -0.1111    0.4358 C   0  0  0  0  0  0  0  0  0  0  0  0
    1.5240   -0.3604   -0.8373 C   0  0  0  0  0  0  0  0  0  0  0  0
    1.0011   -1.4894   -0.2262 O   0  0  0  0  0  0  0  0  0  0  0  0
    0.2619    2.0222    0.9157 H   0  0  0  0  0  0  0  0  0  0  0  0
   -1.0820    0.3742   -1.8601 H   0  0  0  0  0  0  0  0  0  0  0  0
   -1.8359    0.7941    1.2040 H   0  0  0  0  0  0  0  0  0  0  0  0
   -2.9088    1.1153   -0.3437 H   0  0  0  0  0  0  0  0  0  0  0  0
   -1.5345   -1.5914    0.5700 H   0  0  0  0  0  0  0  0  0  0  0  0
   -2.6537   -1.3043   -0.8717 H   0  0  0  0  0  0  0  0  0  0  0  0
    0.5214   -0.7083    1.7171 H   0  0  0  0  0  0  0  0  0  0  0  0
    3.0947   -0.7888    0.6660 H   0  0  0  0  0  0  0  0  0  0  0  0
    2.4723    0.9567    0.6789 H   0  0  0  0  0  0  0  0  0  0  0  0
    1.8911   -0.2977   -1.7747 H   0  0  0  0  0  0  0  0  0  0  0  0
  1  2  1  0
  2  3  1  0
  3  4  1  0
  4  5  1  0
  2  6  1  0
  6  7  1  0
  7  8  1  0
  8  9  1  0
  8  2  1  0
  5  3  1  0
  9  6  1  0
  1 10  1  0
  3 11  1  0
  4 12  1  0
  4 13  1  0
  5 14  1  0
  5 15  1  0
  6 16  1  0
  7 17  1  0
  7 18  1  0
  8 19  1  0
M  END
