
     RDKit          3D

 18 19  0  0  0  0  0  0  0  0999 V2000
   -0.8476    1.5896    0.7594 O   0  0  0  0  0  0  0  0  0  0  0  0
   -0.6078    0.3130    0.2601 C   0  0  0  0  0  0  0  0  0  0  0  0
    0.7581   -0.1809    0.5537 C   0  0  0  0  0  0  0  0  0  0  0  0
    1.8891    0.6330    0.0078 C   0  0  0  0  0  0  0  0  0  0  0  0
    1.6447   -0.8144   -0.4156 C   0  0  0  0  0  0  0  0  0  0  0  0
   -1.7025   -0.6677    0.5104 C   0  0  0  0  0  0  0  0  0  0  0  0
   -1.6619   -1.0685   -0.8439 O   0  0  0  0  0  0  0  0  0  0  0  0
   -1.1018    0.1660   -1.1534 C   0  0  0  0  0  0  0  0  0  0  0  0
   -1.0356    1.5348    1.7355 H   0  0  0  0  0  0  0  0  0  0  0  0
    0.9143   -0.4817    1.6301 H   0  0  0  0  0  0  0  0  0  0  0  0
    1.6517    1.3633   -0.7999 H   0  0  0  0  0  0  0  0  0  0  0  0
    2.7518    0.8732    0.6336 H   0  0  0  0  0  0  0  0  0  0  0  0
    2.3858   -1.5751   -0.0807 H   0  0  0  0  0  0  0  0  0  0  0  0
    1.2838   -1.0100   -1.4454 H   0  0  0  0  0  0  0  0  0  0  0  0
   -2.6362   -0.1739    0.8083 H   0  0  0  0  0  0  0  0  0  0  0  0
   -1.4157   -1.5615    1.1218 H   0  0  0  0  0  0  0  0  0  0  0  0
   -0.3322    0.1672   -1.9412 H   0  0  0  0  0  0  0  0  0  0  0  0
   -1.9378    0.8935   -1.3403 H   0  0  0  0  0  0  0  0  0  0  0  0
  1  2  1  0
  2  3  1  0
  3  4  1  0
  4  5  1  0
  2  6  1  0
  6  7  1  0
  7  8  1  0
  8  2  1  0
  5  3  1  0
  1  9  1  0
  3 10  1  0
  4 11  1  0
  4 12  1  0
  5 13  1  0
  5 14  1  0
  6 15  1  0
  6 16  1  0
  8 17  1  0
  8 18  1  0
M  END
