
     RDKit          3D

 19 20  0  0  0  0  0  0  0  0999 V2000
   -2.9772   -0.7508    0.7928 O   0  0  0  0  0  0  0  0  0  0  0  0
   -2.0020    0.1502    0.3464 C   0  0  0  0  0  0  0  0  0  0  0  0
   -0.6283   -0.3475    0.2457 C   0  0  0  0  0  0  0  0  0  0  0  0
    0.5214   -0.7586    0.1616 C   0  0  0  0  0  0  0  0  0  0  0  0
    1.9024   -1.2318    0.0444 C   0  0  0  0  0  0  0  0  0  0  0  0
    2.9437   -0.2015   -0.2872 C   0  0  0  0  0  0  0  0  0  0  0  0
    2.8281   -0.7682    1.0990 C   0  0  0  0  0  0  0  0  0  0  0  0
   -2.2663    1.5701    0.5867 C   0  0  0  0  0  0  0  0  0  0  0  0
   -2.4661    1.1049   -0.7987 C   0  0  0  0  0  0  0  0  0  0  0  0
   -2.7421   -1.6888    0.5727 H   0  0  0  0  0  0  0  0  0  0  0  0
    2.0743   -2.2202   -0.4426 H   0  0  0  0  0  0  0  0  0  0  0  0
    3.8308   -0.4824   -0.8777 H   0  0  0  0  0  0  0  0  0  0  0  0
    2.6041    0.8331   -0.4835 H   0  0  0  0  0  0  0  0  0  0  0  0
    3.6140   -1.4586    1.4298 H   0  0  0  0  0  0  0  0  0  0  0  0
    2.4887   -0.0593    1.8596 H   0  0  0  0  0  0  0  0  0  0  0  0
   -1.4402    2.2975    0.7853 H   0  0  0  0  0  0  0  0  0  0  0  0
   -3.1809    1.8360    1.1830 H   0  0  0  0  0  0  0  0  0  0  0  0
   -1.6641    1.3153   -1.5555 H   0  0  0  0  0  0  0  0  0  0  0  0
   -3.4404    0.8606   -1.2283 H   0  0  0  0  0  0  0  0  0  0  0  0
  1  2  1  0
  2  3  1  0
  3  4  3  0
  4  5  1  0
  5  6  1  0
  6  7  1  0
  2  8  1  0
  8  9  1  0
  9  2  1  0
  7  5  1  0
  1 10  1  0
  5 11  1  0
  6 12  1  0
  6 13  1  0
  7 14  1  0
  7 15  1  0
  8 16  1  0
  8 17  1  0
  9 18  1  0
  9 19  1  0
M  END
