
     RDKit          3D

 23 24  0  0  0  0  0  0  0  0999 V2000
   -1.6084   -0.0227   -1.8015 O   0  0  0  0  0  0  0  0  0  0  0  0
   -1.4788   -0.0786   -0.4102 C   0  0  0  0  0  0  0  0  0  0  0  0
   -0.3528   -0.9610    0.0658 C   0  0  0  0  0  0  0  0  0  0  0  0
    0.9781   -0.4765   -0.4649 C   0  0  0  0  0  0  0  0  0  0  0  0
    1.2600    0.9505    0.0095 C   0  0  0  0  0  0  0  0  0  0  0  0
    2.6907    0.5028    0.2576 C   0  0  0  0  0  0  0  0  0  0  0  0
    2.1650   -0.9158    0.3659 C   0  0  0  0  0  0  0  0  0  0  0  0
   -2.0726    0.9665    0.4273 C   0  0  0  0  0  0  0  0  0  0  0  0
   -2.7932   -0.3244    0.3600 C   0  0  0  0  0  0  0  0  0  0  0  0
   -1.3213    0.8595   -2.1257 H   0  0  0  0  0  0  0  0  0  0  0  0
   -0.4974   -1.9910   -0.3503 H   0  0  0  0  0  0  0  0  0  0  0  0
   -0.3386   -1.0679    1.1681 H   0  0  0  0  0  0  0  0  0  0  0  0
    1.0811   -0.5999   -1.5450 H   0  0  0  0  0  0  0  0  0  0  0  0
    1.1136    1.6545   -0.8078 H   0  0  0  0  0  0  0  0  0  0  0  0
    0.6979    1.2179    0.9062 H   0  0  0  0  0  0  0  0  0  0  0  0
    3.3364    0.6396   -0.6511 H   0  0  0  0  0  0  0  0  0  0  0  0
    3.1324    0.8110    1.2057 H   0  0  0  0  0  0  0  0  0  0  0  0
    2.8347   -1.6441   -0.0891 H   0  0  0  0  0  0  0  0  0  0  0  0
    1.8522   -1.2164    1.3690 H   0  0  0  0  0  0  0  0  0  0  0  0
   -2.5672    1.8084   -0.1412 H   0  0  0  0  0  0  0  0  0  0  0  0
   -1.6538    1.3021    1.3776 H   0  0  0  0  0  0  0  0  0  0  0  0
   -3.6938   -0.4685   -0.2716 H   0  0  0  0  0  0  0  0  0  0  0  0
   -2.7643   -0.9461    1.2546 H   0  0  0  0  0  0  0  0  0  0  0  0
  1  2  1  0
  2  3  1  0
  3  4  1  0
  4  5  1  0
  5  6  1  0
  6  7  1  0
  2  8  1  0
  8  9  1  0
  9  2  1  0
  7  4  1  0
  1 10  1  0
  3 11  1  0
  3 12  1  0
  4 13  1  0
  5 14  1  0
  5 15  1  0
  6 16  1  0
  6 17  1  0
  7 18  1  0
  7 19  1  0
  8 20  1  0
  8 21  1  0
  9 22  1  0
  9 23  1  0
M  END
