
     RDKit          3D

 21 23  0  0  0  0  0  0  0  0999 V2000
   -1.0908    0.9697    1.7953 O   0  0  0  0  0  0  0  0  0  0  0  0
   -1.0602    0.3334    0.5566 C   0  0  0  0  0  0  0  0  0  0  0  0
   -0.1443   -0.8574    0.4823 C   0  0  0  0  0  0  0  0  0  0  0  0
    1.2987   -0.6723    0.7434 C   0  0  0  0  0  0  0  0  0  0  0  0
    2.0292    0.4833    0.1362 C   0  0  0  0  0  0  0  0  0  0  0  0
    1.6859   -0.0869   -1.2179 C   0  0  0  0  0  0  0  0  0  0  0  0
    0.7540   -1.0962   -0.6541 C   0  0  0  0  0  0  0  0  0  0  0  0
   -1.4754    1.1030   -0.6069 C   0  0  0  0  0  0  0  0  0  0  0  0
   -2.4682    0.1306   -0.0601 C   0  0  0  0  0  0  0  0  0  0  0  0
   -1.4828    0.3693    2.5036 H   0  0  0  0  0  0  0  0  0  0  0  0
   -0.5770   -1.7699    0.9547 H   0  0  0  0  0  0  0  0  0  0  0  0
    1.8870   -1.4815    1.2517 H   0  0  0  0  0  0  0  0  0  0  0  0
    1.5972    1.4773    0.2611 H   0  0  0  0  0  0  0  0  0  0  0  0
    3.1072    0.4967    0.3835 H   0  0  0  0  0  0  0  0  0  0  0  0
    2.6155   -0.5220   -1.6882 H   0  0  0  0  0  0  0  0  0  0  0  0
    1.2109    0.5948   -1.9227 H   0  0  0  0  0  0  0  0  0  0  0  0
    0.9639   -2.1430   -0.9604 H   0  0  0  0  0  0  0  0  0  0  0  0
   -1.7428    2.1840   -0.4426 H   0  0  0  0  0  0  0  0  0  0  0  0
   -1.1554    0.8874   -1.6481 H   0  0  0  0  0  0  0  0  0  0  0  0
   -3.3294    0.4577    0.5260 H   0  0  0  0  0  0  0  0  0  0  0  0
   -2.6233   -0.8578   -0.5579 H   0  0  0  0  0  0  0  0  0  0  0  0
  1  2  1  0
  2  3  1  0
  3  4  1  0
  4  5  1  0
  5  6  1  0
  6  7  1  0
  2  8  1  0
  8  9  1  0
  9  2  1  0
  7  3  1  0
  7  4  1  0
  1 10  1  0
  3 11  1  0
  4 12  1  0
  5 13  1  0
  5 14  1  0
  6 15  1  0
  6 16  1  0
  7 17  1  0
  8 18  1  0
  8 19  1  0
  9 20  1  0
  9 21  1  0
M  END
