
     RDKit          3D

 21 22  0  0  0  0  0  0  0  0999 V2000
    1.7960    0.9880   -1.3565 O   0  0  0  0  0  0  0  0  0  0  0  0
    1.1641    0.4135   -0.2361 C   0  0  0  0  0  0  0  0  0  0  0  0
   -0.3182    0.6080   -0.2367 C   0  0  0  0  0  0  0  0  0  0  0  0
   -1.0304    0.0203    0.9268 C   0  0  0  0  0  0  0  0  0  0  0  0
   -2.3543   -0.4293    0.3004 C   0  0  0  0  0  0  0  0  0  0  0  0
   -2.3348    0.0430   -1.0046 O   0  0  0  0  0  0  0  0  0  0  0  0
   -0.9992   -0.1050   -1.3954 C   0  0  0  0  0  0  0  0  0  0  0  0
    1.6893   -0.9439    0.1052 C   0  0  0  0  0  0  0  0  0  0  0  0
    1.9674    0.2615    0.9720 C   0  0  0  0  0  0  0  0  0  0  0  0
    1.7648    1.9709   -1.2372 H   0  0  0  0  0  0  0  0  0  0  0  0
   -0.6027    1.6768   -0.3271 H   0  0  0  0  0  0  0  0  0  0  0  0
   -0.5381   -0.8245    1.4013 H   0  0  0  0  0  0  0  0  0  0  0  0
   -1.2040    0.7904    1.7014 H   0  0  0  0  0  0  0  0  0  0  0  0
   -3.1951    0.0344    0.8621 H   0  0  0  0  0  0  0  0  0  0  0  0
   -2.3951   -1.5175    0.2653 H   0  0  0  0  0  0  0  0  0  0  0  0
   -0.7948   -1.1839   -1.4113 H   0  0  0  0  0  0  0  0  0  0  0  0
   -0.7875    0.3716   -2.3557 H   0  0  0  0  0  0  0  0  0  0  0  0
    1.0290   -1.7395    0.4730 H   0  0  0  0  0  0  0  0  0  0  0  0
    2.6007   -1.3228   -0.4112 H   0  0  0  0  0  0  0  0  0  0  0  0
    2.9974    0.7012    0.9774 H   0  0  0  0  0  0  0  0  0  0  0  0
    1.5454    0.1868    1.9869 H   0  0  0  0  0  0  0  0  0  0  0  0
  1  2  1  0
  2  3  1  0
  3  4  1  0
  4  5  1  0
  5  6  1  0
  6  7  1  0
  2  8  1  0
  8  9  1  0
  9  2  1  0
  7  3  1  0
  1 10  1  0
  3 11  1  0
  4 12  1  0
  4 13  1  0
  5 14  1  0
  5 15  1  0
  7 16  1  0
  7 17  1  0
  8 18  1  0
  8 19  1  0
  9 20  1  0
  9 21  1  0
M  END
