
     RDKit          3D

 21 22  0  0  0  0  0  0  0  0999 V2000
   -1.4759   -1.6136    0.5554 O   0  0  0  0  0  0  0  0  0  0  0  0
   -1.0403   -0.3578    0.1342 C   0  0  0  0  0  0  0  0  0  0  0  0
    0.3706   -0.0669    0.4742 C   0  0  0  0  0  0  0  0  0  0  0  0
    1.4326   -0.9590   -0.0676 C   0  0  0  0  0  0  0  0  0  0  0  0
    2.3388    0.2708   -0.0506 C   0  0  0  0  0  0  0  0  0  0  0  0
    1.0438    1.0772   -0.2018 C   0  0  0  0  0  0  0  0  0  0  0  0
   -2.0429    0.7094    0.4422 C   0  0  0  0  0  0  0  0  0  0  0  0
   -1.8134    1.2385   -0.8310 O   0  0  0  0  0  0  0  0  0  0  0  0
   -1.5093   -0.0643   -1.2471 C   0  0  0  0  0  0  0  0  0  0  0  0
   -0.7134   -2.0796    0.9762 H   0  0  0  0  0  0  0  0  0  0  0  0
    0.4924    0.0290    1.5884 H   0  0  0  0  0  0  0  0  0  0  0  0
    1.8093   -1.7570    0.5951 H   0  0  0  0  0  0  0  0  0  0  0  0
    1.3248   -1.2894   -1.1152 H   0  0  0  0  0  0  0  0  0  0  0  0
    2.8070    0.3616    0.9519 H   0  0  0  0  0  0  0  0  0  0  0  0
    3.0243    0.3487   -0.9126 H   0  0  0  0  0  0  0  0  0  0  0  0
    1.0845    2.0325    0.3618 H   0  0  0  0  0  0  0  0  0  0  0  0
    0.8394    1.1989   -1.2830 H   0  0  0  0  0  0  0  0  0  0  0  0
   -1.7982    1.3763    1.2812 H   0  0  0  0  0  0  0  0  0  0  0  0
   -3.0888    0.3516    0.4975 H   0  0  0  0  0  0  0  0  0  0  0  0
   -2.3927   -0.6602   -1.5654 H   0  0  0  0  0  0  0  0  0  0  0  0
   -0.6927   -0.1467   -1.9817 H   0  0  0  0  0  0  0  0  0  0  0  0
  1  2  1  0
  2  3  1  0
  3  4  1  0
  4  5  1  0
  5  6  1  0
  2  7  1  0
  7  8  1  0
  8  9  1  0
  9  2  1  0
  6  3  1  0
  1 10  1  0
  3 11  1  0
  4 12  1  0
  4 13  1  0
  5 14  1  0
  5 15  1  0
  6 16  1  0
  6 17  1  0
  7 18  1  0
  7 19  1  0
  9 20  1  0
  9 21  1  0
M  END
