
     RDKit          3D

 20 21  0  0  0  0  0  0  0  0999 V2000
    0.9726   -0.4831   -1.7172 O   0  0  0  0  0  0  0  0  0  0  0  0
    0.3646   -0.3255   -0.4729 C   0  0  0  0  0  0  0  0  0  0  0  0
   -1.1146   -0.3771   -0.5683 C   0  0  0  0  0  0  0  0  0  0  0  0
   -2.0172   -0.2400    0.5829 C   0  0  0  0  0  0  0  0  0  0  0  0
   -1.8344    0.9432   -0.3555 C   0  0  0  0  0  0  0  0  0  0  0  0
    1.0278   -1.1508    0.5824 C   0  0  0  0  0  0  0  0  0  0  0  0
    2.1151   -0.0622    0.5882 C   0  0  0  0  0  0  0  0  0  0  0  0
    0.9597    0.8830    0.2217 C   0  0  0  0  0  0  0  0  0  0  0  0
    0.4657    0.0903   -2.3459 H   0  0  0  0  0  0  0  0  0  0  0  0
   -1.5170   -0.9340   -1.4594 H   0  0  0  0  0  0  0  0  0  0  0  0
   -1.6534   -0.1610    1.6238 H   0  0  0  0  0  0  0  0  0  0  0  0
   -3.0253   -0.7347    0.5272 H   0  0  0  0  0  0  0  0  0  0  0  0
   -2.6554    1.2337   -1.0267 H   0  0  0  0  0  0  0  0  0  0  0  0
   -1.2559    1.8040    0.0292 H   0  0  0  0  0  0  0  0  0  0  0  0
    0.5000   -1.1761    1.5525 H   0  0  0  0  0  0  0  0  0  0  0  0
    1.4943   -2.0986    0.2597 H   0  0  0  0  0  0  0  0  0  0  0  0
    2.5612    0.1335    1.5599 H   0  0  0  0  0  0  0  0  0  0  0  0
    2.8024   -0.1831   -0.2766 H   0  0  0  0  0  0  0  0  0  0  0  0
    1.3333    1.6503   -0.4558 H   0  0  0  0  0  0  0  0  0  0  0  0
    0.4763    1.1880    1.1511 H   0  0  0  0  0  0  0  0  0  0  0  0
  1  2  1  0
  2  3  1  0
  3  4  1  0
  4  5  1  0
  2  6  1  0
  6  7  1  0
  7  8  1  0
  8  2  1  0
  5  3  1  0
  1  9  1  0
  3 10  1  0
  4 11  1  0
  4 12  1  0
  5 13  1  0
  5 14  1  0
  6 15  1  0
  6 16  1  0
  7 17  1  0
  7 18  1  0
  8 19  1  0
  8 20  1  0
M  END
