
     RDKit          3D

 19 20  0  0  0  0  0  0  0  0999 V2000
    1.4736   -1.9621   -0.5756 O   0  0  0  0  0  0  0  0  0  0  0  0
    1.0655   -0.7089   -0.1238 C   0  0  0  0  0  0  0  0  0  0  0  0
   -0.2919   -0.6084    0.5434 C   0  0  0  0  0  0  0  0  0  0  0  0
   -0.4840    0.7128    0.9064 O   0  0  0  0  0  0  0  0  0  0  0  0
   -1.5949    1.1850    0.2253 C   0  0  0  0  0  0  0  0  0  0  0  0
   -2.3855   -0.1011    0.0285 C   0  0  0  0  0  0  0  0  0  0  0  0
   -1.3288   -0.9906   -0.2739 O   0  0  0  0  0  0  0  0  0  0  0  0
    2.1096    0.1957    0.5244 C   0  0  0  0  0  0  0  0  0  0  0  0
    1.6288    0.4649   -0.8542 C   0  0  0  0  0  0  0  0  0  0  0  0
    1.1984   -2.1501   -1.4975 H   0  0  0  0  0  0  0  0  0  0  0  0
   -0.2629   -1.2624    1.4637 H   0  0  0  0  0  0  0  0  0  0  0  0
   -2.1181    1.8985    0.8921 H   0  0  0  0  0  0  0  0  0  0  0  0
   -1.3622    1.6139   -0.7643 H   0  0  0  0  0  0  0  0  0  0  0  0
   -2.7901   -0.4354    1.0013 H   0  0  0  0  0  0  0  0  0  0  0  0
   -3.1208   -0.0353   -0.7715 H   0  0  0  0  0  0  0  0  0  0  0  0
    1.8162    0.8487    1.3553 H   0  0  0  0  0  0  0  0  0  0  0  0
    3.0911   -0.2970    0.6476 H   0  0  0  0  0  0  0  0  0  0  0  0
    2.3480    0.2626   -1.6772 H   0  0  0  0  0  0  0  0  0  0  0  0
    1.0079    1.3690   -1.0499 H   0  0  0  0  0  0  0  0  0  0  0  0
  1  2  1  0
  2  3  1  0
  3  4  1  0
  4  5  1  0
  5  6  1  0
  6  7  1  0
  2  8  1  0
  8  9  1  0
  9  2  1  0
  7  3  1  0
  1 10  1  0
  3 11  1  0
  5 12  1  0
  5 13  1  0
  6 14  1  0
  6 15  1  0
  8 16  1  0
  8 17  1  0
  9 18  1  0
  9 19  1  0
M  END
