
     RDKit          3D

 21 22  0  0  0  0  0  0  0  0999 V2000
   -2.3513   -1.0378   -1.1068 O   0  0  0  0  0  0  0  0  0  0  0  0
   -1.4250   -0.3381   -0.3218 C   0  0  0  0  0  0  0  0  0  0  0  0
   -0.0257   -0.8215   -0.4690 C   0  0  0  0  0  0  0  0  0  0  0  0
    0.9958   -0.1199    0.3361 C   0  0  0  0  0  0  0  0  0  0  0  0
    0.8255   -0.1530    1.7308 O   0  0  0  0  0  0  0  0  0  0  0  0
    1.8509    0.9574   -0.1803 C   0  0  0  0  0  0  0  0  0  0  0  0
    2.4412   -0.4147   -0.1144 C   0  0  0  0  0  0  0  0  0  0  0  0
   -1.5880    1.1824   -0.4373 C   0  0  0  0  0  0  0  0  0  0  0  0
   -1.9252    0.4369    0.8030 C   0  0  0  0  0  0  0  0  0  0  0  0
   -2.6487   -1.8666   -0.6843 H   0  0  0  0  0  0  0  0  0  0  0  0
    0.0171   -1.9096   -0.2232 H   0  0  0  0  0  0  0  0  0  0  0  0
    0.2540   -0.7248   -1.5569 H   0  0  0  0  0  0  0  0  0  0  0  0
    1.1776   -1.0559    2.0128 H   0  0  0  0  0  0  0  0  0  0  0  0
    1.7544    1.3788   -1.1975 H   0  0  0  0  0  0  0  0  0  0  0  0
    2.2732    1.6842    0.5435 H   0  0  0  0  0  0  0  0  0  0  0  0
    3.1807   -0.6278    0.6759 H   0  0  0  0  0  0  0  0  0  0  0  0
    2.5982   -0.9653   -1.0390 H   0  0  0  0  0  0  0  0  0  0  0  0
   -0.6634    1.7903   -0.3946 H   0  0  0  0  0  0  0  0  0  0  0  0
   -2.3492    1.5860   -1.1083 H   0  0  0  0  0  0  0  0  0  0  0  0
   -1.3604    0.6734    1.7155 H   0  0  0  0  0  0  0  0  0  0  0  0
   -3.0316    0.3457    1.0160 H   0  0  0  0  0  0  0  0  0  0  0  0
  1  2  1  0
  2  3  1  0
  3  4  1  0
  4  5  1  0
  4  6  1  0
  6  7  1  0
  2  8  1  0
  8  9  1  0
  9  2  1  0
  7  4  1  0
  1 10  1  0
  3 11  1  0
  3 12  1  0
  5 13  1  0
  6 14  1  0
  6 15  1  0
  7 16  1  0
  7 17  1  0
  8 18  1  0
  8 19  1  0
  9 20  1  0
  9 21  1  0
M  END
