
     RDKit          3D

 17 19  0  0  0  0  0  0  0  0999 V2000
   -0.3652   -1.8867    0.5381 O   0  0  0  0  0  0  0  0  0  0  0  0
   -0.0833   -0.5529    0.2577 C   0  0  0  0  0  0  0  0  0  0  0  0
    1.3668   -0.1631    0.3569 C   0  0  0  0  0  0  0  0  0  0  0  0
    2.0396    0.5488   -0.7014 C   0  0  0  0  0  0  0  0  0  0  0  0
    2.1551   -0.9438   -0.5745 O   0  0  0  0  0  0  0  0  0  0  0  0
   -1.0356    0.3329    1.0289 C   0  0  0  0  0  0  0  0  0  0  0  0
   -1.9857    0.4045   -0.1345 C   0  0  0  0  0  0  0  0  0  0  0  0
   -2.0804   -0.5619   -1.0836 O   0  0  0  0  0  0  0  0  0  0  0  0
   -0.8008   -0.0786   -0.9847 C   0  0  0  0  0  0  0  0  0  0  0  0
   -0.8571   -1.9879    1.4092 H   0  0  0  0  0  0  0  0  0  0  0  0
    1.7894   -0.1527    1.3628 H   0  0  0  0  0  0  0  0  0  0  0  0
    3.0438    0.9749   -0.4839 H   0  0  0  0  0  0  0  0  0  0  0  0
    1.6354    0.7743   -1.6838 H   0  0  0  0  0  0  0  0  0  0  0  0
   -0.5493    1.3404    1.1554 H   0  0  0  0  0  0  0  0  0  0  0  0
   -1.4243   -0.1156    1.9536 H   0  0  0  0  0  0  0  0  0  0  0  0
   -2.4467    1.3635   -0.3611 H   0  0  0  0  0  0  0  0  0  0  0  0
   -0.4018    0.7039   -1.6123 H   0  0  0  0  0  0  0  0  0  0  0  0
  1  2  1  0
  2  3  1  0
  3  4  1  0
  4  5  1  0
  2  6  1  0
  6  7  1  0
  7  8  1  0
  8  9  1  0
  9  2  1  0
  5  3  1  0
  9  7  1  0
  1 10  1  0
  3 11  1  0
  4 12  1  0
  4 13  1  0
  6 14  1  0
  6 15  1  0
  7 16  1  0
  9 17  1  0
M  END
