
     RDKit          3D

 21 23  0  0  0  0  0  0  0  0999 V2000
    0.0754    1.4900   -0.3821 O   0  0  0  0  0  0  0  0  0  0  0  0
   -0.0607    0.1479   -0.2733 C   0  0  0  0  0  0  0  0  0  0  0  0
    1.2435   -0.5700   -0.1656 C   0  0  0  0  0  0  0  0  0  0  0  0
    2.0867   -0.1561    1.0497 C   0  0  0  0  0  0  0  0  0  0  0  0
    2.4617    0.3034   -0.3105 C   0  0  0  0  0  0  0  0  0  0  0  0
   -1.0681   -0.5186   -1.2283 C   0  0  0  0  0  0  0  0  0  0  0  0
   -2.0344    0.2868   -0.3606 C   0  0  0  0  0  0  0  0  0  0  0  0
   -2.3894    0.0794    0.9968 C   0  0  0  0  0  0  0  0  0  0  0  0
   -1.0771   -0.3792    0.7164 C   0  0  0  0  0  0  0  0  0  0  0  0
    0.1482    1.7543   -1.3325 H   0  0  0  0  0  0  0  0  0  0  0  0
    1.3163   -1.6374   -0.4490 H   0  0  0  0  0  0  0  0  0  0  0  0
    1.6266    0.5285    1.7899 H   0  0  0  0  0  0  0  0  0  0  0  0
    2.6630   -0.9757    1.5413 H   0  0  0  0  0  0  0  0  0  0  0  0
    2.3386    1.3758   -0.5575 H   0  0  0  0  0  0  0  0  0  0  0  0
    3.4028   -0.1262   -0.7152 H   0  0  0  0  0  0  0  0  0  0  0  0
   -1.1663   -1.5843   -1.0420 H   0  0  0  0  0  0  0  0  0  0  0  0
   -1.0245   -0.1705   -2.2566 H   0  0  0  0  0  0  0  0  0  0  0  0
   -1.8053    1.3745   -0.5847 H   0  0  0  0  0  0  0  0  0  0  0  0
   -3.2487   -0.6313    1.1915 H   0  0  0  0  0  0  0  0  0  0  0  0
   -2.4661    0.9238    1.7478 H   0  0  0  0  0  0  0  0  0  0  0  0
   -1.0223   -1.5150    0.6246 H   0  0  0  0  0  0  0  0  0  0  0  0
  1  2  1  0
  2  3  1  0
  3  4  1  0
  4  5  1  0
  2  6  1  0
  6  7  1  0
  7  8  1  0
  8  9  1  0
  9  2  1  0
  5  3  1  0
  9  7  1  0
  1 10  1  0
  3 11  1  0
  4 12  1  0
  4 13  1  0
  5 14  1  0
  5 15  1  0
  6 16  1  0
  6 17  1  0
  7 18  1  0
  8 19  1  0
  8 20  1  0
  9 21  1  0
M  END
