
     RDKit          3D

 19 20  0  0  0  0  0  0  0  0999 V2000
    0.1296   -0.8642    1.6431 O   0  0  0  0  0  0  0  0  0  0  0  0
    0.0669   -0.5719    0.2993 C   0  0  0  0  0  0  0  0  0  0  0  0
   -1.2904   -0.7222   -0.2887 C   0  0  0  0  0  0  0  0  0  0  0  0
   -1.8709    0.6746   -0.0131 C   0  0  0  0  0  0  0  0  0  0  0  0
   -0.6681    1.5597   -0.1140 C   0  0  0  0  0  0  0  0  0  0  0  0
    0.4382    0.8892    0.0553 C   0  0  0  0  0  0  0  0  0  0  0  0
    1.9203    0.8347    0.1157 C   0  0  0  0  0  0  0  0  0  0  0  0
    2.2917   -0.4911    0.0279 O   0  0  0  0  0  0  0  0  0  0  0  0
    1.1985   -1.1722   -0.5005 C   0  0  0  0  0  0  0  0  0  0  0  0
   -0.3293   -1.7031    1.8129 H   0  0  0  0  0  0  0  0  0  0  0  0
   -1.9251   -1.4861    0.1800 H   0  0  0  0  0  0  0  0  0  0  0  0
   -1.2685   -0.8718   -1.3789 H   0  0  0  0  0  0  0  0  0  0  0  0
   -2.3578    0.7097    0.9616 H   0  0  0  0  0  0  0  0  0  0  0  0
   -2.5535    0.9667   -0.8355 H   0  0  0  0  0  0  0  0  0  0  0  0
   -0.7362    2.6130   -0.3029 H   0  0  0  0  0  0  0  0  0  0  0  0
    2.4012    1.3670   -0.7296 H   0  0  0  0  0  0  0  0  0  0  0  0
    2.2294    1.3287    1.0465 H   0  0  0  0  0  0  0  0  0  0  0  0
    1.0517   -0.8121   -1.5565 H   0  0  0  0  0  0  0  0  0  0  0  0
    1.2721   -2.2485   -0.4225 H   0  0  0  0  0  0  0  0  0  0  0  0
  1  2  1  0
  2  3  1  0
  3  4  1  0
  4  5  1  0
  5  6  2  0
  6  7  1  0
  7  8  1  0
  8  9  1  0
  6  2  1  0
  9  2  1  0
  1 10  1  0
  3 11  1  0
  3 12  1  0
  4 13  1  0
  4 14  1  0
  5 15  1  0
  7 16  1  0
  7 17  1  0
  9 18  1  0
  9 19  1  0
M  END
