
     RDKit          3D

 18 19  0  0  0  0  0  0  0  0999 V2000
   -0.0700   -1.8012   -1.1390 O   0  0  0  0  0  0  0  0  0  0  0  0
   -0.1542   -0.7794   -0.2142 C   0  0  0  0  0  0  0  0  0  0  0  0
   -1.5553   -0.4891    0.1794 C   0  0  0  0  0  0  0  0  0  0  0  0
   -1.5398    0.8945    0.6648 C   0  0  0  0  0  0  0  0  0  0  0  0
   -0.4870    1.5037    0.1489 C   0  0  0  0  0  0  0  0  0  0  0  0
    0.3003    0.5864   -0.7275 C   0  0  0  0  0  0  0  0  0  0  0  0
    1.6508    0.3145   -0.1032 C   0  0  0  0  0  0  0  0  0  0  0  0
    0.9259   -0.6930    0.8004 C   0  0  0  0  0  0  0  0  0  0  0  0
    0.5880   -1.6568   -1.8404 H   0  0  0  0  0  0  0  0  0  0  0  0
   -1.9837   -1.2042    0.9069 H   0  0  0  0  0  0  0  0  0  0  0  0
   -2.1588   -0.4796   -0.7773 H   0  0  0  0  0  0  0  0  0  0  0  0
   -2.2369    1.4059    1.3344 H   0  0  0  0  0  0  0  0  0  0  0  0
   -0.1690    2.5471    0.3004 H   0  0  0  0  0  0  0  0  0  0  0  0
    0.2538    0.7509   -1.7963 H   0  0  0  0  0  0  0  0  0  0  0  0
    2.0199    1.2021    0.4438 H   0  0  0  0  0  0  0  0  0  0  0  0
    2.3593   -0.1516   -0.8149 H   0  0  0  0  0  0  0  0  0  0  0  0
    0.6903   -0.3328    1.7966 H   0  0  0  0  0  0  0  0  0  0  0  0
    1.5664   -1.6175    0.8370 H   0  0  0  0  0  0  0  0  0  0  0  0
  1  2  1  0
  2  3  1  0
  3  4  1  0
  4  5  2  0
  5  6  1  0
  6  7  1  0
  7  8  1  0
  6  2  1  0
  8  2  1  0
  1  9  1  0
  3 10  1  0
  3 11  1  0
  4 12  1  0
  5 13  1  0
  6 14  1  0
  7 15  1  0
  7 16  1  0
  8 17  1  0
  8 18  1  0
M  END
