
     RDKit          3D

 17 19  0  0  0  0  0  0  0  0999 V2000
   -2.2582    0.4874   -0.7458 O   0  0  0  0  0  0  0  0  0  0  0  0
   -0.9727    0.2038   -0.3009 C   0  0  0  0  0  0  0  0  0  0  0  0
   -0.1264   -0.8086   -0.9851 C   0  0  0  0  0  0  0  0  0  0  0  0
    0.9290   -1.1064    0.0910 C   0  0  0  0  0  0  0  0  0  0  0  0
    1.7692    0.1203    0.1432 C   0  0  0  0  0  0  0  0  0  0  0  0
    1.1292    1.2714    0.2672 C   0  0  0  0  0  0  0  0  0  0  0  0
   -0.3152    1.1738    0.5700 C   0  0  0  0  0  0  0  0  0  0  0  0
   -0.7488   -0.1034    1.1500 C   0  0  0  0  0  0  0  0  0  0  0  0
    0.1617   -1.1079    1.2494 O   0  0  0  0  0  0  0  0  0  0  0  0
   -2.6243   -0.3385   -1.1275 H   0  0  0  0  0  0  0  0  0  0  0  0
    0.3834   -0.3519   -1.8710 H   0  0  0  0  0  0  0  0  0  0  0  0
   -0.7200   -1.6903   -1.2250 H   0  0  0  0  0  0  0  0  0  0  0  0
    1.4751   -2.0210   -0.0973 H   0  0  0  0  0  0  0  0  0  0  0  0
    2.8382    0.0490    0.0815 H   0  0  0  0  0  0  0  0  0  0  0  0
    1.5611    2.2580    0.1685 H   0  0  0  0  0  0  0  0  0  0  0  0
   -0.8640    2.0783    0.8310 H   0  0  0  0  0  0  0  0  0  0  0  0
   -1.6171   -0.1140    1.8006 H   0  0  0  0  0  0  0  0  0  0  0  0
  1  2  1  0
  2  3  1  0
  3  4  1  0
  4  5  1  0
  5  6  2  0
  6  7  1  0
  7  8  1  0
  8  9  1  0
  7  2  1  0
  8  2  1  0
  9  4  1  0
  1 10  1  0
  3 11  1  0
  3 12  1  0
  4 13  1  0
  5 14  1  0
  6 15  1  0
  7 16  1  0
  8 17  1  0
M  END
