
     RDKit          3D

 19 21  0  0  0  0  0  0  0  0999 V2000
   -2.0686    1.5107   -0.4153 O   0  0  0  0  0  0  0  0  0  0  0  0
   -1.0789    0.5868    0.0918 C   0  0  0  0  0  0  0  0  0  0  0  0
   -1.7541   -0.7744    0.1450 C   0  0  0  0  0  0  0  0  0  0  0  0
   -0.5513   -1.6952    0.2389 C   0  0  0  0  0  0  0  0  0  0  0  0
    0.5301   -1.0736   -0.0045 C   0  0  0  0  0  0  0  0  0  0  0  0
    1.8929   -0.6135   -0.2308 C   0  0  0  0  0  0  0  0  0  0  0  0
    1.5935    0.7083    0.6376 C   0  0  0  0  0  0  0  0  0  0  0  0
    0.2106    1.1399    0.2458 C   0  0  0  0  0  0  0  0  0  0  0  0
   -0.0562    0.2085   -0.8434 C   0  0  0  0  0  0  0  0  0  0  0  0
   -2.6095    1.8411    0.3279 H   0  0  0  0  0  0  0  0  0  0  0  0
   -2.4547   -0.9022    0.9607 H   0  0  0  0  0  0  0  0  0  0  0  0
   -2.2009   -0.9646   -0.8478 H   0  0  0  0  0  0  0  0  0  0  0  0
   -0.6803   -2.7482    0.4894 H   0  0  0  0  0  0  0  0  0  0  0  0
    2.6677   -1.1720    0.3117 H   0  0  0  0  0  0  0  0  0  0  0  0
    2.1227   -0.3144   -1.2390 H   0  0  0  0  0  0  0  0  0  0  0  0
    1.7223    0.3787    1.6649 H   0  0  0  0  0  0  0  0  0  0  0  0
    2.3652    1.3893    0.2474 H   0  0  0  0  0  0  0  0  0  0  0  0
    0.2317    2.2876    0.0730 H   0  0  0  0  0  0  0  0  0  0  0  0
    0.1177    0.2071   -1.8534 H   0  0  0  0  0  0  0  0  0  0  0  0
  1  2  1  0
  2  3  1  0
  3  4  1  0
  4  5  2  0
  5  6  1  0
  6  7  1  0
  7  8  1  0
  8  9  1  0
  8  2  1  0
  9  2  1  0
  9  5  1  0
  1 10  1  0
  3 11  1  0
  3 12  1  0
  4 13  1  0
  6 14  1  0
  6 15  1  0
  7 16  1  0
  7 17  1  0
  8 18  1  0
  9 19  1  0
M  END
