
     RDKit          3D

 19 21  0  0  0  0  0  0  0  0999 V2000
    1.8189   -1.4292    0.8203 O   0  0  0  0  0  0  0  0  0  0  0  0
    0.7618   -0.6693    0.4144 C   0  0  0  0  0  0  0  0  0  0  0  0
    1.1259    0.2955   -0.7031 C   0  0  0  0  0  0  0  0  0  0  0  0
    0.1559    1.2809   -0.0291 C   0  0  0  0  0  0  0  0  0  0  0  0
   -1.1958    0.9568   -0.5803 C   0  0  0  0  0  0  0  0  0  0  0  0
   -1.5808   -0.4676   -0.3529 C   0  0  0  0  0  0  0  0  0  0  0  0
   -0.9953   -1.4737   -1.1447 O   0  0  0  0  0  0  0  0  0  0  0  0
   -0.5387   -1.3555    0.1520 C   0  0  0  0  0  0  0  0  0  0  0  0
    0.4718    0.5706    1.2608 C   0  0  0  0  0  0  0  0  0  0  0  0
    2.0914   -2.0050    0.0506 H   0  0  0  0  0  0  0  0  0  0  0  0
    2.1486    0.6593   -0.5741 H   0  0  0  0  0  0  0  0  0  0  0  0
    0.7948    0.0041   -1.7012 H   0  0  0  0  0  0  0  0  0  0  0  0
    0.4411    2.3264   -0.1086 H   0  0  0  0  0  0  0  0  0  0  0  0
   -1.1278    1.0986   -1.6991 H   0  0  0  0  0  0  0  0  0  0  0  0
   -2.0048    1.6052   -0.2445 H   0  0  0  0  0  0  0  0  0  0  0  0
   -2.6505   -0.7132   -0.1237 H   0  0  0  0  0  0  0  0  0  0  0  0
   -0.8336   -2.0839    0.9296 H   0  0  0  0  0  0  0  0  0  0  0  0
   -0.3300    0.4549    1.9822 H   0  0  0  0  0  0  0  0  0  0  0  0
    1.4471    0.9453    1.6515 H   0  0  0  0  0  0  0  0  0  0  0  0
  1  2  1  0
  2  3  1  0
  3  4  1  0
  4  5  1  0
  5  6  1  0
  6  7  1  0
  7  8  1  0
  4  9  1  0
  8  2  1  0
  9  2  1  0
  8  6  1  0
  1 10  1  0
  3 11  1  0
  3 12  1  0
  4 13  1  0
  5 14  1  0
  5 15  1  0
  6 16  1  0
  8 17  1  0
  9 18  1  0
  9 19  1  0
M  END
