
     RDKit          3D

 21 23  0  0  0  0  0  0  0  0999 V2000
   -1.4027    0.3186    1.5062 O   0  0  0  0  0  0  0  0  0  0  0  0
   -1.5033   -0.6225    0.4512 C   0  0  0  0  0  0  0  0  0  0  0  0
   -2.3466   -0.1748   -0.5940 C   0  0  0  0  0  0  0  0  0  0  0  0
   -0.9657   -0.1121   -0.9508 C   0  0  0  0  0  0  0  0  0  0  0  0
    0.2803   -0.0572   -0.1589 C   0  0  0  0  0  0  0  0  0  0  0  0
    1.5523   -0.1540   -0.9094 C   0  0  0  0  0  0  0  0  0  0  0  0
    2.1447    0.8026    0.1021 C   0  0  0  0  0  0  0  0  0  0  0  0
    0.7371    1.0107    0.6337 C   0  0  0  0  0  0  0  0  0  0  0  0
   -0.1985   -1.3741    0.3840 C   0  0  0  0  0  0  0  0  0  0  0  0
   -1.6770    1.2125    1.2672 H   0  0  0  0  0  0  0  0  0  0  0  0
   -3.1035   -0.9374   -0.9588 H   0  0  0  0  0  0  0  0  0  0  0  0
   -2.8803    0.8246   -0.5704 H   0  0  0  0  0  0  0  0  0  0  0  0
   -0.7657   -0.9516   -1.7001 H   0  0  0  0  0  0  0  0  0  0  0  0
    1.9820   -1.1800   -0.8755 H   0  0  0  0  0  0  0  0  0  0  0  0
    1.5264    0.2404   -1.9465 H   0  0  0  0  0  0  0  0  0  0  0  0
    2.5764    1.6814   -0.4118 H   0  0  0  0  0  0  0  0  0  0  0  0
    2.8191    0.2788    0.8005 H   0  0  0  0  0  0  0  0  0  0  0  0
    0.8029    0.9940    1.7445 H   0  0  0  0  0  0  0  0  0  0  0  0
    0.3810    2.0212    0.3388 H   0  0  0  0  0  0  0  0  0  0  0  0
    0.1873   -1.6679    1.3563 H   0  0  0  0  0  0  0  0  0  0  0  0
   -0.1463   -2.1535   -0.4203 H   0  0  0  0  0  0  0  0  0  0  0  0
  1  2  1  0
  2  3  1  0
  3  4  1  0
  4  5  1  0
  5  6  1  0
  6  7  1  0
  7  8  1  0
  5  9  1  0
  4  2  1  0
  8  5  1  0
  9  2  1  0
  1 10  1  0
  3 11  1  0
  3 12  1  0
  4 13  1  0
  6 14  1  0
  6 15  1  0
  7 16  1  0
  7 17  1  0
  8 18  1  0
  8 19  1  0
  9 20  1  0
  9 21  1  0
M  END
