
     RDKit          3D

 19 21  0  0  0  0  0  0  0  0999 V2000
    1.5438   -1.4488    0.7698 O   0  0  0  0  0  0  0  0  0  0  0  0
    1.0940   -0.2544    0.2887 C   0  0  0  0  0  0  0  0  0  0  0  0
    2.0168    0.9048    0.0500 C   0  0  0  0  0  0  0  0  0  0  0  0
    1.6575    0.0967   -1.1204 C   0  0  0  0  0  0  0  0  0  0  0  0
    0.3829   -0.0555   -1.5889 O   0  0  0  0  0  0  0  0  0  0  0  0
   -0.2290   -0.0998   -0.3800 C   0  0  0  0  0  0  0  0  0  0  0  0
   -1.0724    1.0655    0.0281 C   0  0  0  0  0  0  0  0  0  0  0  0
   -2.1764    0.0578    0.3617 C   0  0  0  0  0  0  0  0  0  0  0  0
   -1.2813   -1.0937   -0.1178 C   0  0  0  0  0  0  0  0  0  0  0  0
    1.5013   -1.5815    1.7284 H   0  0  0  0  0  0  0  0  0  0  0  0
    3.0543    0.8912    0.3744 H   0  0  0  0  0  0  0  0  0  0  0  0
    1.5107    1.8996    0.2211 H   0  0  0  0  0  0  0  0  0  0  0  0
    2.4102   -0.5605   -1.5419 H   0  0  0  0  0  0  0  0  0  0  0  0
   -1.3615    1.6507   -0.8908 H   0  0  0  0  0  0  0  0  0  0  0  0
   -0.7247    1.6674    0.8712 H   0  0  0  0  0  0  0  0  0  0  0  0
   -2.3528    0.0786    1.4422 H   0  0  0  0  0  0  0  0  0  0  0  0
   -3.0877    0.1936   -0.2554 H   0  0  0  0  0  0  0  0  0  0  0  0
   -1.1365   -1.7984    0.7367 H   0  0  0  0  0  0  0  0  0  0  0  0
   -1.7491   -1.6134   -0.9772 H   0  0  0  0  0  0  0  0  0  0  0  0
  1  2  1  0
  2  3  1  0
  3  4  1  0
  4  5  1  0
  5  6  1  0
  6  7  1  0
  7  8  1  0
  8  9  1  0
  4  2  1  0
  9  6  1  0
  6  2  1  0
  1 10  1  0
  3 11  1  0
  3 12  1  0
  4 13  1  0
  7 14  1  0
  7 15  1  0
  8 16  1  0
  8 17  1  0
  9 18  1  0
  9 19  1  0
M  END
