
     RDKit          3D

 17 19  0  0  0  0  0  0  0  0999 V2000
   -1.3778   -0.7682    1.4561 O   0  0  0  0  0  0  0  0  0  0  0  0
   -1.1957    0.0698    0.3964 C   0  0  0  0  0  0  0  0  0  0  0  0
   -1.9781   -0.1043   -0.8854 C   0  0  0  0  0  0  0  0  0  0  0  0
   -0.7496   -0.3052   -1.5329 O   0  0  0  0  0  0  0  0  0  0  0  0
    0.0025    0.0246   -0.4343 C   0  0  0  0  0  0  0  0  0  0  0  0
    1.2119   -0.7952   -0.1076 C   0  0  0  0  0  0  0  0  0  0  0  0
    2.4901   -0.1060    0.0807 C   0  0  0  0  0  0  0  0  0  0  0  0
    2.1602   -0.7342   -1.2460 O   0  0  0  0  0  0  0  0  0  0  0  0
   -0.2587    1.2100    0.3973 C   0  0  0  0  0  0  0  0  0  0  0  0
   -2.0426   -0.4698    2.1130 H   0  0  0  0  0  0  0  0  0  0  0  0
   -2.3668    0.8969   -1.2051 H   0  0  0  0  0  0  0  0  0  0  0  0
   -2.6799   -0.9331   -0.9163 H   0  0  0  0  0  0  0  0  0  0  0  0
    1.1326   -1.8217    0.2626 H   0  0  0  0  0  0  0  0  0  0  0  0
    2.5945    0.9711   -0.1076 H   0  0  0  0  0  0  0  0  0  0  0  0
    3.3384   -0.6765    0.5341 H   0  0  0  0  0  0  0  0  0  0  0  0
    0.4044    1.3871    1.2395 H   0  0  0  0  0  0  0  0  0  0  0  0
   -0.6854    2.1547   -0.0445 H   0  0  0  0  0  0  0  0  0  0  0  0
  1  2  1  0
  2  3  1  0
  3  4  1  0
  4  5  1  0
  5  6  1  0
  6  7  1  0
  7  8  1  0
  5  9  1  0
  5  2  1  0
  8  6  1  0
  9  2  1  0
  1 10  1  0
  3 11  1  0
  3 12  1  0
  6 13  1  0
  7 14  1  0
  7 15  1  0
  9 16  1  0
  9 17  1  0
M  END
