
     RDKit          3D

 21 22  0  0  0  0  0  0  0  0999 V2000
   -1.0888   -0.2096    1.7577 O   0  0  0  0  0  0  0  0  0  0  0  0
   -0.6125    0.2559    0.5174 C   0  0  0  0  0  0  0  0  0  0  0  0
    0.6101    1.0784    0.6298 C   0  0  0  0  0  0  0  0  0  0  0  0
    1.8007    0.5650   -0.1161 C   0  0  0  0  0  0  0  0  0  0  0  0
    1.8433   -0.9369   -0.2625 C   0  0  0  0  0  0  0  0  0  0  0  0
    0.5699   -1.4065   -0.8781 C   0  0  0  0  0  0  0  0  0  0  0  0
   -0.5503   -0.8295   -0.4916 C   0  0  0  0  0  0  0  0  0  0  0  0
   -2.0194   -0.6953   -0.5722 C   0  0  0  0  0  0  0  0  0  0  0  0
   -1.7693    0.7978   -0.2963 C   0  0  0  0  0  0  0  0  0  0  0  0
   -0.9194    0.4462    2.4750 H   0  0  0  0  0  0  0  0  0  0  0  0
    0.8799    1.1918    1.7002 H   0  0  0  0  0  0  0  0  0  0  0  0
    0.4022    2.1146    0.2607 H   0  0  0  0  0  0  0  0  0  0  0  0
    2.7189    0.8679    0.4295 H   0  0  0  0  0  0  0  0  0  0  0  0
    1.8407    1.0406   -1.1046 H   0  0  0  0  0  0  0  0  0  0  0  0
    2.0276   -1.4431    0.6939 H   0  0  0  0  0  0  0  0  0  0  0  0
    2.6782   -1.1650   -0.9577 H   0  0  0  0  0  0  0  0  0  0  0  0
    0.6133   -2.2031   -1.6185 H   0  0  0  0  0  0  0  0  0  0  0  0
   -2.4933   -0.9004   -1.5303 H   0  0  0  0  0  0  0  0  0  0  0  0
   -2.4950   -1.1229    0.3314 H   0  0  0  0  0  0  0  0  0  0  0  0
   -1.4721    1.2692   -1.2454 H   0  0  0  0  0  0  0  0  0  0  0  0
   -2.5647    1.2850    0.2778 H   0  0  0  0  0  0  0  0  0  0  0  0
  1  2  1  0
  2  3  1  0
  3  4  1  0
  4  5  1  0
  5  6  1  0
  6  7  2  0
  7  8  1  0
  8  9  1  0
  7  2  1  0
  9  2  1  0
  1 10  1  0
  3 11  1  0
  3 12  1  0
  4 13  1  0
  4 14  1  0
  5 15  1  0
  5 16  1  0
  6 17  1  0
  8 18  1  0
  8 19  1  0
  9 20  1  0
  9 21  1  0
M  END
