
     RDKit          3D

 19 21  0  0  0  0  0  0  0  0999 V2000
    1.6326    1.3680   -1.2416 O   0  0  0  0  0  0  0  0  0  0  0  0
    0.9498    0.5571   -0.3607 C   0  0  0  0  0  0  0  0  0  0  0  0
    1.5760   -0.7012    0.0822 C   0  0  0  0  0  0  0  0  0  0  0  0
    0.4072   -0.7785   -0.8260 C   0  0  0  0  0  0  0  0  0  0  0  0
   -0.9880   -0.8012   -0.2760 C   0  0  0  0  0  0  0  0  0  0  0  0
   -0.9025   -0.8000    1.2373 C   0  0  0  0  0  0  0  0  0  0  0  0
   -0.3803    0.4415    1.5891 O   0  0  0  0  0  0  0  0  0  0  0  0
   -0.1998    1.1690    0.4254 C   0  0  0  0  0  0  0  0  0  0  0  0
   -1.3654    0.6812   -0.4526 C   0  0  0  0  0  0  0  0  0  0  0  0
    2.3538    1.8227   -0.7024 H   0  0  0  0  0  0  0  0  0  0  0  0
    1.5248   -1.0514    1.1378 H   0  0  0  0  0  0  0  0  0  0  0  0
    2.5538   -0.9368   -0.3895 H   0  0  0  0  0  0  0  0  0  0  0  0
    0.5188   -1.1062   -1.8524 H   0  0  0  0  0  0  0  0  0  0  0  0
   -1.6796   -1.4844   -0.7101 H   0  0  0  0  0  0  0  0  0  0  0  0
   -1.9422   -0.8222    1.6591 H   0  0  0  0  0  0  0  0  0  0  0  0
   -0.3571   -1.6489    1.6478 H   0  0  0  0  0  0  0  0  0  0  0  0
   -0.1622    2.2307    0.5377 H   0  0  0  0  0  0  0  0  0  0  0  0
   -1.2076    0.9639   -1.4876 H   0  0  0  0  0  0  0  0  0  0  0  0
   -2.3321    0.8967   -0.0176 H   0  0  0  0  0  0  0  0  0  0  0  0
  1  2  1  0
  2  3  1  0
  3  4  1  0
  4  5  1  0
  5  6  1  0
  6  7  1  0
  7  8  1  0
  8  9  1  0
  4  2  1  0
  9  5  1  0
  8  2  1  0
  1 10  1  0
  3 11  1  0
  3 12  1  0
  4 13  1  0
  5 14  1  0
  6 15  1  0
  6 16  1  0
  8 17  1  0
  9 18  1  0
  9 19  1  0
M  END
