
     RDKit          3D

 21 22  0  0  0  0  0  0  0  0999 V2000
   -1.7514   -1.1398    1.2783 O   0  0  0  0  0  0  0  0  0  0  0  0
   -0.8616   -0.5560    0.4194 C   0  0  0  0  0  0  0  0  0  0  0  0
    0.4243   -1.2787    0.2865 C   0  0  0  0  0  0  0  0  0  0  0  0
    1.6036   -0.5188   -0.1367 C   0  0  0  0  0  0  0  0  0  0  0  0
    1.4466    0.9358   -0.3696 C   0  0  0  0  0  0  0  0  0  0  0  0
   -0.0162    1.2967   -0.6192 C   0  0  0  0  0  0  0  0  0  0  0  0
   -0.6797    0.9391    0.7184 C   0  0  0  0  0  0  0  0  0  0  0  0
   -0.4981    0.4295   -1.5560 O   0  0  0  0  0  0  0  0  0  0  0  0
   -1.4372   -0.4016   -0.9986 C   0  0  0  0  0  0  0  0  0  0  0  0
   -1.6633   -0.6785    2.1676 H   0  0  0  0  0  0  0  0  0  0  0  0
    0.5968   -1.8340    1.2560 H   0  0  0  0  0  0  0  0  0  0  0  0
    0.2538   -2.1149   -0.4564 H   0  0  0  0  0  0  0  0  0  0  0  0
    2.0871   -0.9543   -1.0617 H   0  0  0  0  0  0  0  0  0  0  0  0
    2.4076   -0.6397    0.6496 H   0  0  0  0  0  0  0  0  0  0  0  0
    1.7250    1.5082    0.5653 H   0  0  0  0  0  0  0  0  0  0  0  0
    2.1064    1.3498   -1.1580 H   0  0  0  0  0  0  0  0  0  0  0  0
   -0.1595    2.3318   -0.8960 H   0  0  0  0  0  0  0  0  0  0  0  0
   -0.0154    1.1185    1.5580 H   0  0  0  0  0  0  0  0  0  0  0  0
   -1.6401    1.4341    0.7301 H   0  0  0  0  0  0  0  0  0  0  0  0
   -1.5251   -1.3850   -1.4520 H   0  0  0  0  0  0  0  0  0  0  0  0
   -2.4036    0.1577   -0.9251 H   0  0  0  0  0  0  0  0  0  0  0  0
  1  2  1  0
  2  3  1  0
  3  4  1  0
  4  5  1  0
  5  6  1  0
  6  7  1  0
  6  8  1  0
  8  9  1  0
  7  2  1  0
  9  2  1  0
  1 10  1  0
  3 11  1  0
  3 12  1  0
  4 13  1  0
  4 14  1  0
  5 15  1  0
  5 16  1  0
  6 17  1  0
  7 18  1  0
  7 19  1  0
  9 20  1  0
  9 21  1  0
M  END
