
     RDKit          3D

 19 21  0  0  0  0  0  0  0  0999 V2000
    2.1037    1.0164   -0.8118 O   0  0  0  0  0  0  0  0  0  0  0  0
    1.0146    0.3987   -0.3783 C   0  0  0  0  0  0  0  0  0  0  0  0
    0.7885   -1.0617   -0.7994 C   0  0  0  0  0  0  0  0  0  0  0  0
   -0.0933   -1.0689    0.4623 C   0  0  0  0  0  0  0  0  0  0  0  0
    0.9838   -0.1613    1.0357 C   0  0  0  0  0  0  0  0  0  0  0  0
   -1.1935   -0.1612    0.0779 C   0  0  0  0  0  0  0  0  0  0  0  0
   -2.1897   -0.7349   -0.7116 O   0  0  0  0  0  0  0  0  0  0  0  0
   -1.3004    1.2488    0.4594 C   0  0  0  0  0  0  0  0  0  0  0  0
   -0.3513    0.9596   -0.6282 C   0  0  0  0  0  0  0  0  0  0  0  0
    2.6899    1.3314   -0.0665 H   0  0  0  0  0  0  0  0  0  0  0  0
    1.6662   -1.7012   -0.7316 H   0  0  0  0  0  0  0  0  0  0  0  0
    0.1702   -1.1022   -1.6989 H   0  0  0  0  0  0  0  0  0  0  0  0
   -0.2649   -2.0101    0.9260 H   0  0  0  0  0  0  0  0  0  0  0  0
    1.8972   -0.7636    1.2238 H   0  0  0  0  0  0  0  0  0  0  0  0
    0.6806    0.5184    1.8237 H   0  0  0  0  0  0  0  0  0  0  0  0
   -2.7717   -1.2349   -0.0850 H   0  0  0  0  0  0  0  0  0  0  0  0
   -2.2441    1.7561    0.1237 H   0  0  0  0  0  0  0  0  0  0  0  0
   -0.9780    1.6411    1.4515 H   0  0  0  0  0  0  0  0  0  0  0  0
   -0.6078    1.1295   -1.6727 H   0  0  0  0  0  0  0  0  0  0  0  0
  1  2  1  0
  2  3  1  0
  3  4  1  0
  4  5  1  0
  4  6  1  0
  6  7  1  0
  6  8  1  0
  8  9  1  0
  5  2  1  0
  9  6  1  0
  9  2  1  0
  1 10  1  0
  3 11  1  0
  3 12  1  0
  4 13  1  0
  5 14  1  0
  5 15  1  0
  7 16  1  0
  8 17  1  0
  8 18  1  0
  9 19  1  0
M  END
