
     RDKit          3D

 16 18  0  0  0  0  0  0  0  0999 V2000
   -0.5503   -1.8781   -0.6706 O   0  0  0  0  0  0  0  0  0  0  0  0
   -0.4055   -0.5242   -0.4369 C   0  0  0  0  0  0  0  0  0  0  0  0
   -1.4682    0.3987   -0.8477 C   0  0  0  0  0  0  0  0  0  0  0  0
   -1.1915    0.1963    0.5827 C   0  0  0  0  0  0  0  0  0  0  0  0
    0.0986    0.8548    1.0824 C   0  0  0  0  0  0  0  0  0  0  0  0
    0.8586   -0.0384    0.1881 C   0  0  0  0  0  0  0  0  0  0  0  0
    2.0619    0.0956   -0.4417 C   0  0  0  0  0  0  0  0  0  0  0  0
    1.8072   -0.9206    0.6154 O   0  0  0  0  0  0  0  0  0  0  0  0
   -1.2745   -2.3097   -0.1917 H   0  0  0  0  0  0  0  0  0  0  0  0
   -1.2466    1.4167   -1.2744 H   0  0  0  0  0  0  0  0  0  0  0  0
   -2.3569   -0.0512   -1.3279 H   0  0  0  0  0  0  0  0  0  0  0  0
   -1.8629   -0.2801    1.2876 H   0  0  0  0  0  0  0  0  0  0  0  0
    0.2677    0.7532    2.1601 H   0  0  0  0  0  0  0  0  0  0  0  0
    0.0507    1.9366    0.7787 H   0  0  0  0  0  0  0  0  0  0  0  0
    2.8837    0.7978   -0.1328 H   0  0  0  0  0  0  0  0  0  0  0  0
    2.3276   -0.4475   -1.3712 H   0  0  0  0  0  0  0  0  0  0  0  0
  1  2  1  0
  2  3  1  0
  3  4  1  0
  4  5  1  0
  5  6  1  0
  6  7  1  0
  7  8  1  0
  4  2  1  0
  8  6  1  0
  6  2  1  0
  1  9  1  0
  3 10  1  0
  3 11  1  0
  4 12  1  0
  5 13  1  0
  5 14  1  0
  7 15  1  0
  7 16  1  0
M  END
