
     RDKit          3D

 19 21  0  0  0  0  0  0  0  0999 V2000
   -0.7844   -1.8578    0.8672 O   0  0  0  0  0  0  0  0  0  0  0  0
   -0.5842   -0.7454    0.0645 C   0  0  0  0  0  0  0  0  0  0  0  0
   -1.6477   -0.3106   -0.8690 C   0  0  0  0  0  0  0  0  0  0  0  0
   -1.5326    0.4474    0.4143 C   0  0  0  0  0  0  0  0  0  0  0  0
   -0.5616    1.5789    0.5625 C   0  0  0  0  0  0  0  0  0  0  0  0
    0.5651    0.9231    1.1088 O   0  0  0  0  0  0  0  0  0  0  0  0
    0.7359   -0.0877    0.1646 C   0  0  0  0  0  0  0  0  0  0  0  0
    1.6165    0.2083   -0.9585 C   0  0  0  0  0  0  0  0  0  0  0  0
    1.9757   -0.8580    0.0495 C   0  0  0  0  0  0  0  0  0  0  0  0
   -0.7097   -1.5369    1.8101 H   0  0  0  0  0  0  0  0  0  0  0  0
   -1.2802    0.1367   -1.8234 H   0  0  0  0  0  0  0  0  0  0  0  0
   -2.5340   -0.9885   -0.9104 H   0  0  0  0  0  0  0  0  0  0  0  0
   -2.2578    0.2877    1.2067 H   0  0  0  0  0  0  0  0  0  0  0  0
   -0.9079    2.4022    1.1887 H   0  0  0  0  0  0  0  0  0  0  0  0
   -0.2911    1.9151   -0.4682 H   0  0  0  0  0  0  0  0  0  0  0  0
    1.3597   -0.0931   -1.9985 H   0  0  0  0  0  0  0  0  0  0  0  0
    2.2351    1.1507   -0.9107 H   0  0  0  0  0  0  0  0  0  0  0  0
    1.8479   -1.9194   -0.3108 H   0  0  0  0  0  0  0  0  0  0  0  0
    2.7551   -0.6527    0.8125 H   0  0  0  0  0  0  0  0  0  0  0  0
  1  2  1  0
  2  3  1  0
  3  4  1  0
  4  5  1  0
  5  6  1  0
  6  7  1  0
  7  8  1  0
  8  9  1  0
  4  2  1  0
  9  7  1  0
  7  2  1  0
  1 10  1  0
  3 11  1  0
  3 12  1  0
  4 13  1  0
  5 14  1  0
  5 15  1  0
  8 16  1  0
  8 17  1  0
  9 18  1  0
  9 19  1  0
M  END
