
     RDKit          3D

 19 21  0  0  0  0  0  0  0  0999 V2000
   -2.2114   -1.1464   -0.0995 O   0  0  0  0  0  0  0  0  0  0  0  0
   -1.0650   -0.3935   -0.1590 C   0  0  0  0  0  0  0  0  0  0  0  0
   -1.2194    1.1321   -0.1676 C   0  0  0  0  0  0  0  0  0  0  0  0
    0.2088    1.5809   -0.0771 C   0  0  0  0  0  0  0  0  0  0  0  0
    1.0180    0.4404    0.4962 C   0  0  0  0  0  0  0  0  0  0  0  0
    1.5051   -0.4427   -0.6389 C   0  0  0  0  0  0  0  0  0  0  0  0
    0.1294   -1.0026   -0.7363 C   0  0  0  0  0  0  0  0  0  0  0  0
    0.0070   -0.6204    0.7785 C   0  0  0  0  0  0  0  0  0  0  0  0
    0.1862   -1.6482    1.6220 O   0  0  0  0  0  0  0  0  0  0  0  0
   -2.6144   -1.2251   -1.0182 H   0  0  0  0  0  0  0  0  0  0  0  0
   -1.8024    1.3829    0.7654 H   0  0  0  0  0  0  0  0  0  0  0  0
   -1.7392    1.4649   -1.0775 H   0  0  0  0  0  0  0  0  0  0  0  0
    0.3423    2.5288    0.4830 H   0  0  0  0  0  0  0  0  0  0  0  0
    0.5344    1.8197   -1.1294 H   0  0  0  0  0  0  0  0  0  0  0  0
    1.7408    0.6838    1.2634 H   0  0  0  0  0  0  0  0  0  0  0  0
    2.2257   -1.2166   -0.2415 H   0  0  0  0  0  0  0  0  0  0  0  0
    1.8743    0.1746   -1.4554 H   0  0  0  0  0  0  0  0  0  0  0  0
    0.0823   -2.0822   -0.9636 H   0  0  0  0  0  0  0  0  0  0  0  0
    0.7975   -1.4304    2.3554 H   0  0  0  0  0  0  0  0  0  0  0  0
  1  2  1  0
  2  3  1  0
  3  4  1  0
  4  5  1  0
  5  6  1  0
  6  7  1  0
  7  8  1  0
  8  9  1  0
  7  2  1  0
  8  2  1  0
  8  5  1  0
  1 10  1  0
  3 11  1  0
  3 12  1  0
  4 13  1  0
  4 14  1  0
  5 15  1  0
  6 16  1  0
  6 17  1  0
  7 18  1  0
  9 19  1  0
M  END
