
     RDKit          3D

 15 17  0  0  0  0  0  0  0  0999 V2000
   -2.2797    0.3994    0.3725 O   0  0  0  0  0  0  0  0  0  0  0  0
   -0.9422    0.2148    0.0728 C   0  0  0  0  0  0  0  0  0  0  0  0
   -0.0221    1.3270    0.3420 C   0  0  0  0  0  0  0  0  0  0  0  0
    1.2895    1.0596    0.2255 C   0  0  0  0  0  0  0  0  0  0  0  0
    1.5590   -0.3201   -0.3369 C   0  0  0  0  0  0  0  0  0  0  0  0
    0.7595   -0.3958   -1.4868 O   0  0  0  0  0  0  0  0  0  0  0  0
   -0.5209   -0.6442   -1.0583 C   0  0  0  0  0  0  0  0  0  0  0  0
   -0.3909   -1.1245    0.3617 C   0  0  0  0  0  0  0  0  0  0  0  0
    0.9571   -1.2044    0.5452 O   0  0  0  0  0  0  0  0  0  0  0  0
   -2.3670    0.2815    1.3679 H   0  0  0  0  0  0  0  0  0  0  0  0
   -0.4263    2.2914    0.6160 H   0  0  0  0  0  0  0  0  0  0  0  0
    2.0651    1.7385    0.4968 H   0  0  0  0  0  0  0  0  0  0  0  0
    2.6125   -0.4991   -0.5217 H   0  0  0  0  0  0  0  0  0  0  0  0
   -1.2444   -1.1937   -1.6824 H   0  0  0  0  0  0  0  0  0  0  0  0
   -1.0493   -1.9302    0.6860 H   0  0  0  0  0  0  0  0  0  0  0  0
  1  2  1  0
  2  3  1  0
  3  4  2  0
  4  5  1  0
  5  6  1  0
  6  7  1  0
  7  8  1  0
  8  9  1  0
  7  2  1  0
  8  2  1  0
  9  5  1  0
  1 10  1  0
  3 11  1  0
  4 12  1  0
  5 13  1  0
  7 14  1  0
  8 15  1  0
M  END
