
     RDKit          3D

 19 21  0  0  0  0  0  0  0  0999 V2000
   -2.7310    0.3553    0.7874 O   0  0  0  0  0  0  0  0  0  0  0  0
   -1.5774    0.1155    0.3637 C   0  0  0  0  0  0  0  0  0  0  0  0
   -0.3528   -0.2754    1.1438 C   0  0  0  0  0  0  0  0  0  0  0  0
    0.1249   -0.2490   -0.2802 C   0  0  0  0  0  0  0  0  0  0  0  0
    1.3929   -0.4928   -0.7308 C   0  0  0  0  0  0  0  0  0  0  0  0
    2.5346    0.3877   -0.2486 C   0  0  0  0  0  0  0  0  0  0  0  0
    2.3990   -0.9644    0.1054 O   0  0  0  0  0  0  0  0  0  0  0  0
   -1.1480   -0.9477   -0.6168 C   0  0  0  0  0  0  0  0  0  0  0  0
   -0.6653    1.0323   -0.4171 C   0  0  0  0  0  0  0  0  0  0  0  0
   -2.7839    0.6500    1.7250 H   0  0  0  0  0  0  0  0  0  0  0  0
    0.0840    0.4680    1.8037 H   0  0  0  0  0  0  0  0  0  0  0  0
   -0.4398   -1.3112    1.4991 H   0  0  0  0  0  0  0  0  0  0  0  0
    1.5297   -0.8921   -1.7795 H   0  0  0  0  0  0  0  0  0  0  0  0
    2.3161    1.0546    0.6178 H   0  0  0  0  0  0  0  0  0  0  0  0
    3.3249    0.6803   -0.9602 H   0  0  0  0  0  0  0  0  0  0  0  0
   -1.5221   -0.8464   -1.6423 H   0  0  0  0  0  0  0  0  0  0  0  0
   -1.1962   -1.9366   -0.1465 H   0  0  0  0  0  0  0  0  0  0  0  0
   -0.3155    1.8787    0.2032 H   0  0  0  0  0  0  0  0  0  0  0  0
   -0.9739    1.2932   -1.4270 H   0  0  0  0  0  0  0  0  0  0  0  0
  1  2  1  0
  2  3  1  0
  3  4  1  0
  4  5  1  0
  5  6  1  0
  6  7  1  0
  4  8  1  0
  4  9  1  0
  8  2  1  0
  9  2  1  0
  7  5  1  0
  1 10  1  0
  3 11  1  0
  3 12  1  0
  5 13  1  0
  6 14  1  0
  6 15  1  0
  8 16  1  0
  8 17  1  0
  9 18  1  0
  9 19  1  0
M  END
