
     RDKit          3D

 21 23  0  0  0  0  0  0  0  0999 V2000
   -1.5320   -1.4515    1.2877 O   0  0  0  0  0  0  0  0  0  0  0  0
   -1.2977   -0.5942    0.4118 C   0  0  0  0  0  0  0  0  0  0  0  0
   -1.8889   -0.5736   -1.0027 C   0  0  0  0  0  0  0  0  0  0  0  0
   -1.0213    0.6661   -0.9224 C   0  0  0  0  0  0  0  0  0  0  0  0
   -1.6377    0.8692    0.4120 C   0  0  0  0  0  0  0  0  0  0  0  0
   -0.0275   -0.2341   -0.2666 C   0  0  0  0  0  0  0  0  0  0  0  0
    1.0864    0.3532    0.5071 C   0  0  0  0  0  0  0  0  0  0  0  0
    2.3252    0.6633   -0.3619 C   0  0  0  0  0  0  0  0  0  0  0  0
    2.3798   -0.3439    0.7104 C   0  0  0  0  0  0  0  0  0  0  0  0
   -0.7825   -2.0968    1.4963 H   0  0  0  0  0  0  0  0  0  0  0  0
   -2.9621   -0.4038   -1.0525 H   0  0  0  0  0  0  0  0  0  0  0  0
   -1.4658   -1.3804   -1.6353 H   0  0  0  0  0  0  0  0  0  0  0  0
   -0.8743    1.3244   -1.6606 H   0  0  0  0  0  0  0  0  0  0  0  0
   -2.7420    1.0746    0.2887 H   0  0  0  0  0  0  0  0  0  0  0  0
   -1.1674    1.5175    1.1441 H   0  0  0  0  0  0  0  0  0  0  0  0
    0.2596   -1.0542   -0.9884 H   0  0  0  0  0  0  0  0  0  0  0  0
    0.8218    1.1924    1.1808 H   0  0  0  0  0  0  0  0  0  0  0  0
    2.7975    1.6614   -0.2455 H   0  0  0  0  0  0  0  0  0  0  0  0
    2.3540    0.2882   -1.3893 H   0  0  0  0  0  0  0  0  0  0  0  0
    2.4557   -1.4192    0.4483 H   0  0  0  0  0  0  0  0  0  0  0  0
    2.9193   -0.0589    1.6379 H   0  0  0  0  0  0  0  0  0  0  0  0
  1  2  1  0
  2  3  1  0
  3  4  1  0
  4  5  1  0
  4  6  1  0
  6  7  1  0
  7  8  1  0
  8  9  1  0
  5  2  1  0
  9  7  1  0
  6  2  1  0
  1 10  1  0
  3 11  1  0
  3 12  1  0
  4 13  1  0
  5 14  1  0
  5 15  1  0
  6 16  1  0
  7 17  1  0
  8 18  1  0
  8 19  1  0
  9 20  1  0
  9 21  1  0
M  END
