
     RDKit          3D

 17 19  0  0  0  0  0  0  0  0999 V2000
    2.1523    0.6405   -0.5592 O   0  0  0  0  0  0  0  0  0  0  0  0
    0.9884    0.1757   -0.0648 C   0  0  0  0  0  0  0  0  0  0  0  0
    1.0339   -0.8716    1.0175 C   0  0  0  0  0  0  0  0  0  0  0  0
    0.1540   -1.8892    0.6490 O   0  0  0  0  0  0  0  0  0  0  0  0
   -0.8248   -1.2577   -0.1443 C   0  0  0  0  0  0  0  0  0  0  0  0
   -0.0367   -0.3839   -0.9958 C   0  0  0  0  0  0  0  0  0  0  0  0
   -1.0985    0.1750   -0.0206 C   0  0  0  0  0  0  0  0  0  0  0  0
   -2.2815    0.6425   -0.5436 O   0  0  0  0  0  0  0  0  0  0  0  0
   -0.0770    1.2075    0.3028 C   0  0  0  0  0  0  0  0  0  0  0  0
    1.9983    1.2395   -1.2987 H   0  0  0  0  0  0  0  0  0  0  0  0
    2.0502   -1.2342    1.2313 H   0  0  0  0  0  0  0  0  0  0  0  0
    0.6305   -0.4747    1.9932 H   0  0  0  0  0  0  0  0  0  0  0  0
   -1.5882   -1.8936   -0.5728 H   0  0  0  0  0  0  0  0  0  0  0  0
   -0.1171   -0.1802   -2.0338 H   0  0  0  0  0  0  0  0  0  0  0  0
   -2.9780    0.5388    0.1783 H   0  0  0  0  0  0  0  0  0  0  0  0
   -0.0228    2.0253   -0.4730 H   0  0  0  0  0  0  0  0  0  0  0  0
    0.0170    1.5405    1.3344 H   0  0  0  0  0  0  0  0  0  0  0  0
  1  2  1  0
  2  3  1  0
  3  4  1  0
  4  5  1  0
  5  6  1  0
  6  7  1  0
  7  8  1  0
  7  9  1  0
  6  2  1  0
  9  2  1  0
  7  5  1  0
  1 10  1  0
  3 11  1  0
  3 12  1  0
  5 13  1  0
  6 14  1  0
  8 15  1  0
  9 16  1  0
  9 17  1  0
M  END
