
     RDKit          3D

 19 20  0  0  0  0  0  0  0  0999 V2000
   -0.7989   -0.9185   -1.7146 O   0  0  0  0  0  0  0  0  0  0  0  0
   -0.1364   -0.6695   -0.5475 C   0  0  0  0  0  0  0  0  0  0  0  0
   -0.6574   -1.3140    0.6982 C   0  0  0  0  0  0  0  0  0  0  0  0
   -0.3907   -0.0119    1.4346 C   0  0  0  0  0  0  0  0  0  0  0  0
   -0.3941    0.6836    0.0953 C   0  0  0  0  0  0  0  0  0  0  0  0
   -1.5697    1.2910   -0.2238 O   0  0  0  0  0  0  0  0  0  0  0  0
    0.8776    1.4106   -0.1369 C   0  0  0  0  0  0  0  0  0  0  0  0
    1.5350    0.6933   -1.1552 O   0  0  0  0  0  0  0  0  0  0  0  0
    1.3517   -0.6423   -0.7222 C   0  0  0  0  0  0  0  0  0  0  0  0
   -1.7676   -1.0009   -1.6143 H   0  0  0  0  0  0  0  0  0  0  0  0
   -1.7672   -1.4423    0.6142 H   0  0  0  0  0  0  0  0  0  0  0  0
   -0.1190   -2.1811    1.0870 H   0  0  0  0  0  0  0  0  0  0  0  0
    0.5805    0.0229    1.9773 H   0  0  0  0  0  0  0  0  0  0  0  0
   -1.2131    0.3499    2.0612 H   0  0  0  0  0  0  0  0  0  0  0  0
   -1.5040    1.9963   -0.8978 H   0  0  0  0  0  0  0  0  0  0  0  0
    1.5742    1.3363    0.7496 H   0  0  0  0  0  0  0  0  0  0  0  0
    0.7783    2.4741   -0.3703 H   0  0  0  0  0  0  0  0  0  0  0  0
    1.7017   -1.2944   -1.5414 H   0  0  0  0  0  0  0  0  0  0  0  0
    1.9190   -0.7832    0.2066 H   0  0  0  0  0  0  0  0  0  0  0  0
  1  2  1  0
  2  3  1  0
  3  4  1  0
  4  5  1  0
  5  6  1  0
  5  7  1  0
  7  8  1  0
  8  9  1  0
  5  2  1  0
  9  2  1  0
  1 10  1  0
  3 11  1  0
  3 12  1  0
  4 13  1  0
  4 14  1  0
  6 15  1  0
  7 16  1  0
  7 17  1  0
  9 18  1  0
  9 19  1  0
M  END
