
     RDKit          3D

 17 19  0  0  0  0  0  0  0  0999 V2000
   -0.2086    1.2017    1.3734 O   0  0  0  0  0  0  0  0  0  0  0  0
   -0.1630   -0.1239    0.8398 C   0  0  0  0  0  0  0  0  0  0  0  0
   -1.3238   -0.8541    1.0903 C   0  0  0  0  0  0  0  0  0  0  0  0
   -1.2434   -0.4493   -0.2451 C   0  0  0  0  0  0  0  0  0  0  0  0
   -1.0299    0.7421   -1.0144 C   0  0  0  0  0  0  0  0  0  0  0  0
    0.2741    1.0000   -1.0286 C   0  0  0  0  0  0  0  0  0  0  0  0
    0.9054   -0.1098   -0.2011 C   0  0  0  0  0  0  0  0  0  0  0  0
    2.2472   -0.3433   -0.1772 C   0  0  0  0  0  0  0  0  0  0  0  0
    1.2502   -1.2919   -0.7935 O   0  0  0  0  0  0  0  0  0  0  0  0
   -1.1255    1.5467    1.3753 H   0  0  0  0  0  0  0  0  0  0  0  0
   -2.1681   -0.4244    1.7056 H   0  0  0  0  0  0  0  0  0  0  0  0
   -1.2186   -1.9330    1.3855 H   0  0  0  0  0  0  0  0  0  0  0  0
   -1.0012   -1.3277   -0.9431 H   0  0  0  0  0  0  0  0  0  0  0  0
   -1.7220    1.4138   -1.5464 H   0  0  0  0  0  0  0  0  0  0  0  0
    0.8280    1.7960   -1.4986 H   0  0  0  0  0  0  0  0  0  0  0  0
    2.9144    0.0003   -0.9992 H   0  0  0  0  0  0  0  0  0  0  0  0
    2.7849   -0.8433    0.6775 H   0  0  0  0  0  0  0  0  0  0  0  0
  1  2  1  0
  2  3  1  0
  3  4  1  0
  4  5  1  0
  5  6  2  0
  6  7  1  0
  7  8  1  0
  8  9  1  0
  4  2  1  0
  9  7  1  0
  7  2  1  0
  1 10  1  0
  3 11  1  0
  3 12  1  0
  4 13  1  0
  5 14  1  0
  6 15  1  0
  8 16  1  0
  8 17  1  0
M  END
