
     RDKit          3D

 21 23  0  0  0  0  0  0  0  0999 V2000
    1.8781    0.5088    1.3874 O   0  0  0  0  0  0  0  0  0  0  0  0
    0.8755    0.2633    0.5743 C   0  0  0  0  0  0  0  0  0  0  0  0
    1.1908   -0.6560   -0.6291 C   0  0  0  0  0  0  0  0  0  0  0  0
   -0.2785   -0.6462   -1.1202 C   0  0  0  0  0  0  0  0  0  0  0  0
   -0.7811   -1.4540    0.0999 C   0  0  0  0  0  0  0  0  0  0  0  0
   -0.3774   -0.3447    1.0990 C   0  0  0  0  0  0  0  0  0  0  0  0
   -1.4471    0.6402    0.5781 C   0  0  0  0  0  0  0  0  0  0  0  0
   -0.8174    0.7032   -0.8335 C   0  0  0  0  0  0  0  0  0  0  0  0
    0.4457    1.4418   -0.3344 C   0  0  0  0  0  0  0  0  0  0  0  0
    2.7438    0.0903    1.2665 H   0  0  0  0  0  0  0  0  0  0  0  0
    1.4893   -1.6533   -0.2978 H   0  0  0  0  0  0  0  0  0  0  0  0
    1.8526   -0.1685   -1.3436 H   0  0  0  0  0  0  0  0  0  0  0  0
   -0.4374   -1.1021   -2.0505 H   0  0  0  0  0  0  0  0  0  0  0  0
   -0.1955   -2.3572    0.2495 H   0  0  0  0  0  0  0  0  0  0  0  0
   -1.8597   -1.5714    0.0422 H   0  0  0  0  0  0  0  0  0  0  0  0
   -0.4579   -0.6016    2.1101 H   0  0  0  0  0  0  0  0  0  0  0  0
   -1.3481    1.5873    1.1043 H   0  0  0  0  0  0  0  0  0  0  0  0
   -2.4363    0.1917    0.5583 H   0  0  0  0  0  0  0  0  0  0  0  0
   -1.3816    1.2202   -1.5504 H   0  0  0  0  0  0  0  0  0  0  0  0
    1.1527    1.5860   -1.1550 H   0  0  0  0  0  0  0  0  0  0  0  0
    0.1896    2.3223    0.2448 H   0  0  0  0  0  0  0  0  0  0  0  0
  1  2  1  0
  2  3  1  0
  3  4  1  0
  4  5  1  0
  5  6  1  0
  6  7  1  0
  7  8  1  0
  8  9  1  0
  6  2  1  0
  9  2  1  0
  8  4  1  0
  1 10  1  0
  3 11  1  0
  3 12  1  0
  4 13  1  0
  5 14  1  0
  5 15  1  0
  6 16  1  0
  7 17  1  0
  7 18  1  0
  8 19  1  0
  9 20  1  0
  9 21  1  0
M  END
