
     RDKit          3D

 19 21  0  0  0  0  0  0  0  0999 V2000
   -2.2009   -0.7112    0.8688 O   0  0  0  0  0  0  0  0  0  0  0  0
   -1.0757   -0.0182    0.4515 C   0  0  0  0  0  0  0  0  0  0  0  0
   -1.2745    1.0385   -0.6066 C   0  0  0  0  0  0  0  0  0  0  0  0
   -0.6362   -0.2531   -1.0283 C   0  0  0  0  0  0  0  0  0  0  0  0
    0.8643   -0.3749   -0.9211 C   0  0  0  0  0  0  0  0  0  0  0  0
    1.4098    0.9165   -0.4490 C   0  0  0  0  0  0  0  0  0  0  0  0
    1.0294    1.0941    0.8057 C   0  0  0  0  0  0  0  0  0  0  0  0
    0.1988   -0.1038    1.2095 C   0  0  0  0  0  0  0  0  0  0  0  0
    0.9522   -1.1735    0.3962 C   0  0  0  0  0  0  0  0  0  0  0  0
   -2.3110   -1.5818    0.4177 H   0  0  0  0  0  0  0  0  0  0  0  0
   -2.3167    1.1689   -0.9617 H   0  0  0  0  0  0  0  0  0  0  0  0
   -0.6424    1.9505   -0.5101 H   0  0  0  0  0  0  0  0  0  0  0  0
   -1.1919   -0.9947   -1.5999 H   0  0  0  0  0  0  0  0  0  0  0  0
    1.3612   -0.8407   -1.7399 H   0  0  0  0  0  0  0  0  0  0  0  0
    2.0078    1.5857   -1.0281 H   0  0  0  0  0  0  0  0  0  0  0  0
    1.2836    1.9541    1.4087 H   0  0  0  0  0  0  0  0  0  0  0  0
    0.1633   -0.2909    2.2535 H   0  0  0  0  0  0  0  0  0  0  0  0
    0.3855   -2.0972    0.3177 H   0  0  0  0  0  0  0  0  0  0  0  0
    1.9931   -1.2684    0.7155 H   0  0  0  0  0  0  0  0  0  0  0  0
  1  2  1  0
  2  3  1  0
  3  4  1  0
  4  5  1  0
  5  6  1  0
  6  7  2  0
  7  8  1  0
  8  9  1  0
  4  2  1  0
  9  5  1  0
  8  2  1  0
  1 10  1  0
  3 11  1  0
  3 12  1  0
  4 13  1  0
  5 14  1  0
  6 15  1  0
  7 16  1  0
  8 17  1  0
  9 18  1  0
  9 19  1  0
M  END
