
     RDKit          3D

 16 18  0  0  0  0  0  0  0  0999 V2000
   -1.5343    0.2553    1.6965 O   0  0  0  0  0  0  0  0  0  0  0  0
   -0.7950    0.2461    0.5833 C   0  0  0  0  0  0  0  0  0  0  0  0
    0.3372    1.1762    0.3009 C   0  0  0  0  0  0  0  0  0  0  0  0
    1.4913    0.2208    0.1081 C   0  0  0  0  0  0  0  0  0  0  0  0
    0.8652   -0.9569   -0.6472 C   0  0  0  0  0  0  0  0  0  0  0  0
   -0.6033   -0.8511   -0.3513 C   0  0  0  0  0  0  0  0  0  0  0  0
   -1.1721    0.5166   -0.7716 C   0  0  0  0  0  0  0  0  0  0  0  0
   -0.2774    1.5438   -0.8928 O   0  0  0  0  0  0  0  0  0  0  0  0
   -1.7324   -0.6809    2.0050 H   0  0  0  0  0  0  0  0  0  0  0  0
    0.4462    1.9404    1.0617 H   0  0  0  0  0  0  0  0  0  0  0  0
    1.8518   -0.1155    1.0925 H   0  0  0  0  0  0  0  0  0  0  0  0
    2.2860    0.6287   -0.5305 H   0  0  0  0  0  0  0  0  0  0  0  0
    0.9567   -0.7764   -1.7598 H   0  0  0  0  0  0  0  0  0  0  0  0
    1.2691   -1.9169   -0.3377 H   0  0  0  0  0  0  0  0  0  0  0  0
   -1.2555   -1.7101   -0.3122 H   0  0  0  0  0  0  0  0  0  0  0  0
   -2.1335    0.4799   -1.2449 H   0  0  0  0  0  0  0  0  0  0  0  0
  1  2  1  0
  2  3  1  0
  3  4  1  0
  4  5  1  0
  5  6  1  0
  6  7  1  0
  7  8  1  0
  6  2  1  0
  7  2  1  0
  8  3  1  0
  1  9  1  0
  3 10  1  0
  4 11  1  0
  4 12  1  0
  5 13  1  0
  5 14  1  0
  6 15  1  0
  7 16  1  0
M  END
