
     RDKit          3D

 19 21  0  0  0  0  0  0  0  0999 V2000
    2.1456    1.3887    0.3634 O   0  0  0  0  0  0  0  0  0  0  0  0
    1.0496    0.6623    0.0320 C   0  0  0  0  0  0  0  0  0  0  0  0
    1.0293   -0.2560   -1.1659 C   0  0  0  0  0  0  0  0  0  0  0  0
    0.1288   -1.1861   -0.3518 C   0  0  0  0  0  0  0  0  0  0  0  0
   -1.3582   -0.8948   -0.5316 C   0  0  0  0  0  0  0  0  0  0  0  0
   -1.4314    0.6052   -0.3754 C   0  0  0  0  0  0  0  0  0  0  0  0
   -0.3031    0.9095    0.6218 C   0  0  0  0  0  0  0  0  0  0  0  0
    0.4184   -0.3512    0.8498 C   0  0  0  0  0  0  0  0  0  0  0  0
    0.8226   -0.8322    2.0316 O   0  0  0  0  0  0  0  0  0  0  0  0
    1.9244    2.3507    0.4974 H   0  0  0  0  0  0  0  0  0  0  0  0
    2.0232   -0.7236   -1.3217 H   0  0  0  0  0  0  0  0  0  0  0  0
    0.5676    0.1479   -2.0796 H   0  0  0  0  0  0  0  0  0  0  0  0
    0.4145   -2.2296   -0.3464 H   0  0  0  0  0  0  0  0  0  0  0  0
   -1.8478   -1.3422    0.3827 H   0  0  0  0  0  0  0  0  0  0  0  0
   -1.7635   -1.2737   -1.4619 H   0  0  0  0  0  0  0  0  0  0  0  0
   -1.1732    1.0624   -1.3711 H   0  0  0  0  0  0  0  0  0  0  0  0
   -2.3875    0.9705   -0.0029 H   0  0  0  0  0  0  0  0  0  0  0  0
   -0.4760    1.6171    1.4241 H   0  0  0  0  0  0  0  0  0  0  0  0
    0.2168   -0.6251    2.8054 H   0  0  0  0  0  0  0  0  0  0  0  0
  1  2  1  0
  2  3  1  0
  3  4  1  0
  4  5  1  0
  5  6  1  0
  6  7  1  0
  7  8  1  0
  8  9  1  0
  7  2  1  0
  8  2  1  0
  8  4  1  0
  1 10  1  0
  3 11  1  0
  3 12  1  0
  4 13  1  0
  5 14  1  0
  5 15  1  0
  6 16  1  0
  6 17  1  0
  7 18  1  0
  9 19  1  0
M  END
