
     RDKit          3D

 17 19  0  0  0  0  0  0  0  0999 V2000
    0.0828    2.2100    0.2739 O   0  0  0  0  0  0  0  0  0  0  0  0
    0.1096    0.8587    0.2660 C   0  0  0  0  0  0  0  0  0  0  0  0
   -0.8515    0.2037    1.1785 C   0  0  0  0  0  0  0  0  0  0  0  0
   -1.3825   -0.8795    0.6112 C   0  0  0  0  0  0  0  0  0  0  0  0
   -0.3281   -1.1565   -0.4570 C   0  0  0  0  0  0  0  0  0  0  0  0
   -0.3952    0.2547   -1.0729 C   0  0  0  0  0  0  0  0  0  0  0  0
    0.9604   -1.1056    0.2694 C   0  0  0  0  0  0  0  0  0  0  0  0
    2.1408   -0.8225   -0.0743 O   0  0  0  0  0  0  0  0  0  0  0  0
    1.4878    0.3393    0.2333 C   0  0  0  0  0  0  0  0  0  0  0  0
    0.3753    2.5417   -0.6213 H   0  0  0  0  0  0  0  0  0  0  0  0
   -1.0992    0.5452    2.1675 H   0  0  0  0  0  0  0  0  0  0  0  0
   -2.2746   -1.4204    0.8143 H   0  0  0  0  0  0  0  0  0  0  0  0
   -0.5537   -1.9489   -1.1088 H   0  0  0  0  0  0  0  0  0  0  0  0
   -1.4113    0.5624   -1.2881 H   0  0  0  0  0  0  0  0  0  0  0  0
    0.3440    0.3962   -1.8557 H   0  0  0  0  0  0  0  0  0  0  0  0
    0.9065   -1.4411    1.3570 H   0  0  0  0  0  0  0  0  0  0  0  0
    1.8885    0.8627   -0.6931 H   0  0  0  0  0  0  0  0  0  0  0  0
  1  2  1  0
  2  3  1  0
  3  4  2  0
  4  5  1  0
  5  6  1  0
  5  7  1  0
  7  8  1  0
  8  9  1  0
  6  2  1  0
  9  7  1  0
  9  2  1  0
  1 10  1  0
  3 11  1  0
  4 12  1  0
  5 13  1  0
  6 14  1  0
  6 15  1  0
  7 16  1  0
  9 17  1  0
M  END
