
     RDKit          3D

 23 24  0  0  0  0  0  0  0  0999 V2000
    2.6746   -0.3874    0.9873 O   0  0  0  0  0  0  0  0  0  0  0  0
    1.4301   -0.1937    0.3399 C   0  0  0  0  0  0  0  0  0  0  0  0
    0.4180   -1.2255    0.6855 C   0  0  0  0  0  0  0  0  0  0  0  0
   -0.6083   -1.4881   -0.3585 C   0  0  0  0  0  0  0  0  0  0  0  0
   -1.8084   -0.6167   -0.0646 C   0  0  0  0  0  0  0  0  0  0  0  0
   -1.4212    0.8095   -0.4685 C   0  0  0  0  0  0  0  0  0  0  0  0
   -0.4936    1.4102    0.5277 C   0  0  0  0  0  0  0  0  0  0  0  0
    0.9525    1.1887    0.2729 C   0  0  0  0  0  0  0  0  0  0  0  0
    1.4850    0.5272   -0.9249 C   0  0  0  0  0  0  0  0  0  0  0  0
    2.5093   -0.2994    1.9786 H   0  0  0  0  0  0  0  0  0  0  0  0
    0.9376   -2.1890    0.9209 H   0  0  0  0  0  0  0  0  0  0  0  0
   -0.1218   -0.9666    1.6440 H   0  0  0  0  0  0  0  0  0  0  0  0
   -0.2591   -1.4219   -1.3934 H   0  0  0  0  0  0  0  0  0  0  0  0
   -0.9686   -2.5510   -0.2271 H   0  0  0  0  0  0  0  0  0  0  0  0
   -2.7293   -0.9521   -0.5354 H   0  0  0  0  0  0  0  0  0  0  0  0
   -1.9208   -0.5762    1.0484 H   0  0  0  0  0  0  0  0  0  0  0  0
   -2.3917    1.3856   -0.4043 H   0  0  0  0  0  0  0  0  0  0  0  0
   -1.1071    0.8775   -1.5121 H   0  0  0  0  0  0  0  0  0  0  0  0
   -0.6875    2.5110    0.5494 H   0  0  0  0  0  0  0  0  0  0  0  0
   -0.8204    1.0515    1.5444 H   0  0  0  0  0  0  0  0  0  0  0  0
    1.6189    1.9955    0.7020 H   0  0  0  0  0  0  0  0  0  0  0  0
    2.4951    0.8468   -1.3206 H   0  0  0  0  0  0  0  0  0  0  0  0
    0.8166    0.2639   -1.7945 H   0  0  0  0  0  0  0  0  0  0  0  0
  1  2  1  0
  2  3  1  0
  3  4  1  0
  4  5  1  0
  5  6  1  0
  6  7  1  0
  7  8  1  0
  8  9  1  0
  8  2  1  0
  9  2  1  0
  1 10  1  0
  3 11  1  0
  3 12  1  0
  4 13  1  0
  4 14  1  0
  5 15  1  0
  5 16  1  0
  6 17  1  0
  6 18  1  0
  7 19  1  0
  7 20  1  0
  8 21  1  0
  9 22  1  0
  9 23  1  0
M  END
