
     RDKit          3D

 17 21  0  0  0  0  0  0  0  0999 V2000
   -0.8531    0.2796    2.1725 O   0  0  0  0  0  0  0  0  0  0  0  0
   -0.3221    0.0197    0.9762 C   0  0  0  0  0  0  0  0  0  0  0  0
   -0.7948   -1.1056    0.1448 C   0  0  0  0  0  0  0  0  0  0  0  0
    0.0631   -1.1470   -1.0320 C   0  0  0  0  0  0  0  0  0  0  0  0
    1.3377   -0.4293   -0.6083 C   0  0  0  0  0  0  0  0  0  0  0  0
    0.9397    0.9622   -0.4058 C   0  0  0  0  0  0  0  0  0  0  0  0
    1.1374    0.0688    0.7490 C   0  0  0  0  0  0  0  0  0  0  0  0
   -0.5276    0.9518   -0.1682 C   0  0  0  0  0  0  0  0  0  0  0  0
   -1.0263   -0.1520   -0.9930 C   0  0  0  0  0  0  0  0  0  0  0  0
   -1.2301    1.1563    2.3492 H   0  0  0  0  0  0  0  0  0  0  0  0
   -1.5446   -1.8210    0.4315 H   0  0  0  0  0  0  0  0  0  0  0  0
    0.1115   -1.9498   -1.7622 H   0  0  0  0  0  0  0  0  0  0  0  0
    2.2816   -0.6428   -1.0849 H   0  0  0  0  0  0  0  0  0  0  0  0
    1.5178    1.8402   -0.6281 H   0  0  0  0  0  0  0  0  0  0  0  0
    1.8842    0.2671    1.4917 H   0  0  0  0  0  0  0  0  0  0  0  0
   -1.0661    1.8610   -0.0348 H   0  0  0  0  0  0  0  0  0  0  0  0
   -1.9082   -0.1592   -1.5976 H   0  0  0  0  0  0  0  0  0  0  0  0
  1  2  1  0
  2  3  1  0
  3  4  1  0
  4  5  1  0
  5  6  1  0
  6  7  1  0
  6  8  1  0
  8  9  1  0
  7  2  1  0
  8  2  1  0
  9  3  1  0
  9  4  1  0
  7  5  1  0
  1 10  1  0
  3 11  1  0
  4 12  1  0
  5 13  1  0
  6 14  1  0
  7 15  1  0
  8 16  1  0
  9 17  1  0
M  END
