
     RDKit          3D

 17 19  0  0  0  0  0  0  0  0999 V2000
    2.4024   -0.3824   -1.0313 O   0  0  0  0  0  0  0  0  0  0  0  0
    1.1393   -0.1217   -0.4934 C   0  0  0  0  0  0  0  0  0  0  0  0
    1.1132    1.1177    0.3457 C   0  0  0  0  0  0  0  0  0  0  0  0
   -0.1639    1.4516    0.4829 C   0  0  0  0  0  0  0  0  0  0  0  0
   -1.0798    0.5215   -0.2171 C   0  0  0  0  0  0  0  0  0  0  0  0
   -1.5955   -0.6408    0.5610 C   0  0  0  0  0  0  0  0  0  0  0  0
   -0.9687   -1.7228   -0.1482 O   0  0  0  0  0  0  0  0  0  0  0  0
    0.3577   -1.2984   -0.1077 C   0  0  0  0  0  0  0  0  0  0  0  0
   -0.0826   -0.1704   -1.0685 C   0  0  0  0  0  0  0  0  0  0  0  0
    3.0114   -0.7064   -0.2976 H   0  0  0  0  0  0  0  0  0  0  0  0
    1.9720    1.6487    0.7664 H   0  0  0  0  0  0  0  0  0  0  0  0
   -0.4812    2.3437    1.0694 H   0  0  0  0  0  0  0  0  0  0  0  0
   -1.8673    1.0569   -0.7881 H   0  0  0  0  0  0  0  0  0  0  0  0
   -2.6834   -0.7426    0.4366 H   0  0  0  0  0  0  0  0  0  0  0  0
   -1.2398   -0.5870    1.5862 H   0  0  0  0  0  0  0  0  0  0  0  0
    0.4662   -1.2570    0.9888 H   0  0  0  0  0  0  0  0  0  0  0  0
   -0.3000   -0.5104   -2.0849 H   0  0  0  0  0  0  0  0  0  0  0  0
  1  2  1  0
  2  3  1  0
  3  4  2  0
  4  5  1  0
  5  6  1  0
  6  7  1  0
  7  8  1  0
  8  9  1  0
  8  2  1  0
  9  2  1  0
  9  5  1  0
  1 10  1  0
  3 11  1  0
  4 12  1  0
  5 13  1  0
  6 14  1  0
  6 15  1  0
  8 16  1  0
  9 17  1  0
M  END
