
     RDKit          3D

 19 21  0  0  0  0  0  0  0  0999 V2000
    0.0733   -2.3373   -0.3791 O   0  0  0  0  0  0  0  0  0  0  0  0
    0.0429   -1.0147    0.0031 C   0  0  0  0  0  0  0  0  0  0  0  0
    1.3296   -0.5148    0.5504 C   0  0  0  0  0  0  0  0  0  0  0  0
    1.4518    0.9522    0.6033 C   0  0  0  0  0  0  0  0  0  0  0  0
    0.5981    1.7389   -0.0113 C   0  0  0  0  0  0  0  0  0  0  0  0
   -0.5452    1.2761   -0.8007 C   0  0  0  0  0  0  0  0  0  0  0  0
   -1.5388    0.3947   -0.1523 C   0  0  0  0  0  0  0  0  0  0  0  0
   -1.1144   -0.6061    0.8835 C   0  0  0  0  0  0  0  0  0  0  0  0
   -0.5322   -0.1572   -1.0908 C   0  0  0  0  0  0  0  0  0  0  0  0
    0.6141   -2.3811   -1.2221 H   0  0  0  0  0  0  0  0  0  0  0  0
    1.4158   -0.8739    1.6185 H   0  0  0  0  0  0  0  0  0  0  0  0
    2.2241   -0.9882    0.0470 H   0  0  0  0  0  0  0  0  0  0  0  0
    2.2618    1.3913    1.1602 H   0  0  0  0  0  0  0  0  0  0  0  0
    0.7175    2.8350    0.0483 H   0  0  0  0  0  0  0  0  0  0  0  0
   -0.9304    1.9247   -1.6116 H   0  0  0  0  0  0  0  0  0  0  0  0
   -2.5936    0.5232   -0.4152 H   0  0  0  0  0  0  0  0  0  0  0  0
   -0.8397   -0.1027    1.8249 H   0  0  0  0  0  0  0  0  0  0  0  0
   -1.8043   -1.4776    0.9969 H   0  0  0  0  0  0  0  0  0  0  0  0
   -0.8303   -0.5826   -2.0528 H   0  0  0  0  0  0  0  0  0  0  0  0
  1  2  1  0
  2  3  1  0
  3  4  1  0
  4  5  2  0
  5  6  1  0
  6  7  1  0
  7  8  1  0
  7  9  1  0
  8  2  1  0
  9  2  1  0
  9  6  1  0
  1 10  1  0
  3 11  1  0
  3 12  1  0
  4 13  1  0
  5 14  1  0
  6 15  1  0
  7 16  1  0
  8 17  1  0
  8 18  1  0
  9 19  1  0
M  END
