
     RDKit          3D

 21 22  0  0  0  0  0  0  0  0999 V2000
   -0.9425    1.5914   -0.9819 O   0  0  0  0  0  0  0  0  0  0  0  0
   -0.8421    0.5763    0.0042 C   0  0  0  0  0  0  0  0  0  0  0  0
    0.2172    0.9493    1.0375 C   0  0  0  0  0  0  0  0  0  0  0  0
    1.5727    0.8362    0.3247 C   0  0  0  0  0  0  0  0  0  0  0  0
    1.6145   -0.6080   -0.1294 C   0  0  0  0  0  0  0  0  0  0  0  0
    0.4265   -0.7257   -1.0993 C   0  0  0  0  0  0  0  0  0  0  0  0
   -0.8542   -0.7884   -0.4339 C   0  0  0  0  0  0  0  0  0  0  0  0
   -1.2348   -2.0705   -0.2576 O   0  0  0  0  0  0  0  0  0  0  0  0
   -1.8999   -0.1755    0.3226 C   0  0  0  0  0  0  0  0  0  0  0  0
   -1.7153    2.1482   -0.6677 H   0  0  0  0  0  0  0  0  0  0  0  0
    0.0789    1.9952    1.3286 H   0  0  0  0  0  0  0  0  0  0  0  0
    0.2045    0.3069    1.9149 H   0  0  0  0  0  0  0  0  0  0  0  0
    2.3928    1.1003    0.9980 H   0  0  0  0  0  0  0  0  0  0  0  0
    1.5429    1.4562   -0.5971 H   0  0  0  0  0  0  0  0  0  0  0  0
    2.5555   -0.8715   -0.6180 H   0  0  0  0  0  0  0  0  0  0  0  0
    1.3954   -1.2265    0.7786 H   0  0  0  0  0  0  0  0  0  0  0  0
    0.5987    0.1193   -1.8351 H   0  0  0  0  0  0  0  0  0  0  0  0
    0.6618   -1.6141   -1.7144 H   0  0  0  0  0  0  0  0  0  0  0  0
   -0.7392   -2.6015    0.3961 H   0  0  0  0  0  0  0  0  0  0  0  0
   -2.9038   -0.0488   -0.1953 H   0  0  0  0  0  0  0  0  0  0  0  0
   -2.1297   -0.3489    1.4243 H   0  0  0  0  0  0  0  0  0  0  0  0
  1  2  1  0
  2  3  1  0
  3  4  1  0
  4  5  1  0
  5  6  1  0
  6  7  1  0
  7  8  1  0
  7  9  1  0
  7  2  1  0
  9  2  1  0
  1 10  1  0
  3 11  1  0
  3 12  1  0
  4 13  1  0
  4 14  1  0
  5 15  1  0
  5 16  1  0
  6 17  1  0
  6 18  1  0
  8 19  1  0
  9 20  1  0
  9 21  1  0
M  END
