
     RDKit          3D

 19 21  0  0  0  0  0  0  0  0999 V2000
   -2.6070   -0.2461   -0.2074 O   0  0  0  0  0  0  0  0  0  0  0  0
   -1.2354   -0.1793   -0.0489 C   0  0  0  0  0  0  0  0  0  0  0  0
   -0.4015   -1.3550   -0.4626 C   0  0  0  0  0  0  0  0  0  0  0  0
    0.8720   -1.1082    0.3273 C   0  0  0  0  0  0  0  0  0  0  0  0
    1.6193   -0.0311   -0.4705 C   0  0  0  0  0  0  0  0  0  0  0  0
    0.8386    1.2216   -0.3820 C   0  0  0  0  0  0  0  0  0  0  0  0
   -0.5698    1.0926    0.0437 C   0  0  0  0  0  0  0  0  0  0  0  0
   -0.6578    0.2238    1.2486 C   0  0  0  0  0  0  0  0  0  0  0  0
    0.4711   -0.5077    1.5079 O   0  0  0  0  0  0  0  0  0  0  0  0
   -2.9953    0.5396    0.2646 H   0  0  0  0  0  0  0  0  0  0  0  0
   -0.1869   -1.2938   -1.5335 H   0  0  0  0  0  0  0  0  0  0  0  0
   -0.8572   -2.3182   -0.2483 H   0  0  0  0  0  0  0  0  0  0  0  0
    1.4746   -2.0060    0.4710 H   0  0  0  0  0  0  0  0  0  0  0  0
    1.7107   -0.3647   -1.5316 H   0  0  0  0  0  0  0  0  0  0  0  0
    2.6320    0.0277   -0.0699 H   0  0  0  0  0  0  0  0  0  0  0  0
    1.3502    1.8870    0.3752 H   0  0  0  0  0  0  0  0  0  0  0  0
    0.9435    1.7945   -1.3476 H   0  0  0  0  0  0  0  0  0  0  0  0
   -1.1700    2.0182   -0.0191 H   0  0  0  0  0  0  0  0  0  0  0  0
   -1.2311    0.6053    2.0832 H   0  0  0  0  0  0  0  0  0  0  0  0
  1  2  1  0
  2  3  1  0
  3  4  1  0
  4  5  1  0
  5  6  1  0
  6  7  1  0
  7  8  1  0
  8  9  1  0
  7  2  1  0
  8  2  1  0
  9  4  1  0
  1 10  1  0
  3 11  1  0
  3 12  1  0
  4 13  1  0
  5 14  1  0
  5 15  1  0
  6 16  1  0
  6 17  1  0
  7 18  1  0
  8 19  1  0
M  END
