
     RDKit          3D

 19 20  0  0  0  0  0  0  0  0999 V2000
   -1.2749    0.5099    1.5911 O   0  0  0  0  0  0  0  0  0  0  0  0
   -0.8150    0.2135    0.3419 C   0  0  0  0  0  0  0  0  0  0  0  0
   -0.1684    1.3264   -0.4366 C   0  0  0  0  0  0  0  0  0  0  0  0
    0.8095    0.7359   -1.2609 O   0  0  0  0  0  0  0  0  0  0  0  0
    1.8646    0.4050   -0.3775 C   0  0  0  0  0  0  0  0  0  0  0  0
    1.4316   -0.8709    0.3190 C   0  0  0  0  0  0  0  0  0  0  0  0
   -0.0553   -1.0735    0.2920 C   0  0  0  0  0  0  0  0  0  0  0  0
   -0.6016   -1.3005   -0.9735 O   0  0  0  0  0  0  0  0  0  0  0  0
   -1.7418   -0.5763   -0.5573 C   0  0  0  0  0  0  0  0  0  0  0  0
   -2.1919    0.8545    1.6348 H   0  0  0  0  0  0  0  0  0  0  0  0
    0.2711    2.0370    0.2666 H   0  0  0  0  0  0  0  0  0  0  0  0
   -0.9296    1.7472   -1.1108 H   0  0  0  0  0  0  0  0  0  0  0  0
    2.8200    0.3106   -0.8946 H   0  0  0  0  0  0  0  0  0  0  0  0
    1.9208    1.2193    0.3843 H   0  0  0  0  0  0  0  0  0  0  0  0
    1.7749   -0.8886    1.3544 H   0  0  0  0  0  0  0  0  0  0  0  0
    1.9381   -1.7042   -0.2121 H   0  0  0  0  0  0  0  0  0  0  0  0
   -0.3746   -1.7808    1.0640 H   0  0  0  0  0  0  0  0  0  0  0  0
   -2.2015    0.0336   -1.3751 H   0  0  0  0  0  0  0  0  0  0  0  0
   -2.4759   -1.1979   -0.0498 H   0  0  0  0  0  0  0  0  0  0  0  0
  1  2  1  0
  2  3  1  0
  3  4  1  0
  4  5  1  0
  5  6  1  0
  6  7  1  0
  7  8  1  0
  8  9  1  0
  7  2  1  0
  9  2  1  0
  1 10  1  0
  3 11  1  0
  3 12  1  0
  5 13  1  0
  5 14  1  0
  6 15  1  0
  6 16  1  0
  7 17  1  0
  9 18  1  0
  9 19  1  0
M  END
