
     RDKit          3D

 19 20  0  0  0  0  0  0  0  0999 V2000
    2.3281    0.7844   -0.1541 O   0  0  0  0  0  0  0  0  0  0  0  0
    1.0543    0.3849   -0.2542 C   0  0  0  0  0  0  0  0  0  0  0  0
    0.1585    1.1766   -1.1112 C   0  0  0  0  0  0  0  0  0  0  0  0
   -1.0871    0.8551   -0.7684 C   0  0  0  0  0  0  0  0  0  0  0  0
   -1.0373   -0.0596    0.4250 C   0  0  0  0  0  0  0  0  0  0  0  0
   -2.1058   -0.0146    1.2231 O   0  0  0  0  0  0  0  0  0  0  0  0
   -0.5832   -1.3952   -0.0572 C   0  0  0  0  0  0  0  0  0  0  0  0
    0.8373   -1.0840   -0.5566 C   0  0  0  0  0  0  0  0  0  0  0  0
    0.2617    0.4639    1.0686 C   0  0  0  0  0  0  0  0  0  0  0  0
    2.7574    0.5455    0.6899 H   0  0  0  0  0  0  0  0  0  0  0  0
    0.4498    1.8823   -1.8717 H   0  0  0  0  0  0  0  0  0  0  0  0
   -1.9566    1.2246   -1.3020 H   0  0  0  0  0  0  0  0  0  0  0  0
   -2.5369    0.8704    1.1857 H   0  0  0  0  0  0  0  0  0  0  0  0
   -1.2086   -1.8289   -0.8353 H   0  0  0  0  0  0  0  0  0  0  0  0
   -0.5080   -2.1336    0.7791 H   0  0  0  0  0  0  0  0  0  0  0  0
    0.8104   -1.2154   -1.6412 H   0  0  0  0  0  0  0  0  0  0  0  0
    1.5620   -1.6922   -0.0184 H   0  0  0  0  0  0  0  0  0  0  0  0
    0.1510    1.4880    1.4128 H   0  0  0  0  0  0  0  0  0  0  0  0
    0.6532   -0.2522    1.7861 H   0  0  0  0  0  0  0  0  0  0  0  0
  1  2  1  0
  2  3  1  0
  3  4  2  0
  4  5  1  0
  5  6  1  0
  5  7  1  0
  7  8  1  0
  5  9  1  0
  8  2  1  0
  9  2  1  0
  1 10  1  0
  3 11  1  0
  4 12  1  0
  6 13  1  0
  7 14  1  0
  7 15  1  0
  8 16  1  0
  8 17  1  0
  9 18  1  0
  9 19  1  0
M  END
