
     RDKit          3D

 19 21  0  0  0  0  0  0  0  0999 V2000
   -0.2200    0.4909    1.7757 O   0  0  0  0  0  0  0  0  0  0  0  0
    0.1995    0.8007    0.4493 C   0  0  0  0  0  0  0  0  0  0  0  0
   -0.4407    1.9139   -0.1212 C   0  0  0  0  0  0  0  0  0  0  0  0
   -0.9436    0.7129   -0.6470 C   0  0  0  0  0  0  0  0  0  0  0  0
   -1.5149   -0.5221   -0.0636 C   0  0  0  0  0  0  0  0  0  0  0  0
   -0.2361   -1.3886   -0.0067 C   0  0  0  0  0  0  0  0  0  0  0  0
    0.9168   -0.3664   -0.0775 C   0  0  0  0  0  0  0  0  0  0  0  0
    2.2214   -0.7457   -0.1062 C   0  0  0  0  0  0  0  0  0  0  0  0
    1.5041   -0.3055   -1.3341 O   0  0  0  0  0  0  0  0  0  0  0  0
   -0.9904    1.0044    2.0542 H   0  0  0  0  0  0  0  0  0  0  0  0
    0.1730    2.5985   -0.7701 H   0  0  0  0  0  0  0  0  0  0  0  0
   -1.1205    2.5510    0.5023 H   0  0  0  0  0  0  0  0  0  0  0  0
   -0.5859    0.4667   -1.6967 H   0  0  0  0  0  0  0  0  0  0  0  0
   -2.2177   -1.0231   -0.7831 H   0  0  0  0  0  0  0  0  0  0  0  0
   -1.9650   -0.4048    0.9216 H   0  0  0  0  0  0  0  0  0  0  0  0
   -0.1992   -1.8041    1.0023 H   0  0  0  0  0  0  0  0  0  0  0  0
   -0.1924   -2.0982   -0.8258 H   0  0  0  0  0  0  0  0  0  0  0  0
    2.5305   -1.8027   -0.2979 H   0  0  0  0  0  0  0  0  0  0  0  0
    3.0812   -0.0778    0.0244 H   0  0  0  0  0  0  0  0  0  0  0  0
  1  2  1  0
  2  3  1  0
  3  4  1  0
  4  5  1  0
  5  6  1  0
  6  7  1  0
  7  8  1  0
  8  9  1  0
  4  2  1  0
  9  7  1  0
  7  2  1  0
  1 10  1  0
  3 11  1  0
  3 12  1  0
  4 13  1  0
  5 14  1  0
  5 15  1  0
  6 16  1  0
  6 17  1  0
  8 18  1  0
  8 19  1  0
M  END
