
     RDKit          3D

 15 16  0  0  0  0  0  0  0  0999 V2000
   -1.7522    0.4474   -0.8196 O   0  0  0  0  0  0  0  0  0  0  0  0
   -0.6516    0.0897   -0.2005 C   0  0  0  0  0  0  0  0  0  0  0  0
   -0.6538   -0.8505    0.9691 C   0  0  0  0  0  0  0  0  0  0  0  0
    0.7427   -0.9131    1.2207 O   0  0  0  0  0  0  0  0  0  0  0  0
    1.2694   -0.0185    0.3312 C   0  0  0  0  0  0  0  0  0  0  0  0
    0.5583   -0.3968   -0.9761 C   0  0  0  0  0  0  0  0  0  0  0  0
    0.2912    1.1670    0.3533 C   0  0  0  0  0  0  0  0  0  0  0  0
   -1.7903    0.2922   -1.8167 H   0  0  0  0  0  0  0  0  0  0  0  0
   -1.0765   -1.8251    0.7439 H   0  0  0  0  0  0  0  0  0  0  0  0
   -1.1330   -0.3301    1.8200 H   0  0  0  0  0  0  0  0  0  0  0  0
    2.3011    0.1969    0.2868 H   0  0  0  0  0  0  0  0  0  0  0  0
    0.7996    0.2511   -1.8193 H   0  0  0  0  0  0  0  0  0  0  0  0
    0.5163   -1.4844   -1.1570 H   0  0  0  0  0  0  0  0  0  0  0  0
    0.5281    1.9738   -0.3305 H   0  0  0  0  0  0  0  0  0  0  0  0
    0.0507    1.4004    1.3947 H   0  0  0  0  0  0  0  0  0  0  0  0
  1  2  1  0
  2  3  1  0
  3  4  1  0
  4  5  1  0
  5  6  1  0
  5  7  1  0
  6  2  1  0
  7  2  1  0
  1  8  1  0
  3  9  1  0
  3 10  1  0
  5 11  1  0
  6 12  1  0
  6 13  1  0
  7 14  1  0
  7 15  1  0
M  END
