
     RDKit          3D

 19 21  0  0  0  0  0  0  0  0999 V2000
   -1.0413   -0.7779   -1.7812 O   0  0  0  0  0  0  0  0  0  0  0  0
   -0.8816   -0.2821   -0.5046 C   0  0  0  0  0  0  0  0  0  0  0  0
   -2.1432    0.1010    0.2296 C   0  0  0  0  0  0  0  0  0  0  0  0
   -1.1051    1.1284   -0.1644 C   0  0  0  0  0  0  0  0  0  0  0  0
   -0.1929    1.5393    0.7752 O   0  0  0  0  0  0  0  0  0  0  0  0
    0.7222    0.5538    0.9919 C   0  0  0  0  0  0  0  0  0  0  0  0
    1.9384    0.5602    0.0711 C   0  0  0  0  0  0  0  0  0  0  0  0
    1.5926   -0.8647   -0.2922 C   0  0  0  0  0  0  0  0  0  0  0  0
    0.2497   -0.7119    0.3655 C   0  0  0  0  0  0  0  0  0  0  0  0
   -1.9074   -1.2896   -1.7793 H   0  0  0  0  0  0  0  0  0  0  0  0
   -2.2184   -0.0476    1.3191 H   0  0  0  0  0  0  0  0  0  0  0  0
   -3.0836    0.0196   -0.3193 H   0  0  0  0  0  0  0  0  0  0  0  0
   -1.4601    1.8862   -0.8686 H   0  0  0  0  0  0  0  0  0  0  0  0
    1.0069    0.3733    2.0630 H   0  0  0  0  0  0  0  0  0  0  0  0
    2.8776    0.6655    0.6743 H   0  0  0  0  0  0  0  0  0  0  0  0
    1.8642    1.2928   -0.7703 H   0  0  0  0  0  0  0  0  0  0  0  0
    2.2275   -1.5669    0.3043 H   0  0  0  0  0  0  0  0  0  0  0  0
    1.5853   -1.0411   -1.3806 H   0  0  0  0  0  0  0  0  0  0  0  0
   -0.0308   -1.5381    1.0663 H   0  0  0  0  0  0  0  0  0  0  0  0
  1  2  1  0
  2  3  1  0
  3  4  1  0
  4  5  1  0
  5  6  1  0
  6  7  1  0
  7  8  1  0
  8  9  1  0
  4  2  1  0
  9  6  1  0
  9  2  1  0
  1 10  1  0
  3 11  1  0
  3 12  1  0
  4 13  1  0
  6 14  1  0
  7 15  1  0
  7 16  1  0
  8 17  1  0
  8 18  1  0
  9 19  1  0
M  END
