
     RDKit          3D

 19 20  0  0  0  0  0  0  0  0999 V2000
   -1.5724   -0.8051    1.6271 O   0  0  0  0  0  0  0  0  0  0  0  0
   -1.0620   -0.3660    0.4167 C   0  0  0  0  0  0  0  0  0  0  0  0
   -0.0828   -1.2777   -0.2224 C   0  0  0  0  0  0  0  0  0  0  0  0
    1.2568   -1.1709   -0.2221 C   0  0  0  0  0  0  0  0  0  0  0  0
    2.0524   -0.1030    0.4270 C   0  0  0  0  0  0  0  0  0  0  0  0
    1.7673    1.1370   -0.0801 O   0  0  0  0  0  0  0  0  0  0  0  0
    0.5281    1.2472   -0.6673 C   0  0  0  0  0  0  0  0  0  0  0  0
   -0.6210    1.0264    0.2636 C   0  0  0  0  0  0  0  0  0  0  0  0
   -1.8964    0.5500   -0.3619 C   0  0  0  0  0  0  0  0  0  0  0  0
   -2.0967   -1.6387    1.4172 H   0  0  0  0  0  0  0  0  0  0  0  0
   -0.5221   -2.1272   -0.7488 H   0  0  0  0  0  0  0  0  0  0  0  0
    1.7854   -1.9557   -0.7562 H   0  0  0  0  0  0  0  0  0  0  0  0
    3.1363   -0.2970    0.2716 H   0  0  0  0  0  0  0  0  0  0  0  0
    1.8359   -0.0701    1.5269 H   0  0  0  0  0  0  0  0  0  0  0  0
    0.4477    2.3139   -1.0301 H   0  0  0  0  0  0  0  0  0  0  0  0
    0.4544    0.6316   -1.5905 H   0  0  0  0  0  0  0  0  0  0  0  0
   -0.6398    1.6827    1.1453 H   0  0  0  0  0  0  0  0  0  0  0  0
   -2.8799    0.8479    0.0619 H   0  0  0  0  0  0  0  0  0  0  0  0
   -1.8910    0.3747   -1.4779 H   0  0  0  0  0  0  0  0  0  0  0  0
  1  2  1  0
  2  3  1  0
  3  4  2  0
  4  5  1  0
  5  6  1  0
  6  7  1  0
  7  8  1  0
  8  9  1  0
  8  2  1  0
  9  2  1  0
  1 10  1  0
  3 11  1  0
  4 12  1  0
  5 13  1  0
  5 14  1  0
  7 15  1  0
  7 16  1  0
  8 17  1  0
  9 18  1  0
  9 19  1  0
M  END
