
     RDKit          3D

 21 22  0  0  0  0  0  0  0  0999 V2000
   -2.2834   -0.4712   -0.9231 O   0  0  0  0  0  0  0  0  0  0  0  0
   -1.1108   -0.2380   -0.3116 C   0  0  0  0  0  0  0  0  0  0  0  0
   -1.1820    0.2787    1.0996 C   0  0  0  0  0  0  0  0  0  0  0  0
    0.2894    0.6796    1.3087 C   0  0  0  0  0  0  0  0  0  0  0  0
    0.9316    0.6794   -0.0312 C   0  0  0  0  0  0  0  0  0  0  0  0
    1.9300    1.5557   -0.2427 O   0  0  0  0  0  0  0  0  0  0  0  0
    1.2535   -0.7623   -0.4097 C   0  0  0  0  0  0  0  0  0  0  0  0
   -0.1322   -1.3942   -0.3146 C   0  0  0  0  0  0  0  0  0  0  0  0
   -0.2876    0.8936   -0.9474 C   0  0  0  0  0  0  0  0  0  0  0  0
   -2.1413   -1.0918   -1.6818 H   0  0  0  0  0  0  0  0  0  0  0  0
   -1.5124   -0.4589    1.8345 H   0  0  0  0  0  0  0  0  0  0  0  0
   -1.8351    1.1935    1.1280 H   0  0  0  0  0  0  0  0  0  0  0  0
    0.7419   -0.1311    1.9272 H   0  0  0  0  0  0  0  0  0  0  0  0
    0.3547    1.6295    1.8584 H   0  0  0  0  0  0  0  0  0  0  0  0
    2.7854    1.1815    0.0629 H   0  0  0  0  0  0  0  0  0  0  0  0
    1.9817   -1.2272    0.2515 H   0  0  0  0  0  0  0  0  0  0  0  0
    1.5289   -0.8252   -1.4982 H   0  0  0  0  0  0  0  0  0  0  0  0
   -0.3203   -2.1298   -1.0957 H   0  0  0  0  0  0  0  0  0  0  0  0
   -0.1544   -1.8921    0.6929 H   0  0  0  0  0  0  0  0  0  0  0  0
   -0.7876    1.8324   -0.7215 H   0  0  0  0  0  0  0  0  0  0  0  0
   -0.0501    0.6980   -1.9863 H   0  0  0  0  0  0  0  0  0  0  0  0
  1  2  1  0
  2  3  1  0
  3  4  1  0
  4  5  1  0
  5  6  1  0
  5  7  1  0
  7  8  1  0
  5  9  1  0
  8  2  1  0
  9  2  1  0
  1 10  1  0
  3 11  1  0
  3 12  1  0
  4 13  1  0
  4 14  1  0
  6 15  1  0
  7 16  1  0
  7 17  1  0
  8 18  1  0
  8 19  1  0
  9 20  1  0
  9 21  1  0
M  END
