
     RDKit          3D

 17 20  0  0  0  0  0  0  0  0999 V2000
   -0.5716    2.2375    0.4847 O   0  0  0  0  0  0  0  0  0  0  0  0
   -0.6030    0.9827    0.0051 C   0  0  0  0  0  0  0  0  0  0  0  0
    0.4876    0.4042   -0.8593 C   0  0  0  0  0  0  0  0  0  0  0  0
    1.5193   -0.2161    0.0949 C   0  0  0  0  0  0  0  0  0  0  0  0
    0.3157   -1.0943    0.4693 C   0  0  0  0  0  0  0  0  0  0  0  0
   -0.0360   -1.0025   -1.0243 C   0  0  0  0  0  0  0  0  0  0  0  0
   -1.3982   -0.8930   -1.0530 O   0  0  0  0  0  0  0  0  0  0  0  0
   -1.6923    0.0472   -0.0489 C   0  0  0  0  0  0  0  0  0  0  0  0
   -0.7429   -0.2026    1.0249 C   0  0  0  0  0  0  0  0  0  0  0  0
    0.3956    2.5276    0.5493 H   0  0  0  0  0  0  0  0  0  0  0  0
    0.8471    0.9367   -1.6988 H   0  0  0  0  0  0  0  0  0  0  0  0
    1.7358    0.4451    0.9585 H   0  0  0  0  0  0  0  0  0  0  0  0
    2.3423   -0.7291   -0.3779 H   0  0  0  0  0  0  0  0  0  0  0  0
    0.5077   -2.0533    0.8711 H   0  0  0  0  0  0  0  0  0  0  0  0
    0.4762   -1.6687   -1.6779 H   0  0  0  0  0  0  0  0  0  0  0  0
   -2.7404    0.2331    0.2187 H   0  0  0  0  0  0  0  0  0  0  0  0
   -0.8430    0.0455    2.0637 H   0  0  0  0  0  0  0  0  0  0  0  0
  1  2  1  0
  2  3  1  0
  3  4  1  0
  4  5  1  0
  5  6  1  0
  6  7  1  0
  7  8  1  0
  8  9  1  0
  8  2  1  0
  9  2  1  0
  6  3  1  0
  9  5  1  0
  1 10  1  0
  3 11  1  0
  4 12  1  0
  4 13  1  0
  5 14  1  0
  6 15  1  0
  8 16  1  0
  9 17  1  0
M  END
