
     RDKit          3D

 21 23  0  0  0  0  0  0  0  0999 V2000
   -1.0511    1.6973   -0.3233 O   0  0  0  0  0  0  0  0  0  0  0  0
   -1.0673    0.3353   -0.4509 C   0  0  0  0  0  0  0  0  0  0  0  0
   -2.2378   -0.4124   -0.9713 C   0  0  0  0  0  0  0  0  0  0  0  0
   -2.0135   -0.4616    0.4861 C   0  0  0  0  0  0  0  0  0  0  0  0
   -0.7831   -1.0381    1.1002 C   0  0  0  0  0  0  0  0  0  0  0  0
    0.0893   -0.5077    0.0050 C   0  0  0  0  0  0  0  0  0  0  0  0
    1.3101    0.2120    0.4530 C   0  0  0  0  0  0  0  0  0  0  0  0
    2.0742    1.1201   -0.4178 C   0  0  0  0  0  0  0  0  0  0  0  0
    2.6253   -0.2684   -0.1870 C   0  0  0  0  0  0  0  0  0  0  0  0
   -1.9201    2.0870   -0.0386 H   0  0  0  0  0  0  0  0  0  0  0  0
   -1.9595   -1.3010   -1.6088 H   0  0  0  0  0  0  0  0  0  0  0  0
   -3.0684    0.1942   -1.3337 H   0  0  0  0  0  0  0  0  0  0  0  0
   -2.6955    0.1616    1.1262 H   0  0  0  0  0  0  0  0  0  0  0  0
   -0.7836   -2.1591    1.1819 H   0  0  0  0  0  0  0  0  0  0  0  0
   -0.6143   -0.5979    2.1111 H   0  0  0  0  0  0  0  0  0  0  0  0
    0.2625   -1.3270   -0.7525 H   0  0  0  0  0  0  0  0  0  0  0  0
    1.3590    0.3967    1.5535 H   0  0  0  0  0  0  0  0  0  0  0  0
    1.7453    1.3622   -1.4578 H   0  0  0  0  0  0  0  0  0  0  0  0
    2.6839    1.9168    0.0454 H   0  0  0  0  0  0  0  0  0  0  0  0
    2.5616   -0.9925   -1.0104 H   0  0  0  0  0  0  0  0  0  0  0  0
    3.4829   -0.4176    0.4895 H   0  0  0  0  0  0  0  0  0  0  0  0
  1  2  1  0
  2  3  1  0
  3  4  1  0
  4  5  1  0
  5  6  1  0
  6  7  1  0
  7  8  1  0
  8  9  1  0
  4  2  1  0
  9  7  1  0
  6  2  1  0
  1 10  1  0
  3 11  1  0
  3 12  1  0
  4 13  1  0
  5 14  1  0
  5 15  1  0
  6 16  1  0
  7 17  1  0
  8 18  1  0
  8 19  1  0
  9 20  1  0
  9 21  1  0
M  END
