
     RDKit          3D

 15 16  0  0  0  0  0  0  0  0999 V2000
   -0.8560   -1.5171   -1.0975 O   0  0  0  0  0  0  0  0  0  0  0  0
   -0.4866   -0.5857   -0.1518 C   0  0  0  0  0  0  0  0  0  0  0  0
    0.6955   -0.9273    0.6781 C   0  0  0  0  0  0  0  0  0  0  0  0
    1.6252    0.2026    0.4544 C   0  0  0  0  0  0  0  0  0  0  0  0
    1.0364    1.1416   -0.2642 C   0  0  0  0  0  0  0  0  0  0  0  0
   -0.3401    0.8240   -0.6378 C   0  0  0  0  0  0  0  0  0  0  0  0
   -1.3954    0.4801    0.3135 C   0  0  0  0  0  0  0  0  0  0  0  0
   -1.7775   -1.3668   -1.3659 H   0  0  0  0  0  0  0  0  0  0  0  0
    0.4744   -1.0468    1.7582 H   0  0  0  0  0  0  0  0  0  0  0  0
    1.1755   -1.9004    0.3709 H   0  0  0  0  0  0  0  0  0  0  0  0
    2.6686    0.2678    0.8287 H   0  0  0  0  0  0  0  0  0  0  0  0
    1.5314    2.0811   -0.5587 H   0  0  0  0  0  0  0  0  0  0  0  0
   -0.6800    1.0838   -1.6739 H   0  0  0  0  0  0  0  0  0  0  0  0
   -2.4297    0.4445   -0.0333 H   0  0  0  0  0  0  0  0  0  0  0  0
   -1.2418    0.8185    1.3793 H   0  0  0  0  0  0  0  0  0  0  0  0
  1  2  1  0
  2  3  1  0
  3  4  1  0
  4  5  2  0
  5  6  1  0
  6  7  1  0
  6  2  1  0
  7  2  1  0
  1  8  1  0
  3  9  1  0
  3 10  1  0
  4 11  1  0
  5 12  1  0
  6 13  1  0
  7 14  1  0
  7 15  1  0
M  END
