
     RDKit          3D

 19 21  0  0  0  0  0  0  0  0999 V2000
   -1.2709    1.7847   -0.9776 O   0  0  0  0  0  0  0  0  0  0  0  0
   -0.6267    0.6769   -0.5058 C   0  0  0  0  0  0  0  0  0  0  0  0
   -1.4722   -0.4637   -0.0207 C   0  0  0  0  0  0  0  0  0  0  0  0
   -0.7824   -1.0448    1.1963 C   0  0  0  0  0  0  0  0  0  0  0  0
    0.5986   -0.4146    1.1704 C   0  0  0  0  0  0  0  0  0  0  0  0
    0.4136    0.8717    0.5527 C   0  0  0  0  0  0  0  0  0  0  0  0
    1.2187   -0.2599   -0.1394 C   0  0  0  0  0  0  0  0  0  0  0  0
    2.5998   -0.1170   -0.1692 O   0  0  0  0  0  0  0  0  0  0  0  0
    0.5017    0.1389   -1.3781 C   0  0  0  0  0  0  0  0  0  0  0  0
   -1.5464    2.3561   -0.2200 H   0  0  0  0  0  0  0  0  0  0  0  0
   -1.4766   -1.2505   -0.8293 H   0  0  0  0  0  0  0  0  0  0  0  0
   -2.5136   -0.1999    0.1589 H   0  0  0  0  0  0  0  0  0  0  0  0
   -0.6203   -2.1391    1.0587 H   0  0  0  0  0  0  0  0  0  0  0  0
   -1.3236   -0.8498    2.1286 H   0  0  0  0  0  0  0  0  0  0  0  0
    1.2409   -0.5232    2.0395 H   0  0  0  0  0  0  0  0  0  0  0  0
    0.9067    1.8023    0.7433 H   0  0  0  0  0  0  0  0  0  0  0  0
    2.9228   -0.7587   -0.8688 H   0  0  0  0  0  0  0  0  0  0  0  0
    0.2168   -0.6339   -2.0926 H   0  0  0  0  0  0  0  0  0  0  0  0
    1.0130    1.0244   -1.8469 H   0  0  0  0  0  0  0  0  0  0  0  0
  1  2  1  0
  2  3  1  0
  3  4  1  0
  4  5  1  0
  5  6  1  0
  6  7  1  0
  7  8  1  0
  7  9  1  0
  6  2  1  0
  9  2  1  0
  7  5  1  0
  1 10  1  0
  3 11  1  0
  3 12  1  0
  4 13  1  0
  4 14  1  0
  5 15  1  0
  6 16  1  0
  8 17  1  0
  9 18  1  0
  9 19  1  0
M  END
