
     RDKit          3D

 21 23  0  0  0  0  0  0  0  0999 V2000
    2.5941    0.9127    0.2325 O   0  0  0  0  0  0  0  0  0  0  0  0
    1.2754    0.4706    0.0046 C   0  0  0  0  0  0  0  0  0  0  0  0
    1.1806   -0.9145   -0.5033 C   0  0  0  0  0  0  0  0  0  0  0  0
    0.0861   -1.2390    0.4875 C   0  0  0  0  0  0  0  0  0  0  0  0
   -1.2604   -1.1186   -0.1729 C   0  0  0  0  0  0  0  0  0  0  0  0
   -1.3878    0.1971   -0.9282 C   0  0  0  0  0  0  0  0  0  0  0  0
   -1.2071    1.2806    0.0865 C   0  0  0  0  0  0  0  0  0  0  0  0
    0.2026    1.2442    0.6009 C   0  0  0  0  0  0  0  0  0  0  0  0
    0.5034   -0.0293    1.2492 C   0  0  0  0  0  0  0  0  0  0  0  0
    2.9348    1.1913   -0.6398 H   0  0  0  0  0  0  0  0  0  0  0  0
    0.9468   -1.0720   -1.5578 H   0  0  0  0  0  0  0  0  0  0  0  0
    2.0832   -1.5416   -0.2416 H   0  0  0  0  0  0  0  0  0  0  0  0
    0.1907   -2.1937    0.9968 H   0  0  0  0  0  0  0  0  0  0  0  0
   -1.3159   -1.9222   -0.9545 H   0  0  0  0  0  0  0  0  0  0  0  0
   -2.1044   -1.2085    0.5078 H   0  0  0  0  0  0  0  0  0  0  0  0
   -0.6134    0.3047   -1.7122 H   0  0  0  0  0  0  0  0  0  0  0  0
   -2.3816    0.2089   -1.4155 H   0  0  0  0  0  0  0  0  0  0  0  0
   -1.4404    2.2921   -0.2957 H   0  0  0  0  0  0  0  0  0  0  0  0
   -1.9042    1.1119    0.9551 H   0  0  0  0  0  0  0  0  0  0  0  0
    0.4848    2.1606    1.1586 H   0  0  0  0  0  0  0  0  0  0  0  0
    1.1329   -0.1352    2.1421 H   0  0  0  0  0  0  0  0  0  0  0  0
  1  2  1  0
  2  3  1  0
  3  4  1  0
  4  5  1  0
  5  6  1  0
  6  7  1  0
  7  8  1  0
  8  9  1  0
  8  2  1  0
  9  2  1  0
  9  4  1  0
  1 10  1  0
  3 11  1  0
  3 12  1  0
  4 13  1  0
  5 14  1  0
  5 15  1  0
  6 16  1  0
  6 17  1  0
  7 18  1  0
  7 19  1  0
  8 20  1  0
  9 21  1  0
M  END
