
     RDKit          3D

 20 21  0  0  0  0  0  0  0  0999 V2000
   -1.1692   -1.9896   -0.8538 O   0  0  0  0  0  0  0  0  0  0  0  0
   -0.5372   -0.8796   -0.3830 C   0  0  0  0  0  0  0  0  0  0  0  0
    0.9462   -0.9874   -0.2316 C   0  0  0  0  0  0  0  0  0  0  0  0
    1.5484    0.1837    0.4677 C   0  0  0  0  0  0  0  0  0  0  0  0
    0.7079    1.4240    0.4312 C   0  0  0  0  0  0  0  0  0  0  0  0
   -0.7330    1.1062    0.1762 C   0  0  0  0  0  0  0  0  0  0  0  0
   -1.1762   -0.1915    0.8121 C   0  0  0  0  0  0  0  0  0  0  0  0
   -0.8596    0.3899   -1.1740 C   0  0  0  0  0  0  0  0  0  0  0  0
   -1.0991   -2.7240   -0.2097 H   0  0  0  0  0  0  0  0  0  0  0  0
    1.2100   -1.9579    0.2510 H   0  0  0  0  0  0  0  0  0  0  0  0
    1.3981   -1.0361   -1.2562 H   0  0  0  0  0  0  0  0  0  0  0  0
    2.5461    0.4534    0.0145 H   0  0  0  0  0  0  0  0  0  0  0  0
    1.8131   -0.1137    1.5257 H   0  0  0  0  0  0  0  0  0  0  0  0
    1.0412    2.1583   -0.3442 H   0  0  0  0  0  0  0  0  0  0  0  0
    0.8027    1.9423    1.3988 H   0  0  0  0  0  0  0  0  0  0  0  0
   -1.4193    1.9428    0.2284 H   0  0  0  0  0  0  0  0  0  0  0  0
   -2.2738   -0.2905    0.7798 H   0  0  0  0  0  0  0  0  0  0  0  0
   -0.7542   -0.4311    1.7859 H   0  0  0  0  0  0  0  0  0  0  0  0
   -1.9074    0.3768   -1.5203 H   0  0  0  0  0  0  0  0  0  0  0  0
   -0.0848    0.6239   -1.8985 H   0  0  0  0  0  0  0  0  0  0  0  0
  1  2  1  0
  2  3  1  0
  3  4  1  0
  4  5  1  0
  5  6  1  0
  6  7  1  0
  6  8  1  0
  7  2  1  0
  8  2  1  0
  1  9  1  0
  3 10  1  0
  3 11  1  0
  4 12  1  0
  4 13  1  0
  5 14  1  0
  5 15  1  0
  6 16  1  0
  7 17  1  0
  7 18  1  0
  8 19  1  0
  8 20  1  0
M  END
