
     RDKit          3D

 15 16  0  0  0  0  0  0  0  0999 V2000
    2.1818    0.0071   -0.0709 O   0  0  0  0  0  0  0  0  0  0  0  0
    0.9359    0.0614    0.0003 C   0  0  0  0  0  0  0  0  0  0  0  0
    0.0723   -0.1473    1.2290 C   0  0  0  0  0  0  0  0  0  0  0  0
   -0.9243    0.1325    0.1485 C   0  0  0  0  0  0  0  0  0  0  0  0
   -2.1705    0.1680    0.2053 O   0  0  0  0  0  0  0  0  0  0  0  0
   -0.0775   -0.7999   -0.7122 C   0  0  0  0  0  0  0  0  0  0  0  0
    0.0226    1.2109   -0.3164 C   0  0  0  0  0  0  0  0  0  0  0  0
    2.5783   -0.8334   -0.3791 H   0  0  0  0  0  0  0  0  0  0  0  0
    0.0277   -1.1899    1.5755 H   0  0  0  0  0  0  0  0  0  0  0  0
    0.2342    0.6356    1.9667 H   0  0  0  0  0  0  0  0  0  0  0  0
   -2.6879   -0.2484   -0.5100 H   0  0  0  0  0  0  0  0  0  0  0  0
   -0.1818   -0.6466   -1.7876 H   0  0  0  0  0  0  0  0  0  0  0  0
   -0.0983   -1.8582   -0.4008 H   0  0  0  0  0  0  0  0  0  0  0  0
   -0.0788    1.4863   -1.3663 H   0  0  0  0  0  0  0  0  0  0  0  0
    0.1663    2.0219    0.4180 H   0  0  0  0  0  0  0  0  0  0  0  0
  1  2  1  0
  2  3  1  0
  3  4  1  0
  4  5  1  0
  4  6  1  0
  4  7  1  0
  6  2  1  0
  7  2  1  0
  1  8  1  0
  3  9  1  0
  3 10  1  0
  5 11  1  0
  6 12  1  0
  6 13  1  0
  7 14  1  0
  7 15  1  0
M  END
