
     RDKit          3D

 19 21  0  0  0  0  0  0  0  0999 V2000
   -1.4567   -0.1531   -1.5011 O   0  0  0  0  0  0  0  0  0  0  0  0
   -0.5644   -0.1999   -0.5423 C   0  0  0  0  0  0  0  0  0  0  0  0
   -0.3694    1.0621    0.4219 C   0  0  0  0  0  0  0  0  0  0  0  0
    0.8642    1.4931    0.2830 C   0  0  0  0  0  0  0  0  0  0  0  0
    1.7257    0.6400   -0.6833 C   0  0  0  0  0  0  0  0  0  0  0  0
    1.5948   -0.7015    0.2243 C   0  0  0  0  0  0  0  0  0  0  0  0
    0.1575   -1.1779    0.1836 C   0  0  0  0  0  0  0  0  0  0  0  0
   -1.0798   -0.7862    0.8170 C   0  0  0  0  0  0  0  0  0  0  0  0
   -1.7561    0.6925    0.7064 C   0  0  0  0  0  0  0  0  0  0  0  0
   -2.1484   -0.8617   -1.4968 H   0  0  0  0  0  0  0  0  0  0  0  0
    1.2057    2.3405    0.7933 H   0  0  0  0  0  0  0  0  0  0  0  0
    1.2779    0.4818   -1.6212 H   0  0  0  0  0  0  0  0  0  0  0  0
    2.7424    0.9454   -0.5416 H   0  0  0  0  0  0  0  0  0  0  0  0
    1.9599   -0.3825    1.1935 H   0  0  0  0  0  0  0  0  0  0  0  0
    2.3093   -1.3611   -0.2638 H   0  0  0  0  0  0  0  0  0  0  0  0
    0.1362   -2.2427   -0.2456 H   0  0  0  0  0  0  0  0  0  0  0  0
   -1.9459   -1.4723    0.7657 H   0  0  0  0  0  0  0  0  0  0  0  0
   -2.2151    0.9609    1.6424 H   0  0  0  0  0  0  0  0  0  0  0  0
   -2.4379    0.7225   -0.1356 H   0  0  0  0  0  0  0  0  0  0  0  0
  1  2  1  0
  2  3  1  0
  3  4  2  0
  4  5  1  0
  5  6  1  0
  6  7  1  0
  7  8  1  0
  8  9  1  0
  7  2  1  0
  8  2  1  0
  9  3  1  0
  1 10  1  0
  4 11  1  0
  5 12  1  0
  5 13  1  0
  6 14  1  0
  6 15  1  0
  7 16  1  0
  8 17  1  0
  9 18  1  0
  9 19  1  0
M  END
