
     RDKit          3D

 21 23  0  0  0  0  0  0  0  0999 V2000
   -1.6290   -2.1605    0.2114 O   0  0  0  0  0  0  0  0  0  0  0  0
   -0.9494   -0.9814    0.0581 C   0  0  0  0  0  0  0  0  0  0  0  0
   -1.8484    0.2551    0.3438 C   0  0  0  0  0  0  0  0  0  0  0  0
   -0.7780    1.3525    0.1518 C   0  0  0  0  0  0  0  0  0  0  0  0
    0.4937    0.8259    0.7362 C   0  0  0  0  0  0  0  0  0  0  0  0
    1.6839    0.7898   -0.2114 C   0  0  0  0  0  0  0  0  0  0  0  0
    1.6932   -0.6858   -0.6722 C   0  0  0  0  0  0  0  0  0  0  0  0
    0.2178   -0.9085   -0.7715 C   0  0  0  0  0  0  0  0  0  0  0  0
    0.1693   -0.6424    0.7690 C   0  0  0  0  0  0  0  0  0  0  0  0
   -2.1957   -2.3050   -0.5853 H   0  0  0  0  0  0  0  0  0  0  0  0
   -2.2435    0.2366    1.3504 H   0  0  0  0  0  0  0  0  0  0  0  0
   -2.5815    0.2784   -0.4736 H   0  0  0  0  0  0  0  0  0  0  0  0
   -1.1340    2.1861    0.8056 H   0  0  0  0  0  0  0  0  0  0  0  0
   -0.7238    1.7002   -0.8703 H   0  0  0  0  0  0  0  0  0  0  0  0
    0.7699    1.2454    1.7032 H   0  0  0  0  0  0  0  0  0  0  0  0
    2.6229    1.0509    0.2731 H   0  0  0  0  0  0  0  0  0  0  0  0
    1.4281    1.3718   -1.0982 H   0  0  0  0  0  0  0  0  0  0  0  0
    2.2213   -1.3258    0.0497 H   0  0  0  0  0  0  0  0  0  0  0  0
    2.1499   -0.8279   -1.6410 H   0  0  0  0  0  0  0  0  0  0  0  0
   -0.0787   -0.1212   -1.5207 H   0  0  0  0  0  0  0  0  0  0  0  0
    0.7119   -1.3342    1.3919 H   0  0  0  0  0  0  0  0  0  0  0  0
  1  2  1  0
  2  3  1  0
  3  4  1  0
  4  5  1  0
  5  6  1  0
  6  7  1  0
  7  8  1  0
  8  9  1  0
  8  2  1  0
  9  2  1  0
  9  5  1  0
  1 10  1  0
  3 11  1  0
  3 12  1  0
  4 13  1  0
  4 14  1  0
  5 15  1  0
  6 16  1  0
  6 17  1  0
  7 18  1  0
  7 19  1  0
  8 20  1  0
  9 21  1  0
M  END
