
     RDKit          3D

 17 18  0  0  0  0  0  0  0  0999 V2000
    2.1398    0.7071   -0.6929 O   0  0  0  0  0  0  0  0  0  0  0  0
    0.9735    0.3424   -0.0330 C   0  0  0  0  0  0  0  0  0  0  0  0
   -0.2046    1.2210   -0.3198 C   0  0  0  0  0  0  0  0  0  0  0  0
   -1.4256    0.4511    0.1035 C   0  0  0  0  0  0  0  0  0  0  0  0
   -1.0566   -0.9683   -0.2339 C   0  0  0  0  0  0  0  0  0  0  0  0
    0.4451   -1.0231   -0.0829 C   0  0  0  0  0  0  0  0  0  0  0  0
    0.9598   -0.4393    1.1978 C   0  0  0  0  0  0  0  0  0  0  0  0
    1.9907    0.5668   -1.6663 H   0  0  0  0  0  0  0  0  0  0  0  0
   -0.1934    1.4585   -1.4044 H   0  0  0  0  0  0  0  0  0  0  0  0
   -0.0996    2.1541    0.2668 H   0  0  0  0  0  0  0  0  0  0  0  0
   -2.3401    0.7255   -0.4279 H   0  0  0  0  0  0  0  0  0  0  0  0
   -1.5198    0.5615    1.2002 H   0  0  0  0  0  0  0  0  0  0  0  0
   -1.4901   -1.7177    0.4341 H   0  0  0  0  0  0  0  0  0  0  0  0
   -1.2693   -1.1601   -1.3178 H   0  0  0  0  0  0  0  0  0  0  0  0
    1.0148   -1.7914   -0.6168 H   0  0  0  0  0  0  0  0  0  0  0  0
    0.2392   -0.1255    1.9868 H   0  0  0  0  0  0  0  0  0  0  0  0
    1.8362   -0.9626    1.6067 H   0  0  0  0  0  0  0  0  0  0  0  0
  1  2  1  0
  2  3  1  0
  3  4  1  0
  4  5  1  0
  5  6  1  0
  6  7  1  0
  6  2  1  0
  7  2  1  0
  1  8  1  0
  3  9  1  0
  3 10  1  0
  4 11  1  0
  4 12  1  0
  5 13  1  0
  5 14  1  0
  6 15  1  0
  7 16  1  0
  7 17  1  0
M  END
