
     RDKit          3D

 19 21  0  0  0  0  0  0  0  0999 V2000
    2.2836   -1.0549   -0.4883 O   0  0  0  0  0  0  0  0  0  0  0  0
    1.0723   -0.4858   -0.0971 C   0  0  0  0  0  0  0  0  0  0  0  0
   -0.1094   -1.3863   -0.2790 C   0  0  0  0  0  0  0  0  0  0  0  0
   -1.3917   -0.8347    0.2532 C   0  0  0  0  0  0  0  0  0  0  0  0
   -1.1793    0.6039    0.6663 C   0  0  0  0  0  0  0  0  0  0  0  0
   -0.5500    1.4029   -0.4471 C   0  0  0  0  0  0  0  0  0  0  0  0
    0.8711    0.9180   -0.4297 C   0  0  0  0  0  0  0  0  0  0  0  0
    1.0223    0.4556    1.0063 C   0  0  0  0  0  0  0  0  0  0  0  0
   -0.1776    0.6060    1.6304 O   0  0  0  0  0  0  0  0  0  0  0  0
    2.2614   -1.0425   -1.4977 H   0  0  0  0  0  0  0  0  0  0  0  0
   -0.1771   -1.5891   -1.3875 H   0  0  0  0  0  0  0  0  0  0  0  0
    0.1170   -2.3768    0.1967 H   0  0  0  0  0  0  0  0  0  0  0  0
   -1.7191   -1.3745    1.1846 H   0  0  0  0  0  0  0  0  0  0  0  0
   -2.2175   -0.9553   -0.4779 H   0  0  0  0  0  0  0  0  0  0  0  0
   -2.0898    1.0678    1.0784 H   0  0  0  0  0  0  0  0  0  0  0  0
   -0.5640    2.4782   -0.1486 H   0  0  0  0  0  0  0  0  0  0  0  0
   -1.0538    1.3216   -1.4042 H   0  0  0  0  0  0  0  0  0  0  0  0
    1.6737    1.5120   -0.9000 H   0  0  0  0  0  0  0  0  0  0  0  0
    1.9280    0.7338    1.5412 H   0  0  0  0  0  0  0  0  0  0  0  0
  1  2  1  0
  2  3  1  0
  3  4  1  0
  4  5  1  0
  5  6  1  0
  6  7  1  0
  7  8  1  0
  8  9  1  0
  7  2  1  0
  8  2  1  0
  9  5  1  0
  1 10  1  0
  3 11  1  0
  3 12  1  0
  4 13  1  0
  4 14  1  0
  5 15  1  0
  6 16  1  0
  6 17  1  0
  7 18  1  0
  8 19  1  0
M  END
