
     RDKit          3D

 19 20  0  0  0  0  0  0  0  0999 V2000
   -1.3313   -1.3787   -1.2273 O   0  0  0  0  0  0  0  0  0  0  0  0
   -0.9140   -0.5091   -0.2173 C   0  0  0  0  0  0  0  0  0  0  0  0
   -0.0461   -1.0545    0.8671 C   0  0  0  0  0  0  0  0  0  0  0  0
    1.1362   -1.6133    0.4088 O   0  0  0  0  0  0  0  0  0  0  0  0
    1.9566   -0.6957   -0.2277 C   0  0  0  0  0  0  0  0  0  0  0  0
    1.6608    0.7099    0.2258 C   0  0  0  0  0  0  0  0  0  0  0  0
    0.5320    1.3937    0.0838 C   0  0  0  0  0  0  0  0  0  0  0  0
   -0.7081    0.8973   -0.5713 C   0  0  0  0  0  0  0  0  0  0  0  0
   -1.9021    0.5466    0.2238 C   0  0  0  0  0  0  0  0  0  0  0  0
   -1.8763   -0.8188   -1.8599 H   0  0  0  0  0  0  0  0  0  0  0  0
    0.1009   -0.2898    1.6477 H   0  0  0  0  0  0  0  0  0  0  0  0
   -0.6144   -1.8892    1.3571 H   0  0  0  0  0  0  0  0  0  0  0  0
    1.7260   -0.7167   -1.3143 H   0  0  0  0  0  0  0  0  0  0  0  0
    3.0099   -0.9075    0.0066 H   0  0  0  0  0  0  0  0  0  0  0  0
    2.4543    1.2510    0.7344 H   0  0  0  0  0  0  0  0  0  0  0  0
    0.4897    2.4007    0.4712 H   0  0  0  0  0  0  0  0  0  0  0  0
   -0.8687    1.2579   -1.6137 H   0  0  0  0  0  0  0  0  0  0  0  0
   -1.9355    0.8330    1.3010 H   0  0  0  0  0  0  0  0  0  0  0  0
   -2.8700    0.5831   -0.2957 H   0  0  0  0  0  0  0  0  0  0  0  0
  1  2  1  0
  2  3  1  0
  3  4  1  0
  4  5  1  0
  5  6  1  0
  6  7  2  0
  7  8  1  0
  8  9  1  0
  8  2  1  0
  9  2  1  0
  1 10  1  0
  3 11  1  0
  3 12  1  0
  5 13  1  0
  5 14  1  0
  6 15  1  0
  7 16  1  0
  8 17  1  0
  9 18  1  0
  9 19  1  0
M  END
