
     RDKit          3D

 19 21  0  0  0  0  0  0  0  0999 V2000
   -1.6127    0.4794   -1.5749 O   0  0  0  0  0  0  0  0  0  0  0  0
   -1.0464    0.3488   -0.3258 C   0  0  0  0  0  0  0  0  0  0  0  0
   -0.3905    1.5030    0.3345 C   0  0  0  0  0  0  0  0  0  0  0  0
    1.0118    1.5862    0.1664 O   0  0  0  0  0  0  0  0  0  0  0  0
    1.4076    0.4534   -0.4394 C   0  0  0  0  0  0  0  0  0  0  0  0
    2.2288   -0.6334   -0.0166 C   0  0  0  0  0  0  0  0  0  0  0  0
    0.9285   -0.6612    0.5502 C   0  0  0  0  0  0  0  0  0  0  0  0
   -0.3895   -1.0035   -0.0062 C   0  0  0  0  0  0  0  0  0  0  0  0
   -1.6468   -0.6608    0.6470 C   0  0  0  0  0  0  0  0  0  0  0  0
   -1.9735   -0.4184   -1.8395 H   0  0  0  0  0  0  0  0  0  0  0  0
   -0.6471    1.5725    1.4222 H   0  0  0  0  0  0  0  0  0  0  0  0
   -0.7846    2.4265   -0.1412 H   0  0  0  0  0  0  0  0  0  0  0  0
    1.0255    0.4007   -1.4945 H   0  0  0  0  0  0  0  0  0  0  0  0
    2.5221   -1.4077   -0.7586 H   0  0  0  0  0  0  0  0  0  0  0  0
    3.0981   -0.4046    0.6526 H   0  0  0  0  0  0  0  0  0  0  0  0
    0.8404   -0.3626    1.6359 H   0  0  0  0  0  0  0  0  0  0  0  0
   -0.3572   -1.7175   -0.8816 H   0  0  0  0  0  0  0  0  0  0  0  0
   -2.6076   -1.0675    0.3280 H   0  0  0  0  0  0  0  0  0  0  0  0
   -1.6067   -0.4333    1.7415 H   0  0  0  0  0  0  0  0  0  0  0  0
  1  2  1  0
  2  3  1  0
  3  4  1  0
  4  5  1  0
  5  6  1  0
  6  7  1  0
  7  8  1  0
  8  9  1  0
  8  2  1  0
  9  2  1  0
  7  5  1  0
  1 10  1  0
  3 11  1  0
  3 12  1  0
  5 13  1  0
  6 14  1  0
  6 15  1  0
  7 16  1  0
  8 17  1  0
  9 18  1  0
  9 19  1  0
M  END
