
     RDKit          3D

 17 19  0  0  0  0  0  0  0  0999 V2000
    1.1807    1.0989   -1.1353 O   0  0  0  0  0  0  0  0  0  0  0  0
    0.8942    0.5787    0.1547 C   0  0  0  0  0  0  0  0  0  0  0  0
    2.1886   -0.0746    0.6682 C   0  0  0  0  0  0  0  0  0  0  0  0
    1.9041   -0.9405   -0.4256 O   0  0  0  0  0  0  0  0  0  0  0  0
    0.6520   -0.9842    0.1800 C   0  0  0  0  0  0  0  0  0  0  0  0
   -0.4046   -0.0441    0.1639 C   0  0  0  0  0  0  0  0  0  0  0  0
   -1.4417    0.0359   -0.8705 C   0  0  0  0  0  0  0  0  0  0  0  0
   -2.3245    0.2871    0.3388 C   0  0  0  0  0  0  0  0  0  0  0  0
   -1.2503    0.2052    1.2110 O   0  0  0  0  0  0  0  0  0  0  0  0
    1.7843    0.5434   -1.6420 H   0  0  0  0  0  0  0  0  0  0  0  0
    3.0588    0.5708    0.4975 H   0  0  0  0  0  0  0  0  0  0  0  0
    2.1035   -0.5235    1.6550 H   0  0  0  0  0  0  0  0  0  0  0  0
    0.7952   -1.4570    1.2040 H   0  0  0  0  0  0  0  0  0  0  0  0
   -1.7424   -0.9331   -1.3395 H   0  0  0  0  0  0  0  0  0  0  0  0
   -1.4843    0.8883   -1.5457 H   0  0  0  0  0  0  0  0  0  0  0  0
   -2.8529    1.2619    0.3314 H   0  0  0  0  0  0  0  0  0  0  0  0
   -3.0606   -0.5132    0.5540 H   0  0  0  0  0  0  0  0  0  0  0  0
  1  2  1  0
  2  3  1  0
  3  4  1  0
  4  5  1  0
  5  6  1  0
  6  7  1  0
  7  8  1  0
  8  9  1  0
  5  2  1  0
  9  6  1  0
  6  2  1  0
  1 10  1  0
  3 11  1  0
  3 12  1  0
  5 13  1  0
  7 14  1  0
  7 15  1  0
  8 16  1  0
  8 17  1  0
M  END
