
     RDKit          3D

 21 22  0  0  0  0  0  0  0  0999 V2000
   -0.2991   -1.6652    1.2597 O   0  0  0  0  0  0  0  0  0  0  0  0
   -0.3102   -0.7789    0.2222 C   0  0  0  0  0  0  0  0  0  0  0  0
    0.8681   -0.8661   -0.6957 C   0  0  0  0  0  0  0  0  0  0  0  0
    1.8039    0.2437   -0.3097 C   0  0  0  0  0  0  0  0  0  0  0  0
    1.0670    1.1519    0.6361 C   0  0  0  0  0  0  0  0  0  0  0  0
   -0.3238    0.6240    0.7910 C   0  0  0  0  0  0  0  0  0  0  0  0
   -1.3340    1.3110   -0.0786 C   0  0  0  0  0  0  0  0  0  0  0  0
   -1.6283    0.4441   -1.1344 O   0  0  0  0  0  0  0  0  0  0  0  0
   -1.5640   -0.8445   -0.6275 C   0  0  0  0  0  0  0  0  0  0  0  0
   -0.0517   -2.5821    1.0491 H   0  0  0  0  0  0  0  0  0  0  0  0
    0.5980   -0.6970   -1.7719 H   0  0  0  0  0  0  0  0  0  0  0  0
    1.3065   -1.8676   -0.6456 H   0  0  0  0  0  0  0  0  0  0  0  0
    2.1456    0.8438   -1.1712 H   0  0  0  0  0  0  0  0  0  0  0  0
    2.6989   -0.2335    0.1538 H   0  0  0  0  0  0  0  0  0  0  0  0
    1.6090    1.0937    1.6187 H   0  0  0  0  0  0  0  0  0  0  0  0
    1.1128    2.2104    0.3146 H   0  0  0  0  0  0  0  0  0  0  0  0
   -0.5935    0.6266    1.8710 H   0  0  0  0  0  0  0  0  0  0  0  0
   -0.9826    2.2829   -0.4263 H   0  0  0  0  0  0  0  0  0  0  0  0
   -2.2765    1.3907    0.5191 H   0  0  0  0  0  0  0  0  0  0  0  0
   -1.3966   -1.5301   -1.5028 H   0  0  0  0  0  0  0  0  0  0  0  0
   -2.4496   -1.1577   -0.0716 H   0  0  0  0  0  0  0  0  0  0  0  0
  1  2  1  0
  2  3  1  0
  3  4  1  0
  4  5  1  0
  5  6  1  0
  6  7  1  0
  7  8  1  0
  8  9  1  0
  6  2  1  0
  9  2  1  0
  1 10  1  0
  3 11  1  0
  3 12  1  0
  4 13  1  0
  4 14  1  0
  5 15  1  0
  5 16  1  0
  6 17  1  0
  7 18  1  0
  7 19  1  0
  9 20  1  0
  9 21  1  0
M  END
