
     RDKit          3D

 19 20  0  0  0  0  0  0  0  0999 V2000
   -1.5276   -1.4016   -0.5894 O   0  0  0  0  0  0  0  0  0  0  0  0
   -0.4883   -0.6247   -0.0384 C   0  0  0  0  0  0  0  0  0  0  0  0
   -1.0633    0.2949    1.0039 C   0  0  0  0  0  0  0  0  0  0  0  0
   -1.2697    1.3241   -0.1156 C   0  0  0  0  0  0  0  0  0  0  0  0
   -0.1885    0.5600   -0.8881 C   0  0  0  0  0  0  0  0  0  0  0  0
    1.0123    1.1386   -0.7279 O   0  0  0  0  0  0  0  0  0  0  0  0
    1.9666    0.4951   -0.0118 C   0  0  0  0  0  0  0  0  0  0  0  0
    1.9028   -0.8595    0.0400 O   0  0  0  0  0  0  0  0  0  0  0  0
    0.7086   -1.4193    0.3511 C   0  0  0  0  0  0  0  0  0  0  0  0
   -1.2275   -1.6463   -1.4991 H   0  0  0  0  0  0  0  0  0  0  0  0
   -0.3465    0.6110    1.7708 H   0  0  0  0  0  0  0  0  0  0  0  0
   -2.0744   -0.0041    1.3681 H   0  0  0  0  0  0  0  0  0  0  0  0
   -2.2197    1.2106   -0.6384 H   0  0  0  0  0  0  0  0  0  0  0  0
   -0.9843    2.3319    0.1962 H   0  0  0  0  0  0  0  0  0  0  0  0
   -0.4550    0.3719   -1.9520 H   0  0  0  0  0  0  0  0  0  0  0  0
    2.0673    0.9767    1.0063 H   0  0  0  0  0  0  0  0  0  0  0  0
    2.9526    0.7512   -0.5107 H   0  0  0  0  0  0  0  0  0  0  0  0
    0.6402   -2.4066   -0.1955 H   0  0  0  0  0  0  0  0  0  0  0  0
    0.5945   -1.7040    1.4305 H   0  0  0  0  0  0  0  0  0  0  0  0
  1  2  1  0
  2  3  1  0
  3  4  1  0
  4  5  1  0
  5  6  1  0
  6  7  1  0
  7  8  1  0
  8  9  1  0
  5  2  1  0
  9  2  1  0
  1 10  1  0
  3 11  1  0
  3 12  1  0
  4 13  1  0
  4 14  1  0
  5 15  1  0
  7 16  1  0
  7 17  1  0
  9 18  1  0
  9 19  1  0
M  END
