
     RDKit          3D

 19 21  0  0  0  0  0  0  0  0999 V2000
    2.3331   -1.1921   -0.2171 O   0  0  0  0  0  0  0  0  0  0  0  0
    1.1279   -0.5582    0.1296 C   0  0  0  0  0  0  0  0  0  0  0  0
    1.2574    0.8940    0.3939 C   0  0  0  0  0  0  0  0  0  0  0  0
    0.1334    1.1981   -0.5815 C   0  0  0  0  0  0  0  0  0  0  0  0
   -1.1261    1.4118    0.1759 C   0  0  0  0  0  0  0  0  0  0  0  0
   -1.7972    0.3943    0.6832 C   0  0  0  0  0  0  0  0  0  0  0  0
   -1.4002   -1.0251    0.5684 C   0  0  0  0  0  0  0  0  0  0  0  0
   -0.1299   -1.2415   -0.1703 C   0  0  0  0  0  0  0  0  0  0  0  0
    0.2707   -0.1842   -1.1134 C   0  0  0  0  0  0  0  0  0  0  0  0
    2.7571   -1.6114    0.5459 H   0  0  0  0  0  0  0  0  0  0  0  0
    1.0998    1.2585    1.4168 H   0  0  0  0  0  0  0  0  0  0  0  0
    2.2047    1.3634   -0.0029 H   0  0  0  0  0  0  0  0  0  0  0  0
    0.3700    1.9656   -1.3335 H   0  0  0  0  0  0  0  0  0  0  0  0
   -1.4642    2.4398    0.2903 H   0  0  0  0  0  0  0  0  0  0  0  0
   -2.7074    0.6304    1.2231 H   0  0  0  0  0  0  0  0  0  0  0  0
   -1.3772   -1.5371    1.5738 H   0  0  0  0  0  0  0  0  0  0  0  0
   -2.2265   -1.5439    0.0187 H   0  0  0  0  0  0  0  0  0  0  0  0
   -0.0208   -2.2880   -0.5750 H   0  0  0  0  0  0  0  0  0  0  0  0
    0.6953   -0.3742   -2.0965 H   0  0  0  0  0  0  0  0  0  0  0  0
  1  2  1  0
  2  3  1  0
  3  4  1  0
  4  5  1  0
  5  6  2  0
  6  7  1  0
  7  8  1  0
  8  9  1  0
  8  2  1  0
  9  2  1  0
  9  4  1  0
  1 10  1  0
  3 11  1  0
  3 12  1  0
  4 13  1  0
  5 14  1  0
  6 15  1  0
  7 16  1  0
  7 17  1  0
  8 18  1  0
  9 19  1  0
M  END
