
     RDKit          3D

 18 19  0  0  0  0  0  0  0  0999 V2000
    1.5551   -1.4627   -0.8073 O   0  0  0  0  0  0  0  0  0  0  0  0
    0.6556   -0.6950   -0.0681 C   0  0  0  0  0  0  0  0  0  0  0  0
   -0.7471   -1.1271   -0.1137 C   0  0  0  0  0  0  0  0  0  0  0  0
   -1.7655   -0.0555   -0.2821 C   0  0  0  0  0  0  0  0  0  0  0  0
   -1.3908    1.1468    0.2908 O   0  0  0  0  0  0  0  0  0  0  0  0
   -0.1943    1.5894   -0.1866 C   0  0  0  0  0  0  0  0  0  0  0  0
    0.9713    0.7059    0.1058 C   0  0  0  0  0  0  0  0  0  0  0  0
    1.1049   -0.1398    1.2734 C   0  0  0  0  0  0  0  0  0  0  0  0
    2.2677   -0.8761   -1.2164 H   0  0  0  0  0  0  0  0  0  0  0  0
   -0.9079   -1.9228   -0.8976 H   0  0  0  0  0  0  0  0  0  0  0  0
   -0.9852   -1.6602    0.8536 H   0  0  0  0  0  0  0  0  0  0  0  0
   -2.0054    0.0333   -1.3646 H   0  0  0  0  0  0  0  0  0  0  0  0
   -2.7213   -0.3599    0.2373 H   0  0  0  0  0  0  0  0  0  0  0  0
   -0.2723    1.6715   -1.3072 H   0  0  0  0  0  0  0  0  0  0  0  0
    0.0201    2.6190    0.1613 H   0  0  0  0  0  0  0  0  0  0  0  0
    1.9279    1.0953   -0.3465 H   0  0  0  0  0  0  0  0  0  0  0  0
    2.1026   -0.4850    1.5671 H   0  0  0  0  0  0  0  0  0  0  0  0
    0.3847   -0.0772    2.1008 H   0  0  0  0  0  0  0  0  0  0  0  0
  1  2  1  0
  2  3  1  0
  3  4  1  0
  4  5  1  0
  5  6  1  0
  6  7  1  0
  7  8  1  0
  7  2  1  0
  8  2  1  0
  1  9  1  0
  3 10  1  0
  3 11  1  0
  4 12  1  0
  4 13  1  0
  6 14  1  0
  6 15  1  0
  7 16  1  0
  8 17  1  0
  8 18  1  0
M  END
