
     RDKit          3D

 16 19  0  0  0  0  0  0  0  0999 V2000
   -1.4161    0.1281   -1.0923 O   0  0  0  0  0  0  0  0  0  0  0  0
   -0.7266   -0.4238   -0.1021 C   0  0  0  0  0  0  0  0  0  0  0  0
    0.1729   -1.3345   -0.0397 C   0  0  0  0  0  0  0  0  0  0  0  0
    1.0273   -0.2806   -0.7435 C   0  0  0  0  0  0  0  0  0  0  0  0
    0.5377    1.0745   -0.2323 C   0  0  0  0  0  0  0  0  0  0  0  0
   -0.7515    0.9073    0.6920 C   0  0  0  0  0  0  0  0  0  0  0  0
    0.3125    0.4558    0.8729 C   0  0  0  0  0  0  0  0  0  0  0  0
   -0.8144   -0.6660    1.0214 C   0  0  0  0  0  0  0  0  0  0  0  0
   -1.0523    0.9061   -1.5564 H   0  0  0  0  0  0  0  0  0  0  0  0
    0.1964   -2.3439   -0.1726 H   0  0  0  0  0  0  0  0  0  0  0  0
    0.9196   -0.3852   -1.8217 H   0  0  0  0  0  0  0  0  0  0  0  0
    2.0761   -0.4795   -0.3939 H   0  0  0  0  0  0  0  0  0  0  0  0
    0.8923    1.9965   -0.4746 H   0  0  0  0  0  0  0  0  0  0  0  0
   -1.6728    1.3565    0.3391 H   0  0  0  0  0  0  0  0  0  0  0  0
    0.9008    0.0002    1.6263 H   0  0  0  0  0  0  0  0  0  0  0  0
   -0.6020   -0.9115    2.0773 H   0  0  0  0  0  0  0  0  0  0  0  0
  1  2  1  0
  2  3  1  0
  3  4  1  0
  4  5  1  0
  5  6  1  0
  6  7  1  0
  6  8  1  0
  7  2  1  0
  8  2  1  0
  8  3  1  0
  7  5  1  0
  1  9  1  0
  3 10  1  0
  4 11  1  0
  4 12  1  0
  5 13  1  0
  6 14  1  0
  7 15  1  0
  8 16  1  0
M  END
