
     RDKit          3D

 21 23  0  0  0  0  0  0  0  0999 V2000
   -0.2909    1.9513    1.0538 O   0  0  0  0  0  0  0  0  0  0  0  0
   -0.4329    0.8604    0.2237 C   0  0  0  0  0  0  0  0  0  0  0  0
   -1.4275    0.9134   -0.9037 C   0  0  0  0  0  0  0  0  0  0  0  0
   -1.6727    0.0442    0.3006 C   0  0  0  0  0  0  0  0  0  0  0  0
   -1.2916   -1.4061    0.2099 C   0  0  0  0  0  0  0  0  0  0  0  0
    0.1797   -1.3962    0.5611 C   0  0  0  0  0  0  0  0  0  0  0  0
    0.7052   -0.0932    0.1010 C   0  0  0  0  0  0  0  0  0  0  0  0
    1.6453    0.1005   -0.9971 C   0  0  0  0  0  0  0  0  0  0  0  0
    2.0935    0.2506    0.4387 C   0  0  0  0  0  0  0  0  0  0  0  0
   -0.1221    2.7507    0.4930 H   0  0  0  0  0  0  0  0  0  0  0  0
   -2.0682    1.8099   -1.0413 H   0  0  0  0  0  0  0  0  0  0  0  0
   -1.2624    0.3557   -1.8333 H   0  0  0  0  0  0  0  0  0  0  0  0
   -2.5335    0.3576    0.9271 H   0  0  0  0  0  0  0  0  0  0  0  0
   -1.3678   -1.7886   -0.8346 H   0  0  0  0  0  0  0  0  0  0  0  0
   -1.8420   -2.0375    0.9319 H   0  0  0  0  0  0  0  0  0  0  0  0
    0.2542   -1.4200    1.6852 H   0  0  0  0  0  0  0  0  0  0  0  0
    0.7126   -2.2852    0.2084 H   0  0  0  0  0  0  0  0  0  0  0  0
    1.6180    1.0955   -1.5305 H   0  0  0  0  0  0  0  0  0  0  0  0
    2.0467   -0.6928   -1.6300 H   0  0  0  0  0  0  0  0  0  0  0  0
    2.7515   -0.6037    0.7739 H   0  0  0  0  0  0  0  0  0  0  0  0
    2.3048    1.2336    0.8623 H   0  0  0  0  0  0  0  0  0  0  0  0
  1  2  1  0
  2  3  1  0
  3  4  1  0
  4  5  1  0
  5  6  1  0
  6  7  1  0
  7  8  1  0
  8  9  1  0
  4  2  1  0
  9  7  1  0
  7  2  1  0
  1 10  1  0
  3 11  1  0
  3 12  1  0
  4 13  1  0
  5 14  1  0
  5 15  1  0
  6 16  1  0
  6 17  1  0
  8 18  1  0
  8 19  1  0
  9 20  1  0
  9 21  1  0
M  END
