
     RDKit          3D

 16 17  0  0  0  0  0  0  0  0999 V2000
   -2.0319    0.6497   -0.5473 O   0  0  0  0  0  0  0  0  0  0  0  0
   -0.8180    0.2765   -0.0518 C   0  0  0  0  0  0  0  0  0  0  0  0
    0.2052    1.3314    0.1142 C   0  0  0  0  0  0  0  0  0  0  0  0
    1.4184    0.8504   -0.0863 C   0  0  0  0  0  0  0  0  0  0  0  0
    1.3897   -0.5986   -0.4166 C   0  0  0  0  0  0  0  0  0  0  0  0
   -0.0877   -0.8327   -0.7238 C   0  0  0  0  0  0  0  0  0  0  0  0
   -0.6080   -1.7827    0.1132 O   0  0  0  0  0  0  0  0  0  0  0  0
   -0.9039   -0.7504    1.0239 C   0  0  0  0  0  0  0  0  0  0  0  0
   -2.2842    1.5687   -0.3647 H   0  0  0  0  0  0  0  0  0  0  0  0
    0.0034    2.3675    0.3669 H   0  0  0  0  0  0  0  0  0  0  0  0
    2.3324    1.4216   -0.0232 H   0  0  0  0  0  0  0  0  0  0  0  0
    1.7146   -1.2061    0.4695 H   0  0  0  0  0  0  0  0  0  0  0  0
    2.0318   -0.8491   -1.2936 H   0  0  0  0  0  0  0  0  0  0  0  0
   -0.3073   -0.9323   -1.8046 H   0  0  0  0  0  0  0  0  0  0  0  0
   -0.1183   -0.5965    1.7895 H   0  0  0  0  0  0  0  0  0  0  0  0
   -1.9363   -0.9173    1.4347 H   0  0  0  0  0  0  0  0  0  0  0  0
  1  2  1  0
  2  3  1  0
  3  4  2  0
  4  5  1  0
  5  6  1  0
  6  7  1  0
  7  8  1  0
  6  2  1  0
  8  2  1  0
  1  9  1  0
  3 10  1  0
  4 11  1  0
  5 12  1  0
  5 13  1  0
  6 14  1  0
  8 15  1  0
  8 16  1  0
M  END
