
     RDKit          3D

 21 22  0  0  0  0  0  0  0  0999 V2000
   -1.7201   -1.4351   -1.0708 O   0  0  0  0  0  0  0  0  0  0  0  0
   -1.0127   -0.5793   -0.2070 C   0  0  0  0  0  0  0  0  0  0  0  0
    0.0360   -1.2116    0.6067 C   0  0  0  0  0  0  0  0  0  0  0  0
    1.4260   -1.1264    0.0582 C   0  0  0  0  0  0  0  0  0  0  0  0
    1.9303    0.2987   -0.0148 C   0  0  0  0  0  0  0  0  0  0  0  0
    1.0535    1.0487    0.8043 O   0  0  0  0  0  0  0  0  0  0  0  0
    0.1542    1.6493   -0.0358 C   0  0  0  0  0  0  0  0  0  0  0  0
   -0.9845    0.8247   -0.4740 C   0  0  0  0  0  0  0  0  0  0  0  0
   -1.9418    0.3700    0.5635 C   0  0  0  0  0  0  0  0  0  0  0  0
   -1.6613   -1.0781   -1.9764 H   0  0  0  0  0  0  0  0  0  0  0  0
    0.0837   -0.8206    1.6647 H   0  0  0  0  0  0  0  0  0  0  0  0
   -0.2035   -2.2958    0.7266 H   0  0  0  0  0  0  0  0  0  0  0  0
    2.0969   -1.6439    0.8047 H   0  0  0  0  0  0  0  0  0  0  0  0
    1.5720   -1.6739   -0.8874 H   0  0  0  0  0  0  0  0  0  0  0  0
    1.8922    0.6377   -1.0617 H   0  0  0  0  0  0  0  0  0  0  0  0
    2.9820    0.3942    0.3395 H   0  0  0  0  0  0  0  0  0  0  0  0
    0.7353    1.9972   -0.9401 H   0  0  0  0  0  0  0  0  0  0  0  0
   -0.2564    2.5461    0.5158 H   0  0  0  0  0  0  0  0  0  0  0  0
   -1.4821    1.1851   -1.4225 H   0  0  0  0  0  0  0  0  0  0  0  0
   -1.6841    0.5867    1.6261 H   0  0  0  0  0  0  0  0  0  0  0  0
   -3.0155    0.3261    0.3803 H   0  0  0  0  0  0  0  0  0  0  0  0
  1  2  1  0
  2  3  1  0
  3  4  1  0
  4  5  1  0
  5  6  1  0
  6  7  1  0
  7  8  1  0
  8  9  1  0
  8  2  1  0
  9  2  1  0
  1 10  1  0
  3 11  1  0
  3 12  1  0
  4 13  1  0
  4 14  1  0
  5 15  1  0
  5 16  1  0
  7 17  1  0
  7 18  1  0
  8 19  1  0
  9 20  1  0
  9 21  1  0
M  END
