
     RDKit          3D

 19 21  0  0  0  0  0  0  0  0999 V2000
    1.5243    1.0266    0.1804 O   0  0  0  0  0  0  0  0  0  0  0  0
    1.0158   -0.2789    0.2095 C   0  0  0  0  0  0  0  0  0  0  0  0
    1.3599   -1.1180   -0.8849 C   0  0  0  0  0  0  0  0  0  0  0  0
    0.0150   -0.6933   -0.9185 C   0  0  0  0  0  0  0  0  0  0  0  0
   -0.6422    0.5926   -1.1849 C   0  0  0  0  0  0  0  0  0  0  0  0
   -1.2738    1.0069    0.1565 C   0  0  0  0  0  0  0  0  0  0  0  0
   -1.1248   -0.0204    1.2305 C   0  0  0  0  0  0  0  0  0  0  0  0
   -0.1701    0.4708    2.2502 O   0  0  0  0  0  0  0  0  0  0  0  0
    0.2390   -0.5518    1.4402 C   0  0  0  0  0  0  0  0  0  0  0  0
    2.4873    0.9270   -0.0914 H   0  0  0  0  0  0  0  0  0  0  0  0
    2.0762   -0.7460   -1.6441 H   0  0  0  0  0  0  0  0  0  0  0  0
    1.5786   -2.1987   -0.6651 H   0  0  0  0  0  0  0  0  0  0  0  0
   -0.7652   -1.4692   -0.6473 H   0  0  0  0  0  0  0  0  0  0  0  0
    0.0757    1.3982   -1.4554 H   0  0  0  0  0  0  0  0  0  0  0  0
   -1.3967    0.5723   -1.9926 H   0  0  0  0  0  0  0  0  0  0  0  0
   -2.3830    1.1046   -0.0373 H   0  0  0  0  0  0  0  0  0  0  0  0
   -0.9507    2.0251    0.4505 H   0  0  0  0  0  0  0  0  0  0  0  0
   -1.9688   -0.4774    1.7381 H   0  0  0  0  0  0  0  0  0  0  0  0
    0.3034   -1.5704    1.8658 H   0  0  0  0  0  0  0  0  0  0  0  0
  1  2  1  0
  2  3  1  0
  3  4  1  0
  4  5  1  0
  5  6  1  0
  6  7  1  0
  7  8  1  0
  8  9  1  0
  4  2  1  0
  9  7  1  0
  9  2  1  0
  1 10  1  0
  3 11  1  0
  3 12  1  0
  4 13  1  0
  5 14  1  0
  5 15  1  0
  6 16  1  0
  6 17  1  0
  7 18  1  0
  9 19  1  0
M  END
