
     RDKit          3D

 19 20  0  0  0  0  0  0  0  0999 V2000
   -0.3518   -1.8196    0.9895 O   0  0  0  0  0  0  0  0  0  0  0  0
   -0.0619   -0.7713    0.1537 C   0  0  0  0  0  0  0  0  0  0  0  0
   -1.1028   -0.5763   -0.8923 C   0  0  0  0  0  0  0  0  0  0  0  0
   -1.9080    0.5626   -0.4095 C   0  0  0  0  0  0  0  0  0  0  0  0
   -1.2889    1.1847    0.5486 C   0  0  0  0  0  0  0  0  0  0  0  0
    0.0004    0.5672    0.8461 C   0  0  0  0  0  0  0  0  0  0  0  0
    1.1095    1.3162    0.2095 C   0  0  0  0  0  0  0  0  0  0  0  0
    1.8632    0.4831   -0.4956 C   0  0  0  0  0  0  0  0  0  0  0  0
    1.3339   -0.9055   -0.4010 C   0  0  0  0  0  0  0  0  0  0  0  0
   -0.0384   -1.6090    1.8861 H   0  0  0  0  0  0  0  0  0  0  0  0
   -0.6979   -0.4252   -1.9143 H   0  0  0  0  0  0  0  0  0  0  0  0
   -1.7803   -1.4786   -0.8642 H   0  0  0  0  0  0  0  0  0  0  0  0
   -2.9012    0.7896   -0.8594 H   0  0  0  0  0  0  0  0  0  0  0  0
   -1.6903    2.0630    1.0648 H   0  0  0  0  0  0  0  0  0  0  0  0
    0.1755    0.3827    1.9244 H   0  0  0  0  0  0  0  0  0  0  0  0
    1.2487    2.3802    0.3265 H   0  0  0  0  0  0  0  0  0  0  0  0
    2.7488    0.7413   -1.0731 H   0  0  0  0  0  0  0  0  0  0  0  0
    1.3668   -1.4374   -1.3718 H   0  0  0  0  0  0  0  0  0  0  0  0
    1.9747   -1.4478    0.3319 H   0  0  0  0  0  0  0  0  0  0  0  0
  1  2  1  0
  2  3  1  0
  3  4  1  0
  4  5  2  0
  5  6  1  0
  6  7  1  0
  7  8  2  0
  8  9  1  0
  6  2  1  0
  9  2  1  0
  1 10  1  0
  3 11  1  0
  3 12  1  0
  4 13  1  0
  5 14  1  0
  6 15  1  0
  7 16  1  0
  8 17  1  0
  9 18  1  0
  9 19  1  0
M  END
