
     RDKit          3D

 19 21  0  0  0  0  0  0  0  0999 V2000
    2.3976   -0.1060   -1.2431 O   0  0  0  0  0  0  0  0  0  0  0  0
    1.4270   -0.2556   -0.2892 C   0  0  0  0  0  0  0  0  0  0  0  0
    1.5811    0.5499    0.9581 C   0  0  0  0  0  0  0  0  0  0  0  0
    0.4856    0.9385   -0.0036 C   0  0  0  0  0  0  0  0  0  0  0  0
   -0.6584    0.0028   -0.0610 C   0  0  0  0  0  0  0  0  0  0  0  0
   -1.8607    0.3618   -0.8195 C   0  0  0  0  0  0  0  0  0  0  0  0
   -2.6466   -0.0339    0.2825 O   0  0  0  0  0  0  0  0  0  0  0  0
   -1.5186   -0.1673    1.1208 C   0  0  0  0  0  0  0  0  0  0  0  0
    0.2121   -1.0930   -0.5125 C   0  0  0  0  0  0  0  0  0  0  0  0
    3.2131   -0.6256   -0.9720 H   0  0  0  0  0  0  0  0  0  0  0  0
    2.4070    1.2567    1.0100 H   0  0  0  0  0  0  0  0  0  0  0  0
    1.2230    0.0178    1.8794 H   0  0  0  0  0  0  0  0  0  0  0  0
    0.6161    1.7747   -0.6984 H   0  0  0  0  0  0  0  0  0  0  0  0
   -2.0462    1.4285   -1.0091 H   0  0  0  0  0  0  0  0  0  0  0  0
   -2.0611   -0.3022   -1.6711 H   0  0  0  0  0  0  0  0  0  0  0  0
   -1.4893    0.7125    1.8090 H   0  0  0  0  0  0  0  0  0  0  0  0
   -1.4744   -1.1028    1.6909 H   0  0  0  0  0  0  0  0  0  0  0  0
    0.0733   -1.3461   -1.5907 H   0  0  0  0  0  0  0  0  0  0  0  0
    0.1194   -2.0109    0.1194 H   0  0  0  0  0  0  0  0  0  0  0  0
  1  2  1  0
  2  3  1  0
  3  4  1  0
  4  5  1  0
  5  6  1  0
  6  7  1  0
  7  8  1  0
  5  9  1  0
  4  2  1  0
  8  5  1  0
  9  2  1  0
  1 10  1  0
  3 11  1  0
  3 12  1  0
  4 13  1  0
  6 14  1  0
  6 15  1  0
  8 16  1  0
  8 17  1  0
  9 18  1  0
  9 19  1  0
M  END
