
     RDKit          3D

 16 18  0  0  0  0  0  0  0  0999 V2000
   -0.0240    1.7298    1.3723 O   0  0  0  0  0  0  0  0  0  0  0  0
    0.1395    0.6867    0.5659 C   0  0  0  0  0  0  0  0  0  0  0  0
    0.3159   -0.7323    0.9523 C   0  0  0  0  0  0  0  0  0  0  0  0
    1.3962   -0.8341   -0.1359 C   0  0  0  0  0  0  0  0  0  0  0  0
    0.8758    0.5136   -0.6389 C   0  0  0  0  0  0  0  0  0  0  0  0
   -0.6251    0.5514   -0.7593 C   0  0  0  0  0  0  0  0  0  0  0  0
   -1.4227   -0.6794   -0.4624 C   0  0  0  0  0  0  0  0  0  0  0  0
   -0.8043   -1.3944    0.5243 O   0  0  0  0  0  0  0  0  0  0  0  0
   -0.5107    2.4650    0.8897 H   0  0  0  0  0  0  0  0  0  0  0  0
    0.6595   -0.9487    1.9605 H   0  0  0  0  0  0  0  0  0  0  0  0
    1.2072   -1.6258   -0.8826 H   0  0  0  0  0  0  0  0  0  0  0  0
    2.4130   -0.8087    0.2596 H   0  0  0  0  0  0  0  0  0  0  0  0
    1.5200    1.1886   -1.1705 H   0  0  0  0  0  0  0  0  0  0  0  0
   -1.1440    1.4803   -1.0250 H   0  0  0  0  0  0  0  0  0  0  0  0
   -1.5831   -1.2593   -1.4048 H   0  0  0  0  0  0  0  0  0  0  0  0
   -2.4133   -0.3327   -0.0454 H   0  0  0  0  0  0  0  0  0  0  0  0
  1  2  1  0
  2  3  1  0
  3  4  1  0
  4  5  1  0
  5  6  1  0
  6  7  1  0
  7  8  1  0
  5  2  1  0
  6  2  1  0
  8  3  1  0
  1  9  1  0
  3 10  1  0
  4 11  1  0
  4 12  1  0
  5 13  1  0
  6 14  1  0
  7 15  1  0
  7 16  1  0
M  END
