
     RDKit          3D

 17 19  0  0  0  0  0  0  0  0999 V2000
   -2.1887    0.8208    0.5368 O   0  0  0  0  0  0  0  0  0  0  0  0
   -0.9757    0.1824    0.5252 C   0  0  0  0  0  0  0  0  0  0  0  0
   -0.8197   -1.2781    0.4850 C   0  0  0  0  0  0  0  0  0  0  0  0
   -0.6826   -0.5712   -0.8040 C   0  0  0  0  0  0  0  0  0  0  0  0
    0.6366    0.0569   -1.2044 C   0  0  0  0  0  0  0  0  0  0  0  0
    1.7073   -0.3560   -0.2771 C   0  0  0  0  0  0  0  0  0  0  0  0
    1.4680    0.2912    0.8628 C   0  0  0  0  0  0  0  0  0  0  0  0
    0.2326    1.0802    0.6066 C   0  0  0  0  0  0  0  0  0  0  0  0
    0.4168    1.3878   -0.7650 O   0  0  0  0  0  0  0  0  0  0  0  0
   -2.1934    1.4470   -0.2541 H   0  0  0  0  0  0  0  0  0  0  0  0
    0.0843   -1.7356    0.9596 H   0  0  0  0  0  0  0  0  0  0  0  0
   -1.7336   -1.8772    0.6126 H   0  0  0  0  0  0  0  0  0  0  0  0
   -1.4837   -0.6154   -1.5438 H   0  0  0  0  0  0  0  0  0  0  0  0
    0.8695   -0.0102   -2.2561 H   0  0  0  0  0  0  0  0  0  0  0  0
    2.5088   -1.0409   -0.4953 H   0  0  0  0  0  0  0  0  0  0  0  0
    2.0381    0.2611    1.7844 H   0  0  0  0  0  0  0  0  0  0  0  0
    0.1155    1.9572    1.2268 H   0  0  0  0  0  0  0  0  0  0  0  0
  1  2  1  0
  2  3  1  0
  3  4  1  0
  4  5  1  0
  5  6  1  0
  6  7  2  0
  7  8  1  0
  8  9  1  0
  4  2  1  0
  9  5  1  0
  8  2  1  0
  1 10  1  0
  3 11  1  0
  3 12  1  0
  4 13  1  0
  5 14  1  0
  6 15  1  0
  7 16  1  0
  8 17  1  0
M  END
