
     RDKit          3D

 19 20  0  0  0  0  0  0  0  0999 V2000
   -1.6423   -1.5294   -0.1655 O   0  0  0  0  0  0  0  0  0  0  0  0
   -0.6806   -0.5639   -0.0080 C   0  0  0  0  0  0  0  0  0  0  0  0
    0.7177   -1.1087    0.1334 C   0  0  0  0  0  0  0  0  0  0  0  0
    1.6596    0.0705   -0.1316 C   0  0  0  0  0  0  0  0  0  0  0  0
    0.8640    1.3271    0.0983 C   0  0  0  0  0  0  0  0  0  0  0  0
    0.0246    1.5202   -1.0055 O   0  0  0  0  0  0  0  0  0  0  0  0
   -0.6662    0.3263   -1.2596 C   0  0  0  0  0  0  0  0  0  0  0  0
    0.0720    1.2794    1.2291 O   0  0  0  0  0  0  0  0  0  0  0  0
   -0.9711    0.3817    1.1495 C   0  0  0  0  0  0  0  0  0  0  0  0
   -2.2517   -1.5788    0.6071 H   0  0  0  0  0  0  0  0  0  0  0  0
    0.8754   -1.8961   -0.6447 H   0  0  0  0  0  0  0  0  0  0  0  0
    0.9088   -1.5281    1.1479 H   0  0  0  0  0  0  0  0  0  0  0  0
    1.8919    0.0321   -1.2207 H   0  0  0  0  0  0  0  0  0  0  0  0
    2.5824    0.0062    0.4459 H   0  0  0  0  0  0  0  0  0  0  0  0
    1.5356    2.1983    0.1920 H   0  0  0  0  0  0  0  0  0  0  0  0
   -0.1868   -0.2261   -2.0709 H   0  0  0  0  0  0  0  0  0  0  0  0
   -1.7222    0.5942   -1.4389 H   0  0  0  0  0  0  0  0  0  0  0  0
   -1.9249    0.9024    0.8722 H   0  0  0  0  0  0  0  0  0  0  0  0
   -1.0864   -0.2074    2.0701 H   0  0  0  0  0  0  0  0  0  0  0  0
  1  2  1  0
  2  3  1  0
  3  4  1  0
  4  5  1  0
  5  6  1  0
  6  7  1  0
  5  8  1  0
  8  9  1  0
  7  2  1  0
  9  2  1  0
  1 10  1  0
  3 11  1  0
  3 12  1  0
  4 13  1  0
  4 14  1  0
  5 15  1  0
  7 16  1  0
  7 17  1  0
  9 18  1  0
  9 19  1  0
M  END
