
     RDKit          3D

 19 20  0  0  0  0  0  0  0  0999 V2000
   -1.3456    1.5787   -1.2099 O   0  0  0  0  0  0  0  0  0  0  0  0
   -0.8339    0.6732   -0.2882 C   0  0  0  0  0  0  0  0  0  0  0  0
    0.2152    1.1287    0.6554 C   0  0  0  0  0  0  0  0  0  0  0  0
    1.4864    1.1710    0.1397 O   0  0  0  0  0  0  0  0  0  0  0  0
    2.1185   -0.0533    0.0680 C   0  0  0  0  0  0  0  0  0  0  0  0
    1.4741   -0.8505   -0.8870 O   0  0  0  0  0  0  0  0  0  0  0  0
    0.3813   -1.5122   -0.2902 C   0  0  0  0  0  0  0  0  0  0  0  0
   -0.8487   -0.7313   -0.6557 C   0  0  0  0  0  0  0  0  0  0  0  0
   -1.8435   -0.3048    0.3344 C   0  0  0  0  0  0  0  0  0  0  0  0
   -1.2623    2.5051   -0.9039 H   0  0  0  0  0  0  0  0  0  0  0  0
    0.2262    0.5634    1.6189 H   0  0  0  0  0  0  0  0  0  0  0  0
   -0.0422    2.1863    0.9600 H   0  0  0  0  0  0  0  0  0  0  0  0
    2.1553   -0.5910    1.0372 H   0  0  0  0  0  0  0  0  0  0  0  0
    3.1434    0.1241   -0.3216 H   0  0  0  0  0  0  0  0  0  0  0  0
    0.3333   -2.5244   -0.7547 H   0  0  0  0  0  0  0  0  0  0  0  0
    0.5056   -1.5441    0.8001 H   0  0  0  0  0  0  0  0  0  0  0  0
   -1.2457   -1.0047   -1.6738 H   0  0  0  0  0  0  0  0  0  0  0  0
   -2.9122   -0.2050   -0.0052 H   0  0  0  0  0  0  0  0  0  0  0  0
   -1.7052   -0.6092    1.3767 H   0  0  0  0  0  0  0  0  0  0  0  0
  1  2  1  0
  2  3  1  0
  3  4  1  0
  4  5  1  0
  5  6  1  0
  6  7  1  0
  7  8  1  0
  8  9  1  0
  8  2  1  0
  9  2  1  0
  1 10  1  0
  3 11  1  0
  3 12  1  0
  5 13  1  0
  5 14  1  0
  7 15  1  0
  7 16  1  0
  8 17  1  0
  9 18  1  0
  9 19  1  0
M  END
