
     RDKit          3D

 21 23  0  0  0  0  0  0  0  0999 V2000
    0.9132   -1.0706    1.8350 O   0  0  0  0  0  0  0  0  0  0  0  0
    0.5124   -0.4323    0.7355 C   0  0  0  0  0  0  0  0  0  0  0  0
    0.0847    0.9847    0.7845 C   0  0  0  0  0  0  0  0  0  0  0  0
   -1.3568    0.9829    0.3664 C   0  0  0  0  0  0  0  0  0  0  0  0
   -1.7075   -0.4033   -0.0795 C   0  0  0  0  0  0  0  0  0  0  0  0
   -0.4453   -1.2051   -0.1143 C   0  0  0  0  0  0  0  0  0  0  0  0
    0.4610   -0.9743   -1.2943 C   0  0  0  0  0  0  0  0  0  0  0  0
    1.3742   -0.1671   -0.4092 C   0  0  0  0  0  0  0  0  0  0  0  0
    0.9706    1.2808   -0.4091 C   0  0  0  0  0  0  0  0  0  0  0  0
    1.8500   -1.0195    2.1019 H   0  0  0  0  0  0  0  0  0  0  0  0
    0.3100    1.5605    1.6988 H   0  0  0  0  0  0  0  0  0  0  0  0
   -1.4905    1.6950   -0.4868 H   0  0  0  0  0  0  0  0  0  0  0  0
   -1.9546    1.3622    1.2014 H   0  0  0  0  0  0  0  0  0  0  0  0
   -2.3648   -0.8449    0.7077 H   0  0  0  0  0  0  0  0  0  0  0  0
   -2.1864   -0.3740   -1.0743 H   0  0  0  0  0  0  0  0  0  0  0  0
   -0.5458   -2.2692    0.1767 H   0  0  0  0  0  0  0  0  0  0  0  0
   -0.0239   -0.4131   -2.1242 H   0  0  0  0  0  0  0  0  0  0  0  0
    1.0095   -1.8737   -1.6614 H   0  0  0  0  0  0  0  0  0  0  0  0
    2.4232   -0.4060   -0.4084 H   0  0  0  0  0  0  0  0  0  0  0  0
    0.4178    1.5684   -1.3374 H   0  0  0  0  0  0  0  0  0  0  0  0
    1.7491    2.0186   -0.2089 H   0  0  0  0  0  0  0  0  0  0  0  0
  1  2  1  0
  2  3  1  0
  3  4  1  0
  4  5  1  0
  5  6  1  0
  6  7  1  0
  7  8  1  0
  8  9  1  0
  6  2  1  0
  8  2  1  0
  9  3  1  0
  1 10  1  0
  3 11  1  0
  4 12  1  0
  4 13  1  0
  5 14  1  0
  5 15  1  0
  6 16  1  0
  7 17  1  0
  7 18  1  0
  8 19  1  0
  9 20  1  0
  9 21  1  0
M  END
