
     RDKit          3D

 21 23  0  0  0  0  0  0  0  0999 V2000
    2.2074    0.5159    1.0836 O   0  0  0  0  0  0  0  0  0  0  0  0
    1.0223    0.2449    0.5050 C   0  0  0  0  0  0  0  0  0  0  0  0
    0.4427   -1.1162    0.7963 C   0  0  0  0  0  0  0  0  0  0  0  0
   -0.6892   -1.1750   -0.2414 C   0  0  0  0  0  0  0  0  0  0  0  0
   -1.8347   -0.3243    0.2698 C   0  0  0  0  0  0  0  0  0  0  0  0
   -1.1012    0.8724   -0.3373 C   0  0  0  0  0  0  0  0  0  0  0  0
   -0.0245    1.3400    0.6355 C   0  0  0  0  0  0  0  0  0  0  0  0
   -0.4043   -0.0979   -1.2433 C   0  0  0  0  0  0  0  0  0  0  0  0
    1.0889    0.1433   -1.0295 C   0  0  0  0  0  0  0  0  0  0  0  0
    3.0045    0.2395    0.5863 H   0  0  0  0  0  0  0  0  0  0  0  0
    1.1824   -1.8688    0.4679 H   0  0  0  0  0  0  0  0  0  0  0  0
    0.0785   -1.2428    1.8121 H   0  0  0  0  0  0  0  0  0  0  0  0
   -0.9356   -2.1651   -0.6055 H   0  0  0  0  0  0  0  0  0  0  0  0
   -1.8804   -0.2571    1.3790 H   0  0  0  0  0  0  0  0  0  0  0  0
   -2.8152   -0.5339   -0.1506 H   0  0  0  0  0  0  0  0  0  0  0  0
   -1.7207    1.6382   -0.7779 H   0  0  0  0  0  0  0  0  0  0  0  0
    0.4357    2.2601    0.2078 H   0  0  0  0  0  0  0  0  0  0  0  0
   -0.3899    1.4605    1.6541 H   0  0  0  0  0  0  0  0  0  0  0  0
   -0.7422   -0.2133   -2.2522 H   0  0  0  0  0  0  0  0  0  0  0  0
    1.4475    1.0543   -1.4905 H   0  0  0  0  0  0  0  0  0  0  0  0
    1.6280   -0.7747   -1.2691 H   0  0  0  0  0  0  0  0  0  0  0  0
  1  2  1  0
  2  3  1  0
  3  4  1  0
  4  5  1  0
  5  6  1  0
  6  7  1  0
  6  8  1  0
  8  9  1  0
  7  2  1  0
  9  2  1  0
  8  4  1  0
  1 10  1  0
  3 11  1  0
  3 12  1  0
  4 13  1  0
  5 14  1  0
  5 15  1  0
  6 16  1  0
  7 17  1  0
  7 18  1  0
  8 19  1  0
  9 20  1  0
  9 21  1  0
M  END
