
     RDKit          3D

 15 18  0  0  0  0  0  0  0  0999 V2000
   -2.0180   -0.7780   -0.8617 O   0  0  0  0  0  0  0  0  0  0  0  0
   -0.9301   -0.1172   -0.6186 C   0  0  0  0  0  0  0  0  0  0  0  0
    0.3046    0.1521   -1.2788 C   0  0  0  0  0  0  0  0  0  0  0  0
    0.3574   -0.9975   -0.4455 C   0  0  0  0  0  0  0  0  0  0  0  0
    0.6098   -0.2516    0.7657 C   0  0  0  0  0  0  0  0  0  0  0  0
    1.4744   -0.4285    1.7421 O   0  0  0  0  0  0  0  0  0  0  0  0
    0.6877    1.0241   -0.1430 C   0  0  0  0  0  0  0  0  0  0  0  0
   -0.4835    0.6371    0.5724 C   0  0  0  0  0  0  0  0  0  0  0  0
   -1.2476    1.3061    1.4277 O   0  0  0  0  0  0  0  0  0  0  0  0
   -1.9886   -1.7691   -0.9695 H   0  0  0  0  0  0  0  0  0  0  0  0
    0.5400    0.3112   -2.3017 H   0  0  0  0  0  0  0  0  0  0  0  0
    0.2915   -2.0362   -0.6228 H   0  0  0  0  0  0  0  0  0  0  0  0
    2.2769   -0.9133    1.4679 H   0  0  0  0  0  0  0  0  0  0  0  0
    1.5422    1.5875    0.0217 H   0  0  0  0  0  0  0  0  0  0  0  0
   -1.4165    2.2732    1.2441 H   0  0  0  0  0  0  0  0  0  0  0  0
  1  2  1  0
  2  3  1  0
  3  4  1  0
  4  5  1  0
  5  6  1  0
  5  7  1  0
  7  8  1  0
  8  9  1  0
  4  2  1  0
  8  5  1  0
  8  2  1  0
  7  3  1  0
  1 10  1  0
  3 11  1  0
  4 12  1  0
  6 13  1  0
  7 14  1  0
  9 15  1  0
M  END
