
     RDKit          3D

 18 19  0  0  0  0  0  0  0  0999 V2000
   -1.6923    1.3563    0.5017 O   0  0  0  0  0  0  0  0  0  0  0  0
   -0.6694    0.5136    0.1741 C   0  0  0  0  0  0  0  0  0  0  0  0
    0.6883    1.1046   -0.0243 C   0  0  0  0  0  0  0  0  0  0  0  0
    1.6997   -0.0028    0.2555 C   0  0  0  0  0  0  0  0  0  0  0  0
    1.2900   -1.1215   -0.4402 O   0  0  0  0  0  0  0  0  0  0  0  0
   -0.0506   -1.4024   -0.3317 C   0  0  0  0  0  0  0  0  0  0  0  0
   -0.6434   -0.7928    0.9460 C   0  0  0  0  0  0  0  0  0  0  0  0
   -0.9168   -0.3630   -1.0622 C   0  0  0  0  0  0  0  0  0  0  0  0
   -1.4962    2.2830    0.2330 H   0  0  0  0  0  0  0  0  0  0  0  0
    0.8234    1.3433   -1.1205 H   0  0  0  0  0  0  0  0  0  0  0  0
    0.8896    2.0207    0.5157 H   0  0  0  0  0  0  0  0  0  0  0  0
    2.6679    0.3634   -0.1701 H   0  0  0  0  0  0  0  0  0  0  0  0
    1.8499   -0.1488    1.3237 H   0  0  0  0  0  0  0  0  0  0  0  0
   -0.3340   -2.4320   -0.5278 H   0  0  0  0  0  0  0  0  0  0  0  0
   -0.0069   -0.8320    1.8203 H   0  0  0  0  0  0  0  0  0  0  0  0
   -1.6803   -1.1694    1.0472 H   0  0  0  0  0  0  0  0  0  0  0  0
   -0.4808    0.0194   -1.9874 H   0  0  0  0  0  0  0  0  0  0  0  0
   -1.9382   -0.7397   -1.1528 H   0  0  0  0  0  0  0  0  0  0  0  0
  1  2  1  0
  2  3  1  0
  3  4  1  0
  4  5  1  0
  5  6  1  0
  6  7  1  0
  6  8  1  0
  7  2  1  0
  8  2  1  0
  1  9  1  0
  3 10  1  0
  3 11  1  0
  4 12  1  0
  4 13  1  0
  6 14  1  0
  7 15  1  0
  7 16  1  0
  8 17  1  0
  8 18  1  0
M  END
