
     RDKit          3D

 17 19  0  0  0  0  0  0  0  0999 V2000
   -0.1214    0.0203    2.0679 O   0  0  0  0  0  0  0  0  0  0  0  0
   -0.2339    0.0820    0.7174 C   0  0  0  0  0  0  0  0  0  0  0  0
   -1.5873   -0.2088    0.1089 C   0  0  0  0  0  0  0  0  0  0  0  0
   -1.3981   -1.0311   -0.9824 O   0  0  0  0  0  0  0  0  0  0  0  0
   -0.0460   -0.9068   -1.3687 C   0  0  0  0  0  0  0  0  0  0  0  0
    0.6214    0.3792   -1.1710 C   0  0  0  0  0  0  0  0  0  0  0  0
    0.3932    1.2650    0.0134 C   0  0  0  0  0  0  0  0  0  0  0  0
    0.6612   -0.7811   -0.1179 C   0  0  0  0  0  0  0  0  0  0  0  0
    1.8988   -1.1536    0.2145 O   0  0  0  0  0  0  0  0  0  0  0  0
   -1.0300    0.1760    2.4783 H   0  0  0  0  0  0  0  0  0  0  0  0
   -2.2971   -0.6246    0.8601 H   0  0  0  0  0  0  0  0  0  0  0  0
   -2.0153    0.7559   -0.2940 H   0  0  0  0  0  0  0  0  0  0  0  0
    0.2761   -1.5403   -2.1786 H   0  0  0  0  0  0  0  0  0  0  0  0
    1.5359    0.5710   -1.7277 H   0  0  0  0  0  0  0  0  0  0  0  0
    1.3821    1.4813    0.5086 H   0  0  0  0  0  0  0  0  0  0  0  0
   -0.2641    2.1213   -0.1156 H   0  0  0  0  0  0  0  0  0  0  0  0
    2.2244   -0.6055    0.9868 H   0  0  0  0  0  0  0  0  0  0  0  0
  1  2  1  0
  2  3  1  0
  3  4  1  0
  4  5  1  0
  5  6  1  0
  6  7  1  0
  6  8  1  0
  8  9  1  0
  7  2  1  0
  8  2  1  0
  8  5  1  0
  1 10  1  0
  3 11  1  0
  3 12  1  0
  5 13  1  0
  6 14  1  0
  7 15  1  0
  7 16  1  0
  9 17  1  0
M  END
