
     RDKit          3D

 19 21  0  0  0  0  0  0  0  0999 V2000
   -0.8137    0.0873    2.2740 O   0  0  0  0  0  0  0  0  0  0  0  0
   -0.4438    0.0164    0.9487 C   0  0  0  0  0  0  0  0  0  0  0  0
    0.7676    0.7367    0.4419 C   0  0  0  0  0  0  0  0  0  0  0  0
    0.2550    1.5033   -0.6982 C   0  0  0  0  0  0  0  0  0  0  0  0
   -0.9837    1.1445   -1.0142 C   0  0  0  0  0  0  0  0  0  0  0  0
   -1.4599    0.0688   -0.1015 C   0  0  0  0  0  0  0  0  0  0  0  0
   -0.6435   -1.1550    0.1081 C   0  0  0  0  0  0  0  0  0  0  0  0
    0.6408   -1.3144   -0.6847 C   0  0  0  0  0  0  0  0  0  0  0  0
    1.6548   -0.3929   -0.0206 C   0  0  0  0  0  0  0  0  0  0  0  0
   -1.7754    0.3692    2.3094 H   0  0  0  0  0  0  0  0  0  0  0  0
    1.2686    1.3509    1.2111 H   0  0  0  0  0  0  0  0  0  0  0  0
    0.8068    2.2840   -1.2421 H   0  0  0  0  0  0  0  0  0  0  0  0
   -1.5990    1.5475   -1.8123 H   0  0  0  0  0  0  0  0  0  0  0  0
   -2.5092    0.0468    0.2048 H   0  0  0  0  0  0  0  0  0  0  0  0
   -1.1924   -2.0571    0.3972 H   0  0  0  0  0  0  0  0  0  0  0  0
    0.9540   -2.3649   -0.6795 H   0  0  0  0  0  0  0  0  0  0  0  0
    0.5282   -0.9345   -1.7314 H   0  0  0  0  0  0  0  0  0  0  0  0
    2.4036   -0.0600   -0.7603 H   0  0  0  0  0  0  0  0  0  0  0  0
    2.1412   -0.8766    0.8498 H   0  0  0  0  0  0  0  0  0  0  0  0
  1  2  1  0
  2  3  1  0
  3  4  1  0
  4  5  2  0
  5  6  1  0
  6  7  1  0
  7  8  1  0
  8  9  1  0
  6  2  1  0
  7  2  1  0
  9  3  1  0
  1 10  1  0
  3 11  1  0
  4 12  1  0
  5 13  1  0
  6 14  1  0
  7 15  1  0
  8 16  1  0
  8 17  1  0
  9 18  1  0
  9 19  1  0
M  END
