
     RDKit          3D

 19 22  0  0  0  0  0  0  0  0999 V2000
    1.7653    1.0862    1.4001 O   0  0  0  0  0  0  0  0  0  0  0  0
    1.1593    0.4214    0.3690 C   0  0  0  0  0  0  0  0  0  0  0  0
    1.8349   -0.7073   -0.2915 C   0  0  0  0  0  0  0  0  0  0  0  0
    0.7349   -1.0660    0.6363 C   0  0  0  0  0  0  0  0  0  0  0  0
   -0.6518   -1.0028    0.0792 C   0  0  0  0  0  0  0  0  0  0  0  0
   -0.6428   -0.0486   -1.0826 C   0  0  0  0  0  0  0  0  0  0  0  0
   -2.0295    0.3325   -0.6374 C   0  0  0  0  0  0  0  0  0  0  0  0
   -1.2430    0.2501    0.6450 C   0  0  0  0  0  0  0  0  0  0  0  0
   -0.1521    0.9610   -0.0963 C   0  0  0  0  0  0  0  0  0  0  0  0
    2.3445    1.8012    0.9816 H   0  0  0  0  0  0  0  0  0  0  0  0
    2.8536   -0.9380    0.0606 H   0  0  0  0  0  0  0  0  0  0  0  0
    1.6578   -0.9542   -1.3597 H   0  0  0  0  0  0  0  0  0  0  0  0
    0.8924   -1.3795    1.6661 H   0  0  0  0  0  0  0  0  0  0  0  0
   -1.2459   -1.8912    0.0211 H   0  0  0  0  0  0  0  0  0  0  0  0
   -0.3276   -0.2207   -2.0134 H   0  0  0  0  0  0  0  0  0  0  0  0
   -2.3247    1.3724   -0.8746 H   0  0  0  0  0  0  0  0  0  0  0  0
   -2.7953   -0.4421   -0.7647 H   0  0  0  0  0  0  0  0  0  0  0  0
   -1.5738    0.4184    1.5719 H   0  0  0  0  0  0  0  0  0  0  0  0
   -0.2560    2.0071   -0.3106 H   0  0  0  0  0  0  0  0  0  0  0  0
  1  2  1  0
  2  3  1  0
  3  4  1  0
  4  5  1  0
  5  6  1  0
  6  7  1  0
  7  8  1  0
  8  9  1  0
  4  2  1  0
  8  5  1  0
  9  2  1  0
  9  6  1  0
  1 10  1  0
  3 11  1  0
  3 12  1  0
  4 13  1  0
  5 14  1  0
  6 15  1  0
  7 16  1  0
  7 17  1  0
  8 18  1  0
  9 19  1  0
M  END
