
     RDKit          3D

 19 21  0  0  0  0  0  0  0  0999 V2000
    0.2871    1.8301    1.1160 O   0  0  0  0  0  0  0  0  0  0  0  0
   -0.0926    0.6931    0.5303 C   0  0  0  0  0  0  0  0  0  0  0  0
   -1.5596    0.3791    0.3846 C   0  0  0  0  0  0  0  0  0  0  0  0
   -1.4348   -1.0350   -0.2153 C   0  0  0  0  0  0  0  0  0  0  0  0
    0.0366   -1.0830   -0.4160 C   0  0  0  0  0  0  0  0  0  0  0  0
    0.4598    0.3281   -0.8215 C   0  0  0  0  0  0  0  0  0  0  0  0
    1.9300    0.2552   -0.5516 C   0  0  0  0  0  0  0  0  0  0  0  0
    1.9280   -0.3764    0.7192 O   0  0  0  0  0  0  0  0  0  0  0  0
    0.5928   -0.6015    0.9311 C   0  0  0  0  0  0  0  0  0  0  0  0
    0.0461    2.6078    0.5872 H   0  0  0  0  0  0  0  0  0  0  0  0
   -1.9949    1.0135   -0.4006 H   0  0  0  0  0  0  0  0  0  0  0  0
   -2.0989    0.3685    1.3318 H   0  0  0  0  0  0  0  0  0  0  0  0
   -1.9684   -1.1056   -1.1702 H   0  0  0  0  0  0  0  0  0  0  0  0
   -1.7761   -1.7598    0.5419 H   0  0  0  0  0  0  0  0  0  0  0  0
    0.5156   -1.9042   -0.8810 H   0  0  0  0  0  0  0  0  0  0  0  0
    0.0699    0.7476   -1.7021 H   0  0  0  0  0  0  0  0  0  0  0  0
    2.4427    1.2206   -0.5212 H   0  0  0  0  0  0  0  0  0  0  0  0
    2.3667   -0.4726   -1.2667 H   0  0  0  0  0  0  0  0  0  0  0  0
    0.2500   -1.1057    1.8041 H   0  0  0  0  0  0  0  0  0  0  0  0
  1  2  1  0
  2  3  1  0
  3  4  1  0
  4  5  1  0
  5  6  1  0
  6  7  1  0
  7  8  1  0
  8  9  1  0
  6  2  1  0
  9  2  1  0
  9  5  1  0
  1 10  1  0
  3 11  1  0
  3 12  1  0
  4 13  1  0
  4 14  1  0
  5 15  1  0
  6 16  1  0
  7 17  1  0
  7 18  1  0
  9 19  1  0
M  END
