
     RDKit          3D

 21 23  0  0  0  0  0  0  0  0999 V2000
    0.6867    2.0705    1.3368 O   0  0  0  0  0  0  0  0  0  0  0  0
    0.5121    1.1186    0.3033 C   0  0  0  0  0  0  0  0  0  0  0  0
    1.5762    0.9247   -0.7077 C   0  0  0  0  0  0  0  0  0  0  0  0
    1.3621   -0.0487    0.3660 C   0  0  0  0  0  0  0  0  0  0  0  0
    0.7162   -1.3813    0.1545 C   0  0  0  0  0  0  0  0  0  0  0  0
   -0.3322   -1.3544   -0.9103 C   0  0  0  0  0  0  0  0  0  0  0  0
   -1.3360   -0.2797   -0.6901 C   0  0  0  0  0  0  0  0  0  0  0  0
   -1.7767    0.0835    0.7088 C   0  0  0  0  0  0  0  0  0  0  0  0
   -0.8981    0.9569   -0.1025 C   0  0  0  0  0  0  0  0  0  0  0  0
    0.3364    1.6052    2.1542 H   0  0  0  0  0  0  0  0  0  0  0  0
    1.2182    0.7650   -1.7536 H   0  0  0  0  0  0  0  0  0  0  0  0
    2.5083    1.5498   -0.6987 H   0  0  0  0  0  0  0  0  0  0  0  0
    2.1767   -0.0813    1.1489 H   0  0  0  0  0  0  0  0  0  0  0  0
    0.2213   -1.7078    1.1006 H   0  0  0  0  0  0  0  0  0  0  0  0
    1.4722   -2.1500   -0.0985 H   0  0  0  0  0  0  0  0  0  0  0  0
   -0.8316   -2.3667   -0.8976 H   0  0  0  0  0  0  0  0  0  0  0  0
    0.1705   -1.2457   -1.8845 H   0  0  0  0  0  0  0  0  0  0  0  0
   -2.1382   -0.2302   -1.4761 H   0  0  0  0  0  0  0  0  0  0  0  0
   -1.4039   -0.5143    1.5573 H   0  0  0  0  0  0  0  0  0  0  0  0
   -2.8506    0.3754    0.8451 H   0  0  0  0  0  0  0  0  0  0  0  0
   -1.3894    1.9104   -0.4559 H   0  0  0  0  0  0  0  0  0  0  0  0
  1  2  1  0
  2  3  1  0
  3  4  1  0
  4  5  1  0
  5  6  1  0
  6  7  1  0
  7  8  1  0
  8  9  1  0
  4  2  1  0
  9  7  1  0
  9  2  1  0
  1 10  1  0
  3 11  1  0
  3 12  1  0
  4 13  1  0
  5 14  1  0
  5 15  1  0
  6 16  1  0
  6 17  1  0
  7 18  1  0
  8 19  1  0
  8 20  1  0
  9 21  1  0
M  END
