
     RDKit          3D

 14 17  0  0  0  0  0  0  0  0999 V2000
    1.9427   -0.0605    0.7800 O   0  0  0  0  0  0  0  0  0  0  0  0
    0.8179   -0.0605    0.1106 C   0  0  0  0  0  0  0  0  0  0  0  0
    0.2723   -0.8442   -0.9418 C   0  0  0  0  0  0  0  0  0  0  0  0
   -0.1011   -1.2811    0.3693 C   0  0  0  0  0  0  0  0  0  0  0  0
   -1.2333   -0.3483    0.4006 C   0  0  0  0  0  0  0  0  0  0  0  0
   -0.9215    0.0364   -0.9598 C   0  0  0  0  0  0  0  0  0  0  0  0
   -0.3758    0.7727    0.1993 C   0  0  0  0  0  0  0  0  0  0  0  0
   -0.5111    2.0583    0.4665 O   0  0  0  0  0  0  0  0  0  0  0  0
    2.6001    0.6357    0.6559 H   0  0  0  0  0  0  0  0  0  0  0  0
    0.7000   -1.3542   -1.7620 H   0  0  0  0  0  0  0  0  0  0  0  0
    0.1745   -2.0561    1.0034 H   0  0  0  0  0  0  0  0  0  0  0  0
   -2.1679   -0.4595    0.8823 H   0  0  0  0  0  0  0  0  0  0  0  0
   -1.4925    0.3784   -1.7578 H   0  0  0  0  0  0  0  0  0  0  0  0
    0.2957    2.5831    0.5534 H   0  0  0  0  0  0  0  0  0  0  0  0
  1  2  1  0
  2  3  1  0
  3  4  1  0
  4  5  1  0
  5  6  1  0
  6  7  1  0
  7  8  1  0
  4  2  1  0
  7  5  1  0
  7  2  1  0
  6  3  1  0
  1  9  1  0
  3 10  1  0
  4 11  1  0
  5 12  1  0
  6 13  1  0
  8 14  1  0
M  END
