
     RDKit          3D

 17 19  0  0  0  0  0  0  0  0999 V2000
   -0.0403    0.7911    1.9733 O   0  0  0  0  0  0  0  0  0  0  0  0
   -0.2706    0.3124    0.7728 C   0  0  0  0  0  0  0  0  0  0  0  0
   -1.3581   -0.7003    0.5466 C   0  0  0  0  0  0  0  0  0  0  0  0
   -1.3239   -0.8699   -0.7754 C   0  0  0  0  0  0  0  0  0  0  0  0
   -0.2240    0.0526   -1.2026 C   0  0  0  0  0  0  0  0  0  0  0  0
   -0.6200    1.2890   -0.3700 C   0  0  0  0  0  0  0  0  0  0  0  0
    0.7806   -0.1689   -0.1473 C   0  0  0  0  0  0  0  0  0  0  0  0
    1.9820   -0.7207   -0.0414 C   0  0  0  0  0  0  0  0  0  0  0  0
    1.9011    0.7645   -0.2289 O   0  0  0  0  0  0  0  0  0  0  0  0
   -0.3438    0.1448    2.6845 H   0  0  0  0  0  0  0  0  0  0  0  0
   -2.0174   -1.1868    1.2496 H   0  0  0  0  0  0  0  0  0  0  0  0
   -1.9020   -1.4896   -1.4409 H   0  0  0  0  0  0  0  0  0  0  0  0
   -0.0048    0.1853   -2.2172 H   0  0  0  0  0  0  0  0  0  0  0  0
   -1.6845    1.5414   -0.4274 H   0  0  0  0  0  0  0  0  0  0  0  0
    0.0784    2.1221   -0.4544 H   0  0  0  0  0  0  0  0  0  0  0  0
    2.4904   -0.8995    0.9511 H   0  0  0  0  0  0  0  0  0  0  0  0
    2.5569   -1.1675   -0.8724 H   0  0  0  0  0  0  0  0  0  0  0  0
  1  2  1  0
  2  3  1  0
  3  4  2  0
  4  5  1  0
  5  6  1  0
  5  7  1  0
  7  8  1  0
  8  9  1  0
  6  2  1  0
  9  7  1  0
  7  2  1  0
  1 10  1  0
  3 11  1  0
  4 12  1  0
  5 13  1  0
  6 14  1  0
  6 15  1  0
  8 16  1  0
  8 17  1  0
M  END
