
     RDKit          3D

 17 20  0  0  0  0  0  0  0  0999 V2000
    2.3984    0.5546   -0.4519 O   0  0  0  0  0  0  0  0  0  0  0  0
    1.1837    0.2030   -0.2613 C   0  0  0  0  0  0  0  0  0  0  0  0
    0.1924    0.8346    0.7339 C   0  0  0  0  0  0  0  0  0  0  0  0
   -1.1915    0.2232    0.4192 C   0  0  0  0  0  0  0  0  0  0  0  0
   -1.9900   -0.1920    1.4197 O   0  0  0  0  0  0  0  0  0  0  0  0
   -1.0543   -0.9102   -0.7138 C   0  0  0  0  0  0  0  0  0  0  0  0
    0.4193   -0.7095   -1.3315 C   0  0  0  0  0  0  0  0  0  0  0  0
    0.4183   -0.8040   -0.1627 C   0  0  0  0  0  0  0  0  0  0  0  0
   -0.7672    0.2082   -0.7520 C   0  0  0  0  0  0  0  0  0  0  0  0
    3.0020    0.3770    0.3345 H   0  0  0  0  0  0  0  0  0  0  0  0
    0.5044    0.6261    1.7534 H   0  0  0  0  0  0  0  0  0  0  0  0
    0.1343    1.9356    0.5483 H   0  0  0  0  0  0  0  0  0  0  0  0
   -2.0526    0.4697    2.1285 H   0  0  0  0  0  0  0  0  0  0  0  0
   -1.2747   -1.9325   -0.3862 H   0  0  0  0  0  0  0  0  0  0  0  0
    0.4229   -0.2829   -2.3500 H   0  0  0  0  0  0  0  0  0  0  0  0
    0.2155   -1.5368    0.5811 H   0  0  0  0  0  0  0  0  0  0  0  0
   -0.5608    0.9359   -1.5089 H   0  0  0  0  0  0  0  0  0  0  0  0
  1  2  1  0
  2  3  1  0
  3  4  1  0
  4  5  1  0
  4  6  1  0
  6  7  1  0
  7  8  1  0
  8  9  1  0
  7  2  1  0
  8  2  1  0
  9  4  1  0
  9  6  1  0
  1 10  1  0
  3 11  1  0
  3 12  1  0
  5 13  1  0
  6 14  1  0
  7 15  1  0
  8 16  1  0
  9 17  1  0
M  END
