
     RDKit          3D

 14 16  0  0  0  0  0  0  0  0999 V2000
   -1.7820   -0.1914    1.1415 O   0  0  0  0  0  0  0  0  0  0  0  0
   -0.7625   -0.1733    0.2848 C   0  0  0  0  0  0  0  0  0  0  0  0
    0.5086   -0.9411    0.4275 C   0  0  0  0  0  0  0  0  0  0  0  0
    1.5301    0.1600    0.2902 C   0  0  0  0  0  0  0  0  0  0  0  0
    0.9814    1.1827   -0.3496 C   0  0  0  0  0  0  0  0  0  0  0  0
   -0.4296    0.8684   -0.6931 C   0  0  0  0  0  0  0  0  0  0  0  0
   -0.7294   -0.5688   -1.1053 C   0  0  0  0  0  0  0  0  0  0  0  0
    0.2241   -1.5201   -0.8238 O   0  0  0  0  0  0  0  0  0  0  0  0
   -1.4583   -0.2247    2.0976 H   0  0  0  0  0  0  0  0  0  0  0  0
    0.6350   -1.6138    1.2619 H   0  0  0  0  0  0  0  0  0  0  0  0
    2.5400    0.0465    0.6858 H   0  0  0  0  0  0  0  0  0  0  0  0
    1.4802    2.1057   -0.5872 H   0  0  0  0  0  0  0  0  0  0  0  0
   -1.1516    1.6467   -0.8860 H   0  0  0  0  0  0  0  0  0  0  0  0
   -1.5861   -0.7770   -1.7442 H   0  0  0  0  0  0  0  0  0  0  0  0
  1  2  1  0
  2  3  1  0
  3  4  1  0
  4  5  2  0
  5  6  1  0
  6  7  1  0
  7  8  1  0
  6  2  1  0
  7  2  1  0
  8  3  1  0
  1  9  1  0
  3 10  1  0
  4 11  1  0
  5 12  1  0
  6 13  1  0
  7 14  1  0
M  END
