
     RDKit          3D

 19 21  0  0  0  0  0  0  0  0999 V2000
    0.4783   -2.3430   -0.3244 O   0  0  0  0  0  0  0  0  0  0  0  0
    0.2673   -1.0222   -0.0677 C   0  0  0  0  0  0  0  0  0  0  0  0
    0.0025   -0.0414   -1.1893 C   0  0  0  0  0  0  0  0  0  0  0  0
   -1.0628    0.8722   -0.6843 C   0  0  0  0  0  0  0  0  0  0  0  0
   -1.4407    0.3782    0.6861 C   0  0  0  0  0  0  0  0  0  0  0  0
   -0.3201   -0.4945    1.1665 C   0  0  0  0  0  0  0  0  0  0  0  0
    1.0903   -0.2350    0.8812 C   0  0  0  0  0  0  0  0  0  0  0  0
    1.5757    0.9121    0.0651 C   0  0  0  0  0  0  0  0  0  0  0  0
    1.2061    0.6540   -1.2717 O   0  0  0  0  0  0  0  0  0  0  0  0
   -0.1391   -2.6119   -1.0688 H   0  0  0  0  0  0  0  0  0  0  0  0
   -0.2196   -0.5504   -2.1258 H   0  0  0  0  0  0  0  0  0  0  0  0
   -1.9143    0.8479   -1.4001 H   0  0  0  0  0  0  0  0  0  0  0  0
   -0.6726    1.9094   -0.5531 H   0  0  0  0  0  0  0  0  0  0  0  0
   -1.7503    1.1557    1.3786 H   0  0  0  0  0  0  0  0  0  0  0  0
   -2.3309   -0.3016    0.5357 H   0  0  0  0  0  0  0  0  0  0  0  0
   -0.5810   -1.1870    1.9625 H   0  0  0  0  0  0  0  0  0  0  0  0
    1.8280   -0.7276    1.5523 H   0  0  0  0  0  0  0  0  0  0  0  0
    2.7029    0.8855    0.0510 H   0  0  0  0  0  0  0  0  0  0  0  0
    1.2801    1.8996    0.4060 H   0  0  0  0  0  0  0  0  0  0  0  0
  1  2  1  0
  2  3  1  0
  3  4  1  0
  4  5  1  0
  5  6  1  0
  6  7  1  0
  7  8  1  0
  8  9  1  0
  6  2  1  0
  7  2  1  0
  9  3  1  0
  1 10  1  0
  3 11  1  0
  4 12  1  0
  4 13  1  0
  5 14  1  0
  5 15  1  0
  6 16  1  0
  7 17  1  0
  8 18  1  0
  8 19  1  0
M  END
