
     RDKit          3D

 23 24  0  0  0  0  0  0  0  0999 V2000
    1.6059    1.0294    1.2017 O   0  0  0  0  0  0  0  0  0  0  0  0
    0.7496    0.5492    0.1829 C   0  0  0  0  0  0  0  0  0  0  0  0
   -0.3224    1.4877   -0.1435 C   0  0  0  0  0  0  0  0  0  0  0  0
   -1.6501    0.9499   -0.4930 C   0  0  0  0  0  0  0  0  0  0  0  0
   -1.9623   -0.4090    0.0269 C   0  0  0  0  0  0  0  0  0  0  0  0
   -0.8130   -1.3283   -0.3262 C   0  0  0  0  0  0  0  0  0  0  0  0
    0.3722   -0.8552    0.4686 C   0  0  0  0  0  0  0  0  0  0  0  0
    1.6702   -1.2954   -0.2224 C   0  0  0  0  0  0  0  0  0  0  0  0
    1.6203    0.0503   -0.9586 C   0  0  0  0  0  0  0  0  0  0  0  0
    2.0529    1.8471    0.9393 H   0  0  0  0  0  0  0  0  0  0  0  0
   -0.4546    2.2025    0.7214 H   0  0  0  0  0  0  0  0  0  0  0  0
    0.0059    2.1629   -0.9890 H   0  0  0  0  0  0  0  0  0  0  0  0
   -2.4675    1.6396   -0.1262 H   0  0  0  0  0  0  0  0  0  0  0  0
   -1.8066    0.9369   -1.6112 H   0  0  0  0  0  0  0  0  0  0  0  0
   -2.1789   -0.4033    1.1074 H   0  0  0  0  0  0  0  0  0  0  0  0
   -2.8636   -0.7826   -0.5035 H   0  0  0  0  0  0  0  0  0  0  0  0
   -0.6099   -1.1921   -1.4045 H   0  0  0  0  0  0  0  0  0  0  0  0
   -1.0935   -2.3427   -0.0385 H   0  0  0  0  0  0  0  0  0  0  0  0
    0.2931   -1.1603    1.5221 H   0  0  0  0  0  0  0  0  0  0  0  0
    2.5313   -1.3982    0.4478 H   0  0  0  0  0  0  0  0  0  0  0  0
    1.5721   -2.1739   -0.8655 H   0  0  0  0  0  0  0  0  0  0  0  0
    2.6216    0.5144   -1.0164 H   0  0  0  0  0  0  0  0  0  0  0  0
    1.1273   -0.0290   -1.9337 H   0  0  0  0  0  0  0  0  0  0  0  0
  1  2  1  0
  2  3  1  0
  3  4  1  0
  4  5  1  0
  5  6  1  0
  6  7  1  0
  7  8  1  0
  8  9  1  0
  7  2  1  0
  9  2  1  0
  1 10  1  0
  3 11  1  0
  3 12  1  0
  4 13  1  0
  4 14  1  0
  5 15  1  0
  5 16  1  0
  6 17  1  0
  6 18  1  0
  7 19  1  0
  8 20  1  0
  8 21  1  0
  9 22  1  0
  9 23  1  0
M  END
