
     RDKit          3D

 17 19  0  0  0  0  0  0  0  0999 V2000
    1.6293   -1.5938   -0.0155 O   0  0  0  0  0  0  0  0  0  0  0  0
    0.8710   -0.5458   -0.4626 C   0  0  0  0  0  0  0  0  0  0  0  0
    1.5013    0.7305   -0.8793 C   0  0  0  0  0  0  0  0  0  0  0  0
    0.7150    0.7053    0.3831 C   0  0  0  0  0  0  0  0  0  0  0  0
   -0.7692    0.6840    0.2308 C   0  0  0  0  0  0  0  0  0  0  0  0
   -1.5072    0.8084    1.3752 O   0  0  0  0  0  0  0  0  0  0  0  0
   -1.4483    0.2965   -1.0101 C   0  0  0  0  0  0  0  0  0  0  0  0
   -0.6067   -0.7259   -0.3914 C   0  0  0  0  0  0  0  0  0  0  0  0
   -1.0772   -1.7212    0.4248 O   0  0  0  0  0  0  0  0  0  0  0  0
    1.9090   -1.5381    0.9262 H   0  0  0  0  0  0  0  0  0  0  0  0
    2.5968    0.7765   -0.7642 H   0  0  0  0  0  0  0  0  0  0  0  0
    1.0696    1.3596   -1.6865 H   0  0  0  0  0  0  0  0  0  0  0  0
    1.1817    0.6206    1.3666 H   0  0  0  0  0  0  0  0  0  0  0  0
   -2.0851    1.6124    1.3843 H   0  0  0  0  0  0  0  0  0  0  0  0
   -2.5372    0.1556   -0.9552 H   0  0  0  0  0  0  0  0  0  0  0  0
   -1.1180    0.6623   -2.0134 H   0  0  0  0  0  0  0  0  0  0  0  0
   -0.3246   -2.2868    0.7311 H   0  0  0  0  0  0  0  0  0  0  0  0
  1  2  1  0
  2  3  1  0
  3  4  1  0
  4  5  1  0
  5  6  1  0
  5  7  1  0
  7  8  1  0
  8  9  1  0
  4  2  1  0
  8  5  1  0
  8  2  1  0
  1 10  1  0
  3 11  1  0
  3 12  1  0
  4 13  1  0
  6 14  1  0
  7 15  1  0
  7 16  1  0
  9 17  1  0
M  END
