
     RDKit          3D

 19 21  0  0  0  0  0  0  0  0999 V2000
   -0.9123   -0.9938    2.0492 O   0  0  0  0  0  0  0  0  0  0  0  0
   -0.3184   -0.4435    0.9496 C   0  0  0  0  0  0  0  0  0  0  0  0
   -0.7399    0.9035    0.4480 C   0  0  0  0  0  0  0  0  0  0  0  0
    0.4446    1.7110    0.1101 C   0  0  0  0  0  0  0  0  0  0  0  0
    1.5346    1.1504   -0.3839 C   0  0  0  0  0  0  0  0  0  0  0  0
    1.6357   -0.2976   -0.6258 C   0  0  0  0  0  0  0  0  0  0  0  0
    0.6464   -1.1365    0.1027 C   0  0  0  0  0  0  0  0  0  0  0  0
   -0.7606   -1.0801   -0.3839 C   0  0  0  0  0  0  0  0  0  0  0  0
   -1.4247    0.2131   -0.7047 C   0  0  0  0  0  0  0  0  0  0  0  0
   -1.6519   -1.6369    1.8227 H   0  0  0  0  0  0  0  0  0  0  0  0
   -1.4010    1.3973    1.1680 H   0  0  0  0  0  0  0  0  0  0  0  0
    0.4118    2.7860    0.2737 H   0  0  0  0  0  0  0  0  0  0  0  0
    2.3916    1.7682   -0.6236 H   0  0  0  0  0  0  0  0  0  0  0  0
    1.4641   -0.4772   -1.7265 H   0  0  0  0  0  0  0  0  0  0  0  0
    2.6736   -0.6384   -0.4037 H   0  0  0  0  0  0  0  0  0  0  0  0
    1.0182   -2.1091    0.4449 H   0  0  0  0  0  0  0  0  0  0  0  0
   -1.3315   -2.0076   -0.3558 H   0  0  0  0  0  0  0  0  0  0  0  0
   -2.5272    0.1899   -0.5094 H   0  0  0  0  0  0  0  0  0  0  0  0
   -1.1531    0.7012   -1.6517 H   0  0  0  0  0  0  0  0  0  0  0  0
  1  2  1  0
  2  3  1  0
  3  4  1  0
  4  5  2  0
  5  6  1  0
  6  7  1  0
  7  8  1  0
  8  9  1  0
  7  2  1  0
  8  2  1  0
  9  3  1  0
  1 10  1  0
  3 11  1  0
  4 12  1  0
  5 13  1  0
  6 14  1  0
  6 15  1  0
  7 16  1  0
  8 17  1  0
  9 18  1  0
  9 19  1  0
M  END
