
     RDKit          3D

 19 21  0  0  0  0  0  0  0  0999 V2000
   -0.1170    1.4037    1.6145 O   0  0  0  0  0  0  0  0  0  0  0  0
   -0.1908    0.8031    0.3758 C   0  0  0  0  0  0  0  0  0  0  0  0
   -1.5292    0.8521   -0.3102 C   0  0  0  0  0  0  0  0  0  0  0  0
   -1.4801   -0.6638   -0.4490 C   0  0  0  0  0  0  0  0  0  0  0  0
   -0.3466   -0.6846    0.5138 C   0  0  0  0  0  0  0  0  0  0  0  0
    0.9393   -1.2948    0.0530 C   0  0  0  0  0  0  0  0  0  0  0  0
    1.7626   -0.1461   -0.5119 C   0  0  0  0  0  0  0  0  0  0  0  0
    1.2248    0.4065   -1.6545 O   0  0  0  0  0  0  0  0  0  0  0  0
    1.0019    1.0731   -0.4700 C   0  0  0  0  0  0  0  0  0  0  0  0
    0.3259    0.7537    2.2326 H   0  0  0  0  0  0  0  0  0  0  0  0
   -2.3059    1.1706    0.4337 H   0  0  0  0  0  0  0  0  0  0  0  0
   -1.5795    1.3910   -1.2606 H   0  0  0  0  0  0  0  0  0  0  0  0
   -2.3829   -1.1755   -0.0257 H   0  0  0  0  0  0  0  0  0  0  0  0
   -1.2929   -0.9794   -1.4800 H   0  0  0  0  0  0  0  0  0  0  0  0
   -0.6080   -1.0592    1.5227 H   0  0  0  0  0  0  0  0  0  0  0  0
    0.7492   -1.9784   -0.8122 H   0  0  0  0  0  0  0  0  0  0  0  0
    1.4664   -1.8175    0.8666 H   0  0  0  0  0  0  0  0  0  0  0  0
    2.8442   -0.1053   -0.3095 H   0  0  0  0  0  0  0  0  0  0  0  0
    1.5186    2.0506   -0.3290 H   0  0  0  0  0  0  0  0  0  0  0  0
  1  2  1  0
  2  3  1  0
  3  4  1  0
  4  5  1  0
  5  6  1  0
  6  7  1  0
  7  8  1  0
  8  9  1  0
  5  2  1  0
  9  7  1  0
  9  2  1  0
  1 10  1  0
  3 11  1  0
  3 12  1  0
  4 13  1  0
  4 14  1  0
  5 15  1  0
  6 16  1  0
  6 17  1  0
  7 18  1  0
  9 19  1  0
M  END
