
     RDKit          3D

 21 22  0  0  0  0  0  0  0  0999 V2000
    2.2395   -1.0894   -0.1314 O   0  0  0  0  0  0  0  0  0  0  0  0
    0.9809   -0.4528   -0.0348 C   0  0  0  0  0  0  0  0  0  0  0  0
   -0.0826   -1.4585    0.1203 C   0  0  0  0  0  0  0  0  0  0  0  0
   -1.4141   -1.0022    0.5498 C   0  0  0  0  0  0  0  0  0  0  0  0
   -1.7967    0.3600    0.2027 C   0  0  0  0  0  0  0  0  0  0  0  0
   -1.0997    1.4585   -0.0706 C   0  0  0  0  0  0  0  0  0  0  0  0
    0.3656    1.5381   -0.1862 C   0  0  0  0  0  0  0  0  0  0  0  0
    0.9493    0.6771    0.9373 C   0  0  0  0  0  0  0  0  0  0  0  0
    0.8256    0.4813   -1.1905 C   0  0  0  0  0  0  0  0  0  0  0  0
    2.2944   -1.3874   -1.0749 H   0  0  0  0  0  0  0  0  0  0  0  0
   -0.1617   -2.0345   -0.8489 H   0  0  0  0  0  0  0  0  0  0  0  0
    0.2839   -2.2297    0.8552 H   0  0  0  0  0  0  0  0  0  0  0  0
   -2.1836   -1.7026    0.1201 H   0  0  0  0  0  0  0  0  0  0  0  0
   -1.5326   -1.1156    1.6635 H   0  0  0  0  0  0  0  0  0  0  0  0
   -2.8716    0.5239    0.1541 H   0  0  0  0  0  0  0  0  0  0  0  0
   -1.6489    2.3977   -0.2266 H   0  0  0  0  0  0  0  0  0  0  0  0
    0.8190    2.5179   -0.2912 H   0  0  0  0  0  0  0  0  0  0  0  0
    0.2878    0.5731    1.8135 H   0  0  0  0  0  0  0  0  0  0  0  0
    1.9939    1.0083    1.1993 H   0  0  0  0  0  0  0  0  0  0  0  0
    1.7358    0.8126   -1.6945 H   0  0  0  0  0  0  0  0  0  0  0  0
    0.0158    0.1242   -1.8662 H   0  0  0  0  0  0  0  0  0  0  0  0
  1  2  1  0
  2  3  1  0
  3  4  1  0
  4  5  1  0
  5  6  2  0
  6  7  1  0
  7  8  1  0
  7  9  1  0
  8  2  1  0
  9  2  1  0
  1 10  1  0
  3 11  1  0
  3 12  1  0
  4 13  1  0
  4 14  1  0
  5 15  1  0
  6 16  1  0
  7 17  1  0
  8 18  1  0
  8 19  1  0
  9 20  1  0
  9 21  1  0
M  END
