
     RDKit          3D

 16 18  0  0  0  0  0  0  0  0999 V2000
   -0.9777   -0.8080    1.3408 O   0  0  0  0  0  0  0  0  0  0  0  0
   -0.7399   -0.3902    0.0315 C   0  0  0  0  0  0  0  0  0  0  0  0
   -1.9390   -0.1090   -0.7759 C   0  0  0  0  0  0  0  0  0  0  0  0
   -1.0999    1.0205   -0.3703 C   0  0  0  0  0  0  0  0  0  0  0  0
    0.1325    1.1227   -1.0600 O   0  0  0  0  0  0  0  0  0  0  0  0
    0.5974    0.1575   -0.2324 C   0  0  0  0  0  0  0  0  0  0  0  0
    1.8451   -0.5433   -0.2770 C   0  0  0  0  0  0  0  0  0  0  0  0
    1.5898    0.4898    0.8049 C   0  0  0  0  0  0  0  0  0  0  0  0
   -1.1287   -1.8042    1.2719 H   0  0  0  0  0  0  0  0  0  0  0  0
   -2.9464   -0.1616   -0.2684 H   0  0  0  0  0  0  0  0  0  0  0  0
   -2.0282   -0.4242   -1.8433 H   0  0  0  0  0  0  0  0  0  0  0  0
   -1.3632    1.7714    0.3683 H   0  0  0  0  0  0  0  0  0  0  0  0
    1.9322   -1.5686    0.1238 H   0  0  0  0  0  0  0  0  0  0  0  0
    2.5946   -0.3274   -1.0653 H   0  0  0  0  0  0  0  0  0  0  0  0
    2.1787    1.4204    0.6543 H   0  0  0  0  0  0  0  0  0  0  0  0
    1.3525    0.1543    1.8268 H   0  0  0  0  0  0  0  0  0  0  0  0
  1  2  1  0
  2  3  1  0
  3  4  1  0
  4  5  1  0
  5  6  1  0
  6  7  1  0
  7  8  1  0
  4  2  1  0
  8  6  1  0
  6  2  1  0
  1  9  1  0
  3 10  1  0
  3 11  1  0
  4 12  1  0
  7 13  1  0
  7 14  1  0
  8 15  1  0
  8 16  1  0
M  END
