
     RDKit          3D

 17 19  0  0  0  0  0  0  0  0999 V2000
    0.3257    2.2050    0.5194 O   0  0  0  0  0  0  0  0  0  0  0  0
    0.1655    0.8825    0.2649 C   0  0  0  0  0  0  0  0  0  0  0  0
    0.2480   -0.1645    1.3402 C   0  0  0  0  0  0  0  0  0  0  0  0
    1.3101   -0.9643    0.9852 O   0  0  0  0  0  0  0  0  0  0  0  0
    1.4249   -0.9861   -0.3780 C   0  0  0  0  0  0  0  0  0  0  0  0
    0.6541    0.1876   -0.9343 C   0  0  0  0  0  0  0  0  0  0  0  0
   -0.8000    0.3223   -0.6969 C   0  0  0  0  0  0  0  0  0  0  0  0
   -1.5570   -0.6867    0.1163 C   0  0  0  0  0  0  0  0  0  0  0  0
   -0.9043   -0.8993    1.2921 O   0  0  0  0  0  0  0  0  0  0  0  0
   -0.2734    2.7204   -0.1022 H   0  0  0  0  0  0  0  0  0  0  0  0
    0.4142    0.2658    2.3492 H   0  0  0  0  0  0  0  0  0  0  0  0
    2.5097   -0.7779   -0.6177 H   0  0  0  0  0  0  0  0  0  0  0  0
    1.1308   -1.9501   -0.8476 H   0  0  0  0  0  0  0  0  0  0  0  0
    1.0881    0.7254   -1.7766 H   0  0  0  0  0  0  0  0  0  0  0  0
   -1.3738    0.9398   -1.4013 H   0  0  0  0  0  0  0  0  0  0  0  0
   -2.5580   -0.2163    0.3460 H   0  0  0  0  0  0  0  0  0  0  0  0
   -1.8046   -1.6036   -0.4587 H   0  0  0  0  0  0  0  0  0  0  0  0
  1  2  1  0
  2  3  1  0
  3  4  1  0
  4  5  1  0
  5  6  1  0
  6  7  1  0
  7  8  1  0
  8  9  1  0
  6  2  1  0
  7  2  1  0
  9  3  1  0
  1 10  1  0
  3 11  1  0
  5 12  1  0
  5 13  1  0
  6 14  1  0
  7 15  1  0
  8 16  1  0
  8 17  1  0
M  END
