
     RDKit          3D

 19 20  0  0  0  0  0  0  0  0999 V2000
   -0.5394    2.0686   -0.9524 O   0  0  0  0  0  0  0  0  0  0  0  0
   -0.1556    0.8926   -0.2732 C   0  0  0  0  0  0  0  0  0  0  0  0
    1.2630    0.8702    0.1174 C   0  0  0  0  0  0  0  0  0  0  0  0
    1.9032   -0.2885    0.1406 C   0  0  0  0  0  0  0  0  0  0  0  0
    1.2304   -1.5577   -0.2152 C   0  0  0  0  0  0  0  0  0  0  0  0
    0.3259   -1.2939   -1.2109 O   0  0  0  0  0  0  0  0  0  0  0  0
   -0.6175   -0.3531   -0.9459 C   0  0  0  0  0  0  0  0  0  0  0  0
   -1.5034   -0.6210    0.2606 C   0  0  0  0  0  0  0  0  0  0  0  0
   -1.1333    0.6836    0.8846 C   0  0  0  0  0  0  0  0  0  0  0  0
   -0.7411    2.7836   -0.2679 H   0  0  0  0  0  0  0  0  0  0  0  0
    1.7331    1.8215    0.3745 H   0  0  0  0  0  0  0  0  0  0  0  0
    2.9436   -0.2904    0.4291 H   0  0  0  0  0  0  0  0  0  0  0  0
    0.8037   -2.0777    0.6672 H   0  0  0  0  0  0  0  0  0  0  0  0
    1.9674   -2.2987   -0.6464 H   0  0  0  0  0  0  0  0  0  0  0  0
   -1.1891   -0.1185   -1.8770 H   0  0  0  0  0  0  0  0  0  0  0  0
   -2.5590   -0.7034   -0.0713 H   0  0  0  0  0  0  0  0  0  0  0  0
   -1.1564   -1.5332    0.7929 H   0  0  0  0  0  0  0  0  0  0  0  0
   -0.6084    0.6351    1.8599 H   0  0  0  0  0  0  0  0  0  0  0  0
   -1.9671    1.3809    0.9334 H   0  0  0  0  0  0  0  0  0  0  0  0
  1  2  1  0
  2  3  1  0
  3  4  2  0
  4  5  1  0
  5  6  1  0
  6  7  1  0
  7  8  1  0
  8  9  1  0
  7  2  1  0
  9  2  1  0
  1 10  1  0
  3 11  1  0
  4 12  1  0
  5 13  1  0
  5 14  1  0
  7 15  1  0
  8 16  1  0
  8 17  1  0
  9 18  1  0
  9 19  1  0
M  END
