
     RDKit          3D

 21 22  0  0  0  0  0  0  0  0999 V2000
    0.4578   -0.6434    1.9051 O   0  0  0  0  0  0  0  0  0  0  0  0
    0.4113   -0.5230    0.5060 C   0  0  0  0  0  0  0  0  0  0  0  0
   -0.9013   -1.0704    0.0072 C   0  0  0  0  0  0  0  0  0  0  0  0
   -1.9100    0.0519    0.2139 C   0  0  0  0  0  0  0  0  0  0  0  0
   -1.5128    1.2476   -0.5765 C   0  0  0  0  0  0  0  0  0  0  0  0
   -0.1923    1.4608   -0.7394 O   0  0  0  0  0  0  0  0  0  0  0  0
    0.6963    0.8628    0.0634 C   0  0  0  0  0  0  0  0  0  0  0  0
    1.8809    0.3105   -0.7426 C   0  0  0  0  0  0  0  0  0  0  0  0
    1.5936   -1.0788   -0.2189 C   0  0  0  0  0  0  0  0  0  0  0  0
    0.9211    0.1583    2.2837 H   0  0  0  0  0  0  0  0  0  0  0  0
   -0.8781   -1.4339   -1.0192 H   0  0  0  0  0  0  0  0  0  0  0  0
   -1.2156   -1.9138    0.6534 H   0  0  0  0  0  0  0  0  0  0  0  0
   -1.8911    0.2561    1.3209 H   0  0  0  0  0  0  0  0  0  0  0  0
   -2.9369   -0.2857   -0.0537 H   0  0  0  0  0  0  0  0  0  0  0  0
   -1.9751    2.1451   -0.0685 H   0  0  0  0  0  0  0  0  0  0  0  0
   -1.9684    1.1287   -1.6053 H   0  0  0  0  0  0  0  0  0  0  0  0
    1.0950    1.5265    0.8794 H   0  0  0  0  0  0  0  0  0  0  0  0
    1.7486    0.3887   -1.8383 H   0  0  0  0  0  0  0  0  0  0  0  0
    2.8646    0.6948   -0.4153 H   0  0  0  0  0  0  0  0  0  0  0  0
    1.3019   -1.8271   -0.9704 H   0  0  0  0  0  0  0  0  0  0  0  0
    2.4104   -1.4558    0.4150 H   0  0  0  0  0  0  0  0  0  0  0  0
  1  2  1  0
  2  3  1  0
  3  4  1  0
  4  5  1  0
  5  6  1  0
  6  7  1  0
  7  8  1  0
  8  9  1  0
  7  2  1  0
  9  2  1  0
  1 10  1  0
  3 11  1  0
  3 12  1  0
  4 13  1  0
  4 14  1  0
  5 15  1  0
  5 16  1  0
  7 17  1  0
  8 18  1  0
  8 19  1  0
  9 20  1  0
  9 21  1  0
M  END
