
     RDKit          3D

 19 22  0  0  0  0  0  0  0  0999 V2000
   -1.1462    2.3432    0.1851 O   0  0  0  0  0  0  0  0  0  0  0  0
   -0.4994    1.1188    0.0925 C   0  0  0  0  0  0  0  0  0  0  0  0
    0.9139    1.0279    0.5370 C   0  0  0  0  0  0  0  0  0  0  0  0
    1.6627   -0.1173   -0.0511 C   0  0  0  0  0  0  0  0  0  0  0  0
    0.8274   -1.3365   -0.1863 C   0  0  0  0  0  0  0  0  0  0  0  0
   -0.3110   -1.0978   -1.0806 C   0  0  0  0  0  0  0  0  0  0  0  0
   -0.4771   -1.3344    0.4584 C   0  0  0  0  0  0  0  0  0  0  0  0
   -1.2393   -0.0778    0.4845 C   0  0  0  0  0  0  0  0  0  0  0  0
   -0.9209    0.2348   -0.9869 C   0  0  0  0  0  0  0  0  0  0  0  0
   -1.3340    2.5044    1.1450 H   0  0  0  0  0  0  0  0  0  0  0  0
    1.4638    1.9957    0.3576 H   0  0  0  0  0  0  0  0  0  0  0  0
    0.9035    0.8727    1.6558 H   0  0  0  0  0  0  0  0  0  0  0  0
    2.6040   -0.2800    0.5187 H   0  0  0  0  0  0  0  0  0  0  0  0
    1.9913    0.1888   -1.0827 H   0  0  0  0  0  0  0  0  0  0  0  0
    1.3440   -2.2986   -0.2847 H   0  0  0  0  0  0  0  0  0  0  0  0
   -0.7743   -1.8493   -1.7139 H   0  0  0  0  0  0  0  0  0  0  0  0
   -0.9333   -2.2808    0.7359 H   0  0  0  0  0  0  0  0  0  0  0  0
   -2.2818   -0.0966    0.7944 H   0  0  0  0  0  0  0  0  0  0  0  0
   -1.7934    0.4830   -1.5787 H   0  0  0  0  0  0  0  0  0  0  0  0
  1  2  1  0
  2  3  1  0
  3  4  1  0
  4  5  1  0
  5  6  1  0
  6  7  1  0
  7  8  1  0
  8  9  1  0
  8  2  1  0
  9  2  1  0
  7  5  1  0
  9  6  1  0
  1 10  1  0
  3 11  1  0
  3 12  1  0
  4 13  1  0
  4 14  1  0
  5 15  1  0
  6 16  1  0
  7 17  1  0
  8 18  1  0
  9 19  1  0
M  END
