
     RDKit          3D

 18 20  0  0  0  0  0  0  0  0999 V2000
    1.0474    0.6250    1.8020 O   0  0  0  0  0  0  0  0  0  0  0  0
    0.2709    0.2298    0.7805 C   0  0  0  0  0  0  0  0  0  0  0  0
   -1.2204    0.1627    0.9709 C   0  0  0  0  0  0  0  0  0  0  0  0
   -1.6236   -0.2196   -0.4659 C   0  0  0  0  0  0  0  0  0  0  0  0
   -0.2657   -0.4401   -1.0562 C   0  0  0  0  0  0  0  0  0  0  0  0
    0.6249   -1.0060    0.0138 C   0  0  0  0  0  0  0  0  0  0  0  0
    1.7197   -0.1978   -0.6202 C   0  0  0  0  0  0  0  0  0  0  0  0
    0.5404    0.7393   -0.5998 C   0  0  0  0  0  0  0  0  0  0  0  0
    0.9277    1.5983    1.9574 H   0  0  0  0  0  0  0  0  0  0  0  0
   -1.6608    1.1067    1.2835 H   0  0  0  0  0  0  0  0  0  0  0  0
   -1.5273   -0.6978    1.6005 H   0  0  0  0  0  0  0  0  0  0  0  0
   -2.2478   -1.1109   -0.4946 H   0  0  0  0  0  0  0  0  0  0  0  0
   -2.1340    0.6782   -0.8785 H   0  0  0  0  0  0  0  0  0  0  0  0
   -0.1686   -0.7900   -2.0605 H   0  0  0  0  0  0  0  0  0  0  0  0
    0.6656   -1.9495    0.3394 H   0  0  0  0  0  0  0  0  0  0  0  0
    2.5555    0.0996    0.0075 H   0  0  0  0  0  0  0  0  0  0  0  0
    1.9913   -0.5062   -1.6439 H   0  0  0  0  0  0  0  0  0  0  0  0
    0.5048    1.6782   -0.9360 H   0  0  0  0  0  0  0  0  0  0  0  0
  1  2  1  0
  2  3  1  0
  3  4  1  0
  4  5  1  0
  5  6  1  0
  6  7  1  0
  7  8  1  0
  6  2  1  0
  8  2  1  0
  8  5  1  0
  1  9  1  0
  3 10  1  0
  3 11  1  0
  4 12  1  0
  4 13  1  0
  5 14  1  0
  6 15  1  0
  7 16  1  0
  7 17  1  0
  8 18  1  0
M  END
