
     RDKit          3D

 16 18  0  0  0  0  0  0  0  0999 V2000
   -0.4554   -1.1983    1.0433 O   0  0  0  0  0  0  0  0  0  0  0  0
   -0.6467   -0.5072   -0.1900 C   0  0  0  0  0  0  0  0  0  0  0  0
    0.5919   -0.7040   -0.9921 C   0  0  0  0  0  0  0  0  0  0  0  0
    1.6068   -0.2353    0.0635 C   0  0  0  0  0  0  0  0  0  0  0  0
    2.1073    1.0078    0.1148 O   0  0  0  0  0  0  0  0  0  0  0  0
    0.8019    0.9094    0.7181 C   0  0  0  0  0  0  0  0  0  0  0  0
   -0.3978    1.0569   -0.1156 C   0  0  0  0  0  0  0  0  0  0  0  0
   -1.6666    0.4454   -0.1507 C   0  0  0  0  0  0  0  0  0  0  0  0
   -1.3246   -1.4211    1.4556 H   0  0  0  0  0  0  0  0  0  0  0  0
    0.7089   -1.8068   -1.1618 H   0  0  0  0  0  0  0  0  0  0  0  0
    0.6602   -0.1202   -1.9085 H   0  0  0  0  0  0  0  0  0  0  0  0
    2.0008   -1.0228    0.7177 H   0  0  0  0  0  0  0  0  0  0  0  0
    0.7798    0.9422    1.8203 H   0  0  0  0  0  0  0  0  0  0  0  0
   -0.1171    1.5525   -1.0983 H   0  0  0  0  0  0  0  0  0  0  0  0
   -2.3210    0.5598    0.7474 H   0  0  0  0  0  0  0  0  0  0  0  0
   -2.3284    0.5418   -1.0636 H   0  0  0  0  0  0  0  0  0  0  0  0
  1  2  1  0
  2  3  1  0
  3  4  1  0
  4  5  1  0
  5  6  1  0
  6  7  1  0
  7  8  1  0
  7  2  1  0
  8  2  1  0
  6  4  1  0
  1  9  1  0
  3 10  1  0
  3 11  1  0
  4 12  1  0
  6 13  1  0
  7 14  1  0
  8 15  1  0
  8 16  1  0
M  END
