
     RDKit          3D

 19 21  0  0  0  0  0  0  0  0999 V2000
    2.5735    0.3131   -0.4609 O   0  0  0  0  0  0  0  0  0  0  0  0
    1.2474    0.0226   -0.1323 C   0  0  0  0  0  0  0  0  0  0  0  0
    0.9896   -1.3078    0.4619 C   0  0  0  0  0  0  0  0  0  0  0  0
   -0.1772   -1.8220   -0.0342 O   0  0  0  0  0  0  0  0  0  0  0  0
   -0.8763   -0.8169   -0.6698 C   0  0  0  0  0  0  0  0  0  0  0  0
   -1.7141   -0.1040    0.3299 C   0  0  0  0  0  0  0  0  0  0  0  0
   -0.9732    1.1478    0.6480 C   0  0  0  0  0  0  0  0  0  0  0  0
    0.3128    1.1477   -0.1329 C   0  0  0  0  0  0  0  0  0  0  0  0
    0.1756    0.1369   -1.1674 C   0  0  0  0  0  0  0  0  0  0  0  0
    2.9880    0.7581    0.3337 H   0  0  0  0  0  0  0  0  0  0  0  0
    1.0621   -1.3359    1.5760 H   0  0  0  0  0  0  0  0  0  0  0  0
    1.8102   -2.0014    0.1110 H   0  0  0  0  0  0  0  0  0  0  0  0
   -1.4834   -1.2526   -1.4908 H   0  0  0  0  0  0  0  0  0  0  0  0
   -1.8496   -0.7032    1.2767 H   0  0  0  0  0  0  0  0  0  0  0  0
   -2.7535    0.0768   -0.0333 H   0  0  0  0  0  0  0  0  0  0  0  0
   -1.5882    2.0088    0.2533 H   0  0  0  0  0  0  0  0  0  0  0  0
   -0.8345    1.3389    1.7183 H   0  0  0  0  0  0  0  0  0  0  0  0
    0.6969    2.1421   -0.3659 H   0  0  0  0  0  0  0  0  0  0  0  0
    0.3939    0.2511   -2.2211 H   0  0  0  0  0  0  0  0  0  0  0  0
  1  2  1  0
  2  3  1  0
  3  4  1  0
  4  5  1  0
  5  6  1  0
  6  7  1  0
  7  8  1  0
  8  9  1  0
  8  2  1  0
  9  2  1  0
  9  5  1  0
  1 10  1  0
  3 11  1  0
  3 12  1  0
  5 13  1  0
  6 14  1  0
  6 15  1  0
  7 16  1  0
  7 17  1  0
  8 18  1  0
  9 19  1  0
M  END
