
     RDKit          3D

 21 23  0  0  0  0  0  0  0  0999 V2000
    2.5229   -1.2093    0.8377 O   0  0  0  0  0  0  0  0  0  0  0  0
    1.8201   -0.0241    0.5859 C   0  0  0  0  0  0  0  0  0  0  0  0
    0.4072    0.0755    1.1232 C   0  0  0  0  0  0  0  0  0  0  0  0
   -0.1032    0.5666   -0.1702 C   0  0  0  0  0  0  0  0  0  0  0  0
   -1.3622    0.0449   -0.7434 C   0  0  0  0  0  0  0  0  0  0  0  0
   -2.5955    0.2831    0.1707 C   0  0  0  0  0  0  0  0  0  0  0  0
   -2.1088   -1.0899   -0.1528 C   0  0  0  0  0  0  0  0  0  0  0  0
    1.1824    0.1166   -0.8150 C   0  0  0  0  0  0  0  0  0  0  0  0
    2.3753    0.9155   -0.3892 C   0  0  0  0  0  0  0  0  0  0  0  0
    2.7901   -1.6680    0.0140 H   0  0  0  0  0  0  0  0  0  0  0  0
    0.3444    0.8575    1.9331 H   0  0  0  0  0  0  0  0  0  0  0  0
    0.0134   -0.8856    1.4761 H   0  0  0  0  0  0  0  0  0  0  0  0
   -0.1074    1.7019   -0.1975 H   0  0  0  0  0  0  0  0  0  0  0  0
   -1.5927    0.3044   -1.8260 H   0  0  0  0  0  0  0  0  0  0  0  0
   -3.5111    0.6835   -0.3032 H   0  0  0  0  0  0  0  0  0  0  0  0
   -2.4159    0.7195    1.1729 H   0  0  0  0  0  0  0  0  0  0  0  0
   -2.8036   -1.6687   -0.8337 H   0  0  0  0  0  0  0  0  0  0  0  0
   -1.6360   -1.6324    0.6733 H   0  0  0  0  0  0  0  0  0  0  0  0
    1.2499   -0.7826   -1.4162 H   0  0  0  0  0  0  0  0  0  0  0  0
    2.1803    2.0155   -0.3307 H   0  0  0  0  0  0  0  0  0  0  0  0
    3.3503    0.6760   -0.8091 H   0  0  0  0  0  0  0  0  0  0  0  0
  1  2  1  0
  2  3  1  0
  3  4  1  0
  4  5  1  0
  5  6  1  0
  6  7  1  0
  4  8  1  0
  8  9  1  0
  8  2  1  0
  9  2  1  0
  7  5  1  0
  1 10  1  0
  3 11  1  0
  3 12  1  0
  4 13  1  0
  5 14  1  0
  6 15  1  0
  6 16  1  0
  7 17  1  0
  7 18  1  0
  8 19  1  0
  9 20  1  0
  9 21  1  0
M  END
