
     RDKit          3D

 17 19  0  0  0  0  0  0  0  0999 V2000
   -2.3546    0.5874   -0.4494 O   0  0  0  0  0  0  0  0  0  0  0  0
   -0.9974    0.4033   -0.1990 C   0  0  0  0  0  0  0  0  0  0  0  0
   -0.6824   -0.4997    0.9326 C   0  0  0  0  0  0  0  0  0  0  0  0
    0.3376   -1.2041    0.0686 C   0  0  0  0  0  0  0  0  0  0  0  0
    1.6406   -0.8136    0.2784 O   0  0  0  0  0  0  0  0  0  0  0  0
    1.9076    0.5028    0.0215 C   0  0  0  0  0  0  0  0  0  0  0  0
    1.2814    1.0850   -1.0110 O   0  0  0  0  0  0  0  0  0  0  0  0
   -0.0343    0.8295   -1.2165 C   0  0  0  0  0  0  0  0  0  0  0  0
   -0.2996   -0.6138   -1.1297 C   0  0  0  0  0  0  0  0  0  0  0  0
   -2.6699    1.4587   -0.1099 H   0  0  0  0  0  0  0  0  0  0  0  0
   -0.2945   -0.0561    1.8611 H   0  0  0  0  0  0  0  0  0  0  0  0
   -1.5081   -1.2340    1.1609 H   0  0  0  0  0  0  0  0  0  0  0  0
    0.2743   -2.3159    0.0701 H   0  0  0  0  0  0  0  0  0  0  0  0
    3.0223    0.5665   -0.1508 H   0  0  0  0  0  0  0  0  0  0  0  0
    1.7510    1.1215    0.9520 H   0  0  0  0  0  0  0  0  0  0  0  0
   -0.4651    1.3589   -2.0959 H   0  0  0  0  0  0  0  0  0  0  0  0
   -0.9088   -1.1764   -1.8301 H   0  0  0  0  0  0  0  0  0  0  0  0
  1  2  1  0
  2  3  1  0
  3  4  1  0
  4  5  1  0
  5  6  1  0
  6  7  1  0
  7  8  1  0
  8  9  1  0
  8  2  1  0
  9  2  1  0
  9  4  1  0
  1 10  1  0
  3 11  1  0
  3 12  1  0
  4 13  1  0
  6 14  1  0
  6 15  1  0
  8 16  1  0
  9 17  1  0
M  END
