
     RDKit          3D

 17 19  0  0  0  0  0  0  0  0999 V2000
    1.2142    0.8428    1.4772 O   0  0  0  0  0  0  0  0  0  0  0  0
    0.6339    0.3837    0.3973 C   0  0  0  0  0  0  0  0  0  0  0  0
    1.3365   -0.5094   -0.5840 C   0  0  0  0  0  0  0  0  0  0  0  0
   -0.0640   -0.8866   -0.9844 C   0  0  0  0  0  0  0  0  0  0  0  0
   -0.5492    0.3075   -1.4917 O   0  0  0  0  0  0  0  0  0  0  0  0
   -0.2165    1.2570   -0.4926 C   0  0  0  0  0  0  0  0  0  0  0  0
   -1.3446    1.4131    0.3117 O   0  0  0  0  0  0  0  0  0  0  0  0
   -1.6694    0.0695    0.5911 C   0  0  0  0  0  0  0  0  0  0  0  0
   -0.4148   -0.7287    0.5015 C   0  0  0  0  0  0  0  0  0  0  0  0
    2.1402    0.4560    1.5869 H   0  0  0  0  0  0  0  0  0  0  0  0
    1.8596    0.1209   -1.3478 H   0  0  0  0  0  0  0  0  0  0  0  0
    1.9325   -1.2657   -0.0843 H   0  0  0  0  0  0  0  0  0  0  0  0
   -0.2665   -1.8051   -1.4513 H   0  0  0  0  0  0  0  0  0  0  0  0
    0.2346    2.1469   -0.8585 H   0  0  0  0  0  0  0  0  0  0  0  0
   -2.2280   -0.0426    1.5190 H   0  0  0  0  0  0  0  0  0  0  0  0
   -2.3807   -0.2192   -0.2375 H   0  0  0  0  0  0  0  0  0  0  0  0
   -0.2177   -1.5402    1.1475 H   0  0  0  0  0  0  0  0  0  0  0  0
  1  2  1  0
  2  3  1  0
  3  4  1  0
  4  5  1  0
  5  6  1  0
  6  7  1  0
  7  8  1  0
  8  9  1  0
  6  2  1  0
  9  2  1  0
  9  4  1  0
  1 10  1  0
  3 11  1  0
  3 12  1  0
  4 13  1  0
  6 14  1  0
  8 15  1  0
  8 16  1  0
  9 17  1  0
M  END
