
     RDKit          3D

 17 19  0  0  0  0  0  0  0  0999 V2000
    0.7485   -1.6853   -1.0540 O   0  0  0  0  0  0  0  0  0  0  0  0
    0.2359   -0.8004   -0.1444 C   0  0  0  0  0  0  0  0  0  0  0  0
   -0.8511   -1.4125    0.6909 C   0  0  0  0  0  0  0  0  0  0  0  0
   -1.6426   -0.2726    0.5978 O   0  0  0  0  0  0  0  0  0  0  0  0
   -0.8915    0.0661   -0.5508 C   0  0  0  0  0  0  0  0  0  0  0  0
   -0.4373    1.5006   -0.4351 C   0  0  0  0  0  0  0  0  0  0  0  0
   -0.3578    2.0183    0.9286 O   0  0  0  0  0  0  0  0  0  0  0  0
    0.7742    1.5428    0.1818 C   0  0  0  0  0  0  0  0  0  0  0  0
    1.1848    0.1153    0.5416 C   0  0  0  0  0  0  0  0  0  0  0  0
    0.5793   -1.4911   -1.9905 H   0  0  0  0  0  0  0  0  0  0  0  0
   -1.3538   -2.2347    0.1140 H   0  0  0  0  0  0  0  0  0  0  0  0
   -0.5777   -1.7403    1.6981 H   0  0  0  0  0  0  0  0  0  0  0  0
   -1.4145   -0.1501   -1.4847 H   0  0  0  0  0  0  0  0  0  0  0  0
   -0.9532    2.2507   -1.0558 H   0  0  0  0  0  0  0  0  0  0  0  0
    1.5880    2.2889    0.2190 H   0  0  0  0  0  0  0  0  0  0  0  0
    2.2246    0.0025    0.1198 H   0  0  0  0  0  0  0  0  0  0  0  0
    1.1443    0.0018    1.6237 H   0  0  0  0  0  0  0  0  0  0  0  0
  1  2  1  0
  2  3  1  0
  3  4  1  0
  4  5  1  0
  5  6  1  0
  6  7  1  0
  7  8  1  0
  8  9  1  0
  5  2  1  0
  8  6  1  0
  9  2  1  0
  1 10  1  0
  3 11  1  0
  3 12  1  0
  5 13  1  0
  6 14  1  0
  8 15  1  0
  9 16  1  0
  9 17  1  0
M  END
