
     RDKit          3D

 17 19  0  0  0  0  0  0  0  0999 V2000
   -0.3895    1.6370   -1.2210 O   0  0  0  0  0  0  0  0  0  0  0  0
   -0.1598    0.7372   -0.2123 C   0  0  0  0  0  0  0  0  0  0  0  0
    1.0620    1.0019    0.5895 C   0  0  0  0  0  0  0  0  0  0  0  0
    2.0337    0.1512    0.0231 O   0  0  0  0  0  0  0  0  0  0  0  0
    1.3875   -1.0624   -0.1715 C   0  0  0  0  0  0  0  0  0  0  0  0
   -0.0111   -0.7064   -0.6078 C   0  0  0  0  0  0  0  0  0  0  0  0
   -1.0981   -1.1407    0.3194 C   0  0  0  0  0  0  0  0  0  0  0  0
   -1.2831   -0.5815    1.5495 O   0  0  0  0  0  0  0  0  0  0  0  0
   -1.4014    0.3406    0.5471 C   0  0  0  0  0  0  0  0  0  0  0  0
   -1.3027    2.0346   -1.0751 H   0  0  0  0  0  0  0  0  0  0  0  0
    1.4655    2.0428    0.4146 H   0  0  0  0  0  0  0  0  0  0  0  0
    0.9529    0.7762    1.6596 H   0  0  0  0  0  0  0  0  0  0  0  0
    1.3578   -1.5666    0.8250 H   0  0  0  0  0  0  0  0  0  0  0  0
    1.8348   -1.6776   -0.9572 H   0  0  0  0  0  0  0  0  0  0  0  0
   -0.2300   -0.8376   -1.6771 H   0  0  0  0  0  0  0  0  0  0  0  0
   -1.8589   -1.7862   -0.1214 H   0  0  0  0  0  0  0  0  0  0  0  0
   -2.3596    0.6377    0.1153 H   0  0  0  0  0  0  0  0  0  0  0  0
  1  2  1  0
  2  3  1  0
  3  4  1  0
  4  5  1  0
  5  6  1  0
  6  7  1  0
  7  8  1  0
  8  9  1  0
  6  2  1  0
  9  7  1  0
  9  2  1  0
  1 10  1  0
  3 11  1  0
  3 12  1  0
  5 13  1  0
  5 14  1  0
  6 15  1  0
  7 16  1  0
  9 17  1  0
M  END
