
     RDKit          3D

 19 21  0  0  0  0  0  0  0  0999 V2000
   -2.3009    0.0185    1.0352 O   0  0  0  0  0  0  0  0  0  0  0  0
   -1.1042    0.0325    0.3576 C   0  0  0  0  0  0  0  0  0  0  0  0
   -0.4150    1.3313    0.1129 C   0  0  0  0  0  0  0  0  0  0  0  0
    1.0884    1.2434    0.1538 C   0  0  0  0  0  0  0  0  0  0  0  0
    1.5621   -0.1254    0.5311 C   0  0  0  0  0  0  0  0  0  0  0  0
    0.9255   -1.1968   -0.3400 C   0  0  0  0  0  0  0  0  0  0  0  0
   -0.5657   -1.0900   -0.3939 C   0  0  0  0  0  0  0  0  0  0  0  0
   -1.2352   -0.0494   -1.1895 C   0  0  0  0  0  0  0  0  0  0  0  0
   -0.8429    1.2600   -1.2225 O   0  0  0  0  0  0  0  0  0  0  0  0
   -2.4983   -0.8349    1.4943 H   0  0  0  0  0  0  0  0  0  0  0  0
   -0.8664    2.1472    0.7024 H   0  0  0  0  0  0  0  0  0  0  0  0
    1.5436    1.9639    0.8616 H   0  0  0  0  0  0  0  0  0  0  0  0
    1.5412    1.4755   -0.8539 H   0  0  0  0  0  0  0  0  0  0  0  0
    1.3494   -0.3544    1.5821 H   0  0  0  0  0  0  0  0  0  0  0  0
    2.6645   -0.1854    0.3145 H   0  0  0  0  0  0  0  0  0  0  0  0
    1.3085   -1.1482   -1.3838 H   0  0  0  0  0  0  0  0  0  0  0  0
    1.2214   -2.1734    0.1305 H   0  0  0  0  0  0  0  0  0  0  0  0
   -1.1045   -2.0581   -0.3186 H   0  0  0  0  0  0  0  0  0  0  0  0
   -2.2714   -0.2563   -1.5738 H   0  0  0  0  0  0  0  0  0  0  0  0
  1  2  1  0
  2  3  1  0
  3  4  1  0
  4  5  1  0
  5  6  1  0
  6  7  1  0
  7  8  1  0
  8  9  1  0
  7  2  1  0
  8  2  1  0
  9  3  1  0
  1 10  1  0
  3 11  1  0
  4 12  1  0
  4 13  1  0
  5 14  1  0
  5 15  1  0
  6 16  1  0
  6 17  1  0
  7 18  1  0
  8 19  1  0
M  END
