
     RDKit          3D

 19 20  0  0  0  0  0  0  0  0999 V2000
   -1.5278    0.3863   -1.6974 O   0  0  0  0  0  0  0  0  0  0  0  0
   -0.9130    0.2778   -0.4562 C   0  0  0  0  0  0  0  0  0  0  0  0
    0.0031    1.3872   -0.1871 C   0  0  0  0  0  0  0  0  0  0  0  0
    1.2611    1.1430    0.1294 C   0  0  0  0  0  0  0  0  0  0  0  0
    1.8717   -0.1890    0.2467 C   0  0  0  0  0  0  0  0  0  0  0  0
    0.9561   -1.3297    0.0761 C   0  0  0  0  0  0  0  0  0  0  0  0
   -0.4809   -1.0521   -0.0225 C   0  0  0  0  0  0  0  0  0  0  0  0
   -1.0676   -0.8593    1.2333 O   0  0  0  0  0  0  0  0  0  0  0  0
   -1.8944    0.1221    0.7038 C   0  0  0  0  0  0  0  0  0  0  0  0
   -1.3300    1.2688   -2.1090 H   0  0  0  0  0  0  0  0  0  0  0  0
   -0.4088    2.4081   -0.2625 H   0  0  0  0  0  0  0  0  0  0  0  0
    1.8944    2.0047    0.3183 H   0  0  0  0  0  0  0  0  0  0  0  0
    2.7013   -0.2380   -0.5058 H   0  0  0  0  0  0  0  0  0  0  0  0
    2.4065   -0.2110    1.2411 H   0  0  0  0  0  0  0  0  0  0  0  0
    1.1145   -2.0351    0.9464 H   0  0  0  0  0  0  0  0  0  0  0  0
    1.2680   -1.9499   -0.8162 H   0  0  0  0  0  0  0  0  0  0  0  0
   -1.0204   -1.8614   -0.5978 H   0  0  0  0  0  0  0  0  0  0  0  0
   -2.8829   -0.2972    0.4031 H   0  0  0  0  0  0  0  0  0  0  0  0
   -1.9509    1.0247    1.3564 H   0  0  0  0  0  0  0  0  0  0  0  0
  1  2  1  0
  2  3  1  0
  3  4  2  0
  4  5  1  0
  5  6  1  0
  6  7  1  0
  7  8  1  0
  8  9  1  0
  7  2  1  0
  9  2  1  0
  1 10  1  0
  3 11  1  0
  4 12  1  0
  5 13  1  0
  5 14  1  0
  6 15  1  0
  6 16  1  0
  7 17  1  0
  9 18  1  0
  9 19  1  0
M  END
