
     RDKit          3D

 18 20  0  0  0  0  0  0  0  0999 V2000
    1.7213    1.5428    0.1371 O   0  0  0  0  0  0  0  0  0  0  0  0
    0.7553    0.6371    0.0098 C   0  0  0  0  0  0  0  0  0  0  0  0
    0.9564   -0.4897   -1.0182 C   0  0  0  0  0  0  0  0  0  0  0  0
   -0.0438   -1.2162   -0.1026 C   0  0  0  0  0  0  0  0  0  0  0  0
    0.6971   -0.5118    1.0238 C   0  0  0  0  0  0  0  0  0  0  0  0
   -1.2804   -0.4182   -0.3334 C   0  0  0  0  0  0  0  0  0  0  0  0
   -1.7817    0.5980    0.5972 C   0  0  0  0  0  0  0  0  0  0  0  0
   -0.6527    1.0212   -0.2347 C   0  0  0  0  0  0  0  0  0  0  0  0
    2.5775    1.1335    0.3297 H   0  0  0  0  0  0  0  0  0  0  0  0
    1.9395   -0.9552   -0.9945 H   0  0  0  0  0  0  0  0  0  0  0  0
    0.5182   -0.2683   -2.0085 H   0  0  0  0  0  0  0  0  0  0  0  0
   -0.0494   -2.2751   -0.1290 H   0  0  0  0  0  0  0  0  0  0  0  0
    1.6545   -1.0124    1.1974 H   0  0  0  0  0  0  0  0  0  0  0  0
    0.1338   -0.3132    1.9294 H   0  0  0  0  0  0  0  0  0  0  0  0
   -1.8124   -0.6416   -1.2683 H   0  0  0  0  0  0  0  0  0  0  0  0
   -1.7258    0.4844    1.6998 H   0  0  0  0  0  0  0  0  0  0  0  0
   -2.7748    1.0453    0.2992 H   0  0  0  0  0  0  0  0  0  0  0  0
   -0.8326    1.6393   -1.1342 H   0  0  0  0  0  0  0  0  0  0  0  0
  1  2  1  0
  2  3  1  0
  3  4  1  0
  4  5  1  0
  4  6  1  0
  6  7  1  0
  7  8  1  0
  5  2  1  0
  8  6  1  0
  8  2  1  0
  1  9  1  0
  3 10  1  0
  3 11  1  0
  4 12  1  0
  5 13  1  0
  5 14  1  0
  6 15  1  0
  7 16  1  0
  7 17  1  0
  8 18  1  0
M  END
