
     RDKit          3D

 17 19  0  0  0  0  0  0  0  0999 V2000
    2.1260   -0.9793   -0.4633 O   0  0  0  0  0  0  0  0  0  0  0  0
    1.0266   -0.2740   -0.0557 C   0  0  0  0  0  0  0  0  0  0  0  0
    1.1765    1.1206    0.4575 C   0  0  0  0  0  0  0  0  0  0  0  0
    0.0297    1.7787    0.3215 C   0  0  0  0  0  0  0  0  0  0  0  0
   -0.9825    0.8850   -0.2915 C   0  0  0  0  0  0  0  0  0  0  0  0
   -1.4604   -0.2230    0.6501 C   0  0  0  0  0  0  0  0  0  0  0  0
   -0.2456   -0.9983    0.2633 C   0  0  0  0  0  0  0  0  0  0  0  0
   -0.2843   -2.3848    0.2036 O   0  0  0  0  0  0  0  0  0  0  0  0
   -0.1263   -0.1609   -0.9467 C   0  0  0  0  0  0  0  0  0  0  0  0
    2.9651   -0.6821   -0.0249 H   0  0  0  0  0  0  0  0  0  0  0  0
    2.1025    1.5051    0.8738 H   0  0  0  0  0  0  0  0  0  0  0  0
   -0.1468    2.8074    0.6105 H   0  0  0  0  0  0  0  0  0  0  0  0
   -1.7401    1.3332   -0.9218 H   0  0  0  0  0  0  0  0  0  0  0  0
   -1.4820    0.1008    1.7299 H   0  0  0  0  0  0  0  0  0  0  0  0
   -2.4315   -0.6026    0.2694 H   0  0  0  0  0  0  0  0  0  0  0  0
   -0.3023   -2.7391   -0.7170 H   0  0  0  0  0  0  0  0  0  0  0  0
   -0.2248   -0.4869   -1.9587 H   0  0  0  0  0  0  0  0  0  0  0  0
  1  2  1  0
  2  3  1  0
  3  4  2  0
  4  5  1  0
  5  6  1  0
  6  7  1  0
  7  8  1  0
  7  9  1  0
  7  2  1  0
  9  2  1  0
  9  5  1  0
  1 10  1  0
  3 11  1  0
  4 12  1  0
  5 13  1  0
  6 14  1  0
  6 15  1  0
  8 16  1  0
  9 17  1  0
M  END
