
     RDKit          3D

 19 21  0  0  0  0  0  0  0  0999 V2000
   -0.5599   -0.6928    1.9660 O   0  0  0  0  0  0  0  0  0  0  0  0
   -0.4151   -0.3236    0.7022 C   0  0  0  0  0  0  0  0  0  0  0  0
   -1.4718    0.4409   -0.0235 C   0  0  0  0  0  0  0  0  0  0  0  0
   -0.8036    0.5466   -1.4107 C   0  0  0  0  0  0  0  0  0  0  0  0
    0.4688   -0.2168   -1.1088 C   0  0  0  0  0  0  0  0  0  0  0  0
   -0.1119   -1.4155   -0.3421 C   0  0  0  0  0  0  0  0  0  0  0  0
    0.8575    0.3079    0.2192 C   0  0  0  0  0  0  0  0  0  0  0  0
    2.0369    0.4352    0.8656 C   0  0  0  0  0  0  0  0  0  0  0  0
    1.1756    1.6039    0.4696 O   0  0  0  0  0  0  0  0  0  0  0  0
   -1.1149   -0.0795    2.4738 H   0  0  0  0  0  0  0  0  0  0  0  0
   -1.7168    1.4155    0.3862 H   0  0  0  0  0  0  0  0  0  0  0  0
   -2.3467   -0.2398   -0.1554 H   0  0  0  0  0  0  0  0  0  0  0  0
   -0.5632    1.6221   -1.6107 H   0  0  0  0  0  0  0  0  0  0  0  0
   -1.4006    0.0742   -2.1857 H   0  0  0  0  0  0  0  0  0  0  0  0
    1.1645   -0.4109   -1.8767 H   0  0  0  0  0  0  0  0  0  0  0  0
    0.6330   -2.0942    0.0726 H   0  0  0  0  0  0  0  0  0  0  0  0
   -1.0114   -1.8483   -0.7936 H   0  0  0  0  0  0  0  0  0  0  0  0
    2.1442    0.3828    1.9792 H   0  0  0  0  0  0  0  0  0  0  0  0
    3.0357    0.4922    0.3724 H   0  0  0  0  0  0  0  0  0  0  0  0
  1  2  1  0
  2  3  1  0
  3  4  1  0
  4  5  1  0
  5  6  1  0
  5  7  1  0
  7  8  1  0
  8  9  1  0
  6  2  1  0
  9  7  1  0
  7  2  1  0
  1 10  1  0
  3 11  1  0
  3 12  1  0
  4 13  1  0
  4 14  1  0
  5 15  1  0
  6 16  1  0
  6 17  1  0
  8 18  1  0
  8 19  1  0
M  END
