
     RDKit          3D

 19 20  0  0  0  0  0  0  0  0999 V2000
   -0.2890    0.9310    1.6399 O   0  0  0  0  0  0  0  0  0  0  0  0
   -0.3867    0.6231    0.3092 C   0  0  0  0  0  0  0  0  0  0  0  0
   -1.7822    0.6381   -0.2777 C   0  0  0  0  0  0  0  0  0  0  0  0
   -1.7409   -0.8821    0.0156 C   0  0  0  0  0  0  0  0  0  0  0  0
   -0.2720   -0.8590   -0.0059 C   0  0  0  0  0  0  0  0  0  0  0  0
    0.9799   -1.2819   -0.1241 C   0  0  0  0  0  0  0  0  0  0  0  0
    2.1458   -0.3904    0.0356 C   0  0  0  0  0  0  0  0  0  0  0  0
    1.8890    0.9496    0.0383 O   0  0  0  0  0  0  0  0  0  0  0  0
    0.6835    1.2489   -0.5589 C   0  0  0  0  0  0  0  0  0  0  0  0
   -0.4331    0.1725    2.2413 H   0  0  0  0  0  0  0  0  0  0  0  0
   -1.8266    0.8546   -1.3635 H   0  0  0  0  0  0  0  0  0  0  0  0
   -2.4910    1.1843    0.3635 H   0  0  0  0  0  0  0  0  0  0  0  0
   -2.1095   -1.1485    1.0123 H   0  0  0  0  0  0  0  0  0  0  0  0
   -2.2371   -1.4898   -0.7551 H   0  0  0  0  0  0  0  0  0  0  0  0
    1.1584   -2.3234   -0.3471 H   0  0  0  0  0  0  0  0  0  0  0  0
    2.8018   -0.5918   -0.8646 H   0  0  0  0  0  0  0  0  0  0  0  0
    2.7836   -0.7012    0.8945 H   0  0  0  0  0  0  0  0  0  0  0  0
    0.5043    2.3252   -0.6896 H   0  0  0  0  0  0  0  0  0  0  0  0
    0.6219    0.7408   -1.5636 H   0  0  0  0  0  0  0  0  0  0  0  0
  1  2  1  0
  2  3  1  0
  3  4  1  0
  4  5  1  0
  5  6  2  0
  6  7  1  0
  7  8  1  0
  8  9  1  0
  5  2  1  0
  9  2  1  0
  1 10  1  0
  3 11  1  0
  3 12  1  0
  4 13  1  0
  4 14  1  0
  6 15  1  0
  7 16  1  0
  7 17  1  0
  9 18  1  0
  9 19  1  0
M  END
