
     RDKit          3D

 21 23  0  0  0  0  0  0  0  0999 V2000
   -0.7831   -1.2549    1.7861 O   0  0  0  0  0  0  0  0  0  0  0  0
   -0.5278   -0.4657    0.7300 C   0  0  0  0  0  0  0  0  0  0  0  0
   -1.5575    0.5583    0.3734 C   0  0  0  0  0  0  0  0  0  0  0  0
   -0.8320    1.3157   -0.7502 C   0  0  0  0  0  0  0  0  0  0  0  0
    0.6293    1.0253   -0.5566 C   0  0  0  0  0  0  0  0  0  0  0  0
    1.0008   -0.3837   -0.9944 C   0  0  0  0  0  0  0  0  0  0  0  0
    1.8527   -0.4203    0.2835 C   0  0  0  0  0  0  0  0  0  0  0  0
    0.7082    0.3910    0.8410 C   0  0  0  0  0  0  0  0  0  0  0  0
   -0.1619   -1.2281   -0.5570 C   0  0  0  0  0  0  0  0  0  0  0  0
   -1.6051   -1.7662    1.6280 H   0  0  0  0  0  0  0  0  0  0  0  0
   -1.6461    1.2963    1.2171 H   0  0  0  0  0  0  0  0  0  0  0  0
   -2.5187    0.1628    0.0514 H   0  0  0  0  0  0  0  0  0  0  0  0
   -1.1222    0.8251   -1.7234 H   0  0  0  0  0  0  0  0  0  0  0  0
   -1.0705    2.3787   -0.7523 H   0  0  0  0  0  0  0  0  0  0  0  0
    1.3417    1.8054   -0.7592 H   0  0  0  0  0  0  0  0  0  0  0  0
    1.4780   -0.5354   -1.9182 H   0  0  0  0  0  0  0  0  0  0  0  0
    1.9706   -1.4365    0.6948 H   0  0  0  0  0  0  0  0  0  0  0  0
    2.7596    0.1946    0.2400 H   0  0  0  0  0  0  0  0  0  0  0  0
    0.8532    1.0276    1.6670 H   0  0  0  0  0  0  0  0  0  0  0  0
   -0.9915   -1.2631   -1.2556 H   0  0  0  0  0  0  0  0  0  0  0  0
    0.2223   -2.2271   -0.2455 H   0  0  0  0  0  0  0  0  0  0  0  0
  1  2  1  0
  2  3  1  0
  3  4  1  0
  4  5  1  0
  5  6  1  0
  6  7  1  0
  7  8  1  0
  6  9  1  0
  8  2  1  0
  9  2  1  0
  8  5  1  0
  1 10  1  0
  3 11  1  0
  3 12  1  0
  4 13  1  0
  4 14  1  0
  5 15  1  0
  6 16  1  0
  7 17  1  0
  7 18  1  0
  8 19  1  0
  9 20  1  0
  9 21  1  0
M  END
