
     RDKit          3D

 15 18  0  0  0  0  0  0  0  0999 V2000
    2.2143    0.1731   -0.8898 O   0  0  0  0  0  0  0  0  0  0  0  0
    1.0560   -0.0906   -0.2687 C   0  0  0  0  0  0  0  0  0  0  0  0
    0.6429   -1.3231    0.3737 C   0  0  0  0  0  0  0  0  0  0  0  0
   -0.0945   -0.9660    1.5056 O   0  0  0  0  0  0  0  0  0  0  0  0
   -0.7528    0.2185    1.1541 C   0  0  0  0  0  0  0  0  0  0  0  0
    0.1078    0.9475    0.2366 C   0  0  0  0  0  0  0  0  0  0  0  0
   -1.0211    0.1662   -0.2888 C   0  0  0  0  0  0  0  0  0  0  0  0
   -2.0974    0.6467   -0.9234 O   0  0  0  0  0  0  0  0  0  0  0  0
   -0.0780   -0.8410   -0.8180 C   0  0  0  0  0  0  0  0  0  0  0  0
    2.7898    0.7327   -0.2934 H   0  0  0  0  0  0  0  0  0  0  0  0
    1.1319   -2.2858    0.3315 H   0  0  0  0  0  0  0  0  0  0  0  0
   -1.4456    0.6501    1.8670 H   0  0  0  0  0  0  0  0  0  0  0  0
    0.2526    2.0022    0.1506 H   0  0  0  0  0  0  0  0  0  0  0  0
   -2.5730    1.2927   -0.3671 H   0  0  0  0  0  0  0  0  0  0  0  0
   -0.1329   -1.3230   -1.7698 H   0  0  0  0  0  0  0  0  0  0  0  0
  1  2  1  0
  2  3  1  0
  3  4  1  0
  4  5  1  0
  5  6  1  0
  6  7  1  0
  7  8  1  0
  7  9  1  0
  6  2  1  0
  9  2  1  0
  9  3  1  0
  7  5  1  0
  1 10  1  0
  3 11  1  0
  5 12  1  0
  6 13  1  0
  8 14  1  0
  9 15  1  0
M  END
