
     RDKit          3D

 16 17  0  0  0  0  0  0  0  0999 V2000
   -0.1502   -2.3187    0.0751 O   0  0  0  0  0  0  0  0  0  0  0  0
    0.0475   -1.0223    0.1212 C   0  0  0  0  0  0  0  0  0  0  0  0
    0.8298   -0.3699    1.1827 C   0  0  0  0  0  0  0  0  0  0  0  0
    0.7665    0.9332    0.8472 C   0  0  0  0  0  0  0  0  0  0  0  0
   -0.0388    0.9195   -0.3821 C   0  0  0  0  0  0  0  0  0  0  0  0
   -0.3447    2.0035   -1.0518 O   0  0  0  0  0  0  0  0  0  0  0  0
   -1.1513   -0.0690    0.0059 C   0  0  0  0  0  0  0  0  0  0  0  0
    0.5628   -0.2849   -1.1178 C   0  0  0  0  0  0  0  0  0  0  0  0
   -1.0108   -2.5798    0.4866 H   0  0  0  0  0  0  0  0  0  0  0  0
    1.3206   -0.8574    2.0138 H   0  0  0  0  0  0  0  0  0  0  0  0
    1.1923    1.7976    1.3401 H   0  0  0  0  0  0  0  0  0  0  0  0
   -0.2916    2.8132   -0.4996 H   0  0  0  0  0  0  0  0  0  0  0  0
   -1.5825    0.1040    0.9938 H   0  0  0  0  0  0  0  0  0  0  0  0
   -1.8306   -0.2931   -0.8264 H   0  0  0  0  0  0  0  0  0  0  0  0
    1.6613   -0.2382   -1.1633 H   0  0  0  0  0  0  0  0  0  0  0  0
    0.0197   -0.5377   -2.0254 H   0  0  0  0  0  0  0  0  0  0  0  0
  1  2  1  0
  2  3  1  0
  3  4  2  0
  4  5  1  0
  5  6  1  0
  5  7  1  0
  5  8  1  0
  7  2  1  0
  8  2  1  0
  1  9  1  0
  3 10  1  0
  4 11  1  0
  6 12  1  0
  7 13  1  0
  7 14  1  0
  8 15  1  0
  8 16  1  0
M  END
