
     RDKit          3D

 16 18  0  0  0  0  0  0  0  0999 V2000
    1.8832   -1.3868   -0.4242 O   0  0  0  0  0  0  0  0  0  0  0  0
    0.8209   -0.6174   -0.0296 C   0  0  0  0  0  0  0  0  0  0  0  0
    1.0385    0.7827    0.4739 C   0  0  0  0  0  0  0  0  0  0  0  0
   -0.2222    1.1958   -0.2272 C   0  0  0  0  0  0  0  0  0  0  0  0
   -1.4025    0.8173    0.5875 C   0  0  0  0  0  0  0  0  0  0  0  0
   -1.6094   -0.4904    0.5347 C   0  0  0  0  0  0  0  0  0  0  0  0
   -0.5477   -1.1049   -0.3480 C   0  0  0  0  0  0  0  0  0  0  0  0
   -0.0658    0.0109   -1.1230 C   0  0  0  0  0  0  0  0  0  0  0  0
    2.1677   -1.9411    0.3430 H   0  0  0  0  0  0  0  0  0  0  0  0
    1.0664    0.9128    1.5616 H   0  0  0  0  0  0  0  0  0  0  0  0
    1.9205    1.2494   -0.0474 H   0  0  0  0  0  0  0  0  0  0  0  0
   -0.2414    2.1816   -0.6935 H   0  0  0  0  0  0  0  0  0  0  0  0
   -2.0239    1.4982    1.1553 H   0  0  0  0  0  0  0  0  0  0  0  0
   -2.3958   -1.0265    1.0322 H   0  0  0  0  0  0  0  0  0  0  0  0
   -0.6590   -2.1310   -0.6611 H   0  0  0  0  0  0  0  0  0  0  0  0
    0.2704    0.0494   -2.1342 H   0  0  0  0  0  0  0  0  0  0  0  0
  1  2  1  0
  2  3  1  0
  3  4  1  0
  4  5  1  0
  5  6  2  0
  6  7  1  0
  7  8  1  0
  7  2  1  0
  8  2  1  0
  8  4  1  0
  1  9  1  0
  3 10  1  0
  3 11  1  0
  4 12  1  0
  5 13  1  0
  6 14  1  0
  7 15  1  0
  8 16  1  0
M  END
