
     RDKit          3D

 18 19  0  0  0  0  0  0  0  0999 V2000
   -1.5357    1.6400   -0.9356 O   0  0  0  0  0  0  0  0  0  0  0  0
   -0.7057    0.7650   -0.2073 C   0  0  0  0  0  0  0  0  0  0  0  0
    0.7163    1.2262   -0.1440 C   0  0  0  0  0  0  0  0  0  0  0  0
    1.6677    0.2244    0.3291 C   0  0  0  0  0  0  0  0  0  0  0  0
    1.4105   -1.0601    0.2686 C   0  0  0  0  0  0  0  0  0  0  0  0
    0.1457   -1.6148   -0.2785 C   0  0  0  0  0  0  0  0  0  0  0  0
   -0.9519   -0.6408   -0.4212 C   0  0  0  0  0  0  0  0  0  0  0  0
   -1.3532    0.0432    0.9065 C   0  0  0  0  0  0  0  0  0  0  0  0
   -1.0924    2.4656   -1.1830 H   0  0  0  0  0  0  0  0  0  0  0  0
    0.8131    2.1299    0.5008 H   0  0  0  0  0  0  0  0  0  0  0  0
    1.0087    1.5524   -1.1629 H   0  0  0  0  0  0  0  0  0  0  0  0
    2.6126    0.5526    0.7416 H   0  0  0  0  0  0  0  0  0  0  0  0
    2.1640   -1.7485    0.6389 H   0  0  0  0  0  0  0  0  0  0  0  0
   -0.2011   -2.4342    0.4138 H   0  0  0  0  0  0  0  0  0  0  0  0
    0.3898   -2.0812   -1.2667 H   0  0  0  0  0  0  0  0  0  0  0  0
   -1.7886   -0.9677   -1.0743 H   0  0  0  0  0  0  0  0  0  0  0  0
   -2.4580    0.2010    1.0557 H   0  0  0  0  0  0  0  0  0  0  0  0
   -0.8419   -0.2531    1.8185 H   0  0  0  0  0  0  0  0  0  0  0  0
  1  2  1  0
  2  3  1  0
  3  4  1  0
  4  5  2  0
  5  6  1  0
  6  7  1  0
  7  8  1  0
  7  2  1  0
  8  2  1  0
  1  9  1  0
  3 10  1  0
  3 11  1  0
  4 12  1  0
  5 13  1  0
  6 14  1  0
  6 15  1  0
  7 16  1  0
  8 17  1  0
  8 18  1  0
M  END
