
     RDKit          3D

 19 21  0  0  0  0  0  0  0  0999 V2000
   -0.2226    1.9000   -0.7254 O   0  0  0  0  0  0  0  0  0  0  0  0
   -0.3031    0.6705   -0.1449 C   0  0  0  0  0  0  0  0  0  0  0  0
   -1.5890    0.3198    0.5588 C   0  0  0  0  0  0  0  0  0  0  0  0
   -1.3883   -1.1069    0.0216 C   0  0  0  0  0  0  0  0  0  0  0  0
   -0.5951   -0.4929   -1.1001 C   0  0  0  0  0  0  0  0  0  0  0  0
    0.6266   -1.0430   -1.3750 O   0  0  0  0  0  0  0  0  0  0  0  0
    1.4725   -0.8510   -0.3250 C   0  0  0  0  0  0  0  0  0  0  0  0
    2.2130    0.3844   -0.0608 C   0  0  0  0  0  0  0  0  0  0  0  0
    0.8995    0.1592    0.5864 C   0  0  0  0  0  0  0  0  0  0  0  0
   -0.9775    2.4774   -0.4777 H   0  0  0  0  0  0  0  0  0  0  0  0
   -1.4902    0.4087    1.6447 H   0  0  0  0  0  0  0  0  0  0  0  0
   -2.4298    0.8601    0.0833 H   0  0  0  0  0  0  0  0  0  0  0  0
   -0.8088   -1.7132    0.7300 H   0  0  0  0  0  0  0  0  0  0  0  0
   -2.3608   -1.5355   -0.2323 H   0  0  0  0  0  0  0  0  0  0  0  0
   -1.2012   -0.2260   -1.9747 H   0  0  0  0  0  0  0  0  0  0  0  0
    1.9299   -1.8024    0.0687 H   0  0  0  0  0  0  0  0  0  0  0  0
    2.2521    1.2402   -0.7642 H   0  0  0  0  0  0  0  0  0  0  0  0
    3.1168    0.3227    0.5783 H   0  0  0  0  0  0  0  0  0  0  0  0
    0.8560    0.0279    1.6769 H   0  0  0  0  0  0  0  0  0  0  0  0
  1  2  1  0
  2  3  1  0
  3  4  1  0
  4  5  1  0
  5  6  1  0
  6  7  1  0
  7  8  1  0
  8  9  1  0
  5  2  1  0
  9  7  1  0
  9  2  1  0
  1 10  1  0
  3 11  1  0
  3 12  1  0
  4 13  1  0
  4 14  1  0
  5 15  1  0
  7 16  1  0
  8 17  1  0
  8 18  1  0
  9 19  1  0
M  END
