
     RDKit          3D

 14 16  0  0  0  0  0  0  0  0999 V2000
    1.8737    0.9052    0.1292 O   0  0  0  0  0  0  0  0  0  0  0  0
    0.7945    0.1367    0.0073 C   0  0  0  0  0  0  0  0  0  0  0  0
   -0.2867    0.3239   -1.0167 C   0  0  0  0  0  0  0  0  0  0  0  0
   -1.4890    0.4527   -0.0770 C   0  0  0  0  0  0  0  0  0  0  0  0
   -1.1632   -0.1745    1.0889 O   0  0  0  0  0  0  0  0  0  0  0  0
    0.1160   -0.6365    1.0502 C   0  0  0  0  0  0  0  0  0  0  0  0
    0.6574   -1.2633   -0.2364 C   0  0  0  0  0  0  0  0  0  0  0  0
   -0.0568   -1.0014   -1.4152 O   0  0  0  0  0  0  0  0  0  0  0  0
    1.7352    1.5578    0.8834 H   0  0  0  0  0  0  0  0  0  0  0  0
   -0.1712    1.0939   -1.7610 H   0  0  0  0  0  0  0  0  0  0  0  0
   -2.3939    0.0095   -0.4955 H   0  0  0  0  0  0  0  0  0  0  0  0
   -1.6261    1.5593    0.0660 H   0  0  0  0  0  0  0  0  0  0  0  0
    0.6069   -0.9214    1.9705 H   0  0  0  0  0  0  0  0  0  0  0  0
    1.4032   -2.0418   -0.1938 H   0  0  0  0  0  0  0  0  0  0  0  0
  1  2  1  0
  2  3  1  0
  3  4  1  0
  4  5  1  0
  5  6  1  0
  6  7  1  0
  7  8  1  0
  6  2  1  0
  7  2  1  0
  8  3  1  0
  1  9  1  0
  3 10  1  0
  4 11  1  0
  4 12  1  0
  6 13  1  0
  7 14  1  0
M  END
