
     RDKit          3D

 19 22  0  0  0  0  0  0  0  0999 V2000
    0.0170    2.2399   -0.4354 O   0  0  0  0  0  0  0  0  0  0  0  0
   -0.1716    0.9335   -0.1883 C   0  0  0  0  0  0  0  0  0  0  0  0
   -1.5323    0.3499   -0.1717 C   0  0  0  0  0  0  0  0  0  0  0  0
   -1.2129   -1.1137    0.1615 C   0  0  0  0  0  0  0  0  0  0  0  0
   -0.0154   -1.0641    0.9998 C   0  0  0  0  0  0  0  0  0  0  0  0
    0.0282   -1.3590   -0.5439 C   0  0  0  0  0  0  0  0  0  0  0  0
    0.6387   -0.0687   -0.9967 C   0  0  0  0  0  0  0  0  0  0  0  0
    1.7619    0.2789   -0.0044 C   0  0  0  0  0  0  0  0  0  0  0  0
    0.5753    0.3088    0.9764 C   0  0  0  0  0  0  0  0  0  0  0  0
   -0.7685    2.7568   -0.1303 H   0  0  0  0  0  0  0  0  0  0  0  0
   -2.2204    0.7586    0.5627 H   0  0  0  0  0  0  0  0  0  0  0  0
   -2.0110    0.3467   -1.1897 H   0  0  0  0  0  0  0  0  0  0  0  0
   -2.0134   -1.8230    0.2710 H   0  0  0  0  0  0  0  0  0  0  0  0
    0.3254   -1.8474    1.6580 H   0  0  0  0  0  0  0  0  0  0  0  0
    0.4690   -2.3235   -0.7784 H   0  0  0  0  0  0  0  0  0  0  0  0
    0.8145    0.1251   -2.0235 H   0  0  0  0  0  0  0  0  0  0  0  0
    2.3807   -0.6086    0.1363 H   0  0  0  0  0  0  0  0  0  0  0  0
    2.2381    1.2391   -0.1726 H   0  0  0  0  0  0  0  0  0  0  0  0
    0.6968    0.8707    1.8691 H   0  0  0  0  0  0  0  0  0  0  0  0
  1  2  1  0
  2  3  1  0
  3  4  1  0
  4  5  1  0
  5  6  1  0
  6  7  1  0
  7  8  1  0
  8  9  1  0
  7  2  1  0
  9  2  1  0
  6  4  1  0
  9  5  1  0
  1 10  1  0
  3 11  1  0
  3 12  1  0
  4 13  1  0
  5 14  1  0
  6 15  1  0
  7 16  1  0
  8 17  1  0
  8 18  1  0
  9 19  1  0
M  END
