
     RDKit          3D

 17 20  0  0  0  0  0  0  0  0999 V2000
    1.6046    1.0787    1.3686 O   0  0  0  0  0  0  0  0  0  0  0  0
    0.7023    0.5261    0.5245 C   0  0  0  0  0  0  0  0  0  0  0  0
   -0.4673    1.2069   -0.0363 C   0  0  0  0  0  0  0  0  0  0  0  0
   -1.5639    0.1788    0.0614 C   0  0  0  0  0  0  0  0  0  0  0  0
   -0.8831   -1.1018   -0.2651 C   0  0  0  0  0  0  0  0  0  0  0  0
    0.3626   -1.1886   -1.0402 C   0  0  0  0  0  0  0  0  0  0  0  0
    0.8517   -0.0815   -1.7138 O   0  0  0  0  0  0  0  0  0  0  0  0
    0.7087    1.0157   -0.8980 C   0  0  0  0  0  0  0  0  0  0  0  0
    0.4668   -0.9342    0.4008 C   0  0  0  0  0  0  0  0  0  0  0  0
    1.9077    0.5015    2.1038 H   0  0  0  0  0  0  0  0  0  0  0  0
   -0.6640    2.2343    0.3403 H   0  0  0  0  0  0  0  0  0  0  0  0
   -2.4566    0.4090   -0.5095 H   0  0  0  0  0  0  0  0  0  0  0  0
   -1.8537    0.1358    1.1490 H   0  0  0  0  0  0  0  0  0  0  0  0
   -1.4357   -2.0573   -0.0628 H   0  0  0  0  0  0  0  0  0  0  0  0
    0.6725   -2.1552   -1.4248 H   0  0  0  0  0  0  0  0  0  0  0  0
    1.3088    1.8918   -1.1514 H   0  0  0  0  0  0  0  0  0  0  0  0
    0.7386   -1.6600    1.1535 H   0  0  0  0  0  0  0  0  0  0  0  0
  1  2  1  0
  2  3  1  0
  3  4  1  0
  4  5  1  0
  5  6  1  0
  6  7  1  0
  7  8  1  0
  6  9  1  0
  8  2  1  0
  9  2  1  0
  8  3  1  0
  9  5  1  0
  1 10  1  0
  3 11  1  0
  4 12  1  0
  4 13  1  0
  5 14  1  0
  6 15  1  0
  8 16  1  0
  9 17  1  0
M  END
