
     RDKit          3D

 17 20  0  0  0  0  0  0  0  0999 V2000
    2.3779    0.6088    0.4138 O   0  0  0  0  0  0  0  0  0  0  0  0
    1.0837    0.2873    0.1696 C   0  0  0  0  0  0  0  0  0  0  0  0
    0.7022   -0.5934   -1.0064 C   0  0  0  0  0  0  0  0  0  0  0  0
   -0.7782   -0.6372   -0.8720 C   0  0  0  0  0  0  0  0  0  0  0  0
   -1.0341   -0.7927    0.5923 C   0  0  0  0  0  0  0  0  0  0  0  0
   -2.0934    0.1311    0.4087 O   0  0  0  0  0  0  0  0  0  0  0  0
   -1.2009    0.7571   -0.4961 C   0  0  0  0  0  0  0  0  0  0  0  0
   -0.0042    1.2400    0.2824 C   0  0  0  0  0  0  0  0  0  0  0  0
    0.1304   -0.0296    1.1998 C   0  0  0  0  0  0  0  0  0  0  0  0
    2.7790   -0.1235    0.9740 H   0  0  0  0  0  0  0  0  0  0  0  0
    1.0981   -1.6284   -0.9018 H   0  0  0  0  0  0  0  0  0  0  0  0
    1.0546   -0.1140   -1.9465 H   0  0  0  0  0  0  0  0  0  0  0  0
   -1.3696   -1.1846   -1.5749 H   0  0  0  0  0  0  0  0  0  0  0  0
   -1.2846   -1.7463    0.9980 H   0  0  0  0  0  0  0  0  0  0  0  0
   -1.6310    1.3920   -1.2409 H   0  0  0  0  0  0  0  0  0  0  0  0
    0.0257    2.2075    0.7557 H   0  0  0  0  0  0  0  0  0  0  0  0
    0.1443    0.2259    2.2442 H   0  0  0  0  0  0  0  0  0  0  0  0
  1  2  1  0
  2  3  1  0
  3  4  1  0
  4  5  1  0
  5  6  1  0
  6  7  1  0
  7  8  1  0
  8  9  1  0
  8  2  1  0
  9  2  1  0
  7  4  1  0
  9  5  1  0
  1 10  1  0
  3 11  1  0
  3 12  1  0
  4 13  1  0
  5 14  1  0
  7 15  1  0
  8 16  1  0
  9 17  1  0
M  END
