
     RDKit          3D

 19 20  0  0  0  0  0  0  0  0999 V2000
    0.5942   -1.7892   -0.8716 O   0  0  0  0  0  0  0  0  0  0  0  0
    0.0353   -0.7259   -0.2227 C   0  0  0  0  0  0  0  0  0  0  0  0
   -1.3075   -0.9627    0.3671 C   0  0  0  0  0  0  0  0  0  0  0  0
   -1.9066    0.3824    0.4680 C   0  0  0  0  0  0  0  0  0  0  0  0
   -1.2808    1.1979   -0.3610 C   0  0  0  0  0  0  0  0  0  0  0  0
   -0.2019    0.4783   -1.0965 C   0  0  0  0  0  0  0  0  0  0  0  0
    0.9542    1.2310   -1.0877 O   0  0  0  0  0  0  0  0  0  0  0  0
    1.7383    0.8519   -0.0324 C   0  0  0  0  0  0  0  0  0  0  0  0
    0.9929   -0.1432    0.8095 C   0  0  0  0  0  0  0  0  0  0  0  0
    1.5274   -1.9094   -0.5419 H   0  0  0  0  0  0  0  0  0  0  0  0
   -1.1854   -1.4553    1.3528 H   0  0  0  0  0  0  0  0  0  0  0  0
   -1.8939   -1.6573   -0.2643 H   0  0  0  0  0  0  0  0  0  0  0  0
   -2.7428    0.6194    1.1433 H   0  0  0  0  0  0  0  0  0  0  0  0
   -1.5050    2.2460   -0.5013 H   0  0  0  0  0  0  0  0  0  0  0  0
   -0.5793    0.2309   -2.1029 H   0  0  0  0  0  0  0  0  0  0  0  0
    2.6352    0.3037   -0.4457 H   0  0  0  0  0  0  0  0  0  0  0  0
    2.1018    1.7219    0.5779 H   0  0  0  0  0  0  0  0  0  0  0  0
    0.4046    0.3438    1.6145 H   0  0  0  0  0  0  0  0  0  0  0  0
    1.6194   -0.9642    1.1948 H   0  0  0  0  0  0  0  0  0  0  0  0
  1  2  1  0
  2  3  1  0
  3  4  1  0
  4  5  2  0
  5  6  1  0
  6  7  1  0
  7  8  1  0
  8  9  1  0
  6  2  1  0
  9  2  1  0
  1 10  1  0
  3 11  1  0
  3 12  1  0
  4 13  1  0
  5 14  1  0
  6 15  1  0
  8 16  1  0
  8 17  1  0
  9 18  1  0
  9 19  1  0
M  END
