
     RDKit          3D

 17 19  0  0  0  0  0  0  0  0999 V2000
    0.9758    1.7418   -0.9394 O   0  0  0  0  0  0  0  0  0  0  0  0
    0.4489    0.6117   -0.4635 C   0  0  0  0  0  0  0  0  0  0  0  0
    0.7101    0.1934    0.9403 C   0  0  0  0  0  0  0  0  0  0  0  0
    0.9298   -1.2186    0.4215 C   0  0  0  0  0  0  0  0  0  0  0  0
    0.7360   -0.7097   -0.9876 C   0  0  0  0  0  0  0  0  0  0  0  0
   -0.5774   -0.8753   -1.3990 O   0  0  0  0  0  0  0  0  0  0  0  0
   -0.9772    0.2737   -0.7171 C   0  0  0  0  0  0  0  0  0  0  0  0
   -1.5003    0.0511    0.6743 C   0  0  0  0  0  0  0  0  0  0  0  0
   -0.5172    0.3966    1.5625 O   0  0  0  0  0  0  0  0  0  0  0  0
    0.5145    2.5238   -0.5281 H   0  0  0  0  0  0  0  0  0  0  0  0
    1.5508    0.6439    1.4602 H   0  0  0  0  0  0  0  0  0  0  0  0
    1.8970   -1.6605    0.6531 H   0  0  0  0  0  0  0  0  0  0  0  0
    0.0936   -1.8647    0.7592 H   0  0  0  0  0  0  0  0  0  0  0  0
    1.5218   -0.8981   -1.7004 H   0  0  0  0  0  0  0  0  0  0  0  0
   -1.5426    0.9697   -1.3524 H   0  0  0  0  0  0  0  0  0  0  0  0
   -2.3538    0.7724    0.8175 H   0  0  0  0  0  0  0  0  0  0  0  0
   -1.9096   -0.9512    0.7989 H   0  0  0  0  0  0  0  0  0  0  0  0
  1  2  1  0
  2  3  1  0
  3  4  1  0
  4  5  1  0
  5  6  1  0
  6  7  1  0
  7  8  1  0
  8  9  1  0
  5  2  1  0
  7  2  1  0
  9  3  1  0
  1 10  1  0
  3 11  1  0
  4 12  1  0
  4 13  1  0
  5 14  1  0
  7 15  1  0
  8 16  1  0
  8 17  1  0
M  END
