
     RDKit          3D

 16 18  0  0  0  0  0  0  0  0999 V2000
   -1.2009    1.8579   -0.6158 O   0  0  0  0  0  0  0  0  0  0  0  0
   -0.7905    0.7368    0.0808 C   0  0  0  0  0  0  0  0  0  0  0  0
   -1.7247   -0.3565    0.3946 C   0  0  0  0  0  0  0  0  0  0  0  0
   -0.6593   -0.5688   -0.6081 C   0  0  0  0  0  0  0  0  0  0  0  0
    0.7403   -0.7031   -0.0865 C   0  0  0  0  0  0  0  0  0  0  0  0
    1.0817   -1.8493    0.6066 O   0  0  0  0  0  0  0  0  0  0  0  0
    1.7172    0.3485   -0.4165 C   0  0  0  0  0  0  0  0  0  0  0  0
    0.6239    0.6129    0.5645 C   0  0  0  0  0  0  0  0  0  0  0  0
   -0.6717    2.6634   -0.4338 H   0  0  0  0  0  0  0  0  0  0  0  0
   -1.6209   -0.8478    1.3896 H   0  0  0  0  0  0  0  0  0  0  0  0
   -2.7534   -0.3558    0.0175 H   0  0  0  0  0  0  0  0  0  0  0  0
   -0.8727   -0.6892   -1.6876 H   0  0  0  0  0  0  0  0  0  0  0  0
    0.8833   -2.6431    0.0314 H   0  0  0  0  0  0  0  0  0  0  0  0
    2.7312    0.3073    0.0043 H   0  0  0  0  0  0  0  0  0  0  0  0
    1.6517    0.7774   -1.4484 H   0  0  0  0  0  0  0  0  0  0  0  0
    0.8647    0.7095    1.6374 H   0  0  0  0  0  0  0  0  0  0  0  0
  1  2  1  0
  2  3  1  0
  3  4  1  0
  4  5  1  0
  5  6  1  0
  5  7  1  0
  7  8  1  0
  4  2  1  0
  8  5  1  0
  8  2  1  0
  1  9  1  0
  3 10  1  0
  3 11  1  0
  4 12  1  0
  6 13  1  0
  7 14  1  0
  7 15  1  0
  8 16  1  0
M  END
