
     RDKit          3D

 17 21  0  0  0  0  0  0  0  0999 V2000
    2.3040    0.9296    0.4836 O   0  0  0  0  0  0  0  0  0  0  0  0
    1.0101    0.5904    0.3302 C   0  0  0  0  0  0  0  0  0  0  0  0
    0.2477    0.6208   -0.9179 C   0  0  0  0  0  0  0  0  0  0  0  0
   -1.1614    0.8594   -0.4912 C   0  0  0  0  0  0  0  0  0  0  0  0
   -1.3976   -0.5784   -0.4245 C   0  0  0  0  0  0  0  0  0  0  0  0
   -1.2846    0.2090    0.8082 C   0  0  0  0  0  0  0  0  0  0  0  0
    0.1244    0.0335    1.3494 C   0  0  0  0  0  0  0  0  0  0  0  0
    0.7455   -0.9299    0.4344 C   0  0  0  0  0  0  0  0  0  0  0  0
    0.0092   -0.8462   -0.8304 C   0  0  0  0  0  0  0  0  0  0  0  0
    2.8762    0.3673   -0.1307 H   0  0  0  0  0  0  0  0  0  0  0  0
    0.6214    1.0572   -1.8150 H   0  0  0  0  0  0  0  0  0  0  0  0
   -1.8057    1.6072   -0.9127 H   0  0  0  0  0  0  0  0  0  0  0  0
   -2.2532   -1.1192   -0.7703 H   0  0  0  0  0  0  0  0  0  0  0  0
   -2.1345    0.2563    1.4740 H   0  0  0  0  0  0  0  0  0  0  0  0
    0.3123    0.0104    2.4168 H   0  0  0  0  0  0  0  0  0  0  0  0
    1.5631   -1.5871    0.6591 H   0  0  0  0  0  0  0  0  0  0  0  0
    0.2231   -1.4802   -1.6630 H   0  0  0  0  0  0  0  0  0  0  0  0
  1  2  1  0
  2  3  1  0
  3  4  1  0
  4  5  1  0
  5  6  1  0
  6  7  1  0
  7  8  1  0
  8  9  1  0
  7  2  1  0
  8  2  1  0
  9  3  1  0
  6  4  1  0
  9  5  1  0
  1 10  1  0
  3 11  1  0
  4 12  1  0
  5 13  1  0
  6 14  1  0
  7 15  1  0
  8 16  1  0
  9 17  1  0
M  END
