
     RDKit          3D

 18 20  0  0  0  0  0  0  0  0999 V2000
   -2.5058    0.5161    0.7574 O   0  0  0  0  0  0  0  0  0  0  0  0
   -1.4449   -0.2549    0.3325 C   0  0  0  0  0  0  0  0  0  0  0  0
   -1.4945   -0.8213   -1.0230 C   0  0  0  0  0  0  0  0  0  0  0  0
   -0.5733    0.3309   -0.8185 C   0  0  0  0  0  0  0  0  0  0  0  0
    0.6088    0.0832    0.0488 C   0  0  0  0  0  0  0  0  0  0  0  0
    1.7725    0.9329    0.1453 C   0  0  0  0  0  0  0  0  0  0  0  0
    1.8599   -0.5048   -0.3919 C   0  0  0  0  0  0  0  0  0  0  0  0
   -0.2140   -0.4006    1.1856 C   0  0  0  0  0  0  0  0  0  0  0  0
   -2.2590    1.4256    1.0127 H   0  0  0  0  0  0  0  0  0  0  0  0
   -2.4059   -0.6230   -1.6066 H   0  0  0  0  0  0  0  0  0  0  0  0
   -0.9746   -1.7761   -1.2862 H   0  0  0  0  0  0  0  0  0  0  0  0
   -0.8254    1.3487   -1.1556 H   0  0  0  0  0  0  0  0  0  0  0  0
    1.9120    1.7080   -0.6601 H   0  0  0  0  0  0  0  0  0  0  0  0
    2.2426    1.1620    1.1085 H   0  0  0  0  0  0  0  0  0  0  0  0
    2.1606   -0.6438   -1.4436 H   0  0  0  0  0  0  0  0  0  0  0  0
    2.4048   -1.1995    0.2963 H   0  0  0  0  0  0  0  0  0  0  0  0
   -0.0284   -1.4797    1.3933 H   0  0  0  0  0  0  0  0  0  0  0  0
   -0.2355    0.1964    2.1052 H   0  0  0  0  0  0  0  0  0  0  0  0
  1  2  1  0
  2  3  1  0
  3  4  1  0
  4  5  1  0
  5  6  1  0
  6  7  1  0
  5  8  1  0
  4  2  1  0
  7  5  1  0
  8  2  1  0
  1  9  1  0
  3 10  1  0
  3 11  1  0
  4 12  1  0
  6 13  1  0
  6 14  1  0
  7 15  1  0
  7 16  1  0
  8 17  1  0
  8 18  1  0
M  END
