
     RDKit          3D

 21 22  0  0  0  0  0  0  0  0999 V2000
    2.5309   -0.5365    0.5967 O   0  0  0  0  0  0  0  0  0  0  0  0
    1.2800   -0.1618    0.0282 C   0  0  0  0  0  0  0  0  0  0  0  0
    0.6984   -1.2179   -0.7994 C   0  0  0  0  0  0  0  0  0  0  0  0
   -0.5384   -1.7609   -0.1696 C   0  0  0  0  0  0  0  0  0  0  0  0
   -1.6280   -1.0637    0.1155 C   0  0  0  0  0  0  0  0  0  0  0  0
   -1.8192    0.3921   -0.1403 C   0  0  0  0  0  0  0  0  0  0  0  0
   -0.8527    1.1256    0.6822 C   0  0  0  0  0  0  0  0  0  0  0  0
    0.5733    0.8841    0.6233 C   0  0  0  0  0  0  0  0  0  0  0  0
    1.2995    1.2279   -0.6881 C   0  0  0  0  0  0  0  0  0  0  0  0
    2.3893   -0.5285    1.5743 H   0  0  0  0  0  0  0  0  0  0  0  0
    1.4192   -2.0253   -1.0448 H   0  0  0  0  0  0  0  0  0  0  0  0
    0.3549   -0.8621   -1.8188 H   0  0  0  0  0  0  0  0  0  0  0  0
   -0.5574   -2.8117    0.0794 H   0  0  0  0  0  0  0  0  0  0  0  0
   -2.4692   -1.6006    0.5822 H   0  0  0  0  0  0  0  0  0  0  0  0
   -2.8337    0.6575    0.1406 H   0  0  0  0  0  0  0  0  0  0  0  0
   -1.6578    0.5381   -1.2409 H   0  0  0  0  0  0  0  0  0  0  0  0
   -1.0332    2.2319    0.5027 H   0  0  0  0  0  0  0  0  0  0  0  0
   -1.2043    1.0068    1.7556 H   0  0  0  0  0  0  0  0  0  0  0  0
    1.1001    1.4248    1.4804 H   0  0  0  0  0  0  0  0  0  0  0  0
    0.6870    1.3484   -1.5798 H   0  0  0  0  0  0  0  0  0  0  0  0
    2.2613    1.7316   -0.6794 H   0  0  0  0  0  0  0  0  0  0  0  0
  1  2  1  0
  2  3  1  0
  3  4  1  0
  4  5  2  0
  5  6  1  0
  6  7  1  0
  7  8  1  0
  8  9  1  0
  8  2  1  0
  9  2  1  0
  1 10  1  0
  3 11  1  0
  3 12  1  0
  4 13  1  0
  5 14  1  0
  6 15  1  0
  6 16  1  0
  7 17  1  0
  7 18  1  0
  8 19  1  0
  9 20  1  0
  9 21  1  0
M  END
