
     RDKit          3D

 16 18  0  0  0  0  0  0  0  0999 V2000
    0.0151    1.6435   -1.3041 O   0  0  0  0  0  0  0  0  0  0  0  0
    0.2227    0.6664   -0.4335 C   0  0  0  0  0  0  0  0  0  0  0  0
    1.5194    0.5291    0.2610 C   0  0  0  0  0  0  0  0  0  0  0  0
    1.3258   -0.5192    1.0631 C   0  0  0  0  0  0  0  0  0  0  0  0
   -0.0425   -0.9551    0.7260 C   0  0  0  0  0  0  0  0  0  0  0  0
   -0.8123    0.3255    0.5992 C   0  0  0  0  0  0  0  0  0  0  0  0
   -1.5625   -0.3440   -0.5120 C   0  0  0  0  0  0  0  0  0  0  0  0
   -0.1361   -0.7480   -0.7544 C   0  0  0  0  0  0  0  0  0  0  0  0
    0.7208    2.3539   -1.2123 H   0  0  0  0  0  0  0  0  0  0  0  0
    2.3831    1.1618    0.1098 H   0  0  0  0  0  0  0  0  0  0  0  0
    1.9752   -0.9788    1.7972 H   0  0  0  0  0  0  0  0  0  0  0  0
   -0.4759   -1.8052    1.1853 H   0  0  0  0  0  0  0  0  0  0  0  0
   -1.1685    0.9074    1.3266 H   0  0  0  0  0  0  0  0  0  0  0  0
   -2.0394    0.2951   -1.2496 H   0  0  0  0  0  0  0  0  0  0  0  0
   -2.1450   -1.2001   -0.1184 H   0  0  0  0  0  0  0  0  0  0  0  0
    0.2201   -1.3324   -1.4839 H   0  0  0  0  0  0  0  0  0  0  0  0
  1  2  1  0
  2  3  1  0
  3  4  2  0
  4  5  1  0
  5  6  1  0
  6  7  1  0
  7  8  1  0
  6  2  1  0
  8  2  1  0
  8  5  1  0
  1  9  1  0
  3 10  1  0
  4 11  1  0
  5 12  1  0
  6 13  1  0
  7 14  1  0
  7 15  1  0
  8 16  1  0
M  END
