
     RDKit          3D

 19 21  0  0  0  0  0  0  0  0999 V2000
    1.1235    0.8950   -1.6634 O   0  0  0  0  0  0  0  0  0  0  0  0
    0.3814    0.6000   -0.5403 C   0  0  0  0  0  0  0  0  0  0  0  0
   -1.0925    0.7178   -0.6330 C   0  0  0  0  0  0  0  0  0  0  0  0
   -1.6072   -0.7088   -0.4100 C   0  0  0  0  0  0  0  0  0  0  0  0
   -0.5952   -1.2108    0.6063 C   0  0  0  0  0  0  0  0  0  0  0  0
    0.7100   -0.8001   -0.0551 C   0  0  0  0  0  0  0  0  0  0  0  0
    1.6756   -0.2742    0.9465 C   0  0  0  0  0  0  0  0  0  0  0  0
    2.3944    0.8707    0.7671 O   0  0  0  0  0  0  0  0  0  0  0  0
    1.0400    1.1065    0.7129 C   0  0  0  0  0  0  0  0  0  0  0  0
    1.3101    1.8387   -1.7990 H   0  0  0  0  0  0  0  0  0  0  0  0
   -1.3864    0.9704   -1.6934 H   0  0  0  0  0  0  0  0  0  0  0  0
   -1.5560    1.3848    0.0938 H   0  0  0  0  0  0  0  0  0  0  0  0
   -2.6318   -0.6588    0.0080 H   0  0  0  0  0  0  0  0  0  0  0  0
   -1.6133   -1.2954   -1.3367 H   0  0  0  0  0  0  0  0  0  0  0  0
   -0.7202   -0.5624    1.5023 H   0  0  0  0  0  0  0  0  0  0  0  0
   -0.6676   -2.2762    0.8065 H   0  0  0  0  0  0  0  0  0  0  0  0
    1.0789   -1.4707   -0.8275 H   0  0  0  0  0  0  0  0  0  0  0  0
    1.6786   -0.6662    1.9854 H   0  0  0  0  0  0  0  0  0  0  0  0
    0.4778    1.5398    1.5297 H   0  0  0  0  0  0  0  0  0  0  0  0
  1  2  1  0
  2  3  1  0
  3  4  1  0
  4  5  1  0
  5  6  1  0
  6  7  1  0
  7  8  1  0
  8  9  1  0
  6  2  1  0
  9  7  1  0
  9  2  1  0
  1 10  1  0
  3 11  1  0
  3 12  1  0
  4 13  1  0
  4 14  1  0
  5 15  1  0
  5 16  1  0
  6 17  1  0
  7 18  1  0
  9 19  1  0
M  END
