
     RDKit          3D

 21 23  0  0  0  0  0  0  0  0999 V2000
   -1.0110   -0.6146   -1.5855 O   0  0  0  0  0  0  0  0  0  0  0  0
   -1.2198   -0.3859   -0.2080 C   0  0  0  0  0  0  0  0  0  0  0  0
   -0.5913   -1.4278    0.6090 C   0  0  0  0  0  0  0  0  0  0  0  0
    0.9164   -1.1344    0.5810 C   0  0  0  0  0  0  0  0  0  0  0  0
    1.3182   -0.1932   -0.5103 C   0  0  0  0  0  0  0  0  0  0  0  0
    1.9455    1.1133   -0.0035 C   0  0  0  0  0  0  0  0  0  0  0  0
    0.5646    1.1269   -0.4857 C   0  0  0  0  0  0  0  0  0  0  0  0
   -0.5981    0.9287    0.3850 C   0  0  0  0  0  0  0  0  0  0  0  0
   -1.9806    0.7643    0.1203 C   0  0  0  0  0  0  0  0  0  0  0  0
   -1.7652   -0.2408   -2.1055 H   0  0  0  0  0  0  0  0  0  0  0  0
   -0.8248   -2.4501    0.3261 H   0  0  0  0  0  0  0  0  0  0  0  0
   -0.9054   -1.3099    1.6792 H   0  0  0  0  0  0  0  0  0  0  0  0
    1.4015   -2.1086    0.3646 H   0  0  0  0  0  0  0  0  0  0  0  0
    1.2883   -0.8102    1.5640 H   0  0  0  0  0  0  0  0  0  0  0  0
    1.7512   -0.5648   -1.4389 H   0  0  0  0  0  0  0  0  0  0  0  0
    2.0804    1.2306    1.0971 H   0  0  0  0  0  0  0  0  0  0  0  0
    2.7010    1.5975   -0.6577 H   0  0  0  0  0  0  0  0  0  0  0  0
    0.3603    1.5285   -1.4991 H   0  0  0  0  0  0  0  0  0  0  0  0
   -0.2881    0.8910    1.4721 H   0  0  0  0  0  0  0  0  0  0  0  0
   -2.4513    1.3589   -0.6934 H   0  0  0  0  0  0  0  0  0  0  0  0
   -2.6919    0.7005    0.9894 H   0  0  0  0  0  0  0  0  0  0  0  0
  1  2  1  0
  2  3  1  0
  3  4  1  0
  4  5  1  0
  5  6  1  0
  6  7  1  0
  7  8  1  0
  8  9  1  0
  8  2  1  0
  9  2  1  0
  7  5  1  0
  1 10  1  0
  3 11  1  0
  3 12  1  0
  4 13  1  0
  4 14  1  0
  5 15  1  0
  6 16  1  0
  6 17  1  0
  7 18  1  0
  8 19  1  0
  9 20  1  0
  9 21  1  0
M  END
