
     RDKit          3D

 17 20  0  0  0  0  0  0  0  0999 V2000
    2.3321   -0.8292    0.0843 O   0  0  0  0  0  0  0  0  0  0  0  0
    1.1023   -0.2649    0.0688 C   0  0  0  0  0  0  0  0  0  0  0  0
    0.5839    0.7091    1.0145 C   0  0  0  0  0  0  0  0  0  0  0  0
   -0.3067    1.6075    0.1878 C   0  0  0  0  0  0  0  0  0  0  0  0
   -0.8654    0.6407   -0.8317 C   0  0  0  0  0  0  0  0  0  0  0  0
    0.1637   -0.3484   -1.0786 C   0  0  0  0  0  0  0  0  0  0  0  0
   -0.9534   -0.6372   -0.1473 C   0  0  0  0  0  0  0  0  0  0  0  0
   -1.8822   -1.6004   -0.3496 O   0  0  0  0  0  0  0  0  0  0  0  0
    0.0013   -0.6218    0.9847 C   0  0  0  0  0  0  0  0  0  0  0  0
    2.7370   -0.7145   -0.8356 H   0  0  0  0  0  0  0  0  0  0  0  0
    1.2449    1.1091    1.7748 H   0  0  0  0  0  0  0  0  0  0  0  0
   -1.1274    2.0636    0.7785 H   0  0  0  0  0  0  0  0  0  0  0  0
    0.3154    2.4003   -0.2992 H   0  0  0  0  0  0  0  0  0  0  0  0
   -1.5407    0.9842   -1.6095 H   0  0  0  0  0  0  0  0  0  0  0  0
    0.2829   -0.9912   -1.9266 H   0  0  0  0  0  0  0  0  0  0  0  0
   -2.1408   -2.1322    0.4321 H   0  0  0  0  0  0  0  0  0  0  0  0
    0.0531   -1.3748    1.7526 H   0  0  0  0  0  0  0  0  0  0  0  0
  1  2  1  0
  2  3  1  0
  3  4  1  0
  4  5  1  0
  5  6  1  0
  6  7  1  0
  7  8  1  0
  7  9  1  0
  6  2  1  0
  9  2  1  0
  9  3  1  0
  7  5  1  0
  1 10  1  0
  3 11  1  0
  4 12  1  0
  4 13  1  0
  5 14  1  0
  6 15  1  0
  8 16  1  0
  9 17  1  0
M  END
