
     RDKit          3D

 17 19  0  0  0  0  0  0  0  0999 V2000
    2.3249   -1.0515   -0.3196 O   0  0  0  0  0  0  0  0  0  0  0  0
    1.0543   -0.4364   -0.3460 C   0  0  0  0  0  0  0  0  0  0  0  0
    0.9716    0.9685   -0.7544 C   0  0  0  0  0  0  0  0  0  0  0  0
    0.0240    1.6287   -0.1130 C   0  0  0  0  0  0  0  0  0  0  0  0
   -0.6449    0.6981    0.8195 C   0  0  0  0  0  0  0  0  0  0  0  0
   -1.8404    0.1676    0.0824 C   0  0  0  0  0  0  0  0  0  0  0  0
   -1.4797   -0.9760   -0.4626 C   0  0  0  0  0  0  0  0  0  0  0  0
   -0.0816   -1.3346   -0.1767 C   0  0  0  0  0  0  0  0  0  0  0  0
    0.2875   -0.4443    0.9455 C   0  0  0  0  0  0  0  0  0  0  0  0
    3.0254   -0.4139   -0.5456 H   0  0  0  0  0  0  0  0  0  0  0  0
    1.6086    1.4285   -1.4968 H   0  0  0  0  0  0  0  0  0  0  0  0
   -0.2389    2.6846   -0.2349 H   0  0  0  0  0  0  0  0  0  0  0  0
   -0.9366    1.1677    1.7764 H   0  0  0  0  0  0  0  0  0  0  0  0
   -2.7841    0.6927    0.0562 H   0  0  0  0  0  0  0  0  0  0  0  0
   -2.1455   -1.6019   -1.0678 H   0  0  0  0  0  0  0  0  0  0  0  0
    0.1171   -2.4059   -0.0326 H   0  0  0  0  0  0  0  0  0  0  0  0
    0.7385   -0.7719    1.8699 H   0  0  0  0  0  0  0  0  0  0  0  0
  1  2  1  0
  2  3  1  0
  3  4  2  0
  4  5  1  0
  5  6  1  0
  6  7  2  0
  7  8  1  0
  8  9  1  0
  8  2  1  0
  9  2  1  0
  9  5  1  0
  1 10  1  0
  3 11  1  0
  4 12  1  0
  5 13  1  0
  6 14  1  0
  7 15  1  0
  8 16  1  0
  9 17  1  0
M  END
