
     RDKit          3D

 19 21  0  0  0  0  0  0  0  0999 V2000
    1.8266   -1.6611   -0.2290 O   0  0  0  0  0  0  0  0  0  0  0  0
    1.1043   -0.5254    0.0681 C   0  0  0  0  0  0  0  0  0  0  0  0
    1.6878    0.8343   -0.0440 C   0  0  0  0  0  0  0  0  0  0  0  0
    0.7512    0.3517   -1.0671 C   0  0  0  0  0  0  0  0  0  0  0  0
   -0.7098    0.5592   -1.0299 C   0  0  0  0  0  0  0  0  0  0  0  0
   -1.4128    1.2969    0.0376 C   0  0  0  0  0  0  0  0  0  0  0  0
   -1.2256   -0.1721    0.1459 C   0  0  0  0  0  0  0  0  0  0  0  0
   -2.2735   -1.0523   -0.0391 O   0  0  0  0  0  0  0  0  0  0  0  0
   -0.0753   -0.6240    0.9894 C   0  0  0  0  0  0  0  0  0  0  0  0
    1.7630   -2.3170    0.4948 H   0  0  0  0  0  0  0  0  0  0  0  0
    1.3962    1.6220    0.7029 H   0  0  0  0  0  0  0  0  0  0  0  0
    2.7586    0.9205   -0.3203 H   0  0  0  0  0  0  0  0  0  0  0  0
    1.1888    0.1009   -2.0656 H   0  0  0  0  0  0  0  0  0  0  0  0
   -1.2744    0.4243   -1.9734 H   0  0  0  0  0  0  0  0  0  0  0  0
   -0.8457    1.9616    0.7456 H   0  0  0  0  0  0  0  0  0  0  0  0
   -2.4301    1.6496   -0.1441 H   0  0  0  0  0  0  0  0  0  0  0  0
   -2.0664   -1.9054    0.4558 H   0  0  0  0  0  0  0  0  0  0  0  0
    0.0401    0.1360    1.8152 H   0  0  0  0  0  0  0  0  0  0  0  0
   -0.2030   -1.5998    1.4569 H   0  0  0  0  0  0  0  0  0  0  0  0
  1  2  1  0
  2  3  1  0
  3  4  1  0
  4  5  1  0
  5  6  1  0
  6  7  1  0
  7  8  1  0
  7  9  1  0
  4  2  1  0
  7  5  1  0
  9  2  1  0
  1 10  1  0
  3 11  1  0
  3 12  1  0
  4 13  1  0
  5 14  1  0
  6 15  1  0
  6 16  1  0
  8 17  1  0
  9 18  1  0
  9 19  1  0
M  END
