
     RDKit          3D

 19 22  0  0  0  0  0  0  0  0999 V2000
   -0.3334    2.1407   -0.6674 O   0  0  0  0  0  0  0  0  0  0  0  0
   -0.4224    0.9117   -0.2199 C   0  0  0  0  0  0  0  0  0  0  0  0
    0.3036    0.4640    1.0246 C   0  0  0  0  0  0  0  0  0  0  0  0
    1.5115   -0.2191    0.4646 C   0  0  0  0  0  0  0  0  0  0  0  0
    1.1651   -0.6506   -0.9447 C   0  0  0  0  0  0  0  0  0  0  0  0
   -0.2546   -0.2685   -1.1825 C   0  0  0  0  0  0  0  0  0  0  0  0
   -1.1732   -1.0201   -0.2144 C   0  0  0  0  0  0  0  0  0  0  0  0
   -0.8343   -0.5663    1.1552 C   0  0  0  0  0  0  0  0  0  0  0  0
   -1.6323    0.2755    0.2829 C   0  0  0  0  0  0  0  0  0  0  0  0
    0.1571    2.8191   -0.1774 H   0  0  0  0  0  0  0  0  0  0  0  0
    0.4106    1.1580    1.8290 H   0  0  0  0  0  0  0  0  0  0  0  0
    2.4205    0.3956    0.5032 H   0  0  0  0  0  0  0  0  0  0  0  0
    1.6726   -1.1503    1.0794 H   0  0  0  0  0  0  0  0  0  0  0  0
    1.2280   -1.7711   -1.0472 H   0  0  0  0  0  0  0  0  0  0  0  0
    1.8443   -0.1430   -1.6709 H   0  0  0  0  0  0  0  0  0  0  0  0
   -0.6148   -0.1289   -2.1815 H   0  0  0  0  0  0  0  0  0  0  0  0
   -1.7537   -1.8588   -0.4969 H   0  0  0  0  0  0  0  0  0  0  0  0
   -1.0827   -1.0263    2.0731 H   0  0  0  0  0  0  0  0  0  0  0  0
   -2.6121    0.6385    0.3909 H   0  0  0  0  0  0  0  0  0  0  0  0
  1  2  1  0
  2  3  1  0
  3  4  1  0
  4  5  1  0
  5  6  1  0
  6  7  1  0
  7  8  1  0
  8  9  1  0
  6  2  1  0
  9  7  1  0
  9  2  1  0
  8  3  1  0
  1 10  1  0
  3 11  1  0
  4 12  1  0
  4 13  1  0
  5 14  1  0
  5 15  1  0
  6 16  1  0
  7 17  1  0
  8 18  1  0
  9 19  1  0
M  END
