
     RDKit          3D

 17 19  0  0  0  0  0  0  0  0999 V2000
   -2.4217    0.1751   -0.2845 O   0  0  0  0  0  0  0  0  0  0  0  0
   -1.0778    0.1845   -0.5696 C   0  0  0  0  0  0  0  0  0  0  0  0
   -0.2649    1.2548    0.0683 C   0  0  0  0  0  0  0  0  0  0  0  0
    0.7513    0.2675    0.4602 C   0  0  0  0  0  0  0  0  0  0  0  0
    2.1214    0.3904    0.1281 C   0  0  0  0  0  0  0  0  0  0  0  0
    1.6337    0.3536    1.4548 O   0  0  0  0  0  0  0  0  0  0  0  0
   -0.1774   -0.8404    0.1822 C   0  0  0  0  0  0  0  0  0  0  0  0
   -0.8384   -1.5456    1.1359 O   0  0  0  0  0  0  0  0  0  0  0  0
   -0.5164   -0.9726   -1.2798 C   0  0  0  0  0  0  0  0  0  0  0  0
   -2.6815    0.6937    0.4965 H   0  0  0  0  0  0  0  0  0  0  0  0
   -0.7627    1.7468    0.9398 H   0  0  0  0  0  0  0  0  0  0  0  0
    0.1409    2.0282   -0.6078 H   0  0  0  0  0  0  0  0  0  0  0  0
    2.6785   -0.4992   -0.2409 H   0  0  0  0  0  0  0  0  0  0  0  0
    2.5105    1.3667   -0.2414 H   0  0  0  0  0  0  0  0  0  0  0  0
   -0.2884   -1.9388    1.8379 H   0  0  0  0  0  0  0  0  0  0  0  0
   -1.1914   -1.7818   -1.5379 H   0  0  0  0  0  0  0  0  0  0  0  0
    0.3843   -0.8829   -1.9418 H   0  0  0  0  0  0  0  0  0  0  0  0
  1  2  1  0
  2  3  1  0
  3  4  1  0
  4  5  1  0
  5  6  1  0
  4  7  1  0
  7  8  1  0
  7  9  1  0
  7  2  1  0
  9  2  1  0
  6  4  1  0
  1 10  1  0
  3 11  1  0
  3 12  1  0
  5 13  1  0
  5 14  1  0
  8 15  1  0
  9 16  1  0
  9 17  1  0
M  END
