
     RDKit          3D

 19 21  0  0  0  0  0  0  0  0999 V2000
   -0.4309    2.2657    0.9448 O   0  0  0  0  0  0  0  0  0  0  0  0
   -0.2398    0.9570    0.5867 C   0  0  0  0  0  0  0  0  0  0  0  0
   -1.3920    0.0312    0.5573 C   0  0  0  0  0  0  0  0  0  0  0  0
   -0.8553   -1.1145   -0.3103 C   0  0  0  0  0  0  0  0  0  0  0  0
   -0.1362   -0.3383   -1.3925 C   0  0  0  0  0  0  0  0  0  0  0  0
    0.5552    0.7659   -0.6695 C   0  0  0  0  0  0  0  0  0  0  0  0
    1.0873    0.3690    0.6564 C   0  0  0  0  0  0  0  0  0  0  0  0
    1.1987   -1.1052    0.6954 C   0  0  0  0  0  0  0  0  0  0  0  0
    0.0362   -1.8030    0.5071 O   0  0  0  0  0  0  0  0  0  0  0  0
   -0.4808    2.8284    0.1086 H   0  0  0  0  0  0  0  0  0  0  0  0
   -2.3080    0.4510    0.1312 H   0  0  0  0  0  0  0  0  0  0  0  0
   -1.5579   -0.3827    1.5902 H   0  0  0  0  0  0  0  0  0  0  0  0
   -1.6430   -1.7300   -0.7287 H   0  0  0  0  0  0  0  0  0  0  0  0
   -0.9378    0.1223   -2.0259 H   0  0  0  0  0  0  0  0  0  0  0  0
    0.4992   -0.9525   -2.0282 H   0  0  0  0  0  0  0  0  0  0  0  0
    1.0478    1.5879   -1.1767 H   0  0  0  0  0  0  0  0  0  0  0  0
    1.9422    0.9264    1.0623 H   0  0  0  0  0  0  0  0  0  0  0  0
    1.9002   -1.4161   -0.1349 H   0  0  0  0  0  0  0  0  0  0  0  0
    1.7149   -1.4627    1.6268 H   0  0  0  0  0  0  0  0  0  0  0  0
  1  2  1  0
  2  3  1  0
  3  4  1  0
  4  5  1  0
  5  6  1  0
  6  7  1  0
  7  8  1  0
  8  9  1  0
  6  2  1  0
  7  2  1  0
  9  4  1  0
  1 10  1  0
  3 11  1  0
  3 12  1  0
  4 13  1  0
  5 14  1  0
  5 15  1  0
  6 16  1  0
  7 17  1  0
  8 18  1  0
  8 19  1  0
M  END
