
     RDKit          3D

 19 21  0  0  0  0  0  0  0  0999 V2000
   -0.6397   -1.7841   -1.0060 O   0  0  0  0  0  0  0  0  0  0  0  0
   -0.3366   -0.5094   -0.5902 C   0  0  0  0  0  0  0  0  0  0  0  0
   -1.4155    0.5187   -0.8275 C   0  0  0  0  0  0  0  0  0  0  0  0
   -2.0060    0.7982    0.3816 O   0  0  0  0  0  0  0  0  0  0  0  0
   -1.0913    0.5869    1.3837 C   0  0  0  0  0  0  0  0  0  0  0  0
   -0.0476   -0.3363    0.8812 C   0  0  0  0  0  0  0  0  0  0  0  0
    1.2087    0.4277    0.4731 C   0  0  0  0  0  0  0  0  0  0  0  0
    2.2370   -0.3896   -0.1880 C   0  0  0  0  0  0  0  0  0  0  0  0
    1.0386   -0.0892   -0.9872 C   0  0  0  0  0  0  0  0  0  0  0  0
   -1.5609   -2.0636   -0.7668 H   0  0  0  0  0  0  0  0  0  0  0  0
   -0.9719    1.4424   -1.2753 H   0  0  0  0  0  0  0  0  0  0  0  0
   -2.2312    0.1103   -1.4945 H   0  0  0  0  0  0  0  0  0  0  0  0
   -1.5721    0.1295    2.2821 H   0  0  0  0  0  0  0  0  0  0  0  0
   -0.6821    1.5661    1.7473 H   0  0  0  0  0  0  0  0  0  0  0  0
    0.1681   -1.2476    1.4435 H   0  0  0  0  0  0  0  0  0  0  0  0
    1.2433    1.5099    0.5737 H   0  0  0  0  0  0  0  0  0  0  0  0
    2.3652   -1.4239    0.2436 H   0  0  0  0  0  0  0  0  0  0  0  0
    3.1679    0.0949   -0.4860 H   0  0  0  0  0  0  0  0  0  0  0  0
    1.1261    0.6593   -1.7883 H   0  0  0  0  0  0  0  0  0  0  0  0
  1  2  1  0
  2  3  1  0
  3  4  1  0
  4  5  1  0
  5  6  1  0
  6  7  1  0
  7  8  1  0
  8  9  1  0
  6  2  1  0
  9  7  1  0
  9  2  1  0
  1 10  1  0
  3 11  1  0
  3 12  1  0
  5 13  1  0
  5 14  1  0
  6 15  1  0
  7 16  1  0
  8 17  1  0
  8 18  1  0
  9 19  1  0
M  END
