
     RDKit          3D

 19 20  0  0  0  0  0  0  0  0999 V2000
   -1.7866    1.1070   -1.4789 O   0  0  0  0  0  0  0  0  0  0  0  0
   -1.0461    0.5469   -0.4235 C   0  0  0  0  0  0  0  0  0  0  0  0
   -0.1171    1.4484    0.2358 C   0  0  0  0  0  0  0  0  0  0  0  0
    1.1772    1.3271    0.4188 C   0  0  0  0  0  0  0  0  0  0  0  0
    2.0278    0.2080   -0.0151 C   0  0  0  0  0  0  0  0  0  0  0  0
    1.4972   -1.1148    0.3259 C   0  0  0  0  0  0  0  0  0  0  0  0
    0.2656   -1.5400    0.1563 C   0  0  0  0  0  0  0  0  0  0  0  0
   -0.8870   -0.8698   -0.3913 C   0  0  0  0  0  0  0  0  0  0  0  0
   -1.9235   -0.2977    0.5554 C   0  0  0  0  0  0  0  0  0  0  0  0
   -1.7442    0.4604   -2.2312 H   0  0  0  0  0  0  0  0  0  0  0  0
   -0.5296    2.3861    0.6575 H   0  0  0  0  0  0  0  0  0  0  0  0
    1.6959    2.1149    0.9372 H   0  0  0  0  0  0  0  0  0  0  0  0
    3.0267    0.3269    0.4411 H   0  0  0  0  0  0  0  0  0  0  0  0
    2.1063    0.2634   -1.1389 H   0  0  0  0  0  0  0  0  0  0  0  0
    2.2345   -1.7850    0.7622 H   0  0  0  0  0  0  0  0  0  0  0  0
    0.0975   -2.5669    0.4859 H   0  0  0  0  0  0  0  0  0  0  0  0
   -1.3983   -1.4478   -1.2274 H   0  0  0  0  0  0  0  0  0  0  0  0
   -1.6985   -0.1974    1.6163 H   0  0  0  0  0  0  0  0  0  0  0  0
   -2.9978   -0.3696    0.3137 H   0  0  0  0  0  0  0  0  0  0  0  0
  1  2  1  0
  2  3  1  0
  3  4  2  0
  4  5  1  0
  5  6  1  0
  6  7  2  0
  7  8  1  0
  8  9  1  0
  8  2  1  0
  9  2  1  0
  1 10  1  0
  3 11  1  0
  4 12  1  0
  5 13  1  0
  5 14  1  0
  6 15  1  0
  7 16  1  0
  8 17  1  0
  9 18  1  0
  9 19  1  0
M  END
