
     RDKit          3D

 19 20  0  0  0  0  0  0  0  0999 V2000
   -0.1320    0.8715    1.9257 O   0  0  0  0  0  0  0  0  0  0  0  0
   -0.0723    0.7095    0.5722 C   0  0  0  0  0  0  0  0  0  0  0  0
    1.1857    1.0123   -0.1203 C   0  0  0  0  0  0  0  0  0  0  0  0
    1.8128   -0.0721   -0.5258 C   0  0  0  0  0  0  0  0  0  0  0  0
    1.0230   -1.2458   -0.1384 C   0  0  0  0  0  0  0  0  0  0  0  0
   -0.3286   -0.7280    0.1700 C   0  0  0  0  0  0  0  0  0  0  0  0
   -0.9912   -1.5012    1.1019 O   0  0  0  0  0  0  0  0  0  0  0  0
   -1.1608   -0.2079   -0.9596 C   0  0  0  0  0  0  0  0  0  0  0  0
   -1.2549    1.1475   -0.2433 C   0  0  0  0  0  0  0  0  0  0  0  0
   -0.2140    1.7947    2.2434 H   0  0  0  0  0  0  0  0  0  0  0  0
    1.5594    2.0200   -0.2814 H   0  0  0  0  0  0  0  0  0  0  0  0
    2.7494   -0.1020   -1.0542 H   0  0  0  0  0  0  0  0  0  0  0  0
    1.4627   -1.6302    0.8194 H   0  0  0  0  0  0  0  0  0  0  0  0
    1.0351   -2.0602   -0.8906 H   0  0  0  0  0  0  0  0  0  0  0  0
   -0.6736   -2.4496    0.9683 H   0  0  0  0  0  0  0  0  0  0  0  0
   -2.1505   -0.6915   -1.0395 H   0  0  0  0  0  0  0  0  0  0  0  0
   -0.6256   -0.1406   -1.9257 H   0  0  0  0  0  0  0  0  0  0  0  0
   -1.0630    1.9761   -0.9610 H   0  0  0  0  0  0  0  0  0  0  0  0
   -2.1616    1.2974    0.3389 H   0  0  0  0  0  0  0  0  0  0  0  0
  1  2  1  0
  2  3  1  0
  3  4  2  0
  4  5  1  0
  5  6  1  0
  6  7  1  0
  6  8  1  0
  8  9  1  0
  6  2  1  0
  9  2  1  0
  1 10  1  0
  3 11  1  0
  4 12  1  0
  5 13  1  0
  5 14  1  0
  7 15  1  0
  8 16  1  0
  8 17  1  0
  9 18  1  0
  9 19  1  0
M  END
