
     RDKit          3D

 17 20  0  0  0  0  0  0  0  0999 V2000
   -1.5681   -1.1437   -1.3900 O   0  0  0  0  0  0  0  0  0  0  0  0
   -0.7343   -0.5074   -0.5369 C   0  0  0  0  0  0  0  0  0  0  0  0
   -1.1757    0.3407    0.5885 C   0  0  0  0  0  0  0  0  0  0  0  0
   -0.1484    1.4378    0.6225 C   0  0  0  0  0  0  0  0  0  0  0  0
    1.1273    0.6924    0.3092 C   0  0  0  0  0  0  0  0  0  0  0  0
    0.9519   -0.6906    0.6936 C   0  0  0  0  0  0  0  0  0  0  0  0
   -0.5075   -0.9166    0.8691 C   0  0  0  0  0  0  0  0  0  0  0  0
    0.6983   -0.2822   -0.7183 C   0  0  0  0  0  0  0  0  0  0  0  0
    1.4545   -0.6815   -1.7626 O   0  0  0  0  0  0  0  0  0  0  0  0
   -2.4984   -0.7836   -1.2253 H   0  0  0  0  0  0  0  0  0  0  0  0
   -2.2324    0.5465    0.7101 H   0  0  0  0  0  0  0  0  0  0  0  0
   -0.1203    2.0110    1.5432 H   0  0  0  0  0  0  0  0  0  0  0  0
   -0.3575    2.1076   -0.2536 H   0  0  0  0  0  0  0  0  0  0  0  0
    2.0587    1.2107    0.1217 H   0  0  0  0  0  0  0  0  0  0  0  0
    1.7096   -1.4013    0.9830 H   0  0  0  0  0  0  0  0  0  0  0  0
   -0.9458   -1.8298    1.2296 H   0  0  0  0  0  0  0  0  0  0  0  0
    2.2881   -0.1097   -1.7838 H   0  0  0  0  0  0  0  0  0  0  0  0
  1  2  1  0
  2  3  1  0
  3  4  1  0
  4  5  1  0
  5  6  1  0
  6  7  1  0
  6  8  1  0
  8  9  1  0
  7  2  1  0
  8  2  1  0
  7  3  1  0
  8  5  1  0
  1 10  1  0
  3 11  1  0
  4 12  1  0
  4 13  1  0
  5 14  1  0
  6 15  1  0
  7 16  1  0
  9 17  1  0
M  END
