
     RDKit          3D

 21 23  0  0  0  0  0  0  0  0999 V2000
   -0.3481    1.4365   -1.5417 O   0  0  0  0  0  0  0  0  0  0  0  0
   -0.4850    0.4851   -0.6256 C   0  0  0  0  0  0  0  0  0  0  0  0
   -1.8447   -0.0828   -0.3137 C   0  0  0  0  0  0  0  0  0  0  0  0
   -1.4382   -1.0263    0.8364 C   0  0  0  0  0  0  0  0  0  0  0  0
    0.0343   -0.8258    0.8196 C   0  0  0  0  0  0  0  0  0  0  0  0
    0.3706   -0.7497   -0.6763 C   0  0  0  0  0  0  0  0  0  0  0  0
    1.7952   -0.2783   -0.6181 C   0  0  0  0  0  0  0  0  0  0  0  0
    1.6139    0.8771    0.3877 C   0  0  0  0  0  0  0  0  0  0  0  0
    0.1767    0.6766    0.7372 C   0  0  0  0  0  0  0  0  0  0  0  0
   -0.6612    2.3086   -1.2111 H   0  0  0  0  0  0  0  0  0  0  0  0
   -2.5820    0.6513    0.0020 H   0  0  0  0  0  0  0  0  0  0  0  0
   -2.1639   -0.7396   -1.1472 H   0  0  0  0  0  0  0  0  0  0  0  0
   -1.8937   -0.5973    1.7517 H   0  0  0  0  0  0  0  0  0  0  0  0
   -1.7263   -2.0605    0.6307 H   0  0  0  0  0  0  0  0  0  0  0  0
    0.6857   -1.3817    1.4429 H   0  0  0  0  0  0  0  0  0  0  0  0
    0.0952   -1.5701   -1.2853 H   0  0  0  0  0  0  0  0  0  0  0  0
    2.1993    0.0715   -1.5676 H   0  0  0  0  0  0  0  0  0  0  0  0
    2.3879   -1.0553   -0.1116 H   0  0  0  0  0  0  0  0  0  0  0  0
    1.7950    1.8068   -0.1859 H   0  0  0  0  0  0  0  0  0  0  0  0
    2.2999    0.7642    1.2247 H   0  0  0  0  0  0  0  0  0  0  0  0
   -0.3104    1.2897    1.4513 H   0  0  0  0  0  0  0  0  0  0  0  0
  1  2  1  0
  2  3  1  0
  3  4  1  0
  4  5  1  0
  5  6  1  0
  6  7  1  0
  7  8  1  0
  8  9  1  0
  6  2  1  0
  9  2  1  0
  9  5  1  0
  1 10  1  0
  3 11  1  0
  3 12  1  0
  4 13  1  0
  4 14  1  0
  5 15  1  0
  6 16  1  0
  7 17  1  0
  7 18  1  0
  8 19  1  0
  8 20  1  0
  9 21  1  0
M  END
