
     RDKit          3D

 19 21  0  0  0  0  0  0  0  0999 V2000
    2.1788    1.4760   -0.0366 O   0  0  0  0  0  0  0  0  0  0  0  0
    1.0557    0.7035    0.0532 C   0  0  0  0  0  0  0  0  0  0  0  0
    1.0475   -0.5934    0.8076 C   0  0  0  0  0  0  0  0  0  0  0  0
    0.2305   -1.2247   -0.3137 C   0  0  0  0  0  0  0  0  0  0  0  0
   -1.2666   -1.3084    0.0135 C   0  0  0  0  0  0  0  0  0  0  0  0
   -1.4823   -0.3398    0.9724 O   0  0  0  0  0  0  0  0  0  0  0  0
   -1.4324    0.9097    0.4294 C   0  0  0  0  0  0  0  0  0  0  0  0
   -0.2496    1.1907   -0.4346 C   0  0  0  0  0  0  0  0  0  0  0  0
    0.3943    0.0626   -1.0789 C   0  0  0  0  0  0  0  0  0  0  0  0
    3.0015    0.9995    0.1507 H   0  0  0  0  0  0  0  0  0  0  0  0
    2.0378   -1.0166    0.9692 H   0  0  0  0  0  0  0  0  0  0  0  0
    0.4276   -0.5045    1.7267 H   0  0  0  0  0  0  0  0  0  0  0  0
    0.6583   -2.1241   -0.7514 H   0  0  0  0  0  0  0  0  0  0  0  0
   -1.5752   -2.3144    0.2902 H   0  0  0  0  0  0  0  0  0  0  0  0
   -1.8236   -0.9709   -0.9098 H   0  0  0  0  0  0  0  0  0  0  0  0
   -2.3503    1.2007   -0.1220 H   0  0  0  0  0  0  0  0  0  0  0  0
   -1.3721    1.6394    1.2897 H   0  0  0  0  0  0  0  0  0  0  0  0
   -0.2859    2.1611   -0.9613 H   0  0  0  0  0  0  0  0  0  0  0  0
    0.8060    0.0539   -2.0944 H   0  0  0  0  0  0  0  0  0  0  0  0
  1  2  1  0
  2  3  1  0
  3  4  1  0
  4  5  1  0
  5  6  1  0
  6  7  1  0
  7  8  1  0
  8  9  1  0
  8  2  1  0
  9  2  1  0
  9  4  1  0
  1 10  1  0
  3 11  1  0
  3 12  1  0
  4 13  1  0
  5 14  1  0
  5 15  1  0
  7 16  1  0
  7 17  1  0
  8 18  1  0
  9 19  1  0
M  END
