
     RDKit          3D

 17 19  0  0  0  0  0  0  0  0999 V2000
    1.3823    1.7635    0.1796 O   0  0  0  0  0  0  0  0  0  0  0  0
    0.6901    0.5944    0.0971 C   0  0  0  0  0  0  0  0  0  0  0  0
    1.4185   -0.7321    0.3081 C   0  0  0  0  0  0  0  0  0  0  0  0
    0.6435   -1.7230   -0.2055 O   0  0  0  0  0  0  0  0  0  0  0  0
   -0.5144   -1.2076   -0.7285 C   0  0  0  0  0  0  0  0  0  0  0  0
   -1.4424   -0.7825    0.4179 C   0  0  0  0  0  0  0  0  0  0  0  0
   -0.7713    0.5692    0.3640 C   0  0  0  0  0  0  0  0  0  0  0  0
   -1.4996    1.7167    0.5250 O   0  0  0  0  0  0  0  0  0  0  0  0
   -0.2571    0.2490   -0.9591 C   0  0  0  0  0  0  0  0  0  0  0  0
    2.2997    1.7041    0.4932 H   0  0  0  0  0  0  0  0  0  0  0  0
    1.7760   -0.8633    1.3274 H   0  0  0  0  0  0  0  0  0  0  0  0
    2.3411   -0.6534   -0.3389 H   0  0  0  0  0  0  0  0  0  0  0  0
   -0.9987   -1.7741   -1.5200 H   0  0  0  0  0  0  0  0  0  0  0  0
   -1.2297   -1.3037    1.3601 H   0  0  0  0  0  0  0  0  0  0  0  0
   -2.5106   -0.8007    0.1521 H   0  0  0  0  0  0  0  0  0  0  0  0
   -0.8964    2.4848    0.4061 H   0  0  0  0  0  0  0  0  0  0  0  0
   -0.4313    0.7588   -1.8785 H   0  0  0  0  0  0  0  0  0  0  0  0
  1  2  1  0
  2  3  1  0
  3  4  1  0
  4  5  1  0
  5  6  1  0
  6  7  1  0
  7  8  1  0
  7  9  1  0
  7  2  1  0
  9  2  1  0
  9  5  1  0
  1 10  1  0
  3 11  1  0
  3 12  1  0
  5 13  1  0
  6 14  1  0
  6 15  1  0
  8 16  1  0
  9 17  1  0
M  END
