
     RDKit          3D

 19 22  0  0  0  0  0  0  0  0999 V2000
    0.8193    2.1914    0.5280 O   0  0  0  0  0  0  0  0  0  0  0  0
    0.4531    0.8996    0.3690 C   0  0  0  0  0  0  0  0  0  0  0  0
    1.5192   -0.1518    0.3164 C   0  0  0  0  0  0  0  0  0  0  0  0
    0.9005   -1.3617   -0.3484 C   0  0  0  0  0  0  0  0  0  0  0  0
   -0.4624   -0.9584   -0.8377 C   0  0  0  0  0  0  0  0  0  0  0  0
   -1.3836   -0.7384    0.3498 C   0  0  0  0  0  0  0  0  0  0  0  0
   -1.5615    0.6222   -0.0240 C   0  0  0  0  0  0  0  0  0  0  0  0
   -0.3465    0.5482   -0.8667 C   0  0  0  0  0  0  0  0  0  0  0  0
   -0.7477    0.4063    1.1474 C   0  0  0  0  0  0  0  0  0  0  0  0
    0.7703    2.6640   -0.3386 H   0  0  0  0  0  0  0  0  0  0  0  0
    1.8756   -0.3510    1.3382 H   0  0  0  0  0  0  0  0  0  0  0  0
    2.3345    0.2054   -0.3471 H   0  0  0  0  0  0  0  0  0  0  0  0
    0.7227   -2.1037    0.4853 H   0  0  0  0  0  0  0  0  0  0  0  0
    1.5331   -1.8390   -1.0863 H   0  0  0  0  0  0  0  0  0  0  0  0
   -0.8699   -1.4452   -1.7013 H   0  0  0  0  0  0  0  0  0  0  0  0
   -1.9985   -1.4715    0.7817 H   0  0  0  0  0  0  0  0  0  0  0  0
   -2.4059    1.2382   -0.1715 H   0  0  0  0  0  0  0  0  0  0  0  0
   -0.2234    1.0714   -1.7629 H   0  0  0  0  0  0  0  0  0  0  0  0
   -0.9287    0.5739    2.1685 H   0  0  0  0  0  0  0  0  0  0  0  0
  1  2  1  0
  2  3  1  0
  3  4  1  0
  4  5  1  0
  5  6  1  0
  6  7  1  0
  7  8  1  0
  7  9  1  0
  8  2  1  0
  9  2  1  0
  8  5  1  0
  9  6  1  0
  1 10  1  0
  3 11  1  0
  3 12  1  0
  4 13  1  0
  4 14  1  0
  5 15  1  0
  6 16  1  0
  7 17  1  0
  8 18  1  0
  9 19  1  0
M  END
