
     RDKit          3D

 17 19  0  0  0  0  0  0  0  0999 V2000
   -2.0036    0.1065   -1.0608 O   0  0  0  0  0  0  0  0  0  0  0  0
   -0.6894    0.2151   -0.6757 C   0  0  0  0  0  0  0  0  0  0  0  0
   -0.0612    1.5461   -0.4147 C   0  0  0  0  0  0  0  0  0  0  0  0
    0.7274    0.9076    0.7369 C   0  0  0  0  0  0  0  0  0  0  0  0
    1.8563    0.2936    0.2580 O   0  0  0  0  0  0  0  0  0  0  0  0
    1.5535   -0.8893   -0.3374 C   0  0  0  0  0  0  0  0  0  0  0  0
    0.0257   -1.0463   -0.2830 C   0  0  0  0  0  0  0  0  0  0  0  0
   -0.3315   -0.1311    0.7878 C   0  0  0  0  0  0  0  0  0  0  0  0
   -1.3366   -0.1961    1.6561 O   0  0  0  0  0  0  0  0  0  0  0  0
   -2.1532   -0.8485   -1.3392 H   0  0  0  0  0  0  0  0  0  0  0  0
    0.5567    1.9867   -1.1920 H   0  0  0  0  0  0  0  0  0  0  0  0
   -0.8074    2.2545    0.0225 H   0  0  0  0  0  0  0  0  0  0  0  0
    0.8628    1.5584    1.6005 H   0  0  0  0  0  0  0  0  0  0  0  0
    1.8218   -0.9555   -1.4139 H   0  0  0  0  0  0  0  0  0  0  0  0
    2.0311   -1.7129    0.2562 H   0  0  0  0  0  0  0  0  0  0  0  0
   -0.4211   -1.9974   -0.5133 H   0  0  0  0  0  0  0  0  0  0  0  0
   -1.6314   -1.0913    1.9120 H   0  0  0  0  0  0  0  0  0  0  0  0
  1  2  1  0
  2  3  1  0
  3  4  1  0
  4  5  1  0
  5  6  1  0
  6  7  1  0
  7  8  1  0
  8  9  1  0
  7  2  1  0
  8  2  1  0
  8  4  1  0
  1 10  1  0
  3 11  1  0
  3 12  1  0
  4 13  1  0
  6 14  1  0
  6 15  1  0
  7 16  1  0
  9 17  1  0
M  END
