
     RDKit          3D

 21 23  0  0  0  0  0  0  0  0999 V2000
   -2.1185   -0.2618    1.5306 O   0  0  0  0  0  0  0  0  0  0  0  0
   -1.3856   -0.1718    0.3671 C   0  0  0  0  0  0  0  0  0  0  0  0
   -0.5396   -1.3769    0.0554 C   0  0  0  0  0  0  0  0  0  0  0  0
    0.7428   -0.8833   -0.5427 C   0  0  0  0  0  0  0  0  0  0  0  0
    1.8773   -0.6560    0.4211 C   0  0  0  0  0  0  0  0  0  0  0  0
    1.8169    0.8218    0.1471 C   0  0  0  0  0  0  0  0  0  0  0  0
    0.6199    0.6005   -0.7335 C   0  0  0  0  0  0  0  0  0  0  0  0
   -0.6392    1.0195   -0.0352 C   0  0  0  0  0  0  0  0  0  0  0  0
   -1.9075    0.6597   -0.7345 C   0  0  0  0  0  0  0  0  0  0  0  0
   -2.3899    0.5958    1.9178 H   0  0  0  0  0  0  0  0  0  0  0  0
   -1.1115   -2.0183   -0.6415 H   0  0  0  0  0  0  0  0  0  0  0  0
   -0.3455   -1.9433    0.9806 H   0  0  0  0  0  0  0  0  0  0  0  0
    1.1047   -1.4428   -1.4232 H   0  0  0  0  0  0  0  0  0  0  0  0
    1.6496   -0.9310    1.4664 H   0  0  0  0  0  0  0  0  0  0  0  0
    2.8644   -1.0704    0.0845 H   0  0  0  0  0  0  0  0  0  0  0  0
    1.6467    1.4293    1.0596 H   0  0  0  0  0  0  0  0  0  0  0  0
    2.6812    1.2250   -0.4078 H   0  0  0  0  0  0  0  0  0  0  0  0
    0.7092    0.9299   -1.7807 H   0  0  0  0  0  0  0  0  0  0  0  0
   -0.6091    1.9583    0.5306 H   0  0  0  0  0  0  0  0  0  0  0  0
   -1.8969    0.1961   -1.7360 H   0  0  0  0  0  0  0  0  0  0  0  0
   -2.7692    1.3196   -0.5256 H   0  0  0  0  0  0  0  0  0  0  0  0
  1  2  1  0
  2  3  1  0
  3  4  1  0
  4  5  1  0
  5  6  1  0
  6  7  1  0
  7  8  1  0
  8  9  1  0
  8  2  1  0
  9  2  1  0
  7  4  1  0
  1 10  1  0
  3 11  1  0
  3 12  1  0
  4 13  1  0
  5 14  1  0
  5 15  1  0
  6 16  1  0
  6 17  1  0
  7 18  1  0
  8 19  1  0
  9 20  1  0
  9 21  1  0
M  END
