
     RDKit          3D

 17 19  0  0  0  0  0  0  0  0999 V2000
    0.3007    2.3032    0.8440 O   0  0  0  0  0  0  0  0  0  0  0  0
    0.1773    1.1176    0.1748 C   0  0  0  0  0  0  0  0  0  0  0  0
    1.0438    0.8437   -0.9989 C   0  0  0  0  0  0  0  0  0  0  0  0
    1.0691   -0.4534   -1.2662 C   0  0  0  0  0  0  0  0  0  0  0  0
    0.2011   -1.1805   -0.2718 C   0  0  0  0  0  0  0  0  0  0  0  0
   -1.2587   -0.8718   -0.5148 C   0  0  0  0  0  0  0  0  0  0  0  0
   -1.0771    0.3567    0.3653 C   0  0  0  0  0  0  0  0  0  0  0  0
    0.1636   -0.1936    0.8525 C   0  0  0  0  0  0  0  0  0  0  0  0
    0.5489   -0.4449    2.1052 O   0  0  0  0  0  0  0  0  0  0  0  0
   -0.5957    2.7394    0.8882 H   0  0  0  0  0  0  0  0  0  0  0  0
    1.5794    1.5859   -1.5596 H   0  0  0  0  0  0  0  0  0  0  0  0
    1.6013   -0.9884   -2.0533 H   0  0  0  0  0  0  0  0  0  0  0  0
    0.4735   -2.1998   -0.0493 H   0  0  0  0  0  0  0  0  0  0  0  0
   -1.4989   -0.5284   -1.5440 H   0  0  0  0  0  0  0  0  0  0  0  0
   -1.9798   -1.5641   -0.0559 H   0  0  0  0  0  0  0  0  0  0  0  0
   -1.8847    0.7415    0.9665 H   0  0  0  0  0  0  0  0  0  0  0  0
    1.1361   -1.2629    2.1175 H   0  0  0  0  0  0  0  0  0  0  0  0
  1  2  1  0
  2  3  1  0
  3  4  2  0
  4  5  1  0
  5  6  1  0
  6  7  1  0
  7  8  1  0
  8  9  1  0
  7  2  1  0
  8  2  1  0
  8  5  1  0
  1 10  1  0
  3 11  1  0
  4 12  1  0
  5 13  1  0
  6 14  1  0
  6 15  1  0
  7 16  1  0
  9 17  1  0
M  END
