
     RDKit          3D

 17 19  0  0  0  0  0  0  0  0999 V2000
   -1.1616   -1.6470   -0.6345 O   0  0  0  0  0  0  0  0  0  0  0  0
   -0.6368   -0.5105    0.0493 C   0  0  0  0  0  0  0  0  0  0  0  0
   -1.6196    0.3668    0.6127 C   0  0  0  0  0  0  0  0  0  0  0  0
   -1.0040    0.8768   -0.6013 C   0  0  0  0  0  0  0  0  0  0  0  0
    0.2196    1.5951   -0.5697 O   0  0  0  0  0  0  0  0  0  0  0  0
    0.9258    1.0653    0.4449 C   0  0  0  0  0  0  0  0  0  0  0  0
    1.9020    0.0398    0.5854 C   0  0  0  0  0  0  0  0  0  0  0  0
    0.7976   -0.3886   -0.1685 C   0  0  0  0  0  0  0  0  0  0  0  0
    1.0728   -0.4448   -1.5718 O   0  0  0  0  0  0  0  0  0  0  0  0
   -1.4234   -2.3389   -0.0009 H   0  0  0  0  0  0  0  0  0  0  0  0
   -1.5893    0.8713    1.6119 H   0  0  0  0  0  0  0  0  0  0  0  0
   -2.7119    0.0877    0.4612 H   0  0  0  0  0  0  0  0  0  0  0  0
   -1.5022    0.8239   -1.5793 H   0  0  0  0  0  0  0  0  0  0  0  0
    0.3592    1.2453    1.4031 H   0  0  0  0  0  0  0  0  0  0  0  0
    2.9035    0.2210    0.1281 H   0  0  0  0  0  0  0  0  0  0  0  0
    2.0651   -0.4904    1.5712 H   0  0  0  0  0  0  0  0  0  0  0  0
    1.4031   -1.3730   -1.7418 H   0  0  0  0  0  0  0  0  0  0  0  0
  1  2  1  0
  2  3  1  0
  3  4  1  0
  4  5  1  0
  5  6  1  0
  6  7  1  0
  7  8  1  0
  8  9  1  0
  4  2  1  0
  8  6  1  0
  8  2  1  0
  1 10  1  0
  3 11  1  0
  3 12  1  0
  4 13  1  0
  6 14  1  0
  7 15  1  0
  7 16  1  0
  9 17  1  0
M  END
