
     RDKit          3D

 16 18  0  0  0  0  0  0  0  0999 V2000
    2.1683   -0.7773    0.5393 O   0  0  0  0  0  0  0  0  0  0  0  0
    0.9932   -0.2092    0.1511 C   0  0  0  0  0  0  0  0  0  0  0  0
    0.9720    1.2794   -0.2104 C   0  0  0  0  0  0  0  0  0  0  0  0
   -0.2758    1.7523    0.0562 O   0  0  0  0  0  0  0  0  0  0  0  0
   -1.1157    0.7151    0.4004 C   0  0  0  0  0  0  0  0  0  0  0  0
   -1.3747   -0.2219   -0.7874 C   0  0  0  0  0  0  0  0  0  0  0  0
   -0.1214   -0.9739   -0.4583 C   0  0  0  0  0  0  0  0  0  0  0  0
   -0.2164   -0.3362    0.9469 C   0  0  0  0  0  0  0  0  0  0  0  0
    2.1299   -1.7421    0.4935 H   0  0  0  0  0  0  0  0  0  0  0  0
    1.2657    1.3323   -1.2883 H   0  0  0  0  0  0  0  0  0  0  0  0
    1.7879    1.8020    0.3432 H   0  0  0  0  0  0  0  0  0  0  0  0
   -1.9801    0.9510    1.0078 H   0  0  0  0  0  0  0  0  0  0  0  0
   -1.4014    0.3239   -1.7309 H   0  0  0  0  0  0  0  0  0  0  0  0
   -2.3220   -0.8065   -0.6642 H   0  0  0  0  0  0  0  0  0  0  0  0
   -0.0546   -2.0573   -0.5145 H   0  0  0  0  0  0  0  0  0  0  0  0
   -0.4550   -1.0317    1.7155 H   0  0  0  0  0  0  0  0  0  0  0  0
  1  2  1  0
  2  3  1  0
  3  4  1  0
  4  5  1  0
  5  6  1  0
  6  7  1  0
  7  8  1  0
  7  2  1  0
  8  2  1  0
  8  5  1  0
  1  9  1  0
  3 10  1  0
  3 11  1  0
  5 12  1  0
  6 13  1  0
  6 14  1  0
  7 15  1  0
  8 16  1  0
M  END
