
     RDKit          3D

 14 16  0  0  0  0  0  0  0  0999 V2000
    0.5670    2.0838   -0.5475 O   0  0  0  0  0  0  0  0  0  0  0  0
    0.2195    0.8863   -0.0007 C   0  0  0  0  0  0  0  0  0  0  0  0
   -0.9579    0.7667    0.9093 C   0  0  0  0  0  0  0  0  0  0  0  0
   -1.2409   -0.5200    1.0693 C   0  0  0  0  0  0  0  0  0  0  0  0
   -0.2769   -1.3647    0.2802 C   0  0  0  0  0  0  0  0  0  0  0  0
    1.0237   -1.3357    0.8275 O   0  0  0  0  0  0  0  0  0  0  0  0
    1.3150   -0.1702    0.1296 C   0  0  0  0  0  0  0  0  0  0  0  0
    0.1876   -0.3877   -0.7405 C   0  0  0  0  0  0  0  0  0  0  0  0
    0.8890    2.0411   -1.4835 H   0  0  0  0  0  0  0  0  0  0  0  0
   -1.4950    1.6090    1.3663 H   0  0  0  0  0  0  0  0  0  0  0  0
   -2.0653   -0.8525    1.6949 H   0  0  0  0  0  0  0  0  0  0  0  0
   -0.6406   -2.3343   -0.0369 H   0  0  0  0  0  0  0  0  0  0  0  0
    2.3282    0.0968   -0.1401 H   0  0  0  0  0  0  0  0  0  0  0  0
    0.1466   -0.5187   -1.7934 H   0  0  0  0  0  0  0  0  0  0  0  0
  1  2  1  0
  2  3  1  0
  3  4  2  0
  4  5  1  0
  5  6  1  0
  6  7  1  0
  7  8  1  0
  7  2  1  0
  8  2  1  0
  8  5  1  0
  1  9  1  0
  3 10  1  0
  4 11  1  0
  5 12  1  0
  7 13  1  0
  8 14  1  0
M  END
