
     RDKit          3D

 15 18  0  0  0  0  0  0  0  0999 V2000
    2.0928    0.0325   -0.6733 O   0  0  0  0  0  0  0  0  0  0  0  0
    0.7832   -0.1459   -0.4517 C   0  0  0  0  0  0  0  0  0  0  0  0
   -0.0491   -1.2435   -0.9685 C   0  0  0  0  0  0  0  0  0  0  0  0
   -1.3259   -0.7606   -1.2071 O   0  0  0  0  0  0  0  0  0  0  0  0
   -1.4927    0.3339   -0.3706 C   0  0  0  0  0  0  0  0  0  0  0  0
   -0.8417   -0.0565    0.8697 C   0  0  0  0  0  0  0  0  0  0  0  0
    0.1617   -1.0929    0.4644 C   0  0  0  0  0  0  0  0  0  0  0  0
   -0.1783    0.8910   -0.0235 C   0  0  0  0  0  0  0  0  0  0  0  0
    0.1071    2.1753    0.2270 O   0  0  0  0  0  0  0  0  0  0  0  0
    2.6113    0.2538    0.1181 H   0  0  0  0  0  0  0  0  0  0  0  0
    0.3933   -1.9806   -1.6189 H   0  0  0  0  0  0  0  0  0  0  0  0
   -2.3190    1.0139   -0.4921 H   0  0  0  0  0  0  0  0  0  0  0  0
   -1.1664    0.1086    1.8732 H   0  0  0  0  0  0  0  0  0  0  0  0
    0.6390   -1.7673    1.1394 H   0  0  0  0  0  0  0  0  0  0  0  0
    0.5846    2.2383    1.1137 H   0  0  0  0  0  0  0  0  0  0  0  0
  1  2  1  0
  2  3  1  0
  3  4  1  0
  4  5  1  0
  5  6  1  0
  6  7  1  0
  6  8  1  0
  8  9  1  0
  7  2  1  0
  8  2  1  0
  7  3  1  0
  8  5  1  0
  1 10  1  0
  3 11  1  0
  5 12  1  0
  6 13  1  0
  7 14  1  0
  9 15  1  0
M  END
