
     RDKit          3D

 17 19  0  0  0  0  0  0  0  0999 V2000
   -1.2070    1.3067   -0.2614 O   0  0  0  0  0  0  0  0  0  0  0  0
   -0.8683    0.3582    0.7074 C   0  0  0  0  0  0  0  0  0  0  0  0
   -1.4711   -0.9216    0.0627 C   0  0  0  0  0  0  0  0  0  0  0  0
   -0.5941   -0.8919   -1.1632 C   0  0  0  0  0  0  0  0  0  0  0  0
    0.5313   -0.2880   -0.8988 C   0  0  0  0  0  0  0  0  0  0  0  0
    1.8389    0.3854   -0.6898 C   0  0  0  0  0  0  0  0  0  0  0  0
    1.5094    1.3301    0.3418 O   0  0  0  0  0  0  0  0  0  0  0  0
    0.4436    0.7911    1.0996 C   0  0  0  0  0  0  0  0  0  0  0  0
    0.4199   -0.4782    0.6826 C   0  0  0  0  0  0  0  0  0  0  0  0
   -1.7364    1.9870    0.1942 H   0  0  0  0  0  0  0  0  0  0  0  0
   -1.3604   -1.8036    0.6779 H   0  0  0  0  0  0  0  0  0  0  0  0
   -2.5164   -0.7519   -0.1202 H   0  0  0  0  0  0  0  0  0  0  0  0
   -0.8444   -1.2980   -2.1155 H   0  0  0  0  0  0  0  0  0  0  0  0
    2.5313   -0.3153   -0.2204 H   0  0  0  0  0  0  0  0  0  0  0  0
    2.2140    0.8976   -1.5668 H   0  0  0  0  0  0  0  0  0  0  0  0
    0.5610    1.1085    2.1799 H   0  0  0  0  0  0  0  0  0  0  0  0
    0.5489   -1.4161    1.0900 H   0  0  0  0  0  0  0  0  0  0  0  0
  1  2  1  0
  2  3  1  0
  3  4  1  0
  4  5  2  0
  5  6  1  0
  6  7  1  0
  7  8  1  0
  8  9  1  0
  8  2  1  0
  9  2  1  0
  9  5  1  0
  1 10  1  0
  3 11  1  0
  3 12  1  0
  4 13  1  0
  6 14  1  0
  6 15  1  0
  8 16  1  0
  9 17  1  0
M  END
