
     RDKit          3D

 19 21  0  0  0  0  0  0  0  0999 V2000
   -1.8219   -1.4374    0.7979 O   0  0  0  0  0  0  0  0  0  0  0  0
   -1.0461   -0.4548    0.1210 C   0  0  0  0  0  0  0  0  0  0  0  0
   -1.7746    0.5368   -0.6496 C   0  0  0  0  0  0  0  0  0  0  0  0
   -1.2411    1.0004    0.6573 C   0  0  0  0  0  0  0  0  0  0  0  0
    0.1101    1.6252    0.5221 C   0  0  0  0  0  0  0  0  0  0  0  0
    1.0428    0.7370    0.2705 C   0  0  0  0  0  0  0  0  0  0  0  0
    2.2950   -0.0743   -0.0227 C   0  0  0  0  0  0  0  0  0  0  0  0
    1.3084   -1.0072   -0.7776 C   0  0  0  0  0  0  0  0  0  0  0  0
    0.3875   -0.6038    0.3282 C   0  0  0  0  0  0  0  0  0  0  0  0
   -2.6115   -1.6178    0.2156 H   0  0  0  0  0  0  0  0  0  0  0  0
   -2.8808    0.4373   -0.6825 H   0  0  0  0  0  0  0  0  0  0  0  0
   -1.3677    0.9529   -1.5869 H   0  0  0  0  0  0  0  0  0  0  0  0
   -1.8155    1.0687    1.5704 H   0  0  0  0  0  0  0  0  0  0  0  0
    0.2651    2.6793    0.6241 H   0  0  0  0  0  0  0  0  0  0  0  0
    2.6324   -0.5339    0.9216 H   0  0  0  0  0  0  0  0  0  0  0  0
    3.0202    0.4184   -0.6600 H   0  0  0  0  0  0  0  0  0  0  0  0
    1.6651   -2.0440   -0.7655 H   0  0  0  0  0  0  0  0  0  0  0  0
    1.1237   -0.5593   -1.7584 H   0  0  0  0  0  0  0  0  0  0  0  0
    0.7089   -1.1233    1.2652 H   0  0  0  0  0  0  0  0  0  0  0  0
  1  2  1  0
  2  3  1  0
  3  4  1  0
  4  5  1  0
  5  6  2  0
  6  7  1  0
  7  8  1  0
  8  9  1  0
  4  2  1  0
  9  6  1  0
  9  2  1  0
  1 10  1  0
  3 11  1  0
  3 12  1  0
  4 13  1  0
  5 14  1  0
  7 15  1  0
  7 16  1  0
  8 17  1  0
  8 18  1  0
  9 19  1  0
M  END
