
     RDKit          3D

 19 21  0  0  0  0  0  0  0  0999 V2000
    1.4020    1.5257    0.0287 O   0  0  0  0  0  0  0  0  0  0  0  0
    0.8912    0.2609    0.3410 C   0  0  0  0  0  0  0  0  0  0  0  0
    1.7699   -0.8896    0.5506 C   0  0  0  0  0  0  0  0  0  0  0  0
    1.0997   -0.8219   -0.7718 C   0  0  0  0  0  0  0  0  0  0  0  0
   -0.3849   -0.9683   -0.8965 C   0  0  0  0  0  0  0  0  0  0  0  0
   -0.5566    0.0953    0.1144 C   0  0  0  0  0  0  0  0  0  0  0  0
   -1.4641   -0.1057    1.2504 C   0  0  0  0  0  0  0  0  0  0  0  0
   -2.4292    0.6708    0.5641 O   0  0  0  0  0  0  0  0  0  0  0  0
   -1.3899    1.2668   -0.1878 C   0  0  0  0  0  0  0  0  0  0  0  0
    2.2108    1.3887   -0.5020 H   0  0  0  0  0  0  0  0  0  0  0  0
    2.8690   -0.6728    0.5169 H   0  0  0  0  0  0  0  0  0  0  0  0
    1.5328   -1.6831    1.2815 H   0  0  0  0  0  0  0  0  0  0  0  0
    1.6707   -0.5043   -1.6551 H   0  0  0  0  0  0  0  0  0  0  0  0
   -0.8213   -1.9414   -0.6467 H   0  0  0  0  0  0  0  0  0  0  0  0
   -0.7295   -0.6194   -1.9057 H   0  0  0  0  0  0  0  0  0  0  0  0
   -1.8092   -1.1217    1.4956 H   0  0  0  0  0  0  0  0  0  0  0  0
   -1.1837    0.4715    2.1691 H   0  0  0  0  0  0  0  0  0  0  0  0
   -1.6470    1.4752   -1.2358 H   0  0  0  0  0  0  0  0  0  0  0  0
   -1.0307    2.1734    0.3688 H   0  0  0  0  0  0  0  0  0  0  0  0
  1  2  1  0
  2  3  1  0
  3  4  1  0
  4  5  1  0
  5  6  1  0
  6  7  1  0
  7  8  1  0
  8  9  1  0
  4  2  1  0
  9  6  1  0
  6  2  1  0
  1 10  1  0
  3 11  1  0
  3 12  1  0
  4 13  1  0
  5 14  1  0
  5 15  1  0
  7 16  1  0
  7 17  1  0
  9 18  1  0
  9 19  1  0
M  END
