
     RDKit          3D

 19 21  0  0  0  0  0  0  0  0999 V2000
   -1.5768    1.6901   -0.3661 O   0  0  0  0  0  0  0  0  0  0  0  0
   -0.9097    0.5719    0.1605 C   0  0  0  0  0  0  0  0  0  0  0  0
   -1.6878   -0.4587    0.8292 C   0  0  0  0  0  0  0  0  0  0  0  0
   -1.1519   -0.6909   -0.5599 C   0  0  0  0  0  0  0  0  0  0  0  0
   -0.1047   -1.5620   -0.6404 O   0  0  0  0  0  0  0  0  0  0  0  0
    1.1394   -1.0124   -0.5229 C   0  0  0  0  0  0  0  0  0  0  0  0
    1.2481   -0.4414    0.8985 C   0  0  0  0  0  0  0  0  0  0  0  0
    0.5561    0.7843    0.3461 C   0  0  0  0  0  0  0  0  0  0  0  0
    1.1961    0.4317   -1.0079 C   0  0  0  0  0  0  0  0  0  0  0  0
   -1.2772    2.5148    0.1261 H   0  0  0  0  0  0  0  0  0  0  0  0
   -1.3482   -1.0705    1.6734 H   0  0  0  0  0  0  0  0  0  0  0  0
   -2.8003   -0.2968    0.8479 H   0  0  0  0  0  0  0  0  0  0  0  0
   -1.8446   -0.7152   -1.4257 H   0  0  0  0  0  0  0  0  0  0  0  0
    1.9621   -1.6443   -0.8344 H   0  0  0  0  0  0  0  0  0  0  0  0
    2.3072   -0.2337    1.1405 H   0  0  0  0  0  0  0  0  0  0  0  0
    0.6899   -1.0443    1.6115 H   0  0  0  0  0  0  0  0  0  0  0  0
    0.8937    1.7424    0.7346 H   0  0  0  0  0  0  0  0  0  0  0  0
    2.2075    0.8094   -1.1474 H   0  0  0  0  0  0  0  0  0  0  0  0
    0.5010    0.6254   -1.8635 H   0  0  0  0  0  0  0  0  0  0  0  0
  1  2  1  0
  2  3  1  0
  3  4  1  0
  4  5  1  0
  5  6  1  0
  6  7  1  0
  7  8  1  0
  8  9  1  0
  4  2  1  0
  9  6  1  0
  8  2  1  0
  1 10  1  0
  3 11  1  0
  3 12  1  0
  4 13  1  0
  6 14  1  0
  7 15  1  0
  7 16  1  0
  8 17  1  0
  9 18  1  0
  9 19  1  0
M  END
