
     RDKit          3D

 21 22  0  0  0  0  0  0  0  0999 V2000
   -0.6150    1.7012   -1.2778 O   0  0  0  0  0  0  0  0  0  0  0  0
   -0.2918    0.7603   -0.2775 C   0  0  0  0  0  0  0  0  0  0  0  0
    1.0290    0.9599    0.3610 C   0  0  0  0  0  0  0  0  0  0  0  0
    2.0596   -0.0678    0.0483 C   0  0  0  0  0  0  0  0  0  0  0  0
    1.6970   -0.9295   -0.9869 O   0  0  0  0  0  0  0  0  0  0  0  0
    0.5270   -1.5731   -0.5573 C   0  0  0  0  0  0  0  0  0  0  0  0
   -0.6079   -0.6136   -0.7281 C   0  0  0  0  0  0  0  0  0  0  0  0
   -1.7391   -0.7407    0.2649 C   0  0  0  0  0  0  0  0  0  0  0  0
   -1.3817    0.6241    0.7840 C   0  0  0  0  0  0  0  0  0  0  0  0
   -0.8333    2.5542   -0.8459 H   0  0  0  0  0  0  0  0  0  0  0  0
    0.9699    1.0400    1.4832 H   0  0  0  0  0  0  0  0  0  0  0  0
    1.4059    1.9769    0.0431 H   0  0  0  0  0  0  0  0  0  0  0  0
    3.0352    0.4359   -0.1906 H   0  0  0  0  0  0  0  0  0  0  0  0
    2.3017   -0.7008    0.9533 H   0  0  0  0  0  0  0  0  0  0  0  0
    0.3782   -2.4795   -1.1715 H   0  0  0  0  0  0  0  0  0  0  0  0
    0.5877   -1.8383    0.5186 H   0  0  0  0  0  0  0  0  0  0  0  0
   -1.0430   -0.7137   -1.7635 H   0  0  0  0  0  0  0  0  0  0  0  0
   -1.5771   -1.5869    0.9586 H   0  0  0  0  0  0  0  0  0  0  0  0
   -2.7544   -0.7448   -0.1540 H   0  0  0  0  0  0  0  0  0  0  0  0
   -0.9960    0.5358    1.8226 H   0  0  0  0  0  0  0  0  0  0  0  0
   -2.1518    1.4003    0.7157 H   0  0  0  0  0  0  0  0  0  0  0  0
  1  2  1  0
  2  3  1  0
  3  4  1  0
  4  5  1  0
  5  6  1  0
  6  7  1  0
  7  8  1  0
  8  9  1  0
  7  2  1  0
  9  2  1  0
  1 10  1  0
  3 11  1  0
  3 12  1  0
  4 13  1  0
  4 14  1  0
  6 15  1  0
  6 16  1  0
  7 17  1  0
  8 18  1  0
  8 19  1  0
  9 20  1  0
  9 21  1  0
M  END
