
     RDKit          3D

 19 21  0  0  0  0  0  0  0  0999 V2000
   -1.4714   -0.6441    1.8046 O   0  0  0  0  0  0  0  0  0  0  0  0
   -1.1826    0.0709    0.6695 C   0  0  0  0  0  0  0  0  0  0  0  0
   -1.8916   -0.2402   -0.6272 C   0  0  0  0  0  0  0  0  0  0  0  0
   -0.5415   -0.1482   -1.3218 C   0  0  0  0  0  0  0  0  0  0  0  0
    0.0941    0.1131   -0.0018 C   0  0  0  0  0  0  0  0  0  0  0  0
    1.3315   -0.5830    0.4316 C   0  0  0  0  0  0  0  0  0  0  0  0
    2.5315   -0.3549   -0.4773 C   0  0  0  0  0  0  0  0  0  0  0  0
    1.8894   -1.5975   -0.2978 O   0  0  0  0  0  0  0  0  0  0  0  0
   -0.3498    1.2917    0.7729 C   0  0  0  0  0  0  0  0  0  0  0  0
   -1.7992    0.0190    2.4879 H   0  0  0  0  0  0  0  0  0  0  0  0
   -2.5313    0.6028   -0.9559 H   0  0  0  0  0  0  0  0  0  0  0  0
   -2.3446   -1.2358   -0.6568 H   0  0  0  0  0  0  0  0  0  0  0  0
   -0.2428   -1.1125   -1.7980 H   0  0  0  0  0  0  0  0  0  0  0  0
   -0.4245    0.7336   -1.9902 H   0  0  0  0  0  0  0  0  0  0  0  0
    1.5893   -0.4440    1.5114 H   0  0  0  0  0  0  0  0  0  0  0  0
    3.5322   -0.2265   -0.0248 H   0  0  0  0  0  0  0  0  0  0  0  0
    2.3381    0.0611   -1.4842 H   0  0  0  0  0  0  0  0  0  0  0  0
   -0.5967    2.1980    0.1852 H   0  0  0  0  0  0  0  0  0  0  0  0
    0.0700    1.4963    1.7728 H   0  0  0  0  0  0  0  0  0  0  0  0
  1  2  1  0
  2  3  1  0
  3  4  1  0
  4  5  1  0
  5  6  1  0
  6  7  1  0
  7  8  1  0
  5  9  1  0
  5  2  1  0
  8  6  1  0
  9  2  1  0
  1 10  1  0
  3 11  1  0
  3 12  1  0
  4 13  1  0
  4 14  1  0
  6 15  1  0
  7 16  1  0
  7 17  1  0
  9 18  1  0
  9 19  1  0
M  END
