
     RDKit          3D

 19 21  0  0  0  0  0  0  0  0999 V2000
   -1.5147    0.9072   -1.7361 O   0  0  0  0  0  0  0  0  0  0  0  0
   -0.6024    0.4884   -0.8071 C   0  0  0  0  0  0  0  0  0  0  0  0
   -0.4071   -0.9566   -0.4576 C   0  0  0  0  0  0  0  0  0  0  0  0
    1.0475   -1.3136   -0.4293 C   0  0  0  0  0  0  0  0  0  0  0  0
    1.8465   -0.3332    0.3166 C   0  0  0  0  0  0  0  0  0  0  0  0
    1.4502    0.8950    0.5250 C   0  0  0  0  0  0  0  0  0  0  0  0
    0.1723    1.4152    0.0375 C   0  0  0  0  0  0  0  0  0  0  0  0
   -1.0285    0.7799    0.6370 C   0  0  0  0  0  0  0  0  0  0  0  0
   -1.0557   -0.7115    0.8608 C   0  0  0  0  0  0  0  0  0  0  0  0
   -2.1020    1.6162   -1.3977 H   0  0  0  0  0  0  0  0  0  0  0  0
   -0.9698   -1.6313   -1.1461 H   0  0  0  0  0  0  0  0  0  0  0  0
    1.4545   -1.4230   -1.4632 H   0  0  0  0  0  0  0  0  0  0  0  0
    1.1732   -2.3238    0.0390 H   0  0  0  0  0  0  0  0  0  0  0  0
    2.8291   -0.6928    0.7059 H   0  0  0  0  0  0  0  0  0  0  0  0
    2.0978    1.5501    1.0819 H   0  0  0  0  0  0  0  0  0  0  0  0
    0.1032    2.4748   -0.2101 H   0  0  0  0  0  0  0  0  0  0  0  0
   -1.8979    1.3936    0.8164 H   0  0  0  0  0  0  0  0  0  0  0  0
   -2.1038   -1.0741    0.8758 H   0  0  0  0  0  0  0  0  0  0  0  0
   -0.4923   -1.0605    1.7513 H   0  0  0  0  0  0  0  0  0  0  0  0
  1  2  1  0
  2  3  1  0
  3  4  1  0
  4  5  1  0
  5  6  2  0
  6  7  1  0
  7  8  1  0
  8  9  1  0
  7  2  1  0
  8  2  1  0
  9  3  1  0
  1 10  1  0
  3 11  1  0
  4 12  1  0
  4 13  1  0
  5 14  1  0
  6 15  1  0
  7 16  1  0
  8 17  1  0
  9 18  1  0
  9 19  1  0
M  END
