
     RDKit          3D

 21 23  0  0  0  0  0  0  0  0999 V2000
    1.2489    2.0325   -0.0453 O   0  0  0  0  0  0  0  0  0  0  0  0
    1.2909    0.6792   -0.3360 C   0  0  0  0  0  0  0  0  0  0  0  0
    2.4096   -0.1553    0.1276 C   0  0  0  0  0  0  0  0  0  0  0  0
    1.1125   -0.3118    0.8336 C   0  0  0  0  0  0  0  0  0  0  0  0
    0.0587   -1.0472    0.0432 C   0  0  0  0  0  0  0  0  0  0  0  0
   -1.2790   -1.1846    0.6751 C   0  0  0  0  0  0  0  0  0  0  0  0
   -2.1633   -0.1703   -0.0421 C   0  0  0  0  0  0  0  0  0  0  0  0
   -1.1804    0.9110   -0.3745 C   0  0  0  0  0  0  0  0  0  0  0  0
    0.0270    0.1221   -0.8981 C   0  0  0  0  0  0  0  0  0  0  0  0
    2.0214    2.3119    0.4668 H   0  0  0  0  0  0  0  0  0  0  0  0
    3.2027    0.3435    0.6885 H   0  0  0  0  0  0  0  0  0  0  0  0
    2.7344   -0.9666   -0.5616 H   0  0  0  0  0  0  0  0  0  0  0  0
    0.9080    0.0918    1.8191 H   0  0  0  0  0  0  0  0  0  0  0  0
    0.5153   -1.9855   -0.3724 H   0  0  0  0  0  0  0  0  0  0  0  0
   -1.6722   -2.2049    0.4163 H   0  0  0  0  0  0  0  0  0  0  0  0
   -1.2917   -1.0520    1.7611 H   0  0  0  0  0  0  0  0  0  0  0  0
   -2.5176   -0.5967   -1.0167 H   0  0  0  0  0  0  0  0  0  0  0  0
   -2.9972    0.1683    0.5931 H   0  0  0  0  0  0  0  0  0  0  0  0
   -1.5347    1.6496   -1.0962 H   0  0  0  0  0  0  0  0  0  0  0  0
   -0.8817    1.4562    0.5662 H   0  0  0  0  0  0  0  0  0  0  0  0
   -0.0114   -0.0911   -1.9646 H   0  0  0  0  0  0  0  0  0  0  0  0
  1  2  1  0
  2  3  1  0
  3  4  1  0
  4  5  1  0
  5  6  1  0
  6  7  1  0
  7  8  1  0
  8  9  1  0
  4  2  1  0
  9  5  1  0
  9  2  1  0
  1 10  1  0
  3 11  1  0
  3 12  1  0
  4 13  1  0
  5 14  1  0
  6 15  1  0
  6 16  1  0
  7 17  1  0
  7 18  1  0
  8 19  1  0
  8 20  1  0
  9 21  1  0
M  END
