
     RDKit          3D

 19 21  0  0  0  0  0  0  0  0999 V2000
   -1.1380    1.8361   -1.5573 O   0  0  0  0  0  0  0  0  0  0  0  0
   -0.5637    1.0205   -0.6129 C   0  0  0  0  0  0  0  0  0  0  0  0
    0.7422    1.4035   -0.0214 C   0  0  0  0  0  0  0  0  0  0  0  0
    1.7082    0.5546    0.2816 C   0  0  0  0  0  0  0  0  0  0  0  0
    1.4858   -0.8832    0.0169 C   0  0  0  0  0  0  0  0  0  0  0  0
    0.0534   -1.2281    0.2203 C   0  0  0  0  0  0  0  0  0  0  0  0
   -0.6961   -0.5950    1.3416 C   0  0  0  0  0  0  0  0  0  0  0  0
   -1.4360    0.2447    0.3210 C   0  0  0  0  0  0  0  0  0  0  0  0
   -0.7577   -0.4318   -0.7787 C   0  0  0  0  0  0  0  0  0  0  0  0
   -1.4078    1.2954   -2.3647 H   0  0  0  0  0  0  0  0  0  0  0  0
    0.8983    2.4644    0.1701 H   0  0  0  0  0  0  0  0  0  0  0  0
    2.6628    0.8956    0.7218 H   0  0  0  0  0  0  0  0  0  0  0  0
    2.1912   -1.5365    0.5656 H   0  0  0  0  0  0  0  0  0  0  0  0
    1.6968   -1.0230   -1.0856 H   0  0  0  0  0  0  0  0  0  0  0  0
   -0.1378   -2.3200    0.1367 H   0  0  0  0  0  0  0  0  0  0  0  0
   -1.4136   -1.2837    1.8417 H   0  0  0  0  0  0  0  0  0  0  0  0
   -0.1262    0.0602    2.0253 H   0  0  0  0  0  0  0  0  0  0  0  0
   -2.5036    0.4308    0.3926 H   0  0  0  0  0  0  0  0  0  0  0  0
   -1.2584   -0.9045   -1.6145 H   0  0  0  0  0  0  0  0  0  0  0  0
  1  2  1  0
  2  3  1  0
  3  4  2  0
  4  5  1  0
  5  6  1  0
  6  7  1  0
  7  8  1  0
  8  9  1  0
  8  2  1  0
  9  2  1  0
  9  6  1  0
  1 10  1  0
  3 11  1  0
  4 12  1  0
  5 13  1  0
  5 14  1  0
  6 15  1  0
  7 16  1  0
  7 17  1  0
  8 18  1  0
  9 19  1  0
M  END
