
     RDKit          3D

 15 18  0  0  0  0  0  0  0  0999 V2000
   -1.9825    0.5208   -0.8866 O   0  0  0  0  0  0  0  0  0  0  0  0
   -0.8196    0.0424   -0.3770 C   0  0  0  0  0  0  0  0  0  0  0  0
   -0.8074   -0.4907    1.0024 C   0  0  0  0  0  0  0  0  0  0  0  0
    0.1277    0.2630    1.6688 O   0  0  0  0  0  0  0  0  0  0  0  0
    1.1121    0.6328    0.7640 C   0  0  0  0  0  0  0  0  0  0  0  0
    1.4945   -0.3296   -0.3033 C   0  0  0  0  0  0  0  0  0  0  0  0
    0.8404   -1.5178   -0.4801 O   0  0  0  0  0  0  0  0  0  0  0  0
   -0.4891   -1.3531   -0.1456 C   0  0  0  0  0  0  0  0  0  0  0  0
    0.4947    0.7341   -0.5639 C   0  0  0  0  0  0  0  0  0  0  0  0
   -1.9511    1.5289   -0.8176 H   0  0  0  0  0  0  0  0  0  0  0  0
   -1.7839   -0.5689    1.5429 H   0  0  0  0  0  0  0  0  0  0  0  0
    1.8057    1.4072    1.0674 H   0  0  0  0  0  0  0  0  0  0  0  0
    2.4536   -0.2093   -0.8300 H   0  0  0  0  0  0  0  0  0  0  0  0
   -1.1338   -2.2065   -0.3763 H   0  0  0  0  0  0  0  0  0  0  0  0
    0.6387    1.5467   -1.2651 H   0  0  0  0  0  0  0  0  0  0  0  0
  1  2  1  0
  2  3  1  0
  3  4  1  0
  4  5  1  0
  5  6  1  0
  6  7  1  0
  7  8  1  0
  6  9  1  0
  8  2  1  0
  9  2  1  0
  8  3  1  0
  9  5  1  0
  1 10  1  0
  3 11  1  0
  5 12  1  0
  6 13  1  0
  8 14  1  0
  9 15  1  0
M  END
