
     RDKit          3D

 18 19  0  0  0  0  0  0  0  0999 V2000
   -0.5041    1.3996   -1.4980 O   0  0  0  0  0  0  0  0  0  0  0  0
   -0.1613    0.5638   -0.4465 C   0  0  0  0  0  0  0  0  0  0  0  0
    1.2320    0.7345    0.0665 C   0  0  0  0  0  0  0  0  0  0  0  0
    1.6892   -0.6550    0.3381 C   0  0  0  0  0  0  0  0  0  0  0  0
    0.8228   -1.5409   -0.2430 O   0  0  0  0  0  0  0  0  0  0  0  0
   -0.2899   -0.8977   -0.6815 C   0  0  0  0  0  0  0  0  0  0  0  0
   -1.4132   -0.9976    0.3322 C   0  0  0  0  0  0  0  0  0  0  0  0
   -1.2529    0.4826    0.5818 C   0  0  0  0  0  0  0  0  0  0  0  0
   -0.4031    2.3300   -1.2128 H   0  0  0  0  0  0  0  0  0  0  0  0
    1.3131    1.4219    0.9348 H   0  0  0  0  0  0  0  0  0  0  0  0
    1.8453    1.1549   -0.7613 H   0  0  0  0  0  0  0  0  0  0  0  0
    1.6947   -0.8444    1.4329 H   0  0  0  0  0  0  0  0  0  0  0  0
    2.7014   -0.8460   -0.1214 H   0  0  0  0  0  0  0  0  0  0  0  0
   -0.6118   -1.2069   -1.7113 H   0  0  0  0  0  0  0  0  0  0  0  0
   -1.1715   -1.6059    1.2365 H   0  0  0  0  0  0  0  0  0  0  0  0
   -2.3686   -1.2831   -0.1582 H   0  0  0  0  0  0  0  0  0  0  0  0
   -2.1810    1.0368    0.2878 H   0  0  0  0  0  0  0  0  0  0  0  0
   -0.9411    0.7534    1.6232 H   0  0  0  0  0  0  0  0  0  0  0  0
  1  2  1  0
  2  3  1  0
  3  4  1  0
  4  5  1  0
  5  6  1  0
  6  7  1  0
  7  8  1  0
  6  2  1  0
  8  2  1  0
  1  9  1  0
  3 10  1  0
  3 11  1  0
  4 12  1  0
  4 13  1  0
  6 14  1  0
  7 15  1  0
  7 16  1  0
  8 17  1  0
  8 18  1  0
M  END
