
     RDKit          3D

 17 19  0  0  0  0  0  0  0  0999 V2000
    1.9837   -0.1234    1.2389 O   0  0  0  0  0  0  0  0  0  0  0  0
    0.8249   -0.2073    0.5554 C   0  0  0  0  0  0  0  0  0  0  0  0
   -0.4861   -0.5626    1.2669 C   0  0  0  0  0  0  0  0  0  0  0  0
   -1.3643   -0.6724    0.0271 C   0  0  0  0  0  0  0  0  0  0  0  0
   -1.1072    0.6923   -0.6036 C   0  0  0  0  0  0  0  0  0  0  0  0
    0.4262    0.6078   -0.5868 C   0  0  0  0  0  0  0  0  0  0  0  0
    1.1721    1.5989   -1.1271 O   0  0  0  0  0  0  0  0  0  0  0  0
    0.6503   -0.8273   -0.7654 C   0  0  0  0  0  0  0  0  0  0  0  0
   -0.6030   -1.4868   -0.7708 O   0  0  0  0  0  0  0  0  0  0  0  0
    2.7506   -0.2873    0.6168 H   0  0  0  0  0  0  0  0  0  0  0  0
   -0.8685    0.2687    1.8625 H   0  0  0  0  0  0  0  0  0  0  0  0
   -0.4067   -1.5138    1.8104 H   0  0  0  0  0  0  0  0  0  0  0  0
   -2.3786   -0.9190    0.1968 H   0  0  0  0  0  0  0  0  0  0  0  0
   -1.4913    0.6651   -1.6443 H   0  0  0  0  0  0  0  0  0  0  0  0
   -1.4858    1.5191   -0.0117 H   0  0  0  0  0  0  0  0  0  0  0  0
    0.9248    2.4664   -0.6852 H   0  0  0  0  0  0  0  0  0  0  0  0
    1.4591   -1.2184   -1.3799 H   0  0  0  0  0  0  0  0  0  0  0  0
  1  2  1  0
  2  3  1  0
  3  4  1  0
  4  5  1  0
  5  6  1  0
  6  7  1  0
  6  8  1  0
  8  9  1  0
  6  2  1  0
  8  2  1  0
  9  4  1  0
  1 10  1  0
  3 11  1  0
  3 12  1  0
  4 13  1  0
  5 14  1  0
  5 15  1  0
  7 16  1  0
  8 17  1  0
M  END
