
     RDKit          3D

 19 21  0  0  0  0  0  0  0  0999 V2000
    2.6221   -0.3596   -0.0876 O   0  0  0  0  0  0  0  0  0  0  0  0
    1.2704   -0.0739   -0.0694 C   0  0  0  0  0  0  0  0  0  0  0  0
    0.9340    1.3196   -0.4359 C   0  0  0  0  0  0  0  0  0  0  0  0
   -0.3621    1.6589   -0.3626 C   0  0  0  0  0  0  0  0  0  0  0  0
   -1.2925    0.5589    0.0142 C   0  0  0  0  0  0  0  0  0  0  0  0
   -1.0340   -0.6528   -0.8912 C   0  0  0  0  0  0  0  0  0  0  0  0
    0.3302   -1.0974   -0.4901 C   0  0  0  0  0  0  0  0  0  0  0  0
    0.4599   -0.6852    0.9681 C   0  0  0  0  0  0  0  0  0  0  0  0
   -0.8031   -0.0089    1.3514 C   0  0  0  0  0  0  0  0  0  0  0  0
    2.8257   -0.9554   -0.8504 H   0  0  0  0  0  0  0  0  0  0  0  0
    1.6756    2.0406   -0.7480 H   0  0  0  0  0  0  0  0  0  0  0  0
   -0.7267    2.6583   -0.5602 H   0  0  0  0  0  0  0  0  0  0  0  0
   -2.3388    0.8486    0.0378 H   0  0  0  0  0  0  0  0  0  0  0  0
   -1.1344   -0.3760   -1.9480 H   0  0  0  0  0  0  0  0  0  0  0  0
   -1.7678   -1.4193   -0.5781 H   0  0  0  0  0  0  0  0  0  0  0  0
    0.7144   -2.0907   -0.7837 H   0  0  0  0  0  0  0  0  0  0  0  0
    0.9453   -1.4214    1.6588 H   0  0  0  0  0  0  0  0  0  0  0  0
   -1.6163   -0.7278    1.6615 H   0  0  0  0  0  0  0  0  0  0  0  0
   -0.7016    0.7835    2.1132 H   0  0  0  0  0  0  0  0  0  0  0  0
  1  2  1  0
  2  3  1  0
  3  4  2  0
  4  5  1  0
  5  6  1  0
  6  7  1  0
  7  8  1  0
  8  9  1  0
  7  2  1  0
  8  2  1  0
  9  5  1  0
  1 10  1  0
  3 11  1  0
  4 12  1  0
  5 13  1  0
  6 14  1  0
  6 15  1  0
  7 16  1  0
  8 17  1  0
  9 18  1  0
  9 19  1  0
M  END
