
     RDKit          3D

 19 20  0  0  0  0  0  0  0  0999 V2000
   -0.9734   -1.8002   -0.9209 O   0  0  0  0  0  0  0  0  0  0  0  0
   -0.4254   -0.7174   -0.3183 C   0  0  0  0  0  0  0  0  0  0  0  0
    1.0623   -0.5731   -0.5668 C   0  0  0  0  0  0  0  0  0  0  0  0
    1.6406    0.6514    0.0058 C   0  0  0  0  0  0  0  0  0  0  0  0
    0.8232    1.6620    0.3465 O   0  0  0  0  0  0  0  0  0  0  0  0
   -0.5084    1.4654    0.3865 C   0  0  0  0  0  0  0  0  0  0  0  0
   -1.0334    0.6122   -0.7780 C   0  0  0  0  0  0  0  0  0  0  0  0
   -0.9553    0.6927    1.4689 O   0  0  0  0  0  0  0  0  0  0  0  0
   -0.6354   -0.6316    1.1684 C   0  0  0  0  0  0  0  0  0  0  0  0
   -1.5696   -2.3525   -0.3740 H   0  0  0  0  0  0  0  0  0  0  0  0
    1.2423   -0.6936   -1.6742 H   0  0  0  0  0  0  0  0  0  0  0  0
    1.5227   -1.4977   -0.1193 H   0  0  0  0  0  0  0  0  0  0  0  0
    2.4096    1.0482   -0.7233 H   0  0  0  0  0  0  0  0  0  0  0  0
    2.2544    0.3685    0.9121 H   0  0  0  0  0  0  0  0  0  0  0  0
   -1.0319    2.4313    0.4472 H   0  0  0  0  0  0  0  0  0  0  0  0
   -0.6244    0.9508   -1.7314 H   0  0  0  0  0  0  0  0  0  0  0  0
   -2.1222    0.5628   -0.7367 H   0  0  0  0  0  0  0  0  0  0  0  0
    0.3278   -0.8303    1.7257 H   0  0  0  0  0  0  0  0  0  0  0  0
   -1.4036   -1.3490    1.4817 H   0  0  0  0  0  0  0  0  0  0  0  0
  1  2  1  0
  2  3  1  0
  3  4  1  0
  4  5  1  0
  5  6  1  0
  6  7  1  0
  6  8  1  0
  8  9  1  0
  7  2  1  0
  9  2  1  0
  1 10  1  0
  3 11  1  0
  3 12  1  0
  4 13  1  0
  4 14  1  0
  6 15  1  0
  7 16  1  0
  7 17  1  0
  9 18  1  0
  9 19  1  0
M  END
