
     RDKit          3D

 19 21  0  0  0  0  0  0  0  0999 V2000
   -1.5355   -1.5129    1.1382 O   0  0  0  0  0  0  0  0  0  0  0  0
   -0.5461   -0.7078    0.6322 C   0  0  0  0  0  0  0  0  0  0  0  0
    0.8620   -0.9433    1.1684 C   0  0  0  0  0  0  0  0  0  0  0  0
    1.6673    0.0501    0.3962 C   0  0  0  0  0  0  0  0  0  0  0  0
    0.9100    0.3279   -0.8740 C   0  0  0  0  0  0  0  0  0  0  0  0
   -0.0239    1.5201   -0.6279 C   0  0  0  0  0  0  0  0  0  0  0  0
   -0.9411    0.5982    0.0979 C   0  0  0  0  0  0  0  0  0  0  0  0
   -2.2915    0.8103   -0.0963 O   0  0  0  0  0  0  0  0  0  0  0  0
   -0.3052   -0.5251   -0.7868 C   0  0  0  0  0  0  0  0  0  0  0  0
   -2.3569   -1.4860    0.6251 H   0  0  0  0  0  0  0  0  0  0  0  0
    1.1480   -1.9711    0.8033 H   0  0  0  0  0  0  0  0  0  0  0  0
    0.9234   -0.8497    2.2550 H   0  0  0  0  0  0  0  0  0  0  0  0
    1.7627    0.9854    1.0218 H   0  0  0  0  0  0  0  0  0  0  0  0
    2.7107   -0.2730    0.2102 H   0  0  0  0  0  0  0  0  0  0  0  0
    1.4685    0.3567   -1.7994 H   0  0  0  0  0  0  0  0  0  0  0  0
    0.4135    2.3146   -0.0268 H   0  0  0  0  0  0  0  0  0  0  0  0
   -0.4050    1.8619   -1.6224 H   0  0  0  0  0  0  0  0  0  0  0  0
   -2.5868    0.3217   -0.8972 H   0  0  0  0  0  0  0  0  0  0  0  0
   -0.8742   -0.8781   -1.6176 H   0  0  0  0  0  0  0  0  0  0  0  0
  1  2  1  0
  2  3  1  0
  3  4  1  0
  4  5  1  0
  5  6  1  0
  6  7  1  0
  7  8  1  0
  7  9  1  0
  7  2  1  0
  9  2  1  0
  9  5  1  0
  1 10  1  0
  3 11  1  0
  3 12  1  0
  4 13  1  0
  4 14  1  0
  5 15  1  0
  6 16  1  0
  6 17  1  0
  8 18  1  0
  9 19  1  0
M  END
