
     RDKit          3D

 17 19  0  0  0  0  0  0  0  0999 V2000
   -0.2586    2.2558   -0.5297 O   0  0  0  0  0  0  0  0  0  0  0  0
   -0.2677    0.9535   -0.1258 C   0  0  0  0  0  0  0  0  0  0  0  0
   -1.2857   -0.0294   -0.5749 C   0  0  0  0  0  0  0  0  0  0  0  0
   -0.9275   -1.2471    0.2899 C   0  0  0  0  0  0  0  0  0  0  0  0
    0.2093   -1.8342   -0.2268 O   0  0  0  0  0  0  0  0  0  0  0  0
    1.2444   -0.9519   -0.3436 C   0  0  0  0  0  0  0  0  0  0  0  0
    1.0382    0.3757    0.2528 C   0  0  0  0  0  0  0  0  0  0  0  0
    0.0117    0.5300    1.2686 C   0  0  0  0  0  0  0  0  0  0  0  0
   -0.6509   -0.6551    1.5166 O   0  0  0  0  0  0  0  0  0  0  0  0
    0.5962    2.3992   -1.0500 H   0  0  0  0  0  0  0  0  0  0  0  0
   -1.3069   -0.2581   -1.6325 H   0  0  0  0  0  0  0  0  0  0  0  0
   -2.2855    0.3254   -0.2008 H   0  0  0  0  0  0  0  0  0  0  0  0
   -1.7780   -1.9211    0.2981 H   0  0  0  0  0  0  0  0  0  0  0  0
    1.5394   -0.8095   -1.4256 H   0  0  0  0  0  0  0  0  0  0  0  0
    2.1577   -1.4322    0.1136 H   0  0  0  0  0  0  0  0  0  0  0  0
    1.9172    1.0342    0.3026 H   0  0  0  0  0  0  0  0  0  0  0  0
    0.0467    1.2648    2.0676 H   0  0  0  0  0  0  0  0  0  0  0  0
  1  2  1  0
  2  3  1  0
  3  4  1  0
  4  5  1  0
  5  6  1  0
  6  7  1  0
  7  8  1  0
  8  9  1  0
  7  2  1  0
  8  2  1  0
  9  4  1  0
  1 10  1  0
  3 11  1  0
  3 12  1  0
  4 13  1  0
  6 14  1  0
  6 15  1  0
  7 16  1  0
  8 17  1  0
M  END
