
     RDKit          3D

 19 21  0  0  0  0  0  0  0  0999 V2000
   -1.7785    1.5062   -0.8396 O   0  0  0  0  0  0  0  0  0  0  0  0
   -0.8187    0.7570   -0.1901 C   0  0  0  0  0  0  0  0  0  0  0  0
    0.3882    1.5465    0.1630 C   0  0  0  0  0  0  0  0  0  0  0  0
    1.5537    0.9367    0.2837 C   0  0  0  0  0  0  0  0  0  0  0  0
    1.7877   -0.5030    0.0966 C   0  0  0  0  0  0  0  0  0  0  0  0
    0.5921   -1.2871   -0.2844 C   0  0  0  0  0  0  0  0  0  0  0  0
   -0.6836   -1.2616    0.4425 C   0  0  0  0  0  0  0  0  0  0  0  0
   -1.2881   -0.0289    1.0049 C   0  0  0  0  0  0  0  0  0  0  0  0
   -0.5184   -0.5242   -0.8854 C   0  0  0  0  0  0  0  0  0  0  0  0
   -1.8369    1.2159   -1.7913 H   0  0  0  0  0  0  0  0  0  0  0  0
    0.2750    2.6022    0.3112 H   0  0  0  0  0  0  0  0  0  0  0  0
    2.4061    1.5563    0.5430 H   0  0  0  0  0  0  0  0  0  0  0  0
    2.5398   -0.5998   -0.7397 H   0  0  0  0  0  0  0  0  0  0  0  0
    2.3237   -0.8805    0.9964 H   0  0  0  0  0  0  0  0  0  0  0  0
    0.8224   -2.2570   -0.8020 H   0  0  0  0  0  0  0  0  0  0  0  0
   -1.3086   -2.1645    0.4754 H   0  0  0  0  0  0  0  0  0  0  0  0
   -0.9540    0.3186    1.9857 H   0  0  0  0  0  0  0  0  0  0  0  0
   -2.4157   -0.0734    0.9819 H   0  0  0  0  0  0  0  0  0  0  0  0
   -1.0861   -0.8593   -1.7516 H   0  0  0  0  0  0  0  0  0  0  0  0
  1  2  1  0
  2  3  1  0
  3  4  2  0
  4  5  1  0
  5  6  1  0
  6  7  1  0
  7  8  1  0
  7  9  1  0
  8  2  1  0
  9  2  1  0
  9  6  1  0
  1 10  1  0
  3 11  1  0
  4 12  1  0
  5 13  1  0
  5 14  1  0
  6 15  1  0
  7 16  1  0
  8 17  1  0
  8 18  1  0
  9 19  1  0
M  END
