
     RDKit          3D

 18 20  0  0  0  0  0  0  0  0999 V2000
   -1.1160   -1.1606   -1.0416 O   0  0  0  0  0  0  0  0  0  0  0  0
   -1.1075   -0.5125    0.2291 C   0  0  0  0  0  0  0  0  0  0  0  0
    0.0917   -1.0099    0.9527 C   0  0  0  0  0  0  0  0  0  0  0  0
    1.1420   -0.7050   -0.1194 C   0  0  0  0  0  0  0  0  0  0  0  0
    1.9882    0.4586   -0.1226 C   0  0  0  0  0  0  0  0  0  0  0  0
    0.5541    0.6344   -0.6971 C   0  0  0  0  0  0  0  0  0  0  0  0
   -0.5422    0.9694    0.2097 C   0  0  0  0  0  0  0  0  0  0  0  0
   -1.9150    0.6246    0.2904 C   0  0  0  0  0  0  0  0  0  0  0  0
   -1.0722   -0.5273   -1.7716 H   0  0  0  0  0  0  0  0  0  0  0  0
    0.3130   -0.5402    1.9008 H   0  0  0  0  0  0  0  0  0  0  0  0
    0.0270   -2.1237    1.0020 H   0  0  0  0  0  0  0  0  0  0  0  0
    1.3026   -1.4812   -0.8905 H   0  0  0  0  0  0  0  0  0  0  0  0
    2.8224    0.4854   -0.8185 H   0  0  0  0  0  0  0  0  0  0  0  0
    2.1711    1.0838    0.7930 H   0  0  0  0  0  0  0  0  0  0  0  0
    0.5358    0.7281   -1.7792 H   0  0  0  0  0  0  0  0  0  0  0  0
   -0.1303    1.3400    1.2032 H   0  0  0  0  0  0  0  0  0  0  0  0
   -2.5626    0.9249   -0.5736 H   0  0  0  0  0  0  0  0  0  0  0  0
   -2.5021    0.8114    1.2334 H   0  0  0  0  0  0  0  0  0  0  0  0
  1  2  1  0
  2  3  1  0
  3  4  1  0
  4  5  1  0
  5  6  1  0
  6  7  1  0
  7  8  1  0
  7  2  1  0
  8  2  1  0
  6  4  1  0
  1  9  1  0
  3 10  1  0
  3 11  1  0
  4 12  1  0
  5 13  1  0
  5 14  1  0
  6 15  1  0
  7 16  1  0
  8 17  1  0
  8 18  1  0
M  END
