
     RDKit          3D

 19 21  0  0  0  0  0  0  0  0999 V2000
   -0.7930   -0.5054    1.7424 O   0  0  0  0  0  0  0  0  0  0  0  0
   -0.5550   -0.1247    0.5088 C   0  0  0  0  0  0  0  0  0  0  0  0
   -1.0721    1.2424    0.0286 C   0  0  0  0  0  0  0  0  0  0  0  0
   -0.8704    0.5713   -1.3416 C   0  0  0  0  0  0  0  0  0  0  0  0
   -1.4131   -0.6812   -0.6359 C   0  0  0  0  0  0  0  0  0  0  0  0
    0.4844    0.3933   -1.4049 O   0  0  0  0  0  0  0  0  0  0  0  0
    0.7862   -0.1200   -0.1169 C   0  0  0  0  0  0  0  0  0  0  0  0
    2.0047    0.2548    0.5812 C   0  0  0  0  0  0  0  0  0  0  0  0
    1.7992   -1.1459    0.0443 C   0  0  0  0  0  0  0  0  0  0  0  0
   -1.6109   -0.0648    2.1118 H   0  0  0  0  0  0  0  0  0  0  0  0
   -0.3587    2.0647    0.1771 H   0  0  0  0  0  0  0  0  0  0  0  0
   -2.1253    1.4251    0.2257 H   0  0  0  0  0  0  0  0  0  0  0  0
   -1.4289    0.9542   -2.1567 H   0  0  0  0  0  0  0  0  0  0  0  0
   -2.4665   -0.5707   -0.3598 H   0  0  0  0  0  0  0  0  0  0  0  0
   -1.0722   -1.6266   -1.0478 H   0  0  0  0  0  0  0  0  0  0  0  0
    1.9290    0.4013    1.6880 H   0  0  0  0  0  0  0  0  0  0  0  0
    2.7031    0.9408    0.1045 H   0  0  0  0  0  0  0  0  0  0  0  0
    1.6762   -1.9905    0.7345 H   0  0  0  0  0  0  0  0  0  0  0  0
    2.3832   -1.4179   -0.8831 H   0  0  0  0  0  0  0  0  0  0  0  0
  1  2  1  0
  2  3  1  0
  3  4  1  0
  4  5  1  0
  4  6  1  0
  6  7  1  0
  7  8  1  0
  8  9  1  0
  5  2  1  0
  9  7  1  0
  7  2  1  0
  1 10  1  0
  3 11  1  0
  3 12  1  0
  4 13  1  0
  5 14  1  0
  5 15  1  0
  8 16  1  0
  8 17  1  0
  9 18  1  0
  9 19  1  0
M  END
