
     RDKit          3D

 18 20  0  0  0  0  0  0  0  0999 V2000
    1.0833    1.4769   -1.2759 O   0  0  0  0  0  0  0  0  0  0  0  0
    0.7777    0.6906   -0.1779 C   0  0  0  0  0  0  0  0  0  0  0  0
    1.7609   -0.2315    0.4141 C   0  0  0  0  0  0  0  0  0  0  0  0
    0.7684   -0.8541   -0.4743 C   0  0  0  0  0  0  0  0  0  0  0  0
   -0.6311   -1.1557   -0.0457 C   0  0  0  0  0  0  0  0  0  0  0  0
   -1.3869    0.0046   -0.7183 C   0  0  0  0  0  0  0  0  0  0  0  0
   -0.6179    0.8257    0.3285 C   0  0  0  0  0  0  0  0  0  0  0  0
   -0.8762   -0.3828    1.2365 C   0  0  0  0  0  0  0  0  0  0  0  0
    1.1580    2.3967   -0.9734 H   0  0  0  0  0  0  0  0  0  0  0  0
    2.7908   -0.1549   -0.0186 H   0  0  0  0  0  0  0  0  0  0  0  0
    1.7985   -0.4185    1.5080 H   0  0  0  0  0  0  0  0  0  0  0  0
    1.0183   -1.1369   -1.4970 H   0  0  0  0  0  0  0  0  0  0  0  0
   -1.0417   -2.1277   -0.1505 H   0  0  0  0  0  0  0  0  0  0  0  0
   -2.4642   -0.0140   -0.5830 H   0  0  0  0  0  0  0  0  0  0  0  0
   -0.9991    0.2460   -1.7218 H   0  0  0  0  0  0  0  0  0  0  0  0
   -1.0218    1.7596    0.6150 H   0  0  0  0  0  0  0  0  0  0  0  0
   -0.1647   -0.5265    2.0418 H   0  0  0  0  0  0  0  0  0  0  0  0
   -1.9523   -0.3975    1.4926 H   0  0  0  0  0  0  0  0  0  0  0  0
  1  2  1  0
  2  3  1  0
  3  4  1  0
  4  5  1  0
  5  6  1  0
  6  7  1  0
  7  8  1  0
  4  2  1  0
  8  5  1  0
  7  2  1  0
  1  9  1  0
  3 10  1  0
  3 11  1  0
  4 12  1  0
  5 13  1  0
  6 14  1  0
  6 15  1  0
  7 16  1  0
  8 17  1  0
  8 18  1  0
M  END
