
     RDKit          3D

 17 19  0  0  0  0  0  0  0  0999 V2000
   -2.3500    0.5687    0.4430 O   0  0  0  0  0  0  0  0  0  0  0  0
   -1.0646    0.2934    0.0418 C   0  0  0  0  0  0  0  0  0  0  0  0
   -0.8044   -0.6308   -1.1149 C   0  0  0  0  0  0  0  0  0  0  0  0
    0.0594   -1.6259   -0.6730 O   0  0  0  0  0  0  0  0  0  0  0  0
    0.8192   -1.0515    0.3464 C   0  0  0  0  0  0  0  0  0  0  0  0
    1.8291   -0.1027   -0.1989 C   0  0  0  0  0  0  0  0  0  0  0  0
    1.3725    1.1399   -0.1194 C   0  0  0  0  0  0  0  0  0  0  0  0
    0.0317    1.1878    0.4742 C   0  0  0  0  0  0  0  0  0  0  0  0
   -0.1186   -0.1508    1.0806 C   0  0  0  0  0  0  0  0  0  0  0  0
   -2.9969   -0.0698    0.0113 H   0  0  0  0  0  0  0  0  0  0  0  0
   -1.7766   -1.1007   -1.4100 H   0  0  0  0  0  0  0  0  0  0  0  0
   -0.3857   -0.0352   -1.9512 H   0  0  0  0  0  0  0  0  0  0  0  0
    1.2673   -1.8379    0.9595 H   0  0  0  0  0  0  0  0  0  0  0  0
    2.8027   -0.4355   -0.5998 H   0  0  0  0  0  0  0  0  0  0  0  0
    1.9379    1.9963   -0.4575 H   0  0  0  0  0  0  0  0  0  0  0  0
   -0.2889    2.0888    1.0347 H   0  0  0  0  0  0  0  0  0  0  0  0
   -0.3341   -0.2342    2.1331 H   0  0  0  0  0  0  0  0  0  0  0  0
  1  2  1  0
  2  3  1  0
  3  4  1  0
  4  5  1  0
  5  6  1  0
  6  7  2  0
  7  8  1  0
  8  9  1  0
  8  2  1  0
  9  2  1  0
  9  5  1  0
  1 10  1  0
  3 11  1  0
  3 12  1  0
  5 13  1  0
  6 14  1  0
  7 15  1  0
  8 16  1  0
  9 17  1  0
M  END
