
     RDKit          3D

 19 21  0  0  0  0  0  0  0  0999 V2000
    2.1108   -1.0404   -0.1410 O   0  0  0  0  0  0  0  0  0  0  0  0
    1.1719    0.0072    0.0193 C   0  0  0  0  0  0  0  0  0  0  0  0
    0.3063   -0.1188    1.2420 C   0  0  0  0  0  0  0  0  0  0  0  0
   -0.7943   -0.9309    0.6896 C   0  0  0  0  0  0  0  0  0  0  0  0
   -2.0809   -0.7404    0.1785 C   0  0  0  0  0  0  0  0  0  0  0  0
   -1.1465    0.1873   -0.3687 C   0  0  0  0  0  0  0  0  0  0  0  0
   -1.3938    1.4594    0.0184 O   0  0  0  0  0  0  0  0  0  0  0  0
    0.0935    0.0214   -1.1274 C   0  0  0  0  0  0  0  0  0  0  0  0
    1.1979    1.0770   -0.9259 C   0  0  0  0  0  0  0  0  0  0  0  0
    3.0254   -0.6620    0.0607 H   0  0  0  0  0  0  0  0  0  0  0  0
    0.0754    0.7828    1.7744 H   0  0  0  0  0  0  0  0  0  0  0  0
    0.8651   -0.7600    1.9930 H   0  0  0  0  0  0  0  0  0  0  0  0
   -0.2980   -1.8642    0.2596 H   0  0  0  0  0  0  0  0  0  0  0  0
   -2.5499   -1.4408   -0.5671 H   0  0  0  0  0  0  0  0  0  0  0  0
   -2.8869   -0.4384    0.8995 H   0  0  0  0  0  0  0  0  0  0  0  0
   -0.7693    2.0258    0.4316 H   0  0  0  0  0  0  0  0  0  0  0  0
    0.2287   -0.7106   -1.9316 H   0  0  0  0  0  0  0  0  0  0  0  0
    0.8134    2.0896   -0.8206 H   0  0  0  0  0  0  0  0  0  0  0  0
    2.0311    1.0559   -1.6844 H   0  0  0  0  0  0  0  0  0  0  0  0
  1  2  1  0
  2  3  1  0
  3  4  1  0
  4  5  1  0
  5  6  1  0
  6  7  1  0
  6  8  1  0
  8  9  1  0
  8  2  1  0
  9  2  1  0
  6  4  1  0
  1 10  1  0
  3 11  1  0
  3 12  1  0
  4 13  1  0
  5 14  1  0
  5 15  1  0
  7 16  1  0
  8 17  1  0
  9 18  1  0
  9 19  1  0
M  END
