
     RDKit          3D

 17 19  0  0  0  0  0  0  0  0999 V2000
    1.3796    1.9190    0.9157 O   0  0  0  0  0  0  0  0  0  0  0  0
    0.7115    0.8061    0.3638 C   0  0  0  0  0  0  0  0  0  0  0  0
    1.4849   -0.1502   -0.4392 C   0  0  0  0  0  0  0  0  0  0  0  0
    0.9752   -1.3688   -0.3347 C   0  0  0  0  0  0  0  0  0  0  0  0
   -0.2053   -1.3648    0.5562 C   0  0  0  0  0  0  0  0  0  0  0  0
   -1.3326   -1.2922   -0.2554 O   0  0  0  0  0  0  0  0  0  0  0  0
   -1.5588    0.0165   -0.5677 C   0  0  0  0  0  0  0  0  0  0  0  0
   -0.7502    0.8946    0.3468 C   0  0  0  0  0  0  0  0  0  0  0  0
   -0.0917   -0.0573    1.2638 C   0  0  0  0  0  0  0  0  0  0  0  0
    1.1557    2.6751    0.2985 H   0  0  0  0  0  0  0  0  0  0  0  0
    2.3495    0.0916   -1.0357 H   0  0  0  0  0  0  0  0  0  0  0  0
    1.3536   -2.2815   -0.8296 H   0  0  0  0  0  0  0  0  0  0  0  0
   -0.2773   -2.2393    1.2068 H   0  0  0  0  0  0  0  0  0  0  0  0
   -2.6410    0.2190   -0.4720 H   0  0  0  0  0  0  0  0  0  0  0  0
   -1.2840    0.2776   -1.6184 H   0  0  0  0  0  0  0  0  0  0  0  0
   -1.2357    1.8064    0.6848 H   0  0  0  0  0  0  0  0  0  0  0  0
   -0.0335    0.0481    2.3370 H   0  0  0  0  0  0  0  0  0  0  0  0
  1  2  1  0
  2  3  1  0
  3  4  2  0
  4  5  1  0
  5  6  1  0
  6  7  1  0
  7  8  1  0
  8  9  1  0
  8  2  1  0
  9  2  1  0
  9  5  1  0
  1 10  1  0
  3 11  1  0
  4 12  1  0
  5 13  1  0
  7 14  1  0
  7 15  1  0
  8 16  1  0
  9 17  1  0
M  END
