
     RDKit          3D

 21 23  0  0  0  0  0  0  0  0999 V2000
   -2.0782    1.1935    0.3290 O   0  0  0  0  0  0  0  0  0  0  0  0
   -1.0349    0.3573   -0.1204 C   0  0  0  0  0  0  0  0  0  0  0  0
   -1.5364   -0.9793   -0.5552 C   0  0  0  0  0  0  0  0  0  0  0  0
   -0.5085   -1.6649    0.3318 C   0  0  0  0  0  0  0  0  0  0  0  0
   -0.2607   -0.3181    0.9776 C   0  0  0  0  0  0  0  0  0  0  0  0
    1.1408    0.1653    0.9359 C   0  0  0  0  0  0  0  0  0  0  0  0
    2.0628   -0.0891   -0.1809 C   0  0  0  0  0  0  0  0  0  0  0  0
    1.2147    1.1504   -0.1675 C   0  0  0  0  0  0  0  0  0  0  0  0
   -0.0407    1.0390   -0.9933 C   0  0  0  0  0  0  0  0  0  0  0  0
   -1.6149    2.0187    0.6613 H   0  0  0  0  0  0  0  0  0  0  0  0
   -1.4844   -1.2178   -1.6172 H   0  0  0  0  0  0  0  0  0  0  0  0
   -2.5519   -1.2100   -0.1443 H   0  0  0  0  0  0  0  0  0  0  0  0
   -0.9148   -2.3924    1.0491 H   0  0  0  0  0  0  0  0  0  0  0  0
    0.3262   -2.0553   -0.2746 H   0  0  0  0  0  0  0  0  0  0  0  0
   -0.7507   -0.1605    1.9435 H   0  0  0  0  0  0  0  0  0  0  0  0
    1.6094    0.3564    1.9196 H   0  0  0  0  0  0  0  0  0  0  0  0
    3.1271    0.0813   -0.0323 H   0  0  0  0  0  0  0  0  0  0  0  0
    1.8487   -0.8767   -0.9497 H   0  0  0  0  0  0  0  0  0  0  0  0
    1.6350    2.1284    0.0860 H   0  0  0  0  0  0  0  0  0  0  0  0
    0.2270    0.4406   -1.8980 H   0  0  0  0  0  0  0  0  0  0  0  0
   -0.4157    2.0333   -1.3004 H   0  0  0  0  0  0  0  0  0  0  0  0
  1  2  1  0
  2  3  1  0
  3  4  1  0
  4  5  1  0
  5  6  1  0
  6  7  1  0
  7  8  1  0
  8  9  1  0
  5  2  1  0
  8  6  1  0
  9  2  1  0
  1 10  1  0
  3 11  1  0
  3 12  1  0
  4 13  1  0
  4 14  1  0
  5 15  1  0
  6 16  1  0
  7 17  1  0
  7 18  1  0
  8 19  1  0
  9 20  1  0
  9 21  1  0
M  END
