
     RDKit          3D

 17 20  0  0  0  0  0  0  0  0999 V2000
    2.1812    0.1039    0.2117 O   0  0  0  0  0  0  0  0  0  0  0  0
    0.9015   -0.0637   -0.0032 C   0  0  0  0  0  0  0  0  0  0  0  0
    0.0855    0.9007   -0.8228 C   0  0  0  0  0  0  0  0  0  0  0  0
   -0.6174    1.6594    0.2725 C   0  0  0  0  0  0  0  0  0  0  0  0
   -0.6887    0.8998    1.3559 C   0  0  0  0  0  0  0  0  0  0  0  0
   -0.0562   -0.4234    1.1134 C   0  0  0  0  0  0  0  0  0  0  0  0
   -0.8092   -1.1915    0.0525 C   0  0  0  0  0  0  0  0  0  0  0  0
   -0.7142   -0.3028   -1.2334 C   0  0  0  0  0  0  0  0  0  0  0  0
    0.3320   -1.1786   -0.7970 C   0  0  0  0  0  0  0  0  0  0  0  0
    2.8020   -0.6621    0.1219 H   0  0  0  0  0  0  0  0  0  0  0  0
    0.5785    1.4828   -1.5772 H   0  0  0  0  0  0  0  0  0  0  0  0
   -0.9879    2.6752    0.1343 H   0  0  0  0  0  0  0  0  0  0  0  0
   -1.1414    1.1970    2.2840 H   0  0  0  0  0  0  0  0  0  0  0  0
    0.3330   -0.9645    1.9548 H   0  0  0  0  0  0  0  0  0  0  0  0
   -1.6194   -1.8311    0.2037 H   0  0  0  0  0  0  0  0  0  0  0  0
   -1.4452   -0.3565   -1.9773 H   0  0  0  0  0  0  0  0  0  0  0  0
    0.8659   -1.9446   -1.2940 H   0  0  0  0  0  0  0  0  0  0  0  0
  1  2  1  0
  2  3  1  0
  3  4  1  0
  4  5  2  0
  5  6  1  0
  6  7  1  0
  7  8  1  0
  8  9  1  0
  6  2  1  0
  9  7  1  0
  9  2  1  0
  8  3  1  0
  1 10  1  0
  3 11  1  0
  4 12  1  0
  5 13  1  0
  6 14  1  0
  7 15  1  0
  8 16  1  0
  9 17  1  0
M  END
