
     RDKit          3D

 19 21  0  0  0  0  0  0  0  0999 V2000
    0.1445   -1.1695    1.7025 O   0  0  0  0  0  0  0  0  0  0  0  0
    0.1828   -0.5667    0.4531 C   0  0  0  0  0  0  0  0  0  0  0  0
    1.3954   -0.9224   -0.3272 C   0  0  0  0  0  0  0  0  0  0  0  0
    1.8902    0.3807   -0.8262 C   0  0  0  0  0  0  0  0  0  0  0  0
    1.1357    1.3715   -0.4102 C   0  0  0  0  0  0  0  0  0  0  0  0
    0.0294    0.9117    0.4211 C   0  0  0  0  0  0  0  0  0  0  0  0
   -1.2949    0.7765   -0.2865 C   0  0  0  0  0  0  0  0  0  0  0  0
   -2.3385   -0.1271    0.3053 C   0  0  0  0  0  0  0  0  0  0  0  0
   -1.1129   -0.6987   -0.2937 C   0  0  0  0  0  0  0  0  0  0  0  0
    0.9907   -1.0121    2.1798 H   0  0  0  0  0  0  0  0  0  0  0  0
    1.1527   -1.6243   -1.1585 H   0  0  0  0  0  0  0  0  0  0  0  0
    2.1725   -1.4522    0.2688 H   0  0  0  0  0  0  0  0  0  0  0  0
    2.7850    0.5109   -1.4707 H   0  0  0  0  0  0  0  0  0  0  0  0
    1.3009    2.4370   -0.6499 H   0  0  0  0  0  0  0  0  0  0  0  0
   -0.0897    1.4058    1.4058 H   0  0  0  0  0  0  0  0  0  0  0  0
   -1.5052    1.3551   -1.1905 H   0  0  0  0  0  0  0  0  0  0  0  0
   -3.2623   -0.2377   -0.2883 H   0  0  0  0  0  0  0  0  0  0  0  0
   -2.4705   -0.0663    1.3899 H   0  0  0  0  0  0  0  0  0  0  0  0
   -1.1058   -1.2724   -1.2247 H   0  0  0  0  0  0  0  0  0  0  0  0
  1  2  1  0
  2  3  1  0
  3  4  1  0
  4  5  2  0
  5  6  1  0
  6  7  1  0
  7  8  1  0
  8  9  1  0
  6  2  1  0
  9  7  1  0
  9  2  1  0
  1 10  1  0
  3 11  1  0
  3 12  1  0
  4 13  1  0
  5 14  1  0
  6 15  1  0
  7 16  1  0
  8 17  1  0
  8 18  1  0
  9 19  1  0
M  END
