
     RDKit          3D

 20 21  0  0  0  0  0  0  0  0999 V2000
    0.9955   -2.0180   -0.7313 O   0  0  0  0  0  0  0  0  0  0  0  0
    0.4020   -0.9180   -0.2302 C   0  0  0  0  0  0  0  0  0  0  0  0
   -0.9171   -1.1033    0.4326 C   0  0  0  0  0  0  0  0  0  0  0  0
   -1.5882    0.2771    0.3409 C   0  0  0  0  0  0  0  0  0  0  0  0
   -0.5194    1.1546   -0.2850 C   0  0  0  0  0  0  0  0  0  0  0  0
    0.6442    1.3148    0.6416 C   0  0  0  0  0  0  0  0  0  0  0  0
    1.2746   -0.0840    0.6954 C   0  0  0  0  0  0  0  0  0  0  0  0
    0.0566    0.1397   -1.2915 C   0  0  0  0  0  0  0  0  0  0  0  0
    1.7284   -1.7433   -1.3405 H   0  0  0  0  0  0  0  0  0  0  0  0
   -1.5306   -1.8825   -0.0491 H   0  0  0  0  0  0  0  0  0  0  0  0
   -0.7817   -1.3326    1.5134 H   0  0  0  0  0  0  0  0  0  0  0  0
   -2.4044    0.1660   -0.3999 H   0  0  0  0  0  0  0  0  0  0  0  0
   -1.9050    0.6189    1.3256 H   0  0  0  0  0  0  0  0  0  0  0  0
   -0.8875    2.0502   -0.7538 H   0  0  0  0  0  0  0  0  0  0  0  0
    1.3987    1.9701    0.1671 H   0  0  0  0  0  0  0  0  0  0  0  0
    0.3707    1.6210    1.6580 H   0  0  0  0  0  0  0  0  0  0  0  0
    2.2926   -0.0954    0.3065 H   0  0  0  0  0  0  0  0  0  0  0  0
    1.1864   -0.4804    1.7235 H   0  0  0  0  0  0  0  0  0  0  0  0
   -0.7616   -0.1777   -1.9376 H   0  0  0  0  0  0  0  0  0  0  0  0
    0.9459    0.5230   -1.7857 H   0  0  0  0  0  0  0  0  0  0  0  0
  1  2  1  0
  2  3  1  0
  3  4  1  0
  4  5  1  0
  5  6  1  0
  6  7  1  0
  5  8  1  0
  7  2  1  0
  8  2  1  0
  1  9  1  0
  3 10  1  0
  3 11  1  0
  4 12  1  0
  4 13  1  0
  5 14  1  0
  6 15  1  0
  6 16  1  0
  7 17  1  0
  7 18  1  0
  8 19  1  0
  8 20  1  0
M  END
