
     RDKit          3D

 19 20  0  0  0  0  0  0  0  0999 V2000
   -0.6430    0.1642   -1.5762 O   0  0  0  0  0  0  0  0  0  0  0  0
   -0.8672   -0.1842   -0.2481 C   0  0  0  0  0  0  0  0  0  0  0  0
   -0.1476   -1.3917    0.2146 C   0  0  0  0  0  0  0  0  0  0  0  0
    1.3464   -1.0335    0.2723 C   0  0  0  0  0  0  0  0  0  0  0  0
    1.5689    0.1773    0.8729 O   0  0  0  0  0  0  0  0  0  0  0  0
    1.3962    1.2700   -0.0066 C   0  0  0  0  0  0  0  0  0  0  0  0
    0.1270    1.8550    0.2222 O   0  0  0  0  0  0  0  0  0  0  0  0
   -0.6385    0.9015    0.8291 C   0  0  0  0  0  0  0  0  0  0  0  0
   -1.9622    0.4764    0.4361 C   0  0  0  0  0  0  0  0  0  0  0  0
   -1.4725   -0.1170   -2.0744 H   0  0  0  0  0  0  0  0  0  0  0  0
   -0.2790   -2.1959   -0.5333 H   0  0  0  0  0  0  0  0  0  0  0  0
   -0.4168   -1.7145    1.2395 H   0  0  0  0  0  0  0  0  0  0  0  0
    1.9112   -1.8058    0.8503 H   0  0  0  0  0  0  0  0  0  0  0  0
    1.7775   -0.9827   -0.7570 H   0  0  0  0  0  0  0  0  0  0  0  0
    1.5033    0.9216   -1.0459 H   0  0  0  0  0  0  0  0  0  0  0  0
    2.1935    2.0202    0.1841 H   0  0  0  0  0  0  0  0  0  0  0  0
   -0.2601    0.5731    1.8167 H   0  0  0  0  0  0  0  0  0  0  0  0
   -2.5850    1.1830   -0.1432 H   0  0  0  0  0  0  0  0  0  0  0  0
   -2.5520   -0.1170    1.1562 H   0  0  0  0  0  0  0  0  0  0  0  0
  1  2  1  0
  2  3  1  0
  3  4  1  0
  4  5  1  0
  5  6  1  0
  6  7  1  0
  7  8  1  0
  8  9  1  0
  8  2  1  0
  9  2  1  0
  1 10  1  0
  3 11  1  0
  3 12  1  0
  4 13  1  0
  4 14  1  0
  6 15  1  0
  6 16  1  0
  8 17  1  0
  9 18  1  0
  9 19  1  0
M  END
