
     RDKit          3D

 21 22  0  0  0  0  0  0  0  0999 V2000
    0.1462   -0.6329   -1.6725 O   0  0  0  0  0  0  0  0  0  0  0  0
   -0.0647   -0.5127   -0.3301 C   0  0  0  0  0  0  0  0  0  0  0  0
   -1.4089   -0.9909    0.1358 C   0  0  0  0  0  0  0  0  0  0  0  0
   -2.2260    0.2791    0.0951 C   0  0  0  0  0  0  0  0  0  0  0  0
   -1.2263    1.3565    0.2964 C   0  0  0  0  0  0  0  0  0  0  0  0
    0.0010    0.9439    0.0650 C   0  0  0  0  0  0  0  0  0  0  0  0
    1.4595    1.2655    0.0142 C   0  0  0  0  0  0  0  0  0  0  0  0
    2.1745   -0.0685    0.1335 C   0  0  0  0  0  0  0  0  0  0  0  0
    1.0754   -1.0371    0.5123 C   0  0  0  0  0  0  0  0  0  0  0  0
   -0.6469   -0.8916   -2.1879 H   0  0  0  0  0  0  0  0  0  0  0  0
   -1.4073   -1.4621    1.1235 H   0  0  0  0  0  0  0  0  0  0  0  0
   -1.7777   -1.7143   -0.6488 H   0  0  0  0  0  0  0  0  0  0  0  0
   -2.9346    0.2796    0.9683 H   0  0  0  0  0  0  0  0  0  0  0  0
   -2.7733    0.4004   -0.8658 H   0  0  0  0  0  0  0  0  0  0  0  0
   -1.4120    2.4032    0.6029 H   0  0  0  0  0  0  0  0  0  0  0  0
    1.6293    1.7462   -0.9745 H   0  0  0  0  0  0  0  0  0  0  0  0
    1.7543    1.9408    0.8495 H   0  0  0  0  0  0  0  0  0  0  0  0
    2.9598    0.0042    0.9086 H   0  0  0  0  0  0  0  0  0  0  0  0
    2.5625   -0.3331   -0.8684 H   0  0  0  0  0  0  0  0  0  0  0  0
    1.3329   -2.0839    0.2739 H   0  0  0  0  0  0  0  0  0  0  0  0
    0.7822   -0.8922    1.5691 H   0  0  0  0  0  0  0  0  0  0  0  0
  1  2  1  0
  2  3  1  0
  3  4  1  0
  4  5  1  0
  5  6  2  0
  6  7  1  0
  7  8  1  0
  8  9  1  0
  6  2  1  0
  9  2  1  0
  1 10  1  0
  3 11  1  0
  3 12  1  0
  4 13  1  0
  4 14  1  0
  5 15  1  0
  7 16  1  0
  7 17  1  0
  8 18  1  0
  8 19  1  0
  9 20  1  0
  9 21  1  0
M  END
