
     RDKit          3D

 16 18  0  0  0  0  0  0  0  0999 V2000
    0.7489    1.5344   -1.2585 O   0  0  0  0  0  0  0  0  0  0  0  0
    0.5344    0.6725   -0.2150 C   0  0  0  0  0  0  0  0  0  0  0  0
    1.5240   -0.5185   -0.0636 C   0  0  0  0  0  0  0  0  0  0  0  0
    0.2078   -0.8152   -0.5890 C   0  0  0  0  0  0  0  0  0  0  0  0
   -1.0023   -1.0793    0.3145 C   0  0  0  0  0  0  0  0  0  0  0  0
   -1.6264    0.2793    0.2291 C   0  0  0  0  0  0  0  0  0  0  0  0
   -1.6230    1.3335    0.9932 O   0  0  0  0  0  0  0  0  0  0  0  0
   -0.3780    0.9400    0.8983 C   0  0  0  0  0  0  0  0  0  0  0  0
    1.4897    2.1620   -1.0499 H   0  0  0  0  0  0  0  0  0  0  0  0
    1.7653   -0.7729    1.0106 H   0  0  0  0  0  0  0  0  0  0  0  0
    2.3663   -0.5378   -0.7510 H   0  0  0  0  0  0  0  0  0  0  0  0
    0.0929   -1.0353   -1.6501 H   0  0  0  0  0  0  0  0  0  0  0  0
   -0.6388   -1.3504    1.3035 H   0  0  0  0  0  0  0  0  0  0  0  0
   -1.6536   -1.8142   -0.1737 H   0  0  0  0  0  0  0  0  0  0  0  0
   -1.7693    0.5438   -0.8665 H   0  0  0  0  0  0  0  0  0  0  0  0
   -0.0380    0.4580    1.8681 H   0  0  0  0  0  0  0  0  0  0  0  0
  1  2  1  0
  2  3  1  0
  3  4  1  0
  4  5  1  0
  5  6  1  0
  6  7  1  0
  7  8  1  0
  4  2  1  0
  8  6  1  0
  8  2  1  0
  1  9  1  0
  3 10  1  0
  3 11  1  0
  4 12  1  0
  5 13  1  0
  5 14  1  0
  6 15  1  0
  8 16  1  0
M  END
