
     RDKit          3D

 19 20  0  0  0  0  0  0  0  0999 V2000
    0.1319   -0.6953    1.6375 O   0  0  0  0  0  0  0  0  0  0  0  0
    0.1469   -0.4559    0.2776 C   0  0  0  0  0  0  0  0  0  0  0  0
    1.4720   -0.6458   -0.3637 C   0  0  0  0  0  0  0  0  0  0  0  0
    2.1521    0.6557   -0.1287 C   0  0  0  0  0  0  0  0  0  0  0  0
    1.2522    1.5880    0.0861 C   0  0  0  0  0  0  0  0  0  0  0  0
   -0.0976    1.0102    0.0172 C   0  0  0  0  0  0  0  0  0  0  0  0
   -1.3927    1.1904   -0.1663 C   0  0  0  0  0  0  0  0  0  0  0  0
   -2.1336   -0.0894   -0.0536 C   0  0  0  0  0  0  0  0  0  0  0  0
   -1.0176   -1.0857   -0.4047 C   0  0  0  0  0  0  0  0  0  0  0  0
    0.9366   -1.1468    1.9305 H   0  0  0  0  0  0  0  0  0  0  0  0
    2.0543   -1.5052    0.0199 H   0  0  0  0  0  0  0  0  0  0  0  0
    1.3160   -0.7147   -1.4696 H   0  0  0  0  0  0  0  0  0  0  0  0
    3.2290    0.7709   -0.1420 H   0  0  0  0  0  0  0  0  0  0  0  0
    1.4313    2.6397    0.2875 H   0  0  0  0  0  0  0  0  0  0  0  0
   -1.8708    2.1326   -0.3716 H   0  0  0  0  0  0  0  0  0  0  0  0
   -2.3898   -0.2732    1.0140 H   0  0  0  0  0  0  0  0  0  0  0  0
   -2.9882   -0.1727   -0.7188 H   0  0  0  0  0  0  0  0  0  0  0  0
   -1.3403   -2.0540    0.0478 H   0  0  0  0  0  0  0  0  0  0  0  0
   -0.8917   -1.1488   -1.4990 H   0  0  0  0  0  0  0  0  0  0  0  0
  1  2  1  0
  2  3  1  0
  3  4  1  0
  4  5  2  0
  5  6  1  0
  6  7  2  0
  7  8  1  0
  8  9  1  0
  6  2  1  0
  9  2  1  0
  1 10  1  0
  3 11  1  0
  3 12  1  0
  4 13  1  0
  5 14  1  0
  7 15  1  0
  8 16  1  0
  8 17  1  0
  9 18  1  0
  9 19  1  0
M  END
