
     RDKit          3D

 17 19  0  0  0  0  0  0  0  0999 V2000
   -0.9862    1.5215    1.4709 O   0  0  0  0  0  0  0  0  0  0  0  0
   -0.5844    0.7224    0.4499 C   0  0  0  0  0  0  0  0  0  0  0  0
   -1.6631    0.0455   -0.3396 C   0  0  0  0  0  0  0  0  0  0  0  0
   -1.2137   -1.1055   -0.8180 C   0  0  0  0  0  0  0  0  0  0  0  0
    0.1972   -1.3076   -0.3984 C   0  0  0  0  0  0  0  0  0  0  0  0
    0.3370   -0.4159    0.7557 C   0  0  0  0  0  0  0  0  0  0  0  0
    1.1188   -0.1142   -0.4365 C   0  0  0  0  0  0  0  0  0  0  0  0
    2.4638   -0.2785   -0.5676 O   0  0  0  0  0  0  0  0  0  0  0  0
    0.4694    1.2607   -0.4863 C   0  0  0  0  0  0  0  0  0  0  0  0
   -1.1699    1.0501    2.3326 H   0  0  0  0  0  0  0  0  0  0  0  0
   -2.6727    0.4172   -0.5120 H   0  0  0  0  0  0  0  0  0  0  0  0
   -1.7827   -1.7891   -1.4183 H   0  0  0  0  0  0  0  0  0  0  0  0
    0.6427   -2.2904   -0.4864 H   0  0  0  0  0  0  0  0  0  0  0  0
    0.6937   -0.6647    1.7323 H   0  0  0  0  0  0  0  0  0  0  0  0
    2.9436   -0.5773    0.2336 H   0  0  0  0  0  0  0  0  0  0  0  0
    1.0705    2.0581    0.0012 H   0  0  0  0  0  0  0  0  0  0  0  0
    0.1362    1.4675   -1.5129 H   0  0  0  0  0  0  0  0  0  0  0  0
  1  2  1  0
  2  3  1  0
  3  4  2  0
  4  5  1  0
  5  6  1  0
  6  7  1  0
  7  8  1  0
  7  9  1  0
  6  2  1  0
  9  2  1  0
  7  5  1  0
  1 10  1  0
  3 11  1  0
  4 12  1  0
  5 13  1  0
  6 14  1  0
  8 15  1  0
  9 16  1  0
  9 17  1  0
M  END
