
     RDKit          3D

 17 19  0  0  0  0  0  0  0  0999 V2000
   -1.7707    0.7293    0.7680 O   0  0  0  0  0  0  0  0  0  0  0  0
   -0.5507    0.5777    0.2974 C   0  0  0  0  0  0  0  0  0  0  0  0
    0.4035    1.7011    0.2069 C   0  0  0  0  0  0  0  0  0  0  0  0
    1.5065    1.1068   -0.3099 C   0  0  0  0  0  0  0  0  0  0  0  0
    1.0982   -0.2916   -0.4335 C   0  0  0  0  0  0  0  0  0  0  0  0
   -0.3110   -0.1577   -1.0082 C   0  0  0  0  0  0  0  0  0  0  0  0
   -0.8803   -1.4757   -0.7292 C   0  0  0  0  0  0  0  0  0  0  0  0
   -0.4540   -1.7417    0.5209 C   0  0  0  0  0  0  0  0  0  0  0  0
    0.3431   -0.5336    0.8461 C   0  0  0  0  0  0  0  0  0  0  0  0
   -2.0676    1.5723    1.1395 H   0  0  0  0  0  0  0  0  0  0  0  0
    0.2717    2.7423    0.4799 H   0  0  0  0  0  0  0  0  0  0  0  0
    2.4527    1.5620   -0.5654 H   0  0  0  0  0  0  0  0  0  0  0  0
    1.7353   -1.0341   -0.8279 H   0  0  0  0  0  0  0  0  0  0  0  0
   -0.4441    0.3406   -1.9232 H   0  0  0  0  0  0  0  0  0  0  0  0
   -1.4950   -2.0762   -1.3858 H   0  0  0  0  0  0  0  0  0  0  0  0
   -0.6378   -2.6098    1.1412 H   0  0  0  0  0  0  0  0  0  0  0  0
    0.8002   -0.4119    1.7833 H   0  0  0  0  0  0  0  0  0  0  0  0
  1  2  1  0
  2  3  1  0
  3  4  2  0
  4  5  1  0
  5  6  1  0
  6  7  1  0
  7  8  2  0
  8  9  1  0
  6  2  1  0
  9  2  1  0
  9  5  1  0
  1 10  1  0
  3 11  1  0
  4 12  1  0
  5 13  1  0
  6 14  1  0
  7 15  1  0
  8 16  1  0
  9 17  1  0
M  END
