
     RDKit          3D

 17 19  0  0  0  0  0  0  0  0999 V2000
    0.0048    2.0640   -0.0658 O   0  0  0  0  0  0  0  0  0  0  0  0
   -0.1211    0.7527    0.0163 C   0  0  0  0  0  0  0  0  0  0  0  0
   -1.4757    0.0976    0.0782 C   0  0  0  0  0  0  0  0  0  0  0  0
   -0.9168   -1.3372    0.1348 C   0  0  0  0  0  0  0  0  0  0  0  0
   -0.1673   -1.3230   -1.0503 O   0  0  0  0  0  0  0  0  0  0  0  0
    0.5440   -0.1303   -1.0444 C   0  0  0  0  0  0  0  0  0  0  0  0
    1.7149   -0.2172   -0.0832 C   0  0  0  0  0  0  0  0  0  0  0  0
    0.6545   -0.0507    1.0184 C   0  0  0  0  0  0  0  0  0  0  0  0
   -0.0547   -1.2358    1.2059 O   0  0  0  0  0  0  0  0  0  0  0  0
   -0.8117    2.5555   -0.2321 H   0  0  0  0  0  0  0  0  0  0  0  0
   -2.0662    0.3474    0.9461 H   0  0  0  0  0  0  0  0  0  0  0  0
   -1.9631    0.2464   -0.8993 H   0  0  0  0  0  0  0  0  0  0  0  0
   -1.6697   -2.0892    0.1857 H   0  0  0  0  0  0  0  0  0  0  0  0
    0.7310    0.3440   -2.0002 H   0  0  0  0  0  0  0  0  0  0  0  0
    2.2336   -1.1718   -0.0354 H   0  0  0  0  0  0  0  0  0  0  0  0
    2.3424    0.6936   -0.0795 H   0  0  0  0  0  0  0  0  0  0  0  0
    1.0212    0.4541    1.9048 H   0  0  0  0  0  0  0  0  0  0  0  0
  1  2  1  0
  2  3  1  0
  3  4  1  0
  4  5  1  0
  5  6  1  0
  6  7  1  0
  7  8  1  0
  8  9  1  0
  6  2  1  0
  8  2  1  0
  9  4  1  0
  1 10  1  0
  3 11  1  0
  3 12  1  0
  4 13  1  0
  6 14  1  0
  7 15  1  0
  7 16  1  0
  8 17  1  0
M  END
