
     RDKit          3D

 19 21  0  0  0  0  0  0  0  0999 V2000
   -0.2899    2.1948   -0.4796 O   0  0  0  0  0  0  0  0  0  0  0  0
   -0.2689    0.9006   -0.1391 C   0  0  0  0  0  0  0  0  0  0  0  0
   -1.5746    0.2019    0.1701 C   0  0  0  0  0  0  0  0  0  0  0  0
   -0.9225   -1.1212    0.6056 C   0  0  0  0  0  0  0  0  0  0  0  0
   -0.0711   -1.4211   -0.5815 C   0  0  0  0  0  0  0  0  0  0  0  0
    0.5775   -0.0699   -0.8807 C   0  0  0  0  0  0  0  0  0  0  0  0
    1.6788    0.2034    0.1502 C   0  0  0  0  0  0  0  0  0  0  0  0
    0.5242    0.5091    1.1109 C   0  0  0  0  0  0  0  0  0  0  0  0
   -0.0745   -0.6342    1.6170 O   0  0  0  0  0  0  0  0  0  0  0  0
    0.1484    2.3102   -1.3819 H   0  0  0  0  0  0  0  0  0  0  0  0
   -2.2293    0.0818   -0.6839 H   0  0  0  0  0  0  0  0  0  0  0  0
   -1.9977    0.6471    1.0642 H   0  0  0  0  0  0  0  0  0  0  0  0
   -1.6166   -1.8636    0.9254 H   0  0  0  0  0  0  0  0  0  0  0  0
   -0.6325   -1.7620   -1.4654 H   0  0  0  0  0  0  0  0  0  0  0  0
    0.7231   -2.1288   -0.2654 H   0  0  0  0  0  0  0  0  0  0  0  0
    0.8355    0.1215   -1.9116 H   0  0  0  0  0  0  0  0  0  0  0  0
    2.2941   -0.6483    0.4142 H   0  0  0  0  0  0  0  0  0  0  0  0
    2.1856    1.1610   -0.0830 H   0  0  0  0  0  0  0  0  0  0  0  0
    0.7103    1.3177    1.8145 H   0  0  0  0  0  0  0  0  0  0  0  0
  1  2  1  0
  2  3  1  0
  3  4  1  0
  4  5  1  0
  5  6  1  0
  6  7  1  0
  7  8  1  0
  8  9  1  0
  6  2  1  0
  8  2  1  0
  9  4  1  0
  1 10  1  0
  3 11  1  0
  3 12  1  0
  4 13  1  0
  5 14  1  0
  5 15  1  0
  6 16  1  0
  7 17  1  0
  7 18  1  0
  8 19  1  0
M  END
