
     RDKit          3D

 17 19  0  0  0  0  0  0  0  0999 V2000
    0.9780    1.3352    1.1373 O   0  0  0  0  0  0  0  0  0  0  0  0
    0.4150    0.7523    0.0411 C   0  0  0  0  0  0  0  0  0  0  0  0
   -1.0645    1.0491   -0.2635 C   0  0  0  0  0  0  0  0  0  0  0  0
   -1.6502   -0.1183    0.4709 C   0  0  0  0  0  0  0  0  0  0  0  0
   -2.1051   -1.2819    0.1150 O   0  0  0  0  0  0  0  0  0  0  0  0
   -0.9410   -1.1408   -0.4765 C   0  0  0  0  0  0  0  0  0  0  0  0
    0.4117   -0.8146   -0.0208 C   0  0  0  0  0  0  0  0  0  0  0  0
    1.0580   -1.4754    0.9939 O   0  0  0  0  0  0  0  0  0  0  0  0
    1.2783    0.0948   -0.9267 C   0  0  0  0  0  0  0  0  0  0  0  0
    1.1588    0.7658    1.8981 H   0  0  0  0  0  0  0  0  0  0  0  0
   -1.1664    1.0014   -1.3486 H   0  0  0  0  0  0  0  0  0  0  0  0
   -1.3172    2.0077    0.1985 H   0  0  0  0  0  0  0  0  0  0  0  0
   -1.2646   -0.1121    1.5388 H   0  0  0  0  0  0  0  0  0  0  0  0
   -1.0863   -0.9467   -1.5859 H   0  0  0  0  0  0  0  0  0  0  0  0
    2.0336   -1.3253    0.9550 H   0  0  0  0  0  0  0  0  0  0  0  0
    2.3464    0.0932   -0.7300 H   0  0  0  0  0  0  0  0  0  0  0  0
    0.9155    0.1156   -1.9968 H   0  0  0  0  0  0  0  0  0  0  0  0
  1  2  1  0
  2  3  1  0
  3  4  1  0
  4  5  1  0
  5  6  1  0
  6  7  1  0
  7  8  1  0
  7  9  1  0
  7  2  1  0
  9  2  1  0
  6  4  1  0
  1 10  1  0
  3 11  1  0
  3 12  1  0
  4 13  1  0
  6 14  1  0
  8 15  1  0
  9 16  1  0
  9 17  1  0
M  END
