
     RDKit          3D

 17 20  0  0  0  0  0  0  0  0999 V2000
   -1.9888   -0.9111    0.8299 O   0  0  0  0  0  0  0  0  0  0  0  0
   -0.7964   -0.4679    0.3691 C   0  0  0  0  0  0  0  0  0  0  0  0
    0.0417   -1.2013   -0.6119 C   0  0  0  0  0  0  0  0  0  0  0  0
    1.3487   -0.5740   -0.5750 C   0  0  0  0  0  0  0  0  0  0  0  0
    1.4219    0.2814    0.6793 C   0  0  0  0  0  0  0  0  0  0  0  0
   -0.0249    0.6444    0.9042 C   0  0  0  0  0  0  0  0  0  0  0  0
   -0.6082    0.7742   -0.4111 C   0  0  0  0  0  0  0  0  0  0  0  0
   -1.6152    1.5958   -0.7882 O   0  0  0  0  0  0  0  0  0  0  0  0
    0.2795    0.0575   -1.3571 C   0  0  0  0  0  0  0  0  0  0  0  0
   -1.8201   -1.4184    1.6874 H   0  0  0  0  0  0  0  0  0  0  0  0
   -0.2446   -2.1087   -1.1075 H   0  0  0  0  0  0  0  0  0  0  0  0
    2.2560   -0.9927   -1.0094 H   0  0  0  0  0  0  0  0  0  0  0  0
    1.9945    1.2092    0.4232 H   0  0  0  0  0  0  0  0  0  0  0  0
    1.8167   -0.2504    1.5452 H   0  0  0  0  0  0  0  0  0  0  0  0
   -0.3489    1.1397    1.8196 H   0  0  0  0  0  0  0  0  0  0  0  0
   -1.9588    2.0666    0.0288 H   0  0  0  0  0  0  0  0  0  0  0  0
    0.2466    0.1555   -2.4267 H   0  0  0  0  0  0  0  0  0  0  0  0
  1  2  1  0
  2  3  1  0
  3  4  1  0
  4  5  1  0
  5  6  1  0
  6  7  1  0
  7  8  1  0
  7  9  1  0
  6  2  1  0
  7  2  1  0
  9  3  1  0
  9  4  1  0
  1 10  1  0
  3 11  1  0
  4 12  1  0
  5 13  1  0
  5 14  1  0
  6 15  1  0
  8 16  1  0
  9 17  1  0
M  END
