
     RDKit          3D

 18 20  0  0  0  0  0  0  0  0999 V2000
    0.9327   -0.7398    1.7658 O   0  0  0  0  0  0  0  0  0  0  0  0
    0.6463   -0.4841    0.5011 C   0  0  0  0  0  0  0  0  0  0  0  0
    1.9492   -0.1158   -0.0255 C   0  0  0  0  0  0  0  0  0  0  0  0
    0.8966   -0.1379   -0.8527 C   0  0  0  0  0  0  0  0  0  0  0  0
   -0.1109    1.0030   -1.0807 C   0  0  0  0  0  0  0  0  0  0  0  0
   -1.3583    0.2233   -0.6779 C   0  0  0  0  0  0  0  0  0  0  0  0
   -1.7891    0.1667    0.7166 C   0  0  0  0  0  0  0  0  0  0  0  0
   -0.7297   -0.8447    0.2256 C   0  0  0  0  0  0  0  0  0  0  0  0
    0.8413    0.0219    2.4072 H   0  0  0  0  0  0  0  0  0  0  0  0
    2.7786   -0.8838   -0.0927 H   0  0  0  0  0  0  0  0  0  0  0  0
    2.4102    0.8592    0.3322 H   0  0  0  0  0  0  0  0  0  0  0  0
    0.7619   -0.9136   -1.6684 H   0  0  0  0  0  0  0  0  0  0  0  0
    0.1178    1.7835   -0.3317 H   0  0  0  0  0  0  0  0  0  0  0  0
   -0.1299    1.3382   -2.1117 H   0  0  0  0  0  0  0  0  0  0  0  0
   -1.9568   -0.1872   -1.5224 H   0  0  0  0  0  0  0  0  0  0  0  0
   -2.7984   -0.2044    0.9188 H   0  0  0  0  0  0  0  0  0  0  0  0
   -1.4188    0.9962    1.3752 H   0  0  0  0  0  0  0  0  0  0  0  0
   -1.0427   -1.8808    0.1215 H   0  0  0  0  0  0  0  0  0  0  0  0
  1  2  1  0
  2  3  1  0
  3  4  1  0
  4  5  1  0
  5  6  1  0
  6  7  1  0
  7  8  1  0
  4  2  1  0
  8  6  1  0
  8  2  1  0
  1  9  1  0
  3 10  1  0
  3 11  1  0
  4 12  1  0
  5 13  1  0
  5 14  1  0
  6 15  1  0
  7 16  1  0
  7 17  1  0
  8 18  1  0
M  END
