
     RDKit          3D

 19 20  0  0  0  0  0  0  0  0999 V2000
   -2.1388    1.0074    0.8630 O   0  0  0  0  0  0  0  0  0  0  0  0
   -1.0166    0.4818    0.3046 C   0  0  0  0  0  0  0  0  0  0  0  0
    0.1817    1.3590    0.2224 C   0  0  0  0  0  0  0  0  0  0  0  0
    1.4429    1.0172    0.0261 C   0  0  0  0  0  0  0  0  0  0  0  0
    1.9666   -0.3387   -0.3088 C   0  0  0  0  0  0  0  0  0  0  0  0
    1.0624   -1.1820   -0.8370 O   0  0  0  0  0  0  0  0  0  0  0  0
   -0.1639   -1.3208   -0.3542 C   0  0  0  0  0  0  0  0  0  0  0  0
   -0.5207   -0.8107    0.9742 C   0  0  0  0  0  0  0  0  0  0  0  0
   -1.1841   -0.3435   -0.9532 C   0  0  0  0  0  0  0  0  0  0  0  0
   -2.3678    1.8386    0.4148 H   0  0  0  0  0  0  0  0  0  0  0  0
   -0.0446    2.4056    0.3431 H   0  0  0  0  0  0  0  0  0  0  0  0
    2.2186    1.7769    0.1078 H   0  0  0  0  0  0  0  0  0  0  0  0
    2.7683   -0.1530   -1.0840 H   0  0  0  0  0  0  0  0  0  0  0  0
    2.5137   -0.7882    0.5503 H   0  0  0  0  0  0  0  0  0  0  0  0
   -0.5547   -2.3686   -0.5142 H   0  0  0  0  0  0  0  0  0  0  0  0
   -1.4306   -1.3213    1.3934 H   0  0  0  0  0  0  0  0  0  0  0  0
    0.2740   -0.6095    1.6952 H   0  0  0  0  0  0  0  0  0  0  0  0
   -2.1998   -0.7685   -0.9760 H   0  0  0  0  0  0  0  0  0  0  0  0
   -0.8065    0.1183   -1.8673 H   0  0  0  0  0  0  0  0  0  0  0  0
  1  2  1  0
  2  3  1  0
  3  4  2  0
  4  5  1  0
  5  6  1  0
  6  7  1  0
  7  8  1  0
  7  9  1  0
  8  2  1  0
  9  2  1  0
  1 10  1  0
  3 11  1  0
  4 12  1  0
  5 13  1  0
  5 14  1  0
  7 15  1  0
  8 16  1  0
  8 17  1  0
  9 18  1  0
  9 19  1  0
M  END
