
     RDKit          3D

 19 21  0  0  0  0  0  0  0  0999 V2000
   -2.3565   -1.1598    0.7779 O   0  0  0  0  0  0  0  0  0  0  0  0
   -1.3416   -0.2347    0.5688 C   0  0  0  0  0  0  0  0  0  0  0  0
   -1.6551    1.1792    0.7071 C   0  0  0  0  0  0  0  0  0  0  0  0
   -1.3701    0.5632   -0.6836 C   0  0  0  0  0  0  0  0  0  0  0  0
   -0.0999    0.7204   -1.1583 O   0  0  0  0  0  0  0  0  0  0  0  0
    0.7780    0.0004   -0.4078 C   0  0  0  0  0  0  0  0  0  0  0  0
    2.0976    0.5392    0.0306 C   0  0  0  0  0  0  0  0  0  0  0  0
    2.0098   -0.4766   -1.0619 C   0  0  0  0  0  0  0  0  0  0  0  0
    0.0369   -0.7955    0.6103 C   0  0  0  0  0  0  0  0  0  0  0  0
   -2.1959   -1.9143    0.1870 H   0  0  0  0  0  0  0  0  0  0  0  0
   -0.9369    1.9610    0.9999 H   0  0  0  0  0  0  0  0  0  0  0  0
   -2.7077    1.4482    0.9133 H   0  0  0  0  0  0  0  0  0  0  0  0
   -2.2292    0.5404   -1.3640 H   0  0  0  0  0  0  0  0  0  0  0  0
    2.5345    0.1306    0.9823 H   0  0  0  0  0  0  0  0  0  0  0  0
    2.3402    1.5832   -0.1586 H   0  0  0  0  0  0  0  0  0  0  0  0
    2.2377   -0.0603   -2.0765 H   0  0  0  0  0  0  0  0  0  0  0  0
    2.3711   -1.5025   -0.9326 H   0  0  0  0  0  0  0  0  0  0  0  0
    0.0279   -1.8773    0.4327 H   0  0  0  0  0  0  0  0  0  0  0  0
    0.4592   -0.6448    1.6336 H   0  0  0  0  0  0  0  0  0  0  0  0
  1  2  1  0
  2  3  1  0
  3  4  1  0
  4  5  1  0
  5  6  1  0
  6  7  1  0
  7  8  1  0
  6  9  1  0
  4  2  1  0
  8  6  1  0
  9  2  1  0
  1 10  1  0
  3 11  1  0
  3 12  1  0
  4 13  1  0
  7 14  1  0
  7 15  1  0
  8 16  1  0
  8 17  1  0
  9 18  1  0
  9 19  1  0
M  END
