
     RDKit          3D

 21 23  0  0  0  0  0  0  0  0999 V2000
   -1.6955    0.8822   -1.7292 O   0  0  0  0  0  0  0  0  0  0  0  0
   -1.0132    0.3820   -0.6092 C   0  0  0  0  0  0  0  0  0  0  0  0
   -1.7989    0.1538    0.5908 C   0  0  0  0  0  0  0  0  0  0  0  0
   -1.1783   -0.9981   -0.1564 C   0  0  0  0  0  0  0  0  0  0  0  0
    0.1398   -1.5023    0.3944 C   0  0  0  0  0  0  0  0  0  0  0  0
    1.1679   -0.5988   -0.2007 C   0  0  0  0  0  0  0  0  0  0  0  0
    1.9763    0.2280    0.7613 C   0  0  0  0  0  0  0  0  0  0  0  0
    1.0050    1.3807    0.5891 C   0  0  0  0  0  0  0  0  0  0  0  0
    0.4492    0.6670   -0.6136 C   0  0  0  0  0  0  0  0  0  0  0  0
   -2.5638    0.4603   -1.8476 H   0  0  0  0  0  0  0  0  0  0  0  0
   -1.4314    0.2983    1.6255 H   0  0  0  0  0  0  0  0  0  0  0  0
   -2.8998    0.2557    0.5158 H   0  0  0  0  0  0  0  0  0  0  0  0
   -1.8824   -1.7199   -0.6003 H   0  0  0  0  0  0  0  0  0  0  0  0
    0.3114   -2.5698    0.1961 H   0  0  0  0  0  0  0  0  0  0  0  0
    0.1868   -1.3583    1.5121 H   0  0  0  0  0  0  0  0  0  0  0  0
    1.7307   -1.0817   -1.0152 H   0  0  0  0  0  0  0  0  0  0  0  0
    2.9687    0.4642    0.3441 H   0  0  0  0  0  0  0  0  0  0  0  0
    1.9514   -0.1516    1.7932 H   0  0  0  0  0  0  0  0  0  0  0  0
    0.2538    1.4237    1.3909 H   0  0  0  0  0  0  0  0  0  0  0  0
    1.4759    2.3663    0.3940 H   0  0  0  0  0  0  0  0  0  0  0  0
    0.8464    1.0183   -1.5751 H   0  0  0  0  0  0  0  0  0  0  0  0
  1  2  1  0
  2  3  1  0
  3  4  1  0
  4  5  1  0
  5  6  1  0
  6  7  1  0
  7  8  1  0
  8  9  1  0
  4  2  1  0
  9  6  1  0
  9  2  1  0
  1 10  1  0
  3 11  1  0
  3 12  1  0
  4 13  1  0
  5 14  1  0
  5 15  1  0
  6 16  1  0
  7 17  1  0
  7 18  1  0
  8 19  1  0
  8 20  1  0
  9 21  1  0
M  END
