
     RDKit          3D

 19 21  0  0  0  0  0  0  0  0999 V2000
   -0.5988    1.6649    1.5453 O   0  0  0  0  0  0  0  0  0  0  0  0
   -0.3540    0.6340    0.7134 C   0  0  0  0  0  0  0  0  0  0  0  0
    0.7234   -0.3296    1.2118 C   0  0  0  0  0  0  0  0  0  0  0  0
    1.1843   -1.0315   -0.0743 C   0  0  0  0  0  0  0  0  0  0  0  0
    0.3804   -0.3735   -1.1813 C   0  0  0  0  0  0  0  0  0  0  0  0
    0.2908    1.0544   -0.6166 C   0  0  0  0  0  0  0  0  0  0  0  0
   -1.0565   -0.7922   -1.0585 C   0  0  0  0  0  0  0  0  0  0  0  0
   -1.3996   -1.5449    0.0494 O   0  0  0  0  0  0  0  0  0  0  0  0
   -1.5136   -0.1712    0.2688 C   0  0  0  0  0  0  0  0  0  0  0  0
   -0.1026    2.4818    1.2629 H   0  0  0  0  0  0  0  0  0  0  0  0
    1.5770    0.2276    1.6398 H   0  0  0  0  0  0  0  0  0  0  0  0
    0.2464   -1.0292    1.9104 H   0  0  0  0  0  0  0  0  0  0  0  0
    0.9002   -2.0872   -0.0195 H   0  0  0  0  0  0  0  0  0  0  0  0
    2.2418   -0.8649   -0.2755 H   0  0  0  0  0  0  0  0  0  0  0  0
    0.8145   -0.4256   -2.1567 H   0  0  0  0  0  0  0  0  0  0  0  0
    1.3180    1.4078   -0.4667 H   0  0  0  0  0  0  0  0  0  0  0  0
   -0.3545    1.6945   -1.2086 H   0  0  0  0  0  0  0  0  0  0  0  0
   -1.7489   -0.6863   -1.9078 H   0  0  0  0  0  0  0  0  0  0  0  0
   -2.5483    0.1709    0.3638 H   0  0  0  0  0  0  0  0  0  0  0  0
  1  2  1  0
  2  3  1  0
  3  4  1  0
  4  5  1  0
  5  6  1  0
  5  7  1  0
  7  8  1  0
  8  9  1  0
  6  2  1  0
  9  7  1  0
  9  2  1  0
  1 10  1  0
  3 11  1  0
  3 12  1  0
  4 13  1  0
  4 14  1  0
  5 15  1  0
  6 16  1  0
  6 17  1  0
  7 18  1  0
  9 19  1  0
M  END
