
     RDKit          3D

 21 23  0  0  0  0  0  0  0  0999 V2000
   -0.6112    2.1039    0.7829 O   0  0  0  0  0  0  0  0  0  0  0  0
   -0.3778    0.8479    0.2711 C   0  0  0  0  0  0  0  0  0  0  0  0
    0.3848    0.8784   -1.0180 C   0  0  0  0  0  0  0  0  0  0  0  0
    1.6511    0.1671   -0.6843 C   0  0  0  0  0  0  0  0  0  0  0  0
    1.3810   -0.8226    0.3768 C   0  0  0  0  0  0  0  0  0  0  0  0
    0.0945   -1.4150    0.7036 C   0  0  0  0  0  0  0  0  0  0  0  0
   -1.1171   -1.3336   -0.1571 C   0  0  0  0  0  0  0  0  0  0  0  0
   -1.6727    0.0908   -0.0071 C   0  0  0  0  0  0  0  0  0  0  0  0
    0.3223   -0.0723    1.2096 C   0  0  0  0  0  0  0  0  0  0  0  0
   -0.6078    2.7997    0.0692 H   0  0  0  0  0  0  0  0  0  0  0  0
    0.5362    1.9127   -1.4054 H   0  0  0  0  0  0  0  0  0  0  0  0
   -0.1122    0.3218   -1.8427 H   0  0  0  0  0  0  0  0  0  0  0  0
    2.3549    0.9394   -0.2510 H   0  0  0  0  0  0  0  0  0  0  0  0
    2.1851   -0.2312   -1.5703 H   0  0  0  0  0  0  0  0  0  0  0  0
    2.2710   -1.1652    0.9395 H   0  0  0  0  0  0  0  0  0  0  0  0
    0.0976   -2.2576    1.4200 H   0  0  0  0  0  0  0  0  0  0  0  0
   -0.9583   -1.5875   -1.2101 H   0  0  0  0  0  0  0  0  0  0  0  0
   -1.9258   -1.9942    0.2194 H   0  0  0  0  0  0  0  0  0  0  0  0
   -2.3457    0.1639    0.8577 H   0  0  0  0  0  0  0  0  0  0  0  0
   -2.1205    0.4563   -0.9364 H   0  0  0  0  0  0  0  0  0  0  0  0
    0.5707    0.1972    2.2327 H   0  0  0  0  0  0  0  0  0  0  0  0
  1  2  1  0
  2  3  1  0
  3  4  1  0
  4  5  1  0
  5  6  1  0
  6  7  1  0
  7  8  1  0
  6  9  1  0
  8  2  1  0
  9  2  1  0
  9  5  1  0
  1 10  1  0
  3 11  1  0
  3 12  1  0
  4 13  1  0
  4 14  1  0
  5 15  1  0
  6 16  1  0
  7 17  1  0
  7 18  1  0
  8 19  1  0
  8 20  1  0
  9 21  1  0
M  END
