
     RDKit          3D

 17 19  0  0  0  0  0  0  0  0999 V2000
    0.7238    1.5399   -0.0672 O   0  0  0  0  0  0  0  0  0  0  0  0
    0.3937    0.2061   -0.3485 C   0  0  0  0  0  0  0  0  0  0  0  0
   -0.9461    0.0493   -0.9659 C   0  0  0  0  0  0  0  0  0  0  0  0
   -1.8440    0.2110    0.3129 C   0  0  0  0  0  0  0  0  0  0  0  0
   -0.9651   -0.5188    1.2962 C   0  0  0  0  0  0  0  0  0  0  0  0
    0.2900   -0.5449    0.9563 C   0  0  0  0  0  0  0  0  0  0  0  0
    1.7826   -0.7281    0.7938 C   0  0  0  0  0  0  0  0  0  0  0  0
    2.0481   -1.7137   -0.1357 O   0  0  0  0  0  0  0  0  0  0  0  0
    1.5793   -0.5534   -0.7333 C   0  0  0  0  0  0  0  0  0  0  0  0
    0.4188    2.1613   -0.7482 H   0  0  0  0  0  0  0  0  0  0  0  0
   -1.1539    0.8848   -1.6334 H   0  0  0  0  0  0  0  0  0  0  0  0
   -1.1377   -0.9066   -1.4528 H   0  0  0  0  0  0  0  0  0  0  0  0
   -2.7654   -0.3420    0.1172 H   0  0  0  0  0  0  0  0  0  0  0  0
   -1.9276    1.2766    0.5054 H   0  0  0  0  0  0  0  0  0  0  0  0
   -1.3993   -0.9692    2.2023 H   0  0  0  0  0  0  0  0  0  0  0  0
    2.4865   -0.0283    1.1907 H   0  0  0  0  0  0  0  0  0  0  0  0
    2.4163   -0.0241   -1.2896 H   0  0  0  0  0  0  0  0  0  0  0  0
  1  2  1  0
  2  3  1  0
  3  4  1  0
  4  5  1  0
  5  6  2  0
  6  7  1  0
  7  8  1  0
  8  9  1  0
  6  2  1  0
  9  7  1  0
  9  2  1  0
  1 10  1  0
  3 11  1  0
  3 12  1  0
  4 13  1  0
  4 14  1  0
  5 15  1  0
  7 16  1  0
  9 17  1  0
M  END
