
     RDKit          3D

 19 21  0  0  0  0  0  0  0  0999 V2000
    1.5388   -1.3915    1.4595 O   0  0  0  0  0  0  0  0  0  0  0  0
    0.7785   -0.6760    0.5035 C   0  0  0  0  0  0  0  0  0  0  0  0
    1.5325   -0.4777   -0.7958 C   0  0  0  0  0  0  0  0  0  0  0  0
    1.2845    0.6385    0.1565 C   0  0  0  0  0  0  0  0  0  0  0  0
    0.3186    1.6990   -0.1373 C   0  0  0  0  0  0  0  0  0  0  0  0
   -0.9933    1.5254   -0.1018 C   0  0  0  0  0  0  0  0  0  0  0  0
   -1.5571    0.2260    0.2430 C   0  0  0  0  0  0  0  0  0  0  0  0
   -1.4838   -0.9196   -0.7689 C   0  0  0  0  0  0  0  0  0  0  0  0
   -0.6830   -0.8964    0.4868 C   0  0  0  0  0  0  0  0  0  0  0  0
    1.4762   -0.8304    2.2882 H   0  0  0  0  0  0  0  0  0  0  0  0
    0.9840   -0.4122   -1.7505 H   0  0  0  0  0  0  0  0  0  0  0  0
    2.5435   -0.8975   -0.9082 H   0  0  0  0  0  0  0  0  0  0  0  0
    2.2308    1.0024    0.6611 H   0  0  0  0  0  0  0  0  0  0  0  0
    0.6873    2.6809   -0.3985 H   0  0  0  0  0  0  0  0  0  0  0  0
   -1.6817    2.3659   -0.3341 H   0  0  0  0  0  0  0  0  0  0  0  0
   -2.5615    0.2586    0.7582 H   0  0  0  0  0  0  0  0  0  0  0  0
   -1.0394   -0.6406   -1.7496 H   0  0  0  0  0  0  0  0  0  0  0  0
   -2.3286   -1.6074   -0.8653 H   0  0  0  0  0  0  0  0  0  0  0  0
   -1.0466   -1.6475    1.2531 H   0  0  0  0  0  0  0  0  0  0  0  0
  1  2  1  0
  2  3  1  0
  3  4  1  0
  4  5  1  0
  5  6  2  0
  6  7  1  0
  7  8  1  0
  8  9  1  0
  4  2  1  0
  9  7  1  0
  9  2  1  0
  1 10  1  0
  3 11  1  0
  3 12  1  0
  4 13  1  0
  5 14  1  0
  6 15  1  0
  7 16  1  0
  8 17  1  0
  8 18  1  0
  9 19  1  0
M  END
