
     RDKit          3D

 19 21  0  0  0  0  0  0  0  0999 V2000
    2.2155    0.2976    0.6542 O   0  0  0  0  0  0  0  0  0  0  0  0
    0.9379    0.0832    0.2853 C   0  0  0  0  0  0  0  0  0  0  0  0
    0.7373   -0.5708   -1.0561 C   0  0  0  0  0  0  0  0  0  0  0  0
   -0.7795   -0.3799   -1.2202 C   0  0  0  0  0  0  0  0  0  0  0  0
   -1.4152   -1.3617   -0.4472 O   0  0  0  0  0  0  0  0  0  0  0  0
   -1.3176   -0.4682    0.6443 C   0  0  0  0  0  0  0  0  0  0  0  0
    0.0514   -0.5518    1.3314 C   0  0  0  0  0  0  0  0  0  0  0  0
   -1.1791    0.6981   -0.2650 C   0  0  0  0  0  0  0  0  0  0  0  0
    0.1371    1.3792    0.0487 C   0  0  0  0  0  0  0  0  0  0  0  0
    2.7646   -0.4872    0.4480 H   0  0  0  0  0  0  0  0  0  0  0  0
    1.2839    0.0094   -1.8270 H   0  0  0  0  0  0  0  0  0  0  0  0
    0.9429   -1.6392   -1.0738 H   0  0  0  0  0  0  0  0  0  0  0  0
   -1.1222   -0.2933   -2.2490 H   0  0  0  0  0  0  0  0  0  0  0  0
   -2.1673   -0.4741    1.3243 H   0  0  0  0  0  0  0  0  0  0  0  0
   -0.0192    0.1300    2.2076 H   0  0  0  0  0  0  0  0  0  0  0  0
    0.3185   -1.5742    1.5846 H   0  0  0  0  0  0  0  0  0  0  0  0
   -2.0235    1.3152   -0.4867 H   0  0  0  0  0  0  0  0  0  0  0  0
    0.1076    2.0005    0.9447 H   0  0  0  0  0  0  0  0  0  0  0  0
    0.5270    1.8874   -0.8479 H   0  0  0  0  0  0  0  0  0  0  0  0
  1  2  1  0
  2  3  1  0
  3  4  1  0
  4  5  1  0
  5  6  1  0
  6  7  1  0
  6  8  1  0
  8  9  1  0
  7  2  1  0
  9  2  1  0
  8  4  1  0
  1 10  1  0
  3 11  1  0
  3 12  1  0
  4 13  1  0
  6 14  1  0
  7 15  1  0
  7 16  1  0
  8 17  1  0
  9 18  1  0
  9 19  1  0
M  END
