
     RDKit          3D

 19 21  0  0  0  0  0  0  0  0999 V2000
    2.3291    1.3444   -0.3281 O   0  0  0  0  0  0  0  0  0  0  0  0
    1.4327    0.3671    0.1355 C   0  0  0  0  0  0  0  0  0  0  0  0
    2.1085   -0.8191    0.7492 C   0  0  0  0  0  0  0  0  0  0  0  0
    1.3198   -1.7212    0.0319 O   0  0  0  0  0  0  0  0  0  0  0  0
    1.0768   -0.6979   -0.8742 C   0  0  0  0  0  0  0  0  0  0  0  0
    0.0834    0.3364   -0.4196 C   0  0  0  0  0  0  0  0  0  0  0  0
   -1.1015   -0.2225    0.2917 C   0  0  0  0  0  0  0  0  0  0  0  0
   -2.4140   -0.1277   -0.5294 C   0  0  0  0  0  0  0  0  0  0  0  0
   -2.2250    0.6009    0.7516 C   0  0  0  0  0  0  0  0  0  0  0  0
    2.0476    2.2524   -0.1182 H   0  0  0  0  0  0  0  0  0  0  0  0
    3.1747   -0.9514    0.3990 H   0  0  0  0  0  0  0  0  0  0  0  0
    2.0900   -0.9098    1.8342 H   0  0  0  0  0  0  0  0  0  0  0  0
    1.5040   -0.6927   -1.8680 H   0  0  0  0  0  0  0  0  0  0  0  0
   -0.1266    1.1042   -1.2212 H   0  0  0  0  0  0  0  0  0  0  0  0
   -0.9515   -1.1871    0.8217 H   0  0  0  0  0  0  0  0  0  0  0  0
   -3.0260   -1.0467   -0.5528 H   0  0  0  0  0  0  0  0  0  0  0  0
   -2.3938    0.4329   -1.4606 H   0  0  0  0  0  0  0  0  0  0  0  0
   -2.0895    1.6997    0.7620 H   0  0  0  0  0  0  0  0  0  0  0  0
   -2.8387    0.2380    1.5952 H   0  0  0  0  0  0  0  0  0  0  0  0
  1  2  1  0
  2  3  1  0
  3  4  1  0
  4  5  1  0
  5  6  1  0
  6  7  1  0
  7  8  1  0
  8  9  1  0
  5  2  1  0
  9  7  1  0
  6  2  1  0
  1 10  1  0
  3 11  1  0
  3 12  1  0
  5 13  1  0
  6 14  1  0
  7 15  1  0
  8 16  1  0
  8 17  1  0
  9 18  1  0
  9 19  1  0
M  END
