
     RDKit          3D

 19 20  0  0  0  0  0  0  0  0999 V2000
   -2.4327    0.6279    0.6598 O   0  0  0  0  0  0  0  0  0  0  0  0
   -1.1484    0.1978    0.2231 C   0  0  0  0  0  0  0  0  0  0  0  0
   -0.5126    1.1266   -0.7004 C   0  0  0  0  0  0  0  0  0  0  0  0
    0.9334    1.4093   -0.5000 C   0  0  0  0  0  0  0  0  0  0  0  0
    1.8607    0.5599   -0.1314 C   0  0  0  0  0  0  0  0  0  0  0  0
    1.7062   -0.8784    0.1757 C   0  0  0  0  0  0  0  0  0  0  0  0
    0.8049   -0.9456    1.1827 O   0  0  0  0  0  0  0  0  0  0  0  0
   -0.5118   -0.8424    0.9436 C   0  0  0  0  0  0  0  0  0  0  0  0
   -1.1730   -1.2725   -0.3133 C   0  0  0  0  0  0  0  0  0  0  0  0
   -2.3471    1.0430    1.5673 H   0  0  0  0  0  0  0  0  0  0  0  0
   -1.0180    2.1158   -0.7441 H   0  0  0  0  0  0  0  0  0  0  0  0
   -0.5775    0.7544   -1.7701 H   0  0  0  0  0  0  0  0  0  0  0  0
    1.2959    2.4308   -0.6713 H   0  0  0  0  0  0  0  0  0  0  0  0
    2.8543    0.9331   -0.0357 H   0  0  0  0  0  0  0  0  0  0  0  0
    1.4313   -1.4339   -0.7414 H   0  0  0  0  0  0  0  0  0  0  0  0
    2.6754   -1.3275    0.5141 H   0  0  0  0  0  0  0  0  0  0  0  0
   -1.0762   -1.2220    1.8628 H   0  0  0  0  0  0  0  0  0  0  0  0
   -0.6089   -1.4881   -1.2288 H   0  0  0  0  0  0  0  0  0  0  0  0
   -2.1558   -1.7883   -0.2928 H   0  0  0  0  0  0  0  0  0  0  0  0
  1  2  1  0
  2  3  1  0
  3  4  1  0
  4  5  2  0
  5  6  1  0
  6  7  1  0
  7  8  1  0
  8  9  1  0
  8  2  1  0
  9  2  1  0
  1 10  1  0
  3 11  1  0
  3 12  1  0
  4 13  1  0
  5 14  1  0
  6 15  1  0
  6 16  1  0
  8 17  1  0
  9 18  1  0
  9 19  1  0
M  END
