
     RDKit          3D

 16 17  0  0  0  0  0  0  0  0999 V2000
    0.3562    1.0974   -1.6442 O   0  0  0  0  0  0  0  0  0  0  0  0
    0.1442    0.4164   -0.5290 C   0  0  0  0  0  0  0  0  0  0  0  0
   -0.6945    1.0840    0.5496 C   0  0  0  0  0  0  0  0  0  0  0  0
   -1.0870    0.0434    1.3633 O   0  0  0  0  0  0  0  0  0  0  0  0
   -0.6022   -1.1438    0.8452 C   0  0  0  0  0  0  0  0  0  0  0  0
   -0.7084   -0.8559   -0.6669 C   0  0  0  0  0  0  0  0  0  0  0  0
    0.7760   -1.1715    1.0016 O   0  0  0  0  0  0  0  0  0  0  0  0
    1.3252   -0.1953    0.1753 C   0  0  0  0  0  0  0  0  0  0  0  0
    1.2089    1.5872   -1.6156 H   0  0  0  0  0  0  0  0  0  0  0  0
   -0.0004    1.7579    1.1277 H   0  0  0  0  0  0  0  0  0  0  0  0
   -1.5329    1.6640    0.1227 H   0  0  0  0  0  0  0  0  0  0  0  0
   -1.1119   -2.0352    1.1405 H   0  0  0  0  0  0  0  0  0  0  0  0
   -1.7477   -0.6342   -0.8884 H   0  0  0  0  0  0  0  0  0  0  0  0
   -0.2245   -1.6190   -1.2636 H   0  0  0  0  0  0  0  0  0  0  0  0
    1.8076    0.5881    0.7904 H   0  0  0  0  0  0  0  0  0  0  0  0
    2.0914   -0.5835   -0.5084 H   0  0  0  0  0  0  0  0  0  0  0  0
  1  2  1  0
  2  3  1  0
  3  4  1  0
  4  5  1  0
  5  6  1  0
  5  7  1  0
  7  8  1  0
  6  2  1  0
  8  2  1  0
  1  9  1  0
  3 10  1  0
  3 11  1  0
  5 12  1  0
  6 13  1  0
  6 14  1  0
  8 15  1  0
  8 16  1  0
M  END
