
     RDKit          3D

 17 19  0  0  0  0  0  0  0  0999 V2000
    2.3416    0.3270   -0.7087 O   0  0  0  0  0  0  0  0  0  0  0  0
    1.0475    0.1664   -0.2798 C   0  0  0  0  0  0  0  0  0  0  0  0
    0.3554   -1.1502   -0.3115 C   0  0  0  0  0  0  0  0  0  0  0  0
   -0.8576   -0.8699    0.5813 C   0  0  0  0  0  0  0  0  0  0  0  0
   -1.7421    0.0718   -0.1870 C   0  0  0  0  0  0  0  0  0  0  0  0
   -1.1109    1.2413   -0.4696 O   0  0  0  0  0  0  0  0  0  0  0  0
    0.1916    1.3486   -0.1357 C   0  0  0  0  0  0  0  0  0  0  0  0
    0.6452    0.6987    1.0994 C   0  0  0  0  0  0  0  0  0  0  0  0
   -0.2728   -0.1743    1.6166 O   0  0  0  0  0  0  0  0  0  0  0  0
    2.3252    0.2279   -1.7130 H   0  0  0  0  0  0  0  0  0  0  0  0
    0.9726   -1.8902    0.2733 H   0  0  0  0  0  0  0  0  0  0  0  0
    0.0676   -1.5134   -1.2947 H   0  0  0  0  0  0  0  0  0  0  0  0
   -1.3441   -1.7835    0.9033 H   0  0  0  0  0  0  0  0  0  0  0  0
   -2.0945   -0.3846   -1.1533 H   0  0  0  0  0  0  0  0  0  0  0  0
   -2.6436    0.2826    0.4295 H   0  0  0  0  0  0  0  0  0  0  0  0
    0.6639    2.3233   -0.3750 H   0  0  0  0  0  0  0  0  0  0  0  0
    1.4550    1.0785    1.7247 H   0  0  0  0  0  0  0  0  0  0  0  0
  1  2  1  0
  2  3  1  0
  3  4  1  0
  4  5  1  0
  5  6  1  0
  6  7  1  0
  7  8  1  0
  8  9  1  0
  7  2  1  0
  8  2  1  0
  9  4  1  0
  1 10  1  0
  3 11  1  0
  3 12  1  0
  4 13  1  0
  5 14  1  0
  5 15  1  0
  7 16  1  0
  8 17  1  0
M  END
