
     RDKit          3D

 19 21  0  0  0  0  0  0  0  0999 V2000
   -2.4593   -1.0483    0.9680 O   0  0  0  0  0  0  0  0  0  0  0  0
   -1.5749   -0.3820    0.1225 C   0  0  0  0  0  0  0  0  0  0  0  0
   -1.0296   -1.0656   -1.0562 C   0  0  0  0  0  0  0  0  0  0  0  0
    0.2514   -0.8427   -1.1934 C   0  0  0  0  0  0  0  0  0  0  0  0
    0.7275    0.0123   -0.1335 C   0  0  0  0  0  0  0  0  0  0  0  0
    2.1075   -0.2315    0.3511 C   0  0  0  0  0  0  0  0  0  0  0  0
    1.7144    1.0825   -0.2628 C   0  0  0  0  0  0  0  0  0  0  0  0
   -0.4146    0.2369    0.7739 C   0  0  0  0  0  0  0  0  0  0  0  0
   -1.5294    1.1023    0.1430 C   0  0  0  0  0  0  0  0  0  0  0  0
   -2.0052   -1.6501    1.5988 H   0  0  0  0  0  0  0  0  0  0  0  0
   -1.6741   -1.6769   -1.7054 H   0  0  0  0  0  0  0  0  0  0  0  0
    0.8456   -1.2626   -2.0098 H   0  0  0  0  0  0  0  0  0  0  0  0
    2.7899   -0.8341   -0.2506 H   0  0  0  0  0  0  0  0  0  0  0  0
    2.2023   -0.3195    1.4568 H   0  0  0  0  0  0  0  0  0  0  0  0
    1.6563    1.9125    0.4658 H   0  0  0  0  0  0  0  0  0  0  0  0
    2.1710    1.3757   -1.2406 H   0  0  0  0  0  0  0  0  0  0  0  0
   -0.3094    0.2946    1.8684 H   0  0  0  0  0  0  0  0  0  0  0  0
   -2.1721    1.6439    0.8843 H   0  0  0  0  0  0  0  0  0  0  0  0
   -1.2976    1.6525   -0.7804 H   0  0  0  0  0  0  0  0  0  0  0  0
  1  2  1  0
  2  3  1  0
  3  4  2  0
  4  5  1  0
  5  6  1  0
  6  7  1  0
  5  8  1  0
  8  9  1  0
  8  2  1  0
  9  2  1  0
  7  5  1  0
  1 10  1  0
  3 11  1  0
  4 12  1  0
  6 13  1  0
  6 14  1  0
  7 15  1  0
  7 16  1  0
  8 17  1  0
  9 18  1  0
  9 19  1  0
M  END
