
     RDKit          3D

 18 20  0  0  0  0  0  0  0  0999 V2000
    1.4224    1.0701   -1.4734 O   0  0  0  0  0  0  0  0  0  0  0  0
    0.5130    0.5314   -0.6675 C   0  0  0  0  0  0  0  0  0  0  0  0
    0.2508   -0.9208   -0.4773 C   0  0  0  0  0  0  0  0  0  0  0  0
   -1.1875   -1.0353   -0.0165 C   0  0  0  0  0  0  0  0  0  0  0  0
   -1.7004    0.3726   -0.0781 C   0  0  0  0  0  0  0  0  0  0  0  0
   -0.4636    1.1871    0.1909 C   0  0  0  0  0  0  0  0  0  0  0  0
    0.7146    0.6195    0.8653 C   0  0  0  0  0  0  0  0  0  0  0  0
    1.1347   -0.7986    0.7728 C   0  0  0  0  0  0  0  0  0  0  0  0
    2.3098    1.2515   -1.0647 H   0  0  0  0  0  0  0  0  0  0  0  0
    0.5894   -1.6237   -1.2218 H   0  0  0  0  0  0  0  0  0  0  0  0
   -1.7719   -1.7292   -0.6681 H   0  0  0  0  0  0  0  0  0  0  0  0
   -1.2617   -1.3605    1.0522 H   0  0  0  0  0  0  0  0  0  0  0  0
   -2.0563    0.6056   -1.1173 H   0  0  0  0  0  0  0  0  0  0  0  0
   -2.5214    0.5799    0.6217 H   0  0  0  0  0  0  0  0  0  0  0  0
   -0.5641    2.2665    0.1347 H   0  0  0  0  0  0  0  0  0  0  0  0
    1.5061    1.3384    1.1450 H   0  0  0  0  0  0  0  0  0  0  0  0
    0.8835   -1.4809    1.5804 H   0  0  0  0  0  0  0  0  0  0  0  0
    2.2024   -0.8735    0.4218 H   0  0  0  0  0  0  0  0  0  0  0  0
  1  2  1  0
  2  3  1  0
  3  4  1  0
  4  5  1  0
  5  6  1  0
  6  7  1  0
  7  8  1  0
  6  2  1  0
  7  2  1  0
  8  3  1  0
  1  9  1  0
  3 10  1  0
  4 11  1  0
  4 12  1  0
  5 13  1  0
  5 14  1  0
  6 15  1  0
  7 16  1  0
  8 17  1  0
  8 18  1  0
M  END
