
     RDKit          3D

 19 21  0  0  0  0  0  0  0  0999 V2000
    2.2027   -0.7877    0.7137 O   0  0  0  0  0  0  0  0  0  0  0  0
    0.9762   -0.4491    0.2233 C   0  0  0  0  0  0  0  0  0  0  0  0
    0.1834    0.6984    0.7161 C   0  0  0  0  0  0  0  0  0  0  0  0
   -1.2501    0.3641    0.9421 C   0  0  0  0  0  0  0  0  0  0  0  0
   -1.7633   -0.8022    0.1913 C   0  0  0  0  0  0  0  0  0  0  0  0
   -1.0292   -1.3501   -0.7721 O   0  0  0  0  0  0  0  0  0  0  0  0
    0.2951   -1.1474   -0.8647 C   0  0  0  0  0  0  0  0  0  0  0  0
    0.9134    0.1603   -1.2069 C   0  0  0  0  0  0  0  0  0  0  0  0
    0.4554    1.4352   -0.5771 C   0  0  0  0  0  0  0  0  0  0  0  0
    2.8702   -1.0318    0.0203 H   0  0  0  0  0  0  0  0  0  0  0  0
    0.6625    1.2111    1.5861 H   0  0  0  0  0  0  0  0  0  0  0  0
   -1.3821    0.2477    2.0591 H   0  0  0  0  0  0  0  0  0  0  0  0
   -1.8370    1.3057    0.7188 H   0  0  0  0  0  0  0  0  0  0  0  0
   -2.7758   -0.5179   -0.2271 H   0  0  0  0  0  0  0  0  0  0  0  0
   -2.0260   -1.6041    0.9460 H   0  0  0  0  0  0  0  0  0  0  0  0
    0.8706   -2.0317   -1.2686 H   0  0  0  0  0  0  0  0  0  0  0  0
    1.8478    0.2058   -1.7670 H   0  0  0  0  0  0  0  0  0  0  0  0
   -0.4583    1.8877   -0.9766 H   0  0  0  0  0  0  0  0  0  0  0  0
    1.2446    2.2059   -0.4567 H   0  0  0  0  0  0  0  0  0  0  0  0
  1  2  1  0
  2  3  1  0
  3  4  1  0
  4  5  1  0
  5  6  1  0
  6  7  1  0
  7  8  1  0
  8  9  1  0
  7  2  1  0
  8  2  1  0
  9  3  1  0
  1 10  1  0
  3 11  1  0
  4 12  1  0
  4 13  1  0
  5 14  1  0
  5 15  1  0
  7 16  1  0
  8 17  1  0
  9 18  1  0
  9 19  1  0
M  END
