
     RDKit          3D

 17 20  0  0  0  0  0  0  0  0999 V2000
   -1.6523    1.5460   -0.1999 O   0  0  0  0  0  0  0  0  0  0  0  0
   -0.9061    0.4078   -0.4028 C   0  0  0  0  0  0  0  0  0  0  0  0
   -1.4658   -0.9453   -0.2598 C   0  0  0  0  0  0  0  0  0  0  0  0
   -0.7116   -0.4236    0.9111 C   0  0  0  0  0  0  0  0  0  0  0  0
    0.7736   -0.5079    0.9424 C   0  0  0  0  0  0  0  0  0  0  0  0
    1.2122   -0.7725   -0.4451 C   0  0  0  0  0  0  0  0  0  0  0  0
    2.3356    0.0008   -0.1798 O   0  0  0  0  0  0  0  0  0  0  0  0
    1.3325    0.7745    0.3820 C   0  0  0  0  0  0  0  0  0  0  0  0
    0.5317    0.5070   -0.8269 C   0  0  0  0  0  0  0  0  0  0  0  0
   -1.2467    2.3392   -0.5904 H   0  0  0  0  0  0  0  0  0  0  0  0
   -2.5625   -1.0269   -0.1794 H   0  0  0  0  0  0  0  0  0  0  0  0
   -1.0176   -1.7584   -0.8659 H   0  0  0  0  0  0  0  0  0  0  0  0
   -1.3085   -0.1394    1.7757 H   0  0  0  0  0  0  0  0  0  0  0  0
    1.2720   -0.9647    1.7745 H   0  0  0  0  0  0  0  0  0  0  0  0
    1.1931   -1.6411   -0.9605 H   0  0  0  0  0  0  0  0  0  0  0  0
    1.4515    1.6368    0.8920 H   0  0  0  0  0  0  0  0  0  0  0  0
    0.7687    0.9677   -1.7672 H   0  0  0  0  0  0  0  0  0  0  0  0
  1  2  1  0
  2  3  1  0
  3  4  1  0
  4  5  1  0
  5  6  1  0
  6  7  1  0
  7  8  1  0
  8  9  1  0
  4  2  1  0
  8  5  1  0
  9  2  1  0
  9  6  1  0
  1 10  1  0
  3 11  1  0
  3 12  1  0
  4 13  1  0
  5 14  1  0
  6 15  1  0
  8 16  1  0
  9 17  1  0
M  END
