
     RDKit          3D

 17 19  0  0  0  0  0  0  0  0999 V2000
    2.0082    1.1691   -0.7096 O   0  0  0  0  0  0  0  0  0  0  0  0
    0.9785    0.3907   -0.2868 C   0  0  0  0  0  0  0  0  0  0  0  0
    0.1780    0.6865    0.9292 C   0  0  0  0  0  0  0  0  0  0  0  0
   -1.2867    0.7605    0.5134 C   0  0  0  0  0  0  0  0  0  0  0  0
   -1.6691   -0.4735   -0.2209 C   0  0  0  0  0  0  0  0  0  0  0  0
   -0.8464   -0.8651   -1.2213 O   0  0  0  0  0  0  0  0  0  0  0  0
    0.4997   -0.8128   -0.9684 C   0  0  0  0  0  0  0  0  0  0  0  0
    1.1084   -0.9174    0.3482 C   0  0  0  0  0  0  0  0  0  0  0  0
    0.4263   -0.5586    1.4877 O   0  0  0  0  0  0  0  0  0  0  0  0
    2.7530    0.6943   -1.1448 H   0  0  0  0  0  0  0  0  0  0  0  0
    0.5419    1.5599    1.4715 H   0  0  0  0  0  0  0  0  0  0  0  0
   -1.9341    0.8162    1.4353 H   0  0  0  0  0  0  0  0  0  0  0  0
   -1.4306    1.6762   -0.0944 H   0  0  0  0  0  0  0  0  0  0  0  0
   -2.6859   -0.2808   -0.6770 H   0  0  0  0  0  0  0  0  0  0  0  0
   -1.8669   -1.2772    0.5387 H   0  0  0  0  0  0  0  0  0  0  0  0
    1.1199   -1.1591   -1.8349 H   0  0  0  0  0  0  0  0  0  0  0  0
    2.1058   -1.4089    0.4342 H   0  0  0  0  0  0  0  0  0  0  0  0
  1  2  1  0
  2  3  1  0
  3  4  1  0
  4  5  1  0
  5  6  1  0
  6  7  1  0
  7  8  1  0
  8  9  1  0
  7  2  1  0
  8  2  1  0
  9  3  1  0
  1 10  1  0
  3 11  1  0
  4 12  1  0
  4 13  1  0
  5 14  1  0
  5 15  1  0
  7 16  1  0
  8 17  1  0
M  END
