
     RDKit          3D

 17 19  0  0  0  0  0  0  0  0999 V2000
   -1.9009    1.0270   -1.0250 O   0  0  0  0  0  0  0  0  0  0  0  0
   -0.8424    0.4402   -0.4190 C   0  0  0  0  0  0  0  0  0  0  0  0
    0.2645    1.2099    0.2252 C   0  0  0  0  0  0  0  0  0  0  0  0
    1.6125    0.6280    0.0484 C   0  0  0  0  0  0  0  0  0  0  0  0
    1.6917   -0.6560   -0.3399 O   0  0  0  0  0  0  0  0  0  0  0  0
    0.6919   -1.5106   -0.0886 C   0  0  0  0  0  0  0  0  0  0  0  0
   -0.6999   -0.9834   -0.1624 C   0  0  0  0  0  0  0  0  0  0  0  0
   -1.1100   -0.0952    0.9959 C   0  0  0  0  0  0  0  0  0  0  0  0
   -0.2501    0.8452    1.4925 O   0  0  0  0  0  0  0  0  0  0  0  0
   -1.9376    0.8653   -2.0072 H   0  0  0  0  0  0  0  0  0  0  0  0
    0.2449    2.3037    0.0478 H   0  0  0  0  0  0  0  0  0  0  0  0
    2.1604    1.2600   -0.7128 H   0  0  0  0  0  0  0  0  0  0  0  0
    2.1903    0.8078    1.0018 H   0  0  0  0  0  0  0  0  0  0  0  0
    0.7961   -2.0166    0.9157 H   0  0  0  0  0  0  0  0  0  0  0  0
    0.7509   -2.3646   -0.8281 H   0  0  0  0  0  0  0  0  0  0  0  0
   -1.5121   -1.6485   -0.5025 H   0  0  0  0  0  0  0  0  0  0  0  0
   -2.1500   -0.1121    1.3582 H   0  0  0  0  0  0  0  0  0  0  0  0
  1  2  1  0
  2  3  1  0
  3  4  1  0
  4  5  1  0
  5  6  1  0
  6  7  1  0
  7  8  1  0
  8  9  1  0
  7  2  1  0
  8  2  1  0
  9  3  1  0
  1 10  1  0
  3 11  1  0
  4 12  1  0
  4 13  1  0
  6 14  1  0
  6 15  1  0
  7 16  1  0
  8 17  1  0
M  END
