
     RDKit          3D

 16 17  0  0  0  0  0  0  0  0999 V2000
    0.3920    1.6458    0.9624 O   0  0  0  0  0  0  0  0  0  0  0  0
   -0.2995    0.3977    0.8290 C   0  0  0  0  0  0  0  0  0  0  0  0
    0.6401   -0.6261    1.1860 C   0  0  0  0  0  0  0  0  0  0  0  0
    1.4317   -0.8183    0.1367 C   0  0  0  0  0  0  0  0  0  0  0  0
    0.9362    0.1523   -0.9411 C   0  0  0  0  0  0  0  0  0  0  0  0
   -0.5147   -0.0980   -0.6420 C   0  0  0  0  0  0  0  0  0  0  0  0
   -0.7055   -1.5012   -0.8128 O   0  0  0  0  0  0  0  0  0  0  0  0
   -1.5027    0.5060    0.1302 C   0  0  0  0  0  0  0  0  0  0  0  0
    0.0644    2.3221    0.3549 H   0  0  0  0  0  0  0  0  0  0  0  0
    0.7316   -1.1717    2.1187 H   0  0  0  0  0  0  0  0  0  0  0  0
    2.2609   -1.5019    0.0217 H   0  0  0  0  0  0  0  0  0  0  0  0
    1.1982   -0.1982   -1.9440 H   0  0  0  0  0  0  0  0  0  0  0  0
    1.2940    1.1610   -0.7813 H   0  0  0  0  0  0  0  0  0  0  0  0
   -1.6492   -1.6923   -0.9547 H   0  0  0  0  0  0  0  0  0  0  0  0
   -1.8975    1.5093   -0.1868 H   0  0  0  0  0  0  0  0  0  0  0  0
   -2.3800   -0.0864    0.5232 H   0  0  0  0  0  0  0  0  0  0  0  0
  1  2  1  0
  2  3  1  0
  3  4  2  0
  4  5  1  0
  5  6  1  0
  6  7  1  0
  6  8  1  0
  6  2  1  0
  8  2  1  0
  1  9  1  0
  3 10  1  0
  4 11  1  0
  5 12  1  0
  5 13  1  0
  7 14  1  0
  8 15  1  0
  8 16  1  0
M  END
