
     RDKit          3D

 17 19  0  0  0  0  0  0  0  0999 V2000
   -0.9756    1.7232   -0.9651 O   0  0  0  0  0  0  0  0  0  0  0  0
   -0.9023    0.6651   -0.1009 C   0  0  0  0  0  0  0  0  0  0  0  0
   -2.0916   -0.1378    0.2774 C   0  0  0  0  0  0  0  0  0  0  0  0
   -0.9951   -0.7430   -0.5206 C   0  0  0  0  0  0  0  0  0  0  0  0
    0.3516   -1.0123    0.0668 C   0  0  0  0  0  0  0  0  0  0  0  0
    1.3517   -0.9610   -0.9218 O   0  0  0  0  0  0  0  0  0  0  0  0
    2.2822   -0.1068   -0.3126 C   0  0  0  0  0  0  0  0  0  0  0  0
    1.5142    0.9433    0.1898 O   0  0  0  0  0  0  0  0  0  0  0  0
    0.3547    0.3862    0.6823 C   0  0  0  0  0  0  0  0  0  0  0  0
   -0.9526    2.5611   -0.4036 H   0  0  0  0  0  0  0  0  0  0  0  0
   -3.0358    0.0242   -0.2654 H   0  0  0  0  0  0  0  0  0  0  0  0
   -2.1722   -0.3448    1.3778 H   0  0  0  0  0  0  0  0  0  0  0  0
   -1.1789   -1.0675   -1.5472 H   0  0  0  0  0  0  0  0  0  0  0  0
    0.4437   -1.8345    0.7726 H   0  0  0  0  0  0  0  0  0  0  0  0
    2.7704   -0.6999    0.4793 H   0  0  0  0  0  0  0  0  0  0  0  0
    3.0052    0.2116   -1.0758 H   0  0  0  0  0  0  0  0  0  0  0  0
    0.2305    0.3929    1.7810 H   0  0  0  0  0  0  0  0  0  0  0  0
  1  2  1  0
  2  3  1  0
  3  4  1  0
  4  5  1  0
  5  6  1  0
  6  7  1  0
  7  8  1  0
  8  9  1  0
  4  2  1  0
  9  5  1  0
  9  2  1  0
  1 10  1  0
  3 11  1  0
  3 12  1  0
  4 13  1  0
  5 14  1  0
  7 15  1  0
  7 16  1  0
  9 17  1  0
M  END
