
     RDKit          3D

 19 21  0  0  0  0  0  0  0  0999 V2000
    1.7114    1.7120    0.8505 O   0  0  0  0  0  0  0  0  0  0  0  0
    1.1407    0.5523    0.3146 C   0  0  0  0  0  0  0  0  0  0  0  0
    1.9767   -0.2410   -0.5778 C   0  0  0  0  0  0  0  0  0  0  0  0
    0.7312    0.4545   -1.0834 C   0  0  0  0  0  0  0  0  0  0  0  0
   -0.4683   -0.4587   -1.1868 C   0  0  0  0  0  0  0  0  0  0  0  0
   -1.0915   -0.3508    0.1711 C   0  0  0  0  0  0  0  0  0  0  0  0
   -2.4729   -0.1307    0.3190 C   0  0  0  0  0  0  0  0  0  0  0  0
   -1.9251   -1.4003    0.6227 O   0  0  0  0  0  0  0  0  0  0  0  0
   -0.0006    0.0075    1.1040 C   0  0  0  0  0  0  0  0  0  0  0  0
    2.0033    1.4495    1.7800 H   0  0  0  0  0  0  0  0  0  0  0  0
    2.9666    0.1587   -0.8519 H   0  0  0  0  0  0  0  0  0  0  0  0
    1.9818   -1.3693   -0.5558 H   0  0  0  0  0  0  0  0  0  0  0  0
    0.8034    1.3509   -1.7022 H   0  0  0  0  0  0  0  0  0  0  0  0
   -1.1526   -0.2079   -1.9910 H   0  0  0  0  0  0  0  0  0  0  0  0
   -0.1240   -1.5222   -1.3199 H   0  0  0  0  0  0  0  0  0  0  0  0
   -3.1323   -0.1647   -0.5767 H   0  0  0  0  0  0  0  0  0  0  0  0
   -2.9883    0.4022    1.1695 H   0  0  0  0  0  0  0  0  0  0  0  0
   -0.3134    0.6859    1.9079 H   0  0  0  0  0  0  0  0  0  0  0  0
    0.3537   -0.9278    1.6061 H   0  0  0  0  0  0  0  0  0  0  0  0
  1  2  1  0
  2  3  1  0
  3  4  1  0
  4  5  1  0
  5  6  1  0
  6  7  1  0
  7  8  1  0
  6  9  1  0
  4  2  1  0
  8  6  1  0
  9  2  1  0
  1 10  1  0
  3 11  1  0
  3 12  1  0
  4 13  1  0
  5 14  1  0
  5 15  1  0
  7 16  1  0
  7 17  1  0
  9 18  1  0
  9 19  1  0
M  END
