
     RDKit          3D

 19 21  0  0  0  0  0  0  0  0999 V2000
   -1.4925    1.9910   -0.2924 O   0  0  0  0  0  0  0  0  0  0  0  0
   -0.6752    0.8869   -0.2615 C   0  0  0  0  0  0  0  0  0  0  0  0
   -1.3543   -0.4221   -0.5213 C   0  0  0  0  0  0  0  0  0  0  0  0
   -0.5297   -1.5062    0.1055 C   0  0  0  0  0  0  0  0  0  0  0  0
    0.5096   -0.8104    0.9660 C   0  0  0  0  0  0  0  0  0  0  0  0
    1.7604   -0.8868    0.3690 O   0  0  0  0  0  0  0  0  0  0  0  0
    1.7066   -0.0485   -0.7382 C   0  0  0  0  0  0  0  0  0  0  0  0
    0.7721    1.0810   -0.3980 C   0  0  0  0  0  0  0  0  0  0  0  0
    0.1902    0.6618    0.9038 C   0  0  0  0  0  0  0  0  0  0  0  0
   -1.8075    2.2692    0.6190 H   0  0  0  0  0  0  0  0  0  0  0  0
   -2.3330   -0.3957    0.0287 H   0  0  0  0  0  0  0  0  0  0  0  0
   -1.5516   -0.5633   -1.5917 H   0  0  0  0  0  0  0  0  0  0  0  0
   -0.0314   -2.1679   -0.6504 H   0  0  0  0  0  0  0  0  0  0  0  0
   -1.1556   -2.2071    0.7197 H   0  0  0  0  0  0  0  0  0  0  0  0
    0.4933   -1.1227    2.0066 H   0  0  0  0  0  0  0  0  0  0  0  0
    1.4437   -0.5750   -1.6728 H   0  0  0  0  0  0  0  0  0  0  0  0
    2.7279    0.4007   -0.8459 H   0  0  0  0  0  0  0  0  0  0  0  0
    1.1195    2.1296   -0.5426 H   0  0  0  0  0  0  0  0  0  0  0  0
    0.2076    1.2857    1.7964 H   0  0  0  0  0  0  0  0  0  0  0  0
  1  2  1  0
  2  3  1  0
  3  4  1  0
  4  5  1  0
  5  6  1  0
  6  7  1  0
  7  8  1  0
  8  9  1  0
  8  2  1  0
  9  2  1  0
  9  5  1  0
  1 10  1  0
  3 11  1  0
  3 12  1  0
  4 13  1  0
  4 14  1  0
  5 15  1  0
  7 16  1  0
  7 17  1  0
  8 18  1  0
  9 19  1  0
M  END
