
     RDKit          3D

 17 19  0  0  0  0  0  0  0  0999 V2000
   -1.4869    1.7684   -0.6301 O   0  0  0  0  0  0  0  0  0  0  0  0
   -0.8703    0.5068   -0.3715 C   0  0  0  0  0  0  0  0  0  0  0  0
   -1.7899   -0.6210   -0.3195 C   0  0  0  0  0  0  0  0  0  0  0  0
   -1.1438   -0.1197    0.9696 C   0  0  0  0  0  0  0  0  0  0  0  0
    0.1254   -0.8440    1.3538 C   0  0  0  0  0  0  0  0  0  0  0  0
    1.0746   -0.5879    0.5084 C   0  0  0  0  0  0  0  0  0  0  0  0
    2.2578   -0.3985   -0.3627 C   0  0  0  0  0  0  0  0  0  0  0  0
    1.2782   -0.2237   -1.4082 O   0  0  0  0  0  0  0  0  0  0  0  0
    0.5906    0.4890   -0.4575 C   0  0  0  0  0  0  0  0  0  0  0  0
   -0.8646    2.2797   -1.2074 H   0  0  0  0  0  0  0  0  0  0  0  0
   -1.4414   -1.6347   -0.6544 H   0  0  0  0  0  0  0  0  0  0  0  0
   -2.8600   -0.4413   -0.3767 H   0  0  0  0  0  0  0  0  0  0  0  0
   -1.6834    0.4860    1.6817 H   0  0  0  0  0  0  0  0  0  0  0  0
    0.1595   -1.4725    2.2289 H   0  0  0  0  0  0  0  0  0  0  0  0
    2.7330    0.5879   -0.2261 H   0  0  0  0  0  0  0  0  0  0  0  0
    2.8964   -1.2598   -0.5263 H   0  0  0  0  0  0  0  0  0  0  0  0
    1.0249    1.4855   -0.2022 H   0  0  0  0  0  0  0  0  0  0  0  0
  1  2  1  0
  2  3  1  0
  3  4  1  0
  4  5  1  0
  5  6  2  0
  6  7  1  0
  7  8  1  0
  8  9  1  0
  4  2  1  0
  9  6  1  0
  9  2  1  0
  1 10  1  0
  3 11  1  0
  3 12  1  0
  4 13  1  0
  5 14  1  0
  7 15  1  0
  7 16  1  0
  9 17  1  0
M  END
