
     RDKit          3D

 17 19  0  0  0  0  0  0  0  0999 V2000
    1.4656   -0.7802   -1.4497 O   0  0  0  0  0  0  0  0  0  0  0  0
    0.9245   -0.0419   -0.4127 C   0  0  0  0  0  0  0  0  0  0  0  0
    1.7482    0.4035    0.7424 C   0  0  0  0  0  0  0  0  0  0  0  0
    0.8196   -0.7255    0.8936 C   0  0  0  0  0  0  0  0  0  0  0  0
   -0.4585   -0.6118    1.3619 O   0  0  0  0  0  0  0  0  0  0  0  0
   -1.1226    0.3580    0.6641 C   0  0  0  0  0  0  0  0  0  0  0  0
   -2.1681   -0.0934   -0.3105 C   0  0  0  0  0  0  0  0  0  0  0  0
   -1.2771   -0.0180   -1.3943 O   0  0  0  0  0  0  0  0  0  0  0  0
   -0.3867    0.6660   -0.5882 C   0  0  0  0  0  0  0  0  0  0  0  0
    2.0408   -1.4988   -1.0589 H   0  0  0  0  0  0  0  0  0  0  0  0
    1.4934    1.3739    1.2385 H   0  0  0  0  0  0  0  0  0  0  0  0
    2.8386    0.1915    0.7895 H   0  0  0  0  0  0  0  0  0  0  0  0
    1.2710   -1.7494    0.9814 H   0  0  0  0  0  0  0  0  0  0  0  0
   -1.3799    1.2117    1.3117 H   0  0  0  0  0  0  0  0  0  0  0  0
   -2.5450   -1.1293   -0.1815 H   0  0  0  0  0  0  0  0  0  0  0  0
   -2.9476    0.6837   -0.4531 H   0  0  0  0  0  0  0  0  0  0  0  0
   -0.3163    1.7597   -0.7649 H   0  0  0  0  0  0  0  0  0  0  0  0
  1  2  1  0
  2  3  1  0
  3  4  1  0
  4  5  1  0
  5  6  1  0
  6  7  1  0
  7  8  1  0
  8  9  1  0
  4  2  1  0
  9  6  1  0
  9  2  1  0
  1 10  1  0
  3 11  1  0
  3 12  1  0
  4 13  1  0
  6 14  1  0
  7 15  1  0
  7 16  1  0
  9 17  1  0
M  END
