
     RDKit          3D

 19 21  0  0  0  0  0  0  0  0999 V2000
   -2.2198    0.7590    1.0533 O   0  0  0  0  0  0  0  0  0  0  0  0
   -1.0526    0.4059    0.4133 C   0  0  0  0  0  0  0  0  0  0  0  0
    0.0829    1.3488    0.4628 C   0  0  0  0  0  0  0  0  0  0  0  0
    1.3950    0.8277    0.0315 C   0  0  0  0  0  0  0  0  0  0  0  0
    1.5683   -0.6517    0.1345 C   0  0  0  0  0  0  0  0  0  0  0  0
    0.4275   -1.2954   -0.6432 C   0  0  0  0  0  0  0  0  0  0  0  0
   -0.0636   -0.4988   -1.6860 O   0  0  0  0  0  0  0  0  0  0  0  0
   -1.2188   -0.1852   -1.0184 C   0  0  0  0  0  0  0  0  0  0  0  0
   -0.8082   -0.9821    0.1258 C   0  0  0  0  0  0  0  0  0  0  0  0
   -2.8164   -0.0334    1.1216 H   0  0  0  0  0  0  0  0  0  0  0  0
    0.1498    1.8115    1.4875 H   0  0  0  0  0  0  0  0  0  0  0  0
   -0.1719    2.2244   -0.2058 H   0  0  0  0  0  0  0  0  0  0  0  0
    1.5939    1.1025   -1.0465 H   0  0  0  0  0  0  0  0  0  0  0  0
    2.1927    1.2998    0.6717 H   0  0  0  0  0  0  0  0  0  0  0  0
    2.5447   -0.9413   -0.2536 H   0  0  0  0  0  0  0  0  0  0  0  0
    1.5206   -0.9215    1.2156 H   0  0  0  0  0  0  0  0  0  0  0  0
    0.5493   -2.3531   -0.8718 H   0  0  0  0  0  0  0  0  0  0  0  0
   -2.1932   -0.1499   -1.4752 H   0  0  0  0  0  0  0  0  0  0  0  0
   -1.4803   -1.7672    0.4829 H   0  0  0  0  0  0  0  0  0  0  0  0
  1  2  1  0
  2  3  1  0
  3  4  1  0
  4  5  1  0
  5  6  1  0
  6  7  1  0
  7  8  1  0
  8  9  1  0
  8  2  1  0
  9  2  1  0
  9  6  1  0
  1 10  1  0
  3 11  1  0
  3 12  1  0
  4 13  1  0
  4 14  1  0
  5 15  1  0
  5 16  1  0
  6 17  1  0
  8 18  1  0
  9 19  1  0
M  END
