
     RDKit          3D

 21 23  0  0  0  0  0  0  0  0999 V2000
   -2.3513    0.6400    0.5546 O   0  0  0  0  0  0  0  0  0  0  0  0
   -1.2143    0.2341   -0.1081 C   0  0  0  0  0  0  0  0  0  0  0  0
   -0.1891    1.2683   -0.3914 C   0  0  0  0  0  0  0  0  0  0  0  0
    1.1675    0.8875    0.1186 C   0  0  0  0  0  0  0  0  0  0  0  0
    1.5573   -0.4171   -0.5570 C   0  0  0  0  0  0  0  0  0  0  0  0
    0.7221   -1.1242    0.4598 C   0  0  0  0  0  0  0  0  0  0  0  0
    0.9567    0.0759    1.3920 C   0  0  0  0  0  0  0  0  0  0  0  0
   -0.7365   -1.1264    0.1437 C   0  0  0  0  0  0  0  0  0  0  0  0
   -1.3111   -0.8612   -1.1610 C   0  0  0  0  0  0  0  0  0  0  0  0
   -2.4434    1.6203    0.6374 H   0  0  0  0  0  0  0  0  0  0  0  0
   -0.4586    2.2547    0.0270 H   0  0  0  0  0  0  0  0  0  0  0  0
   -0.0770    1.4397   -1.4998 H   0  0  0  0  0  0  0  0  0  0  0  0
    1.9263    1.6582    0.1613 H   0  0  0  0  0  0  0  0  0  0  0  0
    2.6370   -0.6491   -0.4381 H   0  0  0  0  0  0  0  0  0  0  0  0
    1.2311   -0.5396   -1.5898 H   0  0  0  0  0  0  0  0  0  0  0  0
    1.1468   -2.0592    0.8782 H   0  0  0  0  0  0  0  0  0  0  0  0
    0.0300    0.4104    1.9170 H   0  0  0  0  0  0  0  0  0  0  0  0
    1.8252   -0.0211    2.0407 H   0  0  0  0  0  0  0  0  0  0  0  0
   -1.3362   -1.7644    0.8546 H   0  0  0  0  0  0  0  0  0  0  0  0
   -2.3488   -1.1905   -1.3416 H   0  0  0  0  0  0  0  0  0  0  0  0
   -0.7337   -0.7363   -2.0982 H   0  0  0  0  0  0  0  0  0  0  0  0
  1  2  1  0
  2  3  1  0
  3  4  1  0
  4  5  1  0
  5  6  1  0
  6  7  1  0
  6  8  1  0
  8  9  1  0
  8  2  1  0
  9  2  1  0
  7  4  1  0
  1 10  1  0
  3 11  1  0
  3 12  1  0
  4 13  1  0
  5 14  1  0
  5 15  1  0
  6 16  1  0
  7 17  1  0
  7 18  1  0
  8 19  1  0
  9 20  1  0
  9 21  1  0
M  END
