
     RDKit          3D

 17 19  0  0  0  0  0  0  0  0999 V2000
   -0.8230    0.4666   -1.6795 O   0  0  0  0  0  0  0  0  0  0  0  0
   -0.7920    0.2227   -0.3158 C   0  0  0  0  0  0  0  0  0  0  0  0
   -2.1241   -0.1297    0.2803 C   0  0  0  0  0  0  0  0  0  0  0  0
   -1.0719   -1.1504    0.2199 C   0  0  0  0  0  0  0  0  0  0  0  0
   -0.0360   -0.9877    1.1709 O   0  0  0  0  0  0  0  0  0  0  0  0
    0.4814   -0.0418    0.3518 C   0  0  0  0  0  0  0  0  0  0  0  0
    1.6495   -0.5161   -0.4362 C   0  0  0  0  0  0  0  0  0  0  0  0
    2.2416    0.7276   -0.2149 O   0  0  0  0  0  0  0  0  0  0  0  0
    1.3383    1.0275    0.8309 C   0  0  0  0  0  0  0  0  0  0  0  0
   -0.9212    1.4640   -1.7819 H   0  0  0  0  0  0  0  0  0  0  0  0
   -2.9959   -0.2482   -0.3635 H   0  0  0  0  0  0  0  0  0  0  0  0
   -2.3831    0.2221    1.3096 H   0  0  0  0  0  0  0  0  0  0  0  0
   -1.0143   -1.9532   -0.5051 H   0  0  0  0  0  0  0  0  0  0  0  0
    1.5013   -0.8123   -1.4713 H   0  0  0  0  0  0  0  0  0  0  0  0
    2.2135   -1.2977    0.1515 H   0  0  0  0  0  0  0  0  0  0  0  0
    1.8273    0.9561    1.8181 H   0  0  0  0  0  0  0  0  0  0  0  0
    0.9087    2.0507    0.6351 H   0  0  0  0  0  0  0  0  0  0  0  0
  1  2  1  0
  2  3  1  0
  3  4  1  0
  4  5  1  0
  5  6  1  0
  6  7  1  0
  7  8  1  0
  8  9  1  0
  4  2  1  0
  9  6  1  0
  6  2  1  0
  1 10  1  0
  3 11  1  0
  3 12  1  0
  4 13  1  0
  7 14  1  0
  7 15  1  0
  9 16  1  0
  9 17  1  0
M  END
