
     RDKit          3D

 17 18  0  0  0  0  0  0  0  0999 V2000
   -2.3518   -0.1554    0.5952 O   0  0  0  0  0  0  0  0  0  0  0  0
   -1.0864    0.0852    0.2624 C   0  0  0  0  0  0  0  0  0  0  0  0
   -0.2432    0.7465    1.3202 C   0  0  0  0  0  0  0  0  0  0  0  0
    1.0271    0.5334    0.9750 C   0  0  0  0  0  0  0  0  0  0  0  0
    1.0348   -0.3226   -0.2221 C   0  0  0  0  0  0  0  0  0  0  0  0
    2.1334   -1.0070   -0.5098 O   0  0  0  0  0  0  0  0  0  0  0  0
    0.4572    0.5105   -1.3362 C   0  0  0  0  0  0  0  0  0  0  0  0
   -0.8012    0.7752   -0.9926 C   0  0  0  0  0  0  0  0  0  0  0  0
   -0.2154   -1.1769    0.0744 C   0  0  0  0  0  0  0  0  0  0  0  0
   -2.9317   -0.2146   -0.1783 H   0  0  0  0  0  0  0  0  0  0  0  0
   -0.6619    1.2674    2.1565 H   0  0  0  0  0  0  0  0  0  0  0  0
    1.8619    0.9467    1.5217 H   0  0  0  0  0  0  0  0  0  0  0  0
    2.9682   -0.7722   -0.0475 H   0  0  0  0  0  0  0  0  0  0  0  0
    0.9691    0.8296   -2.2389 H   0  0  0  0  0  0  0  0  0  0  0  0
   -1.4703    1.3980   -1.5667 H   0  0  0  0  0  0  0  0  0  0  0  0
   -0.5727   -1.6994   -0.8041 H   0  0  0  0  0  0  0  0  0  0  0  0
   -0.1171   -1.7445    0.9909 H   0  0  0  0  0  0  0  0  0  0  0  0
  1  2  1  0
  2  3  1  0
  3  4  2  0
  4  5  1  0
  5  6  1  0
  5  7  1  0
  7  8  2  0
  5  9  1  0
  8  2  1  0
  9  2  1  0
  1 10  1  0
  3 11  1  0
  4 12  1  0
  6 13  1  0
  7 14  1  0
  8 15  1  0
  9 16  1  0
  9 17  1  0
M  END
