
     RDKit          3D

 19 21  0  0  0  0  0  0  0  0999 V2000
    2.2052   -0.2775   -1.0296 O   0  0  0  0  0  0  0  0  0  0  0  0
    0.9744   -0.1821   -0.4568 C   0  0  0  0  0  0  0  0  0  0  0  0
    0.5485   -1.2174    0.5939 C   0  0  0  0  0  0  0  0  0  0  0  0
   -0.8181   -0.6159    0.9439 C   0  0  0  0  0  0  0  0  0  0  0  0
   -1.4261   -0.5543   -0.4333 C   0  0  0  0  0  0  0  0  0  0  0  0
   -0.2604    0.1230   -1.1690 C   0  0  0  0  0  0  0  0  0  0  0  0
    0.2746    1.0689   -0.1860 C   0  0  0  0  0  0  0  0  0  0  0  0
    0.7370    2.3104   -0.4746 O   0  0  0  0  0  0  0  0  0  0  0  0
   -0.4239    0.8184    1.1547 C   0  0  0  0  0  0  0  0  0  0  0  0
    2.8372   -0.8882   -0.6169 H   0  0  0  0  0  0  0  0  0  0  0  0
    1.1986   -1.2040    1.4661 H   0  0  0  0  0  0  0  0  0  0  0  0
    0.3777   -2.2029    0.1403 H   0  0  0  0  0  0  0  0  0  0  0  0
   -1.3568   -1.1075    1.7045 H   0  0  0  0  0  0  0  0  0  0  0  0
   -1.6494   -1.5290   -0.8669 H   0  0  0  0  0  0  0  0  0  0  0  0
   -2.3244    0.1188   -0.4636 H   0  0  0  0  0  0  0  0  0  0  0  0
   -0.3447    0.3172   -2.2314 H   0  0  0  0  0  0  0  0  0  0  0  0
    0.3468    2.5984   -1.3603 H   0  0  0  0  0  0  0  0  0  0  0  0
   -1.2481    1.4997    1.3327 H   0  0  0  0  0  0  0  0  0  0  0  0
    0.3521    0.9241    1.9523 H   0  0  0  0  0  0  0  0  0  0  0  0
  1  2  1  0
  2  3  1  0
  3  4  1  0
  4  5  1  0
  5  6  1  0
  6  7  1  0
  7  8  1  0
  7  9  1  0
  6  2  1  0
  7  2  1  0
  9  4  1  0
  1 10  1  0
  3 11  1  0
  3 12  1  0
  4 13  1  0
  5 14  1  0
  5 15  1  0
  6 16  1  0
  8 17  1  0
  9 18  1  0
  9 19  1  0
M  END
