
     RDKit          3D

 17 20  0  0  0  0  0  0  0  0999 V2000
   -1.2222    2.0284   -0.4337 O   0  0  0  0  0  0  0  0  0  0  0  0
   -0.6635    0.8025   -0.2213 C   0  0  0  0  0  0  0  0  0  0  0  0
   -1.4663   -0.3428    0.3392 C   0  0  0  0  0  0  0  0  0  0  0  0
   -0.3883   -1.4042    0.5442 C   0  0  0  0  0  0  0  0  0  0  0  0
    0.4826   -1.2255   -0.6148 C   0  0  0  0  0  0  0  0  0  0  0  0
    0.8613   -0.6791    0.7753 C   0  0  0  0  0  0  0  0  0  0  0  0
    0.7072    0.6805    0.2420 C   0  0  0  0  0  0  0  0  0  0  0  0
    1.6172    1.6750    0.3532 O   0  0  0  0  0  0  0  0  0  0  0  0
    0.3253    0.1665   -1.0845 C   0  0  0  0  0  0  0  0  0  0  0  0
   -1.4277    2.4892    0.4378 H   0  0  0  0  0  0  0  0  0  0  0  0
   -2.1113   -0.7448   -0.4902 H   0  0  0  0  0  0  0  0  0  0  0  0
   -2.0167   -0.1100    1.2460 H   0  0  0  0  0  0  0  0  0  0  0  0
   -0.6476   -2.3579    1.0031 H   0  0  0  0  0  0  0  0  0  0  0  0
    1.1326   -1.9601   -1.0537 H   0  0  0  0  0  0  0  0  0  0  0  0
    1.7444   -1.0694    1.2595 H   0  0  0  0  0  0  0  0  0  0  0  0
    2.3774    1.5094   -0.2749 H   0  0  0  0  0  0  0  0  0  0  0  0
    0.6957    0.5422   -2.0273 H   0  0  0  0  0  0  0  0  0  0  0  0
  1  2  1  0
  2  3  1  0
  3  4  1  0
  4  5  1  0
  5  6  1  0
  6  7  1  0
  7  8  1  0
  7  9  1  0
  7  2  1  0
  9  2  1  0
  6  4  1  0
  9  5  1  0
  1 10  1  0
  3 11  1  0
  3 12  1  0
  4 13  1  0
  5 14  1  0
  6 15  1  0
  8 16  1  0
  9 17  1  0
M  END
