
     RDKit          3D

 19 21  0  0  0  0  0  0  0  0999 V2000
    1.1975    1.0512    1.4822 O   0  0  0  0  0  0  0  0  0  0  0  0
    1.0975    0.4624    0.2332 C   0  0  0  0  0  0  0  0  0  0  0  0
    2.0844   -0.6152   -0.1614 C   0  0  0  0  0  0  0  0  0  0  0  0
    0.7300   -1.0444    0.2175 C   0  0  0  0  0  0  0  0  0  0  0  0
   -0.3713   -0.7042   -0.7617 C   0  0  0  0  0  0  0  0  0  0  0  0
   -1.7641   -0.7747   -0.2078 C   0  0  0  0  0  0  0  0  0  0  0  0
   -2.3220    0.5057   -0.3638 O   0  0  0  0  0  0  0  0  0  0  0  0
   -1.2746    1.3420    0.0256 C   0  0  0  0  0  0  0  0  0  0  0  0
   -0.0583    0.7774   -0.6647 C   0  0  0  0  0  0  0  0  0  0  0  0
    1.8259    0.5517    2.0445 H   0  0  0  0  0  0  0  0  0  0  0  0
    2.3139   -0.6425   -1.2618 H   0  0  0  0  0  0  0  0  0  0  0  0
    2.9492   -0.6835    0.5135 H   0  0  0  0  0  0  0  0  0  0  0  0
    0.4690   -1.4536    1.1973 H   0  0  0  0  0  0  0  0  0  0  0  0
   -0.2139   -1.1337   -1.7639 H   0  0  0  0  0  0  0  0  0  0  0  0
   -2.3940   -1.5447   -0.6701 H   0  0  0  0  0  0  0  0  0  0  0  0
   -1.7671   -0.9682    0.8948 H   0  0  0  0  0  0  0  0  0  0  0  0
   -1.2080    1.2577    1.1372 H   0  0  0  0  0  0  0  0  0  0  0  0
   -1.5121    2.3720   -0.2821 H   0  0  0  0  0  0  0  0  0  0  0  0
    0.2180    1.2445   -1.6087 H   0  0  0  0  0  0  0  0  0  0  0  0
  1  2  1  0
  2  3  1  0
  3  4  1  0
  4  5  1  0
  5  6  1  0
  6  7  1  0
  7  8  1  0
  8  9  1  0
  4  2  1  0
  9  5  1  0
  9  2  1  0
  1 10  1  0
  3 11  1  0
  3 12  1  0
  4 13  1  0
  5 14  1  0
  6 15  1  0
  6 16  1  0
  8 17  1  0
  8 18  1  0
  9 19  1  0
M  END
