
     RDKit          3D

 19 21  0  0  0  0  0  0  0  0999 V2000
    0.4190    2.0880   -0.0121 O   0  0  0  0  0  0  0  0  0  0  0  0
    0.4243    0.7609    0.0533 C   0  0  0  0  0  0  0  0  0  0  0  0
    1.6941    0.0005    0.2634 C   0  0  0  0  0  0  0  0  0  0  0  0
    1.1018   -1.4145    0.4207 C   0  0  0  0  0  0  0  0  0  0  0  0
   -0.3156   -1.1157    0.0332 C   0  0  0  0  0  0  0  0  0  0  0  0
   -0.6323    0.0732    0.9270 C   0  0  0  0  0  0  0  0  0  0  0  0
   -1.8711    0.5823    0.3407 C   0  0  0  0  0  0  0  0  0  0  0  0
   -1.6519    0.4984   -0.9740 C   0  0  0  0  0  0  0  0  0  0  0  0
   -0.2683   -0.0384   -1.0367 C   0  0  0  0  0  0  0  0  0  0  0  0
   -0.0204    2.4794   -0.8142 H   0  0  0  0  0  0  0  0  0  0  0  0
    2.3519   -0.0132   -0.6299 H   0  0  0  0  0  0  0  0  0  0  0  0
    2.2817    0.2977    1.1279 H   0  0  0  0  0  0  0  0  0  0  0  0
    1.6091   -2.1400   -0.2139 H   0  0  0  0  0  0  0  0  0  0  0  0
    1.1897   -1.6355    1.5148 H   0  0  0  0  0  0  0  0  0  0  0  0
   -1.0311   -1.8938   -0.0528 H   0  0  0  0  0  0  0  0  0  0  0  0
   -0.4678    0.0086    1.9611 H   0  0  0  0  0  0  0  0  0  0  0  0
   -2.7482    0.9386    0.8582 H   0  0  0  0  0  0  0  0  0  0  0  0
   -2.2760    0.7412   -1.8169 H   0  0  0  0  0  0  0  0  0  0  0  0
    0.2111   -0.2179   -1.9498 H   0  0  0  0  0  0  0  0  0  0  0  0
  1  2  1  0
  2  3  1  0
  3  4  1  0
  4  5  1  0
  5  6  1  0
  6  7  1  0
  7  8  2  0
  8  9  1  0
  6  2  1  0
  9  2  1  0
  9  5  1  0
  1 10  1  0
  3 11  1  0
  3 12  1  0
  4 13  1  0
  4 14  1  0
  5 15  1  0
  6 16  1  0
  7 17  1  0
  8 18  1  0
  9 19  1  0
M  END
