
     RDKit          3D

 19 21  0  0  0  0  0  0  0  0999 V2000
   -1.7531    0.6619    1.4295 O   0  0  0  0  0  0  0  0  0  0  0  0
   -0.9480    0.2514    0.3851 C   0  0  0  0  0  0  0  0  0  0  0  0
   -1.6783   -0.3098   -0.7842 C   0  0  0  0  0  0  0  0  0  0  0  0
   -1.0271   -1.5367   -0.6404 O   0  0  0  0  0  0  0  0  0  0  0  0
   -0.3335   -1.0921    0.4802 C   0  0  0  0  0  0  0  0  0  0  0  0
    1.1407   -0.9697    0.3339 C   0  0  0  0  0  0  0  0  0  0  0  0
    1.7920   -0.4254   -0.8551 C   0  0  0  0  0  0  0  0  0  0  0  0
    1.4213    0.4754    0.3159 C   0  0  0  0  0  0  0  0  0  0  0  0
    0.1449    1.2269    0.1186 C   0  0  0  0  0  0  0  0  0  0  0  0
   -2.0640    1.5909    1.2022 H   0  0  0  0  0  0  0  0  0  0  0  0
   -2.7754   -0.3698   -0.5838 H   0  0  0  0  0  0  0  0  0  0  0  0
   -1.4815    0.1327   -1.7705 H   0  0  0  0  0  0  0  0  0  0  0  0
   -0.6582   -1.6342    1.3724 H   0  0  0  0  0  0  0  0  0  0  0  0
    1.7245   -1.6818    0.9683 H   0  0  0  0  0  0  0  0  0  0  0  0
    1.2947   -0.2663   -1.8199 H   0  0  0  0  0  0  0  0  0  0  0  0
    2.8885   -0.6002   -0.9458 H   0  0  0  0  0  0  0  0  0  0  0  0
    2.2081    0.8361    0.9902 H   0  0  0  0  0  0  0  0  0  0  0  0
    0.0422    1.5698   -0.9445 H   0  0  0  0  0  0  0  0  0  0  0  0
    0.0621    2.1407    0.7478 H   0  0  0  0  0  0  0  0  0  0  0  0
  1  2  1  0
  2  3  1  0
  3  4  1  0
  4  5  1  0
  5  6  1  0
  6  7  1  0
  7  8  1  0
  8  9  1  0
  5  2  1  0
  8  6  1  0
  9  2  1  0
  1 10  1  0
  3 11  1  0
  3 12  1  0
  5 13  1  0
  6 14  1  0
  7 15  1  0
  7 16  1  0
  8 17  1  0
  9 18  1  0
  9 19  1  0
M  END
