
     RDKit          3D

 17 19  0  0  0  0  0  0  0  0999 V2000
   -0.5336    1.1422    1.2687 O   0  0  0  0  0  0  0  0  0  0  0  0
   -0.6261    0.9589   -0.1120 C   0  0  0  0  0  0  0  0  0  0  0  0
   -1.8217   -0.0546   -0.1657 C   0  0  0  0  0  0  0  0  0  0  0  0
   -1.1022   -1.1645    0.5802 C   0  0  0  0  0  0  0  0  0  0  0  0
    0.1817   -0.9945    0.4547 C   0  0  0  0  0  0  0  0  0  0  0  0
    1.6270   -0.9586    0.4242 C   0  0  0  0  0  0  0  0  0  0  0  0
    1.9823    0.2206   -0.1599 C   0  0  0  0  0  0  0  0  0  0  0  0
    0.7231    0.9883   -0.5449 C   0  0  0  0  0  0  0  0  0  0  0  0
    0.0495   -0.1597   -0.9015 C   0  0  0  0  0  0  0  0  0  0  0  0
   -0.2229    2.0567    1.4262 H   0  0  0  0  0  0  0  0  0  0  0  0
   -2.6458    0.3756    0.3581 H   0  0  0  0  0  0  0  0  0  0  0  0
   -2.1076   -0.3094   -1.1694 H   0  0  0  0  0  0  0  0  0  0  0  0
   -1.4723   -2.0000    1.1521 H   0  0  0  0  0  0  0  0  0  0  0  0
    2.2101   -1.7597    0.8238 H   0  0  0  0  0  0  0  0  0  0  0  0
    2.9984    0.5324   -0.3084 H   0  0  0  0  0  0  0  0  0  0  0  0
    1.0073    1.7406   -1.3657 H   0  0  0  0  0  0  0  0  0  0  0  0
   -0.2474   -0.6144   -1.7606 H   0  0  0  0  0  0  0  0  0  0  0  0
  1  2  1  0
  2  3  1  0
  3  4  1  0
  4  5  2  0
  5  6  1  0
  6  7  2  0
  7  8  1  0
  8  9  1  0
  8  2  1  0
  9  2  1  0
  9  5  1  0
  1 10  1  0
  3 11  1  0
  3 12  1  0
  4 13  1  0
  6 14  1  0
  7 15  1  0
  8 16  1  0
  9 17  1  0
M  END
