
     RDKit          3D

 19 20  0  0  0  0  0  0  0  0999 V2000
   -2.1480   -0.6900   -0.7677 O   0  0  0  0  0  0  0  0  0  0  0  0
   -0.9083   -0.2590   -0.3941 C   0  0  0  0  0  0  0  0  0  0  0  0
    0.1950   -1.2061   -0.7937 C   0  0  0  0  0  0  0  0  0  0  0  0
    1.4112   -0.7177   -0.5592 C   0  0  0  0  0  0  0  0  0  0  0  0
    1.4106    0.6252    0.1279 C   0  0  0  0  0  0  0  0  0  0  0  0
    0.6320    0.3946    1.4307 C   0  0  0  0  0  0  0  0  0  0  0  0
   -0.7668   -0.0284    1.1012 C   0  0  0  0  0  0  0  0  0  0  0  0
    0.6881    1.5163   -0.6366 O   0  0  0  0  0  0  0  0  0  0  0  0
   -0.5368    1.0733   -1.0525 C   0  0  0  0  0  0  0  0  0  0  0  0
   -2.1060   -1.6955   -0.8314 H   0  0  0  0  0  0  0  0  0  0  0  0
   -0.0135   -2.1766   -1.2246 H   0  0  0  0  0  0  0  0  0  0  0  0
    2.3391   -1.1891   -0.8120 H   0  0  0  0  0  0  0  0  0  0  0  0
    2.4163    0.9951    0.2990 H   0  0  0  0  0  0  0  0  0  0  0  0
    1.1615   -0.4785    1.9147 H   0  0  0  0  0  0  0  0  0  0  0  0
    0.7067    1.2487    2.1089 H   0  0  0  0  0  0  0  0  0  0  0  0
   -1.5144    0.7621    1.3663 H   0  0  0  0  0  0  0  0  0  0  0  0
   -1.0343   -0.9279    1.6743 H   0  0  0  0  0  0  0  0  0  0  0  0
   -1.3538    1.7778   -0.7850 H   0  0  0  0  0  0  0  0  0  0  0  0
   -0.5786    0.9757   -2.1661 H   0  0  0  0  0  0  0  0  0  0  0  0
  1  2  1  0
  2  3  1  0
  3  4  2  0
  4  5  1  0
  5  6  1  0
  6  7  1  0
  5  8  1  0
  8  9  1  0
  7  2  1  0
  9  2  1  0
  1 10  1  0
  3 11  1  0
  4 12  1  0
  5 13  1  0
  6 14  1  0
  6 15  1  0
  7 16  1  0
  7 17  1  0
  9 18  1  0
  9 19  1  0
M  END
