
     RDKit          3D

 19 21  0  0  0  0  0  0  0  0999 V2000
   -2.4767   -0.4015   -0.4596 O   0  0  0  0  0  0  0  0  0  0  0  0
   -1.1178   -0.3280   -0.2578 C   0  0  0  0  0  0  0  0  0  0  0  0
   -0.3082    0.6481   -1.0777 C   0  0  0  0  0  0  0  0  0  0  0  0
    0.9052    0.8518   -0.2074 C   0  0  0  0  0  0  0  0  0  0  0  0
    1.6992   -0.4503   -0.2704 C   0  0  0  0  0  0  0  0  0  0  0  0
    0.9536   -1.5481   -0.0071 O   0  0  0  0  0  0  0  0  0  0  0  0
   -0.3284   -1.3756    0.3770 C   0  0  0  0  0  0  0  0  0  0  0  0
   -0.6780   -0.2020    1.1645 C   0  0  0  0  0  0  0  0  0  0  0  0
    0.2858    0.9277    1.1752 C   0  0  0  0  0  0  0  0  0  0  0  0
   -2.6776   -0.7739   -1.3588 H   0  0  0  0  0  0  0  0  0  0  0  0
   -0.8360    1.5607   -1.3405 H   0  0  0  0  0  0  0  0  0  0  0  0
   -0.0238    0.0955   -2.0175 H   0  0  0  0  0  0  0  0  0  0  0  0
    1.5185    1.7025   -0.4684 H   0  0  0  0  0  0  0  0  0  0  0  0
    2.0469   -0.5181   -1.3439 H   0  0  0  0  0  0  0  0  0  0  0  0
    2.6350   -0.3516    0.3290 H   0  0  0  0  0  0  0  0  0  0  0  0
   -0.8694   -2.3186    0.6301 H   0  0  0  0  0  0  0  0  0  0  0  0
   -1.4404   -0.3055    1.9736 H   0  0  0  0  0  0  0  0  0  0  0  0
   -0.3182    1.8826    1.1798 H   0  0  0  0  0  0  0  0  0  0  0  0
    1.0304    0.9043    1.9799 H   0  0  0  0  0  0  0  0  0  0  0  0
  1  2  1  0
  2  3  1  0
  3  4  1  0
  4  5  1  0
  5  6  1  0
  6  7  1  0
  7  8  1  0
  8  9  1  0
  7  2  1  0
  8  2  1  0
  9  4  1  0
  1 10  1  0
  3 11  1  0
  3 12  1  0
  4 13  1  0
  5 14  1  0
  5 15  1  0
  7 16  1  0
  8 17  1  0
  9 18  1  0
  9 19  1  0
M  END
