
     RDKit          3D

 19 20  0  0  0  0  0  0  0  0999 V2000
    1.8707   -0.5644   -1.1121 O   0  0  0  0  0  0  0  0  0  0  0  0
    0.9574   -0.0420   -0.2204 C   0  0  0  0  0  0  0  0  0  0  0  0
    0.2649    1.2098   -0.5877 C   0  0  0  0  0  0  0  0  0  0  0  0
   -1.1394    1.3432   -0.1837 C   0  0  0  0  0  0  0  0  0  0  0  0
   -1.8925    0.2647   -0.0278 C   0  0  0  0  0  0  0  0  0  0  0  0
   -1.2504   -1.0526   -0.2781 C   0  0  0  0  0  0  0  0  0  0  0  0
    0.0621   -1.0486    0.4532 C   0  0  0  0  0  0  0  0  0  0  0  0
    0.1025   -0.1839    1.5730 O   0  0  0  0  0  0  0  0  0  0  0  0
    1.4425    0.0112    1.2314 C   0  0  0  0  0  0  0  0  0  0  0  0
    1.3658   -1.1732   -1.7226 H   0  0  0  0  0  0  0  0  0  0  0  0
    0.4273    1.4667   -1.6707 H   0  0  0  0  0  0  0  0  0  0  0  0
    0.8134    2.0489   -0.0565 H   0  0  0  0  0  0  0  0  0  0  0  0
   -1.6180    2.3229    0.0045 H   0  0  0  0  0  0  0  0  0  0  0  0
   -2.9258    0.3139    0.2664 H   0  0  0  0  0  0  0  0  0  0  0  0
   -0.9971   -1.0590   -1.3792 H   0  0  0  0  0  0  0  0  0  0  0  0
   -1.8864   -1.9048   -0.0402 H   0  0  0  0  0  0  0  0  0  0  0  0
    0.5095   -2.0000    0.7072 H   0  0  0  0  0  0  0  0  0  0  0  0
    1.8828    0.9575    1.5399 H   0  0  0  0  0  0  0  0  0  0  0  0
    2.0106   -0.9103    1.5033 H   0  0  0  0  0  0  0  0  0  0  0  0
  1  2  1  0
  2  3  1  0
  3  4  1  0
  4  5  2  0
  5  6  1  0
  6  7  1  0
  7  8  1  0
  8  9  1  0
  7  2  1  0
  9  2  1  0
  1 10  1  0
  3 11  1  0
  3 12  1  0
  4 13  1  0
  5 14  1  0
  6 15  1  0
  6 16  1  0
  7 17  1  0
  9 18  1  0
  9 19  1  0
M  END
