
     RDKit          3D

 19 22  0  0  0  0  0  0  0  0999 V2000
   -0.3501    1.1479    1.2463 O   0  0  0  0  0  0  0  0  0  0  0  0
   -0.0497    0.6755    0.0415 C   0  0  0  0  0  0  0  0  0  0  0  0
    0.9459    0.9007   -0.7488 C   0  0  0  0  0  0  0  0  0  0  0  0
    1.7038    0.0719    0.3293 C   0  0  0  0  0  0  0  0  0  0  0  0
    0.7110   -0.9586    0.9205 C   0  0  0  0  0  0  0  0  0  0  0  0
   -0.8068   -1.0933    0.5709 C   0  0  0  0  0  0  0  0  0  0  0  0
   -1.5798   -0.2213   -0.4568 C   0  0  0  0  0  0  0  0  0  0  0  0
   -0.5758    0.7697   -1.0950 C   0  0  0  0  0  0  0  0  0  0  0  0
    0.2050   -0.9201   -0.2457 C   0  0  0  0  0  0  0  0  0  0  0  0
   -1.1348    1.7482    1.1880 H   0  0  0  0  0  0  0  0  0  0  0  0
    1.3596    1.8523   -1.0144 H   0  0  0  0  0  0  0  0  0  0  0  0
    2.0476    0.7680    1.1058 H   0  0  0  0  0  0  0  0  0  0  0  0
    2.5168   -0.5087   -0.1515 H   0  0  0  0  0  0  0  0  0  0  0  0
    0.8800   -1.2257    1.9336 H   0  0  0  0  0  0  0  0  0  0  0  0
   -1.2066   -2.0371    0.8662 H   0  0  0  0  0  0  0  0  0  0  0  0
   -2.3574    0.3090    0.0893 H   0  0  0  0  0  0  0  0  0  0  0  0
   -2.0109   -0.8802   -1.2269 H   0  0  0  0  0  0  0  0  0  0  0  0
   -0.7290    0.8891   -2.1476 H   0  0  0  0  0  0  0  0  0  0  0  0
    0.4310   -1.2873   -1.2048 H   0  0  0  0  0  0  0  0  0  0  0  0
  1  2  1  0
  2  3  1  0
  3  4  1  0
  4  5  1  0
  5  6  1  0
  6  7  1  0
  7  8  1  0
  6  9  1  0
  8  2  1  0
  9  2  1  0
  8  3  1  0
  9  5  1  0
  1 10  1  0
  3 11  1  0
  4 12  1  0
  4 13  1  0
  5 14  1  0
  6 15  1  0
  7 16  1  0
  7 17  1  0
  8 18  1  0
  9 19  1  0
M  END
