
     RDKit          3D

 18 19  0  0  0  0  0  0  0  0999 V2000
   -2.2351    0.8321    0.0328 O   0  0  0  0  0  0  0  0  0  0  0  0
   -1.0112    0.3322   -0.0035 C   0  0  0  0  0  0  0  0  0  0  0  0
   -0.7504   -1.0751   -0.4405 C   0  0  0  0  0  0  0  0  0  0  0  0
    0.7923   -1.0548   -0.4156 C   0  0  0  0  0  0  0  0  0  0  0  0
    0.9911    0.2611    0.2548 C   0  0  0  0  0  0  0  0  0  0  0  0
    2.1974    0.7014    0.5869 O   0  0  0  0  0  0  0  0  0  0  0  0
    0.1112    1.1622   -0.6306 C   0  0  0  0  0  0  0  0  0  0  0  0
   -0.1492    0.3995    1.2622 C   0  0  0  0  0  0  0  0  0  0  0  0
   -2.9274    0.1225   -0.0605 H   0  0  0  0  0  0  0  0  0  0  0  0
   -1.0384   -1.7470    0.3869 H   0  0  0  0  0  0  0  0  0  0  0  0
   -1.1396   -1.3420   -1.4174 H   0  0  0  0  0  0  0  0  0  0  0  0
    1.2010   -1.9176    0.0922 H   0  0  0  0  0  0  0  0  0  0  0  0
    1.1598   -0.9541   -1.4682 H   0  0  0  0  0  0  0  0  0  0  0  0
    2.9140    0.1342    0.1662 H   0  0  0  0  0  0  0  0  0  0  0  0
    0.2622    1.0151   -1.6977 H   0  0  0  0  0  0  0  0  0  0  0  0
    0.1572    2.1792   -0.2325 H   0  0  0  0  0  0  0  0  0  0  0  0
   -0.3230   -0.4560    1.9037 H   0  0  0  0  0  0  0  0  0  0  0  0
   -0.2119    1.4070    1.6807 H   0  0  0  0  0  0  0  0  0  0  0  0
  1  2  1  0
  2  3  1  0
  3  4  1  0
  4  5  1  0
  5  6  1  0
  5  7  1  0
  5  8  1  0
  7  2  1  0
  8  2  1  0
  1  9  1  0
  3 10  1  0
  3 11  1  0
  4 12  1  0
  4 13  1  0
  6 14  1  0
  7 15  1  0
  7 16  1  0
  8 17  1  0
  8 18  1  0
M  END
