
     RDKit          3D

 17 19  0  0  0  0  0  0  0  0999 V2000
    2.2413   -0.7324   -0.3453 O   0  0  0  0  0  0  0  0  0  0  0  0
    0.9831   -0.2009   -0.1542 C   0  0  0  0  0  0  0  0  0  0  0  0
    0.9270    1.2473    0.1507 C   0  0  0  0  0  0  0  0  0  0  0  0
   -0.3357    1.7065    0.4433 O   0  0  0  0  0  0  0  0  0  0  0  0
   -1.3281    0.8292    0.0156 C   0  0  0  0  0  0  0  0  0  0  0  0
   -1.2669   -0.3863    0.9495 C   0  0  0  0  0  0  0  0  0  0  0  0
   -0.0318   -1.0575    0.4394 C   0  0  0  0  0  0  0  0  0  0  0  0
   -0.0805   -0.6909   -1.0499 C   0  0  0  0  0  0  0  0  0  0  0  0
   -1.0555    0.2493   -1.2008 O   0  0  0  0  0  0  0  0  0  0  0  0
    2.4075   -0.8342   -1.3344 H   0  0  0  0  0  0  0  0  0  0  0  0
    1.3748    1.8721   -0.6779 H   0  0  0  0  0  0  0  0  0  0  0  0
    1.5996    1.4358    1.0372 H   0  0  0  0  0  0  0  0  0  0  0  0
   -2.2947    1.3251    0.0457 H   0  0  0  0  0  0  0  0  0  0  0  0
   -1.2541   -0.1112    1.9977 H   0  0  0  0  0  0  0  0  0  0  0  0
   -2.1366   -1.0214    0.6473 H   0  0  0  0  0  0  0  0  0  0  0  0
    0.2412   -2.0674    0.7317 H   0  0  0  0  0  0  0  0  0  0  0  0
    0.0092   -1.5631   -1.6955 H   0  0  0  0  0  0  0  0  0  0  0  0
  1  2  1  0
  2  3  1  0
  3  4  1  0
  4  5  1  0
  5  6  1  0
  6  7  1  0
  7  8  1  0
  8  9  1  0
  7  2  1  0
  8  2  1  0
  9  5  1  0
  1 10  1  0
  3 11  1  0
  3 12  1  0
  5 13  1  0
  6 14  1  0
  6 15  1  0
  7 16  1  0
  8 17  1  0
M  END
