
     RDKit          3D

 19 21  0  0  0  0  0  0  0  0999 V2000
   -0.6708    2.1831    0.2744 O   0  0  0  0  0  0  0  0  0  0  0  0
   -0.1159    0.9540   -0.0166 C   0  0  0  0  0  0  0  0  0  0  0  0
    1.3225    1.0056   -0.2742 C   0  0  0  0  0  0  0  0  0  0  0  0
    1.9612   -0.1281   -0.5214 C   0  0  0  0  0  0  0  0  0  0  0  0
    1.1479   -1.3622   -0.5767 C   0  0  0  0  0  0  0  0  0  0  0  0
   -0.2725   -1.0922   -0.2897 C   0  0  0  0  0  0  0  0  0  0  0  0
   -0.5471   -0.1794    0.8600 C   0  0  0  0  0  0  0  0  0  0  0  0
   -1.9063   -0.0129    0.2113 C   0  0  0  0  0  0  0  0  0  0  0  0
   -0.9301    0.0845   -0.9342 C   0  0  0  0  0  0  0  0  0  0  0  0
   -0.3065    2.8416   -0.3768 H   0  0  0  0  0  0  0  0  0  0  0  0
    1.8376    1.9559   -0.2593 H   0  0  0  0  0  0  0  0  0  0  0  0
    3.0213   -0.1809   -0.6790 H   0  0  0  0  0  0  0  0  0  0  0  0
    1.2743   -1.8354   -1.5501 H   0  0  0  0  0  0  0  0  0  0  0  0
    1.5332   -2.0823    0.1870 H   0  0  0  0  0  0  0  0  0  0  0  0
   -0.9182   -1.9813   -0.3092 H   0  0  0  0  0  0  0  0  0  0  0  0
   -0.3683   -0.3211    1.8310 H   0  0  0  0  0  0  0  0  0  0  0  0
   -2.4648    0.8816    0.4683 H   0  0  0  0  0  0  0  0  0  0  0  0
   -2.4559   -0.9671    0.1490 H   0  0  0  0  0  0  0  0  0  0  0  0
   -1.1416    0.2368   -1.8978 H   0  0  0  0  0  0  0  0  0  0  0  0
  1  2  1  0
  2  3  1  0
  3  4  2  0
  4  5  1  0
  5  6  1  0
  6  7  1  0
  7  8  1  0
  8  9  1  0
  7  2  1  0
  9  2  1  0
  9  6  1  0
  1 10  1  0
  3 11  1  0
  4 12  1  0
  5 13  1  0
  5 14  1  0
  6 15  1  0
  7 16  1  0
  8 17  1  0
  8 18  1  0
  9 19  1  0
M  END
