
     RDKit          3D

 21 22  0  0  0  0  0  0  0  0999 V2000
    0.4418   -1.6651    1.3740 O   0  0  0  0  0  0  0  0  0  0  0  0
    0.3376   -0.8841    0.2380 C   0  0  0  0  0  0  0  0  0  0  0  0
   -0.8267   -1.2078   -0.6398 C   0  0  0  0  0  0  0  0  0  0  0  0
   -1.7164    0.0078   -0.6769 C   0  0  0  0  0  0  0  0  0  0  0  0
   -1.1033    1.0379    0.2296 C   0  0  0  0  0  0  0  0  0  0  0  0
    0.2887    0.5795    0.5631 C   0  0  0  0  0  0  0  0  0  0  0  0
    0.7703    0.9574    1.7944 O   0  0  0  0  0  0  0  0  0  0  0  0
    1.2255    0.8362   -0.5849 C   0  0  0  0  0  0  0  0  0  0  0  0
    1.6499   -0.6279   -0.4877 C   0  0  0  0  0  0  0  0  0  0  0  0
    0.9906   -1.1736    2.0231 H   0  0  0  0  0  0  0  0  0  0  0  0
   -1.4013   -2.0410   -0.1652 H   0  0  0  0  0  0  0  0  0  0  0  0
   -0.4526   -1.4742   -1.6423 H   0  0  0  0  0  0  0  0  0  0  0  0
   -2.7589   -0.2459   -0.3720 H   0  0  0  0  0  0  0  0  0  0  0  0
   -1.7836    0.3894   -1.7134 H   0  0  0  0  0  0  0  0  0  0  0  0
   -1.6831    1.0401    1.1801 H   0  0  0  0  0  0  0  0  0  0  0  0
   -1.1270    2.0544   -0.2018 H   0  0  0  0  0  0  0  0  0  0  0  0
    0.1840    1.6838    2.1600 H   0  0  0  0  0  0  0  0  0  0  0  0
    2.0250    1.5587   -0.3033 H   0  0  0  0  0  0  0  0  0  0  0  0
    0.7238    1.0964   -1.5273 H   0  0  0  0  0  0  0  0  0  0  0  0
    2.4832   -0.8021    0.2139 H   0  0  0  0  0  0  0  0  0  0  0  0
    1.7323   -1.1200   -1.4616 H   0  0  0  0  0  0  0  0  0  0  0  0
  1  2  1  0
  2  3  1  0
  3  4  1  0
  4  5  1  0
  5  6  1  0
  6  7  1  0
  6  8  1  0
  8  9  1  0
  6  2  1  0
  9  2  1  0
  1 10  1  0
  3 11  1  0
  3 12  1  0
  4 13  1  0
  4 14  1  0
  5 15  1  0
  5 16  1  0
  7 17  1  0
  8 18  1  0
  8 19  1  0
  9 20  1  0
  9 21  1  0
M  END
