
     RDKit          3D

 19 20  0  0  0  0  0  0  0  0999 V2000
   -2.1004    0.2631    1.8403 O   0  0  0  0  0  0  0  0  0  0  0  0
   -1.0651    0.1521    0.8830 C   0  0  0  0  0  0  0  0  0  0  0  0
   -0.0374    1.1799    0.8664 C   0  0  0  0  0  0  0  0  0  0  0  0
    1.0901    1.2747    0.2215 C   0  0  0  0  0  0  0  0  0  0  0  0
    1.7490    0.3873   -0.7276 C   0  0  0  0  0  0  0  0  0  0  0  0
    1.1859   -0.9674   -0.8730 C   0  0  0  0  0  0  0  0  0  0  0  0
    0.6821   -1.4016    0.3263 O   0  0  0  0  0  0  0  0  0  0  0  0
   -0.6725   -1.1998    0.4841 C   0  0  0  0  0  0  0  0  0  0  0  0
   -1.5111   -0.4816   -0.4626 C   0  0  0  0  0  0  0  0  0  0  0  0
   -2.8362    0.7629    1.3741 H   0  0  0  0  0  0  0  0  0  0  0  0
   -0.2528    2.0401    1.5227 H   0  0  0  0  0  0  0  0  0  0  0  0
    1.6567    2.1917    0.4251 H   0  0  0  0  0  0  0  0  0  0  0  0
    1.7269    0.8948   -1.7343 H   0  0  0  0  0  0  0  0  0  0  0  0
    2.8380    0.3088   -0.4862 H   0  0  0  0  0  0  0  0  0  0  0  0
    2.0161   -1.6686   -1.1527 H   0  0  0  0  0  0  0  0  0  0  0  0
    0.4659   -1.0332   -1.7121 H   0  0  0  0  0  0  0  0  0  0  0  0
   -1.1647   -2.0523    1.0377 H   0  0  0  0  0  0  0  0  0  0  0  0
   -2.6009   -0.7632   -0.5247 H   0  0  0  0  0  0  0  0  0  0  0  0
   -1.1696    0.1122   -1.3080 H   0  0  0  0  0  0  0  0  0  0  0  0
  1  2  1  0
  2  3  1  0
  3  4  2  0
  4  5  1  0
  5  6  1  0
  6  7  1  0
  7  8  1  0
  8  9  1  0
  8  2  1  0
  9  2  1  0
  1 10  1  0
  3 11  1  0
  4 12  1  0
  5 13  1  0
  5 14  1  0
  6 15  1  0
  6 16  1  0
  8 17  1  0
  9 18  1  0
  9 19  1  0
M  END
