
     RDKit          3D

 21 23  0  0  0  0  0  0  0  0999 V2000
    0.5655    1.9930   -0.3065 O   0  0  0  0  0  0  0  0  0  0  0  0
   -0.0893    0.8279    0.1189 C   0  0  0  0  0  0  0  0  0  0  0  0
   -1.5337    1.0003    0.4777 C   0  0  0  0  0  0  0  0  0  0  0  0
   -1.8453   -0.1630   -0.4721 C   0  0  0  0  0  0  0  0  0  0  0  0
   -0.4239   -0.0569   -1.0367 C   0  0  0  0  0  0  0  0  0  0  0  0
    0.3539   -1.3183   -0.8655 C   0  0  0  0  0  0  0  0  0  0  0  0
    1.1716   -1.2261    0.3613 C   0  0  0  0  0  0  0  0  0  0  0  0
    2.1637   -0.1877    0.6241 C   0  0  0  0  0  0  0  0  0  0  0  0
    0.7188   -0.0046    1.0516 C   0  0  0  0  0  0  0  0  0  0  0  0
   -0.0506    2.7685   -0.2201 H   0  0  0  0  0  0  0  0  0  0  0  0
   -1.7768    0.8098    1.5295 H   0  0  0  0  0  0  0  0  0  0  0  0
   -1.9150    1.9659    0.0768 H   0  0  0  0  0  0  0  0  0  0  0  0
   -2.6058    0.1171   -1.2198 H   0  0  0  0  0  0  0  0  0  0  0  0
   -2.0305   -1.0632    0.1244 H   0  0  0  0  0  0  0  0  0  0  0  0
   -0.3708    0.3900   -2.0453 H   0  0  0  0  0  0  0  0  0  0  0  0
   -0.3937   -2.1520   -0.7495 H   0  0  0  0  0  0  0  0  0  0  0  0
    0.9078   -1.5430   -1.7867 H   0  0  0  0  0  0  0  0  0  0  0  0
    1.2946   -2.1943    0.9146 H   0  0  0  0  0  0  0  0  0  0  0  0
    2.8494   -0.3363    1.4736 H   0  0  0  0  0  0  0  0  0  0  0  0
    2.5677    0.4905   -0.1605 H   0  0  0  0  0  0  0  0  0  0  0  0
    0.4424   -0.1177    2.1102 H   0  0  0  0  0  0  0  0  0  0  0  0
  1  2  1  0
  2  3  1  0
  3  4  1  0
  4  5  1  0
  5  6  1  0
  6  7  1  0
  7  8  1  0
  8  9  1  0
  5  2  1  0
  9  7  1  0
  9  2  1  0
  1 10  1  0
  3 11  1  0
  3 12  1  0
  4 13  1  0
  4 14  1  0
  5 15  1  0
  6 16  1  0
  6 17  1  0
  7 18  1  0
  8 19  1  0
  8 20  1  0
  9 21  1  0
M  END
