
     RDKit          3D

 19 21  0  0  0  0  0  0  0  0999 V2000
    0.3792   -2.0936    0.9858 O   0  0  0  0  0  0  0  0  0  0  0  0
   -0.0362   -0.9520    0.4165 C   0  0  0  0  0  0  0  0  0  0  0  0
   -1.5001   -0.7199    0.1940 C   0  0  0  0  0  0  0  0  0  0  0  0
   -1.4391    0.7234   -0.3429 C   0  0  0  0  0  0  0  0  0  0  0  0
    0.0469    0.8724   -0.4573 C   0  0  0  0  0  0  0  0  0  0  0  0
    0.5642    1.9911   -0.9903 O   0  0  0  0  0  0  0  0  0  0  0  0
    0.6270   -0.4589   -0.8310 C   0  0  0  0  0  0  0  0  0  0  0  0
    1.7914   -0.0788    0.0424 C   0  0  0  0  0  0  0  0  0  0  0  0
    0.5832    0.3502    0.8365 C   0  0  0  0  0  0  0  0  0  0  0  0
    0.9271   -1.8758    1.7985 H   0  0  0  0  0  0  0  0  0  0  0  0
   -2.1219   -0.7993    1.0825 H   0  0  0  0  0  0  0  0  0  0  0  0
   -1.8126   -1.4039   -0.6399 H   0  0  0  0  0  0  0  0  0  0  0  0
   -1.8183    1.3704    0.4824 H   0  0  0  0  0  0  0  0  0  0  0  0
   -1.9757    0.8320   -1.2823 H   0  0  0  0  0  0  0  0  0  0  0  0
   -0.1317    2.5367   -1.4367 H   0  0  0  0  0  0  0  0  0  0  0  0
    0.6545   -0.8882   -1.7325 H   0  0  0  0  0  0  0  0  0  0  0  0
    2.3789    0.7892   -0.2599 H   0  0  0  0  0  0  0  0  0  0  0  0
    2.3137   -0.9706    0.3965 H   0  0  0  0  0  0  0  0  0  0  0  0
    0.5695    0.7755    1.7376 H   0  0  0  0  0  0  0  0  0  0  0  0
  1  2  1  0
  2  3  1  0
  3  4  1  0
  4  5  1  0
  5  6  1  0
  5  7  1  0
  7  8  1  0
  8  9  1  0
  7  2  1  0
  9  2  1  0
  9  5  1  0
  1 10  1  0
  3 11  1  0
  3 12  1  0
  4 13  1  0
  4 14  1  0
  6 15  1  0
  7 16  1  0
  8 17  1  0
  8 18  1  0
  9 19  1  0
M  END
