
     RDKit          3D

 19 20  0  0  0  0  0  0  0  0999 V2000
   -1.6969   -1.5466    0.4310 O   0  0  0  0  0  0  0  0  0  0  0  0
   -0.7021   -0.6539    0.1832 C   0  0  0  0  0  0  0  0  0  0  0  0
   -1.1829    0.7415   -0.0700 C   0  0  0  0  0  0  0  0  0  0  0  0
   -0.2969    1.6144    0.3868 C   0  0  0  0  0  0  0  0  0  0  0  0
    0.8938    0.8744    0.8792 C   0  0  0  0  0  0  0  0  0  0  0  0
    0.1966   -0.3966    1.3993 C   0  0  0  0  0  0  0  0  0  0  0  0
    1.7617    0.5473   -0.1536 O   0  0  0  0  0  0  0  0  0  0  0  0
    1.0753    0.1362   -1.2756 C   0  0  0  0  0  0  0  0  0  0  0  0
    0.2509   -1.0926   -0.9292 C   0  0  0  0  0  0  0  0  0  0  0  0
   -2.4018   -1.4366   -0.2487 H   0  0  0  0  0  0  0  0  0  0  0  0
   -2.1253    0.9479   -0.5591 H   0  0  0  0  0  0  0  0  0  0  0  0
   -0.4119    2.6863    0.4029 H   0  0  0  0  0  0  0  0  0  0  0  0
    1.4377    1.3906    1.6759 H   0  0  0  0  0  0  0  0  0  0  0  0
   -0.4091   -0.1277    2.2651 H   0  0  0  0  0  0  0  0  0  0  0  0
    0.9282   -1.1868    1.5449 H   0  0  0  0  0  0  0  0  0  0  0  0
    0.3644    0.9589   -1.5595 H   0  0  0  0  0  0  0  0  0  0  0  0
    1.7320   -0.1154   -2.0984 H   0  0  0  0  0  0  0  0  0  0  0  0
   -0.3214   -1.4697   -1.7820 H   0  0  0  0  0  0  0  0  0  0  0  0
    0.9078   -1.8716   -0.4921 H   0  0  0  0  0  0  0  0  0  0  0  0
  1  2  1  0
  2  3  1  0
  3  4  2  0
  4  5  1  0
  5  6  1  0
  5  7  1  0
  7  8  1  0
  8  9  1  0
  6  2  1  0
  9  2  1  0
  1 10  1  0
  3 11  1  0
  4 12  1  0
  5 13  1  0
  6 14  1  0
  6 15  1  0
  8 16  1  0
  8 17  1  0
  9 18  1  0
  9 19  1  0
M  END
