
     RDKit          3D

 21 23  0  0  0  0  0  0  0  0999 V2000
   -1.9528   -1.1404   -0.8201 O   0  0  0  0  0  0  0  0  0  0  0  0
   -0.9588   -0.4188   -0.1938 C   0  0  0  0  0  0  0  0  0  0  0  0
   -0.0554   -1.3265    0.5903 C   0  0  0  0  0  0  0  0  0  0  0  0
    1.3159   -1.2258   -0.0279 C   0  0  0  0  0  0  0  0  0  0  0  0
    1.7863    0.2131    0.2164 C   0  0  0  0  0  0  0  0  0  0  0  0
    0.9169    1.2061   -0.4787 C   0  0  0  0  0  0  0  0  0  0  0  0
   -0.3868    1.6357    0.0212 C   0  0  0  0  0  0  0  0  0  0  0  0
   -1.3996    0.7417    0.6461 C   0  0  0  0  0  0  0  0  0  0  0  0
   -0.2483    0.5367   -1.0852 C   0  0  0  0  0  0  0  0  0  0  0  0
   -2.8467   -1.0260   -0.4461 H   0  0  0  0  0  0  0  0  0  0  0  0
    0.0599   -0.9912    1.6595 H   0  0  0  0  0  0  0  0  0  0  0  0
   -0.4219   -2.3695    0.6455 H   0  0  0  0  0  0  0  0  0  0  0  0
    1.3490   -1.4977   -1.0843 H   0  0  0  0  0  0  0  0  0  0  0  0
    1.9917   -1.8647    0.5696 H   0  0  0  0  0  0  0  0  0  0  0  0
    1.8341    0.3533    1.3168 H   0  0  0  0  0  0  0  0  0  0  0  0
    2.8282    0.2479   -0.1562 H   0  0  0  0  0  0  0  0  0  0  0  0
    1.4560    1.9162   -1.1326 H   0  0  0  0  0  0  0  0  0  0  0  0
   -0.7873    2.6118   -0.3214 H   0  0  0  0  0  0  0  0  0  0  0  0
   -2.4741    0.9806    0.3950 H   0  0  0  0  0  0  0  0  0  0  0  0
   -1.3394    0.5963    1.7428 H   0  0  0  0  0  0  0  0  0  0  0  0
   -0.6670    0.8212   -2.0569 H   0  0  0  0  0  0  0  0  0  0  0  0
  1  2  1  0
  2  3  1  0
  3  4  1  0
  4  5  1  0
  5  6  1  0
  6  7  1  0
  7  8  1  0
  7  9  1  0
  8  2  1  0
  9  2  1  0
  9  6  1  0
  1 10  1  0
  3 11  1  0
  3 12  1  0
  4 13  1  0
  4 14  1  0
  5 15  1  0
  5 16  1  0
  6 17  1  0
  7 18  1  0
  8 19  1  0
  8 20  1  0
  9 21  1  0
M  END
