
     RDKit          3D

 19 21  0  0  0  0  0  0  0  0999 V2000
   -2.2722    1.2413   -0.3077 O   0  0  0  0  0  0  0  0  0  0  0  0
   -1.6175    0.0506   -0.2140 C   0  0  0  0  0  0  0  0  0  0  0  0
   -1.6486   -0.8334    0.9531 C   0  0  0  0  0  0  0  0  0  0  0  0
   -0.4531    0.0534    0.8239 C   0  0  0  0  0  0  0  0  0  0  0  0
    0.4524   -0.2393   -0.3179 C   0  0  0  0  0  0  0  0  0  0  0  0
    1.5913    0.6824   -0.5527 C   0  0  0  0  0  0  0  0  0  0  0  0
    2.1629   -0.2969    0.4857 C   0  0  0  0  0  0  0  0  0  0  0  0
    1.3581   -1.2657   -0.1633 O   0  0  0  0  0  0  0  0  0  0  0  0
   -0.6171   -0.3540   -1.3062 C   0  0  0  0  0  0  0  0  0  0  0  0
   -1.8902    1.9571    0.2835 H   0  0  0  0  0  0  0  0  0  0  0  0
   -1.4254   -1.9200    0.7377 H   0  0  0  0  0  0  0  0  0  0  0  0
   -2.3114   -0.6954    1.8034 H   0  0  0  0  0  0  0  0  0  0  0  0
   -0.3378    0.9455    1.4405 H   0  0  0  0  0  0  0  0  0  0  0  0
    1.5212    1.7093   -0.2075 H   0  0  0  0  0  0  0  0  0  0  0  0
    2.0966    0.4864   -1.5129 H   0  0  0  0  0  0  0  0  0  0  0  0
    1.7072   -0.0694    1.4547 H   0  0  0  0  0  0  0  0  0  0  0  0
    3.2304   -0.4624    0.4266 H   0  0  0  0  0  0  0  0  0  0  0  0
   -0.6334    0.3647   -2.1501 H   0  0  0  0  0  0  0  0  0  0  0  0
   -0.9135   -1.3541   -1.6765 H   0  0  0  0  0  0  0  0  0  0  0  0
  1  2  1  0
  2  3  1  0
  3  4  1  0
  4  5  1  0
  5  6  1  0
  6  7  1  0
  7  8  1  0
  5  9  1  0
  4  2  1  0
  8  5  1  0
  9  2  1  0
  1 10  1  0
  3 11  1  0
  3 12  1  0
  4 13  1  0
  6 14  1  0
  6 15  1  0
  7 16  1  0
  7 17  1  0
  9 18  1  0
  9 19  1  0
M  END
