
     RDKit          3D

 17 19  0  0  0  0  0  0  0  0999 V2000
   -0.1088    1.7727   -0.9895 O   0  0  0  0  0  0  0  0  0  0  0  0
   -0.3838    0.6701   -0.3212 C   0  0  0  0  0  0  0  0  0  0  0  0
   -1.5746    0.5848    0.5991 C   0  0  0  0  0  0  0  0  0  0  0  0
   -1.4850   -0.7824    0.9682 O   0  0  0  0  0  0  0  0  0  0  0  0
   -0.3631   -1.2183    0.3086 C   0  0  0  0  0  0  0  0  0  0  0  0
   -0.5807   -0.6412   -1.1044 C   0  0  0  0  0  0  0  0  0  0  0  0
    0.6419   -0.0970    0.4296 C   0  0  0  0  0  0  0  0  0  0  0  0
    1.9831   -0.1399    0.4161 C   0  0  0  0  0  0  0  0  0  0  0  0
    1.1846    0.2796    1.6076 O   0  0  0  0  0  0  0  0  0  0  0  0
    0.8458    1.8556   -1.2008 H   0  0  0  0  0  0  0  0  0  0  0  0
   -1.5106    1.2433    1.4695 H   0  0  0  0  0  0  0  0  0  0  0  0
   -2.5055    0.6860    0.0245 H   0  0  0  0  0  0  0  0  0  0  0  0
   -0.0371   -2.2241    0.3725 H   0  0  0  0  0  0  0  0  0  0  0  0
    0.2503   -0.8204   -1.7894 H   0  0  0  0  0  0  0  0  0  0  0  0
   -1.5887   -0.7819   -1.4978 H   0  0  0  0  0  0  0  0  0  0  0  0
    2.5833   -1.0664    0.6418 H   0  0  0  0  0  0  0  0  0  0  0  0
    2.6490    0.6797    0.0658 H   0  0  0  0  0  0  0  0  0  0  0  0
  1  2  1  0
  2  3  1  0
  3  4  1  0
  4  5  1  0
  5  6  1  0
  5  7  1  0
  7  8  1  0
  8  9  1  0
  6  2  1  0
  9  7  1  0
  7  2  1  0
  1 10  1  0
  3 11  1  0
  3 12  1  0
  5 13  1  0
  6 14  1  0
  6 15  1  0
  8 16  1  0
  8 17  1  0
M  END
