
     RDKit          3D

 17 19  0  0  0  0  0  0  0  0999 V2000
   -2.2747    0.3245   -0.8076 O   0  0  0  0  0  0  0  0  0  0  0  0
   -1.0160    0.1790   -0.2867 C   0  0  0  0  0  0  0  0  0  0  0  0
   -0.4114   -1.1497   -0.0042 C   0  0  0  0  0  0  0  0  0  0  0  0
    1.0557   -1.2565   -0.1802 C   0  0  0  0  0  0  0  0  0  0  0  0
    1.7914    0.0030   -0.2642 C   0  0  0  0  0  0  0  0  0  0  0  0
    1.1668    1.1471   -0.0358 C   0  0  0  0  0  0  0  0  0  0  0  0
   -0.2505    1.2978    0.3091 C   0  0  0  0  0  0  0  0  0  0  0  0
   -0.9472    0.4178    1.2560 C   0  0  0  0  0  0  0  0  0  0  0  0
   -0.7225   -0.9329    1.3528 O   0  0  0  0  0  0  0  0  0  0  0  0
   -2.2112    0.5750   -1.7441 H   0  0  0  0  0  0  0  0  0  0  0  0
   -1.0239   -1.9593   -0.4664 H   0  0  0  0  0  0  0  0  0  0  0  0
    1.2422   -1.9197   -1.0754 H   0  0  0  0  0  0  0  0  0  0  0  0
    1.4911   -1.8392    0.6832 H   0  0  0  0  0  0  0  0  0  0  0  0
    2.8585   -0.0153   -0.5175 H   0  0  0  0  0  0  0  0  0  0  0  0
    1.7995    2.0493   -0.1208 H   0  0  0  0  0  0  0  0  0  0  0  0
   -0.6926    2.3019    0.1595 H   0  0  0  0  0  0  0  0  0  0  0  0
   -1.8552    0.7771    1.7424 H   0  0  0  0  0  0  0  0  0  0  0  0
  1  2  1  0
  2  3  1  0
  3  4  1  0
  4  5  1  0
  5  6  2  0
  6  7  1  0
  7  8  1  0
  8  9  1  0
  7  2  1  0
  8  2  1  0
  9  3  1  0
  1 10  1  0
  3 11  1  0
  4 12  1  0
  4 13  1  0
  5 14  1  0
  6 15  1  0
  7 16  1  0
  8 17  1  0
M  END
