
     RDKit          3D

 17 19  0  0  0  0  0  0  0  0999 V2000
   -2.3565   -0.1825    0.3817 O   0  0  0  0  0  0  0  0  0  0  0  0
   -1.0411    0.0089    0.1903 C   0  0  0  0  0  0  0  0  0  0  0  0
   -0.5661    1.1346   -0.6701 C   0  0  0  0  0  0  0  0  0  0  0  0
    0.9543    0.8958   -0.6088 C   0  0  0  0  0  0  0  0  0  0  0  0
    0.9861   -0.3033    0.2958 C   0  0  0  0  0  0  0  0  0  0  0  0
    2.1641   -0.8349    0.6509 O   0  0  0  0  0  0  0  0  0  0  0  0
   -0.0845   -0.1001    1.3129 C   0  0  0  0  0  0  0  0  0  0  0  0
   -0.2810   -1.4788    1.2602 O   0  0  0  0  0  0  0  0  0  0  0  0
   -0.1563   -1.1717   -0.0823 C   0  0  0  0  0  0  0  0  0  0  0  0
   -2.7138   -0.7603   -0.3619 H   0  0  0  0  0  0  0  0  0  0  0  0
   -0.8412    2.0826   -0.1812 H   0  0  0  0  0  0  0  0  0  0  0  0
   -0.9290    1.1173   -1.6993 H   0  0  0  0  0  0  0  0  0  0  0  0
    1.3981    1.8018   -0.1522 H   0  0  0  0  0  0  0  0  0  0  0  0
    1.3090    0.6931   -1.6304 H   0  0  0  0  0  0  0  0  0  0  0  0
    2.4179   -1.5495    0.0010 H   0  0  0  0  0  0  0  0  0  0  0  0
   -0.0326    0.4554    2.1551 H   0  0  0  0  0  0  0  0  0  0  0  0
   -0.2275   -1.8083   -0.8615 H   0  0  0  0  0  0  0  0  0  0  0  0
  1  2  1  0
  2  3  1  0
  3  4  1  0
  4  5  1  0
  5  6  1  0
  5  7  1  0
  7  8  1  0
  8  9  1  0
  7  2  1  0
  9  2  1  0
  9  5  1  0
  1 10  1  0
  3 11  1  0
  3 12  1  0
  4 13  1  0
  4 14  1  0
  6 15  1  0
  7 16  1  0
  9 17  1  0
M  END
