
     RDKit          3D

 17 20  0  0  0  0  0  0  0  0999 V2000
    2.3990    0.5478   -1.1086 O   0  0  0  0  0  0  0  0  0  0  0  0
    1.1990    0.2601   -0.6436 C   0  0  0  0  0  0  0  0  0  0  0  0
    0.0948   -0.4624   -1.2505 C   0  0  0  0  0  0  0  0  0  0  0  0
   -0.8212    0.6798   -0.9266 C   0  0  0  0  0  0  0  0  0  0  0  0
   -1.8954   -0.0584   -0.1621 C   0  0  0  0  0  0  0  0  0  0  0  0
   -1.3729   -1.2296    0.2976 O   0  0  0  0  0  0  0  0  0  0  0  0
   -0.0307   -1.2922    0.0344 C   0  0  0  0  0  0  0  0  0  0  0  0
    0.7776   -0.1492    0.6796 C   0  0  0  0  0  0  0  0  0  0  0  0
    0.2621    1.1057    0.0815 C   0  0  0  0  0  0  0  0  0  0  0  0
    3.1914    0.1926   -0.6268 H   0  0  0  0  0  0  0  0  0  0  0  0
    0.0910   -0.9430   -2.1750 H   0  0  0  0  0  0  0  0  0  0  0  0
   -1.0933    1.3830   -1.6753 H   0  0  0  0  0  0  0  0  0  0  0  0
   -2.8055   -0.1876   -0.8076 H   0  0  0  0  0  0  0  0  0  0  0  0
   -2.1352    0.5865    0.7255 H   0  0  0  0  0  0  0  0  0  0  0  0
    0.4453   -2.2556    0.0237 H   0  0  0  0  0  0  0  0  0  0  0  0
    1.3257   -0.2702    1.5726 H   0  0  0  0  0  0  0  0  0  0  0  0
    0.3681    2.0929    0.4323 H   0  0  0  0  0  0  0  0  0  0  0  0
  1  2  1  0
  2  3  1  0
  3  4  1  0
  4  5  1  0
  5  6  1  0
  6  7  1  0
  7  8  1  0
  8  9  1  0
  8  2  1  0
  9  2  1  0
  7  3  1  0
  9  4  1  0
  1 10  1  0
  3 11  1  0
  4 12  1  0
  5 13  1  0
  5 14  1  0
  7 15  1  0
  8 16  1  0
  9 17  1  0
M  END
