
     RDKit          3D

 17 19  0  0  0  0  0  0  0  0999 V2000
   -2.4057   -0.1038   -0.3671 O   0  0  0  0  0  0  0  0  0  0  0  0
   -1.1142    0.0155    0.0669 C   0  0  0  0  0  0  0  0  0  0  0  0
   -0.6899    1.3522    0.5398 C   0  0  0  0  0  0  0  0  0  0  0  0
    0.5995    1.5545    0.3099 C   0  0  0  0  0  0  0  0  0  0  0  0
    1.1594    0.3397   -0.3517 C   0  0  0  0  0  0  0  0  0  0  0  0
    2.3740    0.3896   -0.9802 O   0  0  0  0  0  0  0  0  0  0  0  0
    0.7212   -1.0008    0.1295 C   0  0  0  0  0  0  0  0  0  0  0  0
   -0.5815   -1.1072    0.9263 C   0  0  0  0  0  0  0  0  0  0  0  0
   -0.0278   -0.3129   -0.9125 C   0  0  0  0  0  0  0  0  0  0  0  0
   -2.4966   -0.1309   -1.3330 H   0  0  0  0  0  0  0  0  0  0  0  0
   -1.3380    2.0949    1.0200 H   0  0  0  0  0  0  0  0  0  0  0  0
    1.1801    2.4321    0.5457 H   0  0  0  0  0  0  0  0  0  0  0  0
    3.0530   -0.0783   -0.4097 H   0  0  0  0  0  0  0  0  0  0  0  0
    1.3661   -1.8600    0.0117 H   0  0  0  0  0  0  0  0  0  0  0  0
   -1.1160   -2.0568    0.7346 H   0  0  0  0  0  0  0  0  0  0  0  0
   -0.4924   -0.9122    1.9918 H   0  0  0  0  0  0  0  0  0  0  0  0
   -0.1913   -0.6155   -1.9220 H   0  0  0  0  0  0  0  0  0  0  0  0
  1  2  1  0
  2  3  1  0
  3  4  2  0
  4  5  1  0
  5  6  1  0
  5  7  1  0
  7  8  1  0
  7  9  1  0
  8  2  1  0
  9  2  1  0
  9  5  1  0
  1 10  1  0
  3 11  1  0
  4 12  1  0
  6 13  1  0
  7 14  1  0
  8 15  1  0
  8 16  1  0
  9 17  1  0
M  END
