
     RDKit          3D

 17 19  0  0  0  0  0  0  0  0999 V2000
   -1.8493    1.1219   -0.0973 O   0  0  0  0  0  0  0  0  0  0  0  0
   -0.5891    0.6973   -0.1004 C   0  0  0  0  0  0  0  0  0  0  0  0
    0.5012    1.5726    0.3681 C   0  0  0  0  0  0  0  0  0  0  0  0
    1.5915    0.7772    0.2482 C   0  0  0  0  0  0  0  0  0  0  0  0
    1.0229   -0.4828   -0.2791 C   0  0  0  0  0  0  0  0  0  0  0  0
   -0.0425   -0.0706   -1.2607 C   0  0  0  0  0  0  0  0  0  0  0  0
   -0.8237   -1.2448   -0.7646 C   0  0  0  0  0  0  0  0  0  0  0  0
   -0.2442   -0.6398    0.4980 C   0  0  0  0  0  0  0  0  0  0  0  0
   -0.4119   -1.0286    1.6735 O   0  0  0  0  0  0  0  0  0  0  0  0
   -2.1633    1.2475    0.8527 H   0  0  0  0  0  0  0  0  0  0  0  0
    0.4916    2.5950    0.7269 H   0  0  0  0  0  0  0  0  0  0  0  0
    2.6187    0.9921    0.4748 H   0  0  0  0  0  0  0  0  0  0  0  0
    1.6462   -1.3139   -0.4860 H   0  0  0  0  0  0  0  0  0  0  0  0
    0.0917    0.2368   -2.2032 H   0  0  0  0  0  0  0  0  0  0  0  0
   -1.9091   -1.2085   -0.8656 H   0  0  0  0  0  0  0  0  0  0  0  0
   -0.3294   -2.1964   -1.0515 H   0  0  0  0  0  0  0  0  0  0  0  0
    0.3986   -1.0551    2.2662 H   0  0  0  0  0  0  0  0  0  0  0  0
  1  2  1  0
  2  3  1  0
  3  4  2  0
  4  5  1  0
  5  6  1  0
  6  7  1  0
  7  8  1  0
  8  9  1  0
  6  2  1  0
  8  2  1  0
  8  5  1  0
  1 10  1  0
  3 11  1  0
  4 12  1  0
  5 13  1  0
  6 14  1  0
  7 15  1  0
  7 16  1  0
  9 17  1  0
M  END
