
     RDKit          3D

 19 21  0  0  0  0  0  0  0  0999 V2000
   -0.1226   -2.4265   -0.0106 O   0  0  0  0  0  0  0  0  0  0  0  0
   -0.0664   -1.0995   -0.0866 C   0  0  0  0  0  0  0  0  0  0  0  0
   -1.0712   -0.3908   -1.0113 C   0  0  0  0  0  0  0  0  0  0  0  0
   -0.7607    0.7981   -0.0852 C   0  0  0  0  0  0  0  0  0  0  0  0
   -1.6632    1.7680    0.0064 O   0  0  0  0  0  0  0  0  0  0  0  0
   -0.7289   -0.2731    1.0132 C   0  0  0  0  0  0  0  0  0  0  0  0
    0.6590    1.0809   -0.4398 C   0  0  0  0  0  0  0  0  0  0  0  0
    1.7967    0.6515    0.3978 C   0  0  0  0  0  0  0  0  0  0  0  0
    1.1995   -0.3952   -0.4472 C   0  0  0  0  0  0  0  0  0  0  0  0
    0.2394   -2.7638    0.8228 H   0  0  0  0  0  0  0  0  0  0  0  0
   -0.6885   -0.2432   -2.0276 H   0  0  0  0  0  0  0  0  0  0  0  0
   -2.1058   -0.7216   -0.8896 H   0  0  0  0  0  0  0  0  0  0  0  0
   -1.8831    2.1323    0.8840 H   0  0  0  0  0  0  0  0  0  0  0  0
   -0.1160   -0.0429    1.8767 H   0  0  0  0  0  0  0  0  0  0  0  0
   -1.7386   -0.6453    1.2120 H   0  0  0  0  0  0  0  0  0  0  0  0
    0.8135    1.6395   -1.3625 H   0  0  0  0  0  0  0  0  0  0  0  0
    1.7674    0.6343    1.4978 H   0  0  0  0  0  0  0  0  0  0  0  0
    2.7961    1.0239    0.0249 H   0  0  0  0  0  0  0  0  0  0  0  0
    1.6734   -0.7267   -1.3752 H   0  0  0  0  0  0  0  0  0  0  0  0
  1  2  1  0
  2  3  1  0
  3  4  1  0
  4  5  1  0
  4  6  1  0
  4  7  1  0
  7  8  1  0
  8  9  1  0
  6  2  1  0
  9  7  1  0
  9  2  1  0
  1 10  1  0
  3 11  1  0
  3 12  1  0
  5 13  1  0
  6 14  1  0
  6 15  1  0
  7 16  1  0
  8 17  1  0
  8 18  1  0
  9 19  1  0
M  END
