
     RDKit          3D

 17 19  0  0  0  0  0  0  0  0999 V2000
   -0.5609    1.5982   -0.9147 O   0  0  0  0  0  0  0  0  0  0  0  0
   -0.0874    0.6561   -0.1225 C   0  0  0  0  0  0  0  0  0  0  0  0
    0.2354   -0.7639   -0.6216 C   0  0  0  0  0  0  0  0  0  0  0  0
   -0.9229   -1.3475   -0.5601 C   0  0  0  0  0  0  0  0  0  0  0  0
   -1.8434   -0.2848    0.0365 C   0  0  0  0  0  0  0  0  0  0  0  0
   -0.7300    0.1262    1.1273 C   0  0  0  0  0  0  0  0  0  0  0  0
    0.6072    0.6167    1.0767 C   0  0  0  0  0  0  0  0  0  0  0  0
    1.9209    0.2637    0.3779 C   0  0  0  0  0  0  0  0  0  0  0  0
    1.6720   -0.5912   -0.6872 C   0  0  0  0  0  0  0  0  0  0  0  0
    0.1873    2.0176   -1.4317 H   0  0  0  0  0  0  0  0  0  0  0  0
   -1.1296   -2.3292   -0.8652 H   0  0  0  0  0  0  0  0  0  0  0  0
   -2.1006    0.5130   -0.5983 H   0  0  0  0  0  0  0  0  0  0  0  0
   -2.6621   -0.6799    0.5925 H   0  0  0  0  0  0  0  0  0  0  0  0
   -0.6301   -0.8514    1.6160 H   0  0  0  0  0  0  0  0  0  0  0  0
    0.8118    1.5142    1.7354 H   0  0  0  0  0  0  0  0  0  0  0  0
    2.9047    0.5678    0.5940 H   0  0  0  0  0  0  0  0  0  0  0  0
    2.3275   -1.0256   -1.3552 H   0  0  0  0  0  0  0  0  0  0  0  0
  1  2  1  0
  2  3  1  0
  3  4  2  0
  4  5  1  0
  5  6  1  0
  6  7  1  0
  7  8  1  0
  8  9  2  0
  6  2  1  0
  7  2  1  0
  9  3  1  0
  1 10  1  0
  4 11  1  0
  5 12  1  0
  5 13  1  0
  6 14  1  0
  7 15  1  0
  8 16  1  0
  9 17  1  0
M  END
