
     RDKit          3D

 19 20  0  0  0  0  0  0  0  0999 V2000
   -1.2411   -0.3850    1.7089 O   0  0  0  0  0  0  0  0  0  0  0  0
   -0.6066   -0.4402    0.4777 C   0  0  0  0  0  0  0  0  0  0  0  0
    0.7304   -1.1090    0.4506 C   0  0  0  0  0  0  0  0  0  0  0  0
    1.8061   -0.2575   -0.1565 C   0  0  0  0  0  0  0  0  0  0  0  0
    1.6822    1.0831    0.0963 O   0  0  0  0  0  0  0  0  0  0  0  0
    0.5192    1.6641   -0.3026 C   0  0  0  0  0  0  0  0  0  0  0  0
   -0.6763    0.8099   -0.3486 C   0  0  0  0  0  0  0  0  0  0  0  0
   -0.8797    0.0239   -1.4683 O   0  0  0  0  0  0  0  0  0  0  0  0
   -1.5501   -0.8905   -0.6314 C   0  0  0  0  0  0  0  0  0  0  0  0
   -1.4932    0.5401    1.9518 H   0  0  0  0  0  0  0  0  0  0  0  0
    0.9894   -1.3625    1.5158 H   0  0  0  0  0  0  0  0  0  0  0  0
    0.6906   -2.0865   -0.0996 H   0  0  0  0  0  0  0  0  0  0  0  0
    1.9073   -0.5172   -1.2282 H   0  0  0  0  0  0  0  0  0  0  0  0
    2.7756   -0.5875    0.3148 H   0  0  0  0  0  0  0  0  0  0  0  0
    0.3129    2.5239    0.3995 H   0  0  0  0  0  0  0  0  0  0  0  0
    0.6452    2.1609   -1.3030 H   0  0  0  0  0  0  0  0  0  0  0  0
   -1.6083    1.3678   -0.1122 H   0  0  0  0  0  0  0  0  0  0  0  0
   -1.4209   -1.9469   -0.9013 H   0  0  0  0  0  0  0  0  0  0  0  0
   -2.5825   -0.5909   -0.3637 H   0  0  0  0  0  0  0  0  0  0  0  0
  1  2  1  0
  2  3  1  0
  3  4  1  0
  4  5  1  0
  5  6  1  0
  6  7  1  0
  7  8  1  0
  8  9  1  0
  7  2  1  0
  9  2  1  0
  1 10  1  0
  3 11  1  0
  3 12  1  0
  4 13  1  0
  4 14  1  0
  6 15  1  0
  6 16  1  0
  7 17  1  0
  9 18  1  0
  9 19  1  0
M  END
