
     RDKit          3D

 19 21  0  0  0  0  0  0  0  0999 V2000
   -1.8113   -0.6803    1.3856 O   0  0  0  0  0  0  0  0  0  0  0  0
   -1.0154   -0.1864    0.3629 C   0  0  0  0  0  0  0  0  0  0  0  0
   -0.2821   -1.2361   -0.4150 C   0  0  0  0  0  0  0  0  0  0  0  0
    1.1427   -0.8317   -0.6862 C   0  0  0  0  0  0  0  0  0  0  0  0
    1.8009   -0.1343    0.4579 C   0  0  0  0  0  0  0  0  0  0  0  0
    1.0758    1.0389   -0.1664 C   0  0  0  0  0  0  0  0  0  0  0  0
    1.0957    0.3878   -1.3736 O   0  0  0  0  0  0  0  0  0  0  0  0
   -0.2962    1.0946    0.4698 C   0  0  0  0  0  0  0  0  0  0  0  0
   -1.5284    1.0430   -0.3118 C   0  0  0  0  0  0  0  0  0  0  0  0
   -2.5853   -1.1363    0.9381 H   0  0  0  0  0  0  0  0  0  0  0  0
   -0.7843   -1.3002   -1.4213 H   0  0  0  0  0  0  0  0  0  0  0  0
   -0.2908   -2.2114    0.0894 H   0  0  0  0  0  0  0  0  0  0  0  0
    1.7339   -1.6233   -1.1519 H   0  0  0  0  0  0  0  0  0  0  0  0
    2.8873   -0.1434    0.3585 H   0  0  0  0  0  0  0  0  0  0  0  0
    1.3976   -0.4180    1.4456 H   0  0  0  0  0  0  0  0  0  0  0  0
    1.6124    1.9927   -0.1730 H   0  0  0  0  0  0  0  0  0  0  0  0
   -0.2836    1.6261    1.4529 H   0  0  0  0  0  0  0  0  0  0  0  0
   -2.4186    1.5524    0.1482 H   0  0  0  0  0  0  0  0  0  0  0  0
   -1.4502    1.1658   -1.4098 H   0  0  0  0  0  0  0  0  0  0  0  0
  1  2  1  0
  2  3  1  0
  3  4  1  0
  4  5  1  0
  5  6  1  0
  6  7  1  0
  6  8  1  0
  8  9  1  0
  8  2  1  0
  9  2  1  0
  7  4  1  0
  1 10  1  0
  3 11  1  0
  3 12  1  0
  4 13  1  0
  5 14  1  0
  5 15  1  0
  6 16  1  0
  8 17  1  0
  9 18  1  0
  9 19  1  0
M  END
