
     RDKit          3D

 17 19  0  0  0  0  0  0  0  0999 V2000
    1.7712   -1.0310    0.6863 O   0  0  0  0  0  0  0  0  0  0  0  0
    0.6663   -0.4131    0.2328 C   0  0  0  0  0  0  0  0  0  0  0  0
   -0.2834   -1.2003   -0.6459 C   0  0  0  0  0  0  0  0  0  0  0  0
   -1.5575   -0.3804   -0.3919 C   0  0  0  0  0  0  0  0  0  0  0  0
   -1.3766    0.9520   -0.6730 O   0  0  0  0  0  0  0  0  0  0  0  0
   -0.3866    1.3800    0.2108 C   0  0  0  0  0  0  0  0  0  0  0  0
    0.9783    0.9649   -0.3481 C   0  0  0  0  0  0  0  0  0  0  0  0
   -0.2606    0.2503    1.1878 C   0  0  0  0  0  0  0  0  0  0  0  0
   -1.5198   -0.3689    1.0250 O   0  0  0  0  0  0  0  0  0  0  0  0
    2.4157   -1.1456   -0.0754 H   0  0  0  0  0  0  0  0  0  0  0  0
   -0.4527   -2.1698   -0.1660 H   0  0  0  0  0  0  0  0  0  0  0  0
   -0.0044   -1.2240   -1.6939 H   0  0  0  0  0  0  0  0  0  0  0  0
   -2.4453   -0.8418   -0.7902 H   0  0  0  0  0  0  0  0  0  0  0  0
   -0.4558    2.3863    0.5900 H   0  0  0  0  0  0  0  0  0  0  0  0
    1.0236    0.9217   -1.4371 H   0  0  0  0  0  0  0  0  0  0  0  0
    1.8352    1.4629    0.0983 H   0  0  0  0  0  0  0  0  0  0  0  0
    0.0524    0.4566    2.1904 H   0  0  0  0  0  0  0  0  0  0  0  0
  1  2  1  0
  2  3  1  0
  3  4  1  0
  4  5  1  0
  5  6  1  0
  6  7  1  0
  6  8  1  0
  8  9  1  0
  7  2  1  0
  8  2  1  0
  9  4  1  0
  1 10  1  0
  3 11  1  0
  3 12  1  0
  4 13  1  0
  6 14  1  0
  7 15  1  0
  7 16  1  0
  8 17  1  0
M  END
