
     RDKit          3D

 19 20  0  0  0  0  0  0  0  0999 V2000
   -2.2788    0.0658    0.2786 O   0  0  0  0  0  0  0  0  0  0  0  0
   -0.9301    0.0633    0.0643 C   0  0  0  0  0  0  0  0  0  0  0  0
   -0.4139   -1.2229   -0.5486 C   0  0  0  0  0  0  0  0  0  0  0  0
    1.0726   -1.2645   -0.4404 C   0  0  0  0  0  0  0  0  0  0  0  0
    1.7971   -0.2355   -0.0098 C   0  0  0  0  0  0  0  0  0  0  0  0
    1.1391    0.9085    0.6891 C   0  0  0  0  0  0  0  0  0  0  0  0
   -0.1226    0.3102    1.3284 C   0  0  0  0  0  0  0  0  0  0  0  0
    0.5987    1.8061   -0.1971 O   0  0  0  0  0  0  0  0  0  0  0  0
   -0.5221    1.2587   -0.7684 C   0  0  0  0  0  0  0  0  0  0  0  0
   -2.7598   -0.6260   -0.2160 H   0  0  0  0  0  0  0  0  0  0  0  0
   -0.8918   -2.0794   -0.0279 H   0  0  0  0  0  0  0  0  0  0  0  0
   -0.7222   -1.2141   -1.6352 H   0  0  0  0  0  0  0  0  0  0  0  0
    1.5625   -2.2089   -0.7399 H   0  0  0  0  0  0  0  0  0  0  0  0
    2.8652   -0.1920   -0.1477 H   0  0  0  0  0  0  0  0  0  0  0  0
    1.7748    1.3736    1.4405 H   0  0  0  0  0  0  0  0  0  0  0  0
   -0.6009    1.0125    2.0102 H   0  0  0  0  0  0  0  0  0  0  0  0
    0.1460   -0.6650    1.7766 H   0  0  0  0  0  0  0  0  0  0  0  0
   -0.3643    0.8960   -1.8024 H   0  0  0  0  0  0  0  0  0  0  0  0
   -1.3494    2.0137   -0.8202 H   0  0  0  0  0  0  0  0  0  0  0  0
  1  2  1  0
  2  3  1  0
  3  4  1  0
  4  5  2  0
  5  6  1  0
  6  7  1  0
  6  8  1  0
  8  9  1  0
  7  2  1  0
  9  2  1  0
  1 10  1  0
  3 11  1  0
  3 12  1  0
  4 13  1  0
  5 14  1  0
  6 15  1  0
  7 16  1  0
  7 17  1  0
  9 18  1  0
  9 19  1  0
M  END
