
     RDKit          3D

 19 21  0  0  0  0  0  0  0  0999 V2000
   -0.3520    1.6589   -0.9055 O   0  0  0  0  0  0  0  0  0  0  0  0
   -0.0095    0.3291   -0.5442 C   0  0  0  0  0  0  0  0  0  0  0  0
   -1.0531   -0.6428   -0.9997 C   0  0  0  0  0  0  0  0  0  0  0  0
   -2.1878   -0.0928   -0.0502 C   0  0  0  0  0  0  0  0  0  0  0  0
   -1.3671   -0.0803    1.2293 C   0  0  0  0  0  0  0  0  0  0  0  0
   -0.0983    0.1541    0.9628 C   0  0  0  0  0  0  0  0  0  0  0  0
    1.3830    0.3827    0.9454 C   0  0  0  0  0  0  0  0  0  0  0  0
    2.1494   -0.8220    0.3909 C   0  0  0  0  0  0  0  0  0  0  0  0
    1.4214    0.0501   -0.5141 C   0  0  0  0  0  0  0  0  0  0  0  0
    0.4927    2.1572   -1.0663 H   0  0  0  0  0  0  0  0  0  0  0  0
   -0.7916   -1.6714   -0.6846 H   0  0  0  0  0  0  0  0  0  0  0  0
   -1.3618   -0.5395   -2.0413 H   0  0  0  0  0  0  0  0  0  0  0  0
   -2.9402   -0.8546    0.0417 H   0  0  0  0  0  0  0  0  0  0  0  0
   -2.4283    0.8832   -0.4232 H   0  0  0  0  0  0  0  0  0  0  0  0
   -1.7846   -0.2443    2.2242 H   0  0  0  0  0  0  0  0  0  0  0  0
    1.8789    1.1898    1.4207 H   0  0  0  0  0  0  0  0  0  0  0  0
    3.2337   -0.7514    0.4502 H   0  0  0  0  0  0  0  0  0  0  0  0
    1.7435   -1.7768    0.7833 H   0  0  0  0  0  0  0  0  0  0  0  0
    2.0718    0.6709   -1.2192 H   0  0  0  0  0  0  0  0  0  0  0  0
  1  2  1  0
  2  3  1  0
  3  4  1  0
  4  5  1  0
  5  6  2  0
  6  7  1  0
  7  8  1  0
  8  9  1  0
  6  2  1  0
  9  7  1  0
  9  2  1  0
  1 10  1  0
  3 11  1  0
  3 12  1  0
  4 13  1  0
  4 14  1  0
  5 15  1  0
  7 16  1  0
  8 17  1  0
  8 18  1  0
  9 19  1  0
M  END
