
     RDKit          3D

 21 23  0  0  0  0  0  0  0  0999 V2000
    0.1310    2.1199   -0.8488 O   0  0  0  0  0  0  0  0  0  0  0  0
    0.3711    0.9087   -0.4026 C   0  0  0  0  0  0  0  0  0  0  0  0
    1.7667    0.6059    0.1207 C   0  0  0  0  0  0  0  0  0  0  0  0
    1.0370   -0.5233    0.8643 C   0  0  0  0  0  0  0  0  0  0  0  0
    0.6330   -1.3800   -0.2750 C   0  0  0  0  0  0  0  0  0  0  0  0
   -0.1134   -0.3195   -1.1096 C   0  0  0  0  0  0  0  0  0  0  0  0
   -1.5461   -0.3987   -0.6628 C   0  0  0  0  0  0  0  0  0  0  0  0
   -1.4137   -0.0951    0.8373 C   0  0  0  0  0  0  0  0  0  0  0  0
   -0.0769    0.5267    1.0150 C   0  0  0  0  0  0  0  0  0  0  0  0
   -0.7363    2.5302   -0.7370 H   0  0  0  0  0  0  0  0  0  0  0  0
    2.1116    1.3406    0.8414 H   0  0  0  0  0  0  0  0  0  0  0  0
    2.4354    0.2831   -0.6692 H   0  0  0  0  0  0  0  0  0  0  0  0
    1.4792   -0.9044    1.7429 H   0  0  0  0  0  0  0  0  0  0  0  0
    0.0056   -2.2328   -0.0449 H   0  0  0  0  0  0  0  0  0  0  0  0
    1.5318   -1.6346   -0.8869 H   0  0  0  0  0  0  0  0  0  0  0  0
    0.0716   -0.3866   -2.1591 H   0  0  0  0  0  0  0  0  0  0  0  0
   -2.2118    0.2992   -1.1679 H   0  0  0  0  0  0  0  0  0  0  0  0
   -1.9101   -1.4489   -0.7924 H   0  0  0  0  0  0  0  0  0  0  0  0
   -2.2500    0.5279    1.1861 H   0  0  0  0  0  0  0  0  0  0  0  0
   -1.3943   -1.0842    1.3723 H   0  0  0  0  0  0  0  0  0  0  0  0
    0.0787    1.2660    1.7761 H   0  0  0  0  0  0  0  0  0  0  0  0
  1  2  1  0
  2  3  1  0
  3  4  1  0
  4  5  1  0
  5  6  1  0
  6  7  1  0
  7  8  1  0
  8  9  1  0
  6  2  1  0
  9  2  1  0
  9  4  1  0
  1 10  1  0
  3 11  1  0
  3 12  1  0
  4 13  1  0
  5 14  1  0
  5 15  1  0
  6 16  1  0
  7 17  1  0
  7 18  1  0
  8 19  1  0
  8 20  1  0
  9 21  1  0
M  END
