
     RDKit          3D

 19 21  0  0  0  0  0  0  0  0999 V2000
   -0.1447    1.0248   -1.7198 O   0  0  0  0  0  0  0  0  0  0  0  0
   -0.6604    0.9903   -0.4538 C   0  0  0  0  0  0  0  0  0  0  0  0
   -1.7998    0.0166   -0.2209 C   0  0  0  0  0  0  0  0  0  0  0  0
   -1.1579   -0.5619    0.9933 C   0  0  0  0  0  0  0  0  0  0  0  0
   -0.2781    0.1917    1.8945 C   0  0  0  0  0  0  0  0  0  0  0  0
    0.1413    0.1073    0.4921 C   0  0  0  0  0  0  0  0  0  0  0  0
    1.1267   -0.8617   -0.0392 C   0  0  0  0  0  0  0  0  0  0  0  0
    2.2451   -0.3183   -0.8398 C   0  0  0  0  0  0  0  0  0  0  0  0
    2.4320   -0.8697    0.4252 O   0  0  0  0  0  0  0  0  0  0  0  0
   -0.8027    1.3531   -2.3802 H   0  0  0  0  0  0  0  0  0  0  0  0
   -0.8799    1.9685    0.0320 H   0  0  0  0  0  0  0  0  0  0  0  0
   -1.8004   -0.7243   -1.0713 H   0  0  0  0  0  0  0  0  0  0  0  0
   -2.7938    0.4429   -0.1250 H   0  0  0  0  0  0  0  0  0  0  0  0
   -1.1877   -1.6423    1.0843 H   0  0  0  0  0  0  0  0  0  0  0  0
    0.2816   -0.3696    2.6388 H   0  0  0  0  0  0  0  0  0  0  0  0
   -0.5579    1.2251    2.2506 H   0  0  0  0  0  0  0  0  0  0  0  0
    0.7608   -1.8791   -0.3463 H   0  0  0  0  0  0  0  0  0  0  0  0
    2.3641    0.7899   -0.9513 H   0  0  0  0  0  0  0  0  0  0  0  0
    2.7116   -0.8833   -1.6631 H   0  0  0  0  0  0  0  0  0  0  0  0
  1  2  1  0
  2  3  1  0
  3  4  1  0
  4  5  1  0
  5  6  1  0
  6  7  1  0
  7  8  1  0
  8  9  1  0
  6  2  1  0
  9  7  1  0
  6  4  1  0
  1 10  1  0
  2 11  1  0
  3 12  1  0
  3 13  1  0
  4 14  1  0
  5 15  1  0
  5 16  1  0
  7 17  1  0
  8 18  1  0
  8 19  1  0
M  END
