
     RDKit          3D

 19 20  0  0  0  0  0  0  0  0999 V2000
    1.9193   -1.1193   -0.3900 O   0  0  0  0  0  0  0  0  0  0  0  0
    1.1556    0.0210   -0.5802 C   0  0  0  0  0  0  0  0  0  0  0  0
   -0.2117   -0.3328   -1.1738 C   0  0  0  0  0  0  0  0  0  0  0  0
   -0.8849   -1.0593   -0.0482 C   0  0  0  0  0  0  0  0  0  0  0  0
   -0.0953   -0.7731    1.2104 C   0  0  0  0  0  0  0  0  0  0  0  0
    0.6645    0.4910    0.7904 C   0  0  0  0  0  0  0  0  0  0  0  0
   -0.1625    1.5623    0.7247 O   0  0  0  0  0  0  0  0  0  0  0  0
   -1.0843    1.6068   -0.2542 C   0  0  0  0  0  0  0  0  0  0  0  0
   -0.8329    0.9016   -1.3983 O   0  0  0  0  0  0  0  0  0  0  0  0
    2.7235   -0.8423    0.1185 H   0  0  0  0  0  0  0  0  0  0  0  0
    1.6656    0.7969   -1.1390 H   0  0  0  0  0  0  0  0  0  0  0  0
   -0.1343   -0.8857   -2.1038 H   0  0  0  0  0  0  0  0  0  0  0  0
   -1.9312   -0.7275    0.1264 H   0  0  0  0  0  0  0  0  0  0  0  0
   -0.9049   -2.1419   -0.2974 H   0  0  0  0  0  0  0  0  0  0  0  0
    0.6466   -1.6018    1.3649 H   0  0  0  0  0  0  0  0  0  0  0  0
   -0.7094   -0.5826    2.0877 H   0  0  0  0  0  0  0  0  0  0  0  0
    1.5159    0.6973    1.4325 H   0  0  0  0  0  0  0  0  0  0  0  0
   -2.1169    1.3031    0.0906 H   0  0  0  0  0  0  0  0  0  0  0  0
   -1.2226    2.6863   -0.5612 H   0  0  0  0  0  0  0  0  0  0  0  0
  1  2  1  0
  2  3  1  0
  3  4  1  0
  4  5  1  0
  5  6  1  0
  6  7  1  0
  7  8  1  0
  8  9  1  0
  6  2  1  0
  9  3  1  0
  1 10  1  0
  2 11  1  0
  3 12  1  0
  4 13  1  0
  4 14  1  0
  5 15  1  0
  5 16  1  0
  6 17  1  0
  8 18  1  0
  8 19  1  0
M  END
