
     RDKit          3D

 19 20  0  0  0  0  0  0  0  0999 V2000
   -0.6140   -2.2943   -0.8351 O   0  0  0  0  0  0  0  0  0  0  0  0
   -0.1826   -1.0128   -0.6378 C   0  0  0  0  0  0  0  0  0  0  0  0
    1.0781   -0.9416    0.2310 C   0  0  0  0  0  0  0  0  0  0  0  0
    1.6264    0.4380    0.0621 C   0  0  0  0  0  0  0  0  0  0  0  0
    1.4439    1.2736    1.1657 O   0  0  0  0  0  0  0  0  0  0  0  0
    0.7237    1.4847   -0.0323 C   0  0  0  0  0  0  0  0  0  0  0  0
   -0.7441    1.2738   -0.0017 C   0  0  0  0  0  0  0  0  0  0  0  0
   -1.1942   -0.1378    0.0855 C   0  0  0  0  0  0  0  0  0  0  0  0
   -1.4162   -0.5927    1.3765 O   0  0  0  0  0  0  0  0  0  0  0  0
   -1.2466   -2.3054   -1.5803 H   0  0  0  0  0  0  0  0  0  0  0  0
    0.0004   -0.5198   -1.6205 H   0  0  0  0  0  0  0  0  0  0  0  0
    0.7010   -1.1263    1.2797 H   0  0  0  0  0  0  0  0  0  0  0  0
    1.7776   -1.7514    0.0184 H   0  0  0  0  0  0  0  0  0  0  0  0
    2.6156    0.4628   -0.4687 H   0  0  0  0  0  0  0  0  0  0  0  0
    1.0275    2.4704   -0.4950 H   0  0  0  0  0  0  0  0  0  0  0  0
   -1.2562    1.8614    0.8109 H   0  0  0  0  0  0  0  0  0  0  0  0
   -1.1714    1.7061   -0.9524 H   0  0  0  0  0  0  0  0  0  0  0  0
   -2.1609   -0.2831   -0.4746 H   0  0  0  0  0  0  0  0  0  0  0  0
   -1.0078   -0.0054    2.0685 H   0  0  0  0  0  0  0  0  0  0  0  0
  1  2  1  0
  2  3  1  0
  3  4  1  0
  4  5  1  0
  5  6  1  0
  6  7  1  0
  7  8  1  0
  8  9  1  0
  8  2  1  0
  6  4  1  0
  1 10  1  0
  2 11  1  0
  3 12  1  0
  3 13  1  0
  4 14  1  0
  6 15  1  0
  7 16  1  0
  7 17  1  0
  8 18  1  0
  9 19  1  0
M  END
