
     RDKit          3D

 17 19  0  0  0  0  0  0  0  0999 V2000
    1.5935    1.5872    0.0873 O   0  0  0  0  0  0  0  0  0  0  0  0
    0.8829    0.5983   -0.5678 C   0  0  0  0  0  0  0  0  0  0  0  0
    0.9247   -0.7131    0.1505 C   0  0  0  0  0  0  0  0  0  0  0  0
    1.6276   -0.6337    1.3358 O   0  0  0  0  0  0  0  0  0  0  0  0
   -0.5093   -1.1457    0.3344 C   0  0  0  0  0  0  0  0  0  0  0  0
   -1.4957   -0.0941    0.7705 C   0  0  0  0  0  0  0  0  0  0  0  0
   -1.1687    1.2462    0.6062 O   0  0  0  0  0  0  0  0  0  0  0  0
   -0.5888    0.9847   -0.6355 C   0  0  0  0  0  0  0  0  0  0  0  0
   -1.2497   -0.3422   -0.6406 C   0  0  0  0  0  0  0  0  0  0  0  0
    1.1013    2.4479   -0.0955 H   0  0  0  0  0  0  0  0  0  0  0  0
    1.2192    0.4853   -1.6172 H   0  0  0  0  0  0  0  0  0  0  0  0
    1.4008   -1.4730   -0.5138 H   0  0  0  0  0  0  0  0  0  0  0  0
    2.2401   -1.4158    1.4140 H   0  0  0  0  0  0  0  0  0  0  0  0
   -0.7433   -2.1742    0.5949 H   0  0  0  0  0  0  0  0  0  0  0  0
   -2.4388   -0.3825    1.2591 H   0  0  0  0  0  0  0  0  0  0  0  0
   -0.8585    1.7197   -1.3855 H   0  0  0  0  0  0  0  0  0  0  0  0
   -1.9372   -0.6949   -1.3785 H   0  0  0  0  0  0  0  0  0  0  0  0
  1  2  1  0
  2  3  1  0
  3  4  1  0
  3  5  1  0
  5  6  1  0
  6  7  1  0
  7  8  1  0
  8  9  1  0
  8  2  1  0
  9  5  1  0
  9  6  1  0
  1 10  1  0
  2 11  1  0
  3 12  1  0
  4 13  1  0
  5 14  1  0
  6 15  1  0
  8 16  1  0
  9 17  1  0
M  END
