
     RDKit          3D

 21 22  0  0  0  0  0  0  0  0999 V2000
    0.0935    1.1782    1.8707 O   0  0  0  0  0  0  0  0  0  0  0  0
   -0.4793    0.8775    0.6749 C   0  0  0  0  0  0  0  0  0  0  0  0
   -1.5040   -0.2539    0.7597 C   0  0  0  0  0  0  0  0  0  0  0  0
   -1.6705   -0.6338   -0.6919 C   0  0  0  0  0  0  0  0  0  0  0  0
   -0.5241   -0.0402   -1.4516 C   0  0  0  0  0  0  0  0  0  0  0  0
    0.4571    0.2929   -0.3465 C   0  0  0  0  0  0  0  0  0  0  0  0
    1.2186   -0.9235    0.0601 C   0  0  0  0  0  0  0  0  0  0  0  0
    2.3268    0.1279    0.1080 C   0  0  0  0  0  0  0  0  0  0  0  0
    1.5558    1.0080   -0.6864 O   0  0  0  0  0  0  0  0  0  0  0  0
    0.0837    2.1839    1.9686 H   0  0  0  0  0  0  0  0  0  0  0  0
   -1.0116    1.7210    0.1817 H   0  0  0  0  0  0  0  0  0  0  0  0
   -1.0233   -1.0886    1.3387 H   0  0  0  0  0  0  0  0  0  0  0  0
   -2.4205    0.0826    1.2411 H   0  0  0  0  0  0  0  0  0  0  0  0
   -2.6303   -0.2147   -1.0993 H   0  0  0  0  0  0  0  0  0  0  0  0
   -1.6240   -1.7380   -0.8351 H   0  0  0  0  0  0  0  0  0  0  0  0
   -0.0365   -0.7082   -2.1554 H   0  0  0  0  0  0  0  0  0  0  0  0
   -0.8333    0.9184   -1.9511 H   0  0  0  0  0  0  0  0  0  0  0  0
    0.9931   -1.3743    1.0258 H   0  0  0  0  0  0  0  0  0  0  0  0
    1.3560   -1.6748   -0.7667 H   0  0  0  0  0  0  0  0  0  0  0  0
    2.4553    0.5340    1.1344 H   0  0  0  0  0  0  0  0  0  0  0  0
    3.2175   -0.2745   -0.3796 H   0  0  0  0  0  0  0  0  0  0  0  0
  1  2  1  0
  2  3  1  0
  3  4  1  0
  4  5  1  0
  5  6  1  0
  6  7  1  0
  7  8  1  0
  8  9  1  0
  6  2  1  0
  9  6  1  0
  1 10  1  0
  2 11  1  0
  3 12  1  0
  3 13  1  0
  4 14  1  0
  4 15  1  0
  5 16  1  0
  5 17  1  0
  7 18  1  0
  7 19  1  0
  8 20  1  0
  8 21  1  0
M  END
