
     RDKit          3D

 15 16  0  0  0  0  0  0  0  0999 V2000
    1.8579   -1.1952   -0.7313 O   0  0  0  0  0  0  0  0  0  0  0  0
    0.9783   -0.5355    0.1318 C   0  0  0  0  0  0  0  0  0  0  0  0
   -0.1693   -1.3856    0.5034 C   0  0  0  0  0  0  0  0  0  0  0  0
   -1.3223   -0.8417    0.1926 C   0  0  0  0  0  0  0  0  0  0  0  0
   -1.1279    0.4843   -0.4489 C   0  0  0  0  0  0  0  0  0  0  0  0
   -0.4753    1.5191    0.3967 C   0  0  0  0  0  0  0  0  0  0  0  0
    0.3262    0.6476   -0.5288 C   0  0  0  0  0  0  0  0  0  0  0  0
    2.7035   -0.6434   -0.7147 H   0  0  0  0  0  0  0  0  0  0  0  0
    1.5333   -0.1619    1.0155 H   0  0  0  0  0  0  0  0  0  0  0  0
   -0.0769   -2.3634    0.9855 H   0  0  0  0  0  0  0  0  0  0  0  0
   -2.3038   -1.2884    0.3731 H   0  0  0  0  0  0  0  0  0  0  0  0
   -1.7555    0.7654   -1.3071 H   0  0  0  0  0  0  0  0  0  0  0  0
   -0.3982    1.3600    1.4908 H   0  0  0  0  0  0  0  0  0  0  0  0
   -0.4980    2.5788    0.1118 H   0  0  0  0  0  0  0  0  0  0  0  0
    0.7282    1.0597   -1.4706 H   0  0  0  0  0  0  0  0  0  0  0  0
  1  2  1  0
  2  3  1  0
  3  4  2  0
  4  5  1  0
  5  6  1  0
  6  7  1  0
  7  2  1  0
  7  5  1  0
  1  8  1  0
  2  9  1  0
  3 10  1  0
  4 11  1  0
  5 12  1  0
  6 13  1  0
  6 14  1  0
  7 15  1  0
M  END
