
     RDKit          3D

 17 19  0  0  0  0  0  0  0  0999 V2000
    2.5092   -0.1042   -0.5859 O   0  0  0  0  0  0  0  0  0  0  0  0
    1.2482   -0.6659   -0.4841 C   0  0  0  0  0  0  0  0  0  0  0  0
    0.6433   -0.8460    0.9214 C   0  0  0  0  0  0  0  0  0  0  0  0
    0.1471    0.0711   -0.0629 C   0  0  0  0  0  0  0  0  0  0  0  0
   -1.2545    0.1241   -0.6037 C   0  0  0  0  0  0  0  0  0  0  0  0
   -1.9201   -1.0662   -0.5328 O   0  0  0  0  0  0  0  0  0  0  0  0
   -1.4225    0.9770    0.6422 C   0  0  0  0  0  0  0  0  0  0  0  0
   -0.9244    2.1668    0.8978 O   0  0  0  0  0  0  0  0  0  0  0  0
   -0.0671    1.5332    0.0930 C   0  0  0  0  0  0  0  0  0  0  0  0
    2.8071    0.2832    0.2508 H   0  0  0  0  0  0  0  0  0  0  0  0
    1.1369   -1.5960   -1.0907 H   0  0  0  0  0  0  0  0  0  0  0  0
    1.3315   -0.4716    1.7268 H   0  0  0  0  0  0  0  0  0  0  0  0
    0.0965   -1.7497    1.1586 H   0  0  0  0  0  0  0  0  0  0  0  0
   -1.2808    0.6701   -1.5564 H   0  0  0  0  0  0  0  0  0  0  0  0
   -1.6559   -1.5955   -1.3531 H   0  0  0  0  0  0  0  0  0  0  0  0
   -1.2705    0.2727    1.5247 H   0  0  0  0  0  0  0  0  0  0  0  0
   -0.1240    1.9970   -0.9458 H   0  0  0  0  0  0  0  0  0  0  0  0
  1  2  1  0
  2  3  1  0
  3  4  1  0
  4  5  1  0
  5  6  1  0
  5  7  1  0
  7  8  1  0
  8  9  1  0
  4  2  1  0
  9  7  1  0
  9  4  1  0
  1 10  1  0
  2 11  1  0
  3 12  1  0
  3 13  1  0
  5 14  1  0
  6 15  1  0
  7 16  1  0
  9 17  1  0
M  END
