
     RDKit          3D

 21 21  0  0  0  0  0  0  0  0999 V2000
   -2.7990   -0.6778    0.0632 O   0  0  0  0  0  0  0  0  0  0  0  0
   -1.4476   -0.3759   -0.0869 C   0  0  0  0  0  0  0  0  0  0  0  0
   -0.6826   -1.2725    0.8629 C   0  0  0  0  0  0  0  0  0  0  0  0
    0.6175   -1.5805    0.2192 C   0  0  0  0  0  0  0  0  0  0  0  0
    1.6999   -0.9386   -0.1619 C   0  0  0  0  0  0  0  0  0  0  0  0
    2.1908    0.4408   -0.1471 C   0  0  0  0  0  0  0  0  0  0  0  0
    1.1886    1.4561   -0.5342 C   0  0  0  0  0  0  0  0  0  0  0  0
   -0.1109    1.7112   -0.3704 C   0  0  0  0  0  0  0  0  0  0  0  0
   -1.2248    1.0507    0.3216 C   0  0  0  0  0  0  0  0  0  0  0  0
   -3.2596   -0.8325   -0.7894 H   0  0  0  0  0  0  0  0  0  0  0  0
   -1.1854   -0.5548   -1.1434 H   0  0  0  0  0  0  0  0  0  0  0  0
   -1.2139   -2.2059    1.1054 H   0  0  0  0  0  0  0  0  0  0  0  0
   -0.5409   -0.7175    1.8310 H   0  0  0  0  0  0  0  0  0  0  0  0
    0.7059   -2.6519   -0.0060 H   0  0  0  0  0  0  0  0  0  0  0  0
    2.4136   -1.6100   -0.5997 H   0  0  0  0  0  0  0  0  0  0  0  0
    3.0428    0.5097   -0.8750 H   0  0  0  0  0  0  0  0  0  0  0  0
    2.6533    0.6567    0.8410 H   0  0  0  0  0  0  0  0  0  0  0  0
    1.6485    2.2340   -1.1341 H   0  0  0  0  0  0  0  0  0  0  0  0
   -0.3791    2.6402   -0.8864 H   0  0  0  0  0  0  0  0  0  0  0  0
   -2.1664    1.6069    0.0632 H   0  0  0  0  0  0  0  0  0  0  0  0
   -1.1505    1.1114    1.4270 H   0  0  0  0  0  0  0  0  0  0  0  0
  1  2  1  0
  2  3  1  0
  3  4  1  0
  4  5  2  3
  5  6  1  0
  6  7  1  0
  7  8  2  3
  8  9  1  0
  9  2  1  0
  1 10  1  0
  2 11  1  0
  3 12  1  0
  3 13  1  0
  4 14  1  0
  5 15  1  0
  6 16  1  0
  6 17  1  0
  7 18  1  0
  8 19  1  0
  9 20  1  0
  9 21  1  0
M  END
