
     RDKit          3D

 21 22  0  0  0  0  0  0  0  0999 V2000
    2.1389    0.8109   -0.1993 O   0  0  0  0  0  0  0  0  0  0  0  0
    1.3639   -0.2784   -0.6582 C   0  0  0  0  0  0  0  0  0  0  0  0
    0.9896   -1.1141    0.5714 C   0  0  0  0  0  0  0  0  0  0  0  0
   -0.4470   -0.7108    0.8204 C   0  0  0  0  0  0  0  0  0  0  0  0
   -0.5645    0.7718    1.0949 C   0  0  0  0  0  0  0  0  0  0  0  0
   -0.2875    1.4560   -0.2539 C   0  0  0  0  0  0  0  0  0  0  0  0
    0.0747    0.2719   -1.1511 C   0  0  0  0  0  0  0  0  0  0  0  0
   -0.9544   -0.7443   -0.6334 C   0  0  0  0  0  0  0  0  0  0  0  0
   -2.1998   -0.1814   -0.7430 O   0  0  0  0  0  0  0  0  0  0  0  0
    2.2148    0.8265    0.7752 H   0  0  0  0  0  0  0  0  0  0  0  0
    1.9349   -0.8672   -1.3941 H   0  0  0  0  0  0  0  0  0  0  0  0
    0.9594   -2.1684    0.2102 H   0  0  0  0  0  0  0  0  0  0  0  0
    1.6525   -0.9433    1.4139 H   0  0  0  0  0  0  0  0  0  0  0  0
   -0.9999   -1.3500    1.4799 H   0  0  0  0  0  0  0  0  0  0  0  0
   -1.6249    0.9775    1.3284 H   0  0  0  0  0  0  0  0  0  0  0  0
    0.1021    1.1312    1.8767 H   0  0  0  0  0  0  0  0  0  0  0  0
    0.5656    2.1491   -0.1874 H   0  0  0  0  0  0  0  0  0  0  0  0
   -1.1610    1.9862   -0.6338 H   0  0  0  0  0  0  0  0  0  0  0  0
   -0.0098    0.4731   -2.1980 H   0  0  0  0  0  0  0  0  0  0  0  0
   -0.8342   -1.7247   -1.0840 H   0  0  0  0  0  0  0  0  0  0  0  0
   -2.9134   -0.7716   -0.4344 H   0  0  0  0  0  0  0  0  0  0  0  0
  1  2  1  0
  2  3  1  0
  3  4  1  0
  4  5  1  0
  5  6  1  0
  6  7  1  0
  7  8  1  0
  8  9  1  0
  7  2  1  0
  8  4  1  0
  1 10  1  0
  2 11  1  0
  3 12  1  0
  3 13  1  0
  4 14  1  0
  5 15  1  0
  5 16  1  0
  6 17  1  0
  6 18  1  0
  7 19  1  0
  8 20  1  0
  9 21  1  0
M  END
