
     RDKit          3D

 18 19  0  0  0  0  0  0  0  0999 V2000
    1.9592    1.4156   -0.0761 O   0  0  0  0  0  0  0  0  0  0  0  0
    1.3292    0.2822   -0.4907 C   0  0  0  0  0  0  0  0  0  0  0  0
    1.3116   -0.8344    0.5235 C   0  0  0  0  0  0  0  0  0  0  0  0
    0.2210   -1.6183    0.2671 O   0  0  0  0  0  0  0  0  0  0  0  0
   -0.6505   -0.9624   -0.5522 C   0  0  0  0  0  0  0  0  0  0  0  0
   -1.8526   -0.3700    0.1804 C   0  0  0  0  0  0  0  0  0  0  0  0
   -0.9710    0.8550    0.4514 C   0  0  0  0  0  0  0  0  0  0  0  0
   -0.1539    0.4526   -0.7467 C   0  0  0  0  0  0  0  0  0  0  0  0
    1.6234    1.8447    0.7252 H   0  0  0  0  0  0  0  0  0  0  0  0
    1.7942   -0.0961   -1.3984 H   0  0  0  0  0  0  0  0  0  0  0  0
    1.3157   -0.4569    1.5742 H   0  0  0  0  0  0  0  0  0  0  0  0
    2.2236   -1.4637    0.4059 H   0  0  0  0  0  0  0  0  0  0  0  0
   -0.8831   -1.4086   -1.5322 H   0  0  0  0  0  0  0  0  0  0  0  0
   -2.7201   -0.1729   -0.4669 H   0  0  0  0  0  0  0  0  0  0  0  0
   -2.0867   -0.9325    1.0971 H   0  0  0  0  0  0  0  0  0  0  0  0
   -0.4627    0.7766    1.4203 H   0  0  0  0  0  0  0  0  0  0  0  0
   -1.6136    1.7590    0.3124 H   0  0  0  0  0  0  0  0  0  0  0  0
   -0.3835    0.9299   -1.6944 H   0  0  0  0  0  0  0  0  0  0  0  0
  1  2  1  0
  2  3  1  0
  3  4  1  0
  4  5  1  0
  5  6  1  0
  6  7  1  0
  7  8  1  0
  8  2  1  0
  8  5  1  0
  1  9  1  0
  2 10  1  0
  3 11  1  0
  3 12  1  0
  5 13  1  0
  6 14  1  0
  6 15  1  0
  7 16  1  0
  7 17  1  0
  8 18  1  0
M  END
