
     RDKit          3D

 19 20  0  0  0  0  0  0  0  0999 V2000
    1.9085   -1.4698   -0.0575 O   0  0  0  0  0  0  0  0  0  0  0  0
    1.1499   -0.3678   -0.3081 C   0  0  0  0  0  0  0  0  0  0  0  0
    1.7943    0.9354    0.1486 C   0  0  0  0  0  0  0  0  0  0  0  0
    0.7489    1.8383    0.1528 O   0  0  0  0  0  0  0  0  0  0  0  0
   -0.4248    1.1663    0.3636 C   0  0  0  0  0  0  0  0  0  0  0  0
   -1.1829    1.1079   -0.8107 O   0  0  0  0  0  0  0  0  0  0  0  0
   -2.0574    0.0339   -0.6494 C   0  0  0  0  0  0  0  0  0  0  0  0
   -1.2395   -1.0537    0.0582 C   0  0  0  0  0  0  0  0  0  0  0  0
   -0.0923   -0.2939    0.5885 C   0  0  0  0  0  0  0  0  0  0  0  0
    2.8107   -1.3237   -0.4394 H   0  0  0  0  0  0  0  0  0  0  0  0
    0.7990   -0.2548   -1.3369 H   0  0  0  0  0  0  0  0  0  0  0  0
    2.6259    1.2389   -0.5002 H   0  0  0  0  0  0  0  0  0  0  0  0
    2.1438    0.7332    1.2005 H   0  0  0  0  0  0  0  0  0  0  0  0
   -1.0471    1.5821    1.1811 H   0  0  0  0  0  0  0  0  0  0  0  0
   -2.4265   -0.3672   -1.5886 H   0  0  0  0  0  0  0  0  0  0  0  0
   -2.8497    0.3388    0.0624 H   0  0  0  0  0  0  0  0  0  0  0  0
   -1.8261   -1.4846    0.9064 H   0  0  0  0  0  0  0  0  0  0  0  0
   -0.9996   -1.8892   -0.6122 H   0  0  0  0  0  0  0  0  0  0  0  0
    0.1649   -0.4700    1.6410 H   0  0  0  0  0  0  0  0  0  0  0  0
  1  2  1  0
  2  3  1  0
  3  4  1  0
  4  5  1  0
  5  6  1  0
  6  7  1  0
  7  8  1  0
  8  9  1  0
  9  2  1  0
  9  5  1  0
  1 10  1  0
  2 11  1  0
  3 12  1  0
  3 13  1  0
  5 14  1  0
  7 15  1  0
  7 16  1  0
  8 17  1  0
  8 18  1  0
  9 19  1  0
M  END
