
     RDKit          3D

 17 19  0  0  0  0  0  0  0  0999 V2000
    2.0795   -0.8094    0.4450 O   0  0  0  0  0  0  0  0  0  0  0  0
    1.1484   -0.0203   -0.1687 C   0  0  0  0  0  0  0  0  0  0  0  0
    0.1213    0.5520    0.8294 C   0  0  0  0  0  0  0  0  0  0  0  0
   -0.7084    1.2696   -0.2540 C   0  0  0  0  0  0  0  0  0  0  0  0
   -1.1236   -0.0691   -0.9025 C   0  0  0  0  0  0  0  0  0  0  0  0
   -1.8553   -0.5196    0.2312 O   0  0  0  0  0  0  0  0  0  0  0  0
   -0.7150   -0.6522    1.0750 C   0  0  0  0  0  0  0  0  0  0  0  0
   -0.1461   -1.7116    0.3108 O   0  0  0  0  0  0  0  0  0  0  0  0
    0.0875   -0.9170   -0.8442 C   0  0  0  0  0  0  0  0  0  0  0  0
    2.9161   -0.2990    0.6271 H   0  0  0  0  0  0  0  0  0  0  0  0
    1.5226    0.7426   -0.8384 H   0  0  0  0  0  0  0  0  0  0  0  0
    0.4897    1.1323    1.6004 H   0  0  0  0  0  0  0  0  0  0  0  0
   -0.0659    1.8541   -0.9034 H   0  0  0  0  0  0  0  0  0  0  0  0
   -1.5506    1.7807    0.1997 H   0  0  0  0  0  0  0  0  0  0  0  0
   -1.6739    0.0181   -1.7916 H   0  0  0  0  0  0  0  0  0  0  0  0
   -0.9452   -0.9153    2.0777 H   0  0  0  0  0  0  0  0  0  0  0  0
    0.4189   -1.4357   -1.6937 H   0  0  0  0  0  0  0  0  0  0  0  0
  1  2  1  0
  2  3  1  0
  3  4  1  0
  4  5  1  0
  5  6  1  0
  6  7  1  0
  7  8  1  0
  8  9  1  0
  9  2  1  0
  7  3  1  0
  9  5  1  0
  1 10  1  0
  2 11  1  0
  3 12  1  0
  4 13  1  0
  4 14  1  0
  5 15  1  0
  7 16  1  0
  9 17  1  0
M  END
