
     RDKit          3D

 17 19  0  0  0  0  0  0  0  0999 V2000
   -1.4149   -0.9981   -1.3844 O   0  0  0  0  0  0  0  0  0  0  0  0
   -1.1298    0.1970   -0.7806 C   0  0  0  0  0  0  0  0  0  0  0  0
   -1.6299    0.3997    0.6877 C   0  0  0  0  0  0  0  0  0  0  0  0
   -0.2843    0.2147    0.3872 C   0  0  0  0  0  0  0  0  0  0  0  0
    0.9293    0.9849    0.6304 C   0  0  0  0  0  0  0  0  0  0  0  0
    1.8123    0.5549   -0.5119 C   0  0  0  0  0  0  0  0  0  0  0  0
    1.5839   -0.7555   -0.5246 C   0  0  0  0  0  0  0  0  0  0  0  0
    0.6568   -0.8898    0.6456 C   0  0  0  0  0  0  0  0  0  0  0  0
    1.2799   -0.0167    1.5746 O   0  0  0  0  0  0  0  0  0  0  0  0
   -1.9977   -1.5666   -0.8334 H   0  0  0  0  0  0  0  0  0  0  0  0
   -1.1586    1.0966   -1.4230 H   0  0  0  0  0  0  0  0  0  0  0  0
   -2.2848   -0.4263    1.0229 H   0  0  0  0  0  0  0  0  0  0  0  0
   -2.0627    1.3970    0.8793 H   0  0  0  0  0  0  0  0  0  0  0  0
    0.9579    1.9922    0.9430 H   0  0  0  0  0  0  0  0  0  0  0  0
    2.4340    1.1950   -1.1118 H   0  0  0  0  0  0  0  0  0  0  0  0
    1.9433   -1.5342   -1.1739 H   0  0  0  0  0  0  0  0  0  0  0  0
    0.3654   -1.8448    0.9729 H   0  0  0  0  0  0  0  0  0  0  0  0
  1  2  1  0
  2  3  1  0
  3  4  1  0
  4  5  1  0
  5  6  1  0
  6  7  2  0
  7  8  1  0
  8  9  1  0
  4  2  1  0
  9  5  1  0
  8  4  1  0
  1 10  1  0
  2 11  1  0
  3 12  1  0
  3 13  1  0
  5 14  1  0
  6 15  1  0
  7 16  1  0
  8 17  1  0
M  END
