
     RDKit          3D

 17 18  0  0  0  0  0  0  0  0999 V2000
   -1.6111   -1.4452   -1.1362 O   0  0  0  0  0  0  0  0  0  0  0  0
   -1.1427   -1.0164    0.1031 C   0  0  0  0  0  0  0  0  0  0  0  0
   -1.3624    0.4577    0.3820 C   0  0  0  0  0  0  0  0  0  0  0  0
   -1.9179    1.2472   -0.6358 O   0  0  0  0  0  0  0  0  0  0  0  0
   -0.0235   -0.0841    0.0914 C   0  0  0  0  0  0  0  0  0  0  0  0
    1.0815   -0.0925    1.1028 C   0  0  0  0  0  0  0  0  0  0  0  0
    1.9531    0.8741    0.5421 O   0  0  0  0  0  0  0  0  0  0  0  0
    1.9842    0.3747   -0.7821 C   0  0  0  0  0  0  0  0  0  0  0  0
    0.6320    0.1991   -1.0850 O   0  0  0  0  0  0  0  0  0  0  0  0
   -2.5294   -1.1752   -1.3295 H   0  0  0  0  0  0  0  0  0  0  0  0
   -1.2125   -1.7482    0.9159 H   0  0  0  0  0  0  0  0  0  0  0  0
   -1.7149    0.7152    1.3859 H   0  0  0  0  0  0  0  0  0  0  0  0
   -1.5402    2.1649   -0.5124 H   0  0  0  0  0  0  0  0  0  0  0  0
    1.6540   -1.0498    1.0121 H   0  0  0  0  0  0  0  0  0  0  0  0
    0.7842    0.1527    2.1187 H   0  0  0  0  0  0  0  0  0  0  0  0
    2.4822   -0.6197   -0.7002 H   0  0  0  0  0  0  0  0  0  0  0  0
    2.4831    1.0455   -1.4729 H   0  0  0  0  0  0  0  0  0  0  0  0
  1  2  1  0
  2  3  1  0
  3  4  1  0
  3  5  1  0
  5  6  1  0
  6  7  1  0
  7  8  1  0
  8  9  1  0
  5  2  1  0
  9  5  1  0
  1 10  1  0
  2 11  1  0
  3 12  1  0
  4 13  1  0
  6 14  1  0
  6 15  1  0
  8 16  1  0
  8 17  1  0
M  END
