
     RDKit          3D

 21 21  0  0  0  0  0  0  0  0999 V2000
    1.9659   -1.7770    0.4961 O   0  0  0  0  0  0  0  0  0  0  0  0
    1.2159   -0.9580   -0.3579 C   0  0  0  0  0  0  0  0  0  0  0  0
   -0.1564   -0.9384   -0.0531 C   0  0  0  0  0  0  0  0  0  0  0  0
   -1.4554   -1.4362    0.0990 C   0  0  0  0  0  0  0  0  0  0  0  0
   -2.2429   -0.2969    0.4633 O   0  0  0  0  0  0  0  0  0  0  0  0
   -1.7433    0.9174    0.3144 C   0  0  0  0  0  0  0  0  0  0  0  0
   -0.5877    1.5150    0.4344 O   0  0  0  0  0  0  0  0  0  0  0  0
    0.4805    1.4925   -0.3528 C   0  0  0  0  0  0  0  0  0  0  0  0
    1.6333    0.5337   -0.1010 C   0  0  0  0  0  0  0  0  0  0  0  0
    2.3493   -1.2768    1.2587 H   0  0  0  0  0  0  0  0  0  0  0  0
    1.5546   -1.1760   -1.3921 H   0  0  0  0  0  0  0  0  0  0  0  0
   -0.4274   -0.2262   -0.8913 H   0  0  0  0  0  0  0  0  0  0  0  0
   -0.0628   -0.5554    1.0086 H   0  0  0  0  0  0  0  0  0  0  0  0
   -1.8767   -1.9290   -0.7997 H   0  0  0  0  0  0  0  0  0  0  0  0
   -1.6599   -2.1581    0.9448 H   0  0  0  0  0  0  0  0  0  0  0  0
   -2.1489    1.2593   -0.7011 H   0  0  0  0  0  0  0  0  0  0  0  0
   -2.4215    1.5445    0.9976 H   0  0  0  0  0  0  0  0  0  0  0  0
    0.9934    2.4955   -0.1688 H   0  0  0  0  0  0  0  0  0  0  0  0
    0.2820    1.5936   -1.4650 H   0  0  0  0  0  0  0  0  0  0  0  0
    1.8319    0.5719    0.9879 H   0  0  0  0  0  0  0  0  0  0  0  0
    2.4761    0.8048   -0.7221 H   0  0  0  0  0  0  0  0  0  0  0  0
  1  2  1  0
  2  3  1  0
  3  4  1  0
  4  5  1  0
  5  6  1  0
  6  7  1  0
  7  8  1  0
  8  9  1  0
  9  2  1  0
  1 10  1  0
  2 11  1  0
  3 12  1  0
  3 13  1  0
  4 14  1  0
  4 15  1  0
  6 16  1  0
  6 17  1  0
  8 18  1  0
  8 19  1  0
  9 20  1  0
  9 21  1  0
M  END
