
     RDKit          3D

 19 21  0  0  0  0  0  0  0  0999 V2000
    0.5973   -1.5767    1.4446 O   0  0  0  0  0  0  0  0  0  0  0  0
    0.6947   -1.1664    0.0935 C   0  0  0  0  0  0  0  0  0  0  0  0
   -0.7191   -0.8072   -0.3234 C   0  0  0  0  0  0  0  0  0  0  0  0
   -1.2070    0.2037    0.7232 C   0  0  0  0  0  0  0  0  0  0  0  0
   -0.5310    1.2595   -0.1180 C   0  0  0  0  0  0  0  0  0  0  0  0
   -0.7340    0.3247   -1.3192 C   0  0  0  0  0  0  0  0  0  0  0  0
    0.9460    1.3352    0.0984 C   0  0  0  0  0  0  0  0  0  0  0  0
    1.5543    0.8186    1.2043 O   0  0  0  0  0  0  0  0  0  0  0  0
    1.5748    0.0478    0.0327 C   0  0  0  0  0  0  0  0  0  0  0  0
   -0.1779   -2.1470    1.6024 H   0  0  0  0  0  0  0  0  0  0  0  0
    1.0917   -2.0373   -0.4489 H   0  0  0  0  0  0  0  0  0  0  0  0
   -1.3935   -1.6285   -0.5300 H   0  0  0  0  0  0  0  0  0  0  0  0
   -0.7275    0.0282    1.7177 H   0  0  0  0  0  0  0  0  0  0  0  0
   -2.2903    0.2807    0.7058 H   0  0  0  0  0  0  0  0  0  0  0  0
   -1.0968    2.1856   -0.1511 H   0  0  0  0  0  0  0  0  0  0  0  0
    0.1364    0.2797   -2.0001 H   0  0  0  0  0  0  0  0  0  0  0  0
   -1.6866    0.4447   -1.8296 H   0  0  0  0  0  0  0  0  0  0  0  0
    1.4338    2.1997   -0.3760 H   0  0  0  0  0  0  0  0  0  0  0  0
    2.5347   -0.0448   -0.5265 H   0  0  0  0  0  0  0  0  0  0  0  0
  1  2  1  0
  2  3  1  0
  3  4  1  0
  4  5  1  0
  5  6  1  0
  5  7  1  0
  7  8  1  0
  8  9  1  0
  9  2  1  0
  6  3  1  0
  9  7  1  0
  1 10  1  0
  2 11  1  0
  3 12  1  0
  4 13  1  0
  4 14  1  0
  5 15  1  0
  6 16  1  0
  6 17  1  0
  7 18  1  0
  9 19  1  0
M  END
