
     RDKit          3D

 19 21  0  0  0  0  0  0  0  0999 V2000
    0.5418    0.6804    2.2801 O   0  0  0  0  0  0  0  0  0  0  0  0
    0.1107   -0.0675    1.1868 C   0  0  0  0  0  0  0  0  0  0  0  0
   -0.9830    0.7771    0.5136 C   0  0  0  0  0  0  0  0  0  0  0  0
   -2.1606    0.2163   -0.1047 C   0  0  0  0  0  0  0  0  0  0  0  0
   -0.8617    0.2318   -0.9552 C   0  0  0  0  0  0  0  0  0  0  0  0
    0.0631   -0.8917   -0.8454 C   0  0  0  0  0  0  0  0  0  0  0  0
    1.4718   -1.0338   -0.9075 C   0  0  0  0  0  0  0  0  0  0  0  0
    1.0926   -0.1022    0.0674 C   0  0  0  0  0  0  0  0  0  0  0  0
    1.3068    1.2551   -0.3174 O   0  0  0  0  0  0  0  0  0  0  0  0
    1.2194    0.1939    2.7904 H   0  0  0  0  0  0  0  0  0  0  0  0
   -0.2479   -1.0627    1.4392 H   0  0  0  0  0  0  0  0  0  0  0  0
   -0.9055    1.8604    0.6318 H   0  0  0  0  0  0  0  0  0  0  0  0
   -2.9635    0.8884   -0.3795 H   0  0  0  0  0  0  0  0  0  0  0  0
   -2.4971   -0.8376    0.0411 H   0  0  0  0  0  0  0  0  0  0  0  0
   -0.7822    1.0324   -1.7099 H   0  0  0  0  0  0  0  0  0  0  0  0
   -0.4369   -1.7817   -0.3479 H   0  0  0  0  0  0  0  0  0  0  0  0
    1.9595   -0.6958   -1.8703 H   0  0  0  0  0  0  0  0  0  0  0  0
    1.9760   -1.9739   -0.5873 H   0  0  0  0  0  0  0  0  0  0  0  0
    2.0966    1.3110   -0.9254 H   0  0  0  0  0  0  0  0  0  0  0  0
  1  2  1  0
  2  3  1  0
  3  4  1  0
  4  5  1  0
  5  6  1  0
  6  7  1  0
  7  8  1  0
  8  9  1  0
  8  2  1  0
  5  3  1  0
  8  6  1  0
  1 10  1  0
  2 11  1  0
  3 12  1  0
  4 13  1  0
  4 14  1  0
  5 15  1  0
  6 16  1  0
  7 17  1  0
  7 18  1  0
  9 19  1  0
M  END
