
     RDKit          3D

 21 23  0  0  0  0  0  0  0  0999 V2000
    2.5001   -0.4357   -0.1932 O   0  0  0  0  0  0  0  0  0  0  0  0
    1.2566   -0.5339    0.4318 C   0  0  0  0  0  0  0  0  0  0  0  0
    0.8383    0.7315    1.1153 C   0  0  0  0  0  0  0  0  0  0  0  0
    0.0298    1.6524    0.2939 C   0  0  0  0  0  0  0  0  0  0  0  0
   -1.0711    1.0307   -0.4964 C   0  0  0  0  0  0  0  0  0  0  0  0
   -1.7069   -0.2386   -0.1797 C   0  0  0  0  0  0  0  0  0  0  0  0
   -1.0182   -1.4631    0.2896 C   0  0  0  0  0  0  0  0  0  0  0  0
    0.2299   -1.1075   -0.4902 C   0  0  0  0  0  0  0  0  0  0  0  0
   -0.5767   -0.1334   -1.2483 C   0  0  0  0  0  0  0  0  0  0  0  0
    2.5213    0.1977   -0.9340 H   0  0  0  0  0  0  0  0  0  0  0  0
    1.4018   -1.2988    1.2504 H   0  0  0  0  0  0  0  0  0  0  0  0
    1.7929    1.2683    1.3885 H   0  0  0  0  0  0  0  0  0  0  0  0
    0.3361    0.5443    2.1000 H   0  0  0  0  0  0  0  0  0  0  0  0
   -0.3360    2.4771    0.9391 H   0  0  0  0  0  0  0  0  0  0  0  0
    0.7180    2.1568   -0.4480 H   0  0  0  0  0  0  0  0  0  0  0  0
   -1.6612    1.7631   -1.0865 H   0  0  0  0  0  0  0  0  0  0  0  0
   -2.7339   -0.4148   -0.5775 H   0  0  0  0  0  0  0  0  0  0  0  0
   -0.8511   -1.5785    1.3767 H   0  0  0  0  0  0  0  0  0  0  0  0
   -1.4373   -2.4178   -0.1299 H   0  0  0  0  0  0  0  0  0  0  0  0
    0.6471   -1.9069   -1.1106 H   0  0  0  0  0  0  0  0  0  0  0  0
   -0.8795   -0.2930   -2.2909 H   0  0  0  0  0  0  0  0  0  0  0  0
  1  2  1  0
  2  3  1  0
  3  4  1  0
  4  5  1  0
  5  6  1  0
  6  7  1  0
  7  8  1  0
  8  9  1  0
  8  2  1  0
  9  5  1  0
  9  6  1  0
  1 10  1  0
  2 11  1  0
  3 12  1  0
  3 13  1  0
  4 14  1  0
  4 15  1  0
  5 16  1  0
  6 17  1  0
  7 18  1  0
  7 19  1  0
  8 20  1  0
  9 21  1  0
M  END
