
     RDKit          3D

 21 23  0  0  0  0  0  0  0  0999 V2000
    2.5842   -0.3005    0.9491 O   0  0  0  0  0  0  0  0  0  0  0  0
    1.8837   -0.2919   -0.2277 C   0  0  0  0  0  0  0  0  0  0  0  0
    1.0267    0.9605   -0.4633 C   0  0  0  0  0  0  0  0  0  0  0  0
    0.0427    0.0412   -1.1476 C   0  0  0  0  0  0  0  0  0  0  0  0
    0.5653   -1.0568   -0.2157 C   0  0  0  0  0  0  0  0  0  0  0  0
   -0.2404   -0.8238    1.0287 C   0  0  0  0  0  0  0  0  0  0  0  0
   -1.6000   -0.4606    0.5029 C   0  0  0  0  0  0  0  0  0  0  0  0
   -1.9088    0.9644    0.3153 C   0  0  0  0  0  0  0  0  0  0  0  0
   -1.3866    0.2219   -0.8344 C   0  0  0  0  0  0  0  0  0  0  0  0
    2.4183    0.4554    1.5437 H   0  0  0  0  0  0  0  0  0  0  0  0
    2.4757   -0.5331   -1.1227 H   0  0  0  0  0  0  0  0  0  0  0  0
    0.6886    1.4627    0.4396 H   0  0  0  0  0  0  0  0  0  0  0  0
    1.5285    1.6415   -1.1797 H   0  0  0  0  0  0  0  0  0  0  0  0
    0.3054   -0.0828   -2.2011 H   0  0  0  0  0  0  0  0  0  0  0  0
    0.5861   -2.0557   -0.6318 H   0  0  0  0  0  0  0  0  0  0  0  0
   -0.3343   -1.7542    1.6469 H   0  0  0  0  0  0  0  0  0  0  0  0
    0.1955   -0.0640    1.6996 H   0  0  0  0  0  0  0  0  0  0  0  0
   -2.4075   -1.2278    0.4858 H   0  0  0  0  0  0  0  0  0  0  0  0
   -1.3276    1.7486    0.8319 H   0  0  0  0  0  0  0  0  0  0  0  0
   -3.0111    1.2039    0.2608 H   0  0  0  0  0  0  0  0  0  0  0  0
   -2.0842   -0.0491   -1.6803 H   0  0  0  0  0  0  0  0  0  0  0  0
  1  2  1  0
  2  3  1  0
  3  4  1  0
  4  5  1  0
  5  6  1  0
  6  7  1  0
  7  8  1  0
  8  9  1  0
  5  2  1  0
  9  7  1  0
  9  4  1  0
  1 10  1  0
  2 11  1  0
  3 12  1  0
  3 13  1  0
  4 14  1  0
  5 15  1  0
  6 16  1  0
  6 17  1  0
  7 18  1  0
  8 19  1  0
  8 20  1  0
  9 21  1  0
M  END
