
     RDKit          3D

 19 21  0  0  0  0  0  0  0  0999 V2000
    1.7188    0.0517   -1.6352 O   0  0  0  0  0  0  0  0  0  0  0  0
    1.3145   -0.1010   -0.3229 C   0  0  0  0  0  0  0  0  0  0  0  0
    0.2678   -1.2046   -0.1689 C   0  0  0  0  0  0  0  0  0  0  0  0
   -0.2915   -0.8681    1.2045 C   0  0  0  0  0  0  0  0  0  0  0  0
   -0.3723    0.6323    1.1939 C   0  0  0  0  0  0  0  0  0  0  0  0
   -0.8503    1.1558   -0.1049 C   0  0  0  0  0  0  0  0  0  0  0  0
   -1.4582    0.0771   -0.9154 C   0  0  0  0  0  0  0  0  0  0  0  0
   -0.6697   -1.0063   -1.1636 O   0  0  0  0  0  0  0  0  0  0  0  0
    0.5727    1.0992    0.1581 C   0  0  0  0  0  0  0  0  0  0  0  0
    2.6568   -0.2592   -1.7289 H   0  0  0  0  0  0  0  0  0  0  0  0
    2.1582   -0.4065    0.3461 H   0  0  0  0  0  0  0  0  0  0  0  0
    0.7686   -2.1720   -0.2059 H   0  0  0  0  0  0  0  0  0  0  0  0
    0.4697   -1.2367    1.9387 H   0  0  0  0  0  0  0  0  0  0  0  0
   -1.2654   -1.3655    1.3659 H   0  0  0  0  0  0  0  0  0  0  0  0
   -0.6328    1.2020    2.0843 H   0  0  0  0  0  0  0  0  0  0  0  0
   -1.3282    2.1555   -0.1710 H   0  0  0  0  0  0  0  0  0  0  0  0
   -2.3738   -0.2933   -0.3689 H   0  0  0  0  0  0  0  0  0  0  0  0
   -1.7914    0.4989   -1.8903 H   0  0  0  0  0  0  0  0  0  0  0  0
    1.1062    2.0406    0.3846 H   0  0  0  0  0  0  0  0  0  0  0  0
  1  2  1  0
  2  3  1  0
  3  4  1  0
  4  5  1  0
  5  6  1  0
  6  7  1  0
  7  8  1  0
  6  9  1  0
  9  2  1  0
  8  3  1  0
  9  5  1  0
  1 10  1  0
  2 11  1  0
  3 12  1  0
  4 13  1  0
  4 14  1  0
  5 15  1  0
  6 16  1  0
  7 17  1  0
  7 18  1  0
  9 19  1  0
M  END
