
     RDKit          3D

 19 22  0  0  0  0  0  0  0  0999 V2000
    3.1438   -0.3546   -0.5768 O   0  0  0  0  0  0  0  0  0  0  0  0
    1.7816   -0.5393   -0.3855 C   0  0  0  0  0  0  0  0  0  0  0  0
    1.0699    0.3405    0.5739 C   0  0  0  0  0  0  0  0  0  0  0  0
   -0.3405   -0.0100    0.9555 C   0  0  0  0  0  0  0  0  0  0  0  0
   -0.8411   -0.9536   -0.0798 C   0  0  0  0  0  0  0  0  0  0  0  0
   -2.1981   -0.3214    0.1265 C   0  0  0  0  0  0  0  0  0  0  0  0
   -1.2511    0.8449    0.1063 C   0  0  0  0  0  0  0  0  0  0  0  0
   -0.5982    0.1638   -1.0505 C   0  0  0  0  0  0  0  0  0  0  0  0
    0.8659    0.4729   -0.9750 C   0  0  0  0  0  0  0  0  0  0  0  0
    3.4125    0.4501   -0.0471 H   0  0  0  0  0  0  0  0  0  0  0  0
    1.3991   -1.5932   -0.4604 H   0  0  0  0  0  0  0  0  0  0  0  0
    1.5804    1.1679    1.0697 H   0  0  0  0  0  0  0  0  0  0  0  0
   -0.5869   -0.1534    1.9879 H   0  0  0  0  0  0  0  0  0  0  0  0
   -0.6464   -1.9265   -0.2009 H   0  0  0  0  0  0  0  0  0  0  0  0
   -2.6625   -0.5070    1.1013 H   0  0  0  0  0  0  0  0  0  0  0  0
   -2.8555   -0.3925   -0.7645 H   0  0  0  0  0  0  0  0  0  0  0  0
   -1.4614    1.8105    0.2332 H   0  0  0  0  0  0  0  0  0  0  0  0
   -1.0867    0.1449   -2.0052 H   0  0  0  0  0  0  0  0  0  0  0  0
    1.2752    1.3561   -1.4518 H   0  0  0  0  0  0  0  0  0  0  0  0
  1  2  1  0
  2  3  1  0
  3  4  1  0
  4  5  1  0
  5  6  1  0
  6  7  1  0
  7  8  1  0
  8  9  1  0
  9  2  1  0
  9  3  1  0
  7  4  1  0
  8  5  1  0
  1 10  1  0
  2 11  1  0
  3 12  1  0
  4 13  1  0
  5 14  1  0
  6 15  1  0
  6 16  1  0
  7 17  1  0
  8 18  1  0
  9 19  1  0
M  END
