
     RDKit          3D

 21 23  0  0  0  0  0  0  0  0999 V2000
    1.2689    1.3907    1.0899 O   0  0  0  0  0  0  0  0  0  0  0  0
    0.3496    0.3815    1.1084 C   0  0  0  0  0  0  0  0  0  0  0  0
   -1.0637    0.8187    0.8336 C   0  0  0  0  0  0  0  0  0  0  0  0
   -1.1072    0.9394   -0.6748 C   0  0  0  0  0  0  0  0  0  0  0  0
   -0.8481   -0.5774   -0.6275 C   0  0  0  0  0  0  0  0  0  0  0  0
   -1.7484   -0.5366    0.6138 C   0  0  0  0  0  0  0  0  0  0  0  0
    0.5010   -0.5851   -0.0690 C   0  0  0  0  0  0  0  0  0  0  0  0
    1.5879   -1.4698   -0.2714 C   0  0  0  0  0  0  0  0  0  0  0  0
    1.6110   -0.2020   -1.0708 C   0  0  0  0  0  0  0  0  0  0  0  0
    0.9762    2.2449    0.7355 H   0  0  0  0  0  0  0  0  0  0  0  0
    0.3422   -0.1794    2.0736 H   0  0  0  0  0  0  0  0  0  0  0  0
   -1.5438    1.5320    1.4383 H   0  0  0  0  0  0  0  0  0  0  0  0
   -2.0767    1.1720   -1.1071 H   0  0  0  0  0  0  0  0  0  0  0  0
   -0.2195    1.4194   -1.1255 H   0  0  0  0  0  0  0  0  0  0  0  0
   -1.1637   -1.1541   -1.4533 H   0  0  0  0  0  0  0  0  0  0  0  0
   -1.4680   -1.2231    1.4102 H   0  0  0  0  0  0  0  0  0  0  0  0
   -2.8256   -0.4378    0.3812 H   0  0  0  0  0  0  0  0  0  0  0  0
    1.4173   -2.4112   -0.8383 H   0  0  0  0  0  0  0  0  0  0  0  0
    2.3965   -1.5288    0.4909 H   0  0  0  0  0  0  0  0  0  0  0  0
    2.2701    0.6321   -0.7916 H   0  0  0  0  0  0  0  0  0  0  0  0
    1.3439   -0.2254   -2.1461 H   0  0  0  0  0  0  0  0  0  0  0  0
  1  2  1  0
  2  3  1  0
  3  4  1  0
  4  5  1  0
  5  6  1  0
  5  7  1  0
  7  8  1  0
  8  9  1  0
  7  2  1  0
  6  3  1  0
  9  7  1  0
  1 10  1  0
  2 11  1  0
  3 12  1  0
  4 13  1  0
  4 14  1  0
  5 15  1  0
  6 16  1  0
  6 17  1  0
  8 18  1  0
  8 19  1  0
  9 20  1  0
  9 21  1  0
M  END
