
     RDKit          3D

 15 16  0  0  0  0  0  0  0  0999 V2000
    2.0240   -0.9771   -0.0972 O   0  0  0  0  0  0  0  0  0  0  0  0
    0.7538   -0.6423   -0.4697 C   0  0  0  0  0  0  0  0  0  0  0  0
    0.5607    0.8816   -0.5875 C   0  0  0  0  0  0  0  0  0  0  0  0
   -0.5863    1.0024    0.3951 C   0  0  0  0  0  0  0  0  0  0  0  0
   -1.4834   -0.1421    0.0270 C   0  0  0  0  0  0  0  0  0  0  0  0
   -0.2801   -0.8670    0.6203 C   0  0  0  0  0  0  0  0  0  0  0  0
   -0.1502    0.2128    1.4761 O   0  0  0  0  0  0  0  0  0  0  0  0
    2.3832   -0.4091    0.5965 H   0  0  0  0  0  0  0  0  0  0  0  0
    0.4150   -1.1620   -1.3627 H   0  0  0  0  0  0  0  0  0  0  0  0
    1.4417    1.3943   -0.1486 H   0  0  0  0  0  0  0  0  0  0  0  0
    0.3069    1.1874   -1.5972 H   0  0  0  0  0  0  0  0  0  0  0  0
   -0.9941    1.9603    0.6023 H   0  0  0  0  0  0  0  0  0  0  0  0
   -2.4002   -0.2593    0.6122 H   0  0  0  0  0  0  0  0  0  0  0  0
   -1.5706   -0.3330   -1.0704 H   0  0  0  0  0  0  0  0  0  0  0  0
   -0.4204   -1.8468    1.0038 H   0  0  0  0  0  0  0  0  0  0  0  0
  1  2  1  0
  2  3  1  0
  3  4  1  0
  4  5  1  0
  5  6  1  0
  6  7  1  0
  6  2  1  0
  7  4  1  0
  1  8  1  0
  2  9  1  0
  3 10  1  0
  3 11  1  0
  4 12  1  0
  5 13  1  0
  5 14  1  0
  6 15  1  0
M  END
