
     RDKit          3D

 19 21  0  0  0  0  0  0  0  0999 V2000
    2.2363    1.0791    0.1042 O   0  0  0  0  0  0  0  0  0  0  0  0
    1.6113   -0.1207   -0.1366 C   0  0  0  0  0  0  0  0  0  0  0  0
    0.8153   -0.7021    1.0097 C   0  0  0  0  0  0  0  0  0  0  0  0
   -0.4246   -0.7963    0.1882 C   0  0  0  0  0  0  0  0  0  0  0  0
   -1.6319    0.0450    0.5649 C   0  0  0  0  0  0  0  0  0  0  0  0
   -1.1740    1.4108    0.1066 C   0  0  0  0  0  0  0  0  0  0  0  0
   -0.3318    1.2392   -0.9497 O   0  0  0  0  0  0  0  0  0  0  0  0
    0.3097    0.0502   -0.8746 C   0  0  0  0  0  0  0  0  0  0  0  0
   -0.3800   -1.2093   -1.2451 C   0  0  0  0  0  0  0  0  0  0  0  0
    3.0788    1.1618   -0.4379 H   0  0  0  0  0  0  0  0  0  0  0  0
    2.2898   -0.9065   -0.5370 H   0  0  0  0  0  0  0  0  0  0  0  0
    1.1407   -1.6733    1.3835 H   0  0  0  0  0  0  0  0  0  0  0  0
    0.7367    0.0705    1.8145 H   0  0  0  0  0  0  0  0  0  0  0  0
   -2.4827   -0.3086   -0.0603 H   0  0  0  0  0  0  0  0  0  0  0  0
   -1.8803   -0.0067    1.6237 H   0  0  0  0  0  0  0  0  0  0  0  0
   -0.7404    1.9126    0.9871 H   0  0  0  0  0  0  0  0  0  0  0  0
   -2.0653    1.9733   -0.2412 H   0  0  0  0  0  0  0  0  0  0  0  0
   -1.2963   -1.0893   -1.8434 H   0  0  0  0  0  0  0  0  0  0  0  0
    0.1887   -2.1298   -1.4568 H   0  0  0  0  0  0  0  0  0  0  0  0
  1  2  1  0
  2  3  1  0
  3  4  1  0
  4  5  1  0
  5  6  1  0
  6  7  1  0
  7  8  1  0
  8  9  1  0
  8  2  1  0
  8  4  1  0
  9  4  1  0
  1 10  1  0
  2 11  1  0
  3 12  1  0
  3 13  1  0
  5 14  1  0
  5 15  1  0
  6 16  1  0
  6 17  1  0
  9 18  1  0
  9 19  1  0
M  END
