
     RDKit          3D

 15 16  0  0  0  0  0  0  0  0999 V2000
    2.0385    0.7862    0.3811 O   0  0  0  0  0  0  0  0  0  0  0  0
    0.9167    0.5166   -0.3497 C   0  0  0  0  0  0  0  0  0  0  0  0
    0.3383   -0.8690   -0.2344 C   0  0  0  0  0  0  0  0  0  0  0  0
   -0.8916   -0.7445   -1.0632 C   0  0  0  0  0  0  0  0  0  0  0  0
   -1.3696    0.4700   -0.6966 C   0  0  0  0  0  0  0  0  0  0  0  0
   -0.3995    0.8877    0.3473 C   0  0  0  0  0  0  0  0  0  0  0  0
   -0.2084   -0.4079    1.1157 C   0  0  0  0  0  0  0  0  0  0  0  0
    2.4242    0.0500    0.8720 H   0  0  0  0  0  0  0  0  0  0  0  0
    0.8789    0.8951   -1.3842 H   0  0  0  0  0  0  0  0  0  0  0  0
    0.9414   -1.7202   -0.2840 H   0  0  0  0  0  0  0  0  0  0  0  0
   -1.3028   -1.4455   -1.7791 H   0  0  0  0  0  0  0  0  0  0  0  0
   -2.2282    0.9939   -1.0662 H   0  0  0  0  0  0  0  0  0  0  0  0
   -0.4777    1.7998    0.8439 H   0  0  0  0  0  0  0  0  0  0  0  0
    0.5265   -0.3909    1.9179 H   0  0  0  0  0  0  0  0  0  0  0  0
   -1.1867   -0.8214    1.3795 H   0  0  0  0  0  0  0  0  0  0  0  0
  1  2  1  0
  2  3  1  0
  3  4  1  0
  4  5  2  0
  5  6  1  0
  6  7  1  0
  6  2  1  0
  7  3  1  0
  1  8  1  0
  2  9  1  0
  3 10  1  0
  4 11  1  0
  5 12  1  0
  6 13  1  0
  7 14  1  0
  7 15  1  0
M  END
