
     RDKit          3D

 19 21  0  0  0  0  0  0  0  0999 V2000
    2.6060   -0.2474   -0.4437 O   0  0  0  0  0  0  0  0  0  0  0  0
    1.2933   -0.5388   -0.1533 C   0  0  0  0  0  0  0  0  0  0  0  0
    0.2630    0.3200   -0.8793 C   0  0  0  0  0  0  0  0  0  0  0  0
   -0.9882   -0.5034   -1.0997 C   0  0  0  0  0  0  0  0  0  0  0  0
   -1.5592   -0.7386    0.2734 C   0  0  0  0  0  0  0  0  0  0  0  0
   -0.7279    0.0450    1.2482 C   0  0  0  0  0  0  0  0  0  0  0  0
    0.7628    0.0421    1.1423 C   0  0  0  0  0  0  0  0  0  0  0  0
   -0.0078    1.0097    0.4032 C   0  0  0  0  0  0  0  0  0  0  0  0
   -0.1221    2.3269    0.5848 O   0  0  0  0  0  0  0  0  0  0  0  0
    3.1649   -1.0500   -0.6185 H   0  0  0  0  0  0  0  0  0  0  0  0
    1.1138   -1.6253   -0.2089 H   0  0  0  0  0  0  0  0  0  0  0  0
    0.6303    0.8923   -1.7247 H   0  0  0  0  0  0  0  0  0  0  0  0
   -1.6724    0.0557   -1.7699 H   0  0  0  0  0  0  0  0  0  0  0  0
   -0.6852   -1.4795   -1.5148 H   0  0  0  0  0  0  0  0  0  0  0  0
   -1.6304   -1.8144    0.5262 H   0  0  0  0  0  0  0  0  0  0  0  0
   -2.5854   -0.2946    0.2738 H   0  0  0  0  0  0  0  0  0  0  0  0
   -1.2197    0.4790    2.1501 H   0  0  0  0  0  0  0  0  0  0  0  0
    1.4086    0.2052    1.9936 H   0  0  0  0  0  0  0  0  0  0  0  0
   -0.0443    2.9161   -0.1829 H   0  0  0  0  0  0  0  0  0  0  0  0
  1  2  1  0
  2  3  1  0
  3  4  1  0
  4  5  1  0
  5  6  1  0
  6  7  1  0
  7  8  1  0
  8  9  1  0
  7  2  1  0
  8  3  1  0
  8  6  1  0
  1 10  1  0
  2 11  1  0
  3 12  1  0
  4 13  1  0
  4 14  1  0
  5 15  1  0
  5 16  1  0
  6 17  1  0
  7 18  1  0
  9 19  1  0
M  END
