
     RDKit          3D

 16 17  0  0  0  0  0  0  0  0999 V2000
    1.7222    1.3001   -1.0422 O   0  0  0  0  0  0  0  0  0  0  0  0
    1.3144    0.7577    0.1679 C   0  0  0  0  0  0  0  0  0  0  0  0
    1.5437   -0.7220    0.3956 C   0  0  0  0  0  0  0  0  0  0  0  0
    0.1796   -0.1362    0.2670 C   0  0  0  0  0  0  0  0  0  0  0  0
   -0.6181   -0.6239   -0.8923 C   0  0  0  0  0  0  0  0  0  0  0  0
   -1.8897   -0.3963   -0.5971 C   0  0  0  0  0  0  0  0  0  0  0  0
   -1.9121    0.2338    0.7396 C   0  0  0  0  0  0  0  0  0  0  0  0
   -0.7303   -0.1696    1.3170 O   0  0  0  0  0  0  0  0  0  0  0  0
    2.6731    1.1443   -1.2361 H   0  0  0  0  0  0  0  0  0  0  0  0
    1.5491    1.3927    1.0413 H   0  0  0  0  0  0  0  0  0  0  0  0
    1.8243   -1.0768    1.3988 H   0  0  0  0  0  0  0  0  0  0  0  0
    2.0021   -1.2825   -0.4233 H   0  0  0  0  0  0  0  0  0  0  0  0
   -0.2574   -1.0745   -1.7991 H   0  0  0  0  0  0  0  0  0  0  0  0
   -2.7609   -0.6400   -1.2450 H   0  0  0  0  0  0  0  0  0  0  0  0
   -1.8341    1.3306    0.5748 H   0  0  0  0  0  0  0  0  0  0  0  0
   -2.8059   -0.0374    1.3330 H   0  0  0  0  0  0  0  0  0  0  0  0
  1  2  1  0
  2  3  1  0
  3  4  1  0
  4  5  1  0
  5  6  2  0
  6  7  1  0
  7  8  1  0
  4  2  1  0
  8  4  1  0
  1  9  1  0
  2 10  1  0
  3 11  1  0
  3 12  1  0
  5 13  1  0
  6 14  1  0
  7 15  1  0
  7 16  1  0
M  END
