
     RDKit          3D

 21 22  0  0  0  0  0  0  0  0999 V2000
   -2.7885    0.9677    0.7784 O   0  0  0  0  0  0  0  0  0  0  0  0
   -1.9946    0.4375   -0.2273 C   0  0  0  0  0  0  0  0  0  0  0  0
   -1.8720   -1.0397   -0.3833 C   0  0  0  0  0  0  0  0  0  0  0  0
   -0.7412   -0.2517    0.2623 C   0  0  0  0  0  0  0  0  0  0  0  0
   -0.5964   -0.4208    1.6458 O   0  0  0  0  0  0  0  0  0  0  0  0
    0.5051   -0.1568   -0.5692 C   0  0  0  0  0  0  0  0  0  0  0  0
    1.6301   -0.9247    0.1195 C   0  0  0  0  0  0  0  0  0  0  0  0
    2.4814    0.3098   -0.0276 C   0  0  0  0  0  0  0  0  0  0  0  0
    1.2768    1.1366   -0.4217 C   0  0  0  0  0  0  0  0  0  0  0  0
   -2.5776    1.9530    0.8033 H   0  0  0  0  0  0  0  0  0  0  0  0
   -1.9320    1.0794   -1.1365 H   0  0  0  0  0  0  0  0  0  0  0  0
   -1.7083   -1.5041   -1.3657 H   0  0  0  0  0  0  0  0  0  0  0  0
   -2.4601   -1.7016    0.3101 H   0  0  0  0  0  0  0  0  0  0  0  0
   -1.4734   -0.7495    2.0123 H   0  0  0  0  0  0  0  0  0  0  0  0
    0.3368   -0.4235   -1.6128 H   0  0  0  0  0  0  0  0  0  0  0  0
    1.4308   -1.1842    1.1704 H   0  0  0  0  0  0  0  0  0  0  0  0
    1.9698   -1.8088   -0.4585 H   0  0  0  0  0  0  0  0  0  0  0  0
    3.2534    0.2116   -0.8165 H   0  0  0  0  0  0  0  0  0  0  0  0
    2.9087    0.6418    0.9416 H   0  0  0  0  0  0  0  0  0  0  0  0
    0.8916    1.8033    0.3764 H   0  0  0  0  0  0  0  0  0  0  0  0
    1.4596    1.6246   -1.4011 H   0  0  0  0  0  0  0  0  0  0  0  0
  1  2  1  0
  2  3  1  0
  3  4  1  0
  4  5  1  0
  4  6  1  0
  6  7  1  0
  7  8  1  0
  8  9  1  0
  4  2  1  0
  9  6  1  0
  1 10  1  0
  2 11  1  0
  3 12  1  0
  3 13  1  0
  5 14  1  0
  6 15  1  0
  7 16  1  0
  7 17  1  0
  8 18  1  0
  8 19  1  0
  9 20  1  0
  9 21  1  0
M  END
