
     RDKit          3D

 16 17  0  0  0  0  0  0  0  0999 V2000
   -2.0689    0.4004   -0.5596 O   0  0  0  0  0  0  0  0  0  0  0  0
   -1.0760   -0.5033   -0.2639 C   0  0  0  0  0  0  0  0  0  0  0  0
   -0.2641   -0.1942    0.9592 C   0  0  0  0  0  0  0  0  0  0  0  0
    0.8057   -1.0544    0.3303 C   0  0  0  0  0  0  0  0  0  0  0  0
    2.0863   -0.7789    0.7626 O   0  0  0  0  0  0  0  0  0  0  0  0
    0.2926   -0.2090   -0.8066 C   0  0  0  0  0  0  0  0  0  0  0  0
    0.3380    0.9284    0.1755 C   0  0  0  0  0  0  0  0  0  0  0  0
   -0.4550    2.0124   -0.0905 O   0  0  0  0  0  0  0  0  0  0  0  0
   -2.9316    0.0047   -0.2835 H   0  0  0  0  0  0  0  0  0  0  0  0
   -1.3313   -1.5771   -0.3635 H   0  0  0  0  0  0  0  0  0  0  0  0
   -0.5579   -0.2022    1.9133 H   0  0  0  0  0  0  0  0  0  0  0  0
    0.5495   -2.1073    0.1638 H   0  0  0  0  0  0  0  0  0  0  0  0
    2.5997   -0.3623    0.0419 H   0  0  0  0  0  0  0  0  0  0  0  0
    0.5965   -0.2150   -1.7551 H   0  0  0  0  0  0  0  0  0  0  0  0
    1.3689    1.2225    0.4324 H   0  0  0  0  0  0  0  0  0  0  0  0
    0.0477    2.6354   -0.6561 H   0  0  0  0  0  0  0  0  0  0  0  0
  1  2  1  0
  2  3  1  0
  3  4  1  0
  4  5  1  0
  4  6  1  0
  6  7  1  0
  7  8  1  0
  6  2  1  0
  7  3  1  0
  1  9  1  0
  2 10  1  0
  3 11  1  0
  4 12  1  0
  5 13  1  0
  6 14  1  0
  7 15  1  0
  8 16  1  0
M  END
