
     RDKit          3D

 16 17  0  0  0  0  0  0  0  0999 V2000
   -1.9919   -0.2604    0.2039 O   0  0  0  0  0  0  0  0  0  0  0  0
   -0.7334   -0.7441   -0.0224 C   0  0  0  0  0  0  0  0  0  0  0  0
    0.0656    0.2960   -0.8310 C   0  0  0  0  0  0  0  0  0  0  0  0
    1.4494   -0.2490   -0.6145 C   0  0  0  0  0  0  0  0  0  0  0  0
    1.4166   -0.8920    0.6298 O   0  0  0  0  0  0  0  0  0  0  0  0
    0.1726   -0.5450    1.2082 C   0  0  0  0  0  0  0  0  0  0  0  0
    0.1735    0.8081    1.3958 O   0  0  0  0  0  0  0  0  0  0  0  0
   -0.1056    1.4322    0.1682 C   0  0  0  0  0  0  0  0  0  0  0  0
   -2.6499   -0.9392   -0.0612 H   0  0  0  0  0  0  0  0  0  0  0  0
   -0.6585   -1.7387   -0.4362 H   0  0  0  0  0  0  0  0  0  0  0  0
   -0.2694    0.4633   -1.8136 H   0  0  0  0  0  0  0  0  0  0  0  0
    1.6821   -0.9558   -1.4358 H   0  0  0  0  0  0  0  0  0  0  0  0
    2.2267    0.5393   -0.5511 H   0  0  0  0  0  0  0  0  0  0  0  0
   -0.0925   -1.1653    2.0351 H   0  0  0  0  0  0  0  0  0  0  0  0
   -1.2076    1.6597    0.1615 H   0  0  0  0  0  0  0  0  0  0  0  0
    0.5223    2.2909   -0.0366 H   0  0  0  0  0  0  0  0  0  0  0  0
  1  2  1  0
  2  3  1  0
  3  4  1  0
  4  5  1  0
  5  6  1  0
  6  7  1  0
  7  8  1  0
  6  2  1  0
  8  3  1  0
  1  9  1  0
  2 10  1  0
  3 11  1  0
  4 12  1  0
  4 13  1  0
  6 14  1  0
  8 15  1  0
  8 16  1  0
M  END
