
     RDKit          3D

 17 18  0  0  0  0  0  0  0  0999 V2000
   -2.6367   -0.2868   -0.0781 O   0  0  0  0  0  0  0  0  0  0  0  0
   -1.3864    0.0199    0.3807 C   0  0  0  0  0  0  0  0  0  0  0  0
   -0.5110   -1.2144    0.4369 C   0  0  0  0  0  0  0  0  0  0  0  0
    0.7139   -0.9200    0.1300 C   0  0  0  0  0  0  0  0  0  0  0  0
    2.1821   -0.7985   -0.1945 C   0  0  0  0  0  0  0  0  0  0  0  0
    1.8853    0.4314   -0.8849 O   0  0  0  0  0  0  0  0  0  0  0  0
    0.7965    0.5891   -0.0812 C   0  0  0  0  0  0  0  0  0  0  0  0
   -0.5619    0.8224   -0.6615 C   0  0  0  0  0  0  0  0  0  0  0  0
   -0.9295    2.1528   -0.6390 O   0  0  0  0  0  0  0  0  0  0  0  0
   -2.6709   -1.1474   -0.5783 H   0  0  0  0  0  0  0  0  0  0  0  0
   -1.4273    0.5212    1.3436 H   0  0  0  0  0  0  0  0  0  0  0  0
   -0.8788   -2.1899    0.6982 H   0  0  0  0  0  0  0  0  0  0  0  0
    2.7623   -0.6560    0.7167 H   0  0  0  0  0  0  0  0  0  0  0  0
    2.5475   -1.5037   -0.9539 H   0  0  0  0  0  0  0  0  0  0  0  0
    0.9381    1.1298    0.8706 H   0  0  0  0  0  0  0  0  0  0  0  0
   -0.7010    0.3316   -1.6374 H   0  0  0  0  0  0  0  0  0  0  0  0
   -0.1221    2.7183   -0.8016 H   0  0  0  0  0  0  0  0  0  0  0  0
  1  2  1  0
  2  3  1  0
  3  4  2  0
  4  5  1  0
  5  6  1  0
  6  7  1  0
  7  8  1  0
  8  9  1  0
  8  2  1  0
  7  4  1  0
  1 10  1  0
  2 11  1  0
  3 12  1  0
  5 13  1  0
  5 14  1  0
  7 15  1  0
  8 16  1  0
  9 17  1  0
M  END
