
     RDKit          3D

 18 19  0  0  0  0  0  0  0  0999 V2000
   -1.1995    1.7874    0.3817 O   0  0  0  0  0  0  0  0  0  0  0  0
   -0.9117    0.6444   -0.3426 C   0  0  0  0  0  0  0  0  0  0  0  0
   -1.3281   -0.6219    0.3816 C   0  0  0  0  0  0  0  0  0  0  0  0
   -0.0640   -1.4472    0.5484 C   0  0  0  0  0  0  0  0  0  0  0  0
    0.7019   -1.0173   -0.7127 C   0  0  0  0  0  0  0  0  0  0  0  0
    0.5248    0.4639   -0.5812 C   0  0  0  0  0  0  0  0  0  0  0  0
    1.5538    1.1235    0.3243 C   0  0  0  0  0  0  0  0  0  0  0  0
    1.3937    1.3789   -1.0247 O   0  0  0  0  0  0  0  0  0  0  0  0
   -1.0902    2.5552   -0.2449 H   0  0  0  0  0  0  0  0  0  0  0  0
   -1.4863    0.7257   -1.3020 H   0  0  0  0  0  0  0  0  0  0  0  0
   -2.0320   -1.2388   -0.2114 H   0  0  0  0  0  0  0  0  0  0  0  0
   -1.8083   -0.4025    1.3464 H   0  0  0  0  0  0  0  0  0  0  0  0
    0.4891   -1.0126    1.3917 H   0  0  0  0  0  0  0  0  0  0  0  0
   -0.2369   -2.5151    0.5890 H   0  0  0  0  0  0  0  0  0  0  0  0
    1.7462   -1.3373   -0.6887 H   0  0  0  0  0  0  0  0  0  0  0  0
    0.1164   -1.4210   -1.5643 H   0  0  0  0  0  0  0  0  0  0  0  0
    1.1797    1.8046    1.0903 H   0  0  0  0  0  0  0  0  0  0  0  0
    2.4514    0.5304    0.6191 H   0  0  0  0  0  0  0  0  0  0  0  0
  1  2  1  0
  2  3  1  0
  3  4  1  0
  4  5  1  0
  5  6  1  0
  6  7  1  0
  7  8  1  0
  6  2  1  0
  8  6  1  0
  1  9  1  0
  2 10  1  0
  3 11  1  0
  3 12  1  0
  4 13  1  0
  4 14  1  0
  5 15  1  0
  5 16  1  0
  7 17  1  0
  7 18  1  0
M  END
