
     RDKit          3D

 19 20  0  0  0  0  0  0  0  0999 V2000
   -1.5028   -1.0844    1.1016 O   0  0  0  0  0  0  0  0  0  0  0  0
   -1.2976   -0.2894   -0.0345 C   0  0  0  0  0  0  0  0  0  0  0  0
   -0.2591   -0.9125   -0.9178 C   0  0  0  0  0  0  0  0  0  0  0  0
    1.1417   -0.6738   -0.4701 C   0  0  0  0  0  0  0  0  0  0  0  0
    1.3930   -1.5048    0.6258 O   0  0  0  0  0  0  0  0  0  0  0  0
    1.4147    0.7483   -0.0595 C   0  0  0  0  0  0  0  0  0  0  0  0
    0.9849    1.8010   -0.8372 O   0  0  0  0  0  0  0  0  0  0  0  0
    0.3884    1.4973    0.5127 C   0  0  0  0  0  0  0  0  0  0  0  0
   -1.0235    1.1175    0.3435 C   0  0  0  0  0  0  0  0  0  0  0  0
   -2.0195   -1.9039    0.8558 H   0  0  0  0  0  0  0  0  0  0  0  0
   -2.2613   -0.2970   -0.6256 H   0  0  0  0  0  0  0  0  0  0  0  0
   -0.4296   -2.0294   -0.8672 H   0  0  0  0  0  0  0  0  0  0  0  0
   -0.4261   -0.6720   -2.0069 H   0  0  0  0  0  0  0  0  0  0  0  0
    1.8248   -0.9771   -1.3009 H   0  0  0  0  0  0  0  0  0  0  0  0
    2.0851   -1.1708    1.2175 H   0  0  0  0  0  0  0  0  0  0  0  0
    2.4675    0.8835    0.3126 H   0  0  0  0  0  0  0  0  0  0  0  0
    0.5860    2.3190    1.2302 H   0  0  0  0  0  0  0  0  0  0  0  0
   -1.5685    1.3197    1.3115 H   0  0  0  0  0  0  0  0  0  0  0  0
   -1.4980    1.8289   -0.3914 H   0  0  0  0  0  0  0  0  0  0  0  0
  1  2  1  0
  2  3  1  0
  3  4  1  0
  4  5  1  0
  4  6  1  0
  6  7  1  0
  7  8  1  0
  8  9  1  0
  9  2  1  0
  8  6  1  0
  1 10  1  0
  2 11  1  0
  3 12  1  0
  3 13  1  0
  4 14  1  0
  5 15  1  0
  6 16  1  0
  8 17  1  0
  9 18  1  0
  9 19  1  0
M  END
