
     RDKit          3D

 21 22  0  0  0  0  0  0  0  0999 V2000
    2.0640    0.2145    1.0196 O   0  0  0  0  0  0  0  0  0  0  0  0
    1.5928   -0.5602   -0.0370 C   0  0  0  0  0  0  0  0  0  0  0  0
    1.2733    0.3909   -1.1732 C   0  0  0  0  0  0  0  0  0  0  0  0
   -0.1346    0.8598   -0.9283 C   0  0  0  0  0  0  0  0  0  0  0  0
   -0.1077    2.1244   -0.2979 O   0  0  0  0  0  0  0  0  0  0  0  0
   -0.7166   -0.1005    0.0745 C   0  0  0  0  0  0  0  0  0  0  0  0
   -1.6675    0.3658    1.0851 C   0  0  0  0  0  0  0  0  0  0  0  0
   -2.1564   -0.4996   -0.0205 C   0  0  0  0  0  0  0  0  0  0  0  0
    0.2712   -1.1912    0.3022 C   0  0  0  0  0  0  0  0  0  0  0  0
    2.6450   -0.3591    1.5580 H   0  0  0  0  0  0  0  0  0  0  0  0
    2.3088   -1.3463   -0.3244 H   0  0  0  0  0  0  0  0  0  0  0  0
    1.4048   -0.0896   -2.1566 H   0  0  0  0  0  0  0  0  0  0  0  0
    1.9835    1.2541   -1.1347 H   0  0  0  0  0  0  0  0  0  0  0  0
   -0.7593    0.8663   -1.8299 H   0  0  0  0  0  0  0  0  0  0  0  0
    0.4388    1.9732    0.5253 H   0  0  0  0  0  0  0  0  0  0  0  0
   -1.7559   -0.0663    2.0972 H   0  0  0  0  0  0  0  0  0  0  0  0
   -1.9648    1.4412    1.0443 H   0  0  0  0  0  0  0  0  0  0  0  0
   -2.3937   -1.5534    0.2068 H   0  0  0  0  0  0  0  0  0  0  0  0
   -2.6874   -0.0950   -0.8938 H   0  0  0  0  0  0  0  0  0  0  0  0
    0.2543   -1.6186    1.3259 H   0  0  0  0  0  0  0  0  0  0  0  0
    0.1074   -2.0107   -0.4426 H   0  0  0  0  0  0  0  0  0  0  0  0
  1  2  1  0
  2  3  1  0
  3  4  1  0
  4  5  1  0
  4  6  1  0
  6  7  1  0
  7  8  1  0
  6  9  1  0
  9  2  1  0
  8  6  1  0
  1 10  1  0
  2 11  1  0
  3 12  1  0
  3 13  1  0
  4 14  1  0
  5 15  1  0
  7 16  1  0
  7 17  1  0
  8 18  1  0
  8 19  1  0
  9 20  1  0
  9 21  1  0
M  END
