
     RDKit          3D

 21 22  0  0  0  0  0  0  0  0999 V2000
   -2.2298    1.1500    0.5101 O   0  0  0  0  0  0  0  0  0  0  0  0
   -1.0482    0.9556   -0.2020 C   0  0  0  0  0  0  0  0  0  0  0  0
   -1.0687   -0.3767   -0.9306 C   0  0  0  0  0  0  0  0  0  0  0  0
   -0.1488   -1.2997   -0.1731 C   0  0  0  0  0  0  0  0  0  0  0  0
    1.2394   -1.2548   -0.6722 C   0  0  0  0  0  0  0  0  0  0  0  0
    2.0113   -0.2291   -0.3379 C   0  0  0  0  0  0  0  0  0  0  0  0
    1.3569    1.0086    0.1549 C   0  0  0  0  0  0  0  0  0  0  0  0
    0.0585    0.7868    0.8506 C   0  0  0  0  0  0  0  0  0  0  0  0
   -0.1824   -0.6725    1.2229 C   0  0  0  0  0  0  0  0  0  0  0  0
   -3.0185    0.7981    0.0203 H   0  0  0  0  0  0  0  0  0  0  0  0
   -0.8455    1.7900   -0.8682 H   0  0  0  0  0  0  0  0  0  0  0  0
   -2.1064   -0.7693   -0.9124 H   0  0  0  0  0  0  0  0  0  0  0  0
   -0.7568   -0.2072   -1.9772 H   0  0  0  0  0  0  0  0  0  0  0  0
   -0.5909   -2.3055   -0.1829 H   0  0  0  0  0  0  0  0  0  0  0  0
    1.6593   -2.0494   -1.3167 H   0  0  0  0  0  0  0  0  0  0  0  0
    3.0913   -0.2279   -0.3989 H   0  0  0  0  0  0  0  0  0  0  0  0
    2.0838    1.6062    0.7786 H   0  0  0  0  0  0  0  0  0  0  0  0
    1.2131    1.6560   -0.7602 H   0  0  0  0  0  0  0  0  0  0  0  0
   -0.0886    1.4507    1.7091 H   0  0  0  0  0  0  0  0  0  0  0  0
   -1.2150   -0.7378    1.6091 H   0  0  0  0  0  0  0  0  0  0  0  0
    0.5859   -1.0719    1.8769 H   0  0  0  0  0  0  0  0  0  0  0  0
  1  2  1  0
  2  3  1  0
  3  4  1  0
  4  5  1  0
  5  6  2  0
  6  7  1  0
  7  8  1  0
  8  9  1  0
  8  2  1  0
  9  4  1  0
  1 10  1  0
  2 11  1  0
  3 12  1  0
  3 13  1  0
  4 14  1  0
  5 15  1  0
  6 16  1  0
  7 17  1  0
  7 18  1  0
  8 19  1  0
  9 20  1  0
  9 21  1  0
M  END
