
     RDKit          3D

 21 22  0  0  0  0  0  0  0  0999 V2000
   -2.1081   -1.2238   -0.2826 O   0  0  0  0  0  0  0  0  0  0  0  0
   -1.3331   -0.2733    0.3554 C   0  0  0  0  0  0  0  0  0  0  0  0
   -0.2096   -0.9244    1.0930 C   0  0  0  0  0  0  0  0  0  0  0  0
    1.1304   -0.7499    0.4666 C   0  0  0  0  0  0  0  0  0  0  0  0
    1.0973   -0.6922   -1.0421 C   0  0  0  0  0  0  0  0  0  0  0  0
    0.6028    0.7133   -0.9048 C   0  0  0  0  0  0  0  0  0  0  0  0
    1.4159    0.7569    0.3975 C   0  0  0  0  0  0  0  0  0  0  0  0
   -0.8442    0.8200   -0.5372 C   0  0  0  0  0  0  0  0  0  0  0  0
   -0.9968    2.0818    0.0895 O   0  0  0  0  0  0  0  0  0  0  0  0
   -1.8974   -1.3821   -1.2125 H   0  0  0  0  0  0  0  0  0  0  0  0
   -2.0251    0.2121    1.1082 H   0  0  0  0  0  0  0  0  0  0  0  0
   -0.1440   -0.4893    2.1336 H   0  0  0  0  0  0  0  0  0  0  0  0
   -0.4675   -1.9897    1.2381 H   0  0  0  0  0  0  0  0  0  0  0  0
    1.9038   -1.3512    0.9259 H   0  0  0  0  0  0  0  0  0  0  0  0
    0.4768   -1.4133   -1.5570 H   0  0  0  0  0  0  0  0  0  0  0  0
    2.1336   -0.6963   -1.4304 H   0  0  0  0  0  0  0  0  0  0  0  0
    0.9103    1.4456   -1.6382 H   0  0  0  0  0  0  0  0  0  0  0  0
    0.9658    1.3260    1.2043 H   0  0  0  0  0  0  0  0  0  0  0  0
    2.4675    0.9511    0.1381 H   0  0  0  0  0  0  0  0  0  0  0  0
   -1.4931    0.8636   -1.4310 H   0  0  0  0  0  0  0  0  0  0  0  0
   -1.5855    2.0151    0.8857 H   0  0  0  0  0  0  0  0  0  0  0  0
  1  2  1  0
  2  3  1  0
  3  4  1  0
  4  5  1  0
  5  6  1  0
  6  7  1  0
  6  8  1  0
  8  9  1  0
  8  2  1  0
  7  4  1  0
  1 10  1  0
  2 11  1  0
  3 12  1  0
  3 13  1  0
  4 14  1  0
  5 15  1  0
  5 16  1  0
  6 17  1  0
  7 18  1  0
  7 19  1  0
  8 20  1  0
  9 21  1  0
M  END
