
     RDKit          3D

 17 19  0  0  0  0  0  0  0  0999 V2000
    2.1282   -0.5103   -0.7814 O   0  0  0  0  0  0  0  0  0  0  0  0
    1.6510    0.4659    0.0763 C   0  0  0  0  0  0  0  0  0  0  0  0
    0.8635   -0.2038    1.1801 C   0  0  0  0  0  0  0  0  0  0  0  0
   -0.3348   -0.5149    0.7686 C   0  0  0  0  0  0  0  0  0  0  0  0
   -0.4280   -0.0651   -0.6904 C   0  0  0  0  0  0  0  0  0  0  0  0
    0.4465    1.1182   -0.6734 C   0  0  0  0  0  0  0  0  0  0  0  0
   -1.8821   -0.0278   -0.4697 C   0  0  0  0  0  0  0  0  0  0  0  0
   -2.4083   -1.3148   -0.4070 O   0  0  0  0  0  0  0  0  0  0  0  0
   -1.7221   -0.9996    0.7218 C   0  0  0  0  0  0  0  0  0  0  0  0
    1.9906   -1.4281   -0.4336 H   0  0  0  0  0  0  0  0  0  0  0  0
    2.3611    1.1999    0.4212 H   0  0  0  0  0  0  0  0  0  0  0  0
    1.3166   -0.3625    2.1520 H   0  0  0  0  0  0  0  0  0  0  0  0
   -0.0327   -0.8377   -1.3815 H   0  0  0  0  0  0  0  0  0  0  0  0
    0.0899    1.9949   -0.1359 H   0  0  0  0  0  0  0  0  0  0  0  0
    0.8190    1.3961   -1.6892 H   0  0  0  0  0  0  0  0  0  0  0  0
   -2.4635    0.8587   -0.2630 H   0  0  0  0  0  0  0  0  0  0  0  0
   -2.3950   -0.7692    1.6053 H   0  0  0  0  0  0  0  0  0  0  0  0
  1  2  1  0
  2  3  1  0
  3  4  2  0
  4  5  1  0
  5  6  1  0
  5  7  1  0
  7  8  1  0
  8  9  1  0
  6  2  1  0
  9  7  1  0
  9  4  1  0
  1 10  1  0
  2 11  1  0
  3 12  1  0
  5 13  1  0
  6 14  1  0
  6 15  1  0
  7 16  1  0
  9 17  1  0
M  END
