
     RDKit          3D

 17 19  0  0  0  0  0  0  0  0999 V2000
    1.9324    1.5681    0.3460 O   0  0  0  0  0  0  0  0  0  0  0  0
    1.5654    0.3057    0.7993 C   0  0  0  0  0  0  0  0  0  0  0  0
    1.4244   -0.7008   -0.3521 C   0  0  0  0  0  0  0  0  0  0  0  0
    0.2649   -0.1814    0.5623 C   0  0  0  0  0  0  0  0  0  0  0  0
   -0.4474   -1.1712    1.1221 O   0  0  0  0  0  0  0  0  0  0  0  0
   -1.5998   -0.8779    0.4454 C   0  0  0  0  0  0  0  0  0  0  0  0
   -1.6489   -0.5619   -0.9919 C   0  0  0  0  0  0  0  0  0  0  0  0
   -0.9121    0.4114   -0.0671 C   0  0  0  0  0  0  0  0  0  0  0  0
   -1.5243    1.5582    0.3366 O   0  0  0  0  0  0  0  0  0  0  0  0
    2.6867    1.4891   -0.3166 H   0  0  0  0  0  0  0  0  0  0  0  0
    2.1781   -0.0597    1.6314 H   0  0  0  0  0  0  0  0  0  0  0  0
    1.7528   -1.7268   -0.1955 H   0  0  0  0  0  0  0  0  0  0  0  0
    1.3292   -0.3194   -1.3749 H   0  0  0  0  0  0  0  0  0  0  0  0
   -2.5176   -0.7695    1.0292 H   0  0  0  0  0  0  0  0  0  0  0  0
   -2.6081   -0.2672   -1.4068 H   0  0  0  0  0  0  0  0  0  0  0  0
   -0.9210   -1.0429   -1.7083 H   0  0  0  0  0  0  0  0  0  0  0  0
   -0.9549    2.3463    0.1410 H   0  0  0  0  0  0  0  0  0  0  0  0
  1  2  1  0
  2  3  1  0
  3  4  1  0
  4  5  1  0
  5  6  1  0
  6  7  1  0
  7  8  1  0
  8  9  1  0
  4  2  1  0
  8  6  1  0
  8  4  1  0
  1 10  1  0
  2 11  1  0
  3 12  1  0
  3 13  1  0
  6 14  1  0
  7 15  1  0
  7 16  1  0
  9 17  1  0
M  END
