
     RDKit          3D

 19 21  0  0  0  0  0  0  0  0999 V2000
   -1.8414   -1.7713    0.1402 O   0  0  0  0  0  0  0  0  0  0  0  0
   -0.8361   -0.9760   -0.4293 C   0  0  0  0  0  0  0  0  0  0  0  0
   -1.4032    0.3905   -0.7481 C   0  0  0  0  0  0  0  0  0  0  0  0
   -0.7483    1.3618    0.2091 C   0  0  0  0  0  0  0  0  0  0  0  0
    0.4241    0.6271    0.7705 C   0  0  0  0  0  0  0  0  0  0  0  0
    1.7572    0.6552    0.0952 C   0  0  0  0  0  0  0  0  0  0  0  0
    1.7285   -0.8384    0.0161 C   0  0  0  0  0  0  0  0  0  0  0  0
    0.2996   -0.8023    0.5023 C   0  0  0  0  0  0  0  0  0  0  0  0
    0.1367   -0.2808    1.7610 O   0  0  0  0  0  0  0  0  0  0  0  0
   -2.0654   -1.4910    1.0526 H   0  0  0  0  0  0  0  0  0  0  0  0
   -0.5187   -1.4762   -1.3460 H   0  0  0  0  0  0  0  0  0  0  0  0
   -1.1149    0.6915   -1.7846 H   0  0  0  0  0  0  0  0  0  0  0  0
   -2.4951    0.4269   -0.5921 H   0  0  0  0  0  0  0  0  0  0  0  0
   -1.4390    1.6034    1.0627 H   0  0  0  0  0  0  0  0  0  0  0  0
   -0.4325    2.2967   -0.2835 H   0  0  0  0  0  0  0  0  0  0  0  0
    1.7471    1.1170   -0.9045 H   0  0  0  0  0  0  0  0  0  0  0  0
    2.5441    1.0478    0.7849 H   0  0  0  0  0  0  0  0  0  0  0  0
    1.8931   -1.2916   -0.9746 H   0  0  0  0  0  0  0  0  0  0  0  0
    2.3642   -1.2904    0.8283 H   0  0  0  0  0  0  0  0  0  0  0  0
  1  2  1  0
  2  3  1  0
  3  4  1  0
  4  5  1  0
  5  6  1  0
  6  7  1  0
  7  8  1  0
  8  9  1  0
  8  2  1  0
  8  5  1  0
  9  5  1  0
  1 10  1  0
  2 11  1  0
  3 12  1  0
  3 13  1  0
  4 14  1  0
  4 15  1  0
  6 16  1  0
  6 17  1  0
  7 18  1  0
  7 19  1  0
M  END
