
     RDKit          3D

 19 21  0  0  0  0  0  0  0  0999 V2000
    2.5422   -0.8341    0.1059 O   0  0  0  0  0  0  0  0  0  0  0  0
    1.3548   -0.3336    0.6845 C   0  0  0  0  0  0  0  0  0  0  0  0
    0.1655   -1.1217    0.1638 C   0  0  0  0  0  0  0  0  0  0  0  0
   -1.0608   -0.7531    0.9765 C   0  0  0  0  0  0  0  0  0  0  0  0
   -1.7138    0.4037    0.2738 C   0  0  0  0  0  0  0  0  0  0  0  0
   -0.5508    0.9990   -0.5058 C   0  0  0  0  0  0  0  0  0  0  0  0
   -0.8391    2.0142   -1.3743 O   0  0  0  0  0  0  0  0  0  0  0  0
    0.8237    0.8606   -0.0281 C   0  0  0  0  0  0  0  0  0  0  0  0
    0.1456   -0.1773   -0.9882 C   0  0  0  0  0  0  0  0  0  0  0  0
    2.3430   -1.5055   -0.6009 H   0  0  0  0  0  0  0  0  0  0  0  0
    1.4392   -0.2714    1.7687 H   0  0  0  0  0  0  0  0  0  0  0  0
    0.3266   -2.1755   -0.0251 H   0  0  0  0  0  0  0  0  0  0  0  0
   -0.7565   -0.3855    1.9993 H   0  0  0  0  0  0  0  0  0  0  0  0
   -1.7568   -1.5950    1.0917 H   0  0  0  0  0  0  0  0  0  0  0  0
   -2.4081   -0.0453   -0.4950 H   0  0  0  0  0  0  0  0  0  0  0  0
   -2.2013    1.1174    0.9317 H   0  0  0  0  0  0  0  0  0  0  0  0
   -0.0994    2.6100   -1.5877 H   0  0  0  0  0  0  0  0  0  0  0  0
    1.5823    1.5126   -0.4804 H   0  0  0  0  0  0  0  0  0  0  0  0
    0.6636   -0.3195   -1.9104 H   0  0  0  0  0  0  0  0  0  0  0  0
  1  2  1  0
  2  3  1  0
  3  4  1  0
  4  5  1  0
  5  6  1  0
  6  7  1  0
  6  8  1  0
  8  9  1  0
  8  2  1  0
  9  3  1  0
  9  6  1  0
  1 10  1  0
  2 11  1  0
  3 12  1  0
  4 13  1  0
  4 14  1  0
  5 15  1  0
  5 16  1  0
  7 17  1  0
  8 18  1  0
  9 19  1  0
M  END
