
     RDKit          3D

 21 22  0  0  0  0  0  0  0  0999 V2000
    2.6073    1.1745   -0.1626 O   0  0  0  0  0  0  0  0  0  0  0  0
    1.8906    0.0181    0.0127 C   0  0  0  0  0  0  0  0  0  0  0  0
    0.7605    0.1223    1.0476 C   0  0  0  0  0  0  0  0  0  0  0  0
   -0.0146   -0.8285    0.1425 C   0  0  0  0  0  0  0  0  0  0  0  0
   -1.4803   -0.6314    0.0968 C   0  0  0  0  0  0  0  0  0  0  0  0
   -2.0406    0.6689   -0.3622 C   0  0  0  0  0  0  0  0  0  0  0  0
   -2.2099    0.2267    1.0537 C   0  0  0  0  0  0  0  0  0  0  0  0
    0.7756   -0.2131   -1.0173 C   0  0  0  0  0  0  0  0  0  0  0  0
    1.0989   -1.0857   -2.0247 O   0  0  0  0  0  0  0  0  0  0  0  0
    3.5557    0.9920    0.1270 H   0  0  0  0  0  0  0  0  0  0  0  0
    2.4508   -0.9189    0.1408 H   0  0  0  0  0  0  0  0  0  0  0  0
    1.0117   -0.2646    2.0352 H   0  0  0  0  0  0  0  0  0  0  0  0
    0.2754    1.1139    1.0178 H   0  0  0  0  0  0  0  0  0  0  0  0
    0.3241   -1.8504    0.3181 H   0  0  0  0  0  0  0  0  0  0  0  0
   -2.0559   -1.5349   -0.2479 H   0  0  0  0  0  0  0  0  0  0  0  0
   -2.9013    0.6602   -1.0621 H   0  0  0  0  0  0  0  0  0  0  0  0
   -1.4003    1.5641   -0.4878 H   0  0  0  0  0  0  0  0  0  0  0  0
   -3.2532   -0.0355    1.3342 H   0  0  0  0  0  0  0  0  0  0  0  0
   -1.6858    0.7734    1.8736 H   0  0  0  0  0  0  0  0  0  0  0  0
    0.3975    0.7868   -1.3246 H   0  0  0  0  0  0  0  0  0  0  0  0
    1.8938   -0.7380   -2.5110 H   0  0  0  0  0  0  0  0  0  0  0  0
  1  2  1  0
  2  3  1  0
  3  4  1  0
  4  5  1  0
  5  6  1  0
  6  7  1  0
  4  8  1  0
  8  9  1  0
  8  2  1  0
  7  5  1  0
  1 10  1  0
  2 11  1  0
  3 12  1  0
  3 13  1  0
  4 14  1  0
  5 15  1  0
  6 16  1  0
  6 17  1  0
  7 18  1  0
  7 19  1  0
  8 20  1  0
  9 21  1  0
M  END
