
     RDKit          3D

 21 22  0  0  0  0  0  0  0  0999 V2000
    2.0581   -1.2816   -0.3383 O   0  0  0  0  0  0  0  0  0  0  0  0
    0.7942   -0.9699    0.1967 C   0  0  0  0  0  0  0  0  0  0  0  0
   -0.2127   -1.1990   -0.8929 C   0  0  0  0  0  0  0  0  0  0  0  0
   -1.5897   -0.7904   -0.4327 C   0  0  0  0  0  0  0  0  0  0  0  0
   -1.6445    0.6208    0.0802 C   0  0  0  0  0  0  0  0  0  0  0  0
   -0.5429    0.8675    1.0758 C   0  0  0  0  0  0  0  0  0  0  0  0
    0.7961    0.4823    0.5494 C   0  0  0  0  0  0  0  0  0  0  0  0
    1.7492    1.3949   -0.0171 C   0  0  0  0  0  0  0  0  0  0  0  0
    1.8640    0.9562    1.3747 O   0  0  0  0  0  0  0  0  0  0  0  0
    2.0299   -0.9328   -1.2817 H   0  0  0  0  0  0  0  0  0  0  0  0
    0.5494   -1.5716    1.0794 H   0  0  0  0  0  0  0  0  0  0  0  0
   -0.2804   -2.2553   -1.2196 H   0  0  0  0  0  0  0  0  0  0  0  0
    0.0405   -0.5794   -1.7772 H   0  0  0  0  0  0  0  0  0  0  0  0
   -2.2603   -0.8818   -1.3339 H   0  0  0  0  0  0  0  0  0  0  0  0
   -1.8974   -1.4900    0.3701 H   0  0  0  0  0  0  0  0  0  0  0  0
   -2.6126    0.7118    0.6515 H   0  0  0  0  0  0  0  0  0  0  0  0
   -1.6285    1.3408   -0.7507 H   0  0  0  0  0  0  0  0  0  0  0  0
   -0.7562    0.1972    1.9578 H   0  0  0  0  0  0  0  0  0  0  0  0
   -0.5315    1.9102    1.4116 H   0  0  0  0  0  0  0  0  0  0  0  0
    2.6052    0.9991   -0.5774 H   0  0  0  0  0  0  0  0  0  0  0  0
    1.4703    2.4710   -0.1257 H   0  0  0  0  0  0  0  0  0  0  0  0
  1  2  1  0
  2  3  1  0
  3  4  1  0
  4  5  1  0
  5  6  1  0
  6  7  1  0
  7  8  1  0
  8  9  1  0
  7  2  1  0
  9  7  1  0
  1 10  1  0
  2 11  1  0
  3 12  1  0
  3 13  1  0
  4 14  1  0
  4 15  1  0
  5 16  1  0
  5 17  1  0
  6 18  1  0
  6 19  1  0
  8 20  1  0
  8 21  1  0
M  END
