
     RDKit          3D

 19 20  0  0  0  0  0  0  0  0999 V2000
    2.2635    0.9471    0.3565 O   0  0  0  0  0  0  0  0  0  0  0  0
    1.2589    0.1986   -0.2094 C   0  0  0  0  0  0  0  0  0  0  0  0
    1.1323   -1.1617    0.4128 C   0  0  0  0  0  0  0  0  0  0  0  0
   -0.0513   -1.7498    0.2682 C   0  0  0  0  0  0  0  0  0  0  0  0
   -1.2237   -0.8614    0.0670 C   0  0  0  0  0  0  0  0  0  0  0  0
   -0.9691    0.3735    0.9423 C   0  0  0  0  0  0  0  0  0  0  0  0
   -0.0763    0.8598   -0.1995 C   0  0  0  0  0  0  0  0  0  0  0  0
   -0.1071    2.2264   -0.3878 O   0  0  0  0  0  0  0  0  0  0  0  0
   -1.0114    0.0708   -1.1253 C   0  0  0  0  0  0  0  0  0  0  0  0
    3.0966    0.7916   -0.1665 H   0  0  0  0  0  0  0  0  0  0  0  0
    1.5151   -0.0093   -1.2899 H   0  0  0  0  0  0  0  0  0  0  0  0
    1.9622   -1.6261    0.9452 H   0  0  0  0  0  0  0  0  0  0  0  0
   -0.1815   -2.8250    0.2920 H   0  0  0  0  0  0  0  0  0  0  0  0
   -2.2074   -1.3025    0.1566 H   0  0  0  0  0  0  0  0  0  0  0  0
   -0.4490    0.1490    1.8769 H   0  0  0  0  0  0  0  0  0  0  0  0
   -1.8557    1.0331    1.0078 H   0  0  0  0  0  0  0  0  0  0  0  0
   -0.6296    2.6698    0.3546 H   0  0  0  0  0  0  0  0  0  0  0  0
   -1.9533    0.6116   -1.3218 H   0  0  0  0  0  0  0  0  0  0  0  0
   -0.5132   -0.3954   -1.9796 H   0  0  0  0  0  0  0  0  0  0  0  0
  1  2  1  0
  2  3  1  0
  3  4  2  0
  4  5  1  0
  5  6  1  0
  6  7  1  0
  7  8  1  0
  7  9  1  0
  7  2  1  0
  9  5  1  0
  1 10  1  0
  2 11  1  0
  3 12  1  0
  4 13  1  0
  5 14  1  0
  6 15  1  0
  6 16  1  0
  8 17  1  0
  9 18  1  0
  9 19  1  0
M  END
