
     RDKit          3D

 19 21  0  0  0  0  0  0  0  0999 V2000
    1.7174    1.3195   -0.1732 O   0  0  0  0  0  0  0  0  0  0  0  0
    1.5806   -0.0786   -0.1740 C   0  0  0  0  0  0  0  0  0  0  0  0
    0.6608   -0.5096   -1.2758 C   0  0  0  0  0  0  0  0  0  0  0  0
   -0.7081   -0.6842   -0.6976 C   0  0  0  0  0  0  0  0  0  0  0  0
   -1.6992    0.4373   -0.7044 C   0  0  0  0  0  0  0  0  0  0  0  0
   -1.4505    0.6058    0.7877 C   0  0  0  0  0  0  0  0  0  0  0  0
   -0.5634   -0.5978    0.7291 C   0  0  0  0  0  0  0  0  0  0  0  0
    0.8898   -0.5041    1.0876 C   0  0  0  0  0  0  0  0  0  0  0  0
   -1.0077   -1.7516    0.1155 O   0  0  0  0  0  0  0  0  0  0  0  0
    1.4986    1.6698    0.7348 H   0  0  0  0  0  0  0  0  0  0  0  0
    2.5731   -0.5839   -0.2849 H   0  0  0  0  0  0  0  0  0  0  0  0
    1.0001   -1.5214   -1.6239 H   0  0  0  0  0  0  0  0  0  0  0  0
    0.6397    0.2028   -2.1148 H   0  0  0  0  0  0  0  0  0  0  0  0
   -2.7490    0.0746   -0.8500 H   0  0  0  0  0  0  0  0  0  0  0  0
   -1.4609    1.3217   -1.3012 H   0  0  0  0  0  0  0  0  0  0  0  0
   -2.3348    0.4444    1.4293 H   0  0  0  0  0  0  0  0  0  0  0  0
   -0.9193    1.5484    0.9874 H   0  0  0  0  0  0  0  0  0  0  0  0
    1.2327   -1.5305    1.3717 H   0  0  0  0  0  0  0  0  0  0  0  0
    1.1001    0.1372    1.9569 H   0  0  0  0  0  0  0  0  0  0  0  0
  1  2  1  0
  2  3  1  0
  3  4  1  0
  4  5  1  0
  5  6  1  0
  6  7  1  0
  7  8  1  0
  7  9  1  0
  8  2  1  0
  7  4  1  0
  9  4  1  0
  1 10  1  0
  2 11  1  0
  3 12  1  0
  3 13  1  0
  5 14  1  0
  5 15  1  0
  6 16  1  0
  6 17  1  0
  8 18  1  0
  8 19  1  0
M  END
