
     RDKit          3D

 19 21  0  0  0  0  0  0  0  0999 V2000
   -1.9290   -0.0446    1.0201 O   0  0  0  0  0  0  0  0  0  0  0  0
   -1.3191    0.3865   -0.1504 C   0  0  0  0  0  0  0  0  0  0  0  0
   -0.7926   -0.7311   -0.9930 C   0  0  0  0  0  0  0  0  0  0  0  0
    0.5693   -1.2158   -0.5748 C   0  0  0  0  0  0  0  0  0  0  0  0
    0.5761   -1.5194    0.7757 O   0  0  0  0  0  0  0  0  0  0  0  0
    1.2657   -0.3951    1.1307 C   0  0  0  0  0  0  0  0  0  0  0  0
    1.0161    0.9415    0.5930 C   0  0  0  0  0  0  0  0  0  0  0  0
   -0.3273    1.4409    0.1823 C   0  0  0  0  0  0  0  0  0  0  0  0
    1.5416   -0.1154   -0.3043 C   0  0  0  0  0  0  0  0  0  0  0  0
   -2.5004   -0.8282    0.8744 H   0  0  0  0  0  0  0  0  0  0  0  0
   -2.1374    0.8829   -0.7517 H   0  0  0  0  0  0  0  0  0  0  0  0
   -1.4933   -1.6023   -0.8484 H   0  0  0  0  0  0  0  0  0  0  0  0
   -0.8083   -0.5051   -2.0811 H   0  0  0  0  0  0  0  0  0  0  0  0
    0.9570   -1.9656   -1.2631 H   0  0  0  0  0  0  0  0  0  0  0  0
    2.0668   -0.5346    1.8694 H   0  0  0  0  0  0  0  0  0  0  0  0
    1.7376    1.7283    0.8622 H   0  0  0  0  0  0  0  0  0  0  0  0
   -0.2227    2.1422   -0.6660 H   0  0  0  0  0  0  0  0  0  0  0  0
   -0.7420    2.0280    1.0536 H   0  0  0  0  0  0  0  0  0  0  0  0
    2.5421   -0.0930   -0.7286 H   0  0  0  0  0  0  0  0  0  0  0  0
  1  2  1  0
  2  3  1  0
  3  4  1  0
  4  5  1  0
  5  6  1  0
  6  7  1  0
  7  8  1  0
  7  9  1  0
  8  2  1  0
  9  4  1  0
  9  6  1  0
  1 10  1  0
  2 11  1  0
  3 12  1  0
  3 13  1  0
  4 14  1  0
  6 15  1  0
  7 16  1  0
  8 17  1  0
  8 18  1  0
  9 19  1  0
M  END
