
     RDKit          3D

 21 23  0  0  0  0  0  0  0  0999 V2000
   -0.8608    2.0112    0.5675 O   0  0  0  0  0  0  0  0  0  0  0  0
   -0.8541    0.7133    1.0654 C   0  0  0  0  0  0  0  0  0  0  0  0
    0.5944    0.3849    1.4778 C   0  0  0  0  0  0  0  0  0  0  0  0
    0.7339   -0.2545    0.1677 C   0  0  0  0  0  0  0  0  0  0  0  0
    1.5136    0.5472   -0.9069 C   0  0  0  0  0  0  0  0  0  0  0  0
    1.8387   -0.8458   -0.4835 C   0  0  0  0  0  0  0  0  0  0  0  0
   -0.6847   -0.3095   -0.0244 C   0  0  0  0  0  0  0  0  0  0  0  0
   -1.4238   -0.3173   -1.2684 C   0  0  0  0  0  0  0  0  0  0  0  0
   -1.5593   -1.4438   -0.2206 C   0  0  0  0  0  0  0  0  0  0  0  0
   -0.1822    2.5540    1.0728 H   0  0  0  0  0  0  0  0  0  0  0  0
   -1.6067    0.4725    1.8112 H   0  0  0  0  0  0  0  0  0  0  0  0
    1.2019    1.2608    1.7189 H   0  0  0  0  0  0  0  0  0  0  0  0
    0.5420   -0.2826    2.3672 H   0  0  0  0  0  0  0  0  0  0  0  0
    2.1002    1.4095   -0.5165 H   0  0  0  0  0  0  0  0  0  0  0  0
    0.9888    0.7708   -1.8402 H   0  0  0  0  0  0  0  0  0  0  0  0
    2.8183   -0.9300    0.0499 H   0  0  0  0  0  0  0  0  0  0  0  0
    1.7009   -1.6361   -1.2346 H   0  0  0  0  0  0  0  0  0  0  0  0
   -0.8310   -0.5778   -2.1910 H   0  0  0  0  0  0  0  0  0  0  0  0
   -2.2694    0.3792   -1.3809 H   0  0  0  0  0  0  0  0  0  0  0  0
   -2.5699   -1.4641    0.2612 H   0  0  0  0  0  0  0  0  0  0  0  0
   -1.1906   -2.4417   -0.4926 H   0  0  0  0  0  0  0  0  0  0  0  0
  1  2  1  0
  2  3  1  0
  3  4  1  0
  4  5  1  0
  5  6  1  0
  4  7  1  0
  7  8  1  0
  8  9  1  0
  7  2  1  0
  6  4  1  0
  9  7  1  0
  1 10  1  0
  2 11  1  0
  3 12  1  0
  3 13  1  0
  5 14  1  0
  5 15  1  0
  6 16  1  0
  6 17  1  0
  8 18  1  0
  8 19  1  0
  9 20  1  0
  9 21  1  0
M  END
