
     RDKit          3D

 23 24  0  0  0  0  0  0  0  0999 V2000
    3.2059   -0.9100    0.1140 O   0  0  0  0  0  0  0  0  0  0  0  0
    2.1901   -0.0637   -0.2757 C   0  0  0  0  0  0  0  0  0  0  0  0
    1.0336   -0.8635   -0.8388 C   0  0  0  0  0  0  0  0  0  0  0  0
    0.0950   -0.1002    0.0485 C   0  0  0  0  0  0  0  0  0  0  0  0
   -0.6854    0.9100   -0.7455 C   0  0  0  0  0  0  0  0  0  0  0  0
   -2.0038    1.0538   -0.0397 C   0  0  0  0  0  0  0  0  0  0  0  0
   -2.2133   -0.2041    0.7602 C   0  0  0  0  0  0  0  0  0  0  0  0
   -0.8888   -0.9134    0.8322 C   0  0  0  0  0  0  0  0  0  0  0  0
    1.2758    0.4282    0.8132 C   0  0  0  0  0  0  0  0  0  0  0  0
    3.7789   -0.5652    0.8309 H   0  0  0  0  0  0  0  0  0  0  0  0
    2.4736    0.7595   -0.9679 H   0  0  0  0  0  0  0  0  0  0  0  0
    0.9070   -0.6907   -1.9388 H   0  0  0  0  0  0  0  0  0  0  0  0
    1.0647   -1.9465   -0.6547 H   0  0  0  0  0  0  0  0  0  0  0  0
   -0.1577    1.8558   -0.9125 H   0  0  0  0  0  0  0  0  0  0  0  0
   -0.8613    0.4558   -1.7546 H   0  0  0  0  0  0  0  0  0  0  0  0
   -2.8227    1.1086   -0.8020 H   0  0  0  0  0  0  0  0  0  0  0  0
   -1.9826    1.9597    0.5960 H   0  0  0  0  0  0  0  0  0  0  0  0
   -2.9392   -0.8770    0.2826 H   0  0  0  0  0  0  0  0  0  0  0  0
   -2.5861    0.0694    1.7766 H   0  0  0  0  0  0  0  0  0  0  0  0
   -0.5624   -0.9218    1.8970 H   0  0  0  0  0  0  0  0  0  0  0  0
   -0.9416   -1.9607    0.4792 H   0  0  0  0  0  0  0  0  0  0  0  0
    1.2339    1.5192    0.9482 H   0  0  0  0  0  0  0  0  0  0  0  0
    1.3863   -0.1034    1.7808 H   0  0  0  0  0  0  0  0  0  0  0  0
  1  2  1  0
  2  3  1  0
  3  4  1  0
  4  5  1  0
  5  6  1  0
  6  7  1  0
  7  8  1  0
  4  9  1  0
  9  2  1  0
  8  4  1  0
  1 10  1  0
  2 11  1  0
  3 12  1  0
  3 13  1  0
  5 14  1  0
  5 15  1  0
  6 16  1  0
  6 17  1  0
  7 18  1  0
  7 19  1  0
  8 20  1  0
  8 21  1  0
  9 22  1  0
  9 23  1  0
M  END
