
     RDKit          3D

 16 17  0  0  0  0  0  0  0  0999 V2000
   -2.2313   -1.3244   -0.3029 O   0  0  0  0  0  0  0  0  0  0  0  0
   -1.1325   -0.6767    0.3009 C   0  0  0  0  0  0  0  0  0  0  0  0
   -1.4214    0.8138    0.5098 C   0  0  0  0  0  0  0  0  0  0  0  0
   -0.4924    1.1001   -0.4921 O   0  0  0  0  0  0  0  0  0  0  0  0
   -0.0700   -0.2210   -0.6349 C   0  0  0  0  0  0  0  0  0  0  0  0
    1.3566   -0.4587   -0.1775 C   0  0  0  0  0  0  0  0  0  0  0  0
    2.1328    0.5637    0.4089 C   0  0  0  0  0  0  0  0  0  0  0  0
    2.2359    0.4263   -1.0215 O   0  0  0  0  0  0  0  0  0  0  0  0
   -2.2105   -1.0684   -1.2588 H   0  0  0  0  0  0  0  0  0  0  0  0
   -0.8265   -1.1755    1.2245 H   0  0  0  0  0  0  0  0  0  0  0  0
   -2.4571    1.0998    0.2794 H   0  0  0  0  0  0  0  0  0  0  0  0
   -1.1088    1.1621    1.5328 H   0  0  0  0  0  0  0  0  0  0  0  0
   -0.2648   -0.6255   -1.6609 H   0  0  0  0  0  0  0  0  0  0  0  0
    1.7319   -1.4860   -0.3338 H   0  0  0  0  0  0  0  0  0  0  0  0
    1.6630    1.5146    0.7387 H   0  0  0  0  0  0  0  0  0  0  0  0
    3.0951    0.3559    0.8874 H   0  0  0  0  0  0  0  0  0  0  0  0
  1  2  1  0
  2  3  1  0
  3  4  1  0
  4  5  1  0
  5  6  1  0
  6  7  1  0
  7  8  1  0
  5  2  1  0
  8  6  1  0
  1  9  1  0
  2 10  1  0
  3 11  1  0
  3 12  1  0
  5 13  1  0
  6 14  1  0
  7 15  1  0
  7 16  1  0
M  END
