
     RDKit          3D

 21 23  0  0  0  0  0  0  0  0999 V2000
    1.5133    0.2704   -2.3484 O   0  0  0  0  0  0  0  0  0  0  0  0
    1.5578   -0.4465   -1.1354 C   0  0  0  0  0  0  0  0  0  0  0  0
    1.4516    0.2264    0.0860 C   0  0  0  0  0  0  0  0  0  0  0  0
    1.1583   -0.1658    1.4847 C   0  0  0  0  0  0  0  0  0  0  0  0
   -0.3436    0.1960    1.5184 C   0  0  0  0  0  0  0  0  0  0  0  0
   -0.7673    0.0731    0.0482 C   0  0  0  0  0  0  0  0  0  0  0  0
   -2.1679   -0.3833   -0.2554 C   0  0  0  0  0  0  0  0  0  0  0  0
   -1.6584    0.9717   -0.6015 C   0  0  0  0  0  0  0  0  0  0  0  0
    0.3298   -0.7232   -0.5069 C   0  0  0  0  0  0  0  0  0  0  0  0
    2.4324    0.4696   -2.6721 H   0  0  0  0  0  0  0  0  0  0  0  0
    2.3468   -1.2497   -1.2303 H   0  0  0  0  0  0  0  0  0  0  0  0
    1.2310    1.3372   -0.0078 H   0  0  0  0  0  0  0  0  0  0  0  0
    1.2135   -1.2605    1.6594 H   0  0  0  0  0  0  0  0  0  0  0  0
    1.6740    0.4362    2.2334 H   0  0  0  0  0  0  0  0  0  0  0  0
   -0.9205   -0.5521    2.0743 H   0  0  0  0  0  0  0  0  0  0  0  0
   -0.4637    1.2296    1.8851 H   0  0  0  0  0  0  0  0  0  0  0  0
   -2.8598   -0.5412    0.5825 H   0  0  0  0  0  0  0  0  0  0  0  0
   -2.3203   -1.1309   -1.0822 H   0  0  0  0  0  0  0  0  0  0  0  0
   -1.5686    1.1845   -1.6715 H   0  0  0  0  0  0  0  0  0  0  0  0
   -2.1153    1.8148   -0.0287 H   0  0  0  0  0  0  0  0  0  0  0  0
    0.2769   -1.7562   -0.0319 H   0  0  0  0  0  0  0  0  0  0  0  0
  1  2  1  0
  2  3  1  0
  3  4  1  0
  4  5  1  0
  5  6  1  0
  6  7  1  0
  7  8  1  0
  6  9  1  0
  9  2  1  0
  9  3  1  0
  8  6  1  0
  1 10  1  0
  2 11  1  0
  3 12  1  0
  4 13  1  0
  4 14  1  0
  5 15  1  0
  5 16  1  0
  7 17  1  0
  7 18  1  0
  8 19  1  0
  8 20  1  0
  9 21  1  0
M  END
