
     RDKit          3D

 19 20  0  0  0  0  0  0  0  0999 V2000
   -1.6387    1.2694   -1.6676 O   0  0  0  0  0  0  0  0  0  0  0  0
   -1.3215    0.1785   -0.8595 C   0  0  0  0  0  0  0  0  0  0  0  0
   -1.9628    0.1590    0.4698 C   0  0  0  0  0  0  0  0  0  0  0  0
   -0.4646    0.4165    0.3258 C   0  0  0  0  0  0  0  0  0  0  0  0
   -0.0211    1.7311    0.4915 O   0  0  0  0  0  0  0  0  0  0  0  0
    0.4044   -0.6451    0.9056 C   0  0  0  0  0  0  0  0  0  0  0  0
    1.4323   -1.1732   -0.0593 C   0  0  0  0  0  0  0  0  0  0  0  0
    2.4072   -0.2006   -0.6030 C   0  0  0  0  0  0  0  0  0  0  0  0
    2.8002   -1.1561    0.4098 O   0  0  0  0  0  0  0  0  0  0  0  0
   -2.6215    1.1816   -1.8622 H   0  0  0  0  0  0  0  0  0  0  0  0
   -1.1986   -0.7845   -1.3989 H   0  0  0  0  0  0  0  0  0  0  0  0
   -2.5277    1.0244    0.8643 H   0  0  0  0  0  0  0  0  0  0  0  0
   -2.3005   -0.8052    0.8703 H   0  0  0  0  0  0  0  0  0  0  0  0
   -0.1094    2.0500    1.4257 H   0  0  0  0  0  0  0  0  0  0  0  0
    0.9559   -0.1743    1.7715 H   0  0  0  0  0  0  0  0  0  0  0  0
   -0.1916   -1.4463    1.3453 H   0  0  0  0  0  0  0  0  0  0  0  0
    1.1399   -2.0556   -0.6464 H   0  0  0  0  0  0  0  0  0  0  0  0
    2.8611   -0.4047   -1.5745 H   0  0  0  0  0  0  0  0  0  0  0  0
    2.3570    0.8353   -0.2083 H   0  0  0  0  0  0  0  0  0  0  0  0
  1  2  1  0
  2  3  1  0
  3  4  1  0
  4  5  1  0
  4  6  1  0
  6  7  1  0
  7  8  1  0
  8  9  1  0
  4  2  1  0
  9  7  1  0
  1 10  1  0
  2 11  1  0
  3 12  1  0
  3 13  1  0
  5 14  1  0
  6 15  1  0
  6 16  1  0
  7 17  1  0
  8 18  1  0
  8 19  1  0
M  END
