
     RDKit          3D

 19 20  0  0  0  0  0  0  0  0999 V2000
   -2.2015    0.9147    0.1842 O   0  0  0  0  0  0  0  0  0  0  0  0
   -1.1877    0.2267    0.8820 C   0  0  0  0  0  0  0  0  0  0  0  0
   -1.1811   -1.2393    0.5381 C   0  0  0  0  0  0  0  0  0  0  0  0
   -0.6080   -1.4610   -0.8194 C   0  0  0  0  0  0  0  0  0  0  0  0
    0.3381   -0.7013   -1.3174 C   0  0  0  0  0  0  0  0  0  0  0  0
    0.8865    0.4164   -0.5563 C   0  0  0  0  0  0  0  0  0  0  0  0
    2.4075    0.4956   -0.3608 C   0  0  0  0  0  0  0  0  0  0  0  0
    1.7092    1.2655   -1.2888 O   0  0  0  0  0  0  0  0  0  0  0  0
    0.1053    0.9081    0.5938 C   0  0  0  0  0  0  0  0  0  0  0  0
   -1.9736    1.8807    0.2771 H   0  0  0  0  0  0  0  0  0  0  0  0
   -1.4289    0.3498    1.9525 H   0  0  0  0  0  0  0  0  0  0  0  0
   -2.2429   -1.5577    0.4980 H   0  0  0  0  0  0  0  0  0  0  0  0
   -0.6141   -1.7858    1.3144 H   0  0  0  0  0  0  0  0  0  0  0  0
   -1.0087   -2.2980   -1.4039 H   0  0  0  0  0  0  0  0  0  0  0  0
    0.7010   -0.9409   -2.3332 H   0  0  0  0  0  0  0  0  0  0  0  0
    2.9146   -0.4213   -0.6654 H   0  0  0  0  0  0  0  0  0  0  0  0
    2.7836    1.0846    0.4909 H   0  0  0  0  0  0  0  0  0  0  0  0
   -0.1270    2.0066    0.4776 H   0  0  0  0  0  0  0  0  0  0  0  0
    0.7277    0.8567    1.5366 H   0  0  0  0  0  0  0  0  0  0  0  0
  1  2  1  0
  2  3  1  0
  3  4  1  0
  4  5  2  0
  5  6  1  0
  6  7  1  0
  7  8  1  0
  6  9  1  0
  9  2  1  0
  8  6  1  0
  1 10  1  0
  2 11  1  0
  3 12  1  0
  3 13  1  0
  4 14  1  0
  5 15  1  0
  7 16  1  0
  7 17  1  0
  9 18  1  0
  9 19  1  0
M  END
