
     RDKit          3D

 19 21  0  0  0  0  0  0  0  0999 V2000
    2.3840    0.3873    0.0753 O   0  0  0  0  0  0  0  0  0  0  0  0
    1.3008   -0.4524   -0.1409 C   0  0  0  0  0  0  0  0  0  0  0  0
    0.4162   -0.5831    1.0795 C   0  0  0  0  0  0  0  0  0  0  0  0
   -0.0685    0.8327    1.2433 C   0  0  0  0  0  0  0  0  0  0  0  0
   -0.5235    1.0956   -0.2026 C   0  0  0  0  0  0  0  0  0  0  0  0
    0.2856    0.2331   -1.0699 C   0  0  0  0  0  0  0  0  0  0  0  0
   -1.0612   -0.1989   -0.6471 C   0  0  0  0  0  0  0  0  0  0  0  0
   -2.1233   -0.3184   -1.4924 O   0  0  0  0  0  0  0  0  0  0  0  0
   -0.8201   -1.2201    0.4471 C   0  0  0  0  0  0  0  0  0  0  0  0
    2.7066    0.7958   -0.7628 H   0  0  0  0  0  0  0  0  0  0  0  0
    1.6076   -1.4260   -0.5166 H   0  0  0  0  0  0  0  0  0  0  0  0
    0.8157   -1.0733    1.9210 H   0  0  0  0  0  0  0  0  0  0  0  0
    0.7425    1.5016    1.5390 H   0  0  0  0  0  0  0  0  0  0  0  0
   -0.9647    0.8918    1.8912 H   0  0  0  0  0  0  0  0  0  0  0  0
   -0.9258    2.0627   -0.4679 H   0  0  0  0  0  0  0  0  0  0  0  0
    0.5625    0.4465   -2.0920 H   0  0  0  0  0  0  0  0  0  0  0  0
   -2.1991    0.5198   -2.0144 H   0  0  0  0  0  0  0  0  0  0  0  0
   -0.4963   -2.1991    0.0467 H   0  0  0  0  0  0  0  0  0  0  0  0
   -1.6389   -1.2957    1.1635 H   0  0  0  0  0  0  0  0  0  0  0  0
  1  2  1  0
  2  3  1  0
  3  4  1  0
  4  5  1  0
  5  6  1  0
  6  7  1  0
  7  8  1  0
  7  9  1  0
  6  2  1  0
  9  3  1  0
  7  5  1  0
  1 10  1  0
  2 11  1  0
  3 12  1  0
  4 13  1  0
  4 14  1  0
  5 15  1  0
  6 16  1  0
  8 17  1  0
  9 18  1  0
  9 19  1  0
M  END
