
     RDKit          3D

 18 19  0  0  0  0  0  0  0  0999 V2000
    1.5231   -0.9918    1.0934 O   0  0  0  0  0  0  0  0  0  0  0  0
    1.2246    0.0973    0.2771 C   0  0  0  0  0  0  0  0  0  0  0  0
    0.4993   -0.2848   -1.0184 C   0  0  0  0  0  0  0  0  0  0  0  0
   -0.6086   -1.1853   -0.5830 C   0  0  0  0  0  0  0  0  0  0  0  0
   -1.0117   -0.4670    0.7212 C   0  0  0  0  0  0  0  0  0  0  0  0
   -0.1182    0.7332    0.6121 C   0  0  0  0  0  0  0  0  0  0  0  0
   -0.1701    1.7117    1.5011 O   0  0  0  0  0  0  0  0  0  0  0  0
   -0.1651    1.0911   -0.8791 C   0  0  0  0  0  0  0  0  0  0  0  0
    1.8309   -1.7512    0.5401 H   0  0  0  0  0  0  0  0  0  0  0  0
    2.0432    0.8018    0.1008 H   0  0  0  0  0  0  0  0  0  0  0  0
    1.0749   -0.4772   -1.8793 H   0  0  0  0  0  0  0  0  0  0  0  0
   -1.4963   -1.0725   -1.2663 H   0  0  0  0  0  0  0  0  0  0  0  0
   -0.3379   -2.2217   -0.4128 H   0  0  0  0  0  0  0  0  0  0  0  0
   -0.6335   -1.1008    1.5332 H   0  0  0  0  0  0  0  0  0  0  0  0
   -2.0767   -0.2451    0.7497 H   0  0  0  0  0  0  0  0  0  0  0  0
   -0.9308    2.3206    1.3319 H   0  0  0  0  0  0  0  0  0  0  0  0
    0.5295    1.9075   -1.1358 H   0  0  0  0  0  0  0  0  0  0  0  0
   -1.1767    1.1341   -1.2860 H   0  0  0  0  0  0  0  0  0  0  0  0
  1  2  1  0
  2  3  1  0
  3  4  1  0
  4  5  1  0
  5  6  1  0
  6  7  1  0
  6  8  1  0
  6  2  1  0
  8  3  1  0
  1  9  1  0
  2 10  1  0
  3 11  1  0
  4 12  1  0
  4 13  1  0
  5 14  1  0
  5 15  1  0
  7 16  1  0
  8 17  1  0
  8 18  1  0
M  END
