
     RDKit          3D

 19 20  0  0  0  0  0  0  0  0999 V2000
    1.7644    0.2985    1.0944 O   0  0  0  0  0  0  0  0  0  0  0  0
    1.4273    0.4169   -0.2641 C   0  0  0  0  0  0  0  0  0  0  0  0
    0.4168    1.5499   -0.2992 C   0  0  0  0  0  0  0  0  0  0  0  0
   -0.8919    1.3402   -0.2630 C   0  0  0  0  0  0  0  0  0  0  0  0
   -1.5071   -0.0433   -0.1832 C   0  0  0  0  0  0  0  0  0  0  0  0
   -2.6028   -0.0259    0.6607 O   0  0  0  0  0  0  0  0  0  0  0  0
   -0.4417   -0.8742    0.3926 C   0  0  0  0  0  0  0  0  0  0  0  0
    0.3054   -1.9756   -0.0768 C   0  0  0  0  0  0  0  0  0  0  0  0
    0.6747   -0.7667   -0.7016 C   0  0  0  0  0  0  0  0  0  0  0  0
    2.4807    0.9557    1.3056 H   0  0  0  0  0  0  0  0  0  0  0  0
    2.2853    0.6798   -0.8936 H   0  0  0  0  0  0  0  0  0  0  0  0
    0.7665    2.5792   -0.3562 H   0  0  0  0  0  0  0  0  0  0  0  0
   -1.5377    2.2084   -0.2925 H   0  0  0  0  0  0  0  0  0  0  0  0
   -1.7762   -0.3254   -1.2318 H   0  0  0  0  0  0  0  0  0  0  0  0
   -2.3050    0.3507    1.5190 H   0  0  0  0  0  0  0  0  0  0  0  0
   -0.1687   -0.4895    1.4226 H   0  0  0  0  0  0  0  0  0  0  0  0
    1.0115   -2.4902    0.6230 H   0  0  0  0  0  0  0  0  0  0  0  0
   -0.2233   -2.7624   -0.6872 H   0  0  0  0  0  0  0  0  0  0  0  0
    0.3218   -0.6260   -1.7687 H   0  0  0  0  0  0  0  0  0  0  0  0
  1  2  1  0
  2  3  1  0
  3  4  2  0
  4  5  1  0
  5  6  1  0
  5  7  1  0
  7  8  1  0
  8  9  1  0
  9  2  1  0
  9  7  1  0
  1 10  1  0
  2 11  1  0
  3 12  1  0
  4 13  1  0
  5 14  1  0
  6 15  1  0
  7 16  1  0
  8 17  1  0
  8 18  1  0
  9 19  1  0
M  END
