
     RDKit          3D

 19 20  0  0  0  0  0  0  0  0999 V2000
    1.2807   -2.1841    0.1303 O   0  0  0  0  0  0  0  0  0  0  0  0
    1.1809   -0.8963   -0.3921 C   0  0  0  0  0  0  0  0  0  0  0  0
    1.5796    0.2243    0.6067 C   0  0  0  0  0  0  0  0  0  0  0  0
    2.4196    1.2045    0.0814 O   0  0  0  0  0  0  0  0  0  0  0  0
    0.1945    0.0642    0.1532 C   0  0  0  0  0  0  0  0  0  0  0  0
   -0.9123   -0.3901    1.0672 C   0  0  0  0  0  0  0  0  0  0  0  0
   -2.1580   -0.1213    0.3190 C   0  0  0  0  0  0  0  0  0  0  0  0
   -1.9245    0.6968   -0.6882 C   0  0  0  0  0  0  0  0  0  0  0  0
   -0.4912    1.0686   -0.7273 C   0  0  0  0  0  0  0  0  0  0  0  0
    1.5074   -2.8584   -0.5485 H   0  0  0  0  0  0  0  0  0  0  0  0
    1.5575   -0.7686   -1.4322 H   0  0  0  0  0  0  0  0  0  0  0  0
    1.9090   -0.1147    1.6168 H   0  0  0  0  0  0  0  0  0  0  0  0
    1.9394    1.8443   -0.4988 H   0  0  0  0  0  0  0  0  0  0  0  0
   -0.7961   -1.4755    1.3084 H   0  0  0  0  0  0  0  0  0  0  0  0
   -0.9306    0.2111    2.0010 H   0  0  0  0  0  0  0  0  0  0  0  0
   -3.1408   -0.5622    0.5917 H   0  0  0  0  0  0  0  0  0  0  0  0
   -2.7110    1.0420   -1.3928 H   0  0  0  0  0  0  0  0  0  0  0  0
   -0.1539    0.9018   -1.7863 H   0  0  0  0  0  0  0  0  0  0  0  0
   -0.3504    2.1135   -0.4094 H   0  0  0  0  0  0  0  0  0  0  0  0
  1  2  1  0
  2  3  1  0
  3  4  1  0
  3  5  1  0
  5  6  1  0
  6  7  1  0
  7  8  2  0
  8  9  1  0
  5  2  1  0
  9  5  1  0
  1 10  1  0
  2 11  1  0
  3 12  1  0
  4 13  1  0
  6 14  1  0
  6 15  1  0
  7 16  1  0
  8 17  1  0
  9 18  1  0
  9 19  1  0
M  END
