
     RDKit          3D

 21 22  0  0  0  0  0  0  0  0999 V2000
   -0.7593    1.5906    0.1315 O   0  0  0  0  0  0  0  0  0  0  0  0
   -1.0629    0.4969   -0.6549 C   0  0  0  0  0  0  0  0  0  0  0  0
   -2.2980   -0.1870   -0.0415 C   0  0  0  0  0  0  0  0  0  0  0  0
   -1.2774   -0.8798    0.8827 C   0  0  0  0  0  0  0  0  0  0  0  0
   -0.3607   -0.7836   -0.3083 C   0  0  0  0  0  0  0  0  0  0  0  0
    1.0888   -0.7465   -0.0799 C   0  0  0  0  0  0  0  0  0  0  0  0
    1.6631    0.0829    0.9828 C   0  0  0  0  0  0  0  0  0  0  0  0
    2.3984    0.8146   -0.1202 C   0  0  0  0  0  0  0  0  0  0  0  0
    1.7072    0.0693   -1.0582 O   0  0  0  0  0  0  0  0  0  0  0  0
   -1.5819    1.9482    0.5921 H   0  0  0  0  0  0  0  0  0  0  0  0
   -1.1632    0.7201   -1.7264 H   0  0  0  0  0  0  0  0  0  0  0  0
   -2.9847    0.4842    0.4700 H   0  0  0  0  0  0  0  0  0  0  0  0
   -2.7397   -0.8891   -0.7893 H   0  0  0  0  0  0  0  0  0  0  0  0
   -1.6048   -1.8928    1.1610 H   0  0  0  0  0  0  0  0  0  0  0  0
   -1.0691   -0.1994    1.7187 H   0  0  0  0  0  0  0  0  0  0  0  0
   -0.6395   -1.5709   -1.0467 H   0  0  0  0  0  0  0  0  0  0  0  0
    1.5299   -1.7747   -0.1402 H   0  0  0  0  0  0  0  0  0  0  0  0
    1.0404    0.7071    1.6066 H   0  0  0  0  0  0  0  0  0  0  0  0
    2.4110   -0.4758    1.6069 H   0  0  0  0  0  0  0  0  0  0  0  0
    3.4869    0.5746   -0.1944 H   0  0  0  0  0  0  0  0  0  0  0  0
    2.2155    1.9112   -0.1469 H   0  0  0  0  0  0  0  0  0  0  0  0
  1  2  1  0
  2  3  1  0
  3  4  1  0
  4  5  1  0
  5  6  1  0
  6  7  1  0
  7  8  1  0
  8  9  1  0
  5  2  1  0
  9  6  1  0
  1 10  1  0
  2 11  1  0
  3 12  1  0
  3 13  1  0
  4 14  1  0
  4 15  1  0
  5 16  1  0
  6 17  1  0
  7 18  1  0
  7 19  1  0
  8 20  1  0
  8 21  1  0
M  END
