
     RDKit          3D

 18 19  0  0  0  0  0  0  0  0999 V2000
   -1.0576   -1.6021   -0.0268 O   0  0  0  0  0  0  0  0  0  0  0  0
   -0.9163   -0.4144   -0.7600 C   0  0  0  0  0  0  0  0  0  0  0  0
   -1.2332    0.7284    0.1904 C   0  0  0  0  0  0  0  0  0  0  0  0
   -0.0850    0.7164    1.2068 C   0  0  0  0  0  0  0  0  0  0  0  0
    1.1755    0.7256    0.3752 C   0  0  0  0  0  0  0  0  0  0  0  0
    1.4623   -0.6846   -0.0434 C   0  0  0  0  0  0  0  0  0  0  0  0
    0.5307   -0.2710   -1.1538 C   0  0  0  0  0  0  0  0  0  0  0  0
    0.9576    1.0515   -0.9468 O   0  0  0  0  0  0  0  0  0  0  0  0
   -2.0370   -1.7983   -0.0425 H   0  0  0  0  0  0  0  0  0  0  0  0
   -1.5662   -0.4531   -1.6299 H   0  0  0  0  0  0  0  0  0  0  0  0
   -1.0843    1.6656   -0.3976 H   0  0  0  0  0  0  0  0  0  0  0  0
   -2.2100    0.6467    0.6612 H   0  0  0  0  0  0  0  0  0  0  0  0
   -0.1692   -0.2519    1.7587 H   0  0  0  0  0  0  0  0  0  0  0  0
   -0.1508    1.5361    1.9216 H   0  0  0  0  0  0  0  0  0  0  0  0
    1.9876    1.2915    0.8386 H   0  0  0  0  0  0  0  0  0  0  0  0
    1.1076   -1.4864    0.6202 H   0  0  0  0  0  0  0  0  0  0  0  0
    2.4963   -0.7957   -0.4066 H   0  0  0  0  0  0  0  0  0  0  0  0
    0.7920   -0.6042   -2.1651 H   0  0  0  0  0  0  0  0  0  0  0  0
  1  2  1  0
  2  3  1  0
  3  4  1  0
  4  5  1  0
  5  6  1  0
  6  7  1  0
  7  8  1  0
  7  2  1  0
  8  5  1  0
  1  9  1  0
  2 10  1  0
  3 11  1  0
  3 12  1  0
  4 13  1  0
  4 14  1  0
  5 15  1  0
  6 16  1  0
  6 17  1  0
  7 18  1  0
M  END
