
     RDKit          3D

 16 17  0  0  0  0  0  0  0  0999 V2000
   -0.9275   -1.8019    0.1816 O   0  0  0  0  0  0  0  0  0  0  0  0
   -0.9064   -0.6033   -0.5429 C   0  0  0  0  0  0  0  0  0  0  0  0
   -1.9050    0.4338   -0.0551 C   0  0  0  0  0  0  0  0  0  0  0  0
   -0.9583    0.9573    0.8575 O   0  0  0  0  0  0  0  0  0  0  0  0
    0.0133    0.3741    0.1038 C   0  0  0  0  0  0  0  0  0  0  0  0
    1.1058    1.0551   -0.5608 C   0  0  0  0  0  0  0  0  0  0  0  0
    1.3612    0.0541    0.5317 C   0  0  0  0  0  0  0  0  0  0  0  0
    1.8450   -1.2066    0.1212 O   0  0  0  0  0  0  0  0  0  0  0  0
   -1.0007   -1.6161    1.1363 H   0  0  0  0  0  0  0  0  0  0  0  0
   -0.8388   -0.7312   -1.6239 H   0  0  0  0  0  0  0  0  0  0  0  0
   -2.0920    1.1577   -0.8617 H   0  0  0  0  0  0  0  0  0  0  0  0
   -2.7884    0.0480    0.4528 H   0  0  0  0  0  0  0  0  0  0  0  0
    1.3335    2.1138   -0.2834 H   0  0  0  0  0  0  0  0  0  0  0  0
    1.3767    0.8041   -1.6140 H   0  0  0  0  0  0  0  0  0  0  0  0
    1.7452    0.3943    1.5200 H   0  0  0  0  0  0  0  0  0  0  0  0
    2.6364   -1.4331    0.6368 H   0  0  0  0  0  0  0  0  0  0  0  0
  1  2  1  0
  2  3  1  0
  3  4  1  0
  4  5  1  0
  5  6  1  0
  6  7  1  0
  7  8  1  0
  5  2  1  0
  7  5  1  0
  1  9  1  0
  2 10  1  0
  3 11  1  0
  3 12  1  0
  6 13  1  0
  6 14  1  0
  7 15  1  0
  8 16  1  0
M  END
