
     RDKit          3D

 18 19  0  0  0  0  0  0  0  0999 V2000
   -1.7112    1.2915    1.2448 O   0  0  0  0  0  0  0  0  0  0  0  0
   -1.2425    0.1172    0.7152 C   0  0  0  0  0  0  0  0  0  0  0  0
   -2.2456   -0.4986   -0.2438 C   0  0  0  0  0  0  0  0  0  0  0  0
   -1.3503   -0.4540   -1.3042 O   0  0  0  0  0  0  0  0  0  0  0  0
   -0.4162    0.2342   -0.5384 C   0  0  0  0  0  0  0  0  0  0  0  0
    0.8606   -0.5211   -0.4279 C   0  0  0  0  0  0  0  0  0  0  0  0
    1.8589   -0.1945    0.6271 C   0  0  0  0  0  0  0  0  0  0  0  0
    2.1663    0.1043   -0.8155 C   0  0  0  0  0  0  0  0  0  0  0  0
   -1.0277    1.9809    1.3985 H   0  0  0  0  0  0  0  0  0  0  0  0
   -0.8318   -0.5884    1.4740 H   0  0  0  0  0  0  0  0  0  0  0  0
   -3.1745    0.0880   -0.3860 H   0  0  0  0  0  0  0  0  0  0  0  0
   -2.5141   -1.5534   -0.0050 H   0  0  0  0  0  0  0  0  0  0  0  0
   -0.3378    1.2744   -0.9268 H   0  0  0  0  0  0  0  0  0  0  0  0
    0.7955   -1.6021   -0.6847 H   0  0  0  0  0  0  0  0  0  0  0  0
    2.3603   -1.0140    1.1547 H   0  0  0  0  0  0  0  0  0  0  0  0
    1.7482    0.7269    1.2428 H   0  0  0  0  0  0  0  0  0  0  0  0
    2.1201    1.1283   -1.1939 H   0  0  0  0  0  0  0  0  0  0  0  0
    2.9418   -0.5198   -1.3310 H   0  0  0  0  0  0  0  0  0  0  0  0
  1  2  1  0
  2  3  1  0
  3  4  1  0
  4  5  1  0
  5  6  1  0
  6  7  1  0
  7  8  1  0
  5  2  1  0
  8  6  1  0
  1  9  1  0
  2 10  1  0
  3 11  1  0
  3 12  1  0
  5 13  1  0
  6 14  1  0
  7 15  1  0
  7 16  1  0
  8 17  1  0
  8 18  1  0
M  END
