
     RDKit          3D

 18 19  0  0  0  0  0  0  0  0999 V2000
   -1.1986    0.9647   -1.2357 O   0  0  0  0  0  0  0  0  0  0  0  0
   -1.0725   -0.2515   -0.6115 C   0  0  0  0  0  0  0  0  0  0  0  0
   -1.3158   -0.0732    0.9047 C   0  0  0  0  0  0  0  0  0  0  0  0
    0.1024    0.0055    1.5120 C   0  0  0  0  0  0  0  0  0  0  0  0
    0.8532    0.3986    0.3013 C   0  0  0  0  0  0  0  0  0  0  0  0
    1.5849   -0.2798   -0.6832 C   0  0  0  0  0  0  0  0  0  0  0  0
    1.9417    0.3912   -1.8784 O   0  0  0  0  0  0  0  0  0  0  0  0
    0.2966   -0.8073   -0.5613 C   0  0  0  0  0  0  0  0  0  0  0  0
   -2.1781    1.1489   -1.3276 H   0  0  0  0  0  0  0  0  0  0  0  0
   -1.8150   -0.9770   -1.0312 H   0  0  0  0  0  0  0  0  0  0  0  0
   -1.8268   -0.9600    1.3024 H   0  0  0  0  0  0  0  0  0  0  0  0
   -1.8181    0.8803    1.1152 H   0  0  0  0  0  0  0  0  0  0  0  0
    0.4405   -0.9910    1.8414 H   0  0  0  0  0  0  0  0  0  0  0  0
    0.1455    0.7766    2.3050 H   0  0  0  0  0  0  0  0  0  0  0  0
    0.4816    1.4252   -0.0136 H   0  0  0  0  0  0  0  0  0  0  0  0
    2.4788   -0.8849   -0.3504 H   0  0  0  0  0  0  0  0  0  0  0  0
    2.6617    1.0351   -1.5787 H   0  0  0  0  0  0  0  0  0  0  0  0
    0.2380   -1.8015   -0.0103 H   0  0  0  0  0  0  0  0  0  0  0  0
  1  2  1  0
  2  3  1  0
  3  4  1  0
  4  5  1  0
  5  6  1  0
  6  7  1  0
  6  8  1  0
  8  2  1  0
  8  5  1  0
  1  9  1  0
  2 10  1  0
  3 11  1  0
  3 12  1  0
  4 13  1  0
  4 14  1  0
  5 15  1  0
  6 16  1  0
  7 17  1  0
  8 18  1  0
M  END
