
     RDKit          3D

 19 21  0  0  0  0  0  0  0  0999 V2000
   -2.5204    0.5819    0.4135 O   0  0  0  0  0  0  0  0  0  0  0  0
   -1.7456   -0.5685    0.3205 C   0  0  0  0  0  0  0  0  0  0  0  0
   -1.1030   -0.8788   -1.0388 C   0  0  0  0  0  0  0  0  0  0  0  0
   -0.2879   -0.3806    0.0200 C   0  0  0  0  0  0  0  0  0  0  0  0
    0.7307   -1.2154    0.8033 C   0  0  0  0  0  0  0  0  0  0  0  0
    1.7404   -0.2681    1.1358 O   0  0  0  0  0  0  0  0  0  0  0  0
    1.7646    0.4408   -0.0231 C   0  0  0  0  0  0  0  0  0  0  0  0
    1.3126    1.7005   -0.4341 C   0  0  0  0  0  0  0  0  0  0  0  0
    0.2820    0.9693    0.1760 C   0  0  0  0  0  0  0  0  0  0  0  0
   -2.1302    1.2319   -0.2339 H   0  0  0  0  0  0  0  0  0  0  0  0
   -1.9787   -1.4049    0.9941 H   0  0  0  0  0  0  0  0  0  0  0  0
   -1.1179   -1.9616   -1.2714 H   0  0  0  0  0  0  0  0  0  0  0  0
   -1.3658   -0.2100   -1.8852 H   0  0  0  0  0  0  0  0  0  0  0  0
    0.2959   -1.6726    1.6876 H   0  0  0  0  0  0  0  0  0  0  0  0
    1.2295   -1.9210    0.1110 H   0  0  0  0  0  0  0  0  0  0  0  0
    1.9010   -0.3036   -0.8716 H   0  0  0  0  0  0  0  0  0  0  0  0
    1.7464    2.6107    0.0747 H   0  0  0  0  0  0  0  0  0  0  0  0
    1.2102    1.9461   -1.5292 H   0  0  0  0  0  0  0  0  0  0  0  0
    0.0362    1.3040    1.2359 H   0  0  0  0  0  0  0  0  0  0  0  0
  1  2  1  0
  2  3  1  0
  3  4  1  0
  4  5  1  0
  5  6  1  0
  6  7  1  0
  7  8  1  0
  8  9  1  0
  4  2  1  0
  9  7  1  0
  9  4  1  0
  1 10  1  0
  2 11  1  0
  3 12  1  0
  3 13  1  0
  5 14  1  0
  5 15  1  0
  7 16  1  0
  8 17  1  0
  8 18  1  0
  9 19  1  0
M  END
