
     RDKit          3D

 14 14  0  0  0  0  0  0  0  0999 V2000
   -1.3200   -1.6331   -0.1952 O   0  0  0  0  0  0  0  0  0  0  0  0
   -0.4558   -0.5930   -0.4602 C   0  0  0  0  0  0  0  0  0  0  0  0
   -0.9210    0.7236    0.1260 C   0  0  0  0  0  0  0  0  0  0  0  0
    0.3570    1.4810    0.2200 C   0  0  0  0  0  0  0  0  0  0  0  0
    1.3653    0.6206    0.3037 C   0  0  0  0  0  0  0  0  0  0  0  0
    0.8800   -0.7700    0.2751 C   0  0  0  0  0  0  0  0  0  0  0  0
   -1.5960   -2.0661   -1.0584 H   0  0  0  0  0  0  0  0  0  0  0  0
   -0.2586   -0.4528   -1.5424 H   0  0  0  0  0  0  0  0  0  0  0  0
   -1.6717    1.2247   -0.5010 H   0  0  0  0  0  0  0  0  0  0  0  0
   -1.3515    0.5501    1.1517 H   0  0  0  0  0  0  0  0  0  0  0  0
    0.4190    2.5629    0.2177 H   0  0  0  0  0  0  0  0  0  0  0  0
    2.4115    0.8881    0.3830 H   0  0  0  0  0  0  0  0  0  0  0  0
    1.5317   -1.4793   -0.2286 H   0  0  0  0  0  0  0  0  0  0  0  0
    0.6101   -1.0565    1.3086 H   0  0  0  0  0  0  0  0  0  0  0  0
  1  2  1  0
  2  3  1  0
  3  4  1  0
  4  5  2  0
  5  6  1  0
  6  2  1  0
  1  7  1  0
  2  8  1  0
  3  9  1  0
  3 10  1  0
  4 11  1  0
  5 12  1  0
  6 13  1  0
  6 14  1  0
M  END
