
     RDKit          3D

 21 22  0  0  0  0  0  0  0  0999 V2000
    1.7535   -1.2738    0.6559 O   0  0  0  0  0  0  0  0  0  0  0  0
    1.2426   -0.5869   -0.4471 C   0  0  0  0  0  0  0  0  0  0  0  0
    1.3880    0.9038   -0.3199 C   0  0  0  0  0  0  0  0  0  0  0  0
    0.1343    1.5684    0.2132 C   0  0  0  0  0  0  0  0  0  0  0  0
   -1.1108    0.9453   -0.3752 C   0  0  0  0  0  0  0  0  0  0  0  0
   -1.7270    0.0872    0.7144 C   0  0  0  0  0  0  0  0  0  0  0  0
   -1.0020   -1.2380    0.4745 C   0  0  0  0  0  0  0  0  0  0  0  0
   -0.1695   -1.0096   -0.7634 C   0  0  0  0  0  0  0  0  0  0  0  0
   -0.7890    0.0423   -1.4138 O   0  0  0  0  0  0  0  0  0  0  0  0
    2.5806   -1.7935    0.4218 H   0  0  0  0  0  0  0  0  0  0  0  0
    1.8670   -0.8880   -1.3366 H   0  0  0  0  0  0  0  0  0  0  0  0
    2.2357    1.0911    0.3825 H   0  0  0  0  0  0  0  0  0  0  0  0
    1.6528    1.3749   -1.2831 H   0  0  0  0  0  0  0  0  0  0  0  0
    0.1711    2.6469    0.0195 H   0  0  0  0  0  0  0  0  0  0  0  0
    0.1772    1.4493    1.3264 H   0  0  0  0  0  0  0  0  0  0  0  0
   -1.8066    1.6659   -0.8036 H   0  0  0  0  0  0  0  0  0  0  0  0
   -2.8100   -0.0043    0.6389 H   0  0  0  0  0  0  0  0  0  0  0  0
   -1.4167    0.4774    1.7210 H   0  0  0  0  0  0  0  0  0  0  0  0
   -0.4232   -1.5617    1.3446 H   0  0  0  0  0  0  0  0  0  0  0  0
   -1.7975   -1.9711    0.2032 H   0  0  0  0  0  0  0  0  0  0  0  0
   -0.1506   -1.9257   -1.3729 H   0  0  0  0  0  0  0  0  0  0  0  0
  1  2  1  0
  2  3  1  0
  3  4  1  0
  4  5  1  0
  5  6  1  0
  6  7  1  0
  7  8  1  0
  8  9  1  0
  8  2  1  0
  9  5  1  0
  1 10  1  0
  2 11  1  0
  3 12  1  0
  3 13  1  0
  4 14  1  0
  4 15  1  0
  5 16  1  0
  6 17  1  0
  6 18  1  0
  7 19  1  0
  7 20  1  0
  8 21  1  0
M  END
