
     RDKit          3D

 16 17  0  0  0  0  0  0  0  0999 V2000
   -0.1156    2.0186    0.4190 O   0  0  0  0  0  0  0  0  0  0  0  0
   -0.4168    0.8832   -0.3096 C   0  0  0  0  0  0  0  0  0  0  0  0
   -1.5282    0.1575    0.3945 C   0  0  0  0  0  0  0  0  0  0  0  0
   -1.3371   -1.2449   -0.0519 C   0  0  0  0  0  0  0  0  0  0  0  0
   -0.0842   -1.4314   -0.4495 C   0  0  0  0  0  0  0  0  0  0  0  0
    0.6794   -0.1459   -0.2994 C   0  0  0  0  0  0  0  0  0  0  0  0
    1.8947   -0.0694    0.3656 C   0  0  0  0  0  0  0  0  0  0  0  0
    1.7995    0.0372   -1.1348 O   0  0  0  0  0  0  0  0  0  0  0  0
    0.7709    2.3825    0.2712 H   0  0  0  0  0  0  0  0  0  0  0  0
   -0.6692    1.0927   -1.3590 H   0  0  0  0  0  0  0  0  0  0  0  0
   -1.3770    0.2194    1.4929 H   0  0  0  0  0  0  0  0  0  0  0  0
   -2.5239    0.5560    0.1009 H   0  0  0  0  0  0  0  0  0  0  0  0
   -2.1528   -1.9907   -0.0366 H   0  0  0  0  0  0  0  0  0  0  0  0
    0.2902   -2.3810   -0.8191 H   0  0  0  0  0  0  0  0  0  0  0  0
    2.4914   -0.9649    0.6114 H   0  0  0  0  0  0  0  0  0  0  0  0
    2.2786    0.8811    0.8045 H   0  0  0  0  0  0  0  0  0  0  0  0
  1  2  1  0
  2  3  1  0
  3  4  1  0
  4  5  2  0
  5  6  1  0
  6  7  1  0
  7  8  1  0
  6  2  1  0
  8  6  1  0
  1  9  1  0
  2 10  1  0
  3 11  1  0
  3 12  1  0
  4 13  1  0
  5 14  1  0
  7 15  1  0
  7 16  1  0
M  END
