
     RDKit          3D

 21 22  0  0  0  0  0  0  0  0999 V2000
   -2.8003    0.0095   -0.1128 O   0  0  0  0  0  0  0  0  0  0  0  0
   -1.4018    0.1217   -0.3043 C   0  0  0  0  0  0  0  0  0  0  0  0
   -0.8555   -1.2714   -0.0798 C   0  0  0  0  0  0  0  0  0  0  0  0
    0.6399   -1.3450   -0.3544 C   0  0  0  0  0  0  0  0  0  0  0  0
    1.2841   -0.2133    0.3549 C   0  0  0  0  0  0  0  0  0  0  0  0
    2.3667    0.6056   -0.1483 C   0  0  0  0  0  0  0  0  0  0  0  0
    1.0297    1.0365   -0.5148 C   0  0  0  0  0  0  0  0  0  0  0  0
    0.2160    1.8494    0.2089 O   0  0  0  0  0  0  0  0  0  0  0  0
   -0.9114    1.1314    0.6728 C   0  0  0  0  0  0  0  0  0  0  0  0
   -2.9441   -0.0956    0.8754 H   0  0  0  0  0  0  0  0  0  0  0  0
   -1.2659    0.4913   -1.3234 H   0  0  0  0  0  0  0  0  0  0  0  0
   -1.1052   -1.5585    0.9526 H   0  0  0  0  0  0  0  0  0  0  0  0
   -1.3375   -1.9247   -0.8446 H   0  0  0  0  0  0  0  0  0  0  0  0
    0.8191   -1.3622   -1.4382 H   0  0  0  0  0  0  0  0  0  0  0  0
    0.9999   -2.2989    0.0845 H   0  0  0  0  0  0  0  0  0  0  0  0
    1.0378   -0.1476    1.4335 H   0  0  0  0  0  0  0  0  0  0  0  0
    3.0319    0.2248   -0.9586 H   0  0  0  0  0  0  0  0  0  0  0  0
    2.9617    1.1835    0.6074 H   0  0  0  0  0  0  0  0  0  0  0  0
    0.7185    0.8821   -1.5675 H   0  0  0  0  0  0  0  0  0  0  0  0
   -0.7682    0.7597    1.6988 H   0  0  0  0  0  0  0  0  0  0  0  0
   -1.7154    1.9218    0.7578 H   0  0  0  0  0  0  0  0  0  0  0  0
  1  2  1  0
  2  3  1  0
  3  4  1  0
  4  5  1  0
  5  6  1  0
  6  7  1  0
  7  8  1  0
  8  9  1  0
  9  2  1  0
  7  5  1  0
  1 10  1  0
  2 11  1  0
  3 12  1  0
  3 13  1  0
  4 14  1  0
  4 15  1  0
  5 16  1  0
  6 17  1  0
  6 18  1  0
  7 19  1  0
  9 20  1  0
  9 21  1  0
M  END
