
     RDKit          3D

 21 22  0  0  0  0  0  0  0  0999 V2000
   -2.5797   -1.0977   -0.7339 O   0  0  0  0  0  0  0  0  0  0  0  0
   -2.0229   -0.5112    0.3960 C   0  0  0  0  0  0  0  0  0  0  0  0
   -1.9672    0.9550    0.1416 C   0  0  0  0  0  0  0  0  0  0  0  0
   -0.8541    1.2201   -0.5363 C   0  0  0  0  0  0  0  0  0  0  0  0
   -0.0947   -0.0410   -0.7798 C   0  0  0  0  0  0  0  0  0  0  0  0
    1.3929    0.1750   -0.8085 C   0  0  0  0  0  0  0  0  0  0  0  0
    2.1199    0.7152    0.3425 C   0  0  0  0  0  0  0  0  0  0  0  0
    2.3237   -0.7099   -0.0880 C   0  0  0  0  0  0  0  0  0  0  0  0
   -0.5454   -0.8528    0.4205 C   0  0  0  0  0  0  0  0  0  0  0  0
   -2.5816   -0.4867   -1.5099 H   0  0  0  0  0  0  0  0  0  0  0  0
   -2.5422   -0.7719    1.3235 H   0  0  0  0  0  0  0  0  0  0  0  0
   -2.7363    1.6412    0.4781 H   0  0  0  0  0  0  0  0  0  0  0  0
   -0.5494    2.2047   -0.8604 H   0  0  0  0  0  0  0  0  0  0  0  0
   -0.4626   -0.5716   -1.6806 H   0  0  0  0  0  0  0  0  0  0  0  0
    1.7496    0.5191   -1.8149 H   0  0  0  0  0  0  0  0  0  0  0  0
    2.9426    1.4603    0.1598 H   0  0  0  0  0  0  0  0  0  0  0  0
    1.6208    0.8983    1.3181 H   0  0  0  0  0  0  0  0  0  0  0  0
    3.3414   -0.8968   -0.5260 H   0  0  0  0  0  0  0  0  0  0  0  0
    1.9805   -1.4870    0.6163 H   0  0  0  0  0  0  0  0  0  0  0  0
   -0.1471   -0.4381    1.3706 H   0  0  0  0  0  0  0  0  0  0  0  0
   -0.3880   -1.9245    0.2968 H   0  0  0  0  0  0  0  0  0  0  0  0
  1  2  1  0
  2  3  1  0
  3  4  2  0
  4  5  1  0
  5  6  1  0
  6  7  1  0
  7  8  1  0
  5  9  1  0
  9  2  1  0
  8  6  1  0
  1 10  1  0
  2 11  1  0
  3 12  1  0
  4 13  1  0
  5 14  1  0
  6 15  1  0
  7 16  1  0
  7 17  1  0
  8 18  1  0
  8 19  1  0
  9 20  1  0
  9 21  1  0
M  END
