
     RDKit          3D

 19 20  0  0  0  0  0  0  0  0999 V2000
   -1.6580   -1.8660   -0.3372 O   0  0  0  0  0  0  0  0  0  0  0  0
   -0.7490   -0.8509   -0.5850 C   0  0  0  0  0  0  0  0  0  0  0  0
    0.6795   -1.2851   -0.5104 C   0  0  0  0  0  0  0  0  0  0  0  0
    1.4647   -0.1496    0.0608 C   0  0  0  0  0  0  0  0  0  0  0  0
    2.0704    0.6514   -0.8845 O   0  0  0  0  0  0  0  0  0  0  0  0
    0.4919    0.6591    0.8509 C   0  0  0  0  0  0  0  0  0  0  0  0
    0.1494    1.9043    0.3071 O   0  0  0  0  0  0  0  0  0  0  0  0
   -1.1478    1.5769   -0.0965 C   0  0  0  0  0  0  0  0  0  0  0  0
   -0.8976    0.1884    0.4801 C   0  0  0  0  0  0  0  0  0  0  0  0
   -1.9373   -1.9012    0.6111 H   0  0  0  0  0  0  0  0  0  0  0  0
   -0.9849   -0.3978   -1.5867 H   0  0  0  0  0  0  0  0  0  0  0  0
    0.7247   -2.1225    0.2434 H   0  0  0  0  0  0  0  0  0  0  0  0
    1.0844   -1.6918   -1.4498 H   0  0  0  0  0  0  0  0  0  0  0  0
    2.2710   -0.4925    0.7573 H   0  0  0  0  0  0  0  0  0  0  0  0
    2.4269    1.4501   -0.3906 H   0  0  0  0  0  0  0  0  0  0  0  0
    0.7010    0.7200    1.9344 H   0  0  0  0  0  0  0  0  0  0  0  0
   -1.9454    2.1380    0.4327 H   0  0  0  0  0  0  0  0  0  0  0  0
   -1.2833    1.5366   -1.2089 H   0  0  0  0  0  0  0  0  0  0  0  0
   -1.4606   -0.0673    1.3718 H   0  0  0  0  0  0  0  0  0  0  0  0
  1  2  1  0
  2  3  1  0
  3  4  1  0
  4  5  1  0
  4  6  1  0
  6  7  1  0
  7  8  1  0
  8  9  1  0
  9  2  1  0
  9  6  1  0
  1 10  1  0
  2 11  1  0
  3 12  1  0
  3 13  1  0
  4 14  1  0
  5 15  1  0
  6 16  1  0
  8 17  1  0
  8 18  1  0
  9 19  1  0
M  END
