
     RDKit          3D

 19 21  0  0  0  0  0  0  0  0999 V2000
    2.3863   -0.6325    0.4624 O   0  0  0  0  0  0  0  0  0  0  0  0
    1.1627   -0.0322    0.4296 C   0  0  0  0  0  0  0  0  0  0  0  0
    0.9222    0.7676   -0.8528 C   0  0  0  0  0  0  0  0  0  0  0  0
   -0.5480    0.5592   -1.0648 C   0  0  0  0  0  0  0  0  0  0  0  0
   -1.3251    0.9085    0.2125 C   0  0  0  0  0  0  0  0  0  0  0  0
   -1.2568   -0.4599    0.8385 C   0  0  0  0  0  0  0  0  0  0  0  0
   -1.7890   -1.2253   -0.1972 O   0  0  0  0  0  0  0  0  0  0  0  0
   -0.6419   -0.9615   -0.8973 C   0  0  0  0  0  0  0  0  0  0  0  0
    0.0916   -1.0541    0.4184 C   0  0  0  0  0  0  0  0  0  0  0  0
    3.1216   -0.1631    0.0459 H   0  0  0  0  0  0  0  0  0  0  0  0
    1.0673    0.6664    1.3067 H   0  0  0  0  0  0  0  0  0  0  0  0
    1.4807    0.3059   -1.6714 H   0  0  0  0  0  0  0  0  0  0  0  0
    1.2236    1.8166   -0.7503 H   0  0  0  0  0  0  0  0  0  0  0  0
   -0.9760    0.9371   -1.9648 H   0  0  0  0  0  0  0  0  0  0  0  0
   -2.3893    1.0746   -0.0767 H   0  0  0  0  0  0  0  0  0  0  0  0
   -0.8722    1.7003    0.7816 H   0  0  0  0  0  0  0  0  0  0  0  0
   -1.5831   -0.6138    1.8328 H   0  0  0  0  0  0  0  0  0  0  0  0
   -0.3334   -1.5672   -1.7111 H   0  0  0  0  0  0  0  0  0  0  0  0
    0.2585   -2.0265    0.8393 H   0  0  0  0  0  0  0  0  0  0  0  0
  1  2  1  0
  2  3  1  0
  3  4  1  0
  4  5  1  0
  5  6  1  0
  6  7  1  0
  7  8  1  0
  8  9  1  0
  9  2  1  0
  8  4  1  0
  9  6  1  0
  1 10  1  0
  2 11  1  0
  3 12  1  0
  3 13  1  0
  4 14  1  0
  5 15  1  0
  5 16  1  0
  6 17  1  0
  8 18  1  0
  9 19  1  0
M  END
