
     RDKit          3D

 19 20  0  0  0  0  0  0  0  0999 V2000
    2.4423   -0.8326    0.0116 O   0  0  0  0  0  0  0  0  0  0  0  0
    1.1509   -0.5554   -0.4985 C   0  0  0  0  0  0  0  0  0  0  0  0
    0.1396   -1.4814    0.0653 C   0  0  0  0  0  0  0  0  0  0  0  0
   -1.0548   -0.7488    0.5995 C   0  0  0  0  0  0  0  0  0  0  0  0
   -1.7805    0.0209   -0.4370 C   0  0  0  0  0  0  0  0  0  0  0  0
   -1.4868    1.2940   -0.2127 C   0  0  0  0  0  0  0  0  0  0  0  0
   -0.2379    1.2432    0.5951 C   0  0  0  0  0  0  0  0  0  0  0  0
    0.8874    0.8875   -0.3262 C   0  0  0  0  0  0  0  0  0  0  0  0
   -0.5534    0.2236    1.4911 O   0  0  0  0  0  0  0  0  0  0  0  0
    2.5386   -0.2805    0.8029 H   0  0  0  0  0  0  0  0  0  0  0  0
    1.2484   -0.7958   -1.5992 H   0  0  0  0  0  0  0  0  0  0  0  0
    0.6111   -1.9927    0.9555 H   0  0  0  0  0  0  0  0  0  0  0  0
   -0.1403   -2.3157   -0.6147 H   0  0  0  0  0  0  0  0  0  0  0  0
   -1.7549   -1.4363    1.0888 H   0  0  0  0  0  0  0  0  0  0  0  0
   -2.4139   -0.3889   -1.2076 H   0  0  0  0  0  0  0  0  0  0  0  0
   -2.0140    2.1638   -0.5315 H   0  0  0  0  0  0  0  0  0  0  0  0
   -0.0275    2.1927    1.1173 H   0  0  0  0  0  0  0  0  0  0  0  0
    0.6488    1.3601   -1.3234 H   0  0  0  0  0  0  0  0  0  0  0  0
    1.7970    1.4425    0.0236 H   0  0  0  0  0  0  0  0  0  0  0  0
  1  2  1  0
  2  3  1  0
  3  4  1  0
  4  5  1  0
  5  6  2  0
  6  7  1  0
  7  8  1  0
  7  9  1  0
  8  2  1  0
  9  4  1  0
  1 10  1  0
  2 11  1  0
  3 12  1  0
  3 13  1  0
  4 14  1  0
  5 15  1  0
  6 16  1  0
  7 17  1  0
  8 18  1  0
  8 19  1  0
M  END
