
     RDKit          3D

 21 22  0  0  0  0  0  0  0  0999 V2000
    1.4529   -0.7478    1.0104 O   0  0  0  0  0  0  0  0  0  0  0  0
    1.2799   -0.3530   -0.3108 C   0  0  0  0  0  0  0  0  0  0  0  0
    1.2965    1.1584   -0.3514 C   0  0  0  0  0  0  0  0  0  0  0  0
    0.7203    1.6098    0.8495 O   0  0  0  0  0  0  0  0  0  0  0  0
   -0.6664    1.6276    0.6132 C   0  0  0  0  0  0  0  0  0  0  0  0
   -1.2596    0.2529    0.7687 C   0  0  0  0  0  0  0  0  0  0  0  0
   -1.2180   -0.5711   -0.4704 C   0  0  0  0  0  0  0  0  0  0  0  0
   -0.6813   -2.0152   -0.2769 C   0  0  0  0  0  0  0  0  0  0  0  0
    0.0898   -0.9556   -0.9728 C   0  0  0  0  0  0  0  0  0  0  0  0
    2.2587   -0.2480    1.3383 H   0  0  0  0  0  0  0  0  0  0  0  0
    2.1899   -0.7353   -0.8606 H   0  0  0  0  0  0  0  0  0  0  0  0
    2.3142    1.5728   -0.4606 H   0  0  0  0  0  0  0  0  0  0  0  0
    0.6723    1.5579   -1.1909 H   0  0  0  0  0  0  0  0  0  0  0  0
   -1.0859    2.3067    1.3934 H   0  0  0  0  0  0  0  0  0  0  0  0
   -0.8157    2.0278   -0.4113 H   0  0  0  0  0  0  0  0  0  0  0  0
   -2.3427    0.3419    1.0710 H   0  0  0  0  0  0  0  0  0  0  0  0
   -0.7725   -0.2441    1.6480 H   0  0  0  0  0  0  0  0  0  0  0  0
   -2.1026   -0.5017   -1.1418 H   0  0  0  0  0  0  0  0  0  0  0  0
   -1.1352   -2.7977   -0.9110 H   0  0  0  0  0  0  0  0  0  0  0  0
   -0.3757   -2.2864    0.7641 H   0  0  0  0  0  0  0  0  0  0  0  0
    0.1810   -1.0000   -2.0979 H   0  0  0  0  0  0  0  0  0  0  0  0
  1  2  1  0
  2  3  1  0
  3  4  1  0
  4  5  1  0
  5  6  1  0
  6  7  1  0
  7  8  1  0
  8  9  1  0
  9  2  1  0
  9  7  1  0
  1 10  1  0
  2 11  1  0
  3 12  1  0
  3 13  1  0
  5 14  1  0
  5 15  1  0
  6 16  1  0
  6 17  1  0
  7 18  1  0
  8 19  1  0
  8 20  1  0
  9 21  1  0
M  END
