
     RDKit          3D

 16 17  0  0  0  0  0  0  0  0999 V2000
   -0.0793   -1.9126   -0.3130 O   0  0  0  0  0  0  0  0  0  0  0  0
   -0.4444   -0.6141   -0.5890 C   0  0  0  0  0  0  0  0  0  0  0  0
   -1.6326   -0.1336    0.1958 C   0  0  0  0  0  0  0  0  0  0  0  0
   -1.2609    0.9693    0.9194 O   0  0  0  0  0  0  0  0  0  0  0  0
   -0.1383    1.5304    0.2846 C   0  0  0  0  0  0  0  0  0  0  0  0
    0.6547    0.3187   -0.0669 C   0  0  0  0  0  0  0  0  0  0  0  0
    1.7433   -0.2296    0.6175 C   0  0  0  0  0  0  0  0  0  0  0  0
    1.8471    0.3910   -0.7377 O   0  0  0  0  0  0  0  0  0  0  0  0
    0.1470   -2.3587   -1.1789 H   0  0  0  0  0  0  0  0  0  0  0  0
   -0.5833   -0.4240   -1.6921 H   0  0  0  0  0  0  0  0  0  0  0  0
   -2.0041   -0.9631    0.8652 H   0  0  0  0  0  0  0  0  0  0  0  0
   -2.4975    0.1401   -0.4349 H   0  0  0  0  0  0  0  0  0  0  0  0
    0.3534    2.2419    0.9453 H   0  0  0  0  0  0  0  0  0  0  0  0
   -0.4716    2.0001   -0.6849 H   0  0  0  0  0  0  0  0  0  0  0  0
    2.0266   -1.2859    0.4967 H   0  0  0  0  0  0  0  0  0  0  0  0
    2.3399    0.3300    1.3729 H   0  0  0  0  0  0  0  0  0  0  0  0
  1  2  1  0
  2  3  1  0
  3  4  1  0
  4  5  1  0
  5  6  1  0
  6  7  1  0
  7  8  1  0
  6  2  1  0
  8  6  1  0
  1  9  1  0
  2 10  1  0
  3 11  1  0
  3 12  1  0
  5 13  1  0
  5 14  1  0
  7 15  1  0
  7 16  1  0
M  END
