
     RDKit          3D

 21 23  0  0  0  0  0  0  0  0999 V2000
   -1.3714    1.9364    0.4132 O   0  0  0  0  0  0  0  0  0  0  0  0
   -1.2393    0.8035   -0.3792 C   0  0  0  0  0  0  0  0  0  0  0  0
   -1.6695   -0.3857    0.4444 C   0  0  0  0  0  0  0  0  0  0  0  0
   -0.9408   -1.5194   -0.2374 C   0  0  0  0  0  0  0  0  0  0  0  0
    0.3943   -0.9170   -0.5371 C   0  0  0  0  0  0  0  0  0  0  0  0
    1.2097   -0.5274    0.6807 C   0  0  0  0  0  0  0  0  0  0  0  0
    2.4826    0.1508    0.3542 C   0  0  0  0  0  0  0  0  0  0  0  0
    1.2311    0.9391    0.2067 C   0  0  0  0  0  0  0  0  0  0  0  0
    0.1969    0.5503   -0.7911 C   0  0  0  0  0  0  0  0  0  0  0  0
   -1.6812    2.6876   -0.1504 H   0  0  0  0  0  0  0  0  0  0  0  0
   -1.8726    0.8329   -1.2893 H   0  0  0  0  0  0  0  0  0  0  0  0
   -2.7408   -0.5917    0.4028 H   0  0  0  0  0  0  0  0  0  0  0  0
   -1.2960   -0.3336    1.4886 H   0  0  0  0  0  0  0  0  0  0  0  0
   -0.7837   -2.3905    0.4200 H   0  0  0  0  0  0  0  0  0  0  0  0
   -1.4002   -1.8320   -1.1840 H   0  0  0  0  0  0  0  0  0  0  0  0
    1.0343   -1.4536   -1.2512 H   0  0  0  0  0  0  0  0  0  0  0  0
    0.8491   -0.7117    1.6824 H   0  0  0  0  0  0  0  0  0  0  0  0
    2.9904   -0.1741   -0.5837 H   0  0  0  0  0  0  0  0  0  0  0  0
    3.1442    0.3434    1.1947 H   0  0  0  0  0  0  0  0  0  0  0  0
    1.0659    1.7281    0.9402 H   0  0  0  0  0  0  0  0  0  0  0  0
    0.3973    0.8645   -1.8246 H   0  0  0  0  0  0  0  0  0  0  0  0
  1  2  1  0
  2  3  1  0
  3  4  1  0
  4  5  1  0
  5  6  1  0
  6  7  1  0
  7  8  1  0
  8  9  1  0
  9  2  1  0
  9  5  1  0
  8  6  1  0
  1 10  1  0
  2 11  1  0
  3 12  1  0
  3 13  1  0
  4 14  1  0
  4 15  1  0
  5 16  1  0
  6 17  1  0
  7 18  1  0
  7 19  1  0
  8 20  1  0
  9 21  1  0
M  END
