
     RDKit          3D

 18 19  0  0  0  0  0  0  0  0999 V2000
    1.4248   -1.4765    0.5483 O   0  0  0  0  0  0  0  0  0  0  0  0
    1.0512   -0.6983   -0.5712 C   0  0  0  0  0  0  0  0  0  0  0  0
    1.5054    0.6818   -0.3069 C   0  0  0  0  0  0  0  0  0  0  0  0
    0.6623    1.5831    0.1555 C   0  0  0  0  0  0  0  0  0  0  0  0
   -0.7686    1.3145    0.4454 C   0  0  0  0  0  0  0  0  0  0  0  0
   -1.3114    0.1076   -0.2195 C   0  0  0  0  0  0  0  0  0  0  0  0
   -1.2225   -1.2450    0.3849 C   0  0  0  0  0  0  0  0  0  0  0  0
   -0.3994   -0.8256   -0.8273 C   0  0  0  0  0  0  0  0  0  0  0  0
    1.6168   -0.9033    1.3161 H   0  0  0  0  0  0  0  0  0  0  0  0
    1.6536   -1.1374   -1.4181 H   0  0  0  0  0  0  0  0  0  0  0  0
    2.5523    0.9020   -0.5125 H   0  0  0  0  0  0  0  0  0  0  0  0
    1.0522    2.5806    0.3309 H   0  0  0  0  0  0  0  0  0  0  0  0
   -0.8556    1.2723    1.5706 H   0  0  0  0  0  0  0  0  0  0  0  0
   -1.3237    2.2518    0.1699 H   0  0  0  0  0  0  0  0  0  0  0  0
   -2.2854    0.2951   -0.7619 H   0  0  0  0  0  0  0  0  0  0  0  0
   -0.6927   -1.4127    1.3487 H   0  0  0  0  0  0  0  0  0  0  0  0
   -1.9795   -2.0101    0.1690 H   0  0  0  0  0  0  0  0  0  0  0  0
   -0.6798   -1.2799   -1.8220 H   0  0  0  0  0  0  0  0  0  0  0  0
  1  2  1  0
  2  3  1  0
  3  4  2  0
  4  5  1  0
  5  6  1  0
  6  7  1  0
  7  8  1  0
  8  2  1  0
  8  6  1  0
  1  9  1  0
  2 10  1  0
  3 11  1  0
  4 12  1  0
  5 13  1  0
  5 14  1  0
  6 15  1  0
  7 16  1  0
  7 17  1  0
  8 18  1  0
M  END
