
     RDKit          3D

 21 22  0  0  0  0  0  0  0  0999 V2000
   -0.5754   -0.2870    1.7845 O   0  0  0  0  0  0  0  0  0  0  0  0
   -1.1834   -0.0738    0.5712 C   0  0  0  0  0  0  0  0  0  0  0  0
   -0.7237    1.1206   -0.2021 C   0  0  0  0  0  0  0  0  0  0  0  0
    0.6403    1.6032    0.1549 C   0  0  0  0  0  0  0  0  0  0  0  0
    1.5781    0.5113    0.5185 C   0  0  0  0  0  0  0  0  0  0  0  0
    1.4515   -0.8087    0.5114 C   0  0  0  0  0  0  0  0  0  0  0  0
    0.5558   -1.6286   -0.3582 C   0  0  0  0  0  0  0  0  0  0  0  0
   -0.7765   -0.9579   -0.5646 C   0  0  0  0  0  0  0  0  0  0  0  0
   -0.6968    0.2583   -1.4464 C   0  0  0  0  0  0  0  0  0  0  0  0
   -1.2712   -0.3433    2.5060 H   0  0  0  0  0  0  0  0  0  0  0  0
   -2.3089   -0.0678    0.6475 H   0  0  0  0  0  0  0  0  0  0  0  0
   -1.4390    1.9708   -0.2342 H   0  0  0  0  0  0  0  0  0  0  0  0
    1.0901    2.1011   -0.7524 H   0  0  0  0  0  0  0  0  0  0  0  0
    0.5786    2.3984    0.9227 H   0  0  0  0  0  0  0  0  0  0  0  0
    2.5441    0.8750    0.8505 H   0  0  0  0  0  0  0  0  0  0  0  0
    2.0855   -1.3149    1.2314 H   0  0  0  0  0  0  0  0  0  0  0  0
    1.0643   -1.8332   -1.3311 H   0  0  0  0  0  0  0  0  0  0  0  0
    0.3922   -2.5831    0.1516 H   0  0  0  0  0  0  0  0  0  0  0  0
   -1.5296   -1.6761   -0.9026 H   0  0  0  0  0  0  0  0  0  0  0  0
   -1.6744    0.4002   -1.9885 H   0  0  0  0  0  0  0  0  0  0  0  0
    0.1983    0.3354   -2.0701 H   0  0  0  0  0  0  0  0  0  0  0  0
  1  2  1  0
  2  3  1  0
  3  4  1  0
  4  5  1  0
  5  6  2  0
  6  7  1  0
  7  8  1  0
  8  9  1  0
  8  2  1  0
  9  3  1  0
  1 10  1  0
  2 11  1  0
  3 12  1  0
  4 13  1  0
  4 14  1  0
  5 15  1  0
  6 16  1  0
  7 17  1  0
  7 18  1  0
  8 19  1  0
  9 20  1  0
  9 21  1  0
M  END
