
     RDKit          3D

 19 21  0  0  0  0  0  0  0  0999 V2000
   -2.3114    1.3519   -0.2378 O   0  0  0  0  0  0  0  0  0  0  0  0
   -1.2293    0.6693   -0.7980 C   0  0  0  0  0  0  0  0  0  0  0  0
   -1.4969   -0.7800   -0.6237 C   0  0  0  0  0  0  0  0  0  0  0  0
   -0.8665   -1.2709    0.4362 C   0  0  0  0  0  0  0  0  0  0  0  0
   -0.1018   -0.2022    1.0956 C   0  0  0  0  0  0  0  0  0  0  0  0
    1.4100   -0.3410    0.9051 C   0  0  0  0  0  0  0  0  0  0  0  0
    1.7889   -0.8939   -0.3990 C   0  0  0  0  0  0  0  0  0  0  0  0
    1.2877    0.4725   -0.4248 C   0  0  0  0  0  0  0  0  0  0  0  0
   -0.0334    0.9116    0.0834 C   0  0  0  0  0  0  0  0  0  0  0  0
   -2.0154    2.2745   -0.0914 H   0  0  0  0  0  0  0  0  0  0  0  0
   -1.0859    0.9728   -1.8347 H   0  0  0  0  0  0  0  0  0  0  0  0
   -2.1372   -1.3882   -1.2834 H   0  0  0  0  0  0  0  0  0  0  0  0
   -0.9401   -2.3335    0.7339 H   0  0  0  0  0  0  0  0  0  0  0  0
   -0.4063    0.0869    2.1095 H   0  0  0  0  0  0  0  0  0  0  0  0
    2.0877    0.0911    1.6305 H   0  0  0  0  0  0  0  0  0  0  0  0
    1.1481   -1.7551   -0.7511 H   0  0  0  0  0  0  0  0  0  0  0  0
    2.8498   -1.0633   -0.5859 H   0  0  0  0  0  0  0  0  0  0  0  0
    2.0509    1.2910   -0.5463 H   0  0  0  0  0  0  0  0  0  0  0  0
    0.0010    1.9064    0.5818 H   0  0  0  0  0  0  0  0  0  0  0  0
  1  2  1  0
  2  3  1  0
  3  4  2  0
  4  5  1  0
  5  6  1  0
  6  7  1  0
  7  8  1  0
  8  9  1  0
  9  2  1  0
  9  5  1  0
  8  6  1  0
  1 10  1  0
  2 11  1  0
  3 12  1  0
  4 13  1  0
  5 14  1  0
  6 15  1  0
  7 16  1  0
  7 17  1  0
  8 18  1  0
  9 19  1  0
M  END
