
     RDKit          3D

 17 19  0  0  0  0  0  0  0  0999 V2000
   -2.2973    1.0362   -0.1425 O   0  0  0  0  0  0  0  0  0  0  0  0
   -0.9973    0.7513    0.1689 C   0  0  0  0  0  0  0  0  0  0  0  0
   -0.9299   -0.5633    0.9728 C   0  0  0  0  0  0  0  0  0  0  0  0
   -0.0603   -1.3259   -0.0294 C   0  0  0  0  0  0  0  0  0  0  0  0
   -0.7030   -0.9770   -1.2420 O   0  0  0  0  0  0  0  0  0  0  0  0
   -0.1790    0.2987   -1.0283 C   0  0  0  0  0  0  0  0  0  0  0  0
    0.9839   -0.3696   -0.3916 C   0  0  0  0  0  0  0  0  0  0  0  0
    2.0572    0.1959    0.1766 C   0  0  0  0  0  0  0  0  0  0  0  0
    2.1432   -0.6610   -1.0248 O   0  0  0  0  0  0  0  0  0  0  0  0
   -2.3848    1.9498   -0.4739 H   0  0  0  0  0  0  0  0  0  0  0  0
   -0.4621    1.5175    0.7243 H   0  0  0  0  0  0  0  0  0  0  0  0
   -1.9149   -1.0144    1.0887 H   0  0  0  0  0  0  0  0  0  0  0  0
   -0.3429   -0.4546    1.8824 H   0  0  0  0  0  0  0  0  0  0  0  0
    0.1197   -2.3560    0.1524 H   0  0  0  0  0  0  0  0  0  0  0  0
   -0.0628    0.9601   -1.8519 H   0  0  0  0  0  0  0  0  0  0  0  0
    2.3986    1.2467   -0.0258 H   0  0  0  0  0  0  0  0  0  0  0  0
    2.6317   -0.2341    1.0440 H   0  0  0  0  0  0  0  0  0  0  0  0
  1  2  1  0
  2  3  1  0
  3  4  1  0
  4  5  1  0
  5  6  1  0
  6  7  1  0
  7  8  1  0
  8  9  1  0
  6  2  1  0
  9  7  1  0
  7  4  1  0
  1 10  1  0
  2 11  1  0
  3 12  1  0
  3 13  1  0
  4 14  1  0
  6 15  1  0
  8 16  1  0
  8 17  1  0
M  END
