
     RDKit          3D

 21 22  0  0  0  0  0  0  0  0999 V2000
   -1.3701    1.6298    1.4608 O   0  0  0  0  0  0  0  0  0  0  0  0
   -1.1072    0.8336    0.3740 C   0  0  0  0  0  0  0  0  0  0  0  0
   -2.2063   -0.2023    0.1362 C   0  0  0  0  0  0  0  0  0  0  0  0
   -1.3719   -1.3117   -0.5179 C   0  0  0  0  0  0  0  0  0  0  0  0
   -0.2950   -1.3531    0.3756 O   0  0  0  0  0  0  0  0  0  0  0  0
    0.1214   -0.0097    0.5114 C   0  0  0  0  0  0  0  0  0  0  0  0
    1.1191    0.2281   -0.6034 C   0  0  0  0  0  0  0  0  0  0  0  0
    2.3755   -0.6263   -0.4736 C   0  0  0  0  0  0  0  0  0  0  0  0
    2.4075    0.8752   -0.3759 C   0  0  0  0  0  0  0  0  0  0  0  0
   -2.2210    1.3313    1.8684 H   0  0  0  0  0  0  0  0  0  0  0  0
   -1.0087    1.4152   -0.5790 H   0  0  0  0  0  0  0  0  0  0  0  0
   -2.9992    0.1617   -0.5139 H   0  0  0  0  0  0  0  0  0  0  0  0
   -2.6155   -0.5834    1.0916 H   0  0  0  0  0  0  0  0  0  0  0  0
   -1.8774   -2.2735   -0.5122 H   0  0  0  0  0  0  0  0  0  0  0  0
   -1.0887   -0.9325   -1.5121 H   0  0  0  0  0  0  0  0  0  0  0  0
    0.5862    0.0545    1.5101 H   0  0  0  0  0  0  0  0  0  0  0  0
    0.6468    0.2751   -1.6095 H   0  0  0  0  0  0  0  0  0  0  0  0
    2.7760   -1.1159   -1.3796 H   0  0  0  0  0  0  0  0  0  0  0  0
    2.5612   -1.1399    0.4977 H   0  0  0  0  0  0  0  0  0  0  0  0
    2.8707    1.3792   -1.2690 H   0  0  0  0  0  0  0  0  0  0  0  0
    2.6967    1.3647    0.5709 H   0  0  0  0  0  0  0  0  0  0  0  0
  1  2  1  0
  2  3  1  0
  3  4  1  0
  4  5  1  0
  5  6  1  0
  6  7  1  0
  7  8  1  0
  8  9  1  0
  6  2  1  0
  9  7  1  0
  1 10  1  0
  2 11  1  0
  3 12  1  0
  3 13  1  0
  4 14  1  0
  4 15  1  0
  6 16  1  0
  7 17  1  0
  8 18  1  0
  8 19  1  0
  9 20  1  0
  9 21  1  0
M  END
