
     RDKit          3D

 21 23  0  0  0  0  0  0  0  0999 V2000
    3.1184    0.5712   -0.7213 O   0  0  0  0  0  0  0  0  0  0  0  0
    1.9657    0.4521    0.0482 C   0  0  0  0  0  0  0  0  0  0  0  0
    1.7975   -0.8719    0.7134 C   0  0  0  0  0  0  0  0  0  0  0  0
    0.8425   -0.4433   -0.4240 C   0  0  0  0  0  0  0  0  0  0  0  0
   -0.4529   -0.1272   -0.1282 C   0  0  0  0  0  0  0  0  0  0  0  0
   -1.2203    1.1205   -0.5070 C   0  0  0  0  0  0  0  0  0  0  0  0
   -2.2274    0.2789    0.2305 C   0  0  0  0  0  0  0  0  0  0  0  0
   -1.6908   -0.8668   -0.5809 C   0  0  0  0  0  0  0  0  0  0  0  0
   -1.1166   -0.0314    1.2024 C   0  0  0  0  0  0  0  0  0  0  0  0
    3.6921    1.2403   -0.2915 H   0  0  0  0  0  0  0  0  0  0  0  0
    1.6733    1.3783    0.6007 H   0  0  0  0  0  0  0  0  0  0  0  0
    1.3758   -0.8761    1.7361 H   0  0  0  0  0  0  0  0  0  0  0  0
    2.4531   -1.7127    0.4986 H   0  0  0  0  0  0  0  0  0  0  0  0
    1.0863   -0.9326   -1.4150 H   0  0  0  0  0  0  0  0  0  0  0  0
   -0.9107    2.0453   -0.0104 H   0  0  0  0  0  0  0  0  0  0  0  0
   -1.3884    1.1424   -1.5866 H   0  0  0  0  0  0  0  0  0  0  0  0
   -3.1777    0.4981    0.4386 H   0  0  0  0  0  0  0  0  0  0  0  0
   -1.8305   -1.8681   -0.1808 H   0  0  0  0  0  0  0  0  0  0  0  0
   -1.9263   -0.7358   -1.6635 H   0  0  0  0  0  0  0  0  0  0  0  0
   -1.2466   -1.0353    1.6919 H   0  0  0  0  0  0  0  0  0  0  0  0
   -0.8165    0.7743    1.8723 H   0  0  0  0  0  0  0  0  0  0  0  0
  1  2  1  0
  2  3  1  0
  3  4  1  0
  4  5  1  0
  5  6  1  0
  6  7  1  0
  7  8  1  0
  7  9  1  0
  4  2  1  0
  8  5  1  0
  9  5  1  0
  1 10  1  0
  2 11  1  0
  3 12  1  0
  3 13  1  0
  4 14  1  0
  6 15  1  0
  6 16  1  0
  7 17  1  0
  8 18  1  0
  8 19  1  0
  9 20  1  0
  9 21  1  0
M  END
