
     RDKit          3D

 19 20  0  0  0  0  0  0  0  0999 V2000
   -2.2671    0.0193    0.8483 O   0  0  0  0  0  0  0  0  0  0  0  0
   -1.3679   -0.3417   -0.1694 C   0  0  0  0  0  0  0  0  0  0  0  0
   -0.4328   -1.3695    0.4364 C   0  0  0  0  0  0  0  0  0  0  0  0
    0.9091   -1.1459   -0.1822 C   0  0  0  0  0  0  0  0  0  0  0  0
    1.9589   -0.9095    0.7141 O   0  0  0  0  0  0  0  0  0  0  0  0
    1.6040    0.4169    0.7211 C   0  0  0  0  0  0  0  0  0  0  0  0
    0.9053    0.2785   -0.6112 C   0  0  0  0  0  0  0  0  0  0  0  0
   -0.4826    0.8063   -0.5415 C   0  0  0  0  0  0  0  0  0  0  0  0
   -0.8909    1.4751   -1.6868 O   0  0  0  0  0  0  0  0  0  0  0  0
   -1.8492    0.7978    1.3072 H   0  0  0  0  0  0  0  0  0  0  0  0
   -1.8866   -0.7869   -1.0328 H   0  0  0  0  0  0  0  0  0  0  0  0
   -0.3406   -1.2136    1.5268 H   0  0  0  0  0  0  0  0  0  0  0  0
   -0.7454   -2.4025    0.2165 H   0  0  0  0  0  0  0  0  0  0  0  0
    1.2249   -1.9030   -0.9158 H   0  0  0  0  0  0  0  0  0  0  0  0
    0.9171    0.6447    1.5542 H   0  0  0  0  0  0  0  0  0  0  0  0
    2.4090    1.1563    0.6392 H   0  0  0  0  0  0  0  0  0  0  0  0
    1.4985    0.4887   -1.5011 H   0  0  0  0  0  0  0  0  0  0  0  0
   -0.5554    1.5546    0.2963 H   0  0  0  0  0  0  0  0  0  0  0  0
   -0.6084    2.4345   -1.6194 H   0  0  0  0  0  0  0  0  0  0  0  0
  1  2  1  0
  2  3  1  0
  3  4  1  0
  4  5  1  0
  5  6  1  0
  6  7  1  0
  7  8  1  0
  8  9  1  0
  8  2  1  0
  7  4  1  0
  1 10  1  0
  2 11  1  0
  3 12  1  0
  3 13  1  0
  4 14  1  0
  6 15  1  0
  6 16  1  0
  7 17  1  0
  8 18  1  0
  9 19  1  0
M  END
