
     RDKit          3D

 16 18  0  0  0  0  0  0  0  0999 V2000
   -2.1170    0.9470   -0.8971 O   0  0  0  0  0  0  0  0  0  0  0  0
   -1.2948   -0.0746   -0.5014 C   0  0  0  0  0  0  0  0  0  0  0  0
    0.1152   -0.0573   -0.9960 C   0  0  0  0  0  0  0  0  0  0  0  0
    0.4347   -0.9190    0.1912 C   0  0  0  0  0  0  0  0  0  0  0  0
    1.7695   -0.4598    0.6171 C   0  0  0  0  0  0  0  0  0  0  0  0
    1.6666    0.9317    0.3701 O   0  0  0  0  0  0  0  0  0  0  0  0
    0.3659    1.0737   -0.0444 C   0  0  0  0  0  0  0  0  0  0  0  0
   -0.4943    0.1263    0.7423 C   0  0  0  0  0  0  0  0  0  0  0  0
   -2.9777    0.8474   -0.4202 H   0  0  0  0  0  0  0  0  0  0  0  0
   -1.8033   -1.0585   -0.4826 H   0  0  0  0  0  0  0  0  0  0  0  0
    0.4507   -0.1597   -1.9326 H   0  0  0  0  0  0  0  0  0  0  0  0
    0.1491   -1.9413    0.2005 H   0  0  0  0  0  0  0  0  0  0  0  0
    2.5849   -0.9166    0.0389 H   0  0  0  0  0  0  0  0  0  0  0  0
    1.9784   -0.6119    1.7085 H   0  0  0  0  0  0  0  0  0  0  0  0
   -0.0177    2.0476   -0.2790 H   0  0  0  0  0  0  0  0  0  0  0  0
   -0.8100    0.2250    1.6847 H   0  0  0  0  0  0  0  0  0  0  0  0
  1  2  1  0
  2  3  1  0
  3  4  1  0
  4  5  1  0
  5  6  1  0
  6  7  1  0
  7  8  1  0
  8  2  1  0
  7  3  1  0
  8  4  1  0
  1  9  1  0
  2 10  1  0
  3 11  1  0
  4 12  1  0
  5 13  1  0
  5 14  1  0
  7 15  1  0
  8 16  1  0
M  END
