
     RDKit          3D

 19 20  0  0  0  0  0  0  0  0999 V2000
   -1.7263   -1.5358   -0.7370 O   0  0  0  0  0  0  0  0  0  0  0  0
   -0.4582   -1.0635   -0.4153 C   0  0  0  0  0  0  0  0  0  0  0  0
   -0.1854    0.3418   -0.9749 C   0  0  0  0  0  0  0  0  0  0  0  0
    1.2988    0.5576   -0.8401 C   0  0  0  0  0  0  0  0  0  0  0  0
    1.6646    0.7556    0.4819 O   0  0  0  0  0  0  0  0  0  0  0  0
    1.0790   -0.2186    1.2703 C   0  0  0  0  0  0  0  0  0  0  0  0
   -0.3914   -0.3697    0.9547 C   0  0  0  0  0  0  0  0  0  0  0  0
   -0.9462    0.8321    0.2499 C   0  0  0  0  0  0  0  0  0  0  0  0
   -0.5830    2.0593    0.7281 O   0  0  0  0  0  0  0  0  0  0  0  0
   -1.6125   -2.5024   -0.9654 H   0  0  0  0  0  0  0  0  0  0  0  0
    0.3681   -1.7645   -0.5881 H   0  0  0  0  0  0  0  0  0  0  0  0
   -0.6349    0.5526   -1.9358 H   0  0  0  0  0  0  0  0  0  0  0  0
    1.6865    1.3404   -1.5036 H   0  0  0  0  0  0  0  0  0  0  0  0
    1.8004   -0.4033   -1.1564 H   0  0  0  0  0  0  0  0  0  0  0  0
    1.2675   -0.0026    2.3413 H   0  0  0  0  0  0  0  0  0  0  0  0
    1.5594   -1.2013    1.0105 H   0  0  0  0  0  0  0  0  0  0  0  0
   -1.0063   -0.8171    1.7287 H   0  0  0  0  0  0  0  0  0  0  0  0
   -2.0326    0.6968    0.0723 H   0  0  0  0  0  0  0  0  0  0  0  0
   -1.1477    2.7425    0.2789 H   0  0  0  0  0  0  0  0  0  0  0  0
  1  2  1  0
  2  3  1  0
  3  4  1  0
  4  5  1  0
  5  6  1  0
  6  7  1  0
  7  8  1  0
  8  9  1  0
  7  2  1  0
  8  3  1  0
  1 10  1  0
  2 11  1  0
  3 12  1  0
  4 13  1  0
  4 14  1  0
  6 15  1  0
  6 16  1  0
  7 17  1  0
  8 18  1  0
  9 19  1  0
M  END
