
     RDKit          3D

 17 19  0  0  0  0  0  0  0  0999 V2000
    2.0970   -0.8540    0.0326 O   0  0  0  0  0  0  0  0  0  0  0  0
    1.0594   -0.0190   -0.4193 C   0  0  0  0  0  0  0  0  0  0  0  0
    0.4555    0.8062    0.7272 C   0  0  0  0  0  0  0  0  0  0  0  0
   -0.2092   -0.5197    1.1090 C   0  0  0  0  0  0  0  0  0  0  0  0
   -0.2929   -0.6880   -0.4134 C   0  0  0  0  0  0  0  0  0  0  0  0
   -0.4439   -1.9049   -0.9114 O   0  0  0  0  0  0  0  0  0  0  0  0
   -1.2017    0.4385   -0.8437 C   0  0  0  0  0  0  0  0  0  0  0  0
   -0.6476    1.6071   -1.3429 O   0  0  0  0  0  0  0  0  0  0  0  0
   -0.6266    1.5627    0.0398 C   0  0  0  0  0  0  0  0  0  0  0  0
    2.9195   -0.6858   -0.4916 H   0  0  0  0  0  0  0  0  0  0  0  0
    1.2938    0.5882   -1.2997 H   0  0  0  0  0  0  0  0  0  0  0  0
    1.1138    1.2566    1.4157 H   0  0  0  0  0  0  0  0  0  0  0  0
    0.5669   -1.1755    1.5503 H   0  0  0  0  0  0  0  0  0  0  0  0
   -1.1599   -0.4381    1.6187 H   0  0  0  0  0  0  0  0  0  0  0  0
   -1.2221   -2.3640   -0.5023 H   0  0  0  0  0  0  0  0  0  0  0  0
   -2.2801    0.3097   -0.8945 H   0  0  0  0  0  0  0  0  0  0  0  0
   -1.4218    2.0801    0.6255 H   0  0  0  0  0  0  0  0  0  0  0  0
  1  2  1  0
  2  3  1  0
  3  4  1  0
  4  5  1  0
  5  6  1  0
  5  7  1  0
  7  8  1  0
  8  9  1  0
  5  2  1  0
  9  7  1  0
  9  3  1  0
  1 10  1  0
  2 11  1  0
  3 12  1  0
  4 13  1  0
  4 14  1  0
  6 15  1  0
  7 16  1  0
  9 17  1  0
M  END
