
     RDKit          3D

 17 19  0  0  0  0  0  0  0  0999 V2000
    1.8696    1.5744    0.1978 O   0  0  0  0  0  0  0  0  0  0  0  0
    0.7580    0.8335   -0.2471 C   0  0  0  0  0  0  0  0  0  0  0  0
    1.0403   -0.6040    0.2185 C   0  0  0  0  0  0  0  0  0  0  0  0
    0.0180   -1.4704   -0.5080 C   0  0  0  0  0  0  0  0  0  0  0  0
   -0.9102   -2.1747    0.2072 O   0  0  0  0  0  0  0  0  0  0  0  0
   -1.3195   -0.9601   -0.3460 C   0  0  0  0  0  0  0  0  0  0  0  0
   -1.4530    0.2145    0.5633 C   0  0  0  0  0  0  0  0  0  0  0  0
   -1.6773    1.4284   -0.2306 O   0  0  0  0  0  0  0  0  0  0  0  0
   -0.4905    1.2737    0.4403 C   0  0  0  0  0  0  0  0  0  0  0  0
    2.6618    1.2842   -0.3383 H   0  0  0  0  0  0  0  0  0  0  0  0
    0.7199    0.8650   -1.3430 H   0  0  0  0  0  0  0  0  0  0  0  0
    2.0801   -0.8827   -0.0411 H   0  0  0  0  0  0  0  0  0  0  0  0
    0.8642   -0.5954    1.3180 H   0  0  0  0  0  0  0  0  0  0  0  0
    0.3544   -1.7755   -1.5083 H   0  0  0  0  0  0  0  0  0  0  0  0
   -2.1062   -1.1203   -1.1417 H   0  0  0  0  0  0  0  0  0  0  0  0
   -2.0651    0.1457    1.4736 H   0  0  0  0  0  0  0  0  0  0  0  0
   -0.3445    1.9637    1.2853 H   0  0  0  0  0  0  0  0  0  0  0  0
  1  2  1  0
  2  3  1  0
  3  4  1  0
  4  5  1  0
  5  6  1  0
  6  7  1  0
  7  8  1  0
  8  9  1  0
  9  2  1  0
  6  4  1  0
  9  7  1  0
  1 10  1  0
  2 11  1  0
  3 12  1  0
  3 13  1  0
  4 14  1  0
  6 15  1  0
  7 16  1  0
  9 17  1  0
M  END
