
     RDKit          3D

 21 23  0  0  0  0  0  0  0  0999 V2000
   -0.4568    2.3763    0.7342 O   0  0  0  0  0  0  0  0  0  0  0  0
    0.0010    1.0382    0.7623 C   0  0  0  0  0  0  0  0  0  0  0  0
   -1.2312    0.1775    0.8823 C   0  0  0  0  0  0  0  0  0  0  0  0
   -1.8638   -0.2053   -0.3967 C   0  0  0  0  0  0  0  0  0  0  0  0
   -1.0976   -1.1887    0.3765 C   0  0  0  0  0  0  0  0  0  0  0  0
    0.3370   -1.5231    0.0735 C   0  0  0  0  0  0  0  0  0  0  0  0
    0.9782   -0.5747   -0.8988 C   0  0  0  0  0  0  0  0  0  0  0  0
    2.1357    0.2018   -0.3905 C   0  0  0  0  0  0  0  0  0  0  0  0
    0.7573    0.8198   -0.5133 C   0  0  0  0  0  0  0  0  0  0  0  0
   -0.6380    2.6104   -0.2222 H   0  0  0  0  0  0  0  0  0  0  0  0
    0.6214    0.9573    1.6727 H   0  0  0  0  0  0  0  0  0  0  0  0
   -1.7957    0.3383    1.8112 H   0  0  0  0  0  0  0  0  0  0  0  0
   -2.9678   -0.3574   -0.4177 H   0  0  0  0  0  0  0  0  0  0  0  0
   -1.4819    0.2328   -1.3542 H   0  0  0  0  0  0  0  0  0  0  0  0
   -1.6330   -1.9980    0.9177 H   0  0  0  0  0  0  0  0  0  0  0  0
    0.8807   -1.5079    1.0564 H   0  0  0  0  0  0  0  0  0  0  0  0
    0.4515   -2.5805   -0.2874 H   0  0  0  0  0  0  0  0  0  0  0  0
    0.8680   -0.8144   -1.9821 H   0  0  0  0  0  0  0  0  0  0  0  0
    2.5208   -0.0475    0.6280 H   0  0  0  0  0  0  0  0  0  0  0  0
    2.9176    0.4648   -1.1186 H   0  0  0  0  0  0  0  0  0  0  0  0
    0.6965    1.5801   -1.3334 H   0  0  0  0  0  0  0  0  0  0  0  0
  1  2  1  0
  2  3  1  0
  3  4  1  0
  4  5  1  0
  5  6  1  0
  6  7  1  0
  7  8  1  0
  8  9  1  0
  9  2  1  0
  5  3  1  0
  9  7  1  0
  1 10  1  0
  2 11  1  0
  3 12  1  0
  4 13  1  0
  4 14  1  0
  5 15  1  0
  6 16  1  0
  6 17  1  0
  7 18  1  0
  8 19  1  0
  8 20  1  0
  9 21  1  0
M  END
