
     RDKit          3D

 19 21  0  0  0  0  0  0  0  0999 V2000
   -1.9702   -1.3150    0.4997 O   0  0  0  0  0  0  0  0  0  0  0  0
   -0.7431   -1.0479   -0.0379 C   0  0  0  0  0  0  0  0  0  0  0  0
    0.3493   -0.8988    1.0310 C   0  0  0  0  0  0  0  0  0  0  0  0
    1.4886   -0.4173    0.1357 C   0  0  0  0  0  0  0  0  0  0  0  0
    1.7905    1.0078    0.0436 C   0  0  0  0  0  0  0  0  0  0  0  0
    0.8178    0.4750   -0.9132 C   0  0  0  0  0  0  0  0  0  0  0  0
   -0.6342    0.3458   -0.6374 C   0  0  0  0  0  0  0  0  0  0  0  0
   -1.4482    1.3793   -0.0604 C   0  0  0  0  0  0  0  0  0  0  0  0
   -1.6067    0.8287   -1.4411 O   0  0  0  0  0  0  0  0  0  0  0  0
   -2.2460   -2.2268    0.1627 H   0  0  0  0  0  0  0  0  0  0  0  0
   -0.3655   -1.7768   -0.7587 H   0  0  0  0  0  0  0  0  0  0  0  0
    0.0893   -0.0459    1.6775 H   0  0  0  0  0  0  0  0  0  0  0  0
    0.5656   -1.8301    1.5388 H   0  0  0  0  0  0  0  0  0  0  0  0
    2.1807   -1.2140   -0.2509 H   0  0  0  0  0  0  0  0  0  0  0  0
    1.4035    1.6481    0.8745 H   0  0  0  0  0  0  0  0  0  0  0  0
    2.7808    1.2927   -0.3583 H   0  0  0  0  0  0  0  0  0  0  0  0
    1.1013    0.2604   -1.9787 H   0  0  0  0  0  0  0  0  0  0  0  0
   -1.2612    2.4643   -0.1221 H   0  0  0  0  0  0  0  0  0  0  0  0
   -2.2922    1.0704    0.5951 H   0  0  0  0  0  0  0  0  0  0  0  0
  1  2  1  0
  2  3  1  0
  3  4  1  0
  4  5  1  0
  5  6  1  0
  6  7  1  0
  7  8  1  0
  8  9  1  0
  7  2  1  0
  6  4  1  0
  9  7  1  0
  1 10  1  0
  2 11  1  0
  3 12  1  0
  3 13  1  0
  4 14  1  0
  5 15  1  0
  5 16  1  0
  6 17  1  0
  8 18  1  0
  8 19  1  0
M  END
