
     RDKit          3D

 16 17  0  0  0  0  0  0  0  0999 V2000
    2.1835   -0.6005   -0.6167 O   0  0  0  0  0  0  0  0  0  0  0  0
    0.9568   -0.5837    0.0449 C   0  0  0  0  0  0  0  0  0  0  0  0
   -0.1121   -0.6290   -1.0487 C   0  0  0  0  0  0  0  0  0  0  0  0
   -1.3050   -0.0551   -0.2872 C   0  0  0  0  0  0  0  0  0  0  0  0
   -1.6568   -0.9832    0.6670 O   0  0  0  0  0  0  0  0  0  0  0  0
   -0.6558    1.1839    0.3378 C   0  0  0  0  0  0  0  0  0  0  0  0
    0.3936    1.7818   -0.3356 O   0  0  0  0  0  0  0  0  0  0  0  0
    0.7098    0.7922    0.6257 C   0  0  0  0  0  0  0  0  0  0  0  0
    2.8772   -0.5364    0.0833 H   0  0  0  0  0  0  0  0  0  0  0  0
    0.8425   -1.3908    0.7760 H   0  0  0  0  0  0  0  0  0  0  0  0
    0.2172    0.0992   -1.8197 H   0  0  0  0  0  0  0  0  0  0  0  0
   -0.2866   -1.6359   -1.4188 H   0  0  0  0  0  0  0  0  0  0  0  0
   -2.1425    0.1970   -0.9399 H   0  0  0  0  0  0  0  0  0  0  0  0
   -2.0525   -0.6119    1.4831 H   0  0  0  0  0  0  0  0  0  0  0  0
   -1.2571    1.8592    0.9416 H   0  0  0  0  0  0  0  0  0  0  0  0
    1.2879    1.1133    1.5072 H   0  0  0  0  0  0  0  0  0  0  0  0
  1  2  1  0
  2  3  1  0
  3  4  1  0
  4  5  1  0
  4  6  1  0
  6  7  1  0
  7  8  1  0
  8  2  1  0
  8  6  1  0
  1  9  1  0
  2 10  1  0
  3 11  1  0
  3 12  1  0
  4 13  1  0
  5 14  1  0
  6 15  1  0
  8 16  1  0
M  END
