
     RDKit          3D

 21 22  0  0  0  0  0  0  0  0999 V2000
    1.0929    2.2701   -0.1536 O   0  0  0  0  0  0  0  0  0  0  0  0
    0.7227    1.0719    0.4333 C   0  0  0  0  0  0  0  0  0  0  0  0
    1.6680    0.0048   -0.0587 C   0  0  0  0  0  0  0  0  0  0  0  0
    0.9962   -1.3299    0.1037 C   0  0  0  0  0  0  0  0  0  0  0  0
   -0.4261   -1.2693   -0.3637 C   0  0  0  0  0  0  0  0  0  0  0  0
   -0.6872   -0.0833   -1.2841 C   0  0  0  0  0  0  0  0  0  0  0  0
   -0.6841    0.7616   -0.0024 C   0  0  0  0  0  0  0  0  0  0  0  0
   -1.2319   -0.4839    0.6817 C   0  0  0  0  0  0  0  0  0  0  0  0
   -2.5811   -0.6104    0.3777 O   0  0  0  0  0  0  0  0  0  0  0  0
    1.1352    2.9807    0.5314 H   0  0  0  0  0  0  0  0  0  0  0  0
    0.7589    1.1260    1.5355 H   0  0  0  0  0  0  0  0  0  0  0  0
    1.9646    0.1837   -1.1112 H   0  0  0  0  0  0  0  0  0  0  0  0
    2.5837    0.0289    0.5726 H   0  0  0  0  0  0  0  0  0  0  0  0
    1.5649   -2.1280   -0.4325 H   0  0  0  0  0  0  0  0  0  0  0  0
    0.9694   -1.5495    1.2017 H   0  0  0  0  0  0  0  0  0  0  0  0
   -0.8971   -2.2055   -0.6441 H   0  0  0  0  0  0  0  0  0  0  0  0
    0.1062    0.1559   -1.9870 H   0  0  0  0  0  0  0  0  0  0  0  0
   -1.7217   -0.1274   -1.6580 H   0  0  0  0  0  0  0  0  0  0  0  0
   -1.4022    1.5824    0.0092 H   0  0  0  0  0  0  0  0  0  0  0  0
   -0.9315   -0.6377    1.7107 H   0  0  0  0  0  0  0  0  0  0  0  0
   -2.9997    0.2588    0.5376 H   0  0  0  0  0  0  0  0  0  0  0  0
  1  2  1  0
  2  3  1  0
  3  4  1  0
  4  5  1  0
  5  6  1  0
  6  7  1  0
  7  8  1  0
  8  9  1  0
  7  2  1  0
  8  5  1  0
  1 10  1  0
  2 11  1  0
  3 12  1  0
  3 13  1  0
  4 14  1  0
  4 15  1  0
  5 16  1  0
  6 17  1  0
  6 18  1  0
  7 19  1  0
  8 20  1  0
  9 21  1  0
M  END
