
     RDKit          3D

 17 19  0  0  0  0  0  0  0  0999 V2000
   -3.2371   -0.1499    0.2122 O   0  0  0  0  0  0  0  0  0  0  0  0
   -1.8816   -0.1732    0.4283 C   0  0  0  0  0  0  0  0  0  0  0  0
   -1.0519    0.8340   -0.2691 C   0  0  0  0  0  0  0  0  0  0  0  0
    0.3905    0.7759    0.1520 C   0  0  0  0  0  0  0  0  0  0  0  0
    1.6134    0.8864    0.6108 C   0  0  0  0  0  0  0  0  0  0  0  0
    2.4561   -0.2827    0.1432 C   0  0  0  0  0  0  0  0  0  0  0  0
    1.4406   -1.2229   -0.2257 O   0  0  0  0  0  0  0  0  0  0  0  0
    0.4594   -0.4349   -0.7554 C   0  0  0  0  0  0  0  0  0  0  0  0
   -0.9721   -0.7024   -0.6114 C   0  0  0  0  0  0  0  0  0  0  0  0
   -3.5210   -0.4931   -0.6671 H   0  0  0  0  0  0  0  0  0  0  0  0
   -1.6072   -0.3769    1.4889 H   0  0  0  0  0  0  0  0  0  0  0  0
   -1.3499    1.4363   -1.1138 H   0  0  0  0  0  0  0  0  0  0  0  0
    2.0058    1.6661    1.2264 H   0  0  0  0  0  0  0  0  0  0  0  0
    3.0700    0.0189   -0.7031 H   0  0  0  0  0  0  0  0  0  0  0  0
    2.9921   -0.7656    0.9776 H   0  0  0  0  0  0  0  0  0  0  0  0
    0.7022   -0.0129   -1.7836 H   0  0  0  0  0  0  0  0  0  0  0  0
   -1.5092   -1.0030   -1.5531 H   0  0  0  0  0  0  0  0  0  0  0  0
  1  2  1  0
  2  3  1  0
  3  4  1  0
  4  5  2  0
  5  6  1  0
  6  7  1  0
  7  8  1  0
  8  9  1  0
  9  2  1  0
  9  3  1  0
  8  4  1  0
  1 10  1  0
  2 11  1  0
  3 12  1  0
  5 13  1  0
  6 14  1  0
  6 15  1  0
  8 16  1  0
  9 17  1  0
M  END
