
     RDKit          3D

 21 22  0  0  0  0  0  0  0  0999 V2000
    1.3951    1.7398   -0.8053 O   0  0  0  0  0  0  0  0  0  0  0  0
    1.3070    0.8899    0.3015 C   0  0  0  0  0  0  0  0  0  0  0  0
    1.4937   -0.5869   -0.0404 C   0  0  0  0  0  0  0  0  0  0  0  0
    2.4104   -1.1920    0.8361 O   0  0  0  0  0  0  0  0  0  0  0  0
    0.1008   -0.8360    0.4284 C   0  0  0  0  0  0  0  0  0  0  0  0
   -0.9113   -1.1721   -0.6498 C   0  0  0  0  0  0  0  0  0  0  0  0
   -2.0280   -0.1862   -0.2931 C   0  0  0  0  0  0  0  0  0  0  0  0
   -1.1850    1.0905   -0.2030 C   0  0  0  0  0  0  0  0  0  0  0  0
   -0.0987    0.6340    0.7523 C   0  0  0  0  0  0  0  0  0  0  0  0
    1.4717    1.1826   -1.6306 H   0  0  0  0  0  0  0  0  0  0  0  0
    1.9892    1.2322    1.1355 H   0  0  0  0  0  0  0  0  0  0  0  0
    1.7079   -0.7372   -1.1092 H   0  0  0  0  0  0  0  0  0  0  0  0
    2.1032   -0.9463    1.7570 H   0  0  0  0  0  0  0  0  0  0  0  0
   -0.0434   -1.4781    1.2988 H   0  0  0  0  0  0  0  0  0  0  0  0
   -0.5422   -0.8859   -1.6652 H   0  0  0  0  0  0  0  0  0  0  0  0
   -1.2741   -2.1973   -0.5835 H   0  0  0  0  0  0  0  0  0  0  0  0
   -2.8039   -0.1316   -1.0423 H   0  0  0  0  0  0  0  0  0  0  0  0
   -2.3477   -0.4457    0.7245 H   0  0  0  0  0  0  0  0  0  0  0  0
   -1.7526    1.9459    0.1509 H   0  0  0  0  0  0  0  0  0  0  0  0
   -0.6890    1.2350   -1.1885 H   0  0  0  0  0  0  0  0  0  0  0  0
   -0.3030    0.8455    1.8262 H   0  0  0  0  0  0  0  0  0  0  0  0
  1  2  1  0
  2  3  1  0
  3  4  1  0
  3  5  1  0
  5  6  1  0
  6  7  1  0
  7  8  1  0
  8  9  1  0
  9  2  1  0
  9  5  1  0
  1 10  1  0
  2 11  1  0
  3 12  1  0
  4 13  1  0
  5 14  1  0
  6 15  1  0
  6 16  1  0
  7 17  1  0
  7 18  1  0
  8 19  1  0
  8 20  1  0
  9 21  1  0
M  END
