
     RDKit          3D

 21 22  0  0  0  0  0  0  0  0999 V2000
   -2.4580    0.9236   -0.3313 O   0  0  0  0  0  0  0  0  0  0  0  0
   -1.7962    0.1030    0.5372 C   0  0  0  0  0  0  0  0  0  0  0  0
   -1.2361   -1.1847   -0.0856 C   0  0  0  0  0  0  0  0  0  0  0  0
   -0.0636   -0.9910    0.8527 C   0  0  0  0  0  0  0  0  0  0  0  0
    1.1463   -1.4116    0.4470 O   0  0  0  0  0  0  0  0  0  0  0  0
    1.7101   -0.8059   -0.6296 C   0  0  0  0  0  0  0  0  0  0  0  0
    1.7985    0.6939   -0.3298 C   0  0  0  0  0  0  0  0  0  0  0  0
    0.3349    1.1548   -0.3847 C   0  0  0  0  0  0  0  0  0  0  0  0
   -0.3325    0.4732    0.7975 C   0  0  0  0  0  0  0  0  0  0  0  0
   -1.9045    1.6667   -0.6179 H   0  0  0  0  0  0  0  0  0  0  0  0
   -2.2731   -0.0880    1.5236 H   0  0  0  0  0  0  0  0  0  0  0  0
   -1.0115   -1.0551   -1.1568 H   0  0  0  0  0  0  0  0  0  0  0  0
   -1.8731   -2.0558    0.1133 H   0  0  0  0  0  0  0  0  0  0  0  0
   -0.3335   -1.3972    1.8502 H   0  0  0  0  0  0  0  0  0  0  0  0
    1.0198   -0.9115   -1.5104 H   0  0  0  0  0  0  0  0  0  0  0  0
    2.7046   -1.2412   -0.8222 H   0  0  0  0  0  0  0  0  0  0  0  0
    2.4312    1.2281   -1.0314 H   0  0  0  0  0  0  0  0  0  0  0  0
    2.1041    0.8490    0.7341 H   0  0  0  0  0  0  0  0  0  0  0  0
    0.2334    2.2328   -0.3081 H   0  0  0  0  0  0  0  0  0  0  0  0
   -0.0499    0.7757   -1.3538 H   0  0  0  0  0  0  0  0  0  0  0  0
   -0.1511    1.0413    1.7059 H   0  0  0  0  0  0  0  0  0  0  0  0
  1  2  1  0
  2  3  1  0
  3  4  1  0
  4  5  1  0
  5  6  1  0
  6  7  1  0
  7  8  1  0
  8  9  1  0
  9  2  1  0
  9  4  1  0
  1 10  1  0
  2 11  1  0
  3 12  1  0
  3 13  1  0
  4 14  1  0
  6 15  1  0
  6 16  1  0
  7 17  1  0
  7 18  1  0
  8 19  1  0
  8 20  1  0
  9 21  1  0
M  END
