
     RDKit          3D

 19 20  0  0  0  0  0  0  0  0999 V2000
   -2.1084    1.4673    0.0899 O   0  0  0  0  0  0  0  0  0  0  0  0
   -1.8106    0.1561   -0.2145 C   0  0  0  0  0  0  0  0  0  0  0  0
   -1.2729   -0.6693    0.9426 C   0  0  0  0  0  0  0  0  0  0  0  0
   -0.1416   -1.1388    0.0630 C   0  0  0  0  0  0  0  0  0  0  0  0
    1.0980   -1.1849    0.5908 O   0  0  0  0  0  0  0  0  0  0  0  0
    1.9020   -0.1100    0.4671 C   0  0  0  0  0  0  0  0  0  0  0  0
    1.6310    0.7998   -0.6788 C   0  0  0  0  0  0  0  0  0  0  0  0
    0.2964    1.1028   -0.7235 O   0  0  0  0  0  0  0  0  0  0  0  0
   -0.4439   -0.0438   -0.8840 C   0  0  0  0  0  0  0  0  0  0  0  0
   -1.5113    1.8814    0.7538 H   0  0  0  0  0  0  0  0  0  0  0  0
   -2.6415   -0.3062   -0.7756 H   0  0  0  0  0  0  0  0  0  0  0  0
   -2.0178   -1.4419    1.2077 H   0  0  0  0  0  0  0  0  0  0  0  0
   -0.9946   -0.0186    1.7881 H   0  0  0  0  0  0  0  0  0  0  0  0
   -0.4233   -2.1483   -0.3611 H   0  0  0  0  0  0  0  0  0  0  0  0
    1.9245    0.4623    1.4310 H   0  0  0  0  0  0  0  0  0  0  0  0
    2.9629   -0.4818    0.3493 H   0  0  0  0  0  0  0  0  0  0  0  0
    1.9202    0.3127   -1.6183 H   0  0  0  0  0  0  0  0  0  0  0  0
    2.1814    1.7672   -0.5020 H   0  0  0  0  0  0  0  0  0  0  0  0
   -0.5505   -0.4059   -1.9256 H   0  0  0  0  0  0  0  0  0  0  0  0
  1  2  1  0
  2  3  1  0
  3  4  1  0
  4  5  1  0
  5  6  1  0
  6  7  1  0
  7  8  1  0
  8  9  1  0
  9  2  1  0
  9  4  1  0
  1 10  1  0
  2 11  1  0
  3 12  1  0
  3 13  1  0
  4 14  1  0
  6 15  1  0
  6 16  1  0
  7 17  1  0
  7 18  1  0
  9 19  1  0
M  END
