
     RDKit          3D

 19 20  0  0  0  0  0  0  0  0999 V2000
   -2.5866    0.5033    0.1063 O   0  0  0  0  0  0  0  0  0  0  0  0
   -1.2516    0.2150    0.1898 C   0  0  0  0  0  0  0  0  0  0  0  0
   -0.9270   -1.2176   -0.2349 C   0  0  0  0  0  0  0  0  0  0  0  0
    0.5421   -0.9861   -0.6154 C   0  0  0  0  0  0  0  0  0  0  0  0
    1.3119   -0.4145    0.5463 C   0  0  0  0  0  0  0  0  0  0  0  0
    1.5801    1.0573    0.3434 C   0  0  0  0  0  0  0  0  0  0  0  0
    0.4760    1.7747   -0.0404 O   0  0  0  0  0  0  0  0  0  0  0  0
   -0.3989    0.9985   -0.7762 C   0  0  0  0  0  0  0  0  0  0  0  0
    0.3428    0.0932   -1.5091 O   0  0  0  0  0  0  0  0  0  0  0  0
   -3.0386    0.0884    0.8822 H   0  0  0  0  0  0  0  0  0  0  0  0
   -0.9294    0.3819    1.2559 H   0  0  0  0  0  0  0  0  0  0  0  0
   -1.0482   -1.9370    0.5613 H   0  0  0  0  0  0  0  0  0  0  0  0
   -1.4899   -1.4031   -1.1554 H   0  0  0  0  0  0  0  0  0  0  0  0
    0.9959   -1.8478   -1.0862 H   0  0  0  0  0  0  0  0  0  0  0  0
    0.8344   -0.6178    1.5222 H   0  0  0  0  0  0  0  0  0  0  0  0
    2.3088   -0.9175    0.5552 H   0  0  0  0  0  0  0  0  0  0  0  0
    2.3959    1.1628   -0.4094 H   0  0  0  0  0  0  0  0  0  0  0  0
    1.9511    1.4968    1.2988 H   0  0  0  0  0  0  0  0  0  0  0  0
   -1.0687    1.5695   -1.4346 H   0  0  0  0  0  0  0  0  0  0  0  0
  1  2  1  0
  2  3  1  0
  3  4  1  0
  4  5  1  0
  5  6  1  0
  6  7  1  0
  7  8  1  0
  8  9  1  0
  8  2  1  0
  9  4  1  0
  1 10  1  0
  2 11  1  0
  3 12  1  0
  3 13  1  0
  4 14  1  0
  5 15  1  0
  5 16  1  0
  6 17  1  0
  6 18  1  0
  8 19  1  0
M  END
