
     RDKit          3D

 17 18  0  0  0  0  0  0  0  0999 V2000
   -2.1149    0.9953   -1.1054 O   0  0  0  0  0  0  0  0  0  0  0  0
   -1.3450   -0.0495   -0.6107 C   0  0  0  0  0  0  0  0  0  0  0  0
   -1.7165   -0.3889    0.8005 C   0  0  0  0  0  0  0  0  0  0  0  0
   -0.6161   -0.7979    1.4260 C   0  0  0  0  0  0  0  0  0  0  0  0
    0.5474   -0.7682    0.5172 C   0  0  0  0  0  0  0  0  0  0  0  0
    1.6913   -0.1980    1.0710 O   0  0  0  0  0  0  0  0  0  0  0  0
    2.2867    0.4765   -0.0079 C   0  0  0  0  0  0  0  0  0  0  0  0
    1.1155    0.9901   -0.7680 C   0  0  0  0  0  0  0  0  0  0  0  0
    0.0725    0.2796   -0.4786 C   0  0  0  0  0  0  0  0  0  0  0  0
   -2.8346    0.5966   -1.6365 H   0  0  0  0  0  0  0  0  0  0  0  0
   -1.4311   -0.9685   -1.2238 H   0  0  0  0  0  0  0  0  0  0  0  0
   -2.7243   -0.2938    1.1771 H   0  0  0  0  0  0  0  0  0  0  0  0
   -0.5735   -1.1081    2.4503 H   0  0  0  0  0  0  0  0  0  0  0  0
    0.7403   -1.6898   -0.0243 H   0  0  0  0  0  0  0  0  0  0  0  0
    2.8501    1.3194    0.4272 H   0  0  0  0  0  0  0  0  0  0  0  0
    2.8985   -0.2344   -0.5539 H   0  0  0  0  0  0  0  0  0  0  0  0
    1.1536    1.8395   -1.4601 H   0  0  0  0  0  0  0  0  0  0  0  0
  1  2  1  0
  2  3  1  0
  3  4  2  0
  4  5  1  0
  5  6  1  0
  6  7  1  0
  7  8  1  0
  8  9  2  0
  9  2  1  0
  9  5  1  0
  1 10  1  0
  2 11  1  0
  3 12  1  0
  4 13  1  0
  5 14  1  0
  7 15  1  0
  7 16  1  0
  8 17  1  0
M  END
