
     RDKit          3D

 23 24  0  0  0  0  0  0  0  0999 V2000
   -2.8503   -1.0874    0.6605 O   0  0  0  0  0  0  0  0  0  0  0  0
   -2.0687   -0.0474    0.1507 C   0  0  0  0  0  0  0  0  0  0  0  0
   -0.8315    0.2945    0.8405 C   0  0  0  0  0  0  0  0  0  0  0  0
   -0.0133    1.4966    0.6662 C   0  0  0  0  0  0  0  0  0  0  0  0
    1.0869    1.4273   -0.3249 C   0  0  0  0  0  0  0  0  0  0  0  0
    1.7806    0.1657   -0.5385 C   0  0  0  0  0  0  0  0  0  0  0  0
    1.3115   -1.0451    0.1967 C   0  0  0  0  0  0  0  0  0  0  0  0
   -0.0076   -1.5916   -0.3771 C   0  0  0  0  0  0  0  0  0  0  0  0
   -0.8691   -0.4000   -0.5571 C   0  0  0  0  0  0  0  0  0  0  0  0
   -3.7769   -1.0450    0.3663 H   0  0  0  0  0  0  0  0  0  0  0  0
   -2.6794    0.7839   -0.2332 H   0  0  0  0  0  0  0  0  0  0  0  0
   -0.5873   -0.3250    1.7222 H   0  0  0  0  0  0  0  0  0  0  0  0
   -0.6964    2.3512    0.3783 H   0  0  0  0  0  0  0  0  0  0  0  0
    0.3957    1.8222    1.6640 H   0  0  0  0  0  0  0  0  0  0  0  0
    0.6900    1.8145   -1.3115 H   0  0  0  0  0  0  0  0  0  0  0  0
    1.8337    2.2259   -0.0278 H   0  0  0  0  0  0  0  0  0  0  0  0
    2.8860    0.2573   -0.3056 H   0  0  0  0  0  0  0  0  0  0  0  0
    1.7872   -0.1226   -1.6343 H   0  0  0  0  0  0  0  0  0  0  0  0
    1.2945   -0.9648    1.2795 H   0  0  0  0  0  0  0  0  0  0  0  0
    2.0578   -1.8638   -0.0380 H   0  0  0  0  0  0  0  0  0  0  0  0
    0.2507   -2.0007   -1.3798 H   0  0  0  0  0  0  0  0  0  0  0  0
   -0.4076   -2.3647    0.2692 H   0  0  0  0  0  0  0  0  0  0  0  0
   -0.5865    0.2187   -1.4340 H   0  0  0  0  0  0  0  0  0  0  0  0
  1  2  1  0
  2  3  1  0
  3  4  1  0
  4  5  1  0
  5  6  1  0
  6  7  1  0
  7  8  1  0
  8  9  1  0
  9  2  1  0
  9  3  1  0
  1 10  1  0
  2 11  1  0
  3 12  1  0
  4 13  1  0
  4 14  1  0
  5 15  1  0
  5 16  1  0
  6 17  1  0
  6 18  1  0
  7 19  1  0
  7 20  1  0
  8 21  1  0
  8 22  1  0
  9 23  1  0
M  END
