
     RDKit          3D

 19 20  0  0  0  0  0  0  0  0999 V2000
   -2.3420    0.5219   -0.9563 O   0  0  0  0  0  0  0  0  0  0  0  0
   -1.4678    0.3230    0.0816 C   0  0  0  0  0  0  0  0  0  0  0  0
   -0.5610    1.4959    0.3140 C   0  0  0  0  0  0  0  0  0  0  0  0
    0.7241    1.2759    0.5860 C   0  0  0  0  0  0  0  0  0  0  0  0
    1.2589   -0.0674    0.2250 C   0  0  0  0  0  0  0  0  0  0  0  0
    2.6101   -0.2261    0.2743 O   0  0  0  0  0  0  0  0  0  0  0  0
    0.4100   -1.1064    0.9043 C   0  0  0  0  0  0  0  0  0  0  0  0
   -0.6117   -0.8821   -0.2204 C   0  0  0  0  0  0  0  0  0  0  0  0
    0.5875   -0.4907   -1.0854 C   0  0  0  0  0  0  0  0  0  0  0  0
   -3.2217    0.0876   -0.7991 H   0  0  0  0  0  0  0  0  0  0  0  0
   -2.0151    0.1873    1.0582 H   0  0  0  0  0  0  0  0  0  0  0  0
   -1.0007    2.4863    0.2488 H   0  0  0  0  0  0  0  0  0  0  0  0
    1.3758    2.0123    1.0453 H   0  0  0  0  0  0  0  0  0  0  0  0
    3.0182    0.1948   -0.5329 H   0  0  0  0  0  0  0  0  0  0  0  0
    0.8846   -2.1029    0.7922 H   0  0  0  0  0  0  0  0  0  0  0  0
    0.0047   -0.8547    1.8879 H   0  0  0  0  0  0  0  0  0  0  0  0
   -1.1220   -1.7797   -0.5584 H   0  0  0  0  0  0  0  0  0  0  0  0
    1.0720   -1.3966   -1.4788 H   0  0  0  0  0  0  0  0  0  0  0  0
    0.3959    0.3217   -1.7866 H   0  0  0  0  0  0  0  0  0  0  0  0
  1  2  1  0
  2  3  1  0
  3  4  2  0
  4  5  1  0
  5  6  1  0
  5  7  1  0
  7  8  1  0
  8  9  1  0
  8  2  1  0
  9  5  1  0
  1 10  1  0
  2 11  1  0
  3 12  1  0
  4 13  1  0
  6 14  1  0
  7 15  1  0
  7 16  1  0
  8 17  1  0
  9 18  1  0
  9 19  1  0
M  END
