
     RDKit          3D

 16 17  0  0  0  0  0  0  0  0999 V2000
   -2.0655   -1.0214   -0.2187 O   0  0  0  0  0  0  0  0  0  0  0  0
   -0.7689   -0.6245   -0.5494 C   0  0  0  0  0  0  0  0  0  0  0  0
   -0.5649    0.8850   -0.5712 C   0  0  0  0  0  0  0  0  0  0  0  0
   -1.7661    1.5191   -0.2461 O   0  0  0  0  0  0  0  0  0  0  0  0
    0.4337    0.8061    0.5250 C   0  0  0  0  0  0  0  0  0  0  0  0
    1.5368   -0.1496    0.5445 C   0  0  0  0  0  0  0  0  0  0  0  0
    2.2670   -0.4841   -0.5962 O   0  0  0  0  0  0  0  0  0  0  0  0
    0.1432   -0.6784    0.6408 C   0  0  0  0  0  0  0  0  0  0  0  0
   -2.0481   -1.9946   -0.1197 H   0  0  0  0  0  0  0  0  0  0  0  0
   -0.4027   -1.1299   -1.4587 H   0  0  0  0  0  0  0  0  0  0  0  0
   -0.2080    1.2211   -1.5587 H   0  0  0  0  0  0  0  0  0  0  0  0
   -1.7448    2.4794   -0.4002 H   0  0  0  0  0  0  0  0  0  0  0  0
    0.2700    1.4614    1.3942 H   0  0  0  0  0  0  0  0  0  0  0  0
    2.1056   -0.2288    1.4995 H   0  0  0  0  0  0  0  0  0  0  0  0
    3.0781   -0.9918   -0.3344 H   0  0  0  0  0  0  0  0  0  0  0  0
   -0.2653   -1.0690    1.5799 H   0  0  0  0  0  0  0  0  0  0  0  0
  1  2  1  0
  2  3  1  0
  3  4  1  0
  3  5  1  0
  5  6  1  0
  6  7  1  0
  6  8  1  0
  8  2  1  0
  8  5  1  0
  1  9  1  0
  2 10  1  0
  3 11  1  0
  4 12  1  0
  5 13  1  0
  6 14  1  0
  7 15  1  0
  8 16  1  0
M  END
