
     RDKit          3D

 17 19  0  0  0  0  0  0  0  0999 V2000
    2.9554   -0.0773    0.1290 O   0  0  0  0  0  0  0  0  0  0  0  0
    1.6435   -0.1983    0.5621 C   0  0  0  0  0  0  0  0  0  0  0  0
    0.8049   -1.2988   -0.0162 C   0  0  0  0  0  0  0  0  0  0  0  0
   -0.3155   -1.7509    0.6265 O   0  0  0  0  0  0  0  0  0  0  0  0
   -1.3913   -0.9443    0.2197 C   0  0  0  0  0  0  0  0  0  0  0  0
   -0.8180    0.4180    0.0578 C   0  0  0  0  0  0  0  0  0  0  0  0
   -1.4919    1.6152   -0.2533 C   0  0  0  0  0  0  0  0  0  0  0  0
   -1.0521    1.3343    1.0549 O   0  0  0  0  0  0  0  0  0  0  0  0
    0.5968    0.1351   -0.4001 C   0  0  0  0  0  0  0  0  0  0  0  0
    2.9724    0.5760   -0.6299 H   0  0  0  0  0  0  0  0  0  0  0  0
    1.4619    0.1033    1.6204 H   0  0  0  0  0  0  0  0  0  0  0  0
    1.3510   -1.9830   -0.6946 H   0  0  0  0  0  0  0  0  0  0  0  0
   -2.1209   -0.9835    1.0734 H   0  0  0  0  0  0  0  0  0  0  0  0
   -1.8161   -1.3588   -0.7144 H   0  0  0  0  0  0  0  0  0  0  0  0
   -0.9636    2.4593   -0.7249 H   0  0  0  0  0  0  0  0  0  0  0  0
   -2.6019    1.6146   -0.4350 H   0  0  0  0  0  0  0  0  0  0  0  0
    0.7854    0.3391   -1.4753 H   0  0  0  0  0  0  0  0  0  0  0  0
  1  2  1  0
  2  3  1  0
  3  4  1  0
  4  5  1  0
  5  6  1  0
  6  7  1  0
  7  8  1  0
  6  9  1  0
  9  2  1  0
  9  3  1  0
  8  6  1  0
  1 10  1  0
  2 11  1  0
  3 12  1  0
  5 13  1  0
  5 14  1  0
  7 15  1  0
  7 16  1  0
  9 17  1  0
M  END
