
     RDKit          3D

 19 20  0  0  0  0  0  0  0  0999 V2000
    1.8367   -0.2357   -1.1935 O   0  0  0  0  0  0  0  0  0  0  0  0
    1.7607    0.2145    0.1045 C   0  0  0  0  0  0  0  0  0  0  0  0
    0.7670    1.3833    0.1222 C   0  0  0  0  0  0  0  0  0  0  0  0
   -0.5111    0.6400   -0.1060 C   0  0  0  0  0  0  0  0  0  0  0  0
   -0.3946   -0.5932    0.3811 C   0  0  0  0  0  0  0  0  0  0  0  0
   -1.7010   -1.2564    0.1133 C   0  0  0  0  0  0  0  0  0  0  0  0
   -2.5758   -0.1726    0.1675 O   0  0  0  0  0  0  0  0  0  0  0  0
   -1.9017    0.7337   -0.6779 C   0  0  0  0  0  0  0  0  0  0  0  0
    0.9680   -0.7731    0.9729 C   0  0  0  0  0  0  0  0  0  0  0  0
    2.7357   -0.4897   -1.4858 H   0  0  0  0  0  0  0  0  0  0  0  0
    2.7097    0.4667    0.5698 H   0  0  0  0  0  0  0  0  0  0  0  0
    0.9818    2.1269   -0.6360 H   0  0  0  0  0  0  0  0  0  0  0  0
    0.8012    1.7736    1.1681 H   0  0  0  0  0  0  0  0  0  0  0  0
   -1.6285   -1.6563   -0.9374 H   0  0  0  0  0  0  0  0  0  0  0  0
   -1.9325   -2.0376    0.8389 H   0  0  0  0  0  0  0  0  0  0  0  0
   -1.9362    0.2941   -1.6885 H   0  0  0  0  0  0  0  0  0  0  0  0
   -2.3208    1.7318   -0.5904 H   0  0  0  0  0  0  0  0  0  0  0  0
    0.9998   -0.3618    1.9962 H   0  0  0  0  0  0  0  0  0  0  0  0
    1.3417   -1.7881    0.8810 H   0  0  0  0  0  0  0  0  0  0  0  0
  1  2  1  0
  2  3  1  0
  3  4  1  0
  4  5  2  0
  5  6  1  0
  6  7  1  0
  7  8  1  0
  5  9  1  0
  9  2  1  0
  8  4  1  0
  1 10  1  0
  2 11  1  0
  3 12  1  0
  3 13  1  0
  6 14  1  0
  6 15  1  0
  8 16  1  0
  8 17  1  0
  9 18  1  0
  9 19  1  0
M  END
