
     RDKit          3D

 16 18  0  0  0  0  0  0  0  0999 V2000
    2.5878    0.6466   -0.3916 O   0  0  0  0  0  0  0  0  0  0  0  0
    1.8651   -0.5112   -0.1583 C   0  0  0  0  0  0  0  0  0  0  0  0
    0.7733   -0.9343   -1.0733 C   0  0  0  0  0  0  0  0  0  0  0  0
   -0.1078   -0.0417   -1.6224 O   0  0  0  0  0  0  0  0  0  0  0  0
   -0.6226    0.2126   -0.3912 C   0  0  0  0  0  0  0  0  0  0  0  0
   -1.9983    0.0123    0.0235 C   0  0  0  0  0  0  0  0  0  0  0  0
   -1.3596    1.3914   -0.0027 C   0  0  0  0  0  0  0  0  0  0  0  0
    0.4756   -0.4329    0.3505 C   0  0  0  0  0  0  0  0  0  0  0  0
    3.0101    0.9011    0.4824 H   0  0  0  0  0  0  0  0  0  0  0  0
    2.5167   -1.3601    0.1819 H   0  0  0  0  0  0  0  0  0  0  0  0
    0.6203   -1.9839   -1.3060 H   0  0  0  0  0  0  0  0  0  0  0  0
   -2.7531   -0.2504   -0.7289 H   0  0  0  0  0  0  0  0  0  0  0  0
   -2.1980   -0.4484    1.0173 H   0  0  0  0  0  0  0  0  0  0  0  0
   -1.3209    1.8801    0.9693 H   0  0  0  0  0  0  0  0  0  0  0  0
   -1.6661    2.0946   -0.8269 H   0  0  0  0  0  0  0  0  0  0  0  0
    0.1774   -1.1758    1.1090 H   0  0  0  0  0  0  0  0  0  0  0  0
  1  2  1  0
  2  3  1  0
  3  4  1  0
  4  5  1  0
  5  6  1  0
  6  7  1  0
  5  8  1  0
  8  2  1  0
  8  3  1  0
  7  5  1  0
  1  9  1  0
  2 10  1  0
  3 11  1  0
  6 12  1  0
  6 13  1  0
  7 14  1  0
  7 15  1  0
  8 16  1  0
M  END
