
     RDKit          3D

 15 16  0  0  0  0  0  0  0  0999 V2000
   -2.1976    0.0285   -0.2683 O   0  0  0  0  0  0  0  0  0  0  0  0
   -0.8548   -0.0250   -0.6728 C   0  0  0  0  0  0  0  0  0  0  0  0
   -0.1189   -1.1517   -0.0126 C   0  0  0  0  0  0  0  0  0  0  0  0
    1.2934   -0.7294    0.1458 C   0  0  0  0  0  0  0  0  0  0  0  0
    1.9277    0.1174   -0.7135 O   0  0  0  0  0  0  0  0  0  0  0  0
    1.2172    0.7550    0.2771 C   0  0  0  0  0  0  0  0  0  0  0  0
   -0.1653    1.1916   -0.1223 C   0  0  0  0  0  0  0  0  0  0  0  0
   -2.2478   -0.1197    0.7208 H   0  0  0  0  0  0  0  0  0  0  0  0
   -0.8613   -0.0650   -1.7695 H   0  0  0  0  0  0  0  0  0  0  0  0
   -0.5555   -1.2826    1.0129 H   0  0  0  0  0  0  0  0  0  0  0  0
   -0.2128   -2.1164   -0.5471 H   0  0  0  0  0  0  0  0  0  0  0  0
    1.9253   -1.3374    0.8213 H   0  0  0  0  0  0  0  0  0  0  0  0
    1.7030    1.1661    1.1715 H   0  0  0  0  0  0  0  0  0  0  0  0
   -0.6945    1.5233    0.8000 H   0  0  0  0  0  0  0  0  0  0  0  0
   -0.1582    2.0452   -0.8433 H   0  0  0  0  0  0  0  0  0  0  0  0
  1  2  1  0
  2  3  1  0
  3  4  1  0
  4  5  1  0
  5  6  1  0
  6  7  1  0
  7  2  1  0
  6  4  1  0
  1  8  1  0
  2  9  1  0
  3 10  1  0
  3 11  1  0
  4 12  1  0
  6 13  1  0
  7 14  1  0
  7 15  1  0
M  END
