
     RDKit          3D

 19 20  0  0  0  0  0  0  0  0999 V2000
    2.6119   -0.2323    0.1889 O   0  0  0  0  0  0  0  0  0  0  0  0
    1.2936    0.1029   -0.0448 C   0  0  0  0  0  0  0  0  0  0  0  0
    0.6585    0.8584    1.0873 C   0  0  0  0  0  0  0  0  0  0  0  0
   -0.7262    0.2056    1.1135 C   0  0  0  0  0  0  0  0  0  0  0  0
   -1.5622    0.6218   -0.0509 C   0  0  0  0  0  0  0  0  0  0  0  0
   -1.5299   -0.3545   -1.1839 C   0  0  0  0  0  0  0  0  0  0  0  0
   -0.4314   -1.0790   -1.3023 C   0  0  0  0  0  0  0  0  0  0  0  0
    0.4727   -1.1674   -0.1328 C   0  0  0  0  0  0  0  0  0  0  0  0
   -0.3756   -1.1353    0.9986 O   0  0  0  0  0  0  0  0  0  0  0  0
    3.1930    0.2841   -0.4399 H   0  0  0  0  0  0  0  0  0  0  0  0
    1.1693    0.7310   -0.9611 H   0  0  0  0  0  0  0  0  0  0  0  0
    0.6050    1.9400    0.9307 H   0  0  0  0  0  0  0  0  0  0  0  0
    1.1142    0.6126    2.0728 H   0  0  0  0  0  0  0  0  0  0  0  0
   -1.2104    0.3810    2.0943 H   0  0  0  0  0  0  0  0  0  0  0  0
   -2.6292    0.7424    0.2753 H   0  0  0  0  0  0  0  0  0  0  0  0
   -1.1886    1.6085   -0.4261 H   0  0  0  0  0  0  0  0  0  0  0  0
   -2.3777   -0.4563   -1.8740 H   0  0  0  0  0  0  0  0  0  0  0  0
   -0.1932   -1.5914   -2.2135 H   0  0  0  0  0  0  0  0  0  0  0  0
    1.1061   -2.0722   -0.1319 H   0  0  0  0  0  0  0  0  0  0  0  0
  1  2  1  0
  2  3  1  0
  3  4  1  0
  4  5  1  0
  5  6  1  0
  6  7  2  0
  7  8  1  0
  8  9  1  0
  8  2  1  0
  9  4  1  0
  1 10  1  0
  2 11  1  0
  3 12  1  0
  3 13  1  0
  4 14  1  0
  5 15  1  0
  5 16  1  0
  6 17  1  0
  7 18  1  0
  8 19  1  0
M  END
