
     RDKit          3D

 23 24  0  0  0  0  0  0  0  0999 V2000
    2.6954    0.1048    0.4063 O   0  0  0  0  0  0  0  0  0  0  0  0
    1.5862   -0.0894   -0.3997 C   0  0  0  0  0  0  0  0  0  0  0  0
    0.8668    1.2301   -0.5504 C   0  0  0  0  0  0  0  0  0  0  0  0
   -0.2924    1.1793    0.4200 C   0  0  0  0  0  0  0  0  0  0  0  0
   -1.5281    0.8295   -0.3855 C   0  0  0  0  0  0  0  0  0  0  0  0
   -1.7341   -0.6317   -0.5581 C   0  0  0  0  0  0  0  0  0  0  0  0
   -0.5034   -1.4589   -0.5694 C   0  0  0  0  0  0  0  0  0  0  0  0
    0.5913   -0.9769    0.3313 C   0  0  0  0  0  0  0  0  0  0  0  0
   -0.0328   -0.0205    1.3236 C   0  0  0  0  0  0  0  0  0  0  0  0
    3.5042    0.2063   -0.1625 H   0  0  0  0  0  0  0  0  0  0  0  0
    1.8372   -0.5404   -1.3794 H   0  0  0  0  0  0  0  0  0  0  0  0
    1.5349    2.0838   -0.3926 H   0  0  0  0  0  0  0  0  0  0  0  0
    0.5015    1.3168   -1.6118 H   0  0  0  0  0  0  0  0  0  0  0  0
   -0.3719    2.1180    0.9638 H   0  0  0  0  0  0  0  0  0  0  0  0
   -2.3967    1.2388    0.2094 H   0  0  0  0  0  0  0  0  0  0  0  0
   -1.4321    1.3686   -1.3594 H   0  0  0  0  0  0  0  0  0  0  0  0
   -2.2419   -0.7813   -1.5573 H   0  0  0  0  0  0  0  0  0  0  0  0
   -2.4730   -1.0169    0.2043 H   0  0  0  0  0  0  0  0  0  0  0  0
   -0.7753   -2.4911   -0.1983 H   0  0  0  0  0  0  0  0  0  0  0  0
   -0.0755   -1.6199   -1.5742 H   0  0  0  0  0  0  0  0  0  0  0  0
    1.1588   -1.7937    0.8198 H   0  0  0  0  0  0  0  0  0  0  0  0
    0.6018    0.2132    2.1759 H   0  0  0  0  0  0  0  0  0  0  0  0
   -1.0209   -0.4685    1.6288 H   0  0  0  0  0  0  0  0  0  0  0  0
  1  2  1  0
  2  3  1  0
  3  4  1  0
  4  5  1  0
  5  6  1  0
  6  7  1  0
  7  8  1  0
  8  9  1  0
  8  2  1  0
  9  4  1  0
  1 10  1  0
  2 11  1  0
  3 12  1  0
  3 13  1  0
  4 14  1  0
  5 15  1  0
  5 16  1  0
  6 17  1  0
  6 18  1  0
  7 19  1  0
  7 20  1  0
  8 21  1  0
  9 22  1  0
  9 23  1  0
M  END
