
     RDKit          3D

 17 18  0  0  0  0  0  0  0  0999 V2000
   -1.3088    1.8238   -0.2990 O   0  0  0  0  0  0  0  0  0  0  0  0
   -1.1767    0.5584   -0.8664 C   0  0  0  0  0  0  0  0  0  0  0  0
   -1.9554   -0.4235   -0.0683 C   0  0  0  0  0  0  0  0  0  0  0  0
   -1.1535   -1.0742    0.7616 C   0  0  0  0  0  0  0  0  0  0  0  0
    0.2175   -0.5929    0.5961 C   0  0  0  0  0  0  0  0  0  0  0  0
    1.4451   -0.4397    1.0605 C   0  0  0  0  0  0  0  0  0  0  0  0
    2.1916    0.2597    0.0058 C   0  0  0  0  0  0  0  0  0  0  0  0
    1.1842    1.0117   -0.6048 O   0  0  0  0  0  0  0  0  0  0  0  0
    0.2110    0.0283   -0.7770 C   0  0  0  0  0  0  0  0  0  0  0  0
   -1.4603    1.7658    0.6967 H   0  0  0  0  0  0  0  0  0  0  0  0
   -1.5143    0.6072   -1.9242 H   0  0  0  0  0  0  0  0  0  0  0  0
   -3.0227   -0.5655   -0.1709 H   0  0  0  0  0  0  0  0  0  0  0  0
   -1.3997   -1.8592    1.4862 H   0  0  0  0  0  0  0  0  0  0  0  0
    1.7619   -0.7899    2.0396 H   0  0  0  0  0  0  0  0  0  0  0  0
    2.5125   -0.5015   -0.7455 H   0  0  0  0  0  0  0  0  0  0  0  0
    3.0193    0.8822    0.3695 H   0  0  0  0  0  0  0  0  0  0  0  0
    0.4485   -0.6909   -1.5600 H   0  0  0  0  0  0  0  0  0  0  0  0
  1  2  1  0
  2  3  1  0
  3  4  2  0
  4  5  1  0
  5  6  2  0
  6  7  1  0
  7  8  1  0
  8  9  1  0
  9  2  1  0
  9  5  1  0
  1 10  1  0
  2 11  1  0
  3 12  1  0
  4 13  1  0
  6 14  1  0
  7 15  1  0
  7 16  1  0
  9 17  1  0
M  END
