
     RDKit          3D

 19 21  0  0  0  0  0  0  0  0999 V2000
   -2.6412   -1.3319    0.0770 O   0  0  0  0  0  0  0  0  0  0  0  0
   -1.9881   -0.1383    0.3664 C   0  0  0  0  0  0  0  0  0  0  0  0
   -1.7835    0.7399   -0.8524 C   0  0  0  0  0  0  0  0  0  0  0  0
   -0.6491    0.0930   -0.1731 C   0  0  0  0  0  0  0  0  0  0  0  0
    0.3330    1.0322    0.4915 C   0  0  0  0  0  0  0  0  0  0  0  0
    1.5500    0.1769    0.7063 C   0  0  0  0  0  0  0  0  0  0  0  0
    2.4552   -0.1768   -0.3921 C   0  0  0  0  0  0  0  0  0  0  0  0
    1.2515   -1.0587   -0.0453 C   0  0  0  0  0  0  0  0  0  0  0  0
    0.1062   -0.8860   -0.7776 O   0  0  0  0  0  0  0  0  0  0  0  0
   -2.0378   -2.1151    0.0797 H   0  0  0  0  0  0  0  0  0  0  0  0
   -2.3273    0.3201    1.3158 H   0  0  0  0  0  0  0  0  0  0  0  0
   -1.9880    1.8262   -0.6426 H   0  0  0  0  0  0  0  0  0  0  0  0
   -2.1261    0.3971   -1.8365 H   0  0  0  0  0  0  0  0  0  0  0  0
    0.5674    1.8210   -0.2801 H   0  0  0  0  0  0  0  0  0  0  0  0
   -0.0590    1.4691    1.4089 H   0  0  0  0  0  0  0  0  0  0  0  0
    1.9363    0.1762    1.7363 H   0  0  0  0  0  0  0  0  0  0  0  0
    3.4646   -0.5347   -0.0999 H   0  0  0  0  0  0  0  0  0  0  0  0
    2.3851    0.2550   -1.4074 H   0  0  0  0  0  0  0  0  0  0  0  0
    1.5507   -2.0652    0.3251 H   0  0  0  0  0  0  0  0  0  0  0  0
  1  2  1  0
  2  3  1  0
  3  4  1  0
  4  5  1  0
  5  6  1  0
  6  7  1  0
  7  8  1  0
  8  9  1  0
  4  2  1  0
  8  6  1  0
  9  4  1  0
  1 10  1  0
  2 11  1  0
  3 12  1  0
  3 13  1  0
  5 14  1  0
  5 15  1  0
  6 16  1  0
  7 17  1  0
  7 18  1  0
  8 19  1  0
M  END
