
     RDKit          3D

 20 21  0  0  0  0  0  0  0  0999 V2000
    2.1659   -0.2000   -1.1106 O   0  0  0  0  0  0  0  0  0  0  0  0
    1.3950    0.1939   -0.0598 C   0  0  0  0  0  0  0  0  0  0  0  0
    0.3926    1.2865   -0.4239 C   0  0  0  0  0  0  0  0  0  0  0  0
   -0.8701    0.9326    0.3035 C   0  0  0  0  0  0  0  0  0  0  0  0
   -1.5936   -0.0879   -0.5524 C   0  0  0  0  0  0  0  0  0  0  0  0
   -0.5811   -1.2340   -0.5583 C   0  0  0  0  0  0  0  0  0  0  0  0
    0.4667   -0.8837    0.4634 C   0  0  0  0  0  0  0  0  0  0  0  0
   -0.3610   -0.0007    1.4145 C   0  0  0  0  0  0  0  0  0  0  0  0
    3.0585   -0.4911   -0.7385 H   0  0  0  0  0  0  0  0  0  0  0  0
    1.9738    0.6032    0.8101 H   0  0  0  0  0  0  0  0  0  0  0  0
    0.1835    1.2413   -1.5303 H   0  0  0  0  0  0  0  0  0  0  0  0
    0.7745    2.2888   -0.2198 H   0  0  0  0  0  0  0  0  0  0  0  0
   -1.4664    1.7429    0.6588 H   0  0  0  0  0  0  0  0  0  0  0  0
   -2.5137   -0.3660    0.0049 H   0  0  0  0  0  0  0  0  0  0  0  0
   -1.7815    0.3107   -1.5534 H   0  0  0  0  0  0  0  0  0  0  0  0
   -0.1863   -1.3759   -1.5721 H   0  0  0  0  0  0  0  0  0  0  0  0
   -1.1260   -2.1349   -0.2352 H   0  0  0  0  0  0  0  0  0  0  0  0
    0.9466   -1.7069    0.9522 H   0  0  0  0  0  0  0  0  0  0  0  0
   -1.1471   -0.6340    1.8149 H   0  0  0  0  0  0  0  0  0  0  0  0
    0.2698    0.5154    2.1319 H   0  0  0  0  0  0  0  0  0  0  0  0
  1  2  1  0
  2  3  1  0
  3  4  1  0
  4  5  1  0
  5  6  1  0
  6  7  1  0
  7  8  1  0
  7  2  1  0
  8  4  1  0
  1  9  1  0
  2 10  1  0
  3 11  1  0
  3 12  1  0
  4 13  1  0
  5 14  1  0
  5 15  1  0
  6 16  1  0
  6 17  1  0
  7 18  1  0
  8 19  1  0
  8 20  1  0
M  END
