
     RDKit          3D

 16 17  0  0  0  0  0  0  0  0999 V2000
   -2.5362    0.4711    0.3431 O   0  0  0  0  0  0  0  0  0  0  0  0
   -1.3256    0.4620   -0.2891 C   0  0  0  0  0  0  0  0  0  0  0  0
   -0.3239    1.1249    0.6310 C   0  0  0  0  0  0  0  0  0  0  0  0
    0.8405    0.5386    0.5057 C   0  0  0  0  0  0  0  0  0  0  0  0
    2.2399    0.0192    0.5188 C   0  0  0  0  0  0  0  0  0  0  0  0
    1.7229   -1.2235    0.0771 O   0  0  0  0  0  0  0  0  0  0  0  0
    0.7160   -0.5506   -0.5462 C   0  0  0  0  0  0  0  0  0  0  0  0
   -0.7045   -0.9505   -0.3347 C   0  0  0  0  0  0  0  0  0  0  0  0
   -3.1462   -0.2384    0.0661 H   0  0  0  0  0  0  0  0  0  0  0  0
   -1.2957    0.9333   -1.2750 H   0  0  0  0  0  0  0  0  0  0  0  0
   -0.5244    1.9550    1.2947 H   0  0  0  0  0  0  0  0  0  0  0  0
    2.8399    0.5471   -0.2376 H   0  0  0  0  0  0  0  0  0  0  0  0
    2.6702   -0.0302    1.5370 H   0  0  0  0  0  0  0  0  0  0  0  0
    0.9013   -0.1775   -1.5636 H   0  0  0  0  0  0  0  0  0  0  0  0
   -0.9072   -1.4157    0.6264 H   0  0  0  0  0  0  0  0  0  0  0  0
   -1.1670   -1.4649   -1.2063 H   0  0  0  0  0  0  0  0  0  0  0  0
  1  2  1  0
  2  3  1  0
  3  4  2  0
  4  5  1  0
  5  6  1  0
  6  7  1  0
  7  8  1  0
  8  2  1  0
  7  4  1  0
  1  9  1  0
  2 10  1  0
  3 11  1  0
  5 12  1  0
  5 13  1  0
  7 14  1  0
  8 15  1  0
  8 16  1  0
M  END
