
     RDKit          3D

 16 18  0  0  0  0  0  0  0  0999 V2000
    1.9249    0.6718    0.7511 O   0  0  0  0  0  0  0  0  0  0  0  0
    1.2091   -0.1700   -0.0633 C   0  0  0  0  0  0  0  0  0  0  0  0
    0.0276    0.4575   -0.7857 C   0  0  0  0  0  0  0  0  0  0  0  0
   -0.8067    1.3470    0.1287 C   0  0  0  0  0  0  0  0  0  0  0  0
   -1.4505    0.5475    1.0240 O   0  0  0  0  0  0  0  0  0  0  0  0
   -1.1953   -0.7818    0.7444 C   0  0  0  0  0  0  0  0  0  0  0  0
    0.2591   -1.1188    0.6030 C   0  0  0  0  0  0  0  0  0  0  0  0
   -0.6886   -0.8477   -0.6099 C   0  0  0  0  0  0  0  0  0  0  0  0
    2.5055    1.2251    0.1847 H   0  0  0  0  0  0  0  0  0  0  0  0
    1.8184   -0.7284   -0.8224 H   0  0  0  0  0  0  0  0  0  0  0  0
    0.2031    0.8211   -1.7913 H   0  0  0  0  0  0  0  0  0  0  0  0
   -1.5931    1.7984   -0.5447 H   0  0  0  0  0  0  0  0  0  0  0  0
   -0.2007    2.1366    0.5861 H   0  0  0  0  0  0  0  0  0  0  0  0
   -1.8609   -1.5561    1.1030 H   0  0  0  0  0  0  0  0  0  0  0  0
    0.5325   -2.1525    0.8005 H   0  0  0  0  0  0  0  0  0  0  0  0
   -0.6842   -1.6497   -1.3082 H   0  0  0  0  0  0  0  0  0  0  0  0
  1  2  1  0
  2  3  1  0
  3  4  1  0
  4  5  1  0
  5  6  1  0
  6  7  1  0
  7  8  1  0
  7  2  1  0
  8  3  1  0
  8  6  1  0
  1  9  1  0
  2 10  1  0
  3 11  1  0
  4 12  1  0
  4 13  1  0
  6 14  1  0
  7 15  1  0
  8 16  1  0
M  END
