
     RDKit          3D

 17 19  0  0  0  0  0  0  0  0999 V2000
    2.1217   -0.3446    0.0698 O   0  0  0  0  0  0  0  0  0  0  0  0
    0.8628   -0.5732   -0.4645 C   0  0  0  0  0  0  0  0  0  0  0  0
    0.2563    0.7492   -0.9688 C   0  0  0  0  0  0  0  0  0  0  0  0
    1.0641    1.8100   -0.5433 O   0  0  0  0  0  0  0  0  0  0  0  0
   -1.0250    0.7541   -0.1847 C   0  0  0  0  0  0  0  0  0  0  0  0
   -0.6831    0.3093    1.1861 C   0  0  0  0  0  0  0  0  0  0  0  0
   -1.9195   -0.3144    1.2373 O   0  0  0  0  0  0  0  0  0  0  0  0
   -1.4875   -0.6602   -0.0380 C   0  0  0  0  0  0  0  0  0  0  0  0
   -0.1644   -0.9536    0.5594 C   0  0  0  0  0  0  0  0  0  0  0  0
    2.6310   -1.1821    0.1158 H   0  0  0  0  0  0  0  0  0  0  0  0
    0.8874   -1.2767   -1.3364 H   0  0  0  0  0  0  0  0  0  0  0  0
    0.1008    0.7337   -2.0546 H   0  0  0  0  0  0  0  0  0  0  0  0
    1.3533    1.6012    0.3911 H   0  0  0  0  0  0  0  0  0  0  0  0
   -1.7393    1.5340   -0.3497 H   0  0  0  0  0  0  0  0  0  0  0  0
   -0.2407    0.8329    1.9263 H   0  0  0  0  0  0  0  0  0  0  0  0
   -2.0059   -1.2020   -0.7153 H   0  0  0  0  0  0  0  0  0  0  0  0
   -0.0119   -1.8177    1.1693 H   0  0  0  0  0  0  0  0  0  0  0  0
  1  2  1  0
  2  3  1  0
  3  4  1  0
  3  5  1  0
  5  6  1  0
  6  7  1  0
  7  8  1  0
  8  9  1  0
  9  2  1  0
  8  5  1  0
  9  6  1  0
  1 10  1  0
  2 11  1  0
  3 12  1  0
  4 13  1  0
  5 14  1  0
  6 15  1  0
  8 16  1  0
  9 17  1  0
M  END
