
     RDKit          3D

 21 22  0  0  0  0  0  0  0  0999 V2000
   -3.1229    0.6800    0.8250 O   0  0  0  0  0  0  0  0  0  0  0  0
   -2.6219   -0.1491   -0.1464 C   0  0  0  0  0  0  0  0  0  0  0  0
   -1.7799    0.5905   -1.1982 C   0  0  0  0  0  0  0  0  0  0  0  0
   -1.2148   -0.4932   -0.2857 C   0  0  0  0  0  0  0  0  0  0  0  0
   -0.1491   -0.0554    0.6596 C   0  0  0  0  0  0  0  0  0  0  0  0
    1.2223   -0.5775    0.2419 C   0  0  0  0  0  0  0  0  0  0  0  0
    2.3436   -0.1839    1.1355 C   0  0  0  0  0  0  0  0  0  0  0  0
    2.2250    0.3829   -0.2629 C   0  0  0  0  0  0  0  0  0  0  0  0
    3.2252   -0.0489   -1.1343 O   0  0  0  0  0  0  0  0  0  0  0  0
   -3.1004    0.3098    1.7411 H   0  0  0  0  0  0  0  0  0  0  0  0
   -3.3831   -0.8294   -0.6064 H   0  0  0  0  0  0  0  0  0  0  0  0
   -1.5042    1.6394   -1.0024 H   0  0  0  0  0  0  0  0  0  0  0  0
   -1.9106    0.3024   -2.2598 H   0  0  0  0  0  0  0  0  0  0  0  0
   -0.9900   -1.4785   -0.7888 H   0  0  0  0  0  0  0  0  0  0  0  0
   -0.3622   -0.3754    1.7125 H   0  0  0  0  0  0  0  0  0  0  0  0
   -0.1225    1.0520    0.6828 H   0  0  0  0  0  0  0  0  0  0  0  0
    1.2030   -1.6074   -0.1559 H   0  0  0  0  0  0  0  0  0  0  0  0
    2.2005    0.5608    1.9406 H   0  0  0  0  0  0  0  0  0  0  0  0
    3.1228   -0.9307    1.3496 H   0  0  0  0  0  0  0  0  0  0  0  0
    1.8714    1.4167   -0.4060 H   0  0  0  0  0  0  0  0  0  0  0  0
    2.8479   -0.2776   -2.0420 H   0  0  0  0  0  0  0  0  0  0  0  0
  1  2  1  0
  2  3  1  0
  3  4  1  0
  4  5  1  0
  5  6  1  0
  6  7  1  0
  7  8  1  0
  8  9  1  0
  4  2  1  0
  8  6  1  0
  1 10  1  0
  2 11  1  0
  3 12  1  0
  3 13  1  0
  4 14  1  0
  5 15  1  0
  5 16  1  0
  6 17  1  0
  7 18  1  0
  7 19  1  0
  8 20  1  0
  9 21  1  0
M  END
