
     RDKit          3D

 19 21  0  0  0  0  0  0  0  0999 V2000
   -2.1558   -0.9329   -0.7358 O   0  0  0  0  0  0  0  0  0  0  0  0
   -1.4579   -0.0748    0.0889 C   0  0  0  0  0  0  0  0  0  0  0  0
   -0.8106    1.0520   -0.6454 C   0  0  0  0  0  0  0  0  0  0  0  0
    0.6094    1.1749   -0.1396 C   0  0  0  0  0  0  0  0  0  0  0  0
    0.6527    0.2872    1.0218 C   0  0  0  0  0  0  0  0  0  0  0  0
   -0.3038   -0.8194    0.7363 C   0  0  0  0  0  0  0  0  0  0  0  0
    0.6488   -1.3299   -0.3269 C   0  0  0  0  0  0  0  0  0  0  0  0
    1.4351   -0.0551   -0.1608 C   0  0  0  0  0  0  0  0  0  0  0  0
    2.7981   -0.0458   -0.2070 O   0  0  0  0  0  0  0  0  0  0  0  0
   -3.0996   -0.9411   -0.4527 H   0  0  0  0  0  0  0  0  0  0  0  0
   -2.0900    0.3051    0.9357 H   0  0  0  0  0  0  0  0  0  0  0  0
   -0.8811    0.9228   -1.7304 H   0  0  0  0  0  0  0  0  0  0  0  0
   -1.3253    2.0068   -0.3712 H   0  0  0  0  0  0  0  0  0  0  0  0
    1.0349    2.1813   -0.0939 H   0  0  0  0  0  0  0  0  0  0  0  0
    1.0253    0.5271    2.0002 H   0  0  0  0  0  0  0  0  0  0  0  0
   -0.5586   -1.5095    1.5351 H   0  0  0  0  0  0  0  0  0  0  0  0
    0.1903   -1.3250   -1.3583 H   0  0  0  0  0  0  0  0  0  0  0  0
    1.1624   -2.2646   -0.1112 H   0  0  0  0  0  0  0  0  0  0  0  0
    3.1255    0.8407    0.0151 H   0  0  0  0  0  0  0  0  0  0  0  0
  1  2  1  0
  2  3  1  0
  3  4  1  0
  4  5  1  0
  5  6  1  0
  6  7  1  0
  7  8  1  0
  8  9  1  0
  6  2  1  0
  8  4  1  0
  8  5  1  0
  1 10  1  0
  2 11  1  0
  3 12  1  0
  3 13  1  0
  4 14  1  0
  5 15  1  0
  6 16  1  0
  7 17  1  0
  7 18  1  0
  9 19  1  0
M  END
