
     RDKit          3D

 19 20  0  0  0  0  0  0  0  0999 V2000
    2.2417    0.2767   -1.3057 O   0  0  0  0  0  0  0  0  0  0  0  0
    0.9496   -0.1505   -0.9740 C   0  0  0  0  0  0  0  0  0  0  0  0
    1.0813   -1.2524    0.0905 C   0  0  0  0  0  0  0  0  0  0  0  0
   -0.0351   -0.5415    0.8274 C   0  0  0  0  0  0  0  0  0  0  0  0
   -1.3601   -0.9828    0.3253 C   0  0  0  0  0  0  0  0  0  0  0  0
   -2.0035    0.2563   -0.1576 C   0  0  0  0  0  0  0  0  0  0  0  0
   -1.1011    1.1972   -0.3175 C   0  0  0  0  0  0  0  0  0  0  0  0
    0.2414    0.7130    0.0344 C   0  0  0  0  0  0  0  0  0  0  0  0
    1.0861    1.6281    0.6079 O   0  0  0  0  0  0  0  0  0  0  0  0
    2.3606    1.2234   -1.0348 H   0  0  0  0  0  0  0  0  0  0  0  0
    0.3883   -0.4417   -1.8637 H   0  0  0  0  0  0  0  0  0  0  0  0
    2.0029   -1.2050    0.6765 H   0  0  0  0  0  0  0  0  0  0  0  0
    0.8087   -2.2194   -0.3613 H   0  0  0  0  0  0  0  0  0  0  0  0
    0.1071   -0.3985    1.8947 H   0  0  0  0  0  0  0  0  0  0  0  0
   -1.2585   -1.6359   -0.5935 H   0  0  0  0  0  0  0  0  0  0  0  0
   -1.9648   -1.5018    1.1019 H   0  0  0  0  0  0  0  0  0  0  0  0
   -3.0827    0.3105   -0.3349 H   0  0  0  0  0  0  0  0  0  0  0  0
   -1.3149    2.1983   -0.6627 H   0  0  0  0  0  0  0  0  0  0  0  0
    0.8529    2.5261    0.2156 H   0  0  0  0  0  0  0  0  0  0  0  0
  1  2  1  0
  2  3  1  0
  3  4  1  0
  4  5  1  0
  5  6  1  0
  6  7  2  0
  7  8  1  0
  8  9  1  0
  8  2  1  0
  8  4  1  0
  1 10  1  0
  2 11  1  0
  3 12  1  0
  3 13  1  0
  4 14  1  0
  5 15  1  0
  5 16  1  0
  6 17  1  0
  7 18  1  0
  9 19  1  0
M  END
