
     RDKit          3D

 20 20  0  0  0  0  0  0  0  0999 V2000
    2.7636    0.2079   -0.0299 O   0  0  0  0  0  0  0  0  0  0  0  0
    1.3926    0.1279    0.2860 C   0  0  0  0  0  0  0  0  0  0  0  0
    0.7796    1.3855   -0.2254 C   0  0  0  0  0  0  0  0  0  0  0  0
   -0.4878    1.6524   -0.4453 C   0  0  0  0  0  0  0  0  0  0  0  0
   -1.6699    0.7739   -0.2458 C   0  0  0  0  0  0  0  0  0  0  0  0
   -1.3157   -0.3643    0.6962 C   0  0  0  0  0  0  0  0  0  0  0  0
   -0.5445   -1.4416   -0.0010 C   0  0  0  0  0  0  0  0  0  0  0  0
    0.8147   -1.0438   -0.4452 C   0  0  0  0  0  0  0  0  0  0  0  0
    3.3195   -0.3010    0.6085 H   0  0  0  0  0  0  0  0  0  0  0  0
    1.2417   -0.0216    1.3647 H   0  0  0  0  0  0  0  0  0  0  0  0
    1.4368    2.2235   -0.4617 H   0  0  0  0  0  0  0  0  0  0  0  0
   -0.7374    2.6319   -0.8212 H   0  0  0  0  0  0  0  0  0  0  0  0
   -2.1314    0.4362   -1.1780 H   0  0  0  0  0  0  0  0  0  0  0  0
   -2.4335    1.3882    0.2885 H   0  0  0  0  0  0  0  0  0  0  0  0
   -2.2943   -0.8140    1.0071 H   0  0  0  0  0  0  0  0  0  0  0  0
   -0.8225    0.0666    1.5663 H   0  0  0  0  0  0  0  0  0  0  0  0
   -1.1671   -1.7852   -0.8640 H   0  0  0  0  0  0  0  0  0  0  0  0
   -0.5262   -2.3265    0.7000 H   0  0  0  0  0  0  0  0  0  0  0  0
    0.8806   -0.8785   -1.5480 H   0  0  0  0  0  0  0  0  0  0  0  0
    1.5010   -1.9175   -0.2522 H   0  0  0  0  0  0  0  0  0  0  0  0
  1  2  1  0
  2  3  1  0
  3  4  2  0
  4  5  1  0
  5  6  1  0
  6  7  1  0
  7  8  1  0
  8  2  1  0
  1  9  1  0
  2 10  1  0
  3 11  1  0
  4 12  1  0
  5 13  1  0
  5 14  1  0
  6 15  1  0
  6 16  1  0
  7 17  1  0
  7 18  1  0
  8 19  1  0
  8 20  1  0
M  END
