
     RDKit          3D

 15 16  0  0  0  0  0  0  0  0999 V2000
    2.3039   -0.3736   -0.5755 O   0  0  0  0  0  0  0  0  0  0  0  0
    1.0569    0.1896   -0.6605 C   0  0  0  0  0  0  0  0  0  0  0  0
   -0.1082   -0.7067   -0.6679 C   0  0  0  0  0  0  0  0  0  0  0  0
   -1.5148   -0.2231   -0.5251 C   0  0  0  0  0  0  0  0  0  0  0  0
   -1.1099    0.8709    0.4381 C   0  0  0  0  0  0  0  0  0  0  0  0
    0.2290    0.1881    0.5642 C   0  0  0  0  0  0  0  0  0  0  0  0
    0.5537   -0.5128    1.6927 O   0  0  0  0  0  0  0  0  0  0  0  0
    2.8672    0.1308    0.0926 H   0  0  0  0  0  0  0  0  0  0  0  0
    1.0175    1.1578   -1.2400 H   0  0  0  0  0  0  0  0  0  0  0  0
    0.0462   -1.7921   -0.5413 H   0  0  0  0  0  0  0  0  0  0  0  0
   -1.9738    0.1065   -1.4659 H   0  0  0  0  0  0  0  0  0  0  0  0
   -2.2129   -0.9502   -0.0273 H   0  0  0  0  0  0  0  0  0  0  0  0
   -1.6572    0.9164    1.3827 H   0  0  0  0  0  0  0  0  0  0  0  0
   -0.9546    1.8757   -0.0542 H   0  0  0  0  0  0  0  0  0  0  0  0
    1.4570   -0.8773    1.5872 H   0  0  0  0  0  0  0  0  0  0  0  0
  1  2  1  0
  2  3  1  0
  3  4  1  0
  4  5  1  0
  5  6  1  0
  6  7  1  0
  6  2  1  0
  6  3  1  0
  1  8  1  0
  2  9  1  0
  3 10  1  0
  4 11  1  0
  4 12  1  0
  5 13  1  0
  5 14  1  0
  7 15  1  0
M  END
