
     RDKit          3D

 18 19  0  0  0  0  0  0  0  0999 V2000
   -1.8209    1.3760    0.4427 O   0  0  0  0  0  0  0  0  0  0  0  0
   -0.8637    0.7203   -0.2892 C   0  0  0  0  0  0  0  0  0  0  0  0
   -1.1558   -0.7338   -0.5142 C   0  0  0  0  0  0  0  0  0  0  0  0
    0.1993   -1.3728   -0.2323 C   0  0  0  0  0  0  0  0  0  0  0  0
    0.4585   -0.6635    1.1135 C   0  0  0  0  0  0  0  0  0  0  0  0
    0.4345    0.7245    0.4492 C   0  0  0  0  0  0  0  0  0  0  0  0
    1.5088    0.4205   -0.5924 C   0  0  0  0  0  0  0  0  0  0  0  0
    1.1999   -0.8560   -1.0114 O   0  0  0  0  0  0  0  0  0  0  0  0
   -1.5858    2.3404    0.4427 H   0  0  0  0  0  0  0  0  0  0  0  0
   -0.7721    1.2128   -1.2969 H   0  0  0  0  0  0  0  0  0  0  0  0
   -1.5452   -0.9764   -1.4965 H   0  0  0  0  0  0  0  0  0  0  0  0
   -1.8192   -1.0983    0.3258 H   0  0  0  0  0  0  0  0  0  0  0  0
    0.1717   -2.4433   -0.1382 H   0  0  0  0  0  0  0  0  0  0  0  0
   -0.4075   -0.8367    1.7365 H   0  0  0  0  0  0  0  0  0  0  0  0
    1.4304   -0.9124    1.5205 H   0  0  0  0  0  0  0  0  0  0  0  0
    0.6431    1.5330    1.1030 H   0  0  0  0  0  0  0  0  0  0  0  0
    2.5154    0.4532   -0.1192 H   0  0  0  0  0  0  0  0  0  0  0  0
    1.4086    1.1126   -1.4434 H   0  0  0  0  0  0  0  0  0  0  0  0
  1  2  1  0
  2  3  1  0
  3  4  1  0
  4  5  1  0
  5  6  1  0
  6  7  1  0
  7  8  1  0
  6  2  1  0
  8  4  1  0
  1  9  1  0
  2 10  1  0
  3 11  1  0
  3 12  1  0
  4 13  1  0
  5 14  1  0
  5 15  1  0
  6 16  1  0
  7 17  1  0
  7 18  1  0
M  END
