
     RDKit          3D

 17 19  0  0  0  0  0  0  0  0999 V2000
   -2.0430    1.8000   -0.3059 O   0  0  0  0  0  0  0  0  0  0  0  0
   -1.3018    1.0155    0.5982 C   0  0  0  0  0  0  0  0  0  0  0  0
   -1.2824   -0.4438    0.3352 C   0  0  0  0  0  0  0  0  0  0  0  0
   -0.9726   -0.9925   -1.0260 C   0  0  0  0  0  0  0  0  0  0  0  0
   -0.1081    0.0829   -1.3106 O   0  0  0  0  0  0  0  0  0  0  0  0
   -0.1028    0.3729    0.0290 C   0  0  0  0  0  0  0  0  0  0  0  0
    1.1615    0.1917    0.8026 C   0  0  0  0  0  0  0  0  0  0  0  0
    2.2929   -0.4269    0.0163 C   0  0  0  0  0  0  0  0  0  0  0  0
    2.3032    0.8829    0.4759 O   0  0  0  0  0  0  0  0  0  0  0  0
   -1.4593    2.1830   -1.0096 H   0  0  0  0  0  0  0  0  0  0  0  0
   -1.2394    1.3338    1.6518 H   0  0  0  0  0  0  0  0  0  0  0  0
   -1.3031   -1.1146    1.2186 H   0  0  0  0  0  0  0  0  0  0  0  0
   -0.3553   -1.9297   -1.0257 H   0  0  0  0  0  0  0  0  0  0  0  0
   -1.7943   -1.0836   -1.7352 H   0  0  0  0  0  0  0  0  0  0  0  0
    1.1036   -0.1080    1.8844 H   0  0  0  0  0  0  0  0  0  0  0  0
    2.1660   -0.5845   -1.0817 H   0  0  0  0  0  0  0  0  0  0  0  0
    2.9347   -1.1791    0.4828 H   0  0  0  0  0  0  0  0  0  0  0  0
  1  2  1  0
  2  3  1  0
  3  4  1  0
  4  5  1  0
  5  6  1  0
  6  7  1  0
  7  8  1  0
  8  9  1  0
  6  2  1  0
  9  7  1  0
  6  3  1  0
  1 10  1  0
  2 11  1  0
  3 12  1  0
  4 13  1  0
  4 14  1  0
  7 15  1  0
  8 16  1  0
  8 17  1  0
M  END
