
     RDKit          3D

 19 20  0  0  0  0  0  0  0  0999 V2000
   -1.3895   -1.9728   -0.0285 O   0  0  0  0  0  0  0  0  0  0  0  0
   -1.3274   -0.6297    0.2879 C   0  0  0  0  0  0  0  0  0  0  0  0
   -1.0805    0.3058   -0.8770 C   0  0  0  0  0  0  0  0  0  0  0  0
   -0.1302    1.0487    0.0111 C   0  0  0  0  0  0  0  0  0  0  0  0
   -0.6786    2.0283    0.8157 O   0  0  0  0  0  0  0  0  0  0  0  0
    1.2211    1.3259   -0.5065 C   0  0  0  0  0  0  0  0  0  0  0  0
    1.9683    0.2394   -0.5458 C   0  0  0  0  0  0  0  0  0  0  0  0
    1.1674   -0.8938   -0.0475 C   0  0  0  0  0  0  0  0  0  0  0  0
    0.0794   -0.2780    0.7570 C   0  0  0  0  0  0  0  0  0  0  0  0
   -1.2157   -2.4683    0.8268 H   0  0  0  0  0  0  0  0  0  0  0  0
   -2.0938   -0.2262    0.9479 H   0  0  0  0  0  0  0  0  0  0  0  0
   -2.0111    0.8483   -1.1373 H   0  0  0  0  0  0  0  0  0  0  0  0
   -0.6096   -0.1644   -1.7505 H   0  0  0  0  0  0  0  0  0  0  0  0
   -1.2548    1.6191    1.4828 H   0  0  0  0  0  0  0  0  0  0  0  0
    1.5759    2.3019   -0.8222 H   0  0  0  0  0  0  0  0  0  0  0  0
    3.0176    0.1401   -0.8843 H   0  0  0  0  0  0  0  0  0  0  0  0
    1.7897   -1.5981    0.5703 H   0  0  0  0  0  0  0  0  0  0  0  0
    0.7531   -1.4353   -0.9275 H   0  0  0  0  0  0  0  0  0  0  0  0
    0.2185   -0.1908    1.8277 H   0  0  0  0  0  0  0  0  0  0  0  0
  1  2  1  0
  2  3  1  0
  3  4  1  0
  4  5  1  0
  4  6  1  0
  6  7  2  0
  7  8  1  0
  8  9  1  0
  9  2  1  0
  9  4  1  0
  1 10  1  0
  2 11  1  0
  3 12  1  0
  3 13  1  0
  5 14  1  0
  6 15  1  0
  7 16  1  0
  8 17  1  0
  8 18  1  0
  9 19  1  0
M  END
