
     RDKit          3D

 21 22  0  0  0  0  0  0  0  0999 V2000
   -0.6478   -2.1632    0.2044 O   0  0  0  0  0  0  0  0  0  0  0  0
   -0.0866   -1.0709   -0.4988 C   0  0  0  0  0  0  0  0  0  0  0  0
    1.3858   -1.2265   -0.3879 C   0  0  0  0  0  0  0  0  0  0  0  0
    2.2120   -0.1792   -0.3509 C   0  0  0  0  0  0  0  0  0  0  0  0
    1.5192    1.1625   -0.4305 C   0  0  0  0  0  0  0  0  0  0  0  0
    0.4437    1.0580    0.6621 C   0  0  0  0  0  0  0  0  0  0  0  0
   -0.6351    0.1730    0.1228 C   0  0  0  0  0  0  0  0  0  0  0  0
   -1.9443    0.0467    0.8149 C   0  0  0  0  0  0  0  0  0  0  0  0
   -1.8152    0.8667   -0.4483 C   0  0  0  0  0  0  0  0  0  0  0  0
   -0.5637   -2.9799   -0.3403 H   0  0  0  0  0  0  0  0  0  0  0  0
   -0.3319   -1.1467   -1.5819 H   0  0  0  0  0  0  0  0  0  0  0  0
    1.8494   -2.2301   -0.3310 H   0  0  0  0  0  0  0  0  0  0  0  0
    3.2709   -0.2849   -0.2717 H   0  0  0  0  0  0  0  0  0  0  0  0
    0.9692    1.2448   -1.3897 H   0  0  0  0  0  0  0  0  0  0  0  0
    2.1989    1.9923   -0.2672 H   0  0  0  0  0  0  0  0  0  0  0  0
    0.0979    2.0708    0.8718 H   0  0  0  0  0  0  0  0  0  0  0  0
    0.9332    0.5804    1.5600 H   0  0  0  0  0  0  0  0  0  0  0  0
   -2.5050   -0.9126    0.7452 H   0  0  0  0  0  0  0  0  0  0  0  0
   -2.1434    0.5760    1.7673 H   0  0  0  0  0  0  0  0  0  0  0  0
   -2.3249    0.4600   -1.3435 H   0  0  0  0  0  0  0  0  0  0  0  0
   -1.8826    1.9628   -0.3112 H   0  0  0  0  0  0  0  0  0  0  0  0
  1  2  1  0
  2  3  1  0
  3  4  2  0
  4  5  1  0
  5  6  1  0
  6  7  1  0
  7  8  1  0
  8  9  1  0
  7  2  1  0
  9  7  1  0
  1 10  1  0
  2 11  1  0
  3 12  1  0
  4 13  1  0
  5 14  1  0
  5 15  1  0
  6 16  1  0
  6 17  1  0
  8 18  1  0
  8 19  1  0
  9 20  1  0
  9 21  1  0
M  END
