
     RDKit          3D

 19 20  0  0  0  0  0  0  0  0999 V2000
   -1.0555    1.7546    0.3666 O   0  0  0  0  0  0  0  0  0  0  0  0
   -0.7004    0.8170   -0.5859 C   0  0  0  0  0  0  0  0  0  0  0  0
   -1.7242   -0.3268   -0.6328 C   0  0  0  0  0  0  0  0  0  0  0  0
   -0.7749   -1.1040    0.2641 C   0  0  0  0  0  0  0  0  0  0  0  0
   -0.9884   -0.8986    1.6347 O   0  0  0  0  0  0  0  0  0  0  0  0
    0.3243   -0.1880   -0.2093 C   0  0  0  0  0  0  0  0  0  0  0  0
    1.3809    0.1705    0.7412 C   0  0  0  0  0  0  0  0  0  0  0  0
    2.2612   -0.2320   -0.4080 C   0  0  0  0  0  0  0  0  0  0  0  0
    1.1635   -0.6640   -1.1710 O   0  0  0  0  0  0  0  0  0  0  0  0
   -0.9467    2.6939    0.0327 H   0  0  0  0  0  0  0  0  0  0  0  0
   -0.5736    1.3132   -1.5693 H   0  0  0  0  0  0  0  0  0  0  0  0
   -1.7782   -0.8181   -1.6123 H   0  0  0  0  0  0  0  0  0  0  0  0
   -2.6993   -0.0887   -0.2089 H   0  0  0  0  0  0  0  0  0  0  0  0
   -0.5705   -2.1330   -0.0327 H   0  0  0  0  0  0  0  0  0  0  0  0
   -1.8708   -0.4354    1.7121 H   0  0  0  0  0  0  0  0  0  0  0  0
    1.4728    1.2019    1.0942 H   0  0  0  0  0  0  0  0  0  0  0  0
    1.3934   -0.5333    1.6202 H   0  0  0  0  0  0  0  0  0  0  0  0
    2.8161    0.6001   -0.8849 H   0  0  0  0  0  0  0  0  0  0  0  0
    2.8702   -1.1291   -0.1508 H   0  0  0  0  0  0  0  0  0  0  0  0
  1  2  1  0
  2  3  1  0
  3  4  1  0
  4  5  1  0
  4  6  1  0
  6  7  1  0
  7  8  1  0
  8  9  1  0
  6  2  1  0
  9  6  1  0
  1 10  1  0
  2 11  1  0
  3 12  1  0
  3 13  1  0
  4 14  1  0
  5 15  1  0
  7 16  1  0
  7 17  1  0
  8 18  1  0
  8 19  1  0
M  END
