
     RDKit          3D

 21 22  0  0  0  0  0  0  0  0999 V2000
   -2.7344    0.2984    0.1105 O   0  0  0  0  0  0  0  0  0  0  0  0
   -1.4287   -0.0690   -0.2938 C   0  0  0  0  0  0  0  0  0  0  0  0
   -0.9725   -1.1153    0.6843 C   0  0  0  0  0  0  0  0  0  0  0  0
    0.4435   -1.4798    0.3930 C   0  0  0  0  0  0  0  0  0  0  0  0
    1.3404   -0.3049    0.4072 C   0  0  0  0  0  0  0  0  0  0  0  0
    1.7388    0.1945   -0.9864 C   0  0  0  0  0  0  0  0  0  0  0  0
    0.8520    0.9652   -0.0485 C   0  0  0  0  0  0  0  0  0  0  0  0
    1.4930    2.1211    0.4605 O   0  0  0  0  0  0  0  0  0  0  0  0
   -0.5843    1.1506   -0.3275 C   0  0  0  0  0  0  0  0  0  0  0  0
   -3.3113    0.5143   -0.6385 H   0  0  0  0  0  0  0  0  0  0  0  0
   -1.4695   -0.5163   -1.3019 H   0  0  0  0  0  0  0  0  0  0  0  0
   -1.1142   -0.7839    1.7195 H   0  0  0  0  0  0  0  0  0  0  0  0
   -1.6404   -2.0078    0.5294 H   0  0  0  0  0  0  0  0  0  0  0  0
    0.7950   -2.2679    1.1111 H   0  0  0  0  0  0  0  0  0  0  0  0
    0.4581   -2.0022   -0.6089 H   0  0  0  0  0  0  0  0  0  0  0  0
    2.1427   -0.3126    1.1941 H   0  0  0  0  0  0  0  0  0  0  0  0
    2.8172    0.4541   -1.0731 H   0  0  0  0  0  0  0  0  0  0  0  0
    1.3423   -0.3190   -1.8596 H   0  0  0  0  0  0  0  0  0  0  0  0
    1.6019    1.9482    1.4236 H   0  0  0  0  0  0  0  0  0  0  0  0
   -0.7720    1.6598   -1.3196 H   0  0  0  0  0  0  0  0  0  0  0  0
   -0.9978    1.8726    0.4247 H   0  0  0  0  0  0  0  0  0  0  0  0
  1  2  1  0
  2  3  1  0
  3  4  1  0
  4  5  1  0
  5  6  1  0
  6  7  1  0
  7  8  1  0
  7  9  1  0
  9  2  1  0
  7  5  1  0
  1 10  1  0
  2 11  1  0
  3 12  1  0
  3 13  1  0
  4 14  1  0
  4 15  1  0
  5 16  1  0
  6 17  1  0
  6 18  1  0
  8 19  1  0
  9 20  1  0
  9 21  1  0
M  END
