
     RDKit          3D

 19 20  0  0  0  0  0  0  0  0999 V2000
   -0.3920    1.8613    0.9008 O   0  0  0  0  0  0  0  0  0  0  0  0
   -0.8258    0.9594   -0.0271 C   0  0  0  0  0  0  0  0  0  0  0  0
   -0.9633   -0.4592    0.5455 C   0  0  0  0  0  0  0  0  0  0  0  0
    0.2791   -0.7598    1.3321 C   0  0  0  0  0  0  0  0  0  0  0  0
    1.4332   -0.5959    0.6983 C   0  0  0  0  0  0  0  0  0  0  0  0
    1.5744    0.3583   -0.4294 C   0  0  0  0  0  0  0  0  0  0  0  0
    0.2264    0.6448   -1.0930 C   0  0  0  0  0  0  0  0  0  0  0  0
   -0.2632   -0.4887   -1.6812 O   0  0  0  0  0  0  0  0  0  0  0  0
   -0.9321   -1.2415   -0.7527 C   0  0  0  0  0  0  0  0  0  0  0  0
   -1.1999    2.3212    1.2917 H   0  0  0  0  0  0  0  0  0  0  0  0
   -1.7602    1.1841   -0.5279 H   0  0  0  0  0  0  0  0  0  0  0  0
   -1.8767   -0.5895    1.1186 H   0  0  0  0  0  0  0  0  0  0  0  0
    0.2849   -1.0887    2.3446 H   0  0  0  0  0  0  0  0  0  0  0  0
    2.3384   -1.1606    0.9803 H   0  0  0  0  0  0  0  0  0  0  0  0
    2.2220   -0.1219   -1.1852 H   0  0  0  0  0  0  0  0  0  0  0  0
    2.0110    1.2840   -0.0183 H   0  0  0  0  0  0  0  0  0  0  0  0
    0.3647    1.4791   -1.7794 H   0  0  0  0  0  0  0  0  0  0  0  0
   -1.9993   -1.3289   -1.1109 H   0  0  0  0  0  0  0  0  0  0  0  0
   -0.5216   -2.2574   -0.6068 H   0  0  0  0  0  0  0  0  0  0  0  0
  1  2  1  0
  2  3  1  0
  3  4  1  0
  4  5  2  0
  5  6  1  0
  6  7  1  0
  7  8  1  0
  8  9  1  0
  7  2  1  0
  9  3  1  0
  1 10  1  0
  2 11  1  0
  3 12  1  0
  4 13  1  0
  5 14  1  0
  6 15  1  0
  6 16  1  0
  7 17  1  0
  9 18  1  0
  9 19  1  0
M  END
