
     RDKit          3D

 19 20  0  0  0  0  0  0  0  0999 V2000
    4.0393    0.3972    0.2361 O   0  0  0  0  0  0  0  0  0  0  0  0
    2.8336   -0.1161   -0.2317 C   0  0  0  0  0  0  0  0  0  0  0  0
    2.4368   -1.4707    0.3770 C   0  0  0  0  0  0  0  0  0  0  0  0
    1.6749   -0.1971    0.6857 C   0  0  0  0  0  0  0  0  0  0  0  0
    0.3205   -0.1018    0.1379 C   0  0  0  0  0  0  0  0  0  0  0  0
   -0.7916   -0.0158   -0.3059 C   0  0  0  0  0  0  0  0  0  0  0  0
   -2.1447    0.1140   -0.8514 C   0  0  0  0  0  0  0  0  0  0  0  0
   -3.3051   -0.0801    0.0160 C   0  0  0  0  0  0  0  0  0  0  0  0
   -2.9771    1.3062   -0.3495 C   0  0  0  0  0  0  0  0  0  0  0  0
    4.1029    1.3762    0.1759 H   0  0  0  0  0  0  0  0  0  0  0  0
    2.7195   -0.0455   -1.3291 H   0  0  0  0  0  0  0  0  0  0  0  0
    3.1226   -1.8859    1.1634 H   0  0  0  0  0  0  0  0  0  0  0  0
    1.9248   -2.1997   -0.2821 H   0  0  0  0  0  0  0  0  0  0  0  0
    1.7965    0.2442    1.6982 H   0  0  0  0  0  0  0  0  0  0  0  0
   -2.2881   -0.1600   -1.9340 H   0  0  0  0  0  0  0  0  0  0  0  0
   -3.1555   -0.4649    1.0293 H   0  0  0  0  0  0  0  0  0  0  0  0
   -4.2575   -0.4753   -0.4463 H   0  0  0  0  0  0  0  0  0  0  0  0
   -3.5545    1.8587   -1.1152 H   0  0  0  0  0  0  0  0  0  0  0  0
   -2.4973    1.9163    0.4435 H   0  0  0  0  0  0  0  0  0  0  0  0
  1  2  1  0
  2  3  1  0
  3  4  1  0
  4  5  1  0
  5  6  3  0
  6  7  1  0
  7  8  1  0
  8  9  1  0
  4  2  1  0
  9  7  1  0
  1 10  1  0
  2 11  1  0
  3 12  1  0
  3 13  1  0
  4 14  1  0
  7 15  1  0
  8 16  1  0
  8 17  1  0
  9 18  1  0
  9 19  1  0
M  END
