
     RDKit          3D

 15 15  0  0  0  0  0  0  0  0999 V2000
   -2.2768   -0.0401    0.7383 O   0  0  0  0  0  0  0  0  0  0  0  0
   -1.1913   -0.0599   -0.1156 C   0  0  0  0  0  0  0  0  0  0  0  0
   -0.4301    1.2178   -0.1238 C   0  0  0  0  0  0  0  0  0  0  0  0
    0.8671    0.9880   -0.3020 C   0  0  0  0  0  0  0  0  0  0  0  0
    1.0828   -0.5017   -0.4307 C   0  0  0  0  0  0  0  0  0  0  0  0
    2.2923   -0.8613    0.1039 O   0  0  0  0  0  0  0  0  0  0  0  0
   -0.1039   -1.0213    0.3655 C   0  0  0  0  0  0  0  0  0  0  0  0
   -2.9713    0.5035    0.3345 H   0  0  0  0  0  0  0  0  0  0  0  0
   -1.4531   -0.2927   -1.1581 H   0  0  0  0  0  0  0  0  0  0  0  0
   -0.8236    2.2178   -0.0062 H   0  0  0  0  0  0  0  0  0  0  0  0
    1.6502    1.7357   -0.3491 H   0  0  0  0  0  0  0  0  0  0  0  0
    1.0174   -0.7742   -1.4943 H   0  0  0  0  0  0  0  0  0  0  0  0
    2.5995   -0.2626    0.8453 H   0  0  0  0  0  0  0  0  0  0  0  0
   -0.3441   -2.0597    0.1638 H   0  0  0  0  0  0  0  0  0  0  0  0
    0.0849   -0.7893    1.4285 H   0  0  0  0  0  0  0  0  0  0  0  0
  1  2  1  0
  2  3  1  0
  3  4  2  0
  4  5  1  0
  5  6  1  0
  5  7  1  0
  7  2  1  0
  1  8  1  0
  2  9  1  0
  3 10  1  0
  4 11  1  0
  5 12  1  0
  6 13  1  0
  7 14  1  0
  7 15  1  0
M  END
