
     RDKit          3D

 20 21  0  0  0  0  0  0  0  0999 V2000
    2.9608   -0.8253    0.7142 O   0  0  0  0  0  0  0  0  0  0  0  0
    1.7713   -0.5620    0.0040 C   0  0  0  0  0  0  0  0  0  0  0  0
    0.4570   -0.7724    0.8096 C   0  0  0  0  0  0  0  0  0  0  0  0
   -0.6885   -1.3271    0.0493 C   0  0  0  0  0  0  0  0  0  0  0  0
   -1.7734   -0.3607   -0.2662 C   0  0  0  0  0  0  0  0  0  0  0  0
   -1.3898    1.0769   -0.0661 C   0  0  0  0  0  0  0  0  0  0  0  0
    0.0538    1.3382   -0.4836 C   0  0  0  0  0  0  0  0  0  0  0  0
    0.9332    0.5526    0.4437 C   0  0  0  0  0  0  0  0  0  0  0  0
    3.2754    0.0844    1.0139 H   0  0  0  0  0  0  0  0  0  0  0  0
    1.7681   -0.9919   -0.9991 H   0  0  0  0  0  0  0  0  0  0  0  0
    0.5840   -1.0904    1.8703 H   0  0  0  0  0  0  0  0  0  0  0  0
   -1.1061   -2.1883    0.6152 H   0  0  0  0  0  0  0  0  0  0  0  0
   -0.3059   -1.7643   -0.9145 H   0  0  0  0  0  0  0  0  0  0  0  0
   -2.7062   -0.5292    0.3368 H   0  0  0  0  0  0  0  0  0  0  0  0
   -2.1144   -0.4572   -1.3337 H   0  0  0  0  0  0  0  0  0  0  0  0
   -1.4571    1.3131    1.0152 H   0  0  0  0  0  0  0  0  0  0  0  0
   -2.0547    1.7308   -0.6839 H   0  0  0  0  0  0  0  0  0  0  0  0
    0.2256    1.1332   -1.5507 H   0  0  0  0  0  0  0  0  0  0  0  0
    0.1928    2.4486   -0.3627 H   0  0  0  0  0  0  0  0  0  0  0  0
    1.3739    1.1907    1.2655 H   0  0  0  0  0  0  0  0  0  0  0  0
  1  2  1  0
  2  3  1  0
  3  4  1  0
  4  5  1  0
  5  6  1  0
  6  7  1  0
  7  8  1  0
  8  2  1  0
  8  3  1  0
  1  9  1  0
  2 10  1  0
  3 11  1  0
  4 12  1  0
  4 13  1  0
  5 14  1  0
  5 15  1  0
  6 16  1  0
  6 17  1  0
  7 18  1  0
  7 19  1  0
  8 20  1  0
M  END
