
     RDKit          3D

 19 20  0  0  0  0  0  0  0  0999 V2000
   -1.9553    1.0205    1.0128 O   0  0  0  0  0  0  0  0  0  0  0  0
   -1.7426    0.4465   -0.2276 C   0  0  0  0  0  0  0  0  0  0  0  0
   -1.6241   -1.0702   -0.2150 C   0  0  0  0  0  0  0  0  0  0  0  0
   -0.1458   -0.8871   -0.0232 C   0  0  0  0  0  0  0  0  0  0  0  0
    1.0799   -1.1701    0.3550 C   0  0  0  0  0  0  0  0  0  0  0  0
    2.2399   -0.2946    0.1387 C   0  0  0  0  0  0  0  0  0  0  0  0
    1.9295    0.8388   -0.5600 O   0  0  0  0  0  0  0  0  0  0  0  0
    0.6757    1.3371   -0.1494 C   0  0  0  0  0  0  0  0  0  0  0  0
   -0.3480    0.4315   -0.7401 C   0  0  0  0  0  0  0  0  0  0  0  0
   -1.5499    0.5171    1.7570 H   0  0  0  0  0  0  0  0  0  0  0  0
   -2.5195    0.7662   -0.9479 H   0  0  0  0  0  0  0  0  0  0  0  0
   -2.1307   -1.6076    0.5759 H   0  0  0  0  0  0  0  0  0  0  0  0
   -1.8089   -1.5183   -1.2101 H   0  0  0  0  0  0  0  0  0  0  0  0
    1.2356   -2.1177    0.8609 H   0  0  0  0  0  0  0  0  0  0  0  0
    3.0970   -0.8582   -0.3018 H   0  0  0  0  0  0  0  0  0  0  0  0
    2.5373    0.0552    1.1779 H   0  0  0  0  0  0  0  0  0  0  0  0
    0.6066    2.3565   -0.6064 H   0  0  0  0  0  0  0  0  0  0  0  0
    0.6830    1.3879    0.9356 H   0  0  0  0  0  0  0  0  0  0  0  0
   -0.2598    0.3667   -1.8322 H   0  0  0  0  0  0  0  0  0  0  0  0
  1  2  1  0
  2  3  1  0
  3  4  1  0
  4  5  2  0
  5  6  1  0
  6  7  1  0
  7  8  1  0
  8  9  1  0
  9  2  1  0
  9  4  1  0
  1 10  1  0
  2 11  1  0
  3 12  1  0
  3 13  1  0
  5 14  1  0
  6 15  1  0
  6 16  1  0
  8 17  1  0
  8 18  1  0
  9 19  1  0
M  END
