
     RDKit          3D

 17 19  0  0  0  0  0  0  0  0999 V2000
   -2.2285   -0.8465    0.2426 O   0  0  0  0  0  0  0  0  0  0  0  0
   -1.1647   -0.3235   -0.5315 C   0  0  0  0  0  0  0  0  0  0  0  0
   -1.0496    1.1187   -0.1913 C   0  0  0  0  0  0  0  0  0  0  0  0
    0.1515    1.7010   -0.4191 O   0  0  0  0  0  0  0  0  0  0  0  0
    1.2634    0.9843   -0.0602 C   0  0  0  0  0  0  0  0  0  0  0  0
    1.2963   -0.0247    0.9923 C   0  0  0  0  0  0  0  0  0  0  0  0
    0.3510   -0.9911    1.1654 O   0  0  0  0  0  0  0  0  0  0  0  0
    0.0508   -1.1371   -0.1740 C   0  0  0  0  0  0  0  0  0  0  0  0
    1.2992   -0.4169   -0.5227 C   0  0  0  0  0  0  0  0  0  0  0  0
   -1.8899   -0.8207    1.1939 H   0  0  0  0  0  0  0  0  0  0  0  0
   -1.4765   -0.4783   -1.5883 H   0  0  0  0  0  0  0  0  0  0  0  0
   -1.4085    1.2916    0.8662 H   0  0  0  0  0  0  0  0  0  0  0  0
   -1.8150    1.6691   -0.8170 H   0  0  0  0  0  0  0  0  0  0  0  0
    2.2150    1.5552   -0.2235 H   0  0  0  0  0  0  0  0  0  0  0  0
    2.2602   -0.2073    1.5292 H   0  0  0  0  0  0  0  0  0  0  0  0
   -0.0430   -2.1608   -0.5602 H   0  0  0  0  0  0  0  0  0  0  0  0
    2.1884   -0.9129   -0.9017 H   0  0  0  0  0  0  0  0  0  0  0  0
  1  2  1  0
  2  3  1  0
  3  4  1  0
  4  5  1  0
  5  6  1  0
  6  7  1  0
  7  8  1  0
  8  9  1  0
  8  2  1  0
  9  5  1  0
  9  6  1  0
  1 10  1  0
  2 11  1  0
  3 12  1  0
  3 13  1  0
  5 14  1  0
  6 15  1  0
  8 16  1  0
  9 17  1  0
M  END
