
     RDKit          3D

 16 16  0  0  0  0  0  0  0  0999 V2000
    2.0500    0.6971    0.6217 O   0  0  0  0  0  0  0  0  0  0  0  0
    0.7385    0.3290    0.6106 C   0  0  0  0  0  0  0  0  0  0  0  0
   -0.1975    1.4277    0.2354 C   0  0  0  0  0  0  0  0  0  0  0  0
   -1.2504    0.9363   -0.3972 C   0  0  0  0  0  0  0  0  0  0  0  0
   -1.0954   -0.5409   -0.4921 C   0  0  0  0  0  0  0  0  0  0  0  0
   -1.5332   -1.1723    0.6800 O   0  0  0  0  0  0  0  0  0  0  0  0
    0.4134   -0.6690   -0.5134 C   0  0  0  0  0  0  0  0  0  0  0  0
    0.8197   -1.9469   -0.1953 O   0  0  0  0  0  0  0  0  0  0  0  0
    2.4556    0.8637   -0.2527 H   0  0  0  0  0  0  0  0  0  0  0  0
    0.4613   -0.1477    1.5645 H   0  0  0  0  0  0  0  0  0  0  0  0
   -0.0277    2.4657    0.4544 H   0  0  0  0  0  0  0  0  0  0  0  0
   -2.1187    1.4608   -0.8062 H   0  0  0  0  0  0  0  0  0  0  0  0
   -1.5720   -0.9577   -1.3965 H   0  0  0  0  0  0  0  0  0  0  0  0
   -1.7307   -0.4619    1.3273 H   0  0  0  0  0  0  0  0  0  0  0  0
    0.8248   -0.2937   -1.4752 H   0  0  0  0  0  0  0  0  0  0  0  0
    1.7624   -1.9902    0.0347 H   0  0  0  0  0  0  0  0  0  0  0  0
  1  2  1  0
  2  3  1  0
  3  4  2  0
  4  5  1  0
  5  6  1  0
  5  7  1  0
  7  8  1  0
  7  2  1  0
  1  9  1  0
  2 10  1  0
  3 11  1  0
  4 12  1  0
  5 13  1  0
  6 14  1  0
  7 15  1  0
  8 16  1  0
M  END
