
     RDKit          3D

 21 22  0  0  0  0  0  0  0  0999 V2000
   -2.9766    0.0626    0.1359 O   0  0  0  0  0  0  0  0  0  0  0  0
   -1.6339    0.0156    0.3646 C   0  0  0  0  0  0  0  0  0  0  0  0
   -0.8041   -0.8566   -0.5336 C   0  0  0  0  0  0  0  0  0  0  0  0
    0.3491   -1.3757    0.2533 C   0  0  0  0  0  0  0  0  0  0  0  0
    1.6559   -0.7377   -0.0266 C   0  0  0  0  0  0  0  0  0  0  0  0
    1.6284    0.7404   -0.1942 C   0  0  0  0  0  0  0  0  0  0  0  0
    0.4063    1.3923    0.4372 C   0  0  0  0  0  0  0  0  0  0  0  0
   -0.8219    1.0666   -0.3573 C   0  0  0  0  0  0  0  0  0  0  0  0
   -0.4903    0.1966   -1.3776 O   0  0  0  0  0  0  0  0  0  0  0  0
   -3.2999   -0.3860   -0.6664 H   0  0  0  0  0  0  0  0  0  0  0  0
   -1.3788   -0.0441    1.4552 H   0  0  0  0  0  0  0  0  0  0  0  0
   -1.3505   -1.6339   -1.1039 H   0  0  0  0  0  0  0  0  0  0  0  0
    0.1533   -1.2761    1.3612 H   0  0  0  0  0  0  0  0  0  0  0  0
    0.4400   -2.4668    0.0807 H   0  0  0  0  0  0  0  0  0  0  0  0
    2.3412   -0.9692    0.8413 H   0  0  0  0  0  0  0  0  0  0  0  0
    2.1294   -1.2625   -0.9017 H   0  0  0  0  0  0  0  0  0  0  0  0
    2.5103    1.2156    0.3109 H   0  0  0  0  0  0  0  0  0  0  0  0
    1.6616    0.9516   -1.2972 H   0  0  0  0  0  0  0  0  0  0  0  0
    0.3122    0.9525    1.4554 H   0  0  0  0  0  0  0  0  0  0  0  0
    0.5818    2.4887    0.4845 H   0  0  0  0  0  0  0  0  0  0  0  0
   -1.4135    1.9263   -0.7217 H   0  0  0  0  0  0  0  0  0  0  0  0
  1  2  1  0
  2  3  1  0
  3  4  1  0
  4  5  1  0
  5  6  1  0
  6  7  1  0
  7  8  1  0
  8  9  1  0
  8  2  1  0
  9  3  1  0
  1 10  1  0
  2 11  1  0
  3 12  1  0
  4 13  1  0
  4 14  1  0
  5 15  1  0
  5 16  1  0
  6 17  1  0
  6 18  1  0
  7 19  1  0
  7 20  1  0
  8 21  1  0
M  END
