
     RDKit          3D

 19 20  0  0  0  0  0  0  0  0999 V2000
    2.8727   -0.5704   -0.1220 O   0  0  0  0  0  0  0  0  0  0  0  0
    1.5760   -0.2825   -0.4745 C   0  0  0  0  0  0  0  0  0  0  0  0
    1.2188    1.1475   -0.3238 C   0  0  0  0  0  0  0  0  0  0  0  0
   -0.0473    1.5049   -0.2417 C   0  0  0  0  0  0  0  0  0  0  0  0
   -1.1857    0.5742   -0.2882 C   0  0  0  0  0  0  0  0  0  0  0  0
   -2.1526    0.8868   -1.2444 O   0  0  0  0  0  0  0  0  0  0  0  0
   -1.6830   -0.1366    0.9092 C   0  0  0  0  0  0  0  0  0  0  0  0
   -0.8033   -0.8277   -0.0980 C   0  0  0  0  0  0  0  0  0  0  0  0
    0.5996   -1.0753    0.3691 C   0  0  0  0  0  0  0  0  0  0  0  0
    3.0573   -0.5337    0.8408 H   0  0  0  0  0  0  0  0  0  0  0  0
    1.4366   -0.6047   -1.5347 H   0  0  0  0  0  0  0  0  0  0  0  0
    1.9879    1.8955   -0.2810 H   0  0  0  0  0  0  0  0  0  0  0  0
   -0.2637    2.5636   -0.1319 H   0  0  0  0  0  0  0  0  0  0  0  0
   -2.8880    0.2446   -1.2536 H   0  0  0  0  0  0  0  0  0  0  0  0
   -2.7320   -0.4506    0.9487 H   0  0  0  0  0  0  0  0  0  0  0  0
   -1.2562    0.1307    1.9113 H   0  0  0  0  0  0  0  0  0  0  0  0
   -1.2919   -1.5809   -0.7469 H   0  0  0  0  0  0  0  0  0  0  0  0
    0.7626   -0.7226    1.4281 H   0  0  0  0  0  0  0  0  0  0  0  0
    0.7922   -2.1628    0.3334 H   0  0  0  0  0  0  0  0  0  0  0  0
  1  2  1  0
  2  3  1  0
  3  4  2  0
  4  5  1  0
  5  6  1  0
  5  7  1  0
  7  8  1  0
  8  9  1  0
  9  2  1  0
  8  5  1  0
  1 10  1  0
  2 11  1  0
  3 12  1  0
  4 13  1  0
  6 14  1  0
  7 15  1  0
  7 16  1  0
  8 17  1  0
  9 18  1  0
  9 19  1  0
M  END
