
     RDKit          3D

 21 22  0  0  0  0  0  0  0  0999 V2000
   -3.2389    0.2411    0.1974 O   0  0  0  0  0  0  0  0  0  0  0  0
   -1.9932   -0.0348   -0.2796 C   0  0  0  0  0  0  0  0  0  0  0  0
   -0.9352    1.0515   -0.0184 C   0  0  0  0  0  0  0  0  0  0  0  0
    0.0039   -0.1006    0.1757 C   0  0  0  0  0  0  0  0  0  0  0  0
   -1.1255   -0.9223    0.6281 C   0  0  0  0  0  0  0  0  0  0  0  0
    1.2141    0.0638    0.9592 C   0  0  0  0  0  0  0  0  0  0  0  0
    1.9800    0.2063   -0.3658 C   0  0  0  0  0  0  0  0  0  0  0  0
    3.1031   -0.5684   -0.4701 O   0  0  0  0  0  0  0  0  0  0  0  0
    0.7899   -0.5207   -1.0137 C   0  0  0  0  0  0  0  0  0  0  0  0
   -3.5689    1.0932   -0.2009 H   0  0  0  0  0  0  0  0  0  0  0  0
   -1.8799   -0.3813   -1.3079 H   0  0  0  0  0  0  0  0  0  0  0  0
   -1.1301    1.6276    0.9111 H   0  0  0  0  0  0  0  0  0  0  0  0
   -0.7120    1.6724   -0.8903 H   0  0  0  0  0  0  0  0  0  0  0  0
   -1.0816   -1.9704    0.3380 H   0  0  0  0  0  0  0  0  0  0  0  0
   -1.4064   -0.7120    1.6819 H   0  0  0  0  0  0  0  0  0  0  0  0
    1.5247   -0.8972    1.4643 H   0  0  0  0  0  0  0  0  0  0  0  0
    1.3670    0.9222    1.6084 H   0  0  0  0  0  0  0  0  0  0  0  0
    2.0449    1.2559   -0.6992 H   0  0  0  0  0  0  0  0  0  0  0  0
    3.7264   -0.3704    0.2581 H   0  0  0  0  0  0  0  0  0  0  0  0
    0.9036   -1.6199   -1.0459 H   0  0  0  0  0  0  0  0  0  0  0  0
    0.4141   -0.0359   -1.9303 H   0  0  0  0  0  0  0  0  0  0  0  0
  1  2  1  0
  2  3  1  0
  3  4  1  0
  4  5  1  0
  4  6  1  0
  6  7  1  0
  7  8  1  0
  7  9  1  0
  5  2  1  0
  9  4  1  0
  1 10  1  0
  2 11  1  0
  3 12  1  0
  3 13  1  0
  5 14  1  0
  5 15  1  0
  6 16  1  0
  6 17  1  0
  7 18  1  0
  8 19  1  0
  9 20  1  0
  9 21  1  0
M  END
