
     RDKit          3D

 17 19  0  0  0  0  0  0  0  0999 V2000
    0.0746    2.2657    0.2772 O   0  0  0  0  0  0  0  0  0  0  0  0
   -0.7986    1.2281    0.4582 C   0  0  0  0  0  0  0  0  0  0  0  0
   -0.6298   -0.0149   -0.4120 C   0  0  0  0  0  0  0  0  0  0  0  0
    0.6789   -0.0929   -1.1375 C   0  0  0  0  0  0  0  0  0  0  0  0
    1.6869   -0.3583   -0.0974 C   0  0  0  0  0  0  0  0  0  0  0  0
    1.1101   -0.3281    1.0985 C   0  0  0  0  0  0  0  0  0  0  0  0
   -0.3260   -0.0465    1.0378 C   0  0  0  0  0  0  0  0  0  0  0  0
   -1.2579   -1.0163    1.3182 O   0  0  0  0  0  0  0  0  0  0  0  0
   -1.3882   -1.2493   -0.0617 C   0  0  0  0  0  0  0  0  0  0  0  0
    0.1316    2.5698   -0.6501 H   0  0  0  0  0  0  0  0  0  0  0  0
   -1.8602    1.5001    0.5796 H   0  0  0  0  0  0  0  0  0  0  0  0
    0.6688   -0.8726   -1.9330 H   0  0  0  0  0  0  0  0  0  0  0  0
    0.8599    0.9105   -1.5974 H   0  0  0  0  0  0  0  0  0  0  0  0
    2.7493   -0.5504   -0.2909 H   0  0  0  0  0  0  0  0  0  0  0  0
    1.6837   -0.5013    2.0182 H   0  0  0  0  0  0  0  0  0  0  0  0
   -0.9041   -2.2134   -0.3022 H   0  0  0  0  0  0  0  0  0  0  0  0
   -2.4789   -1.2302   -0.3057 H   0  0  0  0  0  0  0  0  0  0  0  0
  1  2  1  0
  2  3  1  0
  3  4  1  0
  4  5  1  0
  5  6  2  0
  6  7  1  0
  7  8  1  0
  8  9  1  0
  7  2  1  0
  7  3  1  0
  9  3  1  0
  1 10  1  0
  2 11  1  0
  4 12  1  0
  4 13  1  0
  5 14  1  0
  6 15  1  0
  9 16  1  0
  9 17  1  0
M  END
