
     RDKit          3D

 16 18  0  0  0  0  0  0  0  0999 V2000
    1.9193   -0.5717   -1.0920 O   0  0  0  0  0  0  0  0  0  0  0  0
    1.1452   -0.2113   -0.0216 C   0  0  0  0  0  0  0  0  0  0  0  0
    0.6253    1.2029   -0.0884 C   0  0  0  0  0  0  0  0  0  0  0  0
   -0.8898    1.1019    0.0775 C   0  0  0  0  0  0  0  0  0  0  0  0
   -1.4337    0.5339   -1.0809 O   0  0  0  0  0  0  0  0  0  0  0  0
   -1.3051   -0.7410   -0.5694 C   0  0  0  0  0  0  0  0  0  0  0  0
   -0.0788   -1.0980    0.1588 C   0  0  0  0  0  0  0  0  0  0  0  0
   -1.0570   -0.1913    0.7657 C   0  0  0  0  0  0  0  0  0  0  0  0
    2.5391   -1.2963   -0.7817 H   0  0  0  0  0  0  0  0  0  0  0  0
    1.7375   -0.3359    0.9259 H   0  0  0  0  0  0  0  0  0  0  0  0
    1.0058    1.8320    0.7570 H   0  0  0  0  0  0  0  0  0  0  0  0
    0.8943    1.7256   -1.0195 H   0  0  0  0  0  0  0  0  0  0  0  0
   -1.3876    1.9867    0.4506 H   0  0  0  0  0  0  0  0  0  0  0  0
   -2.1037   -1.4748   -0.7308 H   0  0  0  0  0  0  0  0  0  0  0  0
    0.0315   -2.0908    0.6057 H   0  0  0  0  0  0  0  0  0  0  0  0
   -1.6423   -0.3720    1.6433 H   0  0  0  0  0  0  0  0  0  0  0  0
  1  2  1  0
  2  3  1  0
  3  4  1  0
  4  5  1  0
  5  6  1  0
  6  7  1  0
  7  8  1  0
  7  2  1  0
  8  4  1  0
  8  6  1  0
  1  9  1  0
  2 10  1  0
  3 11  1  0
  3 12  1  0
  4 13  1  0
  6 14  1  0
  7 15  1  0
  8 16  1  0
M  END
