
     RDKit          3D

 19 21  0  0  0  0  0  0  0  0999 V2000
    1.7729    0.5701    1.7459 O   0  0  0  0  0  0  0  0  0  0  0  0
    0.8643    0.6524    0.6836 C   0  0  0  0  0  0  0  0  0  0  0  0
   -0.3473   -0.1582    1.0865 C   0  0  0  0  0  0  0  0  0  0  0  0
   -1.6376    0.5879    1.1384 C   0  0  0  0  0  0  0  0  0  0  0  0
   -1.3520   -0.3180    0.0160 C   0  0  0  0  0  0  0  0  0  0  0  0
   -0.8503    0.1815   -1.3024 C   0  0  0  0  0  0  0  0  0  0  0  0
    0.5788   -0.2570   -1.5547 C   0  0  0  0  0  0  0  0  0  0  0  0
    1.4550    0.7937   -1.7481 O   0  0  0  0  0  0  0  0  0  0  0  0
    1.5413    0.1203   -0.5462 C   0  0  0  0  0  0  0  0  0  0  0  0
    2.6774    0.3337    1.4524 H   0  0  0  0  0  0  0  0  0  0  0  0
    0.5936    1.7317    0.5854 H   0  0  0  0  0  0  0  0  0  0  0  0
   -0.1680   -1.0416    1.7337 H   0  0  0  0  0  0  0  0  0  0  0  0
   -2.3622    0.3049    1.9148 H   0  0  0  0  0  0  0  0  0  0  0  0
   -1.6246    1.6716    0.9242 H   0  0  0  0  0  0  0  0  0  0  0  0
   -1.8933   -1.3016   -0.0444 H   0  0  0  0  0  0  0  0  0  0  0  0
   -0.9779    1.2833   -1.4124 H   0  0  0  0  0  0  0  0  0  0  0  0
   -1.4539   -0.2754   -2.1396 H   0  0  0  0  0  0  0  0  0  0  0  0
    0.7221   -1.2198   -2.0800 H   0  0  0  0  0  0  0  0  0  0  0  0
    2.4619   -0.4985   -0.4531 H   0  0  0  0  0  0  0  0  0  0  0  0
  1  2  1  0
  2  3  1  0
  3  4  1  0
  4  5  1  0
  5  6  1  0
  6  7  1  0
  7  8  1  0
  8  9  1  0
  9  2  1  0
  5  3  1  0
  9  7  1  0
  1 10  1  0
  2 11  1  0
  3 12  1  0
  4 13  1  0
  4 14  1  0
  5 15  1  0
  6 16  1  0
  6 17  1  0
  7 18  1  0
  9 19  1  0
M  END
