
     RDKit          3D

 17 19  0  0  0  0  0  0  0  0999 V2000
    2.1151    0.6747    0.5060 O   0  0  0  0  0  0  0  0  0  0  0  0
    1.3550   -0.1761   -0.3307 C   0  0  0  0  0  0  0  0  0  0  0  0
    0.7745   -1.2333    0.5511 C   0  0  0  0  0  0  0  0  0  0  0  0
   -0.6748   -0.7820    0.7493 C   0  0  0  0  0  0  0  0  0  0  0  0
   -0.8927    0.6652    0.7794 C   0  0  0  0  0  0  0  0  0  0  0  0
   -0.2027    1.5739    0.0300 O   0  0  0  0  0  0  0  0  0  0  0  0
    0.1980    0.6118   -0.9118 C   0  0  0  0  0  0  0  0  0  0  0  0
   -1.0059   -0.1725   -0.5223 C   0  0  0  0  0  0  0  0  0  0  0  0
   -2.2073   -0.0709   -1.1205 O   0  0  0  0  0  0  0  0  0  0  0  0
    1.6875    1.5657    0.5325 H   0  0  0  0  0  0  0  0  0  0  0  0
    2.0456   -0.5507   -1.0921 H   0  0  0  0  0  0  0  0  0  0  0  0
    1.2394   -1.2990    1.5467 H   0  0  0  0  0  0  0  0  0  0  0  0
    0.8083   -2.2485    0.1139 H   0  0  0  0  0  0  0  0  0  0  0  0
   -1.3705   -1.4172    1.2852 H   0  0  0  0  0  0  0  0  0  0  0  0
   -1.8218    1.0270    1.2308 H   0  0  0  0  0  0  0  0  0  0  0  0
    0.2986    0.9509   -1.9358 H   0  0  0  0  0  0  0  0  0  0  0  0
   -2.3464    0.8809   -1.4118 H   0  0  0  0  0  0  0  0  0  0  0  0
  1  2  1  0
  2  3  1  0
  3  4  1  0
  4  5  1  0
  5  6  1  0
  6  7  1  0
  7  8  1  0
  8  9  1  0
  7  2  1  0
  8  4  1  0
  8  5  1  0
  1 10  1  0
  2 11  1  0
  3 12  1  0
  3 13  1  0
  4 14  1  0
  5 15  1  0
  7 16  1  0
  9 17  1  0
M  END
