
     RDKit          3D

 21 23  0  0  0  0  0  0  0  0999 V2000
    2.2991   -0.1274   -1.0868 O   0  0  0  0  0  0  0  0  0  0  0  0
    1.9467   -0.6798    0.1313 C   0  0  0  0  0  0  0  0  0  0  0  0
    1.0439    0.2498    0.9774 C   0  0  0  0  0  0  0  0  0  0  0  0
    0.4958    1.4734    0.3185 C   0  0  0  0  0  0  0  0  0  0  0  0
   -1.0099    1.4062    0.1238 C   0  0  0  0  0  0  0  0  0  0  0  0
   -1.3864    0.1914   -0.6397 C   0  0  0  0  0  0  0  0  0  0  0  0
   -1.9548   -1.0209    0.0191 C   0  0  0  0  0  0  0  0  0  0  0  0
   -0.5279   -0.9621   -0.5633 C   0  0  0  0  0  0  0  0  0  0  0  0
    0.5349   -1.0144    0.4574 C   0  0  0  0  0  0  0  0  0  0  0  0
    2.0376   -0.6611   -1.8672 H   0  0  0  0  0  0  0  0  0  0  0  0
    2.7603   -1.2065    0.6508 H   0  0  0  0  0  0  0  0  0  0  0  0
    1.3739    0.3177    2.0509 H   0  0  0  0  0  0  0  0  0  0  0  0
    0.8090    2.3944    0.8188 H   0  0  0  0  0  0  0  0  0  0  0  0
    0.9280    1.5190   -0.7185 H   0  0  0  0  0  0  0  0  0  0  0  0
   -1.2776    2.3595   -0.4173 H   0  0  0  0  0  0  0  0  0  0  0  0
   -1.5491    1.4896    1.1025 H   0  0  0  0  0  0  0  0  0  0  0  0
   -1.8572    0.4125   -1.6405 H   0  0  0  0  0  0  0  0  0  0  0  0
   -2.0752   -1.0126    1.1038 H   0  0  0  0  0  0  0  0  0  0  0  0
   -2.6771   -1.6678   -0.5285 H   0  0  0  0  0  0  0  0  0  0  0  0
   -0.3389   -1.5849   -1.4739 H   0  0  0  0  0  0  0  0  0  0  0  0
    0.4246   -1.8760    1.1816 H   0  0  0  0  0  0  0  0  0  0  0  0
  1  2  1  0
  2  3  1  0
  3  4  1  0
  4  5  1  0
  5  6  1  0
  6  7  1  0
  7  8  1  0
  8  9  1  0
  9  2  1  0
  9  3  1  0
  8  6  1  0
  1 10  1  0
  2 11  1  0
  3 12  1  0
  4 13  1  0
  4 14  1  0
  5 15  1  0
  5 16  1  0
  6 17  1  0
  7 18  1  0
  7 19  1  0
  8 20  1  0
  9 21  1  0
M  END
