
     RDKit          3D

 19 21  0  0  0  0  0  0  0  0999 V2000
   -1.1985   -2.0938   -0.3507 O   0  0  0  0  0  0  0  0  0  0  0  0
   -0.5311   -1.1043    0.3292 C   0  0  0  0  0  0  0  0  0  0  0  0
    0.7891   -0.8494   -0.3619 C   0  0  0  0  0  0  0  0  0  0  0  0
    1.6367   -0.0951    0.6382 C   0  0  0  0  0  0  0  0  0  0  0  0
    0.9887    0.9411    1.2033 C   0  0  0  0  0  0  0  0  0  0  0  0
   -0.3153    1.3523    0.6648 C   0  0  0  0  0  0  0  0  0  0  0  0
   -0.5677    1.0262   -0.7433 C   0  0  0  0  0  0  0  0  0  0  0  0
    0.4404    0.1687   -1.4223 C   0  0  0  0  0  0  0  0  0  0  0  0
   -1.2147    0.2190    0.3315 C   0  0  0  0  0  0  0  0  0  0  0  0
   -2.1029   -2.2078    0.0671 H   0  0  0  0  0  0  0  0  0  0  0  0
   -0.3177   -1.4368    1.3869 H   0  0  0  0  0  0  0  0  0  0  0  0
    1.2800   -1.7408   -0.7366 H   0  0  0  0  0  0  0  0  0  0  0  0
    2.6433   -0.3637    0.8661 H   0  0  0  0  0  0  0  0  0  0  0  0
    1.4054    1.4797    2.0461 H   0  0  0  0  0  0  0  0  0  0  0  0
   -0.7420    2.2996    1.0335 H   0  0  0  0  0  0  0  0  0  0  0  0
   -1.2338    1.6982   -1.3311 H   0  0  0  0  0  0  0  0  0  0  0  0
    1.3436    0.7284   -1.7245 H   0  0  0  0  0  0  0  0  0  0  0  0
    0.0073   -0.3165   -2.3170 H   0  0  0  0  0  0  0  0  0  0  0  0
   -2.3107    0.2948    0.4206 H   0  0  0  0  0  0  0  0  0  0  0  0
  1  2  1  0
  2  3  1  0
  3  4  1  0
  4  5  2  0
  5  6  1  0
  6  7  1  0
  7  8  1  0
  7  9  1  0
  9  2  1  0
  8  3  1  0
  9  6  1  0
  1 10  1  0
  2 11  1  0
  3 12  1  0
  4 13  1  0
  5 14  1  0
  6 15  1  0
  7 16  1  0
  8 17  1  0
  8 18  1  0
  9 19  1  0
M  END
