
     RDKit          3D

 18 18  0  0  0  0  0  0  0  0999 V2000
    1.8994    0.0834    1.2788 O   0  0  0  0  0  0  0  0  0  0  0  0
    1.5191    0.2183   -0.0654 C   0  0  0  0  0  0  0  0  0  0  0  0
    0.5737    1.3139   -0.2754 C   0  0  0  0  0  0  0  0  0  0  0  0
   -0.7266    1.3131   -0.1148 C   0  0  0  0  0  0  0  0  0  0  0  0
   -1.7175    0.3059    0.3076 C   0  0  0  0  0  0  0  0  0  0  0  0
   -1.3034   -1.1081    0.0790 C   0  0  0  0  0  0  0  0  0  0  0  0
   -0.0466   -1.3987    0.5531 O   0  0  0  0  0  0  0  0  0  0  0  0
    0.8795   -1.0912   -0.4684 C   0  0  0  0  0  0  0  0  0  0  0  0
    2.6802    0.6396    1.5066 H   0  0  0  0  0  0  0  0  0  0  0  0
    2.4498    0.3189   -0.6858 H   0  0  0  0  0  0  0  0  0  0  0  0
    1.0055    2.2477   -0.6071 H   0  0  0  0  0  0  0  0  0  0  0  0
   -1.1850    2.2742   -0.3444 H   0  0  0  0  0  0  0  0  0  0  0  0
   -1.9591    0.4341    1.3904 H   0  0  0  0  0  0  0  0  0  0  0  0
   -2.6583    0.4782   -0.2550 H   0  0  0  0  0  0  0  0  0  0  0  0
   -1.3422   -1.4152   -0.9864 H   0  0  0  0  0  0  0  0  0  0  0  0
   -2.0224   -1.7561    0.6522 H   0  0  0  0  0  0  0  0  0  0  0  0
    1.6025   -1.9226   -0.5298 H   0  0  0  0  0  0  0  0  0  0  0  0
    0.3513   -0.9355   -1.4353 H   0  0  0  0  0  0  0  0  0  0  0  0
  1  2  1  0
  2  3  1  0
  3  4  2  0
  4  5  1  0
  5  6  1  0
  6  7  1  0
  7  8  1  0
  8  2  1  0
  1  9  1  0
  2 10  1  0
  3 11  1  0
  4 12  1  0
  5 13  1  0
  5 14  1  0
  6 15  1  0
  6 16  1  0
  8 17  1  0
  8 18  1  0
M  END
