
     RDKit          3D

 19 20  0  0  0  0  0  0  0  0999 V2000
   -0.9319   -1.8598   -1.0452 O   0  0  0  0  0  0  0  0  0  0  0  0
   -0.9130   -0.9991    0.0466 C   0  0  0  0  0  0  0  0  0  0  0  0
   -1.5823    0.2847   -0.3817 C   0  0  0  0  0  0  0  0  0  0  0  0
   -0.8012    1.3849    0.3023 C   0  0  0  0  0  0  0  0  0  0  0  0
    0.5729    0.8504    0.5186 C   0  0  0  0  0  0  0  0  0  0  0  0
    1.4371    1.1185   -0.5635 O   0  0  0  0  0  0  0  0  0  0  0  0
    2.3267    0.0314   -0.4136 C   0  0  0  0  0  0  0  0  0  0  0  0
    1.4247   -1.0384   -0.5243 O   0  0  0  0  0  0  0  0  0  0  0  0
    0.4821   -0.6650    0.4609 C   0  0  0  0  0  0  0  0  0  0  0  0
   -1.8091   -2.3272   -1.0444 H   0  0  0  0  0  0  0  0  0  0  0  0
   -1.4290   -1.4901    0.8815 H   0  0  0  0  0  0  0  0  0  0  0  0
   -2.6183    0.2521   -0.0122 H   0  0  0  0  0  0  0  0  0  0  0  0
   -1.6199    0.4210   -1.4705 H   0  0  0  0  0  0  0  0  0  0  0  0
   -1.2715    1.5067    1.3195 H   0  0  0  0  0  0  0  0  0  0  0  0
   -0.8442    2.3229   -0.2753 H   0  0  0  0  0  0  0  0  0  0  0  0
    1.0091    1.2215    1.4504 H   0  0  0  0  0  0  0  0  0  0  0  0
    3.1130    0.0191   -1.1578 H   0  0  0  0  0  0  0  0  0  0  0  0
    2.6634    0.0691    0.6362 H   0  0  0  0  0  0  0  0  0  0  0  0
    0.7914   -1.1027    1.4257 H   0  0  0  0  0  0  0  0  0  0  0  0
  1  2  1  0
  2  3  1  0
  3  4  1  0
  4  5  1  0
  5  6  1  0
  6  7  1  0
  7  8  1  0
  8  9  1  0
  9  2  1  0
  9  5  1  0
  1 10  1  0
  2 11  1  0
  3 12  1  0
  3 13  1  0
  4 14  1  0
  4 15  1  0
  5 16  1  0
  7 17  1  0
  7 18  1  0
  9 19  1  0
M  END
