
     RDKit          3D

 18 19  0  0  0  0  0  0  0  0999 V2000
    2.5480   -0.5186   -1.3424 O   0  0  0  0  0  0  0  0  0  0  0  0
    1.6626    0.1141   -0.4655 C   0  0  0  0  0  0  0  0  0  0  0  0
    1.7723   -0.3116    0.9476 C   0  0  0  0  0  0  0  0  0  0  0  0
    0.5093   -0.6172    0.1135 C   0  0  0  0  0  0  0  0  0  0  0  0
   -0.7335    0.1621    0.4158 C   0  0  0  0  0  0  0  0  0  0  0  0
   -1.3948    0.8502   -0.7334 C   0  0  0  0  0  0  0  0  0  0  0  0
   -2.5276   -0.0918   -0.3889 C   0  0  0  0  0  0  0  0  0  0  0  0
   -1.8564   -0.5558    0.7536 O   0  0  0  0  0  0  0  0  0  0  0  0
    3.3852   -0.6944   -0.8276 H   0  0  0  0  0  0  0  0  0  0  0  0
    1.4780    1.1780   -0.7278 H   0  0  0  0  0  0  0  0  0  0  0  0
    2.3758   -1.2026    1.1914 H   0  0  0  0  0  0  0  0  0  0  0  0
    1.6046    0.3590    1.7928 H   0  0  0  0  0  0  0  0  0  0  0  0
    0.3883   -1.6640   -0.2326 H   0  0  0  0  0  0  0  0  0  0  0  0
   -0.5187    0.9170    1.2245 H   0  0  0  0  0  0  0  0  0  0  0  0
   -1.6200    1.9111   -0.6241 H   0  0  0  0  0  0  0  0  0  0  0  0
   -1.0014    0.6406   -1.7393 H   0  0  0  0  0  0  0  0  0  0  0  0
   -2.6379   -0.9139   -1.1011 H   0  0  0  0  0  0  0  0  0  0  0  0
   -3.4337    0.4378   -0.0897 H   0  0  0  0  0  0  0  0  0  0  0  0
  1  2  1  0
  2  3  1  0
  3  4  1  0
  4  5  1  0
  5  6  1  0
  6  7  1  0
  7  8  1  0
  4  2  1  0
  8  5  1  0
  1  9  1  0
  2 10  1  0
  3 11  1  0
  3 12  1  0
  4 13  1  0
  5 14  1  0
  6 15  1  0
  6 16  1  0
  7 17  1  0
  7 18  1  0
M  END
