
     RDKit          3D

 21 22  0  0  0  0  0  0  0  0999 V2000
    2.1452    1.0743    0.6649 O   0  0  0  0  0  0  0  0  0  0  0  0
    1.3540    0.2503   -0.1264 C   0  0  0  0  0  0  0  0  0  0  0  0
    0.7084   -0.8213    0.7474 C   0  0  0  0  0  0  0  0  0  0  0  0
   -0.7106   -1.0433    0.2069 C   0  0  0  0  0  0  0  0  0  0  0  0
   -1.5215    0.1377    0.6826 C   0  0  0  0  0  0  0  0  0  0  0  0
   -0.7734    1.3910    0.2438 C   0  0  0  0  0  0  0  0  0  0  0  0
    0.2438    1.0047   -0.7953 C   0  0  0  0  0  0  0  0  0  0  0  0
   -0.3036    0.1868   -1.7904 O   0  0  0  0  0  0  0  0  0  0  0  0
   -0.5758   -1.0751   -1.2965 C   0  0  0  0  0  0  0  0  0  0  0  0
    2.9523    0.5507    0.9063 H   0  0  0  0  0  0  0  0  0  0  0  0
    1.9863   -0.1874   -0.9205 H   0  0  0  0  0  0  0  0  0  0  0  0
    0.6792   -0.4857    1.7928 H   0  0  0  0  0  0  0  0  0  0  0  0
    1.2359   -1.7770    0.5881 H   0  0  0  0  0  0  0  0  0  0  0  0
   -1.0956   -1.9830    0.6073 H   0  0  0  0  0  0  0  0  0  0  0  0
   -1.5289    0.0834    1.7981 H   0  0  0  0  0  0  0  0  0  0  0  0
   -2.5419    0.1345    0.2792 H   0  0  0  0  0  0  0  0  0  0  0  0
   -0.2316    1.7940    1.1087 H   0  0  0  0  0  0  0  0  0  0  0  0
   -1.4880    2.1535   -0.1275 H   0  0  0  0  0  0  0  0  0  0  0  0
    0.6011    1.9360   -1.2699 H   0  0  0  0  0  0  0  0  0  0  0  0
   -1.4363   -1.5667   -1.7946 H   0  0  0  0  0  0  0  0  0  0  0  0
    0.3012   -1.7573   -1.5050 H   0  0  0  0  0  0  0  0  0  0  0  0
  1  2  1  0
  2  3  1  0
  3  4  1  0
  4  5  1  0
  5  6  1  0
  6  7  1  0
  7  8  1  0
  8  9  1  0
  7  2  1  0
  9  4  1  0
  1 10  1  0
  2 11  1  0
  3 12  1  0
  3 13  1  0
  4 14  1  0
  5 15  1  0
  5 16  1  0
  6 17  1  0
  6 18  1  0
  7 19  1  0
  9 20  1  0
  9 21  1  0
M  END
