
     RDKit          3D

 21 23  0  0  0  0  0  0  0  0999 V2000
    1.9873    1.4319   -0.0875 O   0  0  0  0  0  0  0  0  0  0  0  0
    2.0259    0.1618    0.4409 C   0  0  0  0  0  0  0  0  0  0  0  0
    2.2243   -0.9771   -0.5038 C   0  0  0  0  0  0  0  0  0  0  0  0
    0.9008   -0.7728    0.1355 C   0  0  0  0  0  0  0  0  0  0  0  0
   -0.2549   -0.1982   -0.5883 C   0  0  0  0  0  0  0  0  0  0  0  0
   -0.9446    0.9298    0.1143 C   0  0  0  0  0  0  0  0  0  0  0  0
   -1.5020   -0.1043    1.0484 C   0  0  0  0  0  0  0  0  0  0  0  0
   -1.6225   -0.7481   -0.2909 C   0  0  0  0  0  0  0  0  0  0  0  0
   -2.1258    0.5987   -0.7664 C   0  0  0  0  0  0  0  0  0  0  0  0
    2.0864    2.1438    0.5953 H   0  0  0  0  0  0  0  0  0  0  0  0
    2.4326    0.0793    1.4911 H   0  0  0  0  0  0  0  0  0  0  0  0
    2.8753   -1.8038   -0.1548 H   0  0  0  0  0  0  0  0  0  0  0  0
    2.3921   -0.7290   -1.5737 H   0  0  0  0  0  0  0  0  0  0  0  0
    0.6268   -1.5883    0.8658 H   0  0  0  0  0  0  0  0  0  0  0  0
   -0.1059    0.0283   -1.6714 H   0  0  0  0  0  0  0  0  0  0  0  0
   -0.5934    1.8356    0.3341 H   0  0  0  0  0  0  0  0  0  0  0  0
   -0.8384   -0.5319    1.7945 H   0  0  0  0  0  0  0  0  0  0  0  0
   -2.5177    0.1369    1.4666 H   0  0  0  0  0  0  0  0  0  0  0  0
   -1.9908   -1.6413   -0.5348 H   0  0  0  0  0  0  0  0  0  0  0  0
   -3.0552    0.9548   -0.2846 H   0  0  0  0  0  0  0  0  0  0  0  0
   -2.0003    0.7940   -1.8305 H   0  0  0  0  0  0  0  0  0  0  0  0
  1  2  1  0
  2  3  1  0
  3  4  1  0
  4  5  1  0
  5  6  1  0
  6  7  1  0
  7  8  1  0
  8  9  1  0
  4  2  1  0
  8  5  1  0
  9  6  1  0
  1 10  1  0
  2 11  1  0
  3 12  1  0
  3 13  1  0
  4 14  1  0
  5 15  1  0
  6 16  1  0
  7 17  1  0
  7 18  1  0
  8 19  1  0
  9 20  1  0
  9 21  1  0
M  END
