
     RDKit          3D

 21 23  0  0  0  0  0  0  0  0999 V2000
    3.1093   -0.6147    0.0640 O   0  0  0  0  0  0  0  0  0  0  0  0
    1.8999    0.0918    0.2661 C   0  0  0  0  0  0  0  0  0  0  0  0
    0.9382    0.0022   -0.8107 C   0  0  0  0  0  0  0  0  0  0  0  0
   -0.3368    0.7527   -0.9164 C   0  0  0  0  0  0  0  0  0  0  0  0
   -1.4513   -0.2775   -0.9628 C   0  0  0  0  0  0  0  0  0  0  0  0
   -1.6852   -0.7354    0.4634 C   0  0  0  0  0  0  0  0  0  0  0  0
   -0.4685   -0.1244    1.1643 C   0  0  0  0  0  0  0  0  0  0  0  0
   -0.5203    1.2665    0.5191 C   0  0  0  0  0  0  0  0  0  0  0  0
    0.7346   -0.7413    0.5382 C   0  0  0  0  0  0  0  0  0  0  0  0
    3.7199   -0.0408   -0.4611 H   0  0  0  0  0  0  0  0  0  0  0  0
    2.0613    0.9695    0.9162 H   0  0  0  0  0  0  0  0  0  0  0  0
    1.1715   -0.6289   -1.6971 H   0  0  0  0  0  0  0  0  0  0  0  0
   -0.4022    1.5251   -1.6614 H   0  0  0  0  0  0  0  0  0  0  0  0
   -1.0544   -1.1756   -1.5176 H   0  0  0  0  0  0  0  0  0  0  0  0
   -2.3518    0.0778   -1.4518 H   0  0  0  0  0  0  0  0  0  0  0  0
   -1.7153   -1.8180    0.5771 H   0  0  0  0  0  0  0  0  0  0  0  0
   -2.6226   -0.2304    0.8245 H   0  0  0  0  0  0  0  0  0  0  0  0
   -0.5272   -0.1172    2.2279 H   0  0  0  0  0  0  0  0  0  0  0  0
    0.2673    1.9267    0.8443 H   0  0  0  0  0  0  0  0  0  0  0  0
   -1.5000    1.7397    0.6520 H   0  0  0  0  0  0  0  0  0  0  0  0
    0.7336   -1.8475    0.4217 H   0  0  0  0  0  0  0  0  0  0  0  0
  1  2  1  0
  2  3  1  0
  3  4  1  0
  4  5  1  0
  5  6  1  0
  6  7  1  0
  7  8  1  0
  7  9  1  0
  9  2  1  0
  9  3  1  0
  8  4  1  0
  1 10  1  0
  2 11  1  0
  3 12  1  0
  4 13  1  0
  5 14  1  0
  5 15  1  0
  6 16  1  0
  6 17  1  0
  7 18  1  0
  8 19  1  0
  8 20  1  0
  9 21  1  0
M  END
