
     RDKit          3D

 23 24  0  0  0  0  0  0  0  0999 V2000
   -0.3903    2.3076   -0.4412 O   0  0  0  0  0  0  0  0  0  0  0  0
    0.1402    1.0277   -0.5482 C   0  0  0  0  0  0  0  0  0  0  0  0
    1.3923    0.9568    0.3195 C   0  0  0  0  0  0  0  0  0  0  0  0
    2.0792   -0.3591   -0.0641 C   0  0  0  0  0  0  0  0  0  0  0  0
    1.1699   -1.4580    0.4977 C   0  0  0  0  0  0  0  0  0  0  0  0
   -0.1711   -1.3698   -0.1490 C   0  0  0  0  0  0  0  0  0  0  0  0
   -0.8066   -0.0259   -0.0720 C   0  0  0  0  0  0  0  0  0  0  0  0
   -1.9548    0.3100    0.7600 C   0  0  0  0  0  0  0  0  0  0  0  0
   -2.1940    0.0292   -0.7049 C   0  0  0  0  0  0  0  0  0  0  0  0
   -0.2373    2.6070    0.4788 H   0  0  0  0  0  0  0  0  0  0  0  0
    0.3884    0.7849   -1.6174 H   0  0  0  0  0  0  0  0  0  0  0  0
    1.0438    0.8847    1.3815 H   0  0  0  0  0  0  0  0  0  0  0  0
    2.0189    1.8210    0.1163 H   0  0  0  0  0  0  0  0  0  0  0  0
    3.0972   -0.4257    0.3329 H   0  0  0  0  0  0  0  0  0  0  0  0
    2.0824   -0.4341   -1.1763 H   0  0  0  0  0  0  0  0  0  0  0  0
    1.6399   -2.4145    0.1718 H   0  0  0  0  0  0  0  0  0  0  0  0
    1.1603   -1.4103    1.5869 H   0  0  0  0  0  0  0  0  0  0  0  0
   -0.0211   -1.5985   -1.2447 H   0  0  0  0  0  0  0  0  0  0  0  0
   -0.8046   -2.1857    0.2322 H   0  0  0  0  0  0  0  0  0  0  0  0
   -2.0792    1.4030    1.0035 H   0  0  0  0  0  0  0  0  0  0  0  0
   -2.4368   -0.3565    1.4745 H   0  0  0  0  0  0  0  0  0  0  0  0
   -2.4088    0.8318   -1.4061 H   0  0  0  0  0  0  0  0  0  0  0  0
   -2.7077   -0.9255   -0.9318 H   0  0  0  0  0  0  0  0  0  0  0  0
  1  2  1  0
  2  3  1  0
  3  4  1  0
  4  5  1  0
  5  6  1  0
  6  7  1  0
  7  8  1  0
  8  9  1  0
  7  2  1  0
  9  7  1  0
  1 10  1  0
  2 11  1  0
  3 12  1  0
  3 13  1  0
  4 14  1  0
  4 15  1  0
  5 16  1  0
  5 17  1  0
  6 18  1  0
  6 19  1  0
  8 20  1  0
  8 21  1  0
  9 22  1  0
  9 23  1  0
M  END
