
     RDKit          3D

 17 19  0  0  0  0  0  0  0  0999 V2000
    2.0688   -0.9327   -0.7228 O   0  0  0  0  0  0  0  0  0  0  0  0
    1.0758   -0.3432    0.0042 C   0  0  0  0  0  0  0  0  0  0  0  0
   -0.2636   -1.0791   -0.1105 C   0  0  0  0  0  0  0  0  0  0  0  0
   -1.0520   -0.6379    1.1183 C   0  0  0  0  0  0  0  0  0  0  0  0
   -0.8631    0.7005    1.2961 O   0  0  0  0  0  0  0  0  0  0  0  0
   -0.5721    1.4335    0.1967 C   0  0  0  0  0  0  0  0  0  0  0  0
   -0.6935    0.8413   -1.1147 C   0  0  0  0  0  0  0  0  0  0  0  0
   -0.8890   -0.5045   -1.2076 O   0  0  0  0  0  0  0  0  0  0  0  0
    0.6654    1.0219   -0.5101 C   0  0  0  0  0  0  0  0  0  0  0  0
    2.4968   -1.6389   -0.2063 H   0  0  0  0  0  0  0  0  0  0  0  0
    1.3395   -0.1885    1.0899 H   0  0  0  0  0  0  0  0  0  0  0  0
   -0.1524   -2.1520   -0.1919 H   0  0  0  0  0  0  0  0  0  0  0  0
   -0.6518   -1.2706    1.9598 H   0  0  0  0  0  0  0  0  0  0  0  0
   -2.1178   -0.9398    1.0187 H   0  0  0  0  0  0  0  0  0  0  0  0
   -0.8056    2.5272    0.2855 H   0  0  0  0  0  0  0  0  0  0  0  0
   -0.9775    1.4494   -1.9879 H   0  0  0  0  0  0  0  0  0  0  0  0
    1.3921    1.7133   -0.9172 H   0  0  0  0  0  0  0  0  0  0  0  0
  1  2  1  0
  2  3  1  0
  3  4  1  0
  4  5  1  0
  5  6  1  0
  6  7  1  0
  7  8  1  0
  7  9  1  0
  9  2  1  0
  8  3  1  0
  9  6  1  0
  1 10  1  0
  2 11  1  0
  3 12  1  0
  4 13  1  0
  4 14  1  0
  6 15  1  0
  7 16  1  0
  9 17  1  0
M  END
