
     RDKit          3D

 16 17  0  0  0  0  0  0  0  0999 V2000
   -0.1068    2.0401    0.4670 O   0  0  0  0  0  0  0  0  0  0  0  0
   -0.3835    0.7263    0.6752 C   0  0  0  0  0  0  0  0  0  0  0  0
   -0.8802    0.0128   -0.5938 C   0  0  0  0  0  0  0  0  0  0  0  0
   -0.7689   -1.4035   -0.0530 C   0  0  0  0  0  0  0  0  0  0  0  0
    0.3259   -1.4005    0.8077 O   0  0  0  0  0  0  0  0  0  0  0  0
    0.8955   -0.1341    0.7263 C   0  0  0  0  0  0  0  0  0  0  0  0
    1.3417    0.0632   -0.6954 C   0  0  0  0  0  0  0  0  0  0  0  0
    0.1842    0.2736   -1.4503 O   0  0  0  0  0  0  0  0  0  0  0  0
   -0.8922    2.5120    0.1388 H   0  0  0  0  0  0  0  0  0  0  0  0
   -0.9740    0.4757    1.5501 H   0  0  0  0  0  0  0  0  0  0  0  0
   -1.8418    0.3164   -0.9219 H   0  0  0  0  0  0  0  0  0  0  0  0
   -0.6786   -2.1568   -0.8561 H   0  0  0  0  0  0  0  0  0  0  0  0
   -1.7224   -1.5655    0.5313 H   0  0  0  0  0  0  0  0  0  0  0  0
    1.5713    0.1355    1.4981 H   0  0  0  0  0  0  0  0  0  0  0  0
    2.0316    0.9348   -0.8064 H   0  0  0  0  0  0  0  0  0  0  0  0
    1.8984   -0.8300   -1.0177 H   0  0  0  0  0  0  0  0  0  0  0  0
  1  2  1  0
  2  3  1  0
  3  4  1  0
  4  5  1  0
  5  6  1  0
  6  7  1  0
  7  8  1  0
  6  2  1  0
  8  3  1  0
  1  9  1  0
  2 10  1  0
  3 11  1  0
  4 12  1  0
  4 13  1  0
  6 14  1  0
  7 15  1  0
  7 16  1  0
M  END
