
     RDKit          3D

 17 18  0  0  0  0  0  0  0  0999 V2000
    1.3987    0.9252    1.4427 O   0  0  0  0  0  0  0  0  0  0  0  0
    1.0812   -0.1784    0.6792 C   0  0  0  0  0  0  0  0  0  0  0  0
    2.0575   -0.3592   -0.4764 C   0  0  0  0  0  0  0  0  0  0  0  0
    1.1189    0.0256   -1.4087 O   0  0  0  0  0  0  0  0  0  0  0  0
    0.1519   -0.0230   -0.4418 C   0  0  0  0  0  0  0  0  0  0  0  0
   -1.0386    0.7971   -0.5057 C   0  0  0  0  0  0  0  0  0  0  0  0
   -1.5865    1.4773    0.5619 O   0  0  0  0  0  0  0  0  0  0  0  0
   -1.1332   -0.6934   -0.5738 C   0  0  0  0  0  0  0  0  0  0  0  0
   -1.7094   -1.3263    0.5404 O   0  0  0  0  0  0  0  0  0  0  0  0
    1.1085    0.8541    2.3914 H   0  0  0  0  0  0  0  0  0  0  0  0
    0.9625   -1.1197    1.2779 H   0  0  0  0  0  0  0  0  0  0  0  0
    2.3075   -1.4359   -0.6194 H   0  0  0  0  0  0  0  0  0  0  0  0
    2.9260    0.3239   -0.4493 H   0  0  0  0  0  0  0  0  0  0  0  0
   -1.2140    1.3266   -1.4890 H   0  0  0  0  0  0  0  0  0  0  0  0
   -2.3566    2.0166    0.2752 H   0  0  0  0  0  0  0  0  0  0  0  0
   -1.3935   -1.2079   -1.5207 H   0  0  0  0  0  0  0  0  0  0  0  0
   -2.6808   -1.4026    0.3161 H   0  0  0  0  0  0  0  0  0  0  0  0
  1  2  1  0
  2  3  1  0
  3  4  1  0
  4  5  1  0
  5  6  1  0
  6  7  1  0
  6  8  1  0
  8  9  1  0
  5  2  1  0
  8  5  1  0
  1 10  1  0
  2 11  1  0
  3 12  1  0
  3 13  1  0
  6 14  1  0
  7 15  1  0
  8 16  1  0
  9 17  1  0
M  END
