
     RDKit          3D

 19 20  0  0  0  0  0  0  0  0999 V2000
    2.3971   -1.2415    0.5971 O   0  0  0  0  0  0  0  0  0  0  0  0
    1.4677   -0.6074   -0.2549 C   0  0  0  0  0  0  0  0  0  0  0  0
    1.5489    0.8576   -0.0677 C   0  0  0  0  0  0  0  0  0  0  0  0
    0.4561    1.5851   -0.0508 C   0  0  0  0  0  0  0  0  0  0  0  0
   -0.9067    1.0817   -0.2046 C   0  0  0  0  0  0  0  0  0  0  0  0
   -1.5414    0.8613    1.0285 O   0  0  0  0  0  0  0  0  0  0  0  0
   -2.1819   -0.2348    0.4031 C   0  0  0  0  0  0  0  0  0  0  0  0
   -1.0049   -0.3592   -0.5484 C   0  0  0  0  0  0  0  0  0  0  0  0
    0.1211   -1.1922   -0.0096 C   0  0  0  0  0  0  0  0  0  0  0  0
    2.8129   -0.5541    1.1838 H   0  0  0  0  0  0  0  0  0  0  0  0
    1.8388   -0.8239   -1.2929 H   0  0  0  0  0  0  0  0  0  0  0  0
    2.5527    1.3119    0.0566 H   0  0  0  0  0  0  0  0  0  0  0  0
    0.5721    2.6773    0.0923 H   0  0  0  0  0  0  0  0  0  0  0  0
   -1.5032    1.7565   -0.8678 H   0  0  0  0  0  0  0  0  0  0  0  0
   -2.2687   -1.0636    1.1331 H   0  0  0  0  0  0  0  0  0  0  0  0
   -3.0942    0.1047   -0.0845 H   0  0  0  0  0  0  0  0  0  0  0  0
   -1.2883   -0.5193   -1.5935 H   0  0  0  0  0  0  0  0  0  0  0  0
   -0.0599   -1.4672    1.0493 H   0  0  0  0  0  0  0  0  0  0  0  0
    0.0817   -2.1729   -0.5693 H   0  0  0  0  0  0  0  0  0  0  0  0
  1  2  1  0
  2  3  1  0
  3  4  2  0
  4  5  1  0
  5  6  1  0
  6  7  1  0
  7  8  1  0
  8  9  1  0
  9  2  1  0
  8  5  1  0
  1 10  1  0
  2 11  1  0
  3 12  1  0
  4 13  1  0
  5 14  1  0
  7 15  1  0
  7 16  1  0
  8 17  1  0
  9 18  1  0
  9 19  1  0
M  END
