
     RDKit          3D

 19 20  0  0  0  0  0  0  0  0999 V2000
    0.2563    1.4828   -1.4923 O   0  0  0  0  0  0  0  0  0  0  0  0
    0.8202    0.9557   -0.3520 C   0  0  0  0  0  0  0  0  0  0  0  0
    0.8192   -0.5820   -0.3797 C   0  0  0  0  0  0  0  0  0  0  0  0
   -0.5610   -1.0857   -0.6807 C   0  0  0  0  0  0  0  0  0  0  0  0
   -1.6665   -0.2566   -0.1850 C   0  0  0  0  0  0  0  0  0  0  0  0
   -1.3874    0.9912    0.2671 O   0  0  0  0  0  0  0  0  0  0  0  0
   -0.1164    1.0932    0.8591 C   0  0  0  0  0  0  0  0  0  0  0  0
    0.1178    0.0209    1.6726 O   0  0  0  0  0  0  0  0  0  0  0  0
    1.0686   -0.8007    1.1008 C   0  0  0  0  0  0  0  0  0  0  0  0
    0.0586    2.4226   -1.3434 H   0  0  0  0  0  0  0  0  0  0  0  0
    1.8198    1.3281   -0.1270 H   0  0  0  0  0  0  0  0  0  0  0  0
    1.5951   -0.9713   -1.0244 H   0  0  0  0  0  0  0  0  0  0  0  0
   -0.6268   -1.2641   -1.7919 H   0  0  0  0  0  0  0  0  0  0  0  0
   -0.6241   -2.1163   -0.2363 H   0  0  0  0  0  0  0  0  0  0  0  0
   -2.4370   -0.1579   -1.0060 H   0  0  0  0  0  0  0  0  0  0  0  0
   -2.2316   -0.7886    0.6370 H   0  0  0  0  0  0  0  0  0  0  0  0
    0.0258    2.0200    1.3947 H   0  0  0  0  0  0  0  0  0  0  0  0
    0.9565   -1.8604    1.3997 H   0  0  0  0  0  0  0  0  0  0  0  0
    2.1129   -0.4309    1.2875 H   0  0  0  0  0  0  0  0  0  0  0  0
  1  2  1  0
  2  3  1  0
  3  4  1  0
  4  5  1  0
  5  6  1  0
  6  7  1  0
  7  8  1  0
  8  9  1  0
  7  2  1  0
  9  3  1  0
  1 10  1  0
  2 11  1  0
  3 12  1  0
  4 13  1  0
  4 14  1  0
  5 15  1  0
  5 16  1  0
  7 17  1  0
  9 18  1  0
  9 19  1  0
M  END
