
     RDKit          3D

 18 19  0  0  0  0  0  0  0  0999 V2000
   -1.0979   -1.3784   -0.8041 O   0  0  0  0  0  0  0  0  0  0  0  0
   -0.9154   -0.8449    0.4549 C   0  0  0  0  0  0  0  0  0  0  0  0
   -1.8182    0.4103    0.5146 C   0  0  0  0  0  0  0  0  0  0  0  0
   -1.0435    1.2840   -0.4293 C   0  0  0  0  0  0  0  0  0  0  0  0
    0.2368    0.9617   -0.3839 C   0  0  0  0  0  0  0  0  0  0  0  0
    1.7238    0.8118   -0.5359 C   0  0  0  0  0  0  0  0  0  0  0  0
    1.6093   -0.6392   -0.0390 C   0  0  0  0  0  0  0  0  0  0  0  0
    0.3893   -0.1511    0.6512 C   0  0  0  0  0  0  0  0  0  0  0  0
   -0.6735   -2.2614   -0.9207 H   0  0  0  0  0  0  0  0  0  0  0  0
   -1.2028   -1.5216    1.2742 H   0  0  0  0  0  0  0  0  0  0  0  0
   -2.8238    0.2015    0.1692 H   0  0  0  0  0  0  0  0  0  0  0  0
   -1.7382    0.8267    1.5194 H   0  0  0  0  0  0  0  0  0  0  0  0
   -1.4373    2.0651   -1.0631 H   0  0  0  0  0  0  0  0  0  0  0  0
    2.3260    1.4360    0.1216 H   0  0  0  0  0  0  0  0  0  0  0  0
    2.0676    0.8334   -1.5706 H   0  0  0  0  0  0  0  0  0  0  0  0
    2.4104   -0.8736    0.6975 H   0  0  0  0  0  0  0  0  0  0  0  0
    1.5002   -1.3889   -0.8171 H   0  0  0  0  0  0  0  0  0  0  0  0
    0.4872    0.2285    1.6687 H   0  0  0  0  0  0  0  0  0  0  0  0
  1  2  1  0
  2  3  1  0
  3  4  1  0
  4  5  2  0
  5  6  1  0
  6  7  1  0
  7  8  1  0
  8  2  1  0
  8  5  1  0
  1  9  1  0
  2 10  1  0
  3 11  1  0
  3 12  1  0
  4 13  1  0
  6 14  1  0
  6 15  1  0
  7 16  1  0
  7 17  1  0
  8 18  1  0
M  END
