
     RDKit          3D

 21 22  0  0  0  0  0  0  0  0999 V2000
    2.2973    0.7726   -1.2331 O   0  0  0  0  0  0  0  0  0  0  0  0
    1.4264    0.5610   -0.2021 C   0  0  0  0  0  0  0  0  0  0  0  0
    1.3870   -0.8375    0.2885 C   0  0  0  0  0  0  0  0  0  0  0  0
    0.4082   -1.1774    1.1168 C   0  0  0  0  0  0  0  0  0  0  0  0
   -0.9282   -0.4950    1.0266 C   0  0  0  0  0  0  0  0  0  0  0  0
   -1.5926   -0.8302   -0.2993 C   0  0  0  0  0  0  0  0  0  0  0  0
   -0.7527   -0.0640   -1.2850 C   0  0  0  0  0  0  0  0  0  0  0  0
    0.0027    0.9842   -0.5248 C   0  0  0  0  0  0  0  0  0  0  0  0
   -0.7172    1.0130    0.8317 C   0  0  0  0  0  0  0  0  0  0  0  0
    3.2261    0.7510   -0.8447 H   0  0  0  0  0  0  0  0  0  0  0  0
    1.7440    1.2336    0.6490 H   0  0  0  0  0  0  0  0  0  0  0  0
    2.1285   -1.5713   -0.0116 H   0  0  0  0  0  0  0  0  0  0  0  0
    0.5777   -1.9641    1.8739 H   0  0  0  0  0  0  0  0  0  0  0  0
   -1.5467   -0.7065    1.8920 H   0  0  0  0  0  0  0  0  0  0  0  0
   -2.6260   -0.3846   -0.2341 H   0  0  0  0  0  0  0  0  0  0  0  0
   -1.6432   -1.9041   -0.4971 H   0  0  0  0  0  0  0  0  0  0  0  0
   -0.1307   -0.7232   -1.8971 H   0  0  0  0  0  0  0  0  0  0  0  0
   -1.4602    0.4677   -1.9659 H   0  0  0  0  0  0  0  0  0  0  0  0
   -0.0346    1.9792   -1.0149 H   0  0  0  0  0  0  0  0  0  0  0  0
   -0.0852    1.4027    1.6281 H   0  0  0  0  0  0  0  0  0  0  0  0
   -1.6804    1.4928    0.7030 H   0  0  0  0  0  0  0  0  0  0  0  0
  1  2  1  0
  2  3  1  0
  3  4  2  0
  4  5  1  0
  5  6  1  0
  6  7  1  0
  7  8  1  0
  8  9  1  0
  8  2  1  0
  9  5  1  0
  1 10  1  0
  2 11  1  0
  3 12  1  0
  4 13  1  0
  5 14  1  0
  6 15  1  0
  6 16  1  0
  7 17  1  0
  7 18  1  0
  8 19  1  0
  9 20  1  0
  9 21  1  0
M  END
