
     RDKit          3D

 23 23  0  0  0  0  0  0  0  0999 V2000
    2.2152    0.7625    1.0062 O   0  0  0  0  0  0  0  0  0  0  0  0
    1.8479    0.3336   -0.2870 C   0  0  0  0  0  0  0  0  0  0  0  0
    0.8668    1.2339   -0.9119 C   0  0  0  0  0  0  0  0  0  0  0  0
   -0.4038    1.5819   -0.7254 C   0  0  0  0  0  0  0  0  0  0  0  0
   -1.4631    1.2291    0.2131 C   0  0  0  0  0  0  0  0  0  0  0  0
   -2.0339   -0.1372    0.0499 C   0  0  0  0  0  0  0  0  0  0  0  0
   -1.0788   -1.2534    0.0341 C   0  0  0  0  0  0  0  0  0  0  0  0
    0.1723   -1.0598    0.8221 C   0  0  0  0  0  0  0  0  0  0  0  0
    1.3379   -1.0859   -0.1688 C   0  0  0  0  0  0  0  0  0  0  0  0
    2.8434    0.0421    1.3296 H   0  0  0  0  0  0  0  0  0  0  0  0
    2.7947    0.2791   -0.8598 H   0  0  0  0  0  0  0  0  0  0  0  0
    1.3401    1.7499   -1.7673 H   0  0  0  0  0  0  0  0  0  0  0  0
   -0.6772    2.3108   -1.4816 H   0  0  0  0  0  0  0  0  0  0  0  0
   -2.3283    1.9376    0.0380 H   0  0  0  0  0  0  0  0  0  0  0  0
   -1.1966    1.3984    1.2896 H   0  0  0  0  0  0  0  0  0  0  0  0
   -2.6594   -0.1710   -0.8897 H   0  0  0  0  0  0  0  0  0  0  0  0
   -2.7731   -0.2917    0.8742 H   0  0  0  0  0  0  0  0  0  0  0  0
   -0.8741   -1.5395   -1.0379 H   0  0  0  0  0  0  0  0  0  0  0  0
   -1.5942   -2.1668    0.4544 H   0  0  0  0  0  0  0  0  0  0  0  0
    0.1662   -0.1148    1.4028 H   0  0  0  0  0  0  0  0  0  0  0  0
    0.3261   -1.8683    1.5971 H   0  0  0  0  0  0  0  0  0  0  0  0
    2.1490   -1.7303    0.1818 H   0  0  0  0  0  0  0  0  0  0  0  0
    1.0229   -1.4404   -1.1634 H   0  0  0  0  0  0  0  0  0  0  0  0
  1  2  1  0
  2  3  1  0
  3  4  2  3
  4  5  1  0
  5  6  1  0
  6  7  1  0
  7  8  1  0
  8  9  1  0
  9  2  1  0
  1 10  1  0
  2 11  1  0
  3 12  1  0
  4 13  1  0
  5 14  1  0
  5 15  1  0
  6 16  1  0
  6 17  1  0
  7 18  1  0
  7 19  1  0
  8 20  1  0
  8 21  1  0
  9 22  1  0
  9 23  1  0
M  END
