
     RDKit          3D

 19 20  0  0  0  0  0  0  0  0999 V2000
    2.5440    0.3914   -0.3694 O   0  0  0  0  0  0  0  0  0  0  0  0
    1.2345   -0.0048   -0.3997 C   0  0  0  0  0  0  0  0  0  0  0  0
    1.0726   -1.3005    0.4062 C   0  0  0  0  0  0  0  0  0  0  0  0
   -0.3527   -1.0642    0.9342 C   0  0  0  0  0  0  0  0  0  0  0  0
   -1.1854   -1.1881   -0.1338 O   0  0  0  0  0  0  0  0  0  0  0  0
   -1.7950   -0.0568   -0.5785 C   0  0  0  0  0  0  0  0  0  0  0  0
   -0.9668    1.1808   -0.5578 C   0  0  0  0  0  0  0  0  0  0  0  0
    0.2795    0.9092    0.2937 C   0  0  0  0  0  0  0  0  0  0  0  0
   -0.2085    0.2260    1.4197 O   0  0  0  0  0  0  0  0  0  0  0  0
    2.6013    1.1860    0.2459 H   0  0  0  0  0  0  0  0  0  0  0  0
    0.9013   -0.2442   -1.4427 H   0  0  0  0  0  0  0  0  0  0  0  0
    1.8037   -1.3543    1.2153 H   0  0  0  0  0  0  0  0  0  0  0  0
    1.0536   -2.1688   -0.2689 H   0  0  0  0  0  0  0  0  0  0  0  0
   -0.5821   -1.7331    1.7787 H   0  0  0  0  0  0  0  0  0  0  0  0
   -2.1176   -0.2480   -1.6452 H   0  0  0  0  0  0  0  0  0  0  0  0
   -2.7729    0.0580   -0.0277 H   0  0  0  0  0  0  0  0  0  0  0  0
   -0.7157    1.5974   -1.5358 H   0  0  0  0  0  0  0  0  0  0  0  0
   -1.5320    1.9668    0.0243 H   0  0  0  0  0  0  0  0  0  0  0  0
    0.7383    1.8472    0.6416 H   0  0  0  0  0  0  0  0  0  0  0  0
  1  2  1  0
  2  3  1  0
  3  4  1  0
  4  5  1  0
  5  6  1  0
  6  7  1  0
  7  8  1  0
  8  9  1  0
  8  2  1  0
  9  4  1  0
  1 10  1  0
  2 11  1  0
  3 12  1  0
  3 13  1  0
  4 14  1  0
  6 15  1  0
  6 16  1  0
  7 17  1  0
  7 18  1  0
  8 19  1  0
M  END
