
     RDKit          3D

 19 19  0  0  0  0  0  0  0  0999 V2000
    1.6108   -0.3708    1.4878 O   0  0  0  0  0  0  0  0  0  0  0  0
    1.6244   -0.3021    0.0749 C   0  0  0  0  0  0  0  0  0  0  0  0
    1.1831    1.0605   -0.2800 C   0  0  0  0  0  0  0  0  0  0  0  0
    0.0450    1.7002   -0.1892 C   0  0  0  0  0  0  0  0  0  0  0  0
   -1.3023    1.3622    0.3016 C   0  0  0  0  0  0  0  0  0  0  0  0
   -1.8375    0.4725   -0.6066 O   0  0  0  0  0  0  0  0  0  0  0  0
   -1.7690   -0.8460   -0.2420 C   0  0  0  0  0  0  0  0  0  0  0  0
   -0.5340   -1.5491   -0.5222 C   0  0  0  0  0  0  0  0  0  0  0  0
    0.7755   -1.3821   -0.4188 C   0  0  0  0  0  0  0  0  0  0  0  0
    2.5387   -0.2521    1.8300 H   0  0  0  0  0  0  0  0  0  0  0  0
    2.6945   -0.4423   -0.2574 H   0  0  0  0  0  0  0  0  0  0  0  0
    1.9878    1.6773   -0.7183 H   0  0  0  0  0  0  0  0  0  0  0  0
    0.1033    2.7017   -0.5558 H   0  0  0  0  0  0  0  0  0  0  0  0
   -1.1972    0.8819    1.3171 H   0  0  0  0  0  0  0  0  0  0  0  0
   -1.9122    2.2885    0.4139 H   0  0  0  0  0  0  0  0  0  0  0  0
   -2.0513   -0.8921    0.8525 H   0  0  0  0  0  0  0  0  0  0  0  0
   -2.6079   -1.3585   -0.7595 H   0  0  0  0  0  0  0  0  0  0  0  0
   -0.7297   -2.5268   -0.9538 H   0  0  0  0  0  0  0  0  0  0  0  0
    1.3778   -2.2229   -0.7741 H   0  0  0  0  0  0  0  0  0  0  0  0
  1  2  1  0
  2  3  1  0
  3  4  2  3
  4  5  1  0
  5  6  1  0
  6  7  1  0
  7  8  1  0
  8  9  2  3
  9  2  1  0
  1 10  1  0
  2 11  1  0
  3 12  1  0
  4 13  1  0
  5 14  1  0
  5 15  1  0
  7 16  1  0
  7 17  1  0
  8 18  1  0
  9 19  1  0
M  END
