
     RDKit          3D

 19 20  0  0  0  0  0  0  0  0999 V2000
    2.4543   -0.6008    0.5140 O   0  0  0  0  0  0  0  0  0  0  0  0
    1.3717   -0.0197   -0.0950 C   0  0  0  0  0  0  0  0  0  0  0  0
    0.3822   -1.0492   -0.6431 C   0  0  0  0  0  0  0  0  0  0  0  0
   -0.9906   -0.4293   -0.4852 C   0  0  0  0  0  0  0  0  0  0  0  0
   -0.9627    1.0658   -0.8134 C   0  0  0  0  0  0  0  0  0  0  0  0
   -0.1811    1.7587    0.1000 O   0  0  0  0  0  0  0  0  0  0  0  0
    0.5500    0.8433    0.8637 C   0  0  0  0  0  0  0  0  0  0  0  0
   -0.2620    0.0694    1.6821 O   0  0  0  0  0  0  0  0  0  0  0  0
   -1.3360   -0.4944    1.0037 C   0  0  0  0  0  0  0  0  0  0  0  0
    3.2713   -0.2162    0.1149 H   0  0  0  0  0  0  0  0  0  0  0  0
    1.6401    0.6359   -0.9524 H   0  0  0  0  0  0  0  0  0  0  0  0
    0.3915   -1.9498    0.0243 H   0  0  0  0  0  0  0  0  0  0  0  0
    0.6135   -1.3425   -1.6718 H   0  0  0  0  0  0  0  0  0  0  0  0
   -1.7543   -0.8790   -1.1162 H   0  0  0  0  0  0  0  0  0  0  0  0
   -2.0083    1.4212   -0.6713 H   0  0  0  0  0  0  0  0  0  0  0  0
   -0.6865    1.2298   -1.8583 H   0  0  0  0  0  0  0  0  0  0  0  0
    1.2621    1.3758    1.5258 H   0  0  0  0  0  0  0  0  0  0  0  0
   -1.4876   -1.5223    1.3474 H   0  0  0  0  0  0  0  0  0  0  0  0
   -2.2677    0.1032    1.1306 H   0  0  0  0  0  0  0  0  0  0  0  0
  1  2  1  0
  2  3  1  0
  3  4  1  0
  4  5  1  0
  5  6  1  0
  6  7  1  0
  7  8  1  0
  8  9  1  0
  7  2  1  0
  9  4  1  0
  1 10  1  0
  2 11  1  0
  3 12  1  0
  3 13  1  0
  4 14  1  0
  5 15  1  0
  5 16  1  0
  7 17  1  0
  9 18  1  0
  9 19  1  0
M  END
