
     RDKit          3D

 17 18  0  0  0  0  0  0  0  0999 V2000
    1.4282    0.6439   -1.4312 O   0  0  0  0  0  0  0  0  0  0  0  0
    0.9153   -0.2937   -0.5894 C   0  0  0  0  0  0  0  0  0  0  0  0
    1.0172    0.2460    0.8545 C   0  0  0  0  0  0  0  0  0  0  0  0
    0.0873    1.4031    0.7180 C   0  0  0  0  0  0  0  0  0  0  0  0
   -0.8653    1.0872   -0.1534 C   0  0  0  0  0  0  0  0  0  0  0  0
   -0.6044   -0.3175   -0.5476 C   0  0  0  0  0  0  0  0  0  0  0  0
   -1.2299   -0.7981   -1.6063 O   0  0  0  0  0  0  0  0  0  0  0  0
   -0.7516   -1.1244    0.7510 C   0  0  0  0  0  0  0  0  0  0  0  0
    0.3387   -0.7457    1.5405 O   0  0  0  0  0  0  0  0  0  0  0  0
    2.3724    0.8112   -1.1771 H   0  0  0  0  0  0  0  0  0  0  0  0
    1.3703   -1.2748   -0.6025 H   0  0  0  0  0  0  0  0  0  0  0  0
    2.0060    0.4595    1.1675 H   0  0  0  0  0  0  0  0  0  0  0  0
    0.1861    2.3427    1.2504 H   0  0  0  0  0  0  0  0  0  0  0  0
   -1.6705    1.6857   -0.5228 H   0  0  0  0  0  0  0  0  0  0  0  0
   -2.1114   -1.1479   -1.3990 H   0  0  0  0  0  0  0  0  0  0  0  0
   -1.7172   -0.7706    1.1928 H   0  0  0  0  0  0  0  0  0  0  0  0
   -0.7712   -2.2063    0.5546 H   0  0  0  0  0  0  0  0  0  0  0  0
  1  2  1  0
  2  3  1  0
  3  4  1  0
  4  5  2  0
  5  6  1  0
  6  7  1  0
  6  8  1  0
  8  9  1  0
  6  2  1  0
  9  3  1  0
  1 10  1  0
  2 11  1  0
  3 12  1  0
  4 13  1  0
  5 14  1  0
  7 15  1  0
  8 16  1  0
  8 17  1  0
M  END
