
     RDKit          3D

 18 19  0  0  0  0  0  0  0  0999 V2000
   -2.0799    1.1236   -0.0947 O   0  0  0  0  0  0  0  0  0  0  0  0
   -1.2833    0.1299    0.3730 C   0  0  0  0  0  0  0  0  0  0  0  0
   -0.8920   -0.8845   -0.7236 C   0  0  0  0  0  0  0  0  0  0  0  0
    0.5845   -0.9005   -0.5045 C   0  0  0  0  0  0  0  0  0  0  0  0
    0.7305   -0.8362    1.0158 C   0  0  0  0  0  0  0  0  0  0  0  0
    0.0766    0.5397    0.8254 C   0  0  0  0  0  0  0  0  0  0  0  0
    0.8743    0.6037   -0.4709 C   0  0  0  0  0  0  0  0  0  0  0  0
    2.2120    0.9087   -0.3217 O   0  0  0  0  0  0  0  0  0  0  0  0
   -1.8610    1.4982   -0.9602 H   0  0  0  0  0  0  0  0  0  0  0  0
   -1.7791   -0.4613    1.1520 H   0  0  0  0  0  0  0  0  0  0  0  0
   -1.0685   -0.3941   -1.7165 H   0  0  0  0  0  0  0  0  0  0  0  0
   -1.3998   -1.8340   -0.6001 H   0  0  0  0  0  0  0  0  0  0  0  0
    1.2283   -1.5257   -1.0527 H   0  0  0  0  0  0  0  0  0  0  0  0
    0.0342   -1.4764    1.5699 H   0  0  0  0  0  0  0  0  0  0  0  0
    1.7609   -0.7959    1.3712 H   0  0  0  0  0  0  0  0  0  0  0  0
    0.2301    1.2723    1.5636 H   0  0  0  0  0  0  0  0  0  0  0  0
    0.3220    1.1703   -1.2492 H   0  0  0  0  0  0  0  0  0  0  0  0
    2.3101    1.8622   -0.1768 H   0  0  0  0  0  0  0  0  0  0  0  0
  1  2  1  0
  2  3  1  0
  3  4  1  0
  4  5  1  0
  5  6  1  0
  6  7  1  0
  7  8  1  0
  6  2  1  0
  7  4  1  0
  1  9  1  0
  2 10  1  0
  3 11  1  0
  3 12  1  0
  4 13  1  0
  5 14  1  0
  5 15  1  0
  6 16  1  0
  7 17  1  0
  8 18  1  0
M  END
