
     RDKit          3D

 17 19  0  0  0  0  0  0  0  0999 V2000
   -2.4139   -0.2005    0.0595 O   0  0  0  0  0  0  0  0  0  0  0  0
   -1.1137   -0.5343    0.3986 C   0  0  0  0  0  0  0  0  0  0  0  0
   -0.1665   -0.7249   -0.7660 C   0  0  0  0  0  0  0  0  0  0  0  0
   -0.3894    0.7545   -1.0174 C   0  0  0  0  0  0  0  0  0  0  0  0
   -0.1659    0.6541    0.4852 C   0  0  0  0  0  0  0  0  0  0  0  0
   -0.1940    1.5861    1.3122 O   0  0  0  0  0  0  0  0  0  0  0  0
    0.9151   -0.3031    0.1425 C   0  0  0  0  0  0  0  0  0  0  0  0
    2.2498   -0.2065    0.0479 C   0  0  0  0  0  0  0  0  0  0  0  0
    1.5576   -1.0947    1.0246 O   0  0  0  0  0  0  0  0  0  0  0  0
   -2.9242   -1.0423    0.0054 H   0  0  0  0  0  0  0  0  0  0  0  0
   -0.9718   -1.2857    1.1736 H   0  0  0  0  0  0  0  0  0  0  0  0
   -0.2049   -1.4498   -1.4512 H   0  0  0  0  0  0  0  0  0  0  0  0
   -1.3963    1.0462   -1.3164 H   0  0  0  0  0  0  0  0  0  0  0  0
    0.4601    1.2710   -1.4739 H   0  0  0  0  0  0  0  0  0  0  0  0
   -1.0007    1.7526    1.8212 H   0  0  0  0  0  0  0  0  0  0  0  0
    2.8731    0.5673    0.5770 H   0  0  0  0  0  0  0  0  0  0  0  0
    2.8855   -0.7900   -0.6656 H   0  0  0  0  0  0  0  0  0  0  0  0
  1  2  1  0
  2  3  1  0
  3  4  1  0
  4  5  1  0
  5  6  1  0
  5  7  1  0
  7  8  1  0
  8  9  1  0
  5  2  1  0
  9  7  1  0
  7  3  1  0
  1 10  1  0
  2 11  1  0
  3 12  1  0
  4 13  1  0
  4 14  1  0
  6 15  1  0
  8 16  1  0
  8 17  1  0
M  END
