
     RDKit          3D

 17 19  0  0  0  0  0  0  0  0999 V2000
    2.3658   -0.6291   -0.4344 O   0  0  0  0  0  0  0  0  0  0  0  0
    1.0515   -0.1644   -0.5064 C   0  0  0  0  0  0  0  0  0  0  0  0
    0.0511   -1.1476    0.0185 C   0  0  0  0  0  0  0  0  0  0  0  0
   -1.3048   -0.7309   -0.5564 C   0  0  0  0  0  0  0  0  0  0  0  0
   -1.2568    0.0981    0.7021 C   0  0  0  0  0  0  0  0  0  0  0  0
   -0.4371   -0.8745    1.2606 O   0  0  0  0  0  0  0  0  0  0  0  0
   -0.5050    1.3780    0.5510 C   0  0  0  0  0  0  0  0  0  0  0  0
    0.6730    1.4644    1.3615 O   0  0  0  0  0  0  0  0  0  0  0  0
    0.8854    1.2159    0.0332 C   0  0  0  0  0  0  0  0  0  0  0  0
    2.5234   -1.2207    0.3385 H   0  0  0  0  0  0  0  0  0  0  0  0
    0.8342   -0.0963   -1.6161 H   0  0  0  0  0  0  0  0  0  0  0  0
    0.3170   -2.1916   -0.1226 H   0  0  0  0  0  0  0  0  0  0  0  0
   -2.0691   -1.5101   -0.5086 H   0  0  0  0  0  0  0  0  0  0  0  0
   -1.2260   -0.1984   -1.5046 H   0  0  0  0  0  0  0  0  0  0  0  0
   -2.2326    0.2450    1.1661 H   0  0  0  0  0  0  0  0  0  0  0  0
   -1.0285    2.3241    0.3442 H   0  0  0  0  0  0  0  0  0  0  0  0
    1.3586    2.0382   -0.5265 H   0  0  0  0  0  0  0  0  0  0  0  0
  1  2  1  0
  2  3  1  0
  3  4  1  0
  4  5  1  0
  5  6  1  0
  5  7  1  0
  7  8  1  0
  8  9  1  0
  9  2  1  0
  6  3  1  0
  9  7  1  0
  1 10  1  0
  2 11  1  0
  3 12  1  0
  4 13  1  0
  4 14  1  0
  5 15  1  0
  7 16  1  0
  9 17  1  0
M  END
