
     RDKit          3D

 17 17  0  0  0  0  0  0  0  0999 V2000
    1.7222   -0.3251    0.7131 O   0  0  0  0  0  0  0  0  0  0  0  0
    0.9528   -0.2768   -0.4626 C   0  0  0  0  0  0  0  0  0  0  0  0
   -0.1756   -1.2177   -0.3199 C   0  0  0  0  0  0  0  0  0  0  0  0
   -1.3665   -0.7175    0.4072 C   0  0  0  0  0  0  0  0  0  0  0  0
   -1.5689    0.6139    0.4375 O   0  0  0  0  0  0  0  0  0  0  0  0
   -0.4905    1.4319    0.4802 C   0  0  0  0  0  0  0  0  0  0  0  0
    0.4996    1.1439   -0.6296 C   0  0  0  0  0  0  0  0  0  0  0  0
    2.2022   -1.1785    0.7215 H   0  0  0  0  0  0  0  0  0  0  0  0
    1.5509   -0.5499   -1.3584 H   0  0  0  0  0  0  0  0  0  0  0  0
   -0.4353   -1.6384   -1.3335 H   0  0  0  0  0  0  0  0  0  0  0  0
    0.2070   -2.1151    0.2519 H   0  0  0  0  0  0  0  0  0  0  0  0
   -1.4151   -1.1062    1.4672 H   0  0  0  0  0  0  0  0  0  0  0  0
   -2.2737   -1.1929   -0.0734 H   0  0  0  0  0  0  0  0  0  0  0  0
   -0.8570    2.4837    0.2818 H   0  0  0  0  0  0  0  0  0  0  0  0
    0.0191    1.5015    1.4681 H   0  0  0  0  0  0  0  0  0  0  0  0
    0.0255    1.3544   -1.5993 H   0  0  0  0  0  0  0  0  0  0  0  0
    1.4033    1.7888   -0.4517 H   0  0  0  0  0  0  0  0  0  0  0  0
  1  2  1  0
  2  3  1  0
  3  4  1  0
  4  5  1  0
  5  6  1  0
  6  7  1  0
  7  2  1  0
  1  8  1  0
  2  9  1  0
  3 10  1  0
  3 11  1  0
  4 12  1  0
  4 13  1  0
  6 14  1  0
  6 15  1  0
  7 16  1  0
  7 17  1  0
M  END
