
     RDKit          3D

 19 20  0  0  0  0  0  0  0  0999 V2000
    0.1155   -1.4957    1.1903 O   0  0  0  0  0  0  0  0  0  0  0  0
    0.2197   -1.2844   -0.2055 C   0  0  0  0  0  0  0  0  0  0  0  0
    1.5658   -0.7370   -0.4241 C   0  0  0  0  0  0  0  0  0  0  0  0
    1.9269    0.5199   -0.1601 C   0  0  0  0  0  0  0  0  0  0  0  0
    1.1267    1.6149    0.3824 C   0  0  0  0  0  0  0  0  0  0  0  0
   -0.1910    1.6779    0.2139 C   0  0  0  0  0  0  0  0  0  0  0  0
   -1.1702    0.8342   -0.4551 C   0  0  0  0  0  0  0  0  0  0  0  0
   -1.9708   -0.1364    0.3396 C   0  0  0  0  0  0  0  0  0  0  0  0
   -0.9134   -0.5323   -0.7419 C   0  0  0  0  0  0  0  0  0  0  0  0
    0.6494   -2.2600    1.4821 H   0  0  0  0  0  0  0  0  0  0  0  0
    0.2293   -2.3247   -0.6262 H   0  0  0  0  0  0  0  0  0  0  0  0
    2.3502   -1.3920   -0.8347 H   0  0  0  0  0  0  0  0  0  0  0  0
    2.9548    0.7889   -0.3676 H   0  0  0  0  0  0  0  0  0  0  0  0
    1.6381    2.3913    0.9337 H   0  0  0  0  0  0  0  0  0  0  0  0
   -0.6067    2.5583    0.6864 H   0  0  0  0  0  0  0  0  0  0  0  0
   -1.8007    1.4082   -1.2020 H   0  0  0  0  0  0  0  0  0  0  0  0
   -3.0374   -0.3362    0.0657 H   0  0  0  0  0  0  0  0  0  0  0  0
   -1.7037   -0.3198    1.3935 H   0  0  0  0  0  0  0  0  0  0  0  0
   -1.3826   -0.9751   -1.6704 H   0  0  0  0  0  0  0  0  0  0  0  0
  1  2  1  0
  2  3  1  0
  3  4  2  0
  4  5  1  0
  5  6  2  0
  6  7  1  0
  7  8  1  0
  8  9  1  0
  9  2  1  0
  9  7  1  0
  1 10  1  0
  2 11  1  0
  3 12  1  0
  4 13  1  0
  5 14  1  0
  6 15  1  0
  7 16  1  0
  8 17  1  0
  8 18  1  0
  9 19  1  0
M  END
