
     RDKit          3D

 19 20  0  0  0  0  0  0  0  0999 V2000
    2.1277    1.0798    0.8304 O   0  0  0  0  0  0  0  0  0  0  0  0
    1.2882    0.3800    0.0016 C   0  0  0  0  0  0  0  0  0  0  0  0
    0.6114   -0.7886    0.7105 C   0  0  0  0  0  0  0  0  0  0  0  0
   -0.2235   -1.4940   -0.3383 C   0  0  0  0  0  0  0  0  0  0  0  0
   -1.1886   -0.4814   -0.9326 C   0  0  0  0  0  0  0  0  0  0  0  0
   -1.7973    0.2512    0.2087 C   0  0  0  0  0  0  0  0  0  0  0  0
   -0.9689    1.2488    0.4972 C   0  0  0  0  0  0  0  0  0  0  0  0
    0.1322    1.2479   -0.5081 C   0  0  0  0  0  0  0  0  0  0  0  0
   -0.4512    0.5206   -1.5550 O   0  0  0  0  0  0  0  0  0  0  0  0
    3.0803    0.7993    0.7121 H   0  0  0  0  0  0  0  0  0  0  0  0
    1.7939   -0.0316   -0.8985 H   0  0  0  0  0  0  0  0  0  0  0  0
    1.3179   -1.4471    1.2122 H   0  0  0  0  0  0  0  0  0  0  0  0
   -0.1047   -0.3720    1.4674 H   0  0  0  0  0  0  0  0  0  0  0  0
    0.4482   -1.8139   -1.1585 H   0  0  0  0  0  0  0  0  0  0  0  0
   -0.7607   -2.3307    0.1189 H   0  0  0  0  0  0  0  0  0  0  0  0
   -1.9127   -0.9399   -1.6035 H   0  0  0  0  0  0  0  0  0  0  0  0
   -2.7263    0.0141    0.6992 H   0  0  0  0  0  0  0  0  0  0  0  0
   -1.1264    1.9160    1.3391 H   0  0  0  0  0  0  0  0  0  0  0  0
    0.4606    2.2415   -0.8030 H   0  0  0  0  0  0  0  0  0  0  0  0
  1  2  1  0
  2  3  1  0
  3  4  1  0
  4  5  1  0
  5  6  1  0
  6  7  2  0
  7  8  1  0
  8  9  1  0
  8  2  1  0
  9  5  1  0
  1 10  1  0
  2 11  1  0
  3 12  1  0
  3 13  1  0
  4 14  1  0
  4 15  1  0
  5 16  1  0
  6 17  1  0
  7 18  1  0
  8 19  1  0
M  END
