
     RDKit          3D

 19 20  0  0  0  0  0  0  0  0999 V2000
    2.4012    0.5076   -0.5509 O   0  0  0  0  0  0  0  0  0  0  0  0
    1.3172    0.3105    0.3502 C   0  0  0  0  0  0  0  0  0  0  0  0
    0.9361   -1.1143    0.2299 C   0  0  0  0  0  0  0  0  0  0  0  0
   -0.4932   -1.4358    0.5160 C   0  0  0  0  0  0  0  0  0  0  0  0
   -1.1776   -1.1062   -0.6787 O   0  0  0  0  0  0  0  0  0  0  0  0
   -1.7821    0.0859   -0.4563 C   0  0  0  0  0  0  0  0  0  0  0  0
   -0.9327    1.2881   -0.3125 C   0  0  0  0  0  0  0  0  0  0  0  0
    0.0636    1.5918   -1.2406 O   0  0  0  0  0  0  0  0  0  0  0  0
    0.2980    1.3487    0.2355 C   0  0  0  0  0  0  0  0  0  0  0  0
    2.2202   -0.0124   -1.3952 H   0  0  0  0  0  0  0  0  0  0  0  0
    1.8445    0.4048    1.3536 H   0  0  0  0  0  0  0  0  0  0  0  0
    1.1502   -1.5127   -0.8077 H   0  0  0  0  0  0  0  0  0  0  0  0
    1.5502   -1.7952    0.8917 H   0  0  0  0  0  0  0  0  0  0  0  0
   -0.8233   -0.8112    1.3629 H   0  0  0  0  0  0  0  0  0  0  0  0
   -0.6568   -2.4762    0.7830 H   0  0  0  0  0  0  0  0  0  0  0  0
   -2.5868    0.2102   -1.2382 H   0  0  0  0  0  0  0  0  0  0  0  0
   -2.3729   -0.0143    0.5040 H   0  0  0  0  0  0  0  0  0  0  0  0
   -1.6189    2.1931   -0.2148 H   0  0  0  0  0  0  0  0  0  0  0  0
    0.6630    2.3376    0.6682 H   0  0  0  0  0  0  0  0  0  0  0  0
  1  2  1  0
  2  3  1  0
  3  4  1  0
  4  5  1  0
  5  6  1  0
  6  7  1  0
  7  8  1  0
  8  9  1  0
  9  2  1  0
  9  7  1  0
  1 10  1  0
  2 11  1  0
  3 12  1  0
  3 13  1  0
  4 14  1  0
  4 15  1  0
  6 16  1  0
  6 17  1  0
  7 18  1  0
  9 19  1  0
M  END
