
     RDKit          3D

 17 19  0  0  0  0  0  0  0  0999 V2000
   -2.5500   -0.5859   -0.1359 O   0  0  0  0  0  0  0  0  0  0  0  0
   -1.2779   -0.4021    0.4168 C   0  0  0  0  0  0  0  0  0  0  0  0
   -1.1514    1.0250    0.7307 C   0  0  0  0  0  0  0  0  0  0  0  0
   -0.1584    1.5813    0.0845 C   0  0  0  0  0  0  0  0  0  0  0  0
    0.5309    0.6050   -0.7619 C   0  0  0  0  0  0  0  0  0  0  0  0
    1.8373    0.0347   -0.2547 C   0  0  0  0  0  0  0  0  0  0  0  0
    1.0984   -1.2462    0.0523 C   0  0  0  0  0  0  0  0  0  0  0  0
   -0.1837   -0.7012   -0.5353 C   0  0  0  0  0  0  0  0  0  0  0  0
   -0.1233   -0.0737   -1.7737 O   0  0  0  0  0  0  0  0  0  0  0  0
   -2.5446   -0.4117   -1.1159 H   0  0  0  0  0  0  0  0  0  0  0  0
   -1.1342   -1.0550    1.3101 H   0  0  0  0  0  0  0  0  0  0  0  0
   -1.8315    1.5439    1.4361 H   0  0  0  0  0  0  0  0  0  0  0  0
    0.1089    2.6665    0.1838 H   0  0  0  0  0  0  0  0  0  0  0  0
    2.6286   -0.0747   -1.0067 H   0  0  0  0  0  0  0  0  0  0  0  0
    2.2085    0.5982    0.6206 H   0  0  0  0  0  0  0  0  0  0  0  0
    1.5058   -2.1433   -0.4184 H   0  0  0  0  0  0  0  0  0  0  0  0
    1.0365   -1.3607    1.1676 H   0  0  0  0  0  0  0  0  0  0  0  0
  1  2  1  0
  2  3  1  0
  3  4  2  0
  4  5  1  0
  5  6  1  0
  6  7  1  0
  7  8  1  0
  8  9  1  0
  8  2  1  0
  8  5  1  0
  9  5  1  0
  1 10  1  0
  2 11  1  0
  3 12  1  0
  4 13  1  0
  6 14  1  0
  6 15  1  0
  7 16  1  0
  7 17  1  0
M  END
