
     RDKit          3D

 21 23  0  0  0  0  0  0  0  0999 V2000
    2.6947   -0.3529    0.0918 O   0  0  0  0  0  0  0  0  0  0  0  0
    1.4004   -0.0169    0.3840 C   0  0  0  0  0  0  0  0  0  0  0  0
    0.9944    1.3093   -0.2798 C   0  0  0  0  0  0  0  0  0  0  0  0
   -0.4687    1.0257   -0.5280 C   0  0  0  0  0  0  0  0  0  0  0  0
   -1.0517    0.6482    0.8470 C   0  0  0  0  0  0  0  0  0  0  0  0
   -0.9148   -0.8480    0.7400 C   0  0  0  0  0  0  0  0  0  0  0  0
   -1.6107   -1.0715   -0.6099 C   0  0  0  0  0  0  0  0  0  0  0  0
   -0.4052   -0.3414   -1.1420 C   0  0  0  0  0  0  0  0  0  0  0  0
    0.3805   -1.0341   -0.0141 C   0  0  0  0  0  0  0  0  0  0  0  0
    3.3348   -0.1509    0.8387 H   0  0  0  0  0  0  0  0  0  0  0  0
    1.3486    0.1457    1.4995 H   0  0  0  0  0  0  0  0  0  0  0  0
    1.1814    2.1542    0.3753 H   0  0  0  0  0  0  0  0  0  0  0  0
    1.5392    1.3417   -1.2491 H   0  0  0  0  0  0  0  0  0  0  0  0
   -1.0191    1.7732   -1.0476 H   0  0  0  0  0  0  0  0  0  0  0  0
   -2.1316    0.8788    0.8594 H   0  0  0  0  0  0  0  0  0  0  0  0
   -0.4848    1.0865    1.6648 H   0  0  0  0  0  0  0  0  0  0  0  0
   -1.1639   -1.4780    1.5438 H   0  0  0  0  0  0  0  0  0  0  0  0
   -1.7252   -2.1071   -0.9065 H   0  0  0  0  0  0  0  0  0  0  0  0
   -2.5200   -0.4331   -0.7120 H   0  0  0  0  0  0  0  0  0  0  0  0
   -0.0782   -0.4873   -2.1326 H   0  0  0  0  0  0  0  0  0  0  0  0
    0.6999   -2.0420   -0.2226 H   0  0  0  0  0  0  0  0  0  0  0  0
  1  2  1  0
  2  3  1  0
  3  4  1  0
  4  5  1  0
  5  6  1  0
  6  7  1  0
  7  8  1  0
  8  9  1  0
  9  2  1  0
  8  4  1  0
  9  6  1  0
  1 10  1  0
  2 11  1  0
  3 12  1  0
  3 13  1  0
  4 14  1  0
  5 15  1  0
  5 16  1  0
  6 17  1  0
  7 18  1  0
  7 19  1  0
  8 20  1  0
  9 21  1  0
M  END
