
     RDKit          3D

 21 22  0  0  0  0  0  0  0  0999 V2000
   -3.0518   -0.5000    0.1608 O   0  0  0  0  0  0  0  0  0  0  0  0
   -1.8315   -0.5074   -0.5122 C   0  0  0  0  0  0  0  0  0  0  0  0
   -1.3854    0.9011   -0.7757 C   0  0  0  0  0  0  0  0  0  0  0  0
    0.1120    0.8811   -0.7028 C   0  0  0  0  0  0  0  0  0  0  0  0
    0.5316   -0.4880   -0.2459 C   0  0  0  0  0  0  0  0  0  0  0  0
    1.5296   -0.3732    0.8818 C   0  0  0  0  0  0  0  0  0  0  0  0
    2.7890    0.3726    0.5049 C   0  0  0  0  0  0  0  0  0  0  0  0
    2.7451   -1.0370    0.7804 O   0  0  0  0  0  0  0  0  0  0  0  0
   -0.7430   -1.0630    0.3502 C   0  0  0  0  0  0  0  0  0  0  0  0
   -2.9338   -0.0804    1.0600 H   0  0  0  0  0  0  0  0  0  0  0  0
   -1.9671   -1.1142   -1.4208 H   0  0  0  0  0  0  0  0  0  0  0  0
   -1.7660    1.2429   -1.7720 H   0  0  0  0  0  0  0  0  0  0  0  0
   -1.8234    1.5791    0.0107 H   0  0  0  0  0  0  0  0  0  0  0  0
    0.4990    1.1057   -1.7183 H   0  0  0  0  0  0  0  0  0  0  0  0
    0.4608    1.6389    0.0254 H   0  0  0  0  0  0  0  0  0  0  0  0
    0.9407   -1.1110   -1.0536 H   0  0  0  0  0  0  0  0  0  0  0  0
    1.1551   -0.1799    1.9140 H   0  0  0  0  0  0  0  0  0  0  0  0
    3.0386    0.5419   -0.5536 H   0  0  0  0  0  0  0  0  0  0  0  0
    3.2640    0.9948    1.2991 H   0  0  0  0  0  0  0  0  0  0  0  0
   -0.8253   -0.6407    1.3831 H   0  0  0  0  0  0  0  0  0  0  0  0
   -0.7381   -2.1634    0.3845 H   0  0  0  0  0  0  0  0  0  0  0  0
  1  2  1  0
  2  3  1  0
  3  4  1  0
  4  5  1  0
  5  6  1  0
  6  7  1  0
  7  8  1  0
  5  9  1  0
  9  2  1  0
  8  6  1  0
  1 10  1  0
  2 11  1  0
  3 12  1  0
  3 13  1  0
  4 14  1  0
  4 15  1  0
  5 16  1  0
  6 17  1  0
  7 18  1  0
  7 19  1  0
  9 20  1  0
  9 21  1  0
M  END
