
     RDKit          3D

 19 21  0  0  0  0  0  0  0  0999 V2000
   -1.1757   -1.6210    0.6024 O   0  0  0  0  0  0  0  0  0  0  0  0
   -0.6822   -0.8700   -0.4734 C   0  0  0  0  0  0  0  0  0  0  0  0
   -1.6148    0.3164   -0.7236 C   0  0  0  0  0  0  0  0  0  0  0  0
   -2.4031    0.7719    0.3171 O   0  0  0  0  0  0  0  0  0  0  0  0
   -1.1726    1.3889    0.1860 C   0  0  0  0  0  0  0  0  0  0  0  0
    0.0175    0.8406    0.9633 C   0  0  0  0  0  0  0  0  0  0  0  0
    0.5612   -0.1806   -0.0013 C   0  0  0  0  0  0  0  0  0  0  0  0
    1.7861   -0.8771    0.3686 C   0  0  0  0  0  0  0  0  0  0  0  0
    1.7283    0.0535   -0.8408 C   0  0  0  0  0  0  0  0  0  0  0  0
   -1.9882   -1.1846    0.9569 H   0  0  0  0  0  0  0  0  0  0  0  0
   -0.5754   -1.4416   -1.3924 H   0  0  0  0  0  0  0  0  0  0  0  0
   -1.9915    0.4796   -1.7320 H   0  0  0  0  0  0  0  0  0  0  0  0
   -1.1070    2.4442   -0.0980 H   0  0  0  0  0  0  0  0  0  0  0  0
   -0.3708    0.2575    1.8446 H   0  0  0  0  0  0  0  0  0  0  0  0
    0.7289    1.6079    1.2606 H   0  0  0  0  0  0  0  0  0  0  0  0
    1.8208   -1.9734    0.1883 H   0  0  0  0  0  0  0  0  0  0  0  0
    2.4037   -0.5273    1.2418 H   0  0  0  0  0  0  0  0  0  0  0  0
    1.7369   -0.4707   -1.8352 H   0  0  0  0  0  0  0  0  0  0  0  0
    2.2978    0.9858   -0.8330 H   0  0  0  0  0  0  0  0  0  0  0  0
  1  2  1  0
  2  3  1  0
  3  4  1  0
  4  5  1  0
  5  6  1  0
  6  7  1  0
  7  8  1  0
  8  9  1  0
  7  2  1  0
  5  3  1  0
  9  7  1  0
  1 10  1  0
  2 11  1  0
  3 12  1  0
  5 13  1  0
  6 14  1  0
  6 15  1  0
  8 16  1  0
  8 17  1  0
  9 18  1  0
  9 19  1  0
M  END
