
     RDKit          3D

 18 19  0  0  0  0  0  0  0  0999 V2000
   -2.2687   -0.8798   -0.2579 O   0  0  0  0  0  0  0  0  0  0  0  0
   -0.9210   -0.7913   -0.0218 C   0  0  0  0  0  0  0  0  0  0  0  0
   -0.5421    0.5985    0.5132 C   0  0  0  0  0  0  0  0  0  0  0  0
    0.8370    0.4098    1.1025 C   0  0  0  0  0  0  0  0  0  0  0  0
    1.7326   -0.3008    0.1503 C   0  0  0  0  0  0  0  0  0  0  0  0
    1.2299   -0.5338   -1.0894 O   0  0  0  0  0  0  0  0  0  0  0  0
   -0.1118   -0.3972   -1.2479 C   0  0  0  0  0  0  0  0  0  0  0  0
   -0.4907    1.0366   -0.9375 C   0  0  0  0  0  0  0  0  0  0  0  0
   -2.7168   -0.9222    0.6476 H   0  0  0  0  0  0  0  0  0  0  0  0
   -0.4569   -1.6183    0.5266 H   0  0  0  0  0  0  0  0  0  0  0  0
   -1.2831    1.0719    1.1437 H   0  0  0  0  0  0  0  0  0  0  0  0
    0.6923   -0.2743    1.9912 H   0  0  0  0  0  0  0  0  0  0  0  0
    1.2587    1.3366    1.5190 H   0  0  0  0  0  0  0  0  0  0  0  0
    2.6736    0.3189    0.0578 H   0  0  0  0  0  0  0  0  0  0  0  0
    2.1114   -1.2866    0.5529 H   0  0  0  0  0  0  0  0  0  0  0  0
   -0.5185   -0.8281   -2.1550 H   0  0  0  0  0  0  0  0  0  0  0  0
    0.2598    1.7942   -1.1821 H   0  0  0  0  0  0  0  0  0  0  0  0
   -1.4858    1.2659   -1.3132 H   0  0  0  0  0  0  0  0  0  0  0  0
  1  2  1  0
  2  3  1  0
  3  4  1  0
  4  5  1  0
  5  6  1  0
  6  7  1  0
  7  8  1  0
  7  2  1  0
  8  3  1  0
  1  9  1  0
  2 10  1  0
  3 11  1  0
  4 12  1  0
  4 13  1  0
  5 14  1  0
  5 15  1  0
  7 16  1  0
  8 17  1  0
  8 18  1  0
M  END
