
     RDKit          3D

 19 20  0  0  0  0  0  0  0  0999 V2000
    3.0105   -0.0828    0.2323 O   0  0  0  0  0  0  0  0  0  0  0  0
    1.7504   -0.2526   -0.3859 C   0  0  0  0  0  0  0  0  0  0  0  0
    0.9300    0.9627   -0.1993 C   0  0  0  0  0  0  0  0  0  0  0  0
   -0.3778    0.8322   -0.1947 C   0  0  0  0  0  0  0  0  0  0  0  0
   -1.8001    1.3167   -0.1011 C   0  0  0  0  0  0  0  0  0  0  0  0
   -2.1286   -0.0510    0.4632 C   0  0  0  0  0  0  0  0  0  0  0  0
   -0.9650   -0.5389   -0.3787 C   0  0  0  0  0  0  0  0  0  0  0  0
   -0.2365   -1.5339    0.1615 O   0  0  0  0  0  0  0  0  0  0  0  0
    1.1021   -1.4327    0.2236 C   0  0  0  0  0  0  0  0  0  0  0  0
    2.9567    0.6438    0.8866 H   0  0  0  0  0  0  0  0  0  0  0  0
    1.9534   -0.4225   -1.4769 H   0  0  0  0  0  0  0  0  0  0  0  0
    1.3641    1.9371   -0.0690 H   0  0  0  0  0  0  0  0  0  0  0  0
   -2.2891    1.4217   -1.0996 H   0  0  0  0  0  0  0  0  0  0  0  0
   -1.9513    2.1563    0.5865 H   0  0  0  0  0  0  0  0  0  0  0  0
   -1.9117   -0.0638    1.5438 H   0  0  0  0  0  0  0  0  0  0  0  0
   -3.1177   -0.4314    0.1561 H   0  0  0  0  0  0  0  0  0  0  0  0
   -1.2893   -0.6422   -1.4466 H   0  0  0  0  0  0  0  0  0  0  0  0
    1.5901   -2.3523   -0.2118 H   0  0  0  0  0  0  0  0  0  0  0  0
    1.4101   -1.4663    1.3102 H   0  0  0  0  0  0  0  0  0  0  0  0
  1  2  1  0
  2  3  1  0
  3  4  2  0
  4  5  1  0
  5  6  1  0
  6  7  1  0
  7  8  1  0
  8  9  1  0
  9  2  1  0
  7  4  1  0
  1 10  1  0
  2 11  1  0
  3 12  1  0
  5 13  1  0
  5 14  1  0
  6 15  1  0
  6 16  1  0
  7 17  1  0
  9 18  1  0
  9 19  1  0
M  END
