
     RDKit          3D

 19 20  0  0  0  0  0  0  0  0999 V2000
   -1.8388    0.0724   -1.6991 O   0  0  0  0  0  0  0  0  0  0  0  0
   -0.5190    0.1771   -1.2508 C   0  0  0  0  0  0  0  0  0  0  0  0
   -0.5135    1.0341    0.0163 C   0  0  0  0  0  0  0  0  0  0  0  0
    0.8769    1.3383    0.4398 C   0  0  0  0  0  0  0  0  0  0  0  0
    1.7454    0.3318    0.4286 C   0  0  0  0  0  0  0  0  0  0  0  0
    1.3008   -0.9936   -0.0363 C   0  0  0  0  0  0  0  0  0  0  0  0
   -0.1647   -0.9881   -0.3246 C   0  0  0  0  0  0  0  0  0  0  0  0
   -0.9648   -0.2335    0.7401 C   0  0  0  0  0  0  0  0  0  0  0  0
   -0.4944   -0.3601    2.0220 O   0  0  0  0  0  0  0  0  0  0  0  0
   -2.0934    0.9648   -2.0392 H   0  0  0  0  0  0  0  0  0  0  0  0
    0.2307    0.4315   -1.9940 H   0  0  0  0  0  0  0  0  0  0  0  0
   -1.2236    1.8564    0.0171 H   0  0  0  0  0  0  0  0  0  0  0  0
    1.1966    2.3297    0.7495 H   0  0  0  0  0  0  0  0  0  0  0  0
    2.7837    0.4316    0.7484 H   0  0  0  0  0  0  0  0  0  0  0  0
    1.5265   -1.7296    0.7502 H   0  0  0  0  0  0  0  0  0  0  0  0
    1.8377   -1.2452   -0.9773 H   0  0  0  0  0  0  0  0  0  0  0  0
   -0.5893   -1.9347   -0.6465 H   0  0  0  0  0  0  0  0  0  0  0  0
   -2.0460   -0.4171    0.5868 H   0  0  0  0  0  0  0  0  0  0  0  0
   -1.0506   -1.0658    2.4692 H   0  0  0  0  0  0  0  0  0  0  0  0
  1  2  1  0
  2  3  1  0
  3  4  1  0
  4  5  2  0
  5  6  1  0
  6  7  1  0
  7  8  1  0
  8  9  1  0
  7  2  1  0
  8  3  1  0
  1 10  1  0
  2 11  1  0
  3 12  1  0
  4 13  1  0
  5 14  1  0
  6 15  1  0
  6 16  1  0
  7 17  1  0
  8 18  1  0
  9 19  1  0
M  END
