
     RDKit          3D

 16 17  0  0  0  0  0  0  0  0999 V2000
   -1.6842    1.4868   -0.1079 O   0  0  0  0  0  0  0  0  0  0  0  0
   -0.8770    0.5478    0.5214 C   0  0  0  0  0  0  0  0  0  0  0  0
   -1.4992   -0.8150    0.1920 C   0  0  0  0  0  0  0  0  0  0  0  0
   -0.4355   -1.6603    0.0588 O   0  0  0  0  0  0  0  0  0  0  0  0
    0.5811   -0.9373   -0.5607 C   0  0  0  0  0  0  0  0  0  0  0  0
    1.5745   -0.3256    0.3705 C   0  0  0  0  0  0  0  0  0  0  0  0
    2.8233   -0.0811   -0.2007 O   0  0  0  0  0  0  0  0  0  0  0  0
    0.4653    0.4840   -0.1035 C   0  0  0  0  0  0  0  0  0  0  0  0
   -2.0934    2.1356    0.4841 H   0  0  0  0  0  0  0  0  0  0  0  0
   -0.8866    0.7089    1.6108 H   0  0  0  0  0  0  0  0  0  0  0  0
   -2.1925   -1.0382    0.9952 H   0  0  0  0  0  0  0  0  0  0  0  0
   -2.0145   -0.7659   -0.8104 H   0  0  0  0  0  0  0  0  0  0  0  0
    0.8636   -1.1728   -1.5961 H   0  0  0  0  0  0  0  0  0  0  0  0
    1.6464   -0.7678    1.3829 H   0  0  0  0  0  0  0  0  0  0  0  0
    3.0395    0.8867   -0.1466 H   0  0  0  0  0  0  0  0  0  0  0  0
    0.6893    1.3145   -0.8328 H   0  0  0  0  0  0  0  0  0  0  0  0
  1  2  1  0
  2  3  1  0
  3  4  1  0
  4  5  1  0
  5  6  1  0
  6  7  1  0
  6  8  1  0
  8  2  1  0
  8  5  1  0
  1  9  1  0
  2 10  1  0
  3 11  1  0
  3 12  1  0
  5 13  1  0
  6 14  1  0
  7 15  1  0
  8 16  1  0
M  END
