
     RDKit          3D

 19 20  0  0  0  0  0  0  0  0999 V2000
   -1.6659   -1.5693    0.9727 O   0  0  0  0  0  0  0  0  0  0  0  0
   -1.1332   -0.7831   -0.0290 C   0  0  0  0  0  0  0  0  0  0  0  0
    0.3278   -1.1273   -0.3089 C   0  0  0  0  0  0  0  0  0  0  0  0
    0.9900    0.1853   -0.6929 C   0  0  0  0  0  0  0  0  0  0  0  0
    2.3642    0.3734   -0.4149 C   0  0  0  0  0  0  0  0  0  0  0  0
    1.8434    0.2080   -1.7874 O   0  0  0  0  0  0  0  0  0  0  0  0
   -0.0794    1.2421   -0.5722 C   0  0  0  0  0  0  0  0  0  0  0  0
   -0.9861    0.6479    0.4846 C   0  0  0  0  0  0  0  0  0  0  0  0
   -2.1936    1.2940    0.5920 O   0  0  0  0  0  0  0  0  0  0  0  0
   -1.2424   -2.4619    0.9038 H   0  0  0  0  0  0  0  0  0  0  0  0
   -1.6890   -0.8252   -0.9791 H   0  0  0  0  0  0  0  0  0  0  0  0
    0.4229   -1.7922   -1.1880 H   0  0  0  0  0  0  0  0  0  0  0  0
    0.7512   -1.5580    0.6189 H   0  0  0  0  0  0  0  0  0  0  0  0
    2.9947   -0.4843   -0.0984 H   0  0  0  0  0  0  0  0  0  0  0  0
    2.8099    1.3853   -0.2513 H   0  0  0  0  0  0  0  0  0  0  0  0
   -0.6536    1.2251   -1.5287 H   0  0  0  0  0  0  0  0  0  0  0  0
    0.3151    2.2260   -0.3097 H   0  0  0  0  0  0  0  0  0  0  0  0
   -0.4737    0.5722    1.4557 H   0  0  0  0  0  0  0  0  0  0  0  0
   -2.7024    1.2419   -0.2435 H   0  0  0  0  0  0  0  0  0  0  0  0
  1  2  1  0
  2  3  1  0
  3  4  1  0
  4  5  1  0
  5  6  1  0
  4  7  1  0
  7  8  1  0
  8  9  1  0
  8  2  1  0
  6  4  1  0
  1 10  1  0
  2 11  1  0
  3 12  1  0
  3 13  1  0
  5 14  1  0
  5 15  1  0
  7 16  1  0
  7 17  1  0
  8 18  1  0
  9 19  1  0
M  END
