
     RDKit          3D

 17 18  0  0  0  0  0  0  0  0999 V2000
   -2.0558    0.9458    0.5347 O   0  0  0  0  0  0  0  0  0  0  0  0
   -0.7435    0.8946    0.0158 C   0  0  0  0  0  0  0  0  0  0  0  0
    0.1254    0.1709    1.0526 C   0  0  0  0  0  0  0  0  0  0  0  0
    1.4525    0.1536    0.3926 C   0  0  0  0  0  0  0  0  0  0  0  0
    1.0266   -0.2475   -1.0356 C   0  0  0  0  0  0  0  0  0  0  0  0
   -0.4602   -0.3183   -0.8223 C   0  0  0  0  0  0  0  0  0  0  0  0
   -0.5269   -1.1003    0.4966 C   0  0  0  0  0  0  0  0  0  0  0  0
   -2.7164    1.1498   -0.1689 H   0  0  0  0  0  0  0  0  0  0  0  0
   -0.3434    1.8493   -0.3267 H   0  0  0  0  0  0  0  0  0  0  0  0
   -0.0106    0.4019    2.0701 H   0  0  0  0  0  0  0  0  0  0  0  0
    2.1884   -0.5371    0.8035 H   0  0  0  0  0  0  0  0  0  0  0  0
    1.8413    1.2095    0.2994 H   0  0  0  0  0  0  0  0  0  0  0  0
    1.3486    0.4797   -1.7760 H   0  0  0  0  0  0  0  0  0  0  0  0
    1.4657   -1.2582   -1.2427 H   0  0  0  0  0  0  0  0  0  0  0  0
   -1.1086   -0.6040   -1.6034 H   0  0  0  0  0  0  0  0  0  0  0  0
   -1.5847   -1.2005    0.7809 H   0  0  0  0  0  0  0  0  0  0  0  0
    0.1017   -1.9893    0.5292 H   0  0  0  0  0  0  0  0  0  0  0  0
  1  2  1  0
  2  3  1  0
  3  4  1  0
  4  5  1  0
  5  6  1  0
  6  7  1  0
  6  2  1  0
  7  3  1  0
  1  8  1  0
  2  9  1  0
  3 10  1  0
  4 11  1  0
  4 12  1  0
  5 13  1  0
  5 14  1  0
  6 15  1  0
  7 16  1  0
  7 17  1  0
M  END
