
     RDKit          3D

 17 19  0  0  0  0  0  0  0  0999 V2000
    2.1042   -1.0910    0.0174 O   0  0  0  0  0  0  0  0  0  0  0  0
    0.9287   -0.4305    0.3956 C   0  0  0  0  0  0  0  0  0  0  0  0
    1.0496    0.9811   -0.1779 C   0  0  0  0  0  0  0  0  0  0  0  0
    0.8964    0.9832   -1.5298 O   0  0  0  0  0  0  0  0  0  0  0  0
   -0.2794    1.2337   -0.9322 C   0  0  0  0  0  0  0  0  0  0  0  0
   -1.1101    0.3562   -0.1111 C   0  0  0  0  0  0  0  0  0  0  0  0
   -1.1315    0.8746    1.1732 O   0  0  0  0  0  0  0  0  0  0  0  0
   -1.6063   -0.9612   -0.2014 C   0  0  0  0  0  0  0  0  0  0  0  0
   -0.2173   -0.9190   -0.3841 C   0  0  0  0  0  0  0  0  0  0  0  0
    2.7678   -1.1381    0.7385 H   0  0  0  0  0  0  0  0  0  0  0  0
    0.8807   -0.4741    1.4660 H   0  0  0  0  0  0  0  0  0  0  0  0
    1.4515    1.7832    0.4102 H   0  0  0  0  0  0  0  0  0  0  0  0
   -0.5939    2.3188   -0.9495 H   0  0  0  0  0  0  0  0  0  0  0  0
   -0.9837    0.2408    1.8878 H   0  0  0  0  0  0  0  0  0  0  0  0
   -1.9753   -1.5188    0.7114 H   0  0  0  0  0  0  0  0  0  0  0  0
   -2.2928   -1.2076   -1.0471 H   0  0  0  0  0  0  0  0  0  0  0  0
    0.1113   -1.0314   -1.4669 H   0  0  0  0  0  0  0  0  0  0  0  0
  1  2  1  0
  2  3  1  0
  3  4  1  0
  4  5  1  0
  5  6  1  0
  6  7  1  0
  6  8  1  0
  8  9  1  0
  9  2  1  0
  5  3  1  0
  9  6  1  0
  1 10  1  0
  2 11  1  0
  3 12  1  0
  5 13  1  0
  7 14  1  0
  8 15  1  0
  8 16  1  0
  9 17  1  0
M  END
