
     RDKit          3D

 16 17  0  0  0  0  0  0  0  0999 V2000
   -1.4443    1.7571    0.0547 O   0  0  0  0  0  0  0  0  0  0  0  0
   -1.0606    0.5701   -0.5571 C   0  0  0  0  0  0  0  0  0  0  0  0
   -1.3653   -0.6215    0.2566 C   0  0  0  0  0  0  0  0  0  0  0  0
   -0.2644   -1.3367    0.4260 C   0  0  0  0  0  0  0  0  0  0  0  0
    0.8883   -0.7001   -0.2547 C   0  0  0  0  0  0  0  0  0  0  0  0
    1.6618    0.1815    0.6649 C   0  0  0  0  0  0  0  0  0  0  0  0
    1.2352    1.2840   -0.0868 O   0  0  0  0  0  0  0  0  0  0  0  0
    0.3815    0.5317   -0.9133 C   0  0  0  0  0  0  0  0  0  0  0  0
   -2.0109    1.5382    0.8463 H   0  0  0  0  0  0  0  0  0  0  0  0
   -1.6531    0.4934   -1.4956 H   0  0  0  0  0  0  0  0  0  0  0  0
   -2.3228   -0.9095    0.6728 H   0  0  0  0  0  0  0  0  0  0  0  0
   -0.1768   -2.2656    0.9796 H   0  0  0  0  0  0  0  0  0  0  0  0
    1.4515   -1.3303   -0.9564 H   0  0  0  0  0  0  0  0  0  0  0  0
    2.7378   -0.0234    0.6236 H   0  0  0  0  0  0  0  0  0  0  0  0
    1.3187    0.2012    1.7331 H   0  0  0  0  0  0  0  0  0  0  0  0
    0.6232    0.6298   -1.9939 H   0  0  0  0  0  0  0  0  0  0  0  0
  1  2  1  0
  2  3  1  0
  3  4  2  0
  4  5  1  0
  5  6  1  0
  6  7  1  0
  7  8  1  0
  8  2  1  0
  8  5  1  0
  1  9  1  0
  2 10  1  0
  3 11  1  0
  4 12  1  0
  5 13  1  0
  6 14  1  0
  6 15  1  0
  8 16  1  0
M  END
