
     RDKit          3D

 23 24  0  0  0  0  0  0  0  0999 V2000
   -1.7142   -1.5277   -1.0663 O   0  0  0  0  0  0  0  0  0  0  0  0
   -1.3143   -0.5803   -0.1539 C   0  0  0  0  0  0  0  0  0  0  0  0
   -2.3948    0.4540    0.1988 C   0  0  0  0  0  0  0  0  0  0  0  0
   -1.2368    1.4609    0.2911 C   0  0  0  0  0  0  0  0  0  0  0  0
   -0.5098    0.5634   -0.7024 C   0  0  0  0  0  0  0  0  0  0  0  0
    0.9727    0.4641   -0.5046 C   0  0  0  0  0  0  0  0  0  0  0  0
    1.4225    0.3881    0.9397 C   0  0  0  0  0  0  0  0  0  0  0  0
    2.4957   -0.5793    0.4156 C   0  0  0  0  0  0  0  0  0  0  0  0
    1.4319   -0.9766   -0.6162 C   0  0  0  0  0  0  0  0  0  0  0  0
   -2.0240   -2.3206   -0.5616 H   0  0  0  0  0  0  0  0  0  0  0  0
   -0.9485   -1.0038    0.8081 H   0  0  0  0  0  0  0  0  0  0  0  0
   -2.9173    0.2706    1.1365 H   0  0  0  0  0  0  0  0  0  0  0  0
   -3.0409    0.7303   -0.6494 H   0  0  0  0  0  0  0  0  0  0  0  0
   -1.4711    2.4637   -0.0596 H   0  0  0  0  0  0  0  0  0  0  0  0
   -0.7340    1.4091    1.2735 H   0  0  0  0  0  0  0  0  0  0  0  0
   -0.7905    0.7827   -1.7478 H   0  0  0  0  0  0  0  0  0  0  0  0
    1.5915    1.1804   -1.0531 H   0  0  0  0  0  0  0  0  0  0  0  0
    1.8218    1.3159    1.3559 H   0  0  0  0  0  0  0  0  0  0  0  0
    0.7523   -0.2091    1.6070 H   0  0  0  0  0  0  0  0  0  0  0  0
    3.2757    0.0060   -0.0819 H   0  0  0  0  0  0  0  0  0  0  0  0
    2.7841   -1.3648    1.1063 H   0  0  0  0  0  0  0  0  0  0  0  0
    1.8360   -1.2549   -1.5986 H   0  0  0  0  0  0  0  0  0  0  0  0
    0.7119   -1.6722   -0.1628 H   0  0  0  0  0  0  0  0  0  0  0  0
  1  2  1  0
  2  3  1  0
  3  4  1  0
  4  5  1  0
  5  6  1  0
  6  7  1  0
  7  8  1  0
  8  9  1  0
  5  2  1  0
  9  6  1  0
  1 10  1  0
  2 11  1  0
  3 12  1  0
  3 13  1  0
  4 14  1  0
  4 15  1  0
  5 16  1  0
  6 17  1  0
  7 18  1  0
  7 19  1  0
  8 20  1  0
  8 21  1  0
  9 22  1  0
  9 23  1  0
M  END
