
     RDKit          3D

 16 17  0  0  0  0  0  0  0  0999 V2000
   -0.5858    1.7741    0.9415 O   0  0  0  0  0  0  0  0  0  0  0  0
   -0.3959    1.0568   -0.2485 C   0  0  0  0  0  0  0  0  0  0  0  0
   -1.4086   -0.0968   -0.2621 C   0  0  0  0  0  0  0  0  0  0  0  0
   -0.3346   -0.9190    0.4652 C   0  0  0  0  0  0  0  0  0  0  0  0
   -0.3220   -2.2122   -0.0355 O   0  0  0  0  0  0  0  0  0  0  0  0
    0.6673    0.0256   -0.0733 C   0  0  0  0  0  0  0  0  0  0  0  0
    2.0047    0.1727    0.1162 C   0  0  0  0  0  0  0  0  0  0  0  0
    1.4433   -0.4181   -1.1038 O   0  0  0  0  0  0  0  0  0  0  0  0
   -1.5069    1.7610    1.2581 H   0  0  0  0  0  0  0  0  0  0  0  0
   -0.4065    1.6380   -1.1669 H   0  0  0  0  0  0  0  0  0  0  0  0
   -1.5624   -0.4584   -1.3014 H   0  0  0  0  0  0  0  0  0  0  0  0
   -2.3164    0.0835    0.3087 H   0  0  0  0  0  0  0  0  0  0  0  0
   -0.4194   -0.8389    1.5606 H   0  0  0  0  0  0  0  0  0  0  0  0
   -0.0453   -2.1468   -0.9835 H   0  0  0  0  0  0  0  0  0  0  0  0
    2.6496   -0.5255    0.6904 H   0  0  0  0  0  0  0  0  0  0  0  0
    2.5389    1.1040   -0.1657 H   0  0  0  0  0  0  0  0  0  0  0  0
  1  2  1  0
  2  3  1  0
  3  4  1  0
  4  5  1  0
  4  6  1  0
  6  7  1  0
  7  8  1  0
  6  2  1  0
  8  6  1  0
  1  9  1  0
  2 10  1  0
  3 11  1  0
  3 12  1  0
  4 13  1  0
  5 14  1  0
  7 15  1  0
  7 16  1  0
M  END
