
     RDKit          3D

 20 21  0  0  0  0  0  0  0  0999 V2000
   -2.3864    0.6840   -0.8059 O   0  0  0  0  0  0  0  0  0  0  0  0
   -1.6316   -0.0262    0.1446 C   0  0  0  0  0  0  0  0  0  0  0  0
   -0.6244    0.8942    0.7576 C   0  0  0  0  0  0  0  0  0  0  0  0
    0.6075    0.0517    0.9308 C   0  0  0  0  0  0  0  0  0  0  0  0
    1.7701    0.6565    0.1989 C   0  0  0  0  0  0  0  0  0  0  0  0
    1.4814   -0.2907   -0.9535 C   0  0  0  0  0  0  0  0  0  0  0  0
    0.5474   -1.0614   -0.0690 C   0  0  0  0  0  0  0  0  0  0  0  0
   -0.8799   -1.1473   -0.5145 C   0  0  0  0  0  0  0  0  0  0  0  0
   -2.4148    1.6155   -0.4740 H   0  0  0  0  0  0  0  0  0  0  0  0
   -2.3372   -0.3541    0.9179 H   0  0  0  0  0  0  0  0  0  0  0  0
   -0.9278    1.3258    1.7225 H   0  0  0  0  0  0  0  0  0  0  0  0
   -0.4630    1.7631    0.0687 H   0  0  0  0  0  0  0  0  0  0  0  0
    0.7955   -0.3344    1.9377 H   0  0  0  0  0  0  0  0  0  0  0  0
    1.6202    1.7393   -0.0495 H   0  0  0  0  0  0  0  0  0  0  0  0
    2.7212    0.4709    0.7245 H   0  0  0  0  0  0  0  0  0  0  0  0
    2.4172   -0.8403   -1.2153 H   0  0  0  0  0  0  0  0  0  0  0  0
    1.0129    0.1813   -1.8401 H   0  0  0  0  0  0  0  0  0  0  0  0
    0.9857   -2.0273    0.2359 H   0  0  0  0  0  0  0  0  0  0  0  0
   -1.0029   -1.1924   -1.6052 H   0  0  0  0  0  0  0  0  0  0  0  0
   -1.2912   -2.1080   -0.1122 H   0  0  0  0  0  0  0  0  0  0  0  0
  1  2  1  0
  2  3  1  0
  3  4  1  0
  4  5  1  0
  5  6  1  0
  6  7  1  0
  7  8  1  0
  8  2  1  0
  7  4  1  0
  1  9  1  0
  2 10  1  0
  3 11  1  0
  3 12  1  0
  4 13  1  0
  5 14  1  0
  5 15  1  0
  6 16  1  0
  6 17  1  0
  7 18  1  0
  8 19  1  0
  8 20  1  0
M  END
