
     RDKit          3D

 23 24  0  0  0  0  0  0  0  0999 V2000
   -1.8996    1.7472   -0.3203 O   0  0  0  0  0  0  0  0  0  0  0  0
   -1.9484    0.3832   -0.5518 C   0  0  0  0  0  0  0  0  0  0  0  0
   -2.3734   -0.4158    0.6742 C   0  0  0  0  0  0  0  0  0  0  0  0
   -1.3003   -1.4313    0.3056 C   0  0  0  0  0  0  0  0  0  0  0  0
   -0.6145   -0.3113   -0.4762 C   0  0  0  0  0  0  0  0  0  0  0  0
    0.3468    0.4928    0.3623 C   0  0  0  0  0  0  0  0  0  0  0  0
    1.6927   -0.1367    0.4814 C   0  0  0  0  0  0  0  0  0  0  0  0
    2.5408   -0.4138   -0.6986 C   0  0  0  0  0  0  0  0  0  0  0  0
    2.8576    0.7755    0.1201 C   0  0  0  0  0  0  0  0  0  0  0  0
   -2.5862    2.1954   -0.8902 H   0  0  0  0  0  0  0  0  0  0  0  0
   -2.4899    0.0835   -1.4855 H   0  0  0  0  0  0  0  0  0  0  0  0
   -3.4086   -0.7691    0.5664 H   0  0  0  0  0  0  0  0  0  0  0  0
   -2.1103    0.1057    1.6064 H   0  0  0  0  0  0  0  0  0  0  0  0
   -0.6760   -1.7578    1.1573 H   0  0  0  0  0  0  0  0  0  0  0  0
   -1.6609   -2.2636   -0.3203 H   0  0  0  0  0  0  0  0  0  0  0  0
   -0.2299   -0.6201   -1.4539 H   0  0  0  0  0  0  0  0  0  0  0  0
    0.4161    1.5554   -0.0085 H   0  0  0  0  0  0  0  0  0  0  0  0
   -0.0910    0.5787    1.3780 H   0  0  0  0  0  0  0  0  0  0  0  0
    1.8152   -0.8144    1.3619 H   0  0  0  0  0  0  0  0  0  0  0  0
    3.2519   -1.2600   -0.6123 H   0  0  0  0  0  0  0  0  0  0  0  0
    2.1652   -0.2663   -1.7293 H   0  0  0  0  0  0  0  0  0  0  0  0
    2.6312    1.7597   -0.3319 H   0  0  0  0  0  0  0  0  0  0  0  0
    3.6715    0.7833    0.8653 H   0  0  0  0  0  0  0  0  0  0  0  0
  1  2  1  0
  2  3  1  0
  3  4  1  0
  4  5  1  0
  5  6  1  0
  6  7  1  0
  7  8  1  0
  8  9  1  0
  5  2  1  0
  9  7  1  0
  1 10  1  0
  2 11  1  0
  3 12  1  0
  3 13  1  0
  4 14  1  0
  4 15  1  0
  5 16  1  0
  6 17  1  0
  6 18  1  0
  7 19  1  0
  8 20  1  0
  8 21  1  0
  9 22  1  0
  9 23  1  0
M  END
