
     RDKit          3D

 18 19  0  0  0  0  0  0  0  0999 V2000
   -1.3257   -1.8078   -0.1503 O   0  0  0  0  0  0  0  0  0  0  0  0
   -1.0930   -0.4573   -0.4480 C   0  0  0  0  0  0  0  0  0  0  0  0
   -1.3652    0.5615    0.6566 C   0  0  0  0  0  0  0  0  0  0  0  0
   -1.9262    1.7408    0.1759 O   0  0  0  0  0  0  0  0  0  0  0  0
   -0.0227    0.2590    0.3855 C   0  0  0  0  0  0  0  0  0  0  0  0
    1.0353    1.0269   -0.2887 C   0  0  0  0  0  0  0  0  0  0  0  0
    1.7993   -0.3081   -0.3159 C   0  0  0  0  0  0  0  0  0  0  0  0
    0.9744   -0.6364    0.9415 C   0  0  0  0  0  0  0  0  0  0  0  0
   -1.7713   -2.2009   -0.9248 H   0  0  0  0  0  0  0  0  0  0  0  0
   -1.0951   -0.1340   -1.4892 H   0  0  0  0  0  0  0  0  0  0  0  0
   -1.8652    0.1937    1.5764 H   0  0  0  0  0  0  0  0  0  0  0  0
   -2.2940    1.6503   -0.7408 H   0  0  0  0  0  0  0  0  0  0  0  0
    1.5370    1.7302    0.4008 H   0  0  0  0  0  0  0  0  0  0  0  0
    0.7695    1.4155   -1.2777 H   0  0  0  0  0  0  0  0  0  0  0  0
    2.8658   -0.2227   -0.1578 H   0  0  0  0  0  0  0  0  0  0  0  0
    1.4494   -0.8698   -1.2081 H   0  0  0  0  0  0  0  0  0  0  0  0
    0.7660   -1.7036    1.0474 H   0  0  0  0  0  0  0  0  0  0  0  0
    1.5617   -0.2372    1.8170 H   0  0  0  0  0  0  0  0  0  0  0  0
  1  2  1  0
  2  3  1  0
  3  4  1  0
  3  5  1  0
  5  6  1  0
  6  7  1  0
  7  8  1  0
  5  2  1  0
  8  5  1  0
  1  9  1  0
  2 10  1  0
  3 11  1  0
  4 12  1  0
  6 13  1  0
  6 14  1  0
  7 15  1  0
  7 16  1  0
  8 17  1  0
  8 18  1  0
M  END
