
     RDKit          3D

 19 21  0  0  0  0  0  0  0  0999 V2000
    2.5959    0.0325    0.5511 O   0  0  0  0  0  0  0  0  0  0  0  0
    1.3388    0.0046   -0.0237 C   0  0  0  0  0  0  0  0  0  0  0  0
    0.8457   -1.4050   -0.3331 C   0  0  0  0  0  0  0  0  0  0  0  0
   -0.5145   -0.9119    0.1832 C   0  0  0  0  0  0  0  0  0  0  0  0
   -1.4422   -0.2915   -0.7413 C   0  0  0  0  0  0  0  0  0  0  0  0
   -1.5403    1.0151   -0.6226 C   0  0  0  0  0  0  0  0  0  0  0  0
   -0.6551    1.4840    0.4447 C   0  0  0  0  0  0  0  0  0  0  0  0
    0.1775    0.3003    0.8482 C   0  0  0  0  0  0  0  0  0  0  0  0
   -0.5280   -0.7284    1.6420 C   0  0  0  0  0  0  0  0  0  0  0  0
    3.1889    0.7179    0.1505 H   0  0  0  0  0  0  0  0  0  0  0  0
    1.3593    0.5801   -0.9775 H   0  0  0  0  0  0  0  0  0  0  0  0
    0.8211   -1.6629   -1.4003 H   0  0  0  0  0  0  0  0  0  0  0  0
    1.2895   -2.1524    0.3502 H   0  0  0  0  0  0  0  0  0  0  0  0
   -2.0408   -0.8343   -1.5023 H   0  0  0  0  0  0  0  0  0  0  0  0
   -2.1922    1.6713   -1.2341 H   0  0  0  0  0  0  0  0  0  0  0  0
   -1.2675    1.8171    1.3322 H   0  0  0  0  0  0  0  0  0  0  0  0
    0.0130    2.3113    0.1364 H   0  0  0  0  0  0  0  0  0  0  0  0
   -1.4931   -0.4681    2.0886 H   0  0  0  0  0  0  0  0  0  0  0  0
    0.0441   -1.4799    2.2324 H   0  0  0  0  0  0  0  0  0  0  0  0
  1  2  1  0
  2  3  1  0
  3  4  1  0
  4  5  1  0
  5  6  2  0
  6  7  1  0
  7  8  1  0
  8  9  1  0
  8  2  1  0
  8  4  1  0
  9  4  1  0
  1 10  1  0
  2 11  1  0
  3 12  1  0
  3 13  1  0
  5 14  1  0
  6 15  1  0
  7 16  1  0
  7 17  1  0
  9 18  1  0
  9 19  1  0
M  END
