
     RDKit          3D

 21 22  0  0  0  0  0  0  0  0999 V2000
    0.0767    2.3049    0.4950 O   0  0  0  0  0  0  0  0  0  0  0  0
   -0.2031    0.9551    0.7336 C   0  0  0  0  0  0  0  0  0  0  0  0
   -1.6278    0.6933    0.3104 C   0  0  0  0  0  0  0  0  0  0  0  0
   -1.6288   -0.5567   -0.5124 C   0  0  0  0  0  0  0  0  0  0  0  0
   -0.2137   -0.9813   -0.7262 C   0  0  0  0  0  0  0  0  0  0  0  0
   -0.0055   -2.2196   -0.0894 O   0  0  0  0  0  0  0  0  0  0  0  0
    0.6641    0.0233   -0.0312 C   0  0  0  0  0  0  0  0  0  0  0  0
    1.9109   -0.5241    0.5873 C   0  0  0  0  0  0  0  0  0  0  0  0
    1.9715    0.3867   -0.5874 C   0  0  0  0  0  0  0  0  0  0  0  0
   -0.5257    2.6187   -0.2415 H   0  0  0  0  0  0  0  0  0  0  0  0
   -0.0324    0.7906    1.8143 H   0  0  0  0  0  0  0  0  0  0  0  0
   -2.3218    0.6532    1.1814 H   0  0  0  0  0  0  0  0  0  0  0  0
   -1.9992    1.5208   -0.3459 H   0  0  0  0  0  0  0  0  0  0  0  0
   -2.0939   -0.4218   -1.5211 H   0  0  0  0  0  0  0  0  0  0  0  0
   -2.2114   -1.3326    0.0069 H   0  0  0  0  0  0  0  0  0  0  0  0
    0.0507   -1.1259   -1.7974 H   0  0  0  0  0  0  0  0  0  0  0  0
   -0.6109   -2.3522    0.6752 H   0  0  0  0  0  0  0  0  0  0  0  0
    2.1090   -1.6184    0.4720 H   0  0  0  0  0  0  0  0  0  0  0  0
    2.1645   -0.1667    1.6087 H   0  0  0  0  0  0  0  0  0  0  0  0
    2.3045    1.4223   -0.4566 H   0  0  0  0  0  0  0  0  0  0  0  0
    2.2222   -0.0695   -1.5759 H   0  0  0  0  0  0  0  0  0  0  0  0
  1  2  1  0
  2  3  1  0
  3  4  1  0
  4  5  1  0
  5  6  1  0
  5  7  1  0
  7  8  1  0
  8  9  1  0
  7  2  1  0
  9  7  1  0
  1 10  1  0
  2 11  1  0
  3 12  1  0
  3 13  1  0
  4 14  1  0
  4 15  1  0
  5 16  1  0
  6 17  1  0
  8 18  1  0
  8 19  1  0
  9 20  1  0
  9 21  1  0
M  END
