
     RDKit          3D

 21 22  0  0  0  0  0  0  0  0999 V2000
    2.5472   -0.7599    1.0190 O   0  0  0  0  0  0  0  0  0  0  0  0
    1.6949   -0.4084   -0.0189 C   0  0  0  0  0  0  0  0  0  0  0  0
    1.5347    1.0716   -0.1432 C   0  0  0  0  0  0  0  0  0  0  0  0
    0.2590    1.5570    0.4486 C   0  0  0  0  0  0  0  0  0  0  0  0
   -0.8878    0.8614    0.2895 C   0  0  0  0  0  0  0  0  0  0  0  0
   -2.3098    0.5533    0.4306 C   0  0  0  0  0  0  0  0  0  0  0  0
   -2.0917   -0.7857   -0.2465 C   0  0  0  0  0  0  0  0  0  0  0  0
   -0.6808   -0.4002   -0.5248 C   0  0  0  0  0  0  0  0  0  0  0  0
    0.3951   -1.1533    0.1856 C   0  0  0  0  0  0  0  0  0  0  0  0
    3.5100   -0.7409    0.7522 H   0  0  0  0  0  0  0  0  0  0  0  0
    2.1367   -0.7979   -0.9592 H   0  0  0  0  0  0  0  0  0  0  0  0
    2.3590    1.5389    0.4667 H   0  0  0  0  0  0  0  0  0  0  0  0
    1.6040    1.3785   -1.2029 H   0  0  0  0  0  0  0  0  0  0  0  0
    0.2165    2.4766    1.0197 H   0  0  0  0  0  0  0  0  0  0  0  0
   -2.6898    0.3761    1.4564 H   0  0  0  0  0  0  0  0  0  0  0  0
   -2.9440    1.2643   -0.1014 H   0  0  0  0  0  0  0  0  0  0  0  0
   -2.2554   -1.6720    0.3904 H   0  0  0  0  0  0  0  0  0  0  0  0
   -2.6907   -0.7985   -1.1949 H   0  0  0  0  0  0  0  0  0  0  0  0
   -0.4260   -0.1809   -1.5732 H   0  0  0  0  0  0  0  0  0  0  0  0
    0.5306   -2.1946   -0.1670 H   0  0  0  0  0  0  0  0  0  0  0  0
    0.1881   -1.1853    1.2903 H   0  0  0  0  0  0  0  0  0  0  0  0
  1  2  1  0
  2  3  1  0
  3  4  1  0
  4  5  2  0
  5  6  1  0
  6  7  1  0
  7  8  1  0
  8  9  1  0
  9  2  1  0
  8  5  1  0
  1 10  1  0
  2 11  1  0
  3 12  1  0
  3 13  1  0
  4 14  1  0
  6 15  1  0
  6 16  1  0
  7 17  1  0
  7 18  1  0
  8 19  1  0
  9 20  1  0
  9 21  1  0
M  END
