
     RDKit          3D

 15 16  0  0  0  0  0  0  0  0999 V2000
    2.3260   -0.0554    0.4603 O   0  0  0  0  0  0  0  0  0  0  0  0
    1.0587   -0.0804   -0.0771 C   0  0  0  0  0  0  0  0  0  0  0  0
    0.0012   -0.7335    0.7731 C   0  0  0  0  0  0  0  0  0  0  0  0
   -1.1837   -0.7117   -0.1863 C   0  0  0  0  0  0  0  0  0  0  0  0
   -1.0783    0.7798   -0.5579 C   0  0  0  0  0  0  0  0  0  0  0  0
    0.1744    1.0888    0.2404 C   0  0  0  0  0  0  0  0  0  0  0  0
   -0.1007    0.4687    1.4582 O   0  0  0  0  0  0  0  0  0  0  0  0
    2.8471   -0.7802    0.0180 H   0  0  0  0  0  0  0  0  0  0  0  0
    0.9680   -0.4460   -1.1218 H   0  0  0  0  0  0  0  0  0  0  0  0
    0.2175   -1.6310    1.2937 H   0  0  0  0  0  0  0  0  0  0  0  0
   -0.8955   -1.3020   -1.0542 H   0  0  0  0  0  0  0  0  0  0  0  0
   -2.1249   -0.9530    0.2860 H   0  0  0  0  0  0  0  0  0  0  0  0
   -1.9036    1.3567   -0.1461 H   0  0  0  0  0  0  0  0  0  0  0  0
   -0.8696    0.9230   -1.6170 H   0  0  0  0  0  0  0  0  0  0  0  0
    0.5631    2.0760    0.2307 H   0  0  0  0  0  0  0  0  0  0  0  0
  1  2  1  0
  2  3  1  0
  3  4  1  0
  4  5  1  0
  5  6  1  0
  6  7  1  0
  6  2  1  0
  7  3  1  0
  1  8  1  0
  2  9  1  0
  3 10  1  0
  4 11  1  0
  4 12  1  0
  5 13  1  0
  5 14  1  0
  6 15  1  0
M  END
