
     RDKit          3D

 21 22  0  0  0  0  0  0  0  0999 V2000
   -2.3778    0.6940   -1.0348 O   0  0  0  0  0  0  0  0  0  0  0  0
   -1.9129    0.3823    0.2154 C   0  0  0  0  0  0  0  0  0  0  0  0
   -1.7671   -1.0908    0.5312 C   0  0  0  0  0  0  0  0  0  0  0  0
   -0.2908   -1.0169    0.4349 C   0  0  0  0  0  0  0  0  0  0  0  0
    0.9685   -1.4388    0.3737 C   0  0  0  0  0  0  0  0  0  0  0  0
    2.1269   -0.5256    0.2610 C   0  0  0  0  0  0  0  0  0  0  0  0
    1.8156    0.7516   -0.4531 C   0  0  0  0  0  0  0  0  0  0  0  0
    0.3625    0.9070   -0.8146 C   0  0  0  0  0  0  0  0  0  0  0  0
   -0.4423    0.4868    0.3798 C   0  0  0  0  0  0  0  0  0  0  0  0
   -2.9544    1.5070   -0.9886 H   0  0  0  0  0  0  0  0  0  0  0  0
   -2.5145    0.8646    1.0131 H   0  0  0  0  0  0  0  0  0  0  0  0
   -2.2473   -1.7792   -0.2033 H   0  0  0  0  0  0  0  0  0  0  0  0
   -2.0493   -1.3902    1.5581 H   0  0  0  0  0  0  0  0  0  0  0  0
    1.1294   -2.5082    0.4099 H   0  0  0  0  0  0  0  0  0  0  0  0
    2.5360   -0.3060    1.2762 H   0  0  0  0  0  0  0  0  0  0  0  0
    2.9288   -1.0615   -0.2896 H   0  0  0  0  0  0  0  0  0  0  0  0
    2.4013    0.8328   -1.4016 H   0  0  0  0  0  0  0  0  0  0  0  0
    2.1019    1.6170    0.1599 H   0  0  0  0  0  0  0  0  0  0  0  0
    0.1237    0.2127   -1.6443 H   0  0  0  0  0  0  0  0  0  0  0  0
    0.1843    1.9459   -1.1325 H   0  0  0  0  0  0  0  0  0  0  0  0
   -0.1223    0.9155    1.3491 H   0  0  0  0  0  0  0  0  0  0  0  0
  1  2  1  0
  2  3  1  0
  3  4  1  0
  4  5  2  0
  5  6  1  0
  6  7  1  0
  7  8  1  0
  8  9  1  0
  9  2  1  0
  9  4  1  0
  1 10  1  0
  2 11  1  0
  3 12  1  0
  3 13  1  0
  5 14  1  0
  6 15  1  0
  6 16  1  0
  7 17  1  0
  7 18  1  0
  8 19  1  0
  8 20  1  0
  9 21  1  0
M  END
