
     RDKit          3D

 21 22  0  0  0  0  0  0  0  0999 V2000
   -3.0003   -0.6644   -1.2761 O   0  0  0  0  0  0  0  0  0  0  0  0
   -1.7370   -0.1318   -1.0557 C   0  0  0  0  0  0  0  0  0  0  0  0
   -1.7855    1.1518   -0.2559 C   0  0  0  0  0  0  0  0  0  0  0  0
   -0.4356    1.1821    0.3442 C   0  0  0  0  0  0  0  0  0  0  0  0
    0.0846   -0.0379    0.4076 C   0  0  0  0  0  0  0  0  0  0  0  0
    1.4277   -0.3717    0.9551 C   0  0  0  0  0  0  0  0  0  0  0  0
    2.5598    0.4768    0.3345 C   0  0  0  0  0  0  0  0  0  0  0  0
    2.4501   -1.0182    0.1087 C   0  0  0  0  0  0  0  0  0  0  0  0
   -0.8910   -1.0197   -0.1586 C   0  0  0  0  0  0  0  0  0  0  0  0
   -3.6529   -0.0285   -0.8460 H   0  0  0  0  0  0  0  0  0  0  0  0
   -1.1874    0.0881   -1.9875 H   0  0  0  0  0  0  0  0  0  0  0  0
   -2.5921    1.0637    0.5101 H   0  0  0  0  0  0  0  0  0  0  0  0
   -2.0027    2.0399   -0.8807 H   0  0  0  0  0  0  0  0  0  0  0  0
    0.0901    2.0760    0.6981 H   0  0  0  0  0  0  0  0  0  0  0  0
    1.5011   -0.5572    2.0488 H   0  0  0  0  0  0  0  0  0  0  0  0
    3.2990    0.8615    1.0455 H   0  0  0  0  0  0  0  0  0  0  0  0
    2.3164    1.0766   -0.5579 H   0  0  0  0  0  0  0  0  0  0  0  0
    3.2521   -1.5871    0.6150 H   0  0  0  0  0  0  0  0  0  0  0  0
    2.1524   -1.4077   -0.8717 H   0  0  0  0  0  0  0  0  0  0  0  0
   -1.4858   -1.3939    0.6759 H   0  0  0  0  0  0  0  0  0  0  0  0
   -0.3628   -1.7984   -0.7400 H   0  0  0  0  0  0  0  0  0  0  0  0
  1  2  1  0
  2  3  1  0
  3  4  1  0
  4  5  2  0
  5  6  1  0
  6  7  1  0
  7  8  1  0
  5  9  1  0
  9  2  1  0
  8  6  1  0
  1 10  1  0
  2 11  1  0
  3 12  1  0
  3 13  1  0
  4 14  1  0
  6 15  1  0
  7 16  1  0
  7 17  1  0
  8 18  1  0
  8 19  1  0
  9 20  1  0
  9 21  1  0
M  END
