
     RDKit          3D

 21 22  0  0  0  0  0  0  0  0999 V2000
   -1.0656    1.8766   -0.4535 O   0  0  0  0  0  0  0  0  0  0  0  0
   -0.9319    0.5497   -0.7788 C   0  0  0  0  0  0  0  0  0  0  0  0
   -2.0732   -0.2119   -0.0941 C   0  0  0  0  0  0  0  0  0  0  0  0
   -1.4226   -1.5085    0.3101 C   0  0  0  0  0  0  0  0  0  0  0  0
   -0.1055   -1.4042    0.2794 C   0  0  0  0  0  0  0  0  0  0  0  0
    0.2500   -0.0523   -0.1405 C   0  0  0  0  0  0  0  0  0  0  0  0
    0.9070    0.7199    0.9791 C   0  0  0  0  0  0  0  0  0  0  0  0
    2.2055    0.0515    0.5186 C   0  0  0  0  0  0  0  0  0  0  0  0
    1.5657    0.0472   -0.8799 C   0  0  0  0  0  0  0  0  0  0  0  0
   -2.0301    2.1078   -0.5591 H   0  0  0  0  0  0  0  0  0  0  0  0
   -0.9955    0.4292   -1.8745 H   0  0  0  0  0  0  0  0  0  0  0  0
   -2.8878   -0.4458   -0.7816 H   0  0  0  0  0  0  0  0  0  0  0  0
   -2.3685    0.2892    0.8255 H   0  0  0  0  0  0  0  0  0  0  0  0
   -2.0021   -2.3730    0.5784 H   0  0  0  0  0  0  0  0  0  0  0  0
    0.5633   -2.2281    0.5365 H   0  0  0  0  0  0  0  0  0  0  0  0
    0.8600    1.8063    0.7714 H   0  0  0  0  0  0  0  0  0  0  0  0
    0.5942    0.4203    2.0021 H   0  0  0  0  0  0  0  0  0  0  0  0
    2.2891   -0.9608    0.9376 H   0  0  0  0  0  0  0  0  0  0  0  0
    3.0649    0.7139    0.6247 H   0  0  0  0  0  0  0  0  0  0  0  0
    1.8656   -0.8462   -1.4487 H   0  0  0  0  0  0  0  0  0  0  0  0
    1.7176    1.0191   -1.3530 H   0  0  0  0  0  0  0  0  0  0  0  0
  1  2  1  0
  2  3  1  0
  3  4  1  0
  4  5  2  0
  5  6  1  0
  6  7  1  0
  7  8  1  0
  8  9  1  0
  6  2  1  0
  9  6  1  0
  1 10  1  0
  2 11  1  0
  3 12  1  0
  3 13  1  0
  4 14  1  0
  5 15  1  0
  7 16  1  0
  7 17  1  0
  8 18  1  0
  8 19  1  0
  9 20  1  0
  9 21  1  0
M  END
