
     RDKit          3D

 17 19  0  0  0  0  0  0  0  0999 V2000
    2.2803    0.2795   -0.2061 O   0  0  0  0  0  0  0  0  0  0  0  0
    1.0775    0.0562    0.4203 C   0  0  0  0  0  0  0  0  0  0  0  0
    0.1628    1.2451    0.5659 C   0  0  0  0  0  0  0  0  0  0  0  0
   -1.3080    0.8892    0.6325 C   0  0  0  0  0  0  0  0  0  0  0  0
   -1.6815   -0.4025    0.9542 O   0  0  0  0  0  0  0  0  0  0  0  0
   -0.9802   -1.2857    0.1742 C   0  0  0  0  0  0  0  0  0  0  0  0
    0.0731   -0.5125   -0.5713 C   0  0  0  0  0  0  0  0  0  0  0  0
    0.5445   -1.0006   -1.7338 O   0  0  0  0  0  0  0  0  0  0  0  0
   -0.5514    0.8483   -0.6278 C   0  0  0  0  0  0  0  0  0  0  0  0
    2.8826    0.8985    0.2649 H   0  0  0  0  0  0  0  0  0  0  0  0
    1.1092   -0.5026    1.3803 H   0  0  0  0  0  0  0  0  0  0  0  0
    0.5239    2.2268    0.8287 H   0  0  0  0  0  0  0  0  0  0  0  0
   -1.9746    1.6979    0.9136 H   0  0  0  0  0  0  0  0  0  0  0  0
   -0.4496   -1.9957    0.8685 H   0  0  0  0  0  0  0  0  0  0  0  0
   -1.5915   -1.8756   -0.5227 H   0  0  0  0  0  0  0  0  0  0  0  0
    0.6281   -1.9615   -1.8222 H   0  0  0  0  0  0  0  0  0  0  0  0
   -0.7449    1.3952   -1.5191 H   0  0  0  0  0  0  0  0  0  0  0  0
  1  2  1  0
  2  3  1  0
  3  4  1  0
  4  5  1  0
  5  6  1  0
  6  7  1  0
  7  8  1  0
  7  9  1  0
  7  2  1  0
  9  3  1  0
  9  4  1  0
  1 10  1  0
  2 11  1  0
  3 12  1  0
  4 13  1  0
  6 14  1  0
  6 15  1  0
  8 16  1  0
  9 17  1  0
M  END
