
     RDKit          3D

 21 23  0  0  0  0  0  0  0  0999 V2000
    2.0201    1.1827    0.6763 O   0  0  0  0  0  0  0  0  0  0  0  0
    0.8952    1.2072   -0.1316 C   0  0  0  0  0  0  0  0  0  0  0  0
   -0.3818    1.0930    0.7135 C   0  0  0  0  0  0  0  0  0  0  0  0
   -1.3854    0.7494   -0.3559 C   0  0  0  0  0  0  0  0  0  0  0  0
   -0.6574   -0.3089   -1.1812 C   0  0  0  0  0  0  0  0  0  0  0  0
   -0.6053   -1.6710   -0.4752 C   0  0  0  0  0  0  0  0  0  0  0  0
    0.4980   -1.0579    0.3888 C   0  0  0  0  0  0  0  0  0  0  0  0
   -0.0813   -0.1701    1.4763 C   0  0  0  0  0  0  0  0  0  0  0  0
    0.7782   -0.1422   -0.7998 C   0  0  0  0  0  0  0  0  0  0  0  0
    2.6862    0.5871    0.2238 H   0  0  0  0  0  0  0  0  0  0  0  0
    0.8557    2.0508   -0.8264 H   0  0  0  0  0  0  0  0  0  0  0  0
   -0.5942    1.9639    1.3015 H   0  0  0  0  0  0  0  0  0  0  0  0
   -2.3163    0.3884    0.0772 H   0  0  0  0  0  0  0  0  0  0  0  0
   -1.5681    1.6072   -1.0288 H   0  0  0  0  0  0  0  0  0  0  0  0
   -0.9139   -0.3479   -2.2325 H   0  0  0  0  0  0  0  0  0  0  0  0
   -1.5113   -1.9560    0.0509 H   0  0  0  0  0  0  0  0  0  0  0  0
   -0.1438   -2.3973   -1.1608 H   0  0  0  0  0  0  0  0  0  0  0  0
    1.2993   -1.7255    0.6780 H   0  0  0  0  0  0  0  0  0  0  0  0
    0.6291   -0.0096    2.2953 H   0  0  0  0  0  0  0  0  0  0  0  0
   -1.0503   -0.5988    1.7902 H   0  0  0  0  0  0  0  0  0  0  0  0
    1.5473   -0.4446   -1.4796 H   0  0  0  0  0  0  0  0  0  0  0  0
  1  2  1  0
  2  3  1  0
  3  4  1  0
  4  5  1  0
  5  6  1  0
  6  7  1  0
  7  8  1  0
  7  9  1  0
  9  2  1  0
  8  3  1  0
  9  5  1  0
  1 10  1  0
  2 11  1  0
  3 12  1  0
  4 13  1  0
  4 14  1  0
  5 15  1  0
  6 16  1  0
  6 17  1  0
  7 18  1  0
  8 19  1  0
  8 20  1  0
  9 21  1  0
M  END
