
     RDKit          3D

 19 21  0  0  0  0  0  0  0  0999 V2000
    1.7961   -1.4145    0.3064 O   0  0  0  0  0  0  0  0  0  0  0  0
    1.1862   -0.3783   -0.3615 C   0  0  0  0  0  0  0  0  0  0  0  0
    0.9226    0.8299    0.4967 C   0  0  0  0  0  0  0  0  0  0  0  0
   -0.0202    1.5994   -0.4488 C   0  0  0  0  0  0  0  0  0  0  0  0
   -1.0333    0.4812   -0.5689 C   0  0  0  0  0  0  0  0  0  0  0  0
   -1.1310    0.0708    0.9062 C   0  0  0  0  0  0  0  0  0  0  0  0
   -1.0052   -1.3716    0.3941 C   0  0  0  0  0  0  0  0  0  0  0  0
   -0.2402   -0.7562   -0.7875 C   0  0  0  0  0  0  0  0  0  0  0  0
    0.0283    0.4960    1.5116 O   0  0  0  0  0  0  0  0  0  0  0  0
    2.6167   -1.0552    0.7269 H   0  0  0  0  0  0  0  0  0  0  0  0
    1.7080   -0.0832   -1.2721 H   0  0  0  0  0  0  0  0  0  0  0  0
    1.7778    1.3961    0.8008 H   0  0  0  0  0  0  0  0  0  0  0  0
    0.5538    1.7508   -1.3726 H   0  0  0  0  0  0  0  0  0  0  0  0
   -0.4100    2.5021    0.0189 H   0  0  0  0  0  0  0  0  0  0  0  0
   -1.9421    0.6580   -1.0879 H   0  0  0  0  0  0  0  0  0  0  0  0
   -2.0806    0.3106    1.3795 H   0  0  0  0  0  0  0  0  0  0  0  0
   -0.4147   -2.0291    1.0301 H   0  0  0  0  0  0  0  0  0  0  0  0
   -1.9881   -1.7205    0.0541 H   0  0  0  0  0  0  0  0  0  0  0  0
   -0.3240   -1.2864   -1.7260 H   0  0  0  0  0  0  0  0  0  0  0  0
  1  2  1  0
  2  3  1  0
  3  4  1  0
  4  5  1  0
  5  6  1  0
  6  7  1  0
  7  8  1  0
  6  9  1  0
  8  2  1  0
  9  3  1  0
  8  5  1  0
  1 10  1  0
  2 11  1  0
  3 12  1  0
  4 13  1  0
  4 14  1  0
  5 15  1  0
  6 16  1  0
  7 17  1  0
  7 18  1  0
  8 19  1  0
M  END
