
     RDKit          3D

 17 18  0  0  0  0  0  0  0  0999 V2000
    2.1051   -1.2631    0.7195 O   0  0  0  0  0  0  0  0  0  0  0  0
    0.9281   -0.5532    0.5060 C   0  0  0  0  0  0  0  0  0  0  0  0
    1.1840    0.8827    0.2147 C   0  0  0  0  0  0  0  0  0  0  0  0
    0.1188    1.5586   -0.2038 C   0  0  0  0  0  0  0  0  0  0  0  0
   -0.9496    0.7546   -0.8686 C   0  0  0  0  0  0  0  0  0  0  0  0
   -1.6862   -0.1316    0.1040 C   0  0  0  0  0  0  0  0  0  0  0  0
   -1.1714   -1.4341   -0.0927 O   0  0  0  0  0  0  0  0  0  0  0  0
    0.0980   -1.1216   -0.5995 C   0  0  0  0  0  0  0  0  0  0  0  0
   -0.2312   -0.2202   -1.6070 O   0  0  0  0  0  0  0  0  0  0  0  0
    2.3321   -1.2482    1.6824 H   0  0  0  0  0  0  0  0  0  0  0  0
    0.3598   -0.5601    1.4832 H   0  0  0  0  0  0  0  0  0  0  0  0
    2.1732    1.3555    0.3342 H   0  0  0  0  0  0  0  0  0  0  0  0
    0.0709    2.6322   -0.0518 H   0  0  0  0  0  0  0  0  0  0  0  0
   -1.5973    1.3561   -1.5029 H   0  0  0  0  0  0  0  0  0  0  0  0
   -1.5923    0.1880    1.1444 H   0  0  0  0  0  0  0  0  0  0  0  0
   -2.7438   -0.1858   -0.2316 H   0  0  0  0  0  0  0  0  0  0  0  0
    0.6015   -2.0098   -1.0305 H   0  0  0  0  0  0  0  0  0  0  0  0
  1  2  1  0
  2  3  1  0
  3  4  2  0
  4  5  1  0
  5  6  1  0
  6  7  1  0
  7  8  1  0
  8  9  1  0
  8  2  1  0
  9  5  1  0
  1 10  1  0
  2 11  1  0
  3 12  1  0
  4 13  1  0
  5 14  1  0
  6 15  1  0
  6 16  1  0
  8 17  1  0
M  END
