
     RDKit          3D

 14 14  0  0  0  0  0  0  0  0999 V2000
    2.1478   -0.6062   -0.3690 O   0  0  0  0  0  0  0  0  0  0  0  0
    0.8259   -0.3244   -0.6363 C   0  0  0  0  0  0  0  0  0  0  0  0
    0.3200    1.0197   -0.2299 C   0  0  0  0  0  0  0  0  0  0  0  0
   -0.8565    0.3637    0.4757 C   0  0  0  0  0  0  0  0  0  0  0  0
   -2.0719    0.5148   -0.1727 O   0  0  0  0  0  0  0  0  0  0  0  0
   -0.1780   -0.9689    0.2951 C   0  0  0  0  0  0  0  0  0  0  0  0
    2.5389   -0.0125    0.3134 H   0  0  0  0  0  0  0  0  0  0  0  0
    0.5899   -0.5247   -1.6987 H   0  0  0  0  0  0  0  0  0  0  0  0
   -0.0518    1.6438   -1.0538 H   0  0  0  0  0  0  0  0  0  0  0  0
    0.9162    1.5903    0.4942 H   0  0  0  0  0  0  0  0  0  0  0  0
   -0.9390    0.6093    1.5580 H   0  0  0  0  0  0  0  0  0  0  0  0
   -2.6723   -0.2392    0.0060 H   0  0  0  0  0  0  0  0  0  0  0  0
    0.2727   -1.3756    1.2242 H   0  0  0  0  0  0  0  0  0  0  0  0
   -0.8421   -1.6899   -0.2062 H   0  0  0  0  0  0  0  0  0  0  0  0
  1  2  1  0
  2  3  1  0
  3  4  1  0
  4  5  1  0
  4  6  1  0
  6  2  1  0
  1  7  1  0
  2  8  1  0
  3  9  1  0
  3 10  1  0
  4 11  1  0
  5 12  1  0
  6 13  1  0
  6 14  1  0
M  END
