
     RDKit          3D

 17 19  0  0  0  0  0  0  0  0999 V2000
   -1.5379    1.6232    0.2162 O   0  0  0  0  0  0  0  0  0  0  0  0
   -1.0735    0.3474    0.4987 C   0  0  0  0  0  0  0  0  0  0  0  0
   -1.8086   -0.7647   -0.2006 C   0  0  0  0  0  0  0  0  0  0  0  0
   -0.7139   -1.0286   -1.0437 O   0  0  0  0  0  0  0  0  0  0  0  0
    0.0324   -0.1886   -0.2954 C   0  0  0  0  0  0  0  0  0  0  0  0
    1.1721   -0.8498    0.4889 C   0  0  0  0  0  0  0  0  0  0  0  0
    2.0527    0.2216   -0.1623 C   0  0  0  0  0  0  0  0  0  0  0  0
    2.0998    0.0580   -1.5407 O   0  0  0  0  0  0  0  0  0  0  0  0
    1.0138    0.7090   -0.9182 C   0  0  0  0  0  0  0  0  0  0  0  0
   -1.6803    2.0926    1.0891 H   0  0  0  0  0  0  0  0  0  0  0  0
   -0.9095    0.1561    1.5987 H   0  0  0  0  0  0  0  0  0  0  0  0
   -2.0936   -1.5886    0.4649 H   0  0  0  0  0  0  0  0  0  0  0  0
   -2.6654   -0.4462   -0.8385 H   0  0  0  0  0  0  0  0  0  0  0  0
    1.3670   -1.8674    0.0569 H   0  0  0  0  0  0  0  0  0  0  0  0
    1.0907   -0.8034    1.5643 H   0  0  0  0  0  0  0  0  0  0  0  0
    2.8717    0.6594    0.3941 H   0  0  0  0  0  0  0  0  0  0  0  0
    0.7824    1.6699   -1.3725 H   0  0  0  0  0  0  0  0  0  0  0  0
  1  2  1  0
  2  3  1  0
  3  4  1  0
  4  5  1  0
  5  6  1  0
  6  7  1  0
  7  8  1  0
  8  9  1  0
  5  2  1  0
  9  7  1  0
  9  5  1  0
  1 10  1  0
  2 11  1  0
  3 12  1  0
  3 13  1  0
  6 14  1  0
  6 15  1  0
  7 16  1  0
  9 17  1  0
M  END
