
     RDKit          3D

 21 22  0  0  0  0  0  0  0  0999 V2000
    0.7436   -0.2733   -1.9154 O   0  0  0  0  0  0  0  0  0  0  0  0
    0.4019   -0.8233   -0.6792 C   0  0  0  0  0  0  0  0  0  0  0  0
    1.5180   -0.5454    0.3165 C   0  0  0  0  0  0  0  0  0  0  0  0
    1.6936    0.9458    0.4101 C   0  0  0  0  0  0  0  0  0  0  0  0
    0.8580    1.6691   -0.3879 O   0  0  0  0  0  0  0  0  0  0  0  0
   -0.4702    1.4114   -0.2746 C   0  0  0  0  0  0  0  0  0  0  0  0
   -0.7972   -0.0437   -0.1776 C   0  0  0  0  0  0  0  0  0  0  0  0
   -1.3735   -0.5161    1.1604 C   0  0  0  0  0  0  0  0  0  0  0  0
   -2.1412   -0.5867   -0.1522 C   0  0  0  0  0  0  0  0  0  0  0  0
    1.2176   -0.8974   -2.4980 H   0  0  0  0  0  0  0  0  0  0  0  0
    0.1377   -1.8892   -0.7353 H   0  0  0  0  0  0  0  0  0  0  0  0
    2.4378   -1.0897    0.0962 H   0  0  0  0  0  0  0  0  0  0  0  0
    1.1227   -0.8930    1.3086 H   0  0  0  0  0  0  0  0  0  0  0  0
    1.6982    1.2799    1.4839 H   0  0  0  0  0  0  0  0  0  0  0  0
    2.7487    1.1557    0.0622 H   0  0  0  0  0  0  0  0  0  0  0  0
   -0.9819    1.9955    0.5456 H   0  0  0  0  0  0  0  0  0  0  0  0
   -0.9711    1.7897   -1.2143 H   0  0  0  0  0  0  0  0  0  0  0  0
   -1.6213    0.2782    1.8773 H   0  0  0  0  0  0  0  0  0  0  0  0
   -0.9293   -1.4375    1.5749 H   0  0  0  0  0  0  0  0  0  0  0  0
   -2.9877    0.0974   -0.3123 H   0  0  0  0  0  0  0  0  0  0  0  0
   -2.3045   -1.6273   -0.4888 H   0  0  0  0  0  0  0  0  0  0  0  0
  1  2  1  0
  2  3  1  0
  3  4  1  0
  4  5  1  0
  5  6  1  0
  6  7  1  0
  7  8  1  0
  8  9  1  0
  7  2  1  0
  9  7  1  0
  1 10  1  0
  2 11  1  0
  3 12  1  0
  3 13  1  0
  4 14  1  0
  4 15  1  0
  6 16  1  0
  6 17  1  0
  8 18  1  0
  8 19  1  0
  9 20  1  0
  9 21  1  0
M  END
