
     RDKit          3D

 16 17  0  0  0  0  0  0  0  0999 V2000
   -2.2366    0.2256    0.7239 O   0  0  0  0  0  0  0  0  0  0  0  0
   -0.9302   -0.2209    0.5542 C   0  0  0  0  0  0  0  0  0  0  0  0
   -0.7677   -0.9204   -0.7672 C   0  0  0  0  0  0  0  0  0  0  0  0
    0.1276   -0.2178   -1.5225 O   0  0  0  0  0  0  0  0  0  0  0  0
    0.9292    0.5269   -0.7100 C   0  0  0  0  0  0  0  0  0  0  0  0
    1.6815   -0.1623    0.3725 C   0  0  0  0  0  0  0  0  0  0  0  0
    1.1777    0.8002    1.2714 O   0  0  0  0  0  0  0  0  0  0  0  0
    0.0567    0.9086    0.4566 C   0  0  0  0  0  0  0  0  0  0  0  0
   -2.4885    0.8168   -0.0377 H   0  0  0  0  0  0  0  0  0  0  0  0
   -0.7007   -0.9020    1.4183 H   0  0  0  0  0  0  0  0  0  0  0  0
   -1.7506   -0.9806   -1.2794 H   0  0  0  0  0  0  0  0  0  0  0  0
   -0.3499   -1.9205   -0.5641 H   0  0  0  0  0  0  0  0  0  0  0  0
    1.4775    1.3211   -1.2028 H   0  0  0  0  0  0  0  0  0  0  0  0
    1.3546   -1.1652    0.6655 H   0  0  0  0  0  0  0  0  0  0  0  0
    2.7708   -0.0278    0.2752 H   0  0  0  0  0  0  0  0  0  0  0  0
   -0.3514    1.9183    0.3462 H   0  0  0  0  0  0  0  0  0  0  0  0
  1  2  1  0
  2  3  1  0
  3  4  1  0
  4  5  1  0
  5  6  1  0
  6  7  1  0
  7  8  1  0
  8  2  1  0
  8  5  1  0
  1  9  1  0
  2 10  1  0
  3 11  1  0
  3 12  1  0
  5 13  1  0
  6 14  1  0
  6 15  1  0
  8 16  1  0
M  END
