
     RDKit          3D

 19 20  0  0  0  0  0  0  0  0999 V2000
    3.1058   -0.1229   -0.0113 O   0  0  0  0  0  0  0  0  0  0  0  0
    1.8169    0.3033    0.0363 C   0  0  0  0  0  0  0  0  0  0  0  0
    0.8268   -0.4743   -0.8427 C   0  0  0  0  0  0  0  0  0  0  0  0
   -0.1737   -0.1625    0.2523 C   0  0  0  0  0  0  0  0  0  0  0  0
   -0.8253    1.1361    0.0916 C   0  0  0  0  0  0  0  0  0  0  0  0
   -2.0997    0.9169   -0.1845 C   0  0  0  0  0  0  0  0  0  0  0  0
   -2.3012   -0.5530   -0.2084 C   0  0  0  0  0  0  0  0  0  0  0  0
   -1.1808   -1.0790    0.4283 O   0  0  0  0  0  0  0  0  0  0  0  0
    0.9821   -0.2322    1.2081 C   0  0  0  0  0  0  0  0  0  0  0  0
    3.2753   -0.9441   -0.5130 H   0  0  0  0  0  0  0  0  0  0  0  0
    1.6159    1.3729   -0.0765 H   0  0  0  0  0  0  0  0  0  0  0  0
    0.6455    0.0686   -1.7970 H   0  0  0  0  0  0  0  0  0  0  0  0
    1.0464   -1.5416   -0.9329 H   0  0  0  0  0  0  0  0  0  0  0  0
   -0.3712    2.1462    0.1773 H   0  0  0  0  0  0  0  0  0  0  0  0
   -2.8817    1.6696   -0.3662 H   0  0  0  0  0  0  0  0  0  0  0  0
   -3.2073   -0.7486    0.4205 H   0  0  0  0  0  0  0  0  0  0  0  0
   -2.4301   -0.9332   -1.2426 H   0  0  0  0  0  0  0  0  0  0  0  0
    0.9473    0.4388    2.0753 H   0  0  0  0  0  0  0  0  0  0  0  0
    1.2090   -1.2613    1.4854 H   0  0  0  0  0  0  0  0  0  0  0  0
  1  2  1  0
  2  3  1  0
  3  4  1  0
  4  5  1  0
  5  6  2  0
  6  7  1  0
  7  8  1  0
  4  9  1  0
  9  2  1  0
  8  4  1  0
  1 10  1  0
  2 11  1  0
  3 12  1  0
  3 13  1  0
  5 14  1  0
  6 15  1  0
  7 16  1  0
  7 17  1  0
  9 18  1  0
  9 19  1  0
M  END
