
     RDKit          3D

 17 19  0  0  0  0  0  0  0  0999 V2000
    1.6275   -0.6965    1.7439 O   0  0  0  0  0  0  0  0  0  0  0  0
    1.2949   -0.5833    0.3981 C   0  0  0  0  0  0  0  0  0  0  0  0
    1.1838    0.8353   -0.1810 C   0  0  0  0  0  0  0  0  0  0  0  0
    1.6018    1.0115   -1.5082 O   0  0  0  0  0  0  0  0  0  0  0  0
    0.0347   -0.0038    0.0448 C   0  0  0  0  0  0  0  0  0  0  0  0
   -0.8942   -0.5023   -1.0202 C   0  0  0  0  0  0  0  0  0  0  0  0
   -2.0211   -0.1933   -0.0177 C   0  0  0  0  0  0  0  0  0  0  0  0
   -2.1045    1.1409    0.2894 O   0  0  0  0  0  0  0  0  0  0  0  0
   -1.1204    0.2746    0.9091 C   0  0  0  0  0  0  0  0  0  0  0  0
    1.5454   -1.6555    1.9718 H   0  0  0  0  0  0  0  0  0  0  0  0
    1.7789   -1.3141   -0.2969 H   0  0  0  0  0  0  0  0  0  0  0  0
    1.3477    1.6878    0.5064 H   0  0  0  0  0  0  0  0  0  0  0  0
    1.4969    1.9604   -1.7099 H   0  0  0  0  0  0  0  0  0  0  0  0
   -0.9728    0.1311   -1.9278 H   0  0  0  0  0  0  0  0  0  0  0  0
   -0.8392   -1.5919   -1.2270 H   0  0  0  0  0  0  0  0  0  0  0  0
   -2.8637   -0.8750    0.0424 H   0  0  0  0  0  0  0  0  0  0  0  0
   -1.0957    0.3742    1.9827 H   0  0  0  0  0  0  0  0  0  0  0  0
  1  2  1  0
  2  3  1  0
  3  4  1  0
  3  5  1  0
  5  6  1  0
  6  7  1  0
  7  8  1  0
  8  9  1  0
  5  2  1  0
  9  7  1  0
  9  5  1  0
  1 10  1  0
  2 11  1  0
  3 12  1  0
  4 13  1  0
  6 14  1  0
  6 15  1  0
  7 16  1  0
  9 17  1  0
M  END
