
     RDKit          3D

 19 21  0  0  0  0  0  0  0  0999 V2000
    1.9970    0.7368    1.1900 O   0  0  0  0  0  0  0  0  0  0  0  0
    1.9598   -0.4840    0.5654 C   0  0  0  0  0  0  0  0  0  0  0  0
    1.2953   -0.7129   -0.7007 C   0  0  0  0  0  0  0  0  0  0  0  0
    0.5388    0.3476   -1.3603 C   0  0  0  0  0  0  0  0  0  0  0  0
   -0.5746    0.6409   -0.7400 C   0  0  0  0  0  0  0  0  0  0  0  0
   -1.8758    1.1453   -0.2225 C   0  0  0  0  0  0  0  0  0  0  0  0
   -1.9766   -0.3248    0.3486 C   0  0  0  0  0  0  0  0  0  0  0  0
   -0.5478   -0.0934    0.6215 C   0  0  0  0  0  0  0  0  0  0  0  0
    0.5133   -1.0947    0.5025 C   0  0  0  0  0  0  0  0  0  0  0  0
    2.5490    1.4121    0.7241 H   0  0  0  0  0  0  0  0  0  0  0  0
    2.7499   -1.2181    0.8705 H   0  0  0  0  0  0  0  0  0  0  0  0
    1.5997   -1.5827   -1.3352 H   0  0  0  0  0  0  0  0  0  0  0  0
    0.8899    0.8375   -2.2870 H   0  0  0  0  0  0  0  0  0  0  0  0
   -2.6516    1.3602   -0.9447 H   0  0  0  0  0  0  0  0  0  0  0  0
   -1.7544    1.8276    0.6219 H   0  0  0  0  0  0  0  0  0  0  0  0
   -2.1859   -1.0119   -0.4643 H   0  0  0  0  0  0  0  0  0  0  0  0
   -2.6542   -0.3155    1.2163 H   0  0  0  0  0  0  0  0  0  0  0  0
   -0.3186    0.6484    1.4284 H   0  0  0  0  0  0  0  0  0  0  0  0
    0.4469   -2.1186    0.8511 H   0  0  0  0  0  0  0  0  0  0  0  0
  1  2  1  0
  2  3  1  0
  3  4  1  0
  4  5  2  0
  5  6  1  0
  6  7  1  0
  7  8  1  0
  8  9  1  0
  9  2  1  0
  9  3  1  0
  8  5  1  0
  1 10  1  0
  2 11  1  0
  3 12  1  0
  4 13  1  0
  6 14  1  0
  6 15  1  0
  7 16  1  0
  7 17  1  0
  8 18  1  0
  9 19  1  0
M  END
