
     RDKit          3D

 19 21  0  0  0  0  0  0  0  0999 V2000
   -2.5606    1.3749   -0.0106 O   0  0  0  0  0  0  0  0  0  0  0  0
   -1.5526    0.5552   -0.4564 C   0  0  0  0  0  0  0  0  0  0  0  0
   -0.3020    1.4387   -0.5256 C   0  0  0  0  0  0  0  0  0  0  0  0
    0.8765    0.8695   -0.3565 C   0  0  0  0  0  0  0  0  0  0  0  0
    2.1969    0.3052   -0.1780 C   0  0  0  0  0  0  0  0  0  0  0  0
    1.3958   -0.7648    0.6800 C   0  0  0  0  0  0  0  0  0  0  0  0
    0.0280   -1.1690    0.4653 C   0  0  0  0  0  0  0  0  0  0  0  0
   -1.2761   -0.4327    0.7048 C   0  0  0  0  0  0  0  0  0  0  0  0
    0.6687   -0.6904   -0.7106 C   0  0  0  0  0  0  0  0  0  0  0  0
   -2.7554    1.3124    0.9440 H   0  0  0  0  0  0  0  0  0  0  0  0
   -1.8015    0.0880   -1.3860 H   0  0  0  0  0  0  0  0  0  0  0  0
   -0.3678    2.4738   -0.7013 H   0  0  0  0  0  0  0  0  0  0  0  0
    2.9518    0.8041    0.3997 H   0  0  0  0  0  0  0  0  0  0  0  0
    2.6061   -0.1794   -1.0754 H   0  0  0  0  0  0  0  0  0  0  0  0
    2.1368   -1.5781    0.8298 H   0  0  0  0  0  0  0  0  0  0  0  0
   -0.1712   -2.2894    0.4950 H   0  0  0  0  0  0  0  0  0  0  0  0
   -1.1990    0.0635    1.6705 H   0  0  0  0  0  0  0  0  0  0  0  0
   -2.1297   -1.1034    0.6988 H   0  0  0  0  0  0  0  0  0  0  0  0
    1.2552   -1.0781   -1.4875 H   0  0  0  0  0  0  0  0  0  0  0  0
  1  2  1  0
  2  3  1  0
  3  4  2  0
  4  5  1  0
  5  6  1  0
  6  7  1  0
  7  8  1  0
  7  9  1  0
  8  2  1  0
  9  4  1  0
  9  6  1  0
  1 10  1  0
  2 11  1  0
  3 12  1  0
  5 13  1  0
  5 14  1  0
  6 15  1  0
  7 16  1  0
  8 17  1  0
  8 18  1  0
  9 19  1  0
M  END
