
     RDKit          3D

 18 19  0  0  0  0  0  0  0  0999 V2000
   -0.2817    2.1379   -0.1519 O   0  0  0  0  0  0  0  0  0  0  0  0
   -0.3539    0.9882    0.5732 C   0  0  0  0  0  0  0  0  0  0  0  0
   -1.5001    0.0700    0.1237 C   0  0  0  0  0  0  0  0  0  0  0  0
   -0.7484   -1.1473   -0.3979 C   0  0  0  0  0  0  0  0  0  0  0  0
    0.4526   -0.4660   -0.9381 C   0  0  0  0  0  0  0  0  0  0  0  0
    1.7570   -0.2207   -0.4833 C   0  0  0  0  0  0  0  0  0  0  0  0
    0.8086    0.0902    0.5044 C   0  0  0  0  0  0  0  0  0  0  0  0
    0.7327   -0.8756    1.5455 O   0  0  0  0  0  0  0  0  0  0  0  0
   -0.6722    2.1055   -1.0557 H   0  0  0  0  0  0  0  0  0  0  0  0
   -0.5912    1.2517    1.6260 H   0  0  0  0  0  0  0  0  0  0  0  0
   -2.1991   -0.1554    0.9098 H   0  0  0  0  0  0  0  0  0  0  0  0
   -1.9426    0.5736   -0.7726 H   0  0  0  0  0  0  0  0  0  0  0  0
   -0.5476   -1.8210    0.4601 H   0  0  0  0  0  0  0  0  0  0  0  0
   -1.3282   -1.7150   -1.1344 H   0  0  0  0  0  0  0  0  0  0  0  0
    0.0789    0.3128   -1.6773 H   0  0  0  0  0  0  0  0  0  0  0  0
    2.4509   -1.0878   -0.3729 H   0  0  0  0  0  0  0  0  0  0  0  0
    2.3632    0.6462   -0.8869 H   0  0  0  0  0  0  0  0  0  0  0  0
    1.5210   -0.6873    2.1283 H   0  0  0  0  0  0  0  0  0  0  0  0
  1  2  1  0
  2  3  1  0
  3  4  1  0
  4  5  1  0
  5  6  1  0
  6  7  1  0
  7  8  1  0
  7  2  1  0
  7  5  1  0
  1  9  1  0
  2 10  1  0
  3 11  1  0
  3 12  1  0
  4 13  1  0
  4 14  1  0
  5 15  1  0
  6 16  1  0
  6 17  1  0
  8 18  1  0
M  END
