
     RDKit          3D

 16 17  0  0  0  0  0  0  0  0999 V2000
   -1.2449    1.6284    0.5191 O   0  0  0  0  0  0  0  0  0  0  0  0
   -1.0292    0.2762    0.5483 C   0  0  0  0  0  0  0  0  0  0  0  0
   -1.1045   -0.4183   -0.8020 C   0  0  0  0  0  0  0  0  0  0  0  0
    0.3119   -0.9068   -0.5499 C   0  0  0  0  0  0  0  0  0  0  0  0
    1.3900    0.0950   -0.3921 C   0  0  0  0  0  0  0  0  0  0  0  0
    1.3782    1.2952   -1.0968 O   0  0  0  0  0  0  0  0  0  0  0  0
    0.4035   -0.1038    0.6901 C   0  0  0  0  0  0  0  0  0  0  0  0
    0.8315   -0.6128    1.8848 O   0  0  0  0  0  0  0  0  0  0  0  0
   -1.8679    1.8624   -0.2294 H   0  0  0  0  0  0  0  0  0  0  0  0
   -1.6486   -0.3011    1.2881 H   0  0  0  0  0  0  0  0  0  0  0  0
   -1.2261    0.2852   -1.6320 H   0  0  0  0  0  0  0  0  0  0  0  0
   -1.8030   -1.2460   -0.8791 H   0  0  0  0  0  0  0  0  0  0  0  0
    0.4863   -1.9796   -0.5947 H   0  0  0  0  0  0  0  0  0  0  0  0
    2.3979   -0.3206   -0.1997 H   0  0  0  0  0  0  0  0  0  0  0  0
    1.7019    2.0082   -0.4653 H   0  0  0  0  0  0  0  0  0  0  0  0
    1.0230   -1.5616    1.9107 H   0  0  0  0  0  0  0  0  0  0  0  0
  1  2  1  0
  2  3  1  0
  3  4  1  0
  4  5  1  0
  5  6  1  0
  5  7  1  0
  7  8  1  0
  7  2  1  0
  7  4  1  0
  1  9  1  0
  2 10  1  0
  3 11  1  0
  3 12  1  0
  4 13  1  0
  5 14  1  0
  6 15  1  0
  8 16  1  0
M  END
