
     RDKit          3D

 19 20  0  0  0  0  0  0  0  0999 V2000
   -2.6294    0.1445   -1.0692 O   0  0  0  0  0  0  0  0  0  0  0  0
   -1.2451    0.2874   -0.8314 C   0  0  0  0  0  0  0  0  0  0  0  0
   -0.7670    0.5388    0.5420 C   0  0  0  0  0  0  0  0  0  0  0  0
    0.4020    1.4564    0.6884 C   0  0  0  0  0  0  0  0  0  0  0  0
    1.5823    0.7364    0.9872 O   0  0  0  0  0  0  0  0  0  0  0  0
    1.8653    0.0349   -0.2021 C   0  0  0  0  0  0  0  0  0  0  0  0
    0.8997   -1.0997   -0.3818 C   0  0  0  0  0  0  0  0  0  0  0  0
   -0.5196   -0.7496   -0.0864 C   0  0  0  0  0  0  0  0  0  0  0  0
   -1.2684   -1.8364    0.4268 O   0  0  0  0  0  0  0  0  0  0  0  0
   -3.0529   -0.1986   -0.2373 H   0  0  0  0  0  0  0  0  0  0  0  0
   -0.7587    0.8571   -1.6629 H   0  0  0  0  0  0  0  0  0  0  0  0
   -1.4859    0.5862    1.4109 H   0  0  0  0  0  0  0  0  0  0  0  0
    0.2406    2.2096    1.4903 H   0  0  0  0  0  0  0  0  0  0  0  0
    0.6504    2.0011   -0.2688 H   0  0  0  0  0  0  0  0  0  0  0  0
    1.9526    0.7009   -1.0662 H   0  0  0  0  0  0  0  0  0  0  0  0
    2.8809   -0.4200   -0.0521 H   0  0  0  0  0  0  0  0  0  0  0  0
    1.0566   -1.4980   -1.4144 H   0  0  0  0  0  0  0  0  0  0  0  0
    1.2313   -1.9115    0.3186 H   0  0  0  0  0  0  0  0  0  0  0  0
   -1.0347   -1.8396    1.4083 H   0  0  0  0  0  0  0  0  0  0  0  0
  1  2  1  0
  2  3  1  0
  3  4  1  0
  4  5  1  0
  5  6  1  0
  6  7  1  0
  7  8  1  0
  8  9  1  0
  8  2  1  0
  8  3  1  0
  1 10  1  0
  2 11  1  0
  3 12  1  0
  4 13  1  0
  4 14  1  0
  6 15  1  0
  6 16  1  0
  7 17  1  0
  7 18  1  0
  9 19  1  0
M  END
