
     RDKit          3D

 21 22  0  0  0  0  0  0  0  0999 V2000
   -1.9446   -1.0406    0.4501 O   0  0  0  0  0  0  0  0  0  0  0  0
   -1.4632   -0.1271   -0.4956 C   0  0  0  0  0  0  0  0  0  0  0  0
   -1.4562    1.2766    0.0403 C   0  0  0  0  0  0  0  0  0  0  0  0
   -0.1022    1.3639    0.7364 C   0  0  0  0  0  0  0  0  0  0  0  0
    0.8116    0.6627   -0.2262 C   0  0  0  0  0  0  0  0  0  0  0  0
    1.9620   -0.0360    0.4255 C   0  0  0  0  0  0  0  0  0  0  0  0
    1.5797   -1.4646    0.4738 C   0  0  0  0  0  0  0  0  0  0  0  0
    0.4890   -1.6394   -0.2413 C   0  0  0  0  0  0  0  0  0  0  0  0
   -0.0245   -0.3992   -0.8672 C   0  0  0  0  0  0  0  0  0  0  0  0
   -2.7186   -1.5300    0.0689 H   0  0  0  0  0  0  0  0  0  0  0  0
   -2.0616   -0.1934   -1.4295 H   0  0  0  0  0  0  0  0  0  0  0  0
   -1.4340    1.9921   -0.8084 H   0  0  0  0  0  0  0  0  0  0  0  0
   -2.2924    1.4641    0.7193 H   0  0  0  0  0  0  0  0  0  0  0  0
    0.2074    2.4058    0.9030 H   0  0  0  0  0  0  0  0  0  0  0  0
   -0.1571    0.8245    1.6906 H   0  0  0  0  0  0  0  0  0  0  0  0
    1.2453    1.3588   -0.9939 H   0  0  0  0  0  0  0  0  0  0  0  0
    2.1148    0.3129    1.4780 H   0  0  0  0  0  0  0  0  0  0  0  0
    2.9316    0.1208   -0.0826 H   0  0  0  0  0  0  0  0  0  0  0  0
    2.1560   -2.2243    1.0380 H   0  0  0  0  0  0  0  0  0  0  0  0
    0.0404   -2.6512   -0.3300 H   0  0  0  0  0  0  0  0  0  0  0  0
    0.1165   -0.4762   -1.9614 H   0  0  0  0  0  0  0  0  0  0  0  0
  1  2  1  0
  2  3  1  0
  3  4  1  0
  4  5  1  0
  5  6  1  0
  6  7  1  0
  7  8  2  0
  8  9  1  0
  9  2  1  0
  9  5  1  0
  1 10  1  0
  2 11  1  0
  3 12  1  0
  3 13  1  0
  4 14  1  0
  4 15  1  0
  5 16  1  0
  6 17  1  0
  6 18  1  0
  7 19  1  0
  8 20  1  0
  9 21  1  0
M  END
