
     RDKit          3D

 19 20  0  0  0  0  0  0  0  0999 V2000
   -0.6048   -2.0017    1.3321 O   0  0  0  0  0  0  0  0  0  0  0  0
   -0.4960   -1.3238    0.1450 C   0  0  0  0  0  0  0  0  0  0  0  0
    0.9763   -1.0137   -0.2042 C   0  0  0  0  0  0  0  0  0  0  0  0
    0.8781    0.4881   -0.3185 C   0  0  0  0  0  0  0  0  0  0  0  0
    1.9254    1.2159   -0.6507 O   0  0  0  0  0  0  0  0  0  0  0  0
    0.1019    0.8141    0.9528 C   0  0  0  0  0  0  0  0  0  0  0  0
   -1.0150    0.0712    0.2465 C   0  0  0  0  0  0  0  0  0  0  0  0
   -0.4404    0.6643   -1.0486 C   0  0  0  0  0  0  0  0  0  0  0  0
   -0.8254    1.9547   -1.2884 O   0  0  0  0  0  0  0  0  0  0  0  0
   -1.1673   -1.4562    1.9582 H   0  0  0  0  0  0  0  0  0  0  0  0
   -0.9890   -1.8129   -0.7145 H   0  0  0  0  0  0  0  0  0  0  0  0
    1.6138   -1.2788    0.6445 H   0  0  0  0  0  0  0  0  0  0  0  0
    1.2578   -1.4419   -1.1656 H   0  0  0  0  0  0  0  0  0  0  0  0
    2.7875    0.7261   -0.5829 H   0  0  0  0  0  0  0  0  0  0  0  0
   -0.0700    1.8800    1.1280 H   0  0  0  0  0  0  0  0  0  0  0  0
    0.4424    0.2231    1.8295 H   0  0  0  0  0  0  0  0  0  0  0  0
   -2.0201    0.2813    0.4862 H   0  0  0  0  0  0  0  0  0  0  0  0
   -0.6107   -0.0718   -1.8571 H   0  0  0  0  0  0  0  0  0  0  0  0
   -1.7444    2.0821   -0.8923 H   0  0  0  0  0  0  0  0  0  0  0  0
  1  2  1  0
  2  3  1  0
  3  4  1  0
  4  5  1  0
  4  6  1  0
  6  7  1  0
  7  8  1  0
  8  9  1  0
  7  2  1  0
  8  4  1  0
  1 10  1  0
  2 11  1  0
  3 12  1  0
  3 13  1  0
  5 14  1  0
  6 15  1  0
  6 16  1  0
  7 17  1  0
  8 18  1  0
  9 19  1  0
M  END
