
     RDKit          3D

 21 22  0  0  0  0  0  0  0  0999 V2000
    2.4887    0.0422    0.1396 O   0  0  0  0  0  0  0  0  0  0  0  0
    1.3689    0.3310   -0.6774 C   0  0  0  0  0  0  0  0  0  0  0  0
    0.6199   -0.9380   -0.8496 C   0  0  0  0  0  0  0  0  0  0  0  0
    0.1089   -1.3816    0.5024 C   0  0  0  0  0  0  0  0  0  0  0  0
   -1.3128   -0.9529    0.6520 C   0  0  0  0  0  0  0  0  0  0  0  0
   -1.6155    0.3697   -0.0089 C   0  0  0  0  0  0  0  0  0  0  0  0
   -0.6655    1.4481    0.2843 C   0  0  0  0  0  0  0  0  0  0  0  0
   -0.2402    2.1288   -0.9705 O   0  0  0  0  0  0  0  0  0  0  0  0
    0.6488    1.4682   -0.0890 C   0  0  0  0  0  0  0  0  0  0  0  0
    2.3319    0.3679    1.0701 H   0  0  0  0  0  0  0  0  0  0  0  0
    1.8303    0.6031   -1.6731 H   0  0  0  0  0  0  0  0  0  0  0  0
   -0.1409   -0.9281   -1.6323 H   0  0  0  0  0  0  0  0  0  0  0  0
    1.3733   -1.7236   -1.1546 H   0  0  0  0  0  0  0  0  0  0  0  0
    0.1910   -2.4911    0.6044 H   0  0  0  0  0  0  0  0  0  0  0  0
    0.7234   -0.9376    1.3122 H   0  0  0  0  0  0  0  0  0  0  0  0
   -1.5753   -0.9589    1.7316 H   0  0  0  0  0  0  0  0  0  0  0  0
   -1.9651   -1.7131    0.1742 H   0  0  0  0  0  0  0  0  0  0  0  0
   -2.6613    0.6192    0.3517 H   0  0  0  0  0  0  0  0  0  0  0  0
   -1.7795    0.1602   -1.1040 H   0  0  0  0  0  0  0  0  0  0  0  0
   -1.0675    2.2608    0.9491 H   0  0  0  0  0  0  0  0  0  0  0  0
    1.3386    2.2257    0.3878 H   0  0  0  0  0  0  0  0  0  0  0  0
  1  2  1  0
  2  3  1  0
  3  4  1  0
  4  5  1  0
  5  6  1  0
  6  7  1  0
  7  8  1  0
  8  9  1  0
  9  2  1  0
  9  7  1  0
  1 10  1  0
  2 11  1  0
  3 12  1  0
  3 13  1  0
  4 14  1  0
  4 15  1  0
  5 16  1  0
  5 17  1  0
  6 18  1  0
  6 19  1  0
  7 20  1  0
  9 21  1  0
M  END
