
     RDKit          3D

 19 20  0  0  0  0  0  0  0  0999 V2000
    0.0718    1.6241   -1.1118 O   0  0  0  0  0  0  0  0  0  0  0  0
   -0.5631    1.4342    0.0899 C   0  0  0  0  0  0  0  0  0  0  0  0
    0.0610    0.4871    1.1155 C   0  0  0  0  0  0  0  0  0  0  0  0
    1.4346    0.0889    0.7849 C   0  0  0  0  0  0  0  0  0  0  0  0
    1.5582   -0.8887   -0.3183 C   0  0  0  0  0  0  0  0  0  0  0  0
    0.5329   -1.3754   -0.9765 C   0  0  0  0  0  0  0  0  0  0  0  0
   -0.8579   -1.0073   -0.6962 C   0  0  0  0  0  0  0  0  0  0  0  0
   -1.0472    0.0303    0.3377 C   0  0  0  0  0  0  0  0  0  0  0  0
   -2.3046   -0.0381    0.9837 O   0  0  0  0  0  0  0  0  0  0  0  0
    0.9036    2.1238   -0.9818 H   0  0  0  0  0  0  0  0  0  0  0  0
   -1.1715    2.2663    0.4429 H   0  0  0  0  0  0  0  0  0  0  0  0
   -0.1133    0.7419    2.1986 H   0  0  0  0  0  0  0  0  0  0  0  0
    2.0034    1.0061    0.4584 H   0  0  0  0  0  0  0  0  0  0  0  0
    1.9849   -0.2494    1.7086 H   0  0  0  0  0  0  0  0  0  0  0  0
    2.5644   -1.2085   -0.5820 H   0  0  0  0  0  0  0  0  0  0  0  0
    0.7180   -2.0895   -1.7729 H   0  0  0  0  0  0  0  0  0  0  0  0
   -1.3881   -1.9424   -0.3601 H   0  0  0  0  0  0  0  0  0  0  0  0
   -1.3724   -0.7470   -1.6684 H   0  0  0  0  0  0  0  0  0  0  0  0
   -3.0148   -0.2564    0.3478 H   0  0  0  0  0  0  0  0  0  0  0  0
  1  2  1  0
  2  3  1  0
  3  4  1  0
  4  5  1  0
  5  6  2  0
  6  7  1  0
  7  8  1  0
  8  9  1  0
  8  2  1  0
  8  3  1  0
  1 10  1  0
  2 11  1  0
  3 12  1  0
  4 13  1  0
  4 14  1  0
  5 15  1  0
  6 16  1  0
  7 17  1  0
  7 18  1  0
  9 19  1  0
M  END
