
     RDKit          3D

 17 19  0  0  0  0  0  0  0  0999 V2000
    2.4024   -0.0385    0.6120 O   0  0  0  0  0  0  0  0  0  0  0  0
    1.3271    0.1094   -0.2460 C   0  0  0  0  0  0  0  0  0  0  0  0
    0.0384    0.4799    0.4366 C   0  0  0  0  0  0  0  0  0  0  0  0
   -1.0174    1.1573   -0.3613 C   0  0  0  0  0  0  0  0  0  0  0  0
   -1.4388    0.3354   -1.3639 O   0  0  0  0  0  0  0  0  0  0  0  0
   -0.8127   -0.8726   -1.2804 C   0  0  0  0  0  0  0  0  0  0  0  0
    0.1955   -0.8432   -0.1879 C   0  0  0  0  0  0  0  0  0  0  0  0
    0.0107   -1.5267    0.9954 O   0  0  0  0  0  0  0  0  0  0  0  0
   -0.2847   -0.3336    1.6496 C   0  0  0  0  0  0  0  0  0  0  0  0
    3.1872    0.4770    0.2904 H   0  0  0  0  0  0  0  0  0  0  0  0
    1.5479    0.6512   -1.1848 H   0  0  0  0  0  0  0  0  0  0  0  0
   -1.8271    1.5442    0.2794 H   0  0  0  0  0  0  0  0  0  0  0  0
   -0.5452    2.0587   -0.8430 H   0  0  0  0  0  0  0  0  0  0  0  0
   -0.3766   -1.1702   -2.2519 H   0  0  0  0  0  0  0  0  0  0  0  0
   -1.5980   -1.6396   -1.0240 H   0  0  0  0  0  0  0  0  0  0  0  0
    0.4931   -0.1550    2.4369 H   0  0  0  0  0  0  0  0  0  0  0  0
   -1.3019   -0.2337    2.0429 H   0  0  0  0  0  0  0  0  0  0  0  0
  1  2  1  0
  2  3  1  0
  3  4  1  0
  4  5  1  0
  5  6  1  0
  6  7  1  0
  7  8  1  0
  8  9  1  0
  7  2  1  0
  7  3  1  0
  9  3  1  0
  1 10  1  0
  2 11  1  0
  4 12  1  0
  4 13  1  0
  6 14  1  0
  6 15  1  0
  9 16  1  0
  9 17  1  0
M  END
