
     RDKit          3D

 19 21  0  0  0  0  0  0  0  0999 V2000
    2.4491    1.3208   -0.0740 O   0  0  0  0  0  0  0  0  0  0  0  0
    1.5597    0.3632   -0.5680 C   0  0  0  0  0  0  0  0  0  0  0  0
    1.8020   -1.0142    0.1348 C   0  0  0  0  0  0  0  0  0  0  0  0
    0.2795   -1.1394    0.0596 C   0  0  0  0  0  0  0  0  0  0  0  0
   -0.9831   -1.4932    0.0024 C   0  0  0  0  0  0  0  0  0  0  0  0
   -1.9389   -0.4042   -0.0780 C   0  0  0  0  0  0  0  0  0  0  0  0
   -2.0872    0.7482    0.7864 C   0  0  0  0  0  0  0  0  0  0  0  0
   -0.9897    0.8056   -0.2903 C   0  0  0  0  0  0  0  0  0  0  0  0
    0.3005    0.3492    0.1963 C   0  0  0  0  0  0  0  0  0  0  0  0
    2.9746    1.7122   -0.7985 H   0  0  0  0  0  0  0  0  0  0  0  0
    1.5366    0.2305   -1.6419 H   0  0  0  0  0  0  0  0  0  0  0  0
    2.1481   -0.8721    1.1684 H   0  0  0  0  0  0  0  0  0  0  0  0
    2.3237   -1.7398   -0.4823 H   0  0  0  0  0  0  0  0  0  0  0  0
   -1.2786   -2.5586    0.0159 H   0  0  0  0  0  0  0  0  0  0  0  0
   -2.7160   -0.5230   -0.9102 H   0  0  0  0  0  0  0  0  0  0  0  0
   -2.9166    1.4492    0.5595 H   0  0  0  0  0  0  0  0  0  0  0  0
   -1.7541    0.7873    1.8317 H   0  0  0  0  0  0  0  0  0  0  0  0
   -1.1602    1.3941   -1.1941 H   0  0  0  0  0  0  0  0  0  0  0  0
    0.4506    0.5843    1.2824 H   0  0  0  0  0  0  0  0  0  0  0  0
  1  2  1  0
  2  3  1  0
  3  4  1  0
  4  5  2  0
  5  6  1  0
  6  7  1  0
  7  8  1  0
  8  9  1  0
  9  2  1  0
  9  4  1  0
  8  6  1  0
  1 10  1  0
  2 11  1  0
  3 12  1  0
  3 13  1  0
  5 14  1  0
  6 15  1  0
  7 16  1  0
  7 17  1  0
  8 18  1  0
  9 19  1  0
M  END
