
     RDKit          3D

 17 19  0  0  0  0  0  0  0  0999 V2000
   -2.6833   -0.4576   -0.0775 O   0  0  0  0  0  0  0  0  0  0  0  0
   -1.3732   -0.5866   -0.4551 C   0  0  0  0  0  0  0  0  0  0  0  0
   -0.3138   -0.7790    0.5674 C   0  0  0  0  0  0  0  0  0  0  0  0
    1.0934   -1.0307    0.0936 C   0  0  0  0  0  0  0  0  0  0  0  0
    1.8499    0.2597    0.2967 C   0  0  0  0  0  0  0  0  0  0  0  0
    0.8872    0.6594   -0.7721 C   0  0  0  0  0  0  0  0  0  0  0  0
    1.0047   -0.6606   -1.2681 O   0  0  0  0  0  0  0  0  0  0  0  0
   -0.4988    0.6026   -0.1564 C   0  0  0  0  0  0  0  0  0  0  0  0
   -0.9574    1.6435    0.6114 O   0  0  0  0  0  0  0  0  0  0  0  0
   -2.8303   -0.3010    0.8747 H   0  0  0  0  0  0  0  0  0  0  0  0
   -1.2270   -1.0412   -1.4688 H   0  0  0  0  0  0  0  0  0  0  0  0
   -0.5681   -0.7860    1.6279 H   0  0  0  0  0  0  0  0  0  0  0  0
    1.5698   -1.9559    0.3217 H   0  0  0  0  0  0  0  0  0  0  0  0
    1.7492    0.7213    1.2799 H   0  0  0  0  0  0  0  0  0  0  0  0
    2.8664    0.1617   -0.1105 H   0  0  0  0  0  0  0  0  0  0  0  0
    1.1175    1.4562   -1.4407 H   0  0  0  0  0  0  0  0  0  0  0  0
   -1.6862    2.0943    0.0760 H   0  0  0  0  0  0  0  0  0  0  0  0
  1  2  1  0
  2  3  1  0
  3  4  1  0
  4  5  1  0
  5  6  1  0
  6  7  1  0
  6  8  1  0
  8  9  1  0
  8  2  1  0
  8  3  1  0
  7  4  1  0
  1 10  1  0
  2 11  1  0
  3 12  1  0
  4 13  1  0
  5 14  1  0
  5 15  1  0
  6 16  1  0
  9 17  1  0
M  END
