
     RDKit          3D

 19 21  0  0  0  0  0  0  0  0999 V2000
   -0.6360   -1.8559    0.3735 O   0  0  0  0  0  0  0  0  0  0  0  0
   -0.2488   -0.6368    0.8798 C   0  0  0  0  0  0  0  0  0  0  0  0
   -1.4591    0.2832    0.7917 C   0  0  0  0  0  0  0  0  0  0  0  0
   -1.7819    0.1652   -0.6789 C   0  0  0  0  0  0  0  0  0  0  0  0
   -0.4806    0.9812   -0.7024 C   0  0  0  0  0  0  0  0  0  0  0  0
   -0.9680    1.5489    0.4922 O   0  0  0  0  0  0  0  0  0  0  0  0
    0.5827    0.0990   -0.1710 C   0  0  0  0  0  0  0  0  0  0  0  0
    1.8653    0.6855    0.2612 C   0  0  0  0  0  0  0  0  0  0  0  0
    1.7599   -0.3857   -0.7810 C   0  0  0  0  0  0  0  0  0  0  0  0
   -0.4936   -2.6211    0.9516 H   0  0  0  0  0  0  0  0  0  0  0  0
    0.2125   -0.6564    1.8553 H   0  0  0  0  0  0  0  0  0  0  0  0
   -2.2333    0.1724    1.5065 H   0  0  0  0  0  0  0  0  0  0  0  0
   -1.6956   -0.8313   -1.1090 H   0  0  0  0  0  0  0  0  0  0  0  0
   -2.6365    0.7911   -0.9891 H   0  0  0  0  0  0  0  0  0  0  0  0
   -0.3219    1.6237   -1.5339 H   0  0  0  0  0  0  0  0  0  0  0  0
    2.2544    0.4530    1.2750 H   0  0  0  0  0  0  0  0  0  0  0  0
    2.1392    1.7135   -0.0777 H   0  0  0  0  0  0  0  0  0  0  0  0
    2.0227   -0.1038   -1.8106 H   0  0  0  0  0  0  0  0  0  0  0  0
    2.1188   -1.4259   -0.5333 H   0  0  0  0  0  0  0  0  0  0  0  0
  1  2  1  0
  2  3  1  0
  3  4  1  0
  4  5  1  0
  5  6  1  0
  5  7  1  0
  7  8  1  0
  8  9  1  0
  7  2  1  0
  6  3  1  0
  9  7  1  0
  1 10  1  0
  2 11  1  0
  3 12  1  0
  4 13  1  0
  4 14  1  0
  5 15  1  0
  8 16  1  0
  8 17  1  0
  9 18  1  0
  9 19  1  0
M  END
