
     RDKit          3D

 19 20  0  0  0  0  0  0  0  0999 V2000
   -2.1457   -0.8471    0.3608 O   0  0  0  0  0  0  0  0  0  0  0  0
   -0.7625   -0.9643    0.3699 C   0  0  0  0  0  0  0  0  0  0  0  0
   -0.2257   -0.8630   -1.0726 C   0  0  0  0  0  0  0  0  0  0  0  0
    0.6078    0.3768   -0.9251 C   0  0  0  0  0  0  0  0  0  0  0  0
   -0.2354    1.3000   -0.0743 C   0  0  0  0  0  0  0  0  0  0  0  0
   -1.5224    1.5066   -0.4820 O   0  0  0  0  0  0  0  0  0  0  0  0
   -0.0613    0.2092    0.9730 C   0  0  0  0  0  0  0  0  0  0  0  0
    1.3505    0.0770    0.3868 C   0  0  0  0  0  0  0  0  0  0  0  0
    1.8935   -1.1808    0.4650 O   0  0  0  0  0  0  0  0  0  0  0  0
   -2.4606   -0.6574    1.2693 H   0  0  0  0  0  0  0  0  0  0  0  0
   -0.4680   -1.8957    0.8500 H   0  0  0  0  0  0  0  0  0  0  0  0
   -1.0278   -0.7959   -1.8028 H   0  0  0  0  0  0  0  0  0  0  0  0
    0.4345   -1.7541   -1.2107 H   0  0  0  0  0  0  0  0  0  0  0  0
    1.1660    0.7627   -1.7326 H   0  0  0  0  0  0  0  0  0  0  0  0
    0.3420    2.1926    0.2564 H   0  0  0  0  0  0  0  0  0  0  0  0
   -1.5444    2.2757   -1.0860 H   0  0  0  0  0  0  0  0  0  0  0  0
   -0.1572    0.4530    1.9938 H   0  0  0  0  0  0  0  0  0  0  0  0
    1.9527    0.9191    0.7534 H   0  0  0  0  0  0  0  0  0  0  0  0
    2.8640   -1.1145    0.7078 H   0  0  0  0  0  0  0  0  0  0  0  0
  1  2  1  0
  2  3  1  0
  3  4  1  0
  4  5  1  0
  5  6  1  0
  5  7  1  0
  7  8  1  0
  8  9  1  0
  7  2  1  0
  8  4  1  0
  1 10  1  0
  2 11  1  0
  3 12  1  0
  3 13  1  0
  4 14  1  0
  5 15  1  0
  6 16  1  0
  7 17  1  0
  8 18  1  0
  9 19  1  0
M  END
