
     RDKit          3D

 19 20  0  0  0  0  0  0  0  0999 V2000
    0.2979    1.4081    1.5954 O   0  0  0  0  0  0  0  0  0  0  0  0
    0.2002    1.1606    0.2316 C   0  0  0  0  0  0  0  0  0  0  0  0
    1.4919    0.5077   -0.2606 C   0  0  0  0  0  0  0  0  0  0  0  0
    1.3337   -0.8791   -0.7179 C   0  0  0  0  0  0  0  0  0  0  0  0
    0.3383   -1.7046   -0.3056 C   0  0  0  0  0  0  0  0  0  0  0  0
   -0.5495   -1.0428    0.6440 C   0  0  0  0  0  0  0  0  0  0  0  0
   -1.8461   -0.4915    0.5460 C   0  0  0  0  0  0  0  0  0  0  0  0
   -0.8918    0.2661   -0.1589 C   0  0  0  0  0  0  0  0  0  0  0  0
   -0.9282    0.1454   -1.5729 O   0  0  0  0  0  0  0  0  0  0  0  0
    0.7146    2.2910    1.7472 H   0  0  0  0  0  0  0  0  0  0  0  0
    0.0765    2.1436   -0.2627 H   0  0  0  0  0  0  0  0  0  0  0  0
    1.8945    1.1227   -1.1187 H   0  0  0  0  0  0  0  0  0  0  0  0
    2.2847    0.5635    0.5367 H   0  0  0  0  0  0  0  0  0  0  0  0
    2.0761   -1.2510   -1.4371 H   0  0  0  0  0  0  0  0  0  0  0  0
    0.2716   -2.7080   -0.6725 H   0  0  0  0  0  0  0  0  0  0  0  0
   -0.0079   -0.8935    1.6265 H   0  0  0  0  0  0  0  0  0  0  0  0
   -2.6260   -1.0601   -0.0326 H   0  0  0  0  0  0  0  0  0  0  0  0
   -2.3251   -0.0873    1.4729 H   0  0  0  0  0  0  0  0  0  0  0  0
   -1.8054    0.5092   -1.8607 H   0  0  0  0  0  0  0  0  0  0  0  0
  1  2  1  0
  2  3  1  0
  3  4  1  0
  4  5  2  0
  5  6  1  0
  6  7  1  0
  7  8  1  0
  8  9  1  0
  8  2  1  0
  8  6  1  0
  1 10  1  0
  2 11  1  0
  3 12  1  0
  3 13  1  0
  4 14  1  0
  5 15  1  0
  6 16  1  0
  7 17  1  0
  7 18  1  0
  9 19  1  0
M  END
