
     RDKit          3D

 19 20  0  0  0  0  0  0  0  0999 V2000
    2.5753   -0.1977   -0.6248 O   0  0  0  0  0  0  0  0  0  0  0  0
    1.1726   -0.0797   -0.7579 C   0  0  0  0  0  0  0  0  0  0  0  0
    0.4996   -1.0706    0.1979 C   0  0  0  0  0  0  0  0  0  0  0  0
    0.5714   -0.0023    1.2414 C   0  0  0  0  0  0  0  0  0  0  0  0
    0.6627    1.0155    0.1373 C   0  0  0  0  0  0  0  0  0  0  0  0
   -0.4993    1.5827   -0.2338 O   0  0  0  0  0  0  0  0  0  0  0  0
   -1.4815    0.8161   -0.7356 C   0  0  0  0  0  0  0  0  0  0  0  0
   -1.7303   -0.4879   -0.0300 C   0  0  0  0  0  0  0  0  0  0  0  0
   -0.7508   -1.4226   -0.1971 O   0  0  0  0  0  0  0  0  0  0  0  0
    2.8197   -0.5859    0.2534 H   0  0  0  0  0  0  0  0  0  0  0  0
    0.8145   -0.1029   -1.7821 H   0  0  0  0  0  0  0  0  0  0  0  0
    1.1336   -1.9637    0.3836 H   0  0  0  0  0  0  0  0  0  0  0  0
   -0.2390    0.0882    1.9496 H   0  0  0  0  0  0  0  0  0  0  0  0
    1.5499   -0.0919    1.7939 H   0  0  0  0  0  0  0  0  0  0  0  0
    1.4508    1.7757    0.3353 H   0  0  0  0  0  0  0  0  0  0  0  0
   -2.4555    1.3865   -0.6513 H   0  0  0  0  0  0  0  0  0  0  0  0
   -1.4053    0.5801   -1.8288 H   0  0  0  0  0  0  0  0  0  0  0  0
   -2.6683   -0.9173   -0.4938 H   0  0  0  0  0  0  0  0  0  0  0  0
   -2.0199   -0.3225    1.0427 H   0  0  0  0  0  0  0  0  0  0  0  0
  1  2  1  0
  2  3  1  0
  3  4  1  0
  4  5  1  0
  5  6  1  0
  6  7  1  0
  7  8  1  0
  8  9  1  0
  5  2  1  0
  9  3  1  0
  1 10  1  0
  2 11  1  0
  3 12  1  0
  4 13  1  0
  4 14  1  0
  5 15  1  0
  7 16  1  0
  7 17  1  0
  8 18  1  0
  8 19  1  0
M  END
