
     RDKit          3D

 19 20  0  0  0  0  0  0  0  0999 V2000
    0.2644    1.9965    0.0391 O   0  0  0  0  0  0  0  0  0  0  0  0
   -0.3116    0.7446    0.3658 C   0  0  0  0  0  0  0  0  0  0  0  0
   -1.6556    0.7056   -0.2798 C   0  0  0  0  0  0  0  0  0  0  0  0
   -1.9528   -0.4654   -0.9305 O   0  0  0  0  0  0  0  0  0  0  0  0
   -1.3942   -1.5580   -0.2308 C   0  0  0  0  0  0  0  0  0  0  0  0
   -0.0427   -1.5193   -0.4419 O   0  0  0  0  0  0  0  0  0  0  0  0
    0.5834   -0.3633   -0.0625 C   0  0  0  0  0  0  0  0  0  0  0  0
    1.8912   -0.5374    0.6421 C   0  0  0  0  0  0  0  0  0  0  0  0
    1.8582    0.0446   -0.7586 C   0  0  0  0  0  0  0  0  0  0  0  0
    0.1937    2.6400    0.7611 H   0  0  0  0  0  0  0  0  0  0  0  0
   -0.3876    0.7622    1.4933 H   0  0  0  0  0  0  0  0  0  0  0  0
   -1.8095    1.5396   -1.0136 H   0  0  0  0  0  0  0  0  0  0  0  0
   -2.4226    0.8438    0.5261 H   0  0  0  0  0  0  0  0  0  0  0  0
   -1.8060   -2.4679   -0.6953 H   0  0  0  0  0  0  0  0  0  0  0  0
   -1.7090   -1.4838    0.8162 H   0  0  0  0  0  0  0  0  0  0  0  0
    2.0549    0.1138    1.4972 H   0  0  0  0  0  0  0  0  0  0  0  0
    2.3795   -1.5452    0.6622 H   0  0  0  0  0  0  0  0  0  0  0  0
    2.1438    1.1206   -0.7748 H   0  0  0  0  0  0  0  0  0  0  0  0
    2.1225   -0.5711   -1.6153 H   0  0  0  0  0  0  0  0  0  0  0  0
  1  2  1  0
  2  3  1  0
  3  4  1  0
  4  5  1  0
  5  6  1  0
  6  7  1  0
  7  8  1  0
  8  9  1  0
  7  2  1  0
  9  7  1  0
  1 10  1  0
  2 11  1  0
  3 12  1  0
  3 13  1  0
  5 14  1  0
  5 15  1  0
  8 16  1  0
  8 17  1  0
  9 18  1  0
  9 19  1  0
M  END
