
     RDKit          3D

 19 21  0  0  0  0  0  0  0  0999 V2000
   -2.0862    0.9662   -0.7358 O   0  0  0  0  0  0  0  0  0  0  0  0
   -1.4509    0.1921    0.2398 C   0  0  0  0  0  0  0  0  0  0  0  0
   -0.8285    1.0074    1.2851 C   0  0  0  0  0  0  0  0  0  0  0  0
    0.4249    0.6624    1.4318 C   0  0  0  0  0  0  0  0  0  0  0  0
    0.8910   -0.4048    0.5598 C   0  0  0  0  0  0  0  0  0  0  0  0
    1.8076    0.0007   -0.6067 C   0  0  0  0  0  0  0  0  0  0  0  0
    0.5075    0.2610   -1.3739 C   0  0  0  0  0  0  0  0  0  0  0  0
   -0.3028   -0.5242   -0.4127 C   0  0  0  0  0  0  0  0  0  0  0  0
    0.2082   -1.6858    0.3372 C   0  0  0  0  0  0  0  0  0  0  0  0
   -2.7303    0.3676   -1.1836 H   0  0  0  0  0  0  0  0  0  0  0  0
   -2.1775   -0.5622    0.6635 H   0  0  0  0  0  0  0  0  0  0  0  0
   -1.3952    1.7916    1.8379 H   0  0  0  0  0  0  0  0  0  0  0  0
    1.0768    1.1586    2.1749 H   0  0  0  0  0  0  0  0  0  0  0  0
    2.3347   -0.8758   -1.0348 H   0  0  0  0  0  0  0  0  0  0  0  0
    2.4226    0.8784   -0.4225 H   0  0  0  0  0  0  0  0  0  0  0  0
    0.5243   -0.0421   -2.4231 H   0  0  0  0  0  0  0  0  0  0  0  0
    0.3082    1.3715   -1.3301 H   0  0  0  0  0  0  0  0  0  0  0  0
    0.8469   -2.4714   -0.1618 H   0  0  0  0  0  0  0  0  0  0  0  0
   -0.3812   -2.0912    1.1551 H   0  0  0  0  0  0  0  0  0  0  0  0
  1  2  1  0
  2  3  1  0
  3  4  2  0
  4  5  1  0
  5  6  1  0
  6  7  1  0
  7  8  1  0
  8  9  1  0
  8  2  1  0
  8  5  1  0
  9  5  1  0
  1 10  1  0
  2 11  1  0
  3 12  1  0
  4 13  1  0
  6 14  1  0
  6 15  1  0
  7 16  1  0
  7 17  1  0
  9 18  1  0
  9 19  1  0
M  END
