
     RDKit          3D

 19 20  0  0  0  0  0  0  0  0999 V2000
   -1.9914    0.1687    1.9618 O   0  0  0  0  0  0  0  0  0  0  0  0
   -1.7219    0.5779    0.6696 C   0  0  0  0  0  0  0  0  0  0  0  0
   -2.4634   -0.1468   -0.4199 C   0  0  0  0  0  0  0  0  0  0  0  0
   -1.2705   -0.1336   -1.1483 O   0  0  0  0  0  0  0  0  0  0  0  0
   -0.6147   -0.2339    0.0629 C   0  0  0  0  0  0  0  0  0  0  0  0
    0.6987    0.4787    0.1787 C   0  0  0  0  0  0  0  0  0  0  0  0
    1.7607   -0.4111   -0.4586 C   0  0  0  0  0  0  0  0  0  0  0  0
    3.1140    0.0631   -0.4690 C   0  0  0  0  0  0  0  0  0  0  0  0
    2.7040   -0.9294    0.4657 O   0  0  0  0  0  0  0  0  0  0  0  0
   -2.2484   -0.7866    1.9291 H   0  0  0  0  0  0  0  0  0  0  0  0
   -1.5645    1.6409    0.5031 H   0  0  0  0  0  0  0  0  0  0  0  0
   -3.2674    0.4849   -0.8402 H   0  0  0  0  0  0  0  0  0  0  0  0
   -2.7292   -1.1724   -0.1530 H   0  0  0  0  0  0  0  0  0  0  0  0
   -0.5806   -1.3110    0.3769 H   0  0  0  0  0  0  0  0  0  0  0  0
    0.6096    1.4467   -0.3392 H   0  0  0  0  0  0  0  0  0  0  0  0
    0.9374    0.6974    1.2387 H   0  0  0  0  0  0  0  0  0  0  0  0
    1.4096   -1.2225   -1.1467 H   0  0  0  0  0  0  0  0  0  0  0  0
    3.8840   -0.2857   -1.1832 H   0  0  0  0  0  0  0  0  0  0  0  0
    3.3340    1.0745   -0.0699 H   0  0  0  0  0  0  0  0  0  0  0  0
  1  2  1  0
  2  3  1  0
  3  4  1  0
  4  5  1  0
  5  6  1  0
  6  7  1  0
  7  8  1  0
  8  9  1  0
  5  2  1  0
  9  7  1  0
  1 10  1  0
  2 11  1  0
  3 12  1  0
  3 13  1  0
  5 14  1  0
  6 15  1  0
  6 16  1  0
  7 17  1  0
  8 18  1  0
  8 19  1  0
M  END
