
     RDKit          3D

 21 23  0  0  0  0  0  0  0  0999 V2000
    1.8974    1.3435    1.0451 O   0  0  0  0  0  0  0  0  0  0  0  0
    2.0553    0.1574    0.3472 C   0  0  0  0  0  0  0  0  0  0  0  0
    0.9403   -0.8003    0.6968 C   0  0  0  0  0  0  0  0  0  0  0  0
    1.2076   -1.3946   -0.6604 C   0  0  0  0  0  0  0  0  0  0  0  0
    1.2213    0.0632   -0.9152 C   0  0  0  0  0  0  0  0  0  0  0  0
    0.0532    0.1741    0.0159 C   0  0  0  0  0  0  0  0  0  0  0  0
   -1.2838   -0.2518   -0.4293 C   0  0  0  0  0  0  0  0  0  0  0  0
   -2.2537    0.5925   -1.1123 C   0  0  0  0  0  0  0  0  0  0  0  0
   -2.4485    0.4347    0.3494 C   0  0  0  0  0  0  0  0  0  0  0  0
    2.5217    2.0292    0.6578 H   0  0  0  0  0  0  0  0  0  0  0  0
    3.0563   -0.2672    0.2969 H   0  0  0  0  0  0  0  0  0  0  0  0
    0.8201   -1.2859    1.5582 H   0  0  0  0  0  0  0  0  0  0  0  0
    2.2191   -1.9007   -0.6702 H   0  0  0  0  0  0  0  0  0  0  0  0
    0.4140   -1.9944   -1.1208 H   0  0  0  0  0  0  0  0  0  0  0  0
    1.3827    0.5677   -1.7624 H   0  0  0  0  0  0  0  0  0  0  0  0
    0.0358    1.1349    0.5731 H   0  0  0  0  0  0  0  0  0  0  0  0
   -1.4143   -1.3678   -0.5427 H   0  0  0  0  0  0  0  0  0  0  0  0
   -2.0045    1.6094   -1.5170 H   0  0  0  0  0  0  0  0  0  0  0  0
   -3.0346    0.0876   -1.7469 H   0  0  0  0  0  0  0  0  0  0  0  0
   -2.1915    1.3090    0.9604 H   0  0  0  0  0  0  0  0  0  0  0  0
   -3.1936   -0.2402    0.7767 H   0  0  0  0  0  0  0  0  0  0  0  0
  1  2  1  0
  2  3  1  0
  3  4  1  0
  4  5  1  0
  5  6  1  0
  6  7  1  0
  7  8  1  0
  8  9  1  0
  5  2  1  0
  9  7  1  0
  6  3  1  0
  1 10  1  0
  2 11  1  0
  3 12  1  0
  4 13  1  0
  4 14  1  0
  5 15  1  0
  6 16  1  0
  7 17  1  0
  8 18  1  0
  8 19  1  0
  9 20  1  0
  9 21  1  0
M  END
