
     RDKit          3D

 17 18  0  0  0  0  0  0  0  0999 V2000
   -0.3978   -2.1559   -0.6446 O   0  0  0  0  0  0  0  0  0  0  0  0
   -0.8524   -0.8488   -0.5187 C   0  0  0  0  0  0  0  0  0  0  0  0
    0.0676    0.2038   -1.0837 C   0  0  0  0  0  0  0  0  0  0  0  0
    1.0197   -0.2092   -0.0118 C   0  0  0  0  0  0  0  0  0  0  0  0
    1.9507    0.7372    0.3201 O   0  0  0  0  0  0  0  0  0  0  0  0
   -0.3004   -0.1476    0.7066 C   0  0  0  0  0  0  0  0  0  0  0  0
   -0.5507   -0.3989    1.9029 O   0  0  0  0  0  0  0  0  0  0  0  0
   -0.5449    1.1230   -0.0592 C   0  0  0  0  0  0  0  0  0  0  0  0
    0.2035    2.2046    0.3265 O   0  0  0  0  0  0  0  0  0  0  0  0
   -1.1792   -2.7718   -0.7354 H   0  0  0  0  0  0  0  0  0  0  0  0
   -1.8863   -0.6500   -0.7729 H   0  0  0  0  0  0  0  0  0  0  0  0
    0.2456    0.3982   -2.0458 H   0  0  0  0  0  0  0  0  0  0  0  0
    1.3734   -1.2349   -0.1681 H   0  0  0  0  0  0  0  0  0  0  0  0
    2.8368    0.4104   -0.0405 H   0  0  0  0  0  0  0  0  0  0  0  0
    0.0845   -0.8788    2.4534 H   0  0  0  0  0  0  0  0  0  0  0  0
   -1.6236    1.2964   -0.2390 H   0  0  0  0  0  0  0  0  0  0  0  0
   -0.4466    2.9224    0.6101 H   0  0  0  0  0  0  0  0  0  0  0  0
  1  2  1  0
  2  3  1  0
  3  4  1  0
  4  5  1  0
  4  6  1  0
  6  7  1  0
  6  8  1  0
  8  9  1  0
  6  2  1  0
  8  3  1  0
  1 10  1  0
  2 11  1  0
  3 12  1  0
  4 13  1  0
  5 14  1  0
  7 15  1  0
  8 16  1  0
  9 17  1  0
M  END
