
     RDKit          3D

 17 19  0  0  0  0  0  0  0  0999 V2000
    2.9670    0.4700    0.1061 O   0  0  0  0  0  0  0  0  0  0  0  0
    1.9573   -0.2198   -0.6073 C   0  0  0  0  0  0  0  0  0  0  0  0
    0.9966   -0.8900    0.1599 C   0  0  0  0  0  0  0  0  0  0  0  0
    0.0263   -0.5216    1.0537 O   0  0  0  0  0  0  0  0  0  0  0  0
   -1.1189   -0.7382    0.2498 C   0  0  0  0  0  0  0  0  0  0  0  0
   -1.8977    0.3320   -0.3300 C   0  0  0  0  0  0  0  0  0  0  0  0
   -1.6958    1.6469    0.0962 O   0  0  0  0  0  0  0  0  0  0  0  0
   -0.6520   -0.1623   -1.1391 C   0  0  0  0  0  0  0  0  0  0  0  0
    0.6728    0.3465   -0.7772 C   0  0  0  0  0  0  0  0  0  0  0  0
    2.7781    1.4465    0.0976 H   0  0  0  0  0  0  0  0  0  0  0  0
    2.4263   -0.7018   -1.5029 H   0  0  0  0  0  0  0  0  0  0  0  0
    0.7012   -1.9026   -0.2623 H   0  0  0  0  0  0  0  0  0  0  0  0
   -1.4811   -1.7794    0.2261 H   0  0  0  0  0  0  0  0  0  0  0  0
   -2.8767    0.0604   -0.7565 H   0  0  0  0  0  0  0  0  0  0  0  0
   -2.5113    2.0891    0.4035 H   0  0  0  0  0  0  0  0  0  0  0  0
   -0.8548   -0.8153   -1.9925 H   0  0  0  0  0  0  0  0  0  0  0  0
    0.5627    1.3397   -0.2351 H   0  0  0  0  0  0  0  0  0  0  0  0
  1  2  1  0
  2  3  1  0
  3  4  1  0
  4  5  1  0
  5  6  1  0
  6  7  1  0
  6  8  1  0
  8  9  1  0
  9  2  1  0
  9  3  1  0
  8  5  1  0
  1 10  1  0
  2 11  1  0
  3 12  1  0
  5 13  1  0
  6 14  1  0
  7 15  1  0
  8 16  1  0
  9 17  1  0
M  END
