
     RDKit          3D

 21 23  0  0  0  0  0  0  0  0999 V2000
    2.5125    0.1176   -0.7483 O   0  0  0  0  0  0  0  0  0  0  0  0
    1.3718   -0.2422   -0.0847 C   0  0  0  0  0  0  0  0  0  0  0  0
    0.9009    0.7540    0.9341 C   0  0  0  0  0  0  0  0  0  0  0  0
   -0.5293    0.6756    1.2674 C   0  0  0  0  0  0  0  0  0  0  0  0
   -1.3693    0.8931    0.0716 C   0  0  0  0  0  0  0  0  0  0  0  0
   -0.6825    0.6353   -1.2353 C   0  0  0  0  0  0  0  0  0  0  0  0
    0.2069   -0.5655   -0.9791 C   0  0  0  0  0  0  0  0  0  0  0  0
   -0.7309   -1.4179   -0.1146 C   0  0  0  0  0  0  0  0  0  0  0  0
   -1.3192   -0.4310    0.7990 C   0  0  0  0  0  0  0  0  0  0  0  0
    3.3416   -0.3049   -0.3827 H   0  0  0  0  0  0  0  0  0  0  0  0
    1.6093   -1.1885    0.4849 H   0  0  0  0  0  0  0  0  0  0  0  0
    1.5942    0.6997    1.8063 H   0  0  0  0  0  0  0  0  0  0  0  0
    1.1007    1.7700    0.4805 H   0  0  0  0  0  0  0  0  0  0  0  0
   -0.8460    1.2015    2.1856 H   0  0  0  0  0  0  0  0  0  0  0  0
   -2.2604    1.5266    0.1253 H   0  0  0  0  0  0  0  0  0  0  0  0
   -1.4614    0.2808   -1.9641 H   0  0  0  0  0  0  0  0  0  0  0  0
   -0.1648    1.4868   -1.6645 H   0  0  0  0  0  0  0  0  0  0  0  0
    0.4960   -1.0621   -1.9000 H   0  0  0  0  0  0  0  0  0  0  0  0
   -0.0922   -2.1921    0.3411 H   0  0  0  0  0  0  0  0  0  0  0  0
   -1.4503   -1.9133   -0.7752 H   0  0  0  0  0  0  0  0  0  0  0  0
   -2.2276   -0.7234    1.3525 H   0  0  0  0  0  0  0  0  0  0  0  0
  1  2  1  0
  2  3  1  0
  3  4  1  0
  4  5  1  0
  5  6  1  0
  6  7  1  0
  7  8  1  0
  8  9  1  0
  7  2  1  0
  9  4  1  0
  9  5  1  0
  1 10  1  0
  2 11  1  0
  3 12  1  0
  3 13  1  0
  4 14  1  0
  5 15  1  0
  6 16  1  0
  6 17  1  0
  7 18  1  0
  8 19  1  0
  8 20  1  0
  9 21  1  0
M  END
