
     RDKit          3D

 17 19  0  0  0  0  0  0  0  0999 V2000
    2.7675   -0.2579    0.1285 O   0  0  0  0  0  0  0  0  0  0  0  0
    1.4731   -0.6184   -0.1823 C   0  0  0  0  0  0  0  0  0  0  0  0
    0.4856   -0.3737    0.9495 C   0  0  0  0  0  0  0  0  0  0  0  0
   -0.5815   -1.2380    0.9314 O   0  0  0  0  0  0  0  0  0  0  0  0
   -1.4455   -0.8722   -0.0639 C   0  0  0  0  0  0  0  0  0  0  0  0
   -2.0740    0.5078    0.1465 C   0  0  0  0  0  0  0  0  0  0  0  0
   -0.8961    0.2588   -0.8290 C   0  0  0  0  0  0  0  0  0  0  0  0
    0.4782    0.4526   -0.2766 C   0  0  0  0  0  0  0  0  0  0  0  0
    0.9478    1.7477   -0.3046 O   0  0  0  0  0  0  0  0  0  0  0  0
    3.4535   -0.7323   -0.4058 H   0  0  0  0  0  0  0  0  0  0  0  0
    1.3668   -1.5089   -0.8089 H   0  0  0  0  0  0  0  0  0  0  0  0
    0.8178    0.1195    1.8672 H   0  0  0  0  0  0  0  0  0  0  0  0
   -2.0252   -1.6276   -0.6324 H   0  0  0  0  0  0  0  0  0  0  0  0
   -3.0749    0.6236   -0.2911 H   0  0  0  0  0  0  0  0  0  0  0  0
   -1.8526    1.0528    1.0764 H   0  0  0  0  0  0  0  0  0  0  0  0
   -1.1538    0.4529   -1.8617 H   0  0  0  0  0  0  0  0  0  0  0  0
    1.3131    2.0134    0.5570 H   0  0  0  0  0  0  0  0  0  0  0  0
  1  2  1  0
  2  3  1  0
  3  4  1  0
  4  5  1  0
  5  6  1  0
  6  7  1  0
  7  8  1  0
  8  9  1  0
  8  2  1  0
  8  3  1  0
  7  5  1  0
  1 10  1  0
  2 11  1  0
  3 12  1  0
  5 13  1  0
  6 14  1  0
  6 15  1  0
  7 16  1  0
  9 17  1  0
M  END
