
     RDKit          3D

 19 21  0  0  0  0  0  0  0  0999 V2000
   -2.6590    0.5884    0.1936 O   0  0  0  0  0  0  0  0  0  0  0  0
   -1.3618    0.5823   -0.2215 C   0  0  0  0  0  0  0  0  0  0  0  0
   -0.9297   -0.7433   -0.8698 C   0  0  0  0  0  0  0  0  0  0  0  0
   -0.9425   -1.2745    0.5713 C   0  0  0  0  0  0  0  0  0  0  0  0
   -0.3554    0.1179    0.8425 C   0  0  0  0  0  0  0  0  0  0  0  0
    0.8761    0.0796    0.0198 C   0  0  0  0  0  0  0  0  0  0  0  0
    1.8432    1.1580   -0.1009 C   0  0  0  0  0  0  0  0  0  0  0  0
    2.1870   -0.1520    0.5944 C   0  0  0  0  0  0  0  0  0  0  0  0
    0.4124   -0.6355   -1.1129 O   0  0  0  0  0  0  0  0  0  0  0  0
   -3.2455    0.5961   -0.6028 H   0  0  0  0  0  0  0  0  0  0  0  0
   -0.9599    1.4753   -0.7072 H   0  0  0  0  0  0  0  0  0  0  0  0
   -1.5946   -1.1882   -1.5613 H   0  0  0  0  0  0  0  0  0  0  0  0
   -1.9322   -1.4467    0.9878 H   0  0  0  0  0  0  0  0  0  0  0  0
   -0.1889   -2.0796    0.7405 H   0  0  0  0  0  0  0  0  0  0  0  0
   -0.4119    0.5180    1.8051 H   0  0  0  0  0  0  0  0  0  0  0  0
    1.6928    2.0657    0.4793 H   0  0  0  0  0  0  0  0  0  0  0  0
    2.4092    1.2961   -1.0438 H   0  0  0  0  0  0  0  0  0  0  0  0
    2.9294   -0.8246    0.1561 H   0  0  0  0  0  0  0  0  0  0  0  0
    2.2313   -0.1328    1.7235 H   0  0  0  0  0  0  0  0  0  0  0  0
  1  2  1  0
  2  3  1  0
  3  4  1  0
  4  5  1  0
  5  6  1  0
  6  7  1  0
  7  8  1  0
  6  9  1  0
  5  2  1  0
  8  6  1  0
  9  3  1  0
  1 10  1  0
  2 11  1  0
  3 12  1  0
  4 13  1  0
  4 14  1  0
  5 15  1  0
  7 16  1  0
  7 17  1  0
  8 18  1  0
  8 19  1  0
M  END
