
     RDKit          3D

 19 20  0  0  0  0  0  0  0  0999 V2000
   -1.8852   -1.0663   -0.8196 O   0  0  0  0  0  0  0  0  0  0  0  0
   -0.7247   -0.9541   -0.1113 C   0  0  0  0  0  0  0  0  0  0  0  0
   -0.8550   -0.1792    1.1775 C   0  0  0  0  0  0  0  0  0  0  0  0
    0.3928    0.6829    1.1516 C   0  0  0  0  0  0  0  0  0  0  0  0
    1.5504   -0.0756    1.1565 O   0  0  0  0  0  0  0  0  0  0  0  0
    1.6793   -0.7121   -0.0539 C   0  0  0  0  0  0  0  0  0  0  0  0
    0.4172   -0.3359   -0.8363 C   0  0  0  0  0  0  0  0  0  0  0  0
    0.3338    1.1127   -0.3293 C   0  0  0  0  0  0  0  0  0  0  0  0
   -0.8732    1.6937   -0.6088 O   0  0  0  0  0  0  0  0  0  0  0  0
   -2.2742   -0.2394   -1.1390 H   0  0  0  0  0  0  0  0  0  0  0  0
   -0.4078   -1.9939    0.1814 H   0  0  0  0  0  0  0  0  0  0  0  0
   -0.9400   -0.7936    2.0659 H   0  0  0  0  0  0  0  0  0  0  0  0
   -1.7173    0.5316    1.0397 H   0  0  0  0  0  0  0  0  0  0  0  0
    0.3822    1.5159    1.8286 H   0  0  0  0  0  0  0  0  0  0  0  0
    2.5353   -0.3585   -0.6626 H   0  0  0  0  0  0  0  0  0  0  0  0
    1.6745   -1.8147    0.0123 H   0  0  0  0  0  0  0  0  0  0  0  0
    0.4823   -0.4408   -1.8858 H   0  0  0  0  0  0  0  0  0  0  0  0
    1.2171    1.6911   -0.5793 H   0  0  0  0  0  0  0  0  0  0  0  0
   -0.9874    1.7361   -1.5876 H   0  0  0  0  0  0  0  0  0  0  0  0
  1  2  1  0
  2  3  1  0
  3  4  1  0
  4  5  1  0
  5  6  1  0
  6  7  1  0
  7  8  1  0
  8  9  1  0
  7  2  1  0
  8  4  1  0
  1 10  1  0
  2 11  1  0
  3 12  1  0
  3 13  1  0
  4 14  1  0
  6 15  1  0
  6 16  1  0
  7 17  1  0
  8 18  1  0
  9 19  1  0
M  END
