
     RDKit          3D

 20 21  0  0  0  0  0  0  0  0999 V2000
   -1.4342    2.1623   -0.0063 O   0  0  0  0  0  0  0  0  0  0  0  0
   -0.7026    1.0385   -0.2762 C   0  0  0  0  0  0  0  0  0  0  0  0
   -1.4384   -0.1939    0.2774 C   0  0  0  0  0  0  0  0  0  0  0  0
   -0.7064   -1.4692    0.1004 C   0  0  0  0  0  0  0  0  0  0  0  0
    0.8073   -1.3705    0.3507 C   0  0  0  0  0  0  0  0  0  0  0  0
    1.2572   -0.2419   -0.4694 C   0  0  0  0  0  0  0  0  0  0  0  0
    1.9486    0.9583   -0.2076 C   0  0  0  0  0  0  0  0  0  0  0  0
    0.6354    0.9715    0.3092 C   0  0  0  0  0  0  0  0  0  0  0  0
   -2.3237    2.0495   -0.4728 H   0  0  0  0  0  0  0  0  0  0  0  0
   -0.7304    0.8900   -1.3953 H   0  0  0  0  0  0  0  0  0  0  0  0
   -1.5005    0.0054    1.3879 H   0  0  0  0  0  0  0  0  0  0  0  0
   -2.4344   -0.2914   -0.1394 H   0  0  0  0  0  0  0  0  0  0  0  0
   -1.1479   -2.2272    0.7435 H   0  0  0  0  0  0  0  0  0  0  0  0
   -0.8438   -1.7940   -0.9720 H   0  0  0  0  0  0  0  0  0  0  0  0
    1.2400   -2.3260   -0.0007 H   0  0  0  0  0  0  0  0  0  0  0  0
    0.9040   -1.2345    1.4540 H   0  0  0  0  0  0  0  0  0  0  0  0
    0.9025   -0.3834   -1.5367 H   0  0  0  0  0  0  0  0  0  0  0  0
    2.8198    0.9502    0.4870 H   0  0  0  0  0  0  0  0  0  0  0  0
    2.1879    1.6482   -1.0682 H   0  0  0  0  0  0  0  0  0  0  0  0
    0.5597    0.8579    1.4345 H   0  0  0  0  0  0  0  0  0  0  0  0
  1  2  1  0
  2  3  1  0
  3  4  1  0
  4  5  1  0
  5  6  1  0
  6  7  1  0
  7  8  1  0
  8  2  1  0
  8  6  1  0
  1  9  1  0
  2 10  1  0
  3 11  1  0
  3 12  1  0
  4 13  1  0
  4 14  1  0
  5 15  1  0
  5 16  1  0
  6 17  1  0
  7 18  1  0
  7 19  1  0
  8 20  1  0
M  END
