
     RDKit          3D

 16 17  0  0  0  0  0  0  0  0999 V2000
    2.3401   -1.0142    0.0350 O   0  0  0  0  0  0  0  0  0  0  0  0
    1.1855   -0.4327   -0.4907 C   0  0  0  0  0  0  0  0  0  0  0  0
   -0.0833   -1.0330   -0.0897 C   0  0  0  0  0  0  0  0  0  0  0  0
   -1.4036   -0.6842   -0.6607 C   0  0  0  0  0  0  0  0  0  0  0  0
   -1.3476    0.6527   -1.0729 O   0  0  0  0  0  0  0  0  0  0  0  0
   -0.5891    1.3333   -0.1597 C   0  0  0  0  0  0  0  0  0  0  0  0
    0.3771    0.3283    0.4625 C   0  0  0  0  0  0  0  0  0  0  0  0
    0.5692    0.3362    1.8165 O   0  0  0  0  0  0  0  0  0  0  0  0
    2.9652   -0.2489    0.2225 H   0  0  0  0  0  0  0  0  0  0  0  0
    1.3577    0.0027   -1.5016 H   0  0  0  0  0  0  0  0  0  0  0  0
   -0.0688   -1.8969    0.5915 H   0  0  0  0  0  0  0  0  0  0  0  0
   -1.7878   -1.3293   -1.4370 H   0  0  0  0  0  0  0  0  0  0  0  0
   -2.1545   -0.7009    0.1816 H   0  0  0  0  0  0  0  0  0  0  0  0
   -1.1689    1.8798    0.6104 H   0  0  0  0  0  0  0  0  0  0  0  0
    0.0555    2.0568   -0.7387 H   0  0  0  0  0  0  0  0  0  0  0  0
   -0.2466    0.7503    2.2310 H   0  0  0  0  0  0  0  0  0  0  0  0
  1  2  1  0
  2  3  1  0
  3  4  1  0
  4  5  1  0
  5  6  1  0
  6  7  1  0
  7  8  1  0
  7  2  1  0
  7  3  1  0
  1  9  1  0
  2 10  1  0
  3 11  1  0
  4 12  1  0
  4 13  1  0
  6 14  1  0
  6 15  1  0
  8 16  1  0
M  END
