
     RDKit          3D

 17 19  0  0  0  0  0  0  0  0999 V2000
    1.2556    1.4095    1.1047 O   0  0  0  0  0  0  0  0  0  0  0  0
    1.1613    0.5184    0.0723 C   0  0  0  0  0  0  0  0  0  0  0  0
    0.1663    0.9076   -0.9901 C   0  0  0  0  0  0  0  0  0  0  0  0
   -1.1402    1.1422   -0.2816 C   0  0  0  0  0  0  0  0  0  0  0  0
   -1.5802    0.0842    0.4137 C   0  0  0  0  0  0  0  0  0  0  0  0
   -0.7239   -1.1039    0.4465 C   0  0  0  0  0  0  0  0  0  0  0  0
   -0.0123   -1.3170   -0.8228 C   0  0  0  0  0  0  0  0  0  0  0  0
    0.0217   -0.2677   -1.6986 O   0  0  0  0  0  0  0  0  0  0  0  0
    0.7246   -0.8533    0.4468 C   0  0  0  0  0  0  0  0  0  0  0  0
    1.0744    1.0651    1.9946 H   0  0  0  0  0  0  0  0  0  0  0  0
    2.1676    0.4524   -0.4191 H   0  0  0  0  0  0  0  0  0  0  0  0
    0.4674    1.7294   -1.6252 H   0  0  0  0  0  0  0  0  0  0  0  0
   -1.6742    2.0647   -0.3239 H   0  0  0  0  0  0  0  0  0  0  0  0
   -2.5227    0.0580    0.9469 H   0  0  0  0  0  0  0  0  0  0  0  0
   -1.0624   -2.0064    0.9879 H   0  0  0  0  0  0  0  0  0  0  0  0
    0.2913   -2.3110   -1.1927 H   0  0  0  0  0  0  0  0  0  0  0  0
    1.3858   -1.5723    0.9406 H   0  0  0  0  0  0  0  0  0  0  0  0
  1  2  1  0
  2  3  1  0
  3  4  1  0
  4  5  2  0
  5  6  1  0
  6  7  1  0
  7  8  1  0
  7  9  1  0
  9  2  1  0
  8  3  1  0
  9  6  1  0
  1 10  1  0
  2 11  1  0
  3 12  1  0
  4 13  1  0
  5 14  1  0
  6 15  1  0
  7 16  1  0
  9 17  1  0
M  END
