
     RDKit          3D

 20 21  0  0  0  0  0  0  0  0999 V2000
    2.8202    0.1356   -0.6383 O   0  0  0  0  0  0  0  0  0  0  0  0
    1.5963   -0.3978   -0.3104 C   0  0  0  0  0  0  0  0  0  0  0  0
    1.3132   -0.0498    1.1468 C   0  0  0  0  0  0  0  0  0  0  0  0
   -0.1674   -0.2174    1.2921 C   0  0  0  0  0  0  0  0  0  0  0  0
   -0.7094   -0.0207   -0.0880 C   0  0  0  0  0  0  0  0  0  0  0  0
   -1.9373   -0.7041   -0.4906 C   0  0  0  0  0  0  0  0  0  0  0  0
   -1.9864    0.7552   -0.2152 C   0  0  0  0  0  0  0  0  0  0  0  0
    0.4358    0.2375   -1.0121 C   0  0  0  0  0  0  0  0  0  0  0  0
    2.8045    0.8093   -1.3466 H   0  0  0  0  0  0  0  0  0  0  0  0
    1.5551   -1.4799   -0.4872 H   0  0  0  0  0  0  0  0  0  0  0  0
    1.6158    0.9982    1.2906 H   0  0  0  0  0  0  0  0  0  0  0  0
    1.8785   -0.7232    1.8013 H   0  0  0  0  0  0  0  0  0  0  0  0
   -0.4267   -1.2124    1.6902 H   0  0  0  0  0  0  0  0  0  0  0  0
   -0.6419    0.5267    1.9606 H   0  0  0  0  0  0  0  0  0  0  0  0
   -2.4225   -1.3651    0.2744 H   0  0  0  0  0  0  0  0  0  0  0  0
   -2.1046   -1.0590   -1.5390 H   0  0  0  0  0  0  0  0  0  0  0  0
   -2.4517    1.1066    0.7377 H   0  0  0  0  0  0  0  0  0  0  0  0
   -2.0105    1.5068   -1.0172 H   0  0  0  0  0  0  0  0  0  0  0  0
    0.6197    1.3300   -1.0448 H   0  0  0  0  0  0  0  0  0  0  0  0
    0.2193   -0.1765   -2.0043 H   0  0  0  0  0  0  0  0  0  0  0  0
  1  2  1  0
  2  3  1  0
  3  4  1  0
  4  5  1  0
  5  6  1  0
  6  7  1  0
  5  8  1  0
  8  2  1  0
  7  5  1  0
  1  9  1  0
  2 10  1  0
  3 11  1  0
  3 12  1  0
  4 13  1  0
  4 14  1  0
  6 15  1  0
  6 16  1  0
  7 17  1  0
  7 18  1  0
  8 19  1  0
  8 20  1  0
M  END
