
     RDKit          3D

 21 23  0  0  0  0  0  0  0  0999 V2000
    2.3714   -0.2170   -1.7558 O   0  0  0  0  0  0  0  0  0  0  0  0
    2.0522   -0.4990   -0.4063 C   0  0  0  0  0  0  0  0  0  0  0  0
    2.0925    0.7524    0.4551 C   0  0  0  0  0  0  0  0  0  0  0  0
    0.8541    0.1183    0.1079 C   0  0  0  0  0  0  0  0  0  0  0  0
   -0.2230    0.6630   -0.7592 C   0  0  0  0  0  0  0  0  0  0  0  0
   -1.2012   -0.0519    0.1282 C   0  0  0  0  0  0  0  0  0  0  0  0
   -2.4960    0.4555    0.5024 C   0  0  0  0  0  0  0  0  0  0  0  0
   -2.3111   -0.8429   -0.3369 C   0  0  0  0  0  0  0  0  0  0  0  0
   -0.1241   -0.4904    1.0409 C   0  0  0  0  0  0  0  0  0  0  0  0
    3.3217   -0.4253   -1.9302 H   0  0  0  0  0  0  0  0  0  0  0  0
    2.4879   -1.4326   -0.0387 H   0  0  0  0  0  0  0  0  0  0  0  0
    2.5102    0.5746    1.4764 H   0  0  0  0  0  0  0  0  0  0  0  0
    2.3598    1.7145    0.0200 H   0  0  0  0  0  0  0  0  0  0  0  0
   -0.1413    0.2654   -1.8040 H   0  0  0  0  0  0  0  0  0  0  0  0
   -0.3975    1.7542   -0.7352 H   0  0  0  0  0  0  0  0  0  0  0  0
   -2.8435    0.3426    1.5305 H   0  0  0  0  0  0  0  0  0  0  0  0
   -2.8908    1.3377   -0.0524 H   0  0  0  0  0  0  0  0  0  0  0  0
   -2.6249   -1.7639    0.2128 H   0  0  0  0  0  0  0  0  0  0  0  0
   -2.6143   -0.8061   -1.3873 H   0  0  0  0  0  0  0  0  0  0  0  0
   -0.1574    0.1013    2.0027 H   0  0  0  0  0  0  0  0  0  0  0  0
   -0.0250   -1.5502    1.2774 H   0  0  0  0  0  0  0  0  0  0  0  0
  1  2  1  0
  2  3  1  0
  3  4  1  0
  4  5  1  0
  5  6  1  0
  6  7  1  0
  7  8  1  0
  6  9  1  0
  4  2  1  0
  8  6  1  0
  9  4  1  0
  1 10  1  0
  2 11  1  0
  3 12  1  0
  3 13  1  0
  5 14  1  0
  5 15  1  0
  7 16  1  0
  7 17  1  0
  8 18  1  0
  8 19  1  0
  9 20  1  0
  9 21  1  0
M  END
