
     RDKit          3D

 19 20  0  0  0  0  0  0  0  0999 V2000
    2.4270   -0.9355    0.8085 O   0  0  0  0  0  0  0  0  0  0  0  0
    1.1927   -0.2917    0.7679 C   0  0  0  0  0  0  0  0  0  0  0  0
    1.3162    1.1740    0.7921 C   0  0  0  0  0  0  0  0  0  0  0  0
    0.4112    1.7102    0.0131 C   0  0  0  0  0  0  0  0  0  0  0  0
   -0.4236    0.6884   -0.6262 C   0  0  0  0  0  0  0  0  0  0  0  0
   -1.4895    0.0242    0.1982 C   0  0  0  0  0  0  0  0  0  0  0  0
   -1.5457    0.3401    1.5274 O   0  0  0  0  0  0  0  0  0  0  0  0
   -0.8771   -1.3284   -0.1227 C   0  0  0  0  0  0  0  0  0  0  0  0
    0.4079   -0.5878   -0.4573 C   0  0  0  0  0  0  0  0  0  0  0  0
    2.2784   -1.8309    0.3808 H   0  0  0  0  0  0  0  0  0  0  0  0
    0.6007   -0.5681    1.6903 H   0  0  0  0  0  0  0  0  0  0  0  0
    2.0828    1.7478    1.3971 H   0  0  0  0  0  0  0  0  0  0  0  0
    0.2937    2.8040   -0.1416 H   0  0  0  0  0  0  0  0  0  0  0  0
   -0.6780    0.9039   -1.6740 H   0  0  0  0  0  0  0  0  0  0  0  0
   -2.4750    0.1127   -0.3268 H   0  0  0  0  0  0  0  0  0  0  0  0
   -2.3729    0.8287    1.7659 H   0  0  0  0  0  0  0  0  0  0  0  0
   -0.7412   -2.0073    0.7186 H   0  0  0  0  0  0  0  0  0  0  0  0
   -1.3310   -1.8519   -0.9860 H   0  0  0  0  0  0  0  0  0  0  0  0
    0.9236   -0.9322   -1.3505 H   0  0  0  0  0  0  0  0  0  0  0  0
  1  2  1  0
  2  3  1  0
  3  4  2  0
  4  5  1  0
  5  6  1  0
  6  7  1  0
  6  8  1  0
  8  9  1  0
  9  2  1  0
  9  5  1  0
  1 10  1  0
  2 11  1  0
  3 12  1  0
  4 13  1  0
  5 14  1  0
  6 15  1  0
  7 16  1  0
  8 17  1  0
  8 18  1  0
  9 19  1  0
M  END
