
     RDKit          3D

 19 20  0  0  0  0  0  0  0  0999 V2000
   -0.7049   -1.9064   -0.1555 O   0  0  0  0  0  0  0  0  0  0  0  0
   -0.9741   -0.5760   -0.3440 C   0  0  0  0  0  0  0  0  0  0  0  0
   -1.6755    0.1132    0.8388 C   0  0  0  0  0  0  0  0  0  0  0  0
   -0.8724    1.3524    0.4117 C   0  0  0  0  0  0  0  0  0  0  0  0
    0.1814    0.3702    0.0066 C   0  0  0  0  0  0  0  0  0  0  0  0
    1.0951    0.7144   -1.0916 C   0  0  0  0  0  0  0  0  0  0  0  0
    2.3083    0.1111   -0.7037 O   0  0  0  0  0  0  0  0  0  0  0  0
    2.0098   -0.7148    0.3659 C   0  0  0  0  0  0  0  0  0  0  0  0
    0.9778   -0.0746    1.0470 O   0  0  0  0  0  0  0  0  0  0  0  0
   -1.5858   -2.3834   -0.0879 H   0  0  0  0  0  0  0  0  0  0  0  0
   -1.4080   -0.2914   -1.3314 H   0  0  0  0  0  0  0  0  0  0  0  0
   -1.2448   -0.2776    1.7648 H   0  0  0  0  0  0  0  0  0  0  0  0
   -2.7505    0.2046    0.7483 H   0  0  0  0  0  0  0  0  0  0  0  0
   -0.6858    1.9751    1.2806 H   0  0  0  0  0  0  0  0  0  0  0  0
   -1.3129    1.8359   -0.4857 H   0  0  0  0  0  0  0  0  0  0  0  0
    0.8311    0.2973   -2.0890 H   0  0  0  0  0  0  0  0  0  0  0  0
    1.3111    1.8054   -1.1401 H   0  0  0  0  0  0  0  0  0  0  0  0
    2.8788   -0.8897    1.0045 H   0  0  0  0  0  0  0  0  0  0  0  0
    1.6212   -1.6656   -0.0393 H   0  0  0  0  0  0  0  0  0  0  0  0
  1  2  1  0
  2  3  1  0
  3  4  1  0
  4  5  1  0
  5  6  1  0
  6  7  1  0
  7  8  1  0
  8  9  1  0
  5  2  1  0
  9  5  1  0
  1 10  1  0
  2 11  1  0
  3 12  1  0
  3 13  1  0
  4 14  1  0
  4 15  1  0
  6 16  1  0
  6 17  1  0
  8 18  1  0
  8 19  1  0
M  END
