
     RDKit          3D

 19 20  0  0  0  0  0  0  0  0999 V2000
   -2.0608   -1.4826   -0.6370 O   0  0  0  0  0  0  0  0  0  0  0  0
   -1.0562   -1.0437    0.2166 C   0  0  0  0  0  0  0  0  0  0  0  0
   -1.5095   -0.0025    1.1632 C   0  0  0  0  0  0  0  0  0  0  0  0
   -1.0374    1.1897    0.8678 C   0  0  0  0  0  0  0  0  0  0  0  0
   -0.1828    1.0968   -0.3497 C   0  0  0  0  0  0  0  0  0  0  0  0
    1.3030    1.1806   -0.0578 C   0  0  0  0  0  0  0  0  0  0  0  0
    1.3800   -0.3387    0.0020 C   0  0  0  0  0  0  0  0  0  0  0  0
    2.3171   -0.8871   -0.8728 O   0  0  0  0  0  0  0  0  0  0  0  0
    0.0135   -0.3916   -0.5861 C   0  0  0  0  0  0  0  0  0  0  0  0
   -2.0681   -0.9749   -1.4636 H   0  0  0  0  0  0  0  0  0  0  0  0
   -0.6494   -1.9131    0.7865 H   0  0  0  0  0  0  0  0  0  0  0  0
   -2.1697   -0.2417    2.0095 H   0  0  0  0  0  0  0  0  0  0  0  0
   -1.2251    2.1103    1.4084 H   0  0  0  0  0  0  0  0  0  0  0  0
   -0.5273    1.6696   -1.2228 H   0  0  0  0  0  0  0  0  0  0  0  0
    1.5556    1.6347    0.9094 H   0  0  0  0  0  0  0  0  0  0  0  0
    1.8652    1.5390   -0.9422 H   0  0  0  0  0  0  0  0  0  0  0  0
    1.5147   -0.7597    1.0142 H   0  0  0  0  0  0  0  0  0  0  0  0
    2.5319   -1.8020   -0.5706 H   0  0  0  0  0  0  0  0  0  0  0  0
    0.0053   -0.5829   -1.6750 H   0  0  0  0  0  0  0  0  0  0  0  0
  1  2  1  0
  2  3  1  0
  3  4  2  0
  4  5  1  0
  5  6  1  0
  6  7  1  0
  7  8  1  0
  7  9  1  0
  9  2  1  0
  9  5  1  0
  1 10  1  0
  2 11  1  0
  3 12  1  0
  4 13  1  0
  5 14  1  0
  6 15  1  0
  6 16  1  0
  7 17  1  0
  8 18  1  0
  9 19  1  0
M  END
