
     RDKit          3D

 19 21  0  0  0  0  0  0  0  0999 V2000
   -2.5100   -0.6095   -0.5898 O   0  0  0  0  0  0  0  0  0  0  0  0
   -1.5517   -0.3208    0.3472 C   0  0  0  0  0  0  0  0  0  0  0  0
   -1.0453    1.1299    0.2253 C   0  0  0  0  0  0  0  0  0  0  0  0
    0.4216    0.8527    0.0265 C   0  0  0  0  0  0  0  0  0  0  0  0
    1.2764    1.8813   -0.0851 O   0  0  0  0  0  0  0  0  0  0  0  0
    0.7385   -0.2698    0.9737 C   0  0  0  0  0  0  0  0  0  0  0  0
    1.7329   -0.7435   -0.0416 C   0  0  0  0  0  0  0  0  0  0  0  0
    0.5521   -0.3324   -0.8696 C   0  0  0  0  0  0  0  0  0  0  0  0
   -0.2651   -1.0529    0.1738 C   0  0  0  0  0  0  0  0  0  0  0  0
   -2.1937   -0.3697   -1.4812 H   0  0  0  0  0  0  0  0  0  0  0  0
   -1.9155   -0.5162    1.3831 H   0  0  0  0  0  0  0  0  0  0  0  0
   -1.2149    1.6440    1.1799 H   0  0  0  0  0  0  0  0  0  0  0  0
   -1.5209    1.6428   -0.6180 H   0  0  0  0  0  0  0  0  0  0  0  0
    1.9545    1.8372   -0.7932 H   0  0  0  0  0  0  0  0  0  0  0  0
    0.8327   -0.2295    1.9659 H   0  0  0  0  0  0  0  0  0  0  0  0
    1.8477   -1.8501    0.0151 H   0  0  0  0  0  0  0  0  0  0  0  0
    2.6556   -0.1847   -0.1551 H   0  0  0  0  0  0  0  0  0  0  0  0
    0.4444   -0.3875   -1.8607 H   0  0  0  0  0  0  0  0  0  0  0  0
   -0.2391   -2.1213    0.2039 H   0  0  0  0  0  0  0  0  0  0  0  0
  1  2  1  0
  2  3  1  0
  3  4  1  0
  4  5  1  0
  4  6  1  0
  6  7  1  0
  7  8  1  0
  8  9  1  0
  9  2  1  0
  8  4  1  0
  9  6  1  0
  1 10  1  0
  2 11  1  0
  3 12  1  0
  3 13  1  0
  5 14  1  0
  6 15  1  0
  7 16  1  0
  7 17  1  0
  8 18  1  0
  9 19  1  0
M  END
