
     RDKit          3D

 20 21  0  0  0  0  0  0  0  0999 V2000
   -2.7013    0.6015    0.4433 O   0  0  0  0  0  0  0  0  0  0  0  0
   -1.5856   -0.2656    0.5049 C   0  0  0  0  0  0  0  0  0  0  0  0
   -1.2220   -0.6942   -0.9095 C   0  0  0  0  0  0  0  0  0  0  0  0
   -0.0922    0.3020   -0.8597 C   0  0  0  0  0  0  0  0  0  0  0  0
    1.2962   -0.2945   -0.9560 C   0  0  0  0  0  0  0  0  0  0  0  0
    1.9333    0.2295    0.3169 C   0  0  0  0  0  0  0  0  0  0  0  0
    0.8272   -0.1322    1.3203 C   0  0  0  0  0  0  0  0  0  0  0  0
   -0.3443    0.5298    0.6304 C   0  0  0  0  0  0  0  0  0  0  0  0
   -2.4057    1.3223   -0.1990 H   0  0  0  0  0  0  0  0  0  0  0  0
   -1.7010   -1.1151    1.1814 H   0  0  0  0  0  0  0  0  0  0  0  0
   -0.9077   -1.7407   -1.0177 H   0  0  0  0  0  0  0  0  0  0  0  0
   -1.9756   -0.4304   -1.6809 H   0  0  0  0  0  0  0  0  0  0  0  0
   -0.2589    1.2114   -1.4684 H   0  0  0  0  0  0  0  0  0  0  0  0
    1.7818    0.0476   -1.8649 H   0  0  0  0  0  0  0  0  0  0  0  0
    1.1875   -1.3990   -0.8745 H   0  0  0  0  0  0  0  0  0  0  0  0
    1.9224    1.3269    0.2495 H   0  0  0  0  0  0  0  0  0  0  0  0
    2.8836   -0.2258    0.5580 H   0  0  0  0  0  0  0  0  0  0  0  0
    0.7122   -1.2181    1.4267 H   0  0  0  0  0  0  0  0  0  0  0  0
    1.0833    0.3613    2.2701 H   0  0  0  0  0  0  0  0  0  0  0  0
   -0.4332    1.5832    0.9292 H   0  0  0  0  0  0  0  0  0  0  0  0
  1  2  1  0
  2  3  1  0
  3  4  1  0
  4  5  1  0
  5  6  1  0
  6  7  1  0
  7  8  1  0
  8  2  1  0
  8  4  1  0
  1  9  1  0
  2 10  1  0
  3 11  1  0
  3 12  1  0
  4 13  1  0
  5 14  1  0
  5 15  1  0
  6 16  1  0
  6 17  1  0
  7 18  1  0
  7 19  1  0
  8 20  1  0
M  END
