
     RDKit          3D

 21 21  0  0  0  0  0  0  0  0999 V2000
    1.8081   -0.5584   -1.4392 O   0  0  0  0  0  0  0  0  0  0  0  0
    1.5888   -0.3768   -0.0567 C   0  0  0  0  0  0  0  0  0  0  0  0
    1.5605    1.0472    0.3488 C   0  0  0  0  0  0  0  0  0  0  0  0
    0.3279    1.5507    0.6734 O   0  0  0  0  0  0  0  0  0  0  0  0
   -0.6529    1.3472   -0.2532 C   0  0  0  0  0  0  0  0  0  0  0  0
   -1.7649    0.5474    0.4103 C   0  0  0  0  0  0  0  0  0  0  0  0
   -1.8095   -0.8305   -0.1962 C   0  0  0  0  0  0  0  0  0  0  0  0
   -0.5664   -1.0869   -0.7574 O   0  0  0  0  0  0  0  0  0  0  0  0
    0.3653   -1.1622    0.2932 C   0  0  0  0  0  0  0  0  0  0  0  0
    2.0973   -1.5067   -1.5336 H   0  0  0  0  0  0  0  0  0  0  0  0
    2.4602   -0.8958    0.4401 H   0  0  0  0  0  0  0  0  0  0  0  0
    2.2171    1.1918    1.2565 H   0  0  0  0  0  0  0  0  0  0  0  0
    2.0837    1.6418   -0.4548 H   0  0  0  0  0  0  0  0  0  0  0  0
   -0.3182    0.8872   -1.2012 H   0  0  0  0  0  0  0  0  0  0  0  0
   -1.1057    2.3356   -0.5108 H   0  0  0  0  0  0  0  0  0  0  0  0
   -1.5765    0.4189    1.5070 H   0  0  0  0  0  0  0  0  0  0  0  0
   -2.7471    1.0351    0.3253 H   0  0  0  0  0  0  0  0  0  0  0  0
   -2.5464   -0.8094   -1.0209 H   0  0  0  0  0  0  0  0  0  0  0  0
   -2.0177   -1.5868    0.5747 H   0  0  0  0  0  0  0  0  0  0  0  0
    0.6619   -2.2520    0.3277 H   0  0  0  0  0  0  0  0  0  0  0  0
   -0.0657   -0.9374    1.2669 H   0  0  0  0  0  0  0  0  0  0  0  0
  1  2  1  0
  2  3  1  0
  3  4  1  0
  4  5  1  0
  5  6  1  0
  6  7  1  0
  7  8  1  0
  8  9  1  0
  9  2  1  0
  1 10  1  0
  2 11  1  0
  3 12  1  0
  3 13  1  0
  5 14  1  0
  5 15  1  0
  6 16  1  0
  6 17  1  0
  7 18  1  0
  7 19  1  0
  9 20  1  0
  9 21  1  0
M  END
