
     RDKit          3D

 19 20  0  0  0  0  0  0  0  0999 V2000
   -1.9540   -0.5696    1.6296 O   0  0  0  0  0  0  0  0  0  0  0  0
   -2.1853    0.1941    0.4866 C   0  0  0  0  0  0  0  0  0  0  0  0
   -2.0121   -0.3710   -0.8685 C   0  0  0  0  0  0  0  0  0  0  0  0
   -1.7824   -1.7272   -1.0711 O   0  0  0  0  0  0  0  0  0  0  0  0
   -0.9021    0.4785   -0.3030 C   0  0  0  0  0  0  0  0  0  0  0  0
    0.2403   -0.2446    0.0276 O   0  0  0  0  0  0  0  0  0  0  0  0
    1.4089    0.5022   -0.1608 C   0  0  0  0  0  0  0  0  0  0  0  0
    2.6466   -0.1964   -0.6005 C   0  0  0  0  0  0  0  0  0  0  0  0
    2.4844    0.2333    0.8476 C   0  0  0  0  0  0  0  0  0  0  0  0
   -1.7258    0.1002    2.3512 H   0  0  0  0  0  0  0  0  0  0  0  0
   -2.8802    1.0331    0.6546 H   0  0  0  0  0  0  0  0  0  0  0  0
   -2.6211    0.1216   -1.6635 H   0  0  0  0  0  0  0  0  0  0  0  0
   -2.6115   -2.2104   -0.8947 H   0  0  0  0  0  0  0  0  0  0  0  0
   -0.7755    1.5283   -0.6665 H   0  0  0  0  0  0  0  0  0  0  0  0
    1.2442    1.5332   -0.5367 H   0  0  0  0  0  0  0  0  0  0  0  0
    3.3567    0.3763   -1.2399 H   0  0  0  0  0  0  0  0  0  0  0  0
    2.6626   -1.2842   -0.8019 H   0  0  0  0  0  0  0  0  0  0  0  0
    2.3238   -0.5826    1.5871 H   0  0  0  0  0  0  0  0  0  0  0  0
    3.0825    1.0853    1.2229 H   0  0  0  0  0  0  0  0  0  0  0  0
  1  2  1  0
  2  3  1  0
  3  4  1  0
  3  5  1  0
  5  6  1  0
  6  7  1  0
  7  8  1  0
  8  9  1  0
  5  2  1  0
  9  7  1  0
  1 10  1  0
  2 11  1  0
  3 12  1  0
  4 13  1  0
  5 14  1  0
  7 15  1  0
  8 16  1  0
  8 17  1  0
  9 18  1  0
  9 19  1  0
M  END
