
     RDKit          3D

 19 20  0  0  0  0  0  0  0  0999 V2000
    2.3575    0.3696    0.6751 O   0  0  0  0  0  0  0  0  0  0  0  0
    1.3517   -0.0884   -0.2134 C   0  0  0  0  0  0  0  0  0  0  0  0
    0.6025   -1.1491    0.4917 C   0  0  0  0  0  0  0  0  0  0  0  0
   -0.6941   -1.4978   -0.2419 C   0  0  0  0  0  0  0  0  0  0  0  0
   -1.6998   -0.5102    0.2670 C   0  0  0  0  0  0  0  0  0  0  0  0
   -1.6498    0.8062    0.1667 C   0  0  0  0  0  0  0  0  0  0  0  0
   -0.5629    1.5727   -0.4845 C   0  0  0  0  0  0  0  0  0  0  0  0
    0.4760    2.0968    0.2563 O   0  0  0  0  0  0  0  0  0  0  0  0
    0.6467    1.0395   -0.8123 C   0  0  0  0  0  0  0  0  0  0  0  0
    1.9752    0.5273    1.5635 H   0  0  0  0  0  0  0  0  0  0  0  0
    1.9572   -0.6221   -1.0120 H   0  0  0  0  0  0  0  0  0  0  0  0
    1.2292   -2.0573    0.5665 H   0  0  0  0  0  0  0  0  0  0  0  0
    0.3078   -0.8913    1.5399 H   0  0  0  0  0  0  0  0  0  0  0  0
   -0.9765   -2.5246    0.0173 H   0  0  0  0  0  0  0  0  0  0  0  0
   -0.4918   -1.3388   -1.3113 H   0  0  0  0  0  0  0  0  0  0  0  0
   -2.5540   -0.9594    0.7699 H   0  0  0  0  0  0  0  0  0  0  0  0
   -2.4786    1.3622    0.6007 H   0  0  0  0  0  0  0  0  0  0  0  0
   -1.0302    2.3428   -1.1777 H   0  0  0  0  0  0  0  0  0  0  0  0
    1.2340    1.5218   -1.6615 H   0  0  0  0  0  0  0  0  0  0  0  0
  1  2  1  0
  2  3  1  0
  3  4  1  0
  4  5  1  0
  5  6  2  0
  6  7  1  0
  7  8  1  0
  8  9  1  0
  9  2  1  0
  9  7  1  0
  1 10  1  0
  2 11  1  0
  3 12  1  0
  3 13  1  0
  4 14  1  0
  4 15  1  0
  5 16  1  0
  6 17  1  0
  7 18  1  0
  9 19  1  0
M  END
