
     RDKit          3D

 19 20  0  0  0  0  0  0  0  0999 V2000
   -2.2046    0.1256    0.5891 O   0  0  0  0  0  0  0  0  0  0  0  0
   -1.4535   -0.1263   -0.5420 C   0  0  0  0  0  0  0  0  0  0  0  0
   -0.5388    1.0510   -0.7615 C   0  0  0  0  0  0  0  0  0  0  0  0
    0.6087    0.7387    0.1843 C   0  0  0  0  0  0  0  0  0  0  0  0
    0.7172    1.3945    1.3809 O   0  0  0  0  0  0  0  0  0  0  0  0
    1.7629    0.0624   -0.4673 C   0  0  0  0  0  0  0  0  0  0  0  0
    0.7594   -0.7354    0.2436 C   0  0  0  0  0  0  0  0  0  0  0  0
    1.1864   -1.3754    1.4008 O   0  0  0  0  0  0  0  0  0  0  0  0
   -0.4791   -1.2633   -0.3749 C   0  0  0  0  0  0  0  0  0  0  0  0
   -1.8687   -0.3544    1.3755 H   0  0  0  0  0  0  0  0  0  0  0  0
   -2.1125   -0.2810   -1.4344 H   0  0  0  0  0  0  0  0  0  0  0  0
   -0.9976    2.0202   -0.5880 H   0  0  0  0  0  0  0  0  0  0  0  0
   -0.2108    0.9952   -1.8354 H   0  0  0  0  0  0  0  0  0  0  0  0
    0.7659    2.3588    1.3476 H   0  0  0  0  0  0  0  0  0  0  0  0
    2.7333    0.2182    0.0036 H   0  0  0  0  0  0  0  0  0  0  0  0
    1.8274    0.0691   -1.5935 H   0  0  0  0  0  0  0  0  0  0  0  0
    0.6876   -1.1449    2.2008 H   0  0  0  0  0  0  0  0  0  0  0  0
   -0.9194   -2.0789    0.2430 H   0  0  0  0  0  0  0  0  0  0  0  0
   -0.2637   -1.6739   -1.3722 H   0  0  0  0  0  0  0  0  0  0  0  0
  1  2  1  0
  2  3  1  0
  3  4  1  0
  4  5  1  0
  4  6  1  0
  6  7  1  0
  7  8  1  0
  7  9  1  0
  9  2  1  0
  7  4  1  0
  1 10  1  0
  2 11  1  0
  3 12  1  0
  3 13  1  0
  5 14  1  0
  6 15  1  0
  6 16  1  0
  8 17  1  0
  9 18  1  0
  9 19  1  0
M  END
