
     RDKit          3D

 15 15  0  0  0  0  0  0  0  0999 V2000
   -2.0738   -0.1157   -0.6121 O   0  0  0  0  0  0  0  0  0  0  0  0
   -1.0853    0.3167    0.2808 C   0  0  0  0  0  0  0  0  0  0  0  0
   -0.1860    1.2568   -0.4242 C   0  0  0  0  0  0  0  0  0  0  0  0
    1.0649    0.9231   -0.6682 C   0  0  0  0  0  0  0  0  0  0  0  0
    1.5661   -0.4074   -0.2283 C   0  0  0  0  0  0  0  0  0  0  0  0
    0.9951   -0.5850    1.0507 O   0  0  0  0  0  0  0  0  0  0  0  0
   -0.3673   -0.7961    0.9396 C   0  0  0  0  0  0  0  0  0  0  0  0
   -1.9075   -1.0662   -0.8968 H   0  0  0  0  0  0  0  0  0  0  0  0
   -1.6536    0.9474    1.0221 H   0  0  0  0  0  0  0  0  0  0  0  0
   -0.5477    2.2516   -0.7561 H   0  0  0  0  0  0  0  0  0  0  0  0
    1.7039    1.6332   -1.1885 H   0  0  0  0  0  0  0  0  0  0  0  0
    1.1245   -1.1809   -0.8723 H   0  0  0  0  0  0  0  0  0  0  0  0
    2.6438   -0.4572   -0.1154 H   0  0  0  0  0  0  0  0  0  0  0  0
   -0.7316   -0.9297    2.0015 H   0  0  0  0  0  0  0  0  0  0  0  0
   -0.5455   -1.7906    0.4672 H   0  0  0  0  0  0  0  0  0  0  0  0
  1  2  1  0
  2  3  1  0
  3  4  2  0
  4  5  1  0
  5  6  1  0
  6  7  1  0
  7  2  1  0
  1  8  1  0
  2  9  1  0
  3 10  1  0
  4 11  1  0
  5 12  1  0
  5 13  1  0
  7 14  1  0
  7 15  1  0
M  END
