
     RDKit          3D

 19 20  0  0  0  0  0  0  0  0999 V2000
    3.1145   -0.1468    0.2927 O   0  0  0  0  0  0  0  0  0  0  0  0
    1.8171   -0.2767   -0.1646 C   0  0  0  0  0  0  0  0  0  0  0  0
    1.3336    1.0212   -0.8159 C   0  0  0  0  0  0  0  0  0  0  0  0
   -0.1424    0.8083   -0.7903 C   0  0  0  0  0  0  0  0  0  0  0  0
   -0.4426    0.0010    0.2231 C   0  0  0  0  0  0  0  0  0  0  0  0
   -1.8066   -0.4720    0.6112 C   0  0  0  0  0  0  0  0  0  0  0  0
   -2.9229   -0.0210   -0.1772 C   0  0  0  0  0  0  0  0  0  0  0  0
   -2.4241   -1.3855   -0.3149 O   0  0  0  0  0  0  0  0  0  0  0  0
    0.8052   -0.3915    0.9571 C   0  0  0  0  0  0  0  0  0  0  0  0
    3.3454   -0.9834    0.7593 H   0  0  0  0  0  0  0  0  0  0  0  0
    1.6928   -1.0792   -0.9144 H   0  0  0  0  0  0  0  0  0  0  0  0
    1.7290    1.1160   -1.8407 H   0  0  0  0  0  0  0  0  0  0  0  0
    1.5705    1.8835   -0.1650 H   0  0  0  0  0  0  0  0  0  0  0  0
   -0.8642    1.2344   -1.4772 H   0  0  0  0  0  0  0  0  0  0  0  0
   -1.9296   -0.8504    1.6483 H   0  0  0  0  0  0  0  0  0  0  0  0
   -2.7390    0.5167   -1.1160 H   0  0  0  0  0  0  0  0  0  0  0  0
   -3.9702    0.0416    0.1888 H   0  0  0  0  0  0  0  0  0  0  0  0
    1.0886    0.3842    1.7143 H   0  0  0  0  0  0  0  0  0  0  0  0
    0.7450   -1.4005    1.3815 H   0  0  0  0  0  0  0  0  0  0  0  0
  1  2  1  0
  2  3  1  0
  3  4  1  0
  4  5  2  0
  5  6  1  0
  6  7  1  0
  7  8  1  0
  5  9  1  0
  9  2  1  0
  8  6  1  0
  1 10  1  0
  2 11  1  0
  3 12  1  0
  3 13  1  0
  4 14  1  0
  6 15  1  0
  7 16  1  0
  7 17  1  0
  9 18  1  0
  9 19  1  0
M  END
