
     RDKit          3D

 17 19  0  0  0  0  0  0  0  0999 V2000
    1.8427   -0.8112    1.0345 O   0  0  0  0  0  0  0  0  0  0  0  0
    1.6489   -0.0691   -0.1106 C   0  0  0  0  0  0  0  0  0  0  0  0
    0.5753   -0.5412   -1.0367 C   0  0  0  0  0  0  0  0  0  0  0  0
    0.3799    0.8170   -1.3800 O   0  0  0  0  0  0  0  0  0  0  0  0
    0.6824    1.0726   -0.0215 C   0  0  0  0  0  0  0  0  0  0  0  0
   -0.5647    0.5418    0.6446 C   0  0  0  0  0  0  0  0  0  0  0  0
   -1.7448    0.1781   -0.1948 C   0  0  0  0  0  0  0  0  0  0  0  0
   -2.9008   -0.1669    0.4616 O   0  0  0  0  0  0  0  0  0  0  0  0
   -0.6235   -0.8117   -0.1551 C   0  0  0  0  0  0  0  0  0  0  0  0
    2.7297   -1.2757    0.9293 H   0  0  0  0  0  0  0  0  0  0  0  0
    2.5708    0.2398   -0.6106 H   0  0  0  0  0  0  0  0  0  0  0  0
    0.8011   -1.2193   -1.8267 H   0  0  0  0  0  0  0  0  0  0  0  0
    1.0296    2.0499    0.2267 H   0  0  0  0  0  0  0  0  0  0  0  0
   -0.6401    0.4659    1.7280 H   0  0  0  0  0  0  0  0  0  0  0  0
   -1.8992    0.6427   -1.1940 H   0  0  0  0  0  0  0  0  0  0  0  0
   -3.2359    0.5803    1.0120 H   0  0  0  0  0  0  0  0  0  0  0  0
   -0.6515   -1.6930    0.4935 H   0  0  0  0  0  0  0  0  0  0  0  0
  1  2  1  0
  2  3  1  0
  3  4  1  0
  4  5  1  0
  5  6  1  0
  6  7  1  0
  7  8  1  0
  7  9  1  0
  5  2  1  0
  9  6  1  0
  9  3  1  0
  1 10  1  0
  2 11  1  0
  3 12  1  0
  5 13  1  0
  6 14  1  0
  7 15  1  0
  8 16  1  0
  9 17  1  0
M  END
