
     RDKit          3D

 19 20  0  0  0  0  0  0  0  0999 V2000
    2.8514   -0.7875   -0.1097 O   0  0  0  0  0  0  0  0  0  0  0  0
    1.8206   -0.0449    0.4037 C   0  0  0  0  0  0  0  0  0  0  0  0
    1.0291    0.7663   -0.6320 C   0  0  0  0  0  0  0  0  0  0  0  0
   -0.1979    0.1585   -0.1034 C   0  0  0  0  0  0  0  0  0  0  0  0
   -1.0470    0.9758    0.8380 C   0  0  0  0  0  0  0  0  0  0  0  0
   -2.1042    0.0486    1.0107 O   0  0  0  0  0  0  0  0  0  0  0  0
   -2.2952   -0.5044   -0.2506 C   0  0  0  0  0  0  0  0  0  0  0  0
   -1.1276   -0.3539   -0.9630 O   0  0  0  0  0  0  0  0  0  0  0  0
    0.5847   -0.9298    0.5728 C   0  0  0  0  0  0  0  0  0  0  0  0
    2.8415   -0.6917   -1.0945 H   0  0  0  0  0  0  0  0  0  0  0  0
    1.9963    0.4855    1.3543 H   0  0  0  0  0  0  0  0  0  0  0  0
    1.1074    1.8544   -0.4103 H   0  0  0  0  0  0  0  0  0  0  0  0
    1.3070    0.4924   -1.6856 H   0  0  0  0  0  0  0  0  0  0  0  0
   -0.5598    1.2322    1.7766 H   0  0  0  0  0  0  0  0  0  0  0  0
   -1.4964    1.8267    0.2944 H   0  0  0  0  0  0  0  0  0  0  0  0
   -2.5145   -1.5885   -0.1920 H   0  0  0  0  0  0  0  0  0  0  0  0
   -3.1262    0.0698   -0.7206 H   0  0  0  0  0  0  0  0  0  0  0  0
    0.3154   -1.1551    1.6072 H   0  0  0  0  0  0  0  0  0  0  0  0
    0.6152   -1.8545   -0.0734 H   0  0  0  0  0  0  0  0  0  0  0  0
  1  2  1  0
  2  3  1  0
  3  4  1  0
  4  5  1  0
  5  6  1  0
  6  7  1  0
  7  8  1  0
  4  9  1  0
  9  2  1  0
  8  4  1  0
  1 10  1  0
  2 11  1  0
  3 12  1  0
  3 13  1  0
  5 14  1  0
  5 15  1  0
  7 16  1  0
  7 17  1  0
  9 18  1  0
  9 19  1  0
M  END
