
     RDKit          3D

 17 18  0  0  0  0  0  0  0  0999 V2000
    0.4993    2.1750   -0.2025 O   0  0  0  0  0  0  0  0  0  0  0  0
   -0.3456    1.0846   -0.1401 C   0  0  0  0  0  0  0  0  0  0  0  0
    0.0672    0.2356    1.0738 C   0  0  0  0  0  0  0  0  0  0  0  0
   -0.8058   -0.8070    1.2904 O   0  0  0  0  0  0  0  0  0  0  0  0
   -1.4711   -1.1556    0.1284 C   0  0  0  0  0  0  0  0  0  0  0  0
   -0.6118   -1.1628   -0.9519 O   0  0  0  0  0  0  0  0  0  0  0  0
    0.2325   -0.0700   -0.9721 C   0  0  0  0  0  0  0  0  0  0  0  0
    1.2355   -0.2074    0.1790 C   0  0  0  0  0  0  0  0  0  0  0  0
    1.6997   -1.4680    0.4078 O   0  0  0  0  0  0  0  0  0  0  0  0
    0.0794    3.0109   -0.4620 H   0  0  0  0  0  0  0  0  0  0  0  0
   -1.4090    1.2494   -0.2494 H   0  0  0  0  0  0  0  0  0  0  0  0
    0.3666    0.8346    1.9404 H   0  0  0  0  0  0  0  0  0  0  0  0
   -1.8491   -2.1978    0.2794 H   0  0  0  0  0  0  0  0  0  0  0  0
   -2.3866   -0.5409   -0.0455 H   0  0  0  0  0  0  0  0  0  0  0  0
    0.6574    0.2190   -1.9286 H   0  0  0  0  0  0  0  0  0  0  0  0
    1.9649    0.6132    0.1106 H   0  0  0  0  0  0  0  0  0  0  0  0
    2.0766   -1.8127   -0.4578 H   0  0  0  0  0  0  0  0  0  0  0  0
  1  2  1  0
  2  3  1  0
  3  4  1  0
  4  5  1  0
  5  6  1  0
  6  7  1  0
  7  8  1  0
  8  9  1  0
  7  2  1  0
  8  3  1  0
  1 10  1  0
  2 11  1  0
  3 12  1  0
  5 13  1  0
  5 14  1  0
  7 15  1  0
  8 16  1  0
  9 17  1  0
M  END
