
     RDKit          3D

 19 20  0  0  0  0  0  0  0  0999 V2000
   -2.3713    0.5958    1.2854 O   0  0  0  0  0  0  0  0  0  0  0  0
   -1.8530    0.3603    0.0354 C   0  0  0  0  0  0  0  0  0  0  0  0
   -1.5653   -1.0514   -0.4150 C   0  0  0  0  0  0  0  0  0  0  0  0
   -0.4351   -0.1200   -0.1317 C   0  0  0  0  0  0  0  0  0  0  0  0
    0.3381   -0.4472    1.0758 C   0  0  0  0  0  0  0  0  0  0  0  0
    1.6350   -0.3118    1.0860 C   0  0  0  0  0  0  0  0  0  0  0  0
    2.3678    0.1727   -0.1100 C   0  0  0  0  0  0  0  0  0  0  0  0
    1.5869    0.9490   -0.9429 O   0  0  0  0  0  0  0  0  0  0  0  0
    0.3675    0.4324   -1.2508 C   0  0  0  0  0  0  0  0  0  0  0  0
   -2.4129    1.5695    1.4213 H   0  0  0  0  0  0  0  0  0  0  0  0
   -2.1832    1.1052   -0.7310 H   0  0  0  0  0  0  0  0  0  0  0  0
   -1.8851   -1.2596   -1.4504 H   0  0  0  0  0  0  0  0  0  0  0  0
   -1.8473   -1.8151    0.3491 H   0  0  0  0  0  0  0  0  0  0  0  0
   -0.2322   -0.8054    1.9518 H   0  0  0  0  0  0  0  0  0  0  0  0
    2.1777   -0.5626    1.9956 H   0  0  0  0  0  0  0  0  0  0  0  0
    3.1750    0.8589    0.2857 H   0  0  0  0  0  0  0  0  0  0  0  0
    2.9147   -0.6289   -0.6375 H   0  0  0  0  0  0  0  0  0  0  0  0
    0.4515   -0.3137   -2.0952 H   0  0  0  0  0  0  0  0  0  0  0  0
   -0.2287    1.2718   -1.7214 H   0  0  0  0  0  0  0  0  0  0  0  0
  1  2  1  0
  2  3  1  0
  3  4  1  0
  4  5  1  0
  5  6  2  0
  6  7  1  0
  7  8  1  0
  8  9  1  0
  4  2  1  0
  9  4  1  0
  1 10  1  0
  2 11  1  0
  3 12  1  0
  3 13  1  0
  5 14  1  0
  6 15  1  0
  7 16  1  0
  7 17  1  0
  9 18  1  0
  9 19  1  0
M  END
