
     RDKit          3D

 16 17  0  0  0  0  0  0  0  0999 V2000
    1.4808    0.0853    1.0790 O   0  0  0  0  0  0  0  0  0  0  0  0
    1.1882   -0.2151   -0.2234 C   0  0  0  0  0  0  0  0  0  0  0  0
    0.0309   -1.1198   -0.4875 C   0  0  0  0  0  0  0  0  0  0  0  0
   -1.0934   -0.9987    0.4795 C   0  0  0  0  0  0  0  0  0  0  0  0
   -1.7873    0.2052    0.2128 O   0  0  0  0  0  0  0  0  0  0  0  0
   -0.7629    1.1814    0.1971 C   0  0  0  0  0  0  0  0  0  0  0  0
    0.2037    0.7687   -0.8690 C   0  0  0  0  0  0  0  0  0  0  0  0
   -0.2582   -0.3312   -1.6174 O   0  0  0  0  0  0  0  0  0  0  0  0
    1.9803    0.9568    1.0774 H   0  0  0  0  0  0  0  0  0  0  0  0
    2.0427   -0.4802   -0.8775 H   0  0  0  0  0  0  0  0  0  0  0  0
    0.2835   -2.1660   -0.7009 H   0  0  0  0  0  0  0  0  0  0  0  0
   -0.7550   -0.8983    1.5394 H   0  0  0  0  0  0  0  0  0  0  0  0
   -1.7923   -1.8367    0.3338 H   0  0  0  0  0  0  0  0  0  0  0  0
   -0.2703    1.0838    1.2054 H   0  0  0  0  0  0  0  0  0  0  0  0
   -1.1566    2.1943    0.0981 H   0  0  0  0  0  0  0  0  0  0  0  0
    0.6659    1.5705   -1.4468 H   0  0  0  0  0  0  0  0  0  0  0  0
  1  2  1  0
  2  3  1  0
  3  4  1  0
  4  5  1  0
  5  6  1  0
  6  7  1  0
  7  8  1  0
  7  2  1  0
  8  3  1  0
  1  9  1  0
  2 10  1  0
  3 11  1  0
  4 12  1  0
  4 13  1  0
  6 14  1  0
  6 15  1  0
  7 16  1  0
M  END
