
     RDKit          3D

 17 19  0  0  0  0  0  0  0  0999 V2000
   -1.6510   -1.3999    0.2933 O   0  0  0  0  0  0  0  0  0  0  0  0
   -1.0571   -0.4532   -0.4999 C   0  0  0  0  0  0  0  0  0  0  0  0
   -1.5290    0.9875   -0.2467 C   0  0  0  0  0  0  0  0  0  0  0  0
   -1.0627    1.9089   -1.1385 O   0  0  0  0  0  0  0  0  0  0  0  0
   -0.0680    1.4535   -0.3298 C   0  0  0  0  0  0  0  0  0  0  0  0
    0.2839    0.0253   -0.1772 C   0  0  0  0  0  0  0  0  0  0  0  0
    0.9483   -0.4084    1.0732 C   0  0  0  0  0  0  0  0  0  0  0  0
    2.1800   -0.2507    0.3980 O   0  0  0  0  0  0  0  0  0  0  0  0
    1.4854   -0.5119   -0.8085 C   0  0  0  0  0  0  0  0  0  0  0  0
   -1.4708   -1.3290    1.2473 H   0  0  0  0  0  0  0  0  0  0  0  0
   -1.2297   -0.6939   -1.5753 H   0  0  0  0  0  0  0  0  0  0  0  0
   -2.0018    1.2350    0.6960 H   0  0  0  0  0  0  0  0  0  0  0  0
    0.3110    2.1197    0.4670 H   0  0  0  0  0  0  0  0  0  0  0  0
    0.7154   -1.4523    1.3436 H   0  0  0  0  0  0  0  0  0  0  0  0
    0.8448    0.3378    1.8928 H   0  0  0  0  0  0  0  0  0  0  0  0
    1.4214   -1.6206   -0.9558 H   0  0  0  0  0  0  0  0  0  0  0  0
    1.8797    0.0522   -1.6794 H   0  0  0  0  0  0  0  0  0  0  0  0
  1  2  1  0
  2  3  1  0
  3  4  1  0
  4  5  1  0
  5  6  1  0
  6  7  1  0
  7  8  1  0
  8  9  1  0
  6  2  1  0
  5  3  1  0
  9  6  1  0
  1 10  1  0
  2 11  1  0
  3 12  1  0
  5 13  1  0
  7 14  1  0
  7 15  1  0
  9 16  1  0
  9 17  1  0
M  END
