
     RDKit          3D

 17 19  0  0  0  0  0  0  0  0999 V2000
    2.1803    1.0908    0.2185 O   0  0  0  0  0  0  0  0  0  0  0  0
    1.4151   -0.0419    0.1629 C   0  0  0  0  0  0  0  0  0  0  0  0
    0.2292   -0.0878    1.1185 C   0  0  0  0  0  0  0  0  0  0  0  0
   -0.3847    1.1284    1.2156 O   0  0  0  0  0  0  0  0  0  0  0  0
   -1.2585    1.3215    0.1852 C   0  0  0  0  0  0  0  0  0  0  0  0
   -0.9745    0.2076   -0.8306 C   0  0  0  0  0  0  0  0  0  0  0  0
    0.4629   -0.1886   -0.9722 C   0  0  0  0  0  0  0  0  0  0  0  0
   -0.4968   -0.8375    0.0547 C   0  0  0  0  0  0  0  0  0  0  0  0
   -0.6317   -2.1551   -0.0333 O   0  0  0  0  0  0  0  0  0  0  0  0
    3.0996    0.8375   -0.1175 H   0  0  0  0  0  0  0  0  0  0  0  0
    2.0310   -0.9665    0.3482 H   0  0  0  0  0  0  0  0  0  0  0  0
    0.3734   -0.6722    2.0264 H   0  0  0  0  0  0  0  0  0  0  0  0
   -1.1959    2.3118   -0.3027 H   0  0  0  0  0  0  0  0  0  0  0  0
   -2.3360    1.1990    0.4844 H   0  0  0  0  0  0  0  0  0  0  0  0
   -1.6343    0.0630   -1.6691 H   0  0  0  0  0  0  0  0  0  0  0  0
    0.7113   -0.7876   -1.8625 H   0  0  0  0  0  0  0  0  0  0  0  0
   -1.5904   -2.4224   -0.0264 H   0  0  0  0  0  0  0  0  0  0  0  0
  1  2  1  0
  2  3  1  0
  3  4  1  0
  4  5  1  0
  5  6  1  0
  6  7  1  0
  7  8  1  0
  8  9  1  0
  7  2  1  0
  8  3  1  0
  8  6  1  0
  1 10  1  0
  2 11  1  0
  3 12  1  0
  5 13  1  0
  5 14  1  0
  6 15  1  0
  7 16  1  0
  9 17  1  0
M  END
