
     RDKit          3D

 21 22  0  0  0  0  0  0  0  0999 V2000
    1.4722    1.8302   -0.8741 O   0  0  0  0  0  0  0  0  0  0  0  0
    1.3026    0.4744   -0.7535 C   0  0  0  0  0  0  0  0  0  0  0  0
    2.2486   -0.2102    0.2412 C   0  0  0  0  0  0  0  0  0  0  0  0
    1.0653   -1.1429    0.5403 C   0  0  0  0  0  0  0  0  0  0  0  0
    0.1842    0.0420    0.1836 C   0  0  0  0  0  0  0  0  0  0  0  0
    0.0675    0.9770    1.2081 O   0  0  0  0  0  0  0  0  0  0  0  0
   -1.1038   -0.2951   -0.4994 C   0  0  0  0  0  0  0  0  0  0  0  0
   -2.2540   -0.7241    0.2914 C   0  0  0  0  0  0  0  0  0  0  0  0
   -2.2298    0.6905   -0.1956 C   0  0  0  0  0  0  0  0  0  0  0  0
    1.6887    2.0128   -1.8426 H   0  0  0  0  0  0  0  0  0  0  0  0
    1.2279   -0.0838   -1.7270 H   0  0  0  0  0  0  0  0  0  0  0  0
    3.1152   -0.6939   -0.2006 H   0  0  0  0  0  0  0  0  0  0  0  0
    2.4090    0.4710    1.0908 H   0  0  0  0  0  0  0  0  0  0  0  0
    1.0105   -1.9238   -0.2360 H   0  0  0  0  0  0  0  0  0  0  0  0
    0.9894   -1.4664    1.5778 H   0  0  0  0  0  0  0  0  0  0  0  0
   -0.1612    0.5978    2.0705 H   0  0  0  0  0  0  0  0  0  0  0  0
   -0.9997   -0.6705   -1.5260 H   0  0  0  0  0  0  0  0  0  0  0  0
   -2.9995   -1.3971   -0.2243 H   0  0  0  0  0  0  0  0  0  0  0  0
   -2.1645   -0.9329    1.3817 H   0  0  0  0  0  0  0  0  0  0  0  0
   -2.0642    1.4628    0.5777 H   0  0  0  0  0  0  0  0  0  0  0  0
   -2.8043    0.9822   -1.0840 H   0  0  0  0  0  0  0  0  0  0  0  0
  1  2  1  0
  2  3  1  0
  3  4  1  0
  4  5  1  0
  5  6  1  0
  5  7  1  0
  7  8  1  0
  8  9  1  0
  5  2  1  0
  9  7  1  0
  1 10  1  0
  2 11  1  0
  3 12  1  0
  3 13  1  0
  4 14  1  0
  4 15  1  0
  6 16  1  0
  7 17  1  0
  8 18  1  0
  8 19  1  0
  9 20  1  0
  9 21  1  0
M  END
