
     RDKit          3D

 21 22  0  0  0  0  0  0  0  0999 V2000
   -1.4408   -1.3981    1.5268 O   0  0  0  0  0  0  0  0  0  0  0  0
   -0.7188   -1.2457    0.3534 C   0  0  0  0  0  0  0  0  0  0  0  0
   -1.4373   -0.4391   -0.6903 C   0  0  0  0  0  0  0  0  0  0  0  0
   -1.1632    1.0176   -0.3669 C   0  0  0  0  0  0  0  0  0  0  0  0
    0.1986    0.9974    0.2456 C   0  0  0  0  0  0  0  0  0  0  0  0
    0.2989    1.9228    1.2832 O   0  0  0  0  0  0  0  0  0  0  0  0
    1.3597    0.9737   -0.7056 C   0  0  0  0  0  0  0  0  0  0  0  0
    1.5434   -0.5234   -0.4848 C   0  0  0  0  0  0  0  0  0  0  0  0
    0.5171   -0.4262    0.6159 C   0  0  0  0  0  0  0  0  0  0  0  0
   -1.2682   -2.3201    1.8485 H   0  0  0  0  0  0  0  0  0  0  0  0
   -0.4697   -2.2337   -0.1133 H   0  0  0  0  0  0  0  0  0  0  0  0
   -0.9066   -0.6341   -1.6633 H   0  0  0  0  0  0  0  0  0  0  0  0
   -2.5105   -0.6550   -0.7677 H   0  0  0  0  0  0  0  0  0  0  0  0
   -1.9238    1.4176    0.3096 H   0  0  0  0  0  0  0  0  0  0  0  0
   -1.1686    1.5928   -1.3253 H   0  0  0  0  0  0  0  0  0  0  0  0
    1.0675    1.6544    1.8296 H   0  0  0  0  0  0  0  0  0  0  0  0
    2.2749    1.5168   -0.3682 H   0  0  0  0  0  0  0  0  0  0  0  0
    1.1171    1.2469   -1.7472 H   0  0  0  0  0  0  0  0  0  0  0  0
    1.1945   -1.1417   -1.3490 H   0  0  0  0  0  0  0  0  0  0  0  0
    2.5290   -0.8002   -0.0704 H   0  0  0  0  0  0  0  0  0  0  0  0
    0.9070   -0.5228    1.6393 H   0  0  0  0  0  0  0  0  0  0  0  0
  1  2  1  0
  2  3  1  0
  3  4  1  0
  4  5  1  0
  5  6  1  0
  5  7  1  0
  7  8  1  0
  8  9  1  0
  9  2  1  0
  9  5  1  0
  1 10  1  0
  2 11  1  0
  3 12  1  0
  3 13  1  0
  4 14  1  0
  4 15  1  0
  6 16  1  0
  7 17  1  0
  7 18  1  0
  8 19  1  0
  8 20  1  0
  9 21  1  0
M  END
