
     RDKit          3D

 16 17  0  0  0  0  0  0  0  0999 V2000
    0.2712    1.7866    0.9935 O   0  0  0  0  0  0  0  0  0  0  0  0
    0.8689    1.0477   -0.0105 C   0  0  0  0  0  0  0  0  0  0  0  0
   -0.0905    0.3890   -1.0067 C   0  0  0  0  0  0  0  0  0  0  0  0
   -1.4941    0.3196   -0.5600 C   0  0  0  0  0  0  0  0  0  0  0  0
   -1.5952   -0.5641    0.4146 C   0  0  0  0  0  0  0  0  0  0  0  0
   -0.2819   -1.1701    0.7156 C   0  0  0  0  0  0  0  0  0  0  0  0
    0.7097   -0.4204   -0.0965 C   0  0  0  0  0  0  0  0  0  0  0  0
    1.8382   -1.1194   -0.5131 O   0  0  0  0  0  0  0  0  0  0  0  0
    0.8130    1.8659    1.7996 H   0  0  0  0  0  0  0  0  0  0  0  0
    1.7713    1.4938   -0.4586 H   0  0  0  0  0  0  0  0  0  0  0  0
    0.1477    0.5339   -2.0762 H   0  0  0  0  0  0  0  0  0  0  0  0
   -2.3274    0.8902   -0.9509 H   0  0  0  0  0  0  0  0  0  0  0  0
   -2.5028   -0.8556    0.9683 H   0  0  0  0  0  0  0  0  0  0  0  0
   -0.2537   -2.2431    0.3944 H   0  0  0  0  0  0  0  0  0  0  0  0
   -0.0173   -1.0917    1.7943 H   0  0  0  0  0  0  0  0  0  0  0  0
    2.1431   -0.8625   -1.4078 H   0  0  0  0  0  0  0  0  0  0  0  0
  1  2  1  0
  2  3  1  0
  3  4  1  0
  4  5  2  0
  5  6  1  0
  6  7  1  0
  7  8  1  0
  7  2  1  0
  7  3  1  0
  1  9  1  0
  2 10  1  0
  3 11  1  0
  4 12  1  0
  5 13  1  0
  6 14  1  0
  6 15  1  0
  8 16  1  0
M  END
