
     RDKit          3D

 21 22  0  0  0  0  0  0  0  0999 V2000
   -0.1831    2.0525   -0.8180 O   0  0  0  0  0  0  0  0  0  0  0  0
    0.7459    1.0656   -0.6845 C   0  0  0  0  0  0  0  0  0  0  0  0
    0.8309    0.4153    0.6986 C   0  0  0  0  0  0  0  0  0  0  0  0
   -0.5103    0.2462    1.3314 C   0  0  0  0  0  0  0  0  0  0  0  0
   -1.6257    0.1020    0.3160 C   0  0  0  0  0  0  0  0  0  0  0  0
   -1.0834   -0.6401   -0.8624 C   0  0  0  0  0  0  0  0  0  0  0  0
    0.3501   -0.3061   -1.1822 C   0  0  0  0  0  0  0  0  0  0  0  0
    1.2520   -0.8401   -0.0723 C   0  0  0  0  0  0  0  0  0  0  0  0
    0.8472   -2.0227    0.4881 O   0  0  0  0  0  0  0  0  0  0  0  0
    0.1554    2.8773   -0.4440 H   0  0  0  0  0  0  0  0  0  0  0  0
    1.7682    1.2994   -1.0276 H   0  0  0  0  0  0  0  0  0  0  0  0
    1.5929    0.8132    1.3592 H   0  0  0  0  0  0  0  0  0  0  0  0
   -0.7234    1.1216    1.9468 H   0  0  0  0  0  0  0  0  0  0  0  0
   -0.5433   -0.6957    1.9501 H   0  0  0  0  0  0  0  0  0  0  0  0
   -2.1069    1.0633    0.0675 H   0  0  0  0  0  0  0  0  0  0  0  0
   -2.4590   -0.5295    0.7434 H   0  0  0  0  0  0  0  0  0  0  0  0
   -1.7240   -0.5657   -1.7642 H   0  0  0  0  0  0  0  0  0  0  0  0
   -1.0963   -1.7357   -0.5891 H   0  0  0  0  0  0  0  0  0  0  0  0
    0.6470   -0.5579   -2.1960 H   0  0  0  0  0  0  0  0  0  0  0  0
    2.3120   -0.8097   -0.3312 H   0  0  0  0  0  0  0  0  0  0  0  0
    1.5538   -2.3533    1.0704 H   0  0  0  0  0  0  0  0  0  0  0  0
  1  2  1  0
  2  3  1  0
  3  4  1  0
  4  5  1  0
  5  6  1  0
  6  7  1  0
  7  8  1  0
  8  9  1  0
  7  2  1  0
  8  3  1  0
  1 10  1  0
  2 11  1  0
  3 12  1  0
  4 13  1  0
  4 14  1  0
  5 15  1  0
  5 16  1  0
  6 17  1  0
  6 18  1  0
  7 19  1  0
  8 20  1  0
  9 21  1  0
M  END
