
     RDKit          3D

 17 18  0  0  0  0  0  0  0  0999 V2000
   -2.4915   -0.1609    0.7010 O   0  0  0  0  0  0  0  0  0  0  0  0
   -1.1454   -0.0995    0.4189 C   0  0  0  0  0  0  0  0  0  0  0  0
   -0.7527    0.9230   -0.6389 C   0  0  0  0  0  0  0  0  0  0  0  0
    0.5905    1.5117   -0.2704 C   0  0  0  0  0  0  0  0  0  0  0  0
    1.6632    0.7817    0.0922 C   0  0  0  0  0  0  0  0  0  0  0  0
    1.7492   -0.6760    0.1949 C   0  0  0  0  0  0  0  0  0  0  0  0
    0.7594   -1.5433   -0.0537 C   0  0  0  0  0  0  0  0  0  0  0  0
   -0.6381   -1.1780   -0.5054 C   0  0  0  0  0  0  0  0  0  0  0  0
   -0.5693   -0.1766   -1.5001 O   0  0  0  0  0  0  0  0  0  0  0  0
   -2.7134    0.6419    1.2448 H   0  0  0  0  0  0  0  0  0  0  0  0
   -0.5665    0.0319    1.3557 H   0  0  0  0  0  0  0  0  0  0  0  0
   -1.4948    1.6500   -0.9232 H   0  0  0  0  0  0  0  0  0  0  0  0
    0.6918    2.5779   -0.3008 H   0  0  0  0  0  0  0  0  0  0  0  0
    2.5282    1.3783    0.3224 H   0  0  0  0  0  0  0  0  0  0  0  0
    2.7121   -1.0467    0.5008 H   0  0  0  0  0  0  0  0  0  0  0  0
    0.9499   -2.5923    0.0712 H   0  0  0  0  0  0  0  0  0  0  0  0
   -1.2728   -2.0233   -0.7096 H   0  0  0  0  0  0  0  0  0  0  0  0
  1  2  1  0
  2  3  1  0
  3  4  1  0
  4  5  2  0
  5  6  1  0
  6  7  2  0
  7  8  1  0
  8  9  1  0
  8  2  1  0
  9  3  1  0
  1 10  1  0
  2 11  1  0
  3 12  1  0
  4 13  1  0
  5 14  1  0
  6 15  1  0
  7 16  1  0
  8 17  1  0
M  END
