
     RDKit          3D

 19 20  0  0  0  0  0  0  0  0999 V2000
    1.6166   -0.8201   -1.9295 O   0  0  0  0  0  0  0  0  0  0  0  0
    1.0688    0.1448   -1.0805 C   0  0  0  0  0  0  0  0  0  0  0  0
    1.9098    0.6403    0.0778 C   0  0  0  0  0  0  0  0  0  0  0  0
    0.7319   -0.2483    0.2977 C   0  0  0  0  0  0  0  0  0  0  0  0
   -0.4027    0.3690    1.0612 C   0  0  0  0  0  0  0  0  0  0  0  0
   -0.4450   -0.2330    2.3382 O   0  0  0  0  0  0  0  0  0  0  0  0
   -1.7504    0.1249    0.4292 C   0  0  0  0  0  0  0  0  0  0  0  0
   -1.9267   -0.3085   -0.9301 C   0  0  0  0  0  0  0  0  0  0  0  0
   -2.1425   -1.2203    0.2473 O   0  0  0  0  0  0  0  0  0  0  0  0
    2.5964   -0.6973   -2.0592 H   0  0  0  0  0  0  0  0  0  0  0  0
    0.4739    0.9478   -1.5734 H   0  0  0  0  0  0  0  0  0  0  0  0
    2.9426    0.2200    0.0843 H   0  0  0  0  0  0  0  0  0  0  0  0
    1.8514    1.7284    0.3472 H   0  0  0  0  0  0  0  0  0  0  0  0
    0.9729   -1.2911    0.5894 H   0  0  0  0  0  0  0  0  0  0  0  0
   -0.2796    1.4641    1.1609 H   0  0  0  0  0  0  0  0  0  0  0  0
   -0.5807    0.4185    3.0536 H   0  0  0  0  0  0  0  0  0  0  0  0
   -2.5611    0.7262    0.8888 H   0  0  0  0  0  0  0  0  0  0  0  0
   -1.1862   -0.7861   -1.5625 H   0  0  0  0  0  0  0  0  0  0  0  0
   -2.8892   -0.0847   -1.4405 H   0  0  0  0  0  0  0  0  0  0  0  0
  1  2  1  0
  2  3  1  0
  3  4  1  0
  4  5  1  0
  5  6  1  0
  5  7  1  0
  7  8  1  0
  8  9  1  0
  4  2  1  0
  9  7  1  0
  1 10  1  0
  2 11  1  0
  3 12  1  0
  3 13  1  0
  4 14  1  0
  5 15  1  0
  6 16  1  0
  7 17  1  0
  8 18  1  0
  8 19  1  0
M  END
