
     RDKit          3D

 16 17  0  0  0  0  0  0  0  0999 V2000
   -2.3084   -0.5196   -0.2732 O   0  0  0  0  0  0  0  0  0  0  0  0
   -1.0342   -0.2038    0.1261 C   0  0  0  0  0  0  0  0  0  0  0  0
   -0.5510    1.1179   -0.4834 C   0  0  0  0  0  0  0  0  0  0  0  0
    0.6636    1.4278    0.3133 C   0  0  0  0  0  0  0  0  0  0  0  0
    1.5720    0.4837    0.4730 C   0  0  0  0  0  0  0  0  0  0  0  0
    1.3247   -0.8410   -0.1576 C   0  0  0  0  0  0  0  0  0  0  0  0
    0.7932   -1.7985    0.7269 O   0  0  0  0  0  0  0  0  0  0  0  0
   -0.0759   -1.2764   -0.2231 C   0  0  0  0  0  0  0  0  0  0  0  0
   -2.7512   -0.9987    0.4712 H   0  0  0  0  0  0  0  0  0  0  0  0
   -1.0501   -0.0431    1.2415 H   0  0  0  0  0  0  0  0  0  0  0  0
   -1.3127    1.8926   -0.4619 H   0  0  0  0  0  0  0  0  0  0  0  0
   -0.2168    0.8873   -1.5320 H   0  0  0  0  0  0  0  0  0  0  0  0
    0.7760    2.4035    0.7381 H   0  0  0  0  0  0  0  0  0  0  0  0
    2.4830    0.6386    1.0422 H   0  0  0  0  0  0  0  0  0  0  0  0
    2.0339   -1.2009   -0.9335 H   0  0  0  0  0  0  0  0  0  0  0  0
   -0.3461   -1.9696   -1.0676 H   0  0  0  0  0  0  0  0  0  0  0  0
  1  2  1  0
  2  3  1  0
  3  4  1  0
  4  5  2  0
  5  6  1  0
  6  7  1  0
  7  8  1  0
  8  2  1  0
  8  6  1  0
  1  9  1  0
  2 10  1  0
  3 11  1  0
  3 12  1  0
  4 13  1  0
  5 14  1  0
  6 15  1  0
  8 16  1  0
M  END
