
     RDKit          3D

 17 18  0  0  0  0  0  0  0  0999 V2000
    0.0092    0.6862    1.7952 O   0  0  0  0  0  0  0  0  0  0  0  0
    0.1839    0.8430    0.4191 C   0  0  0  0  0  0  0  0  0  0  0  0
   -1.1365    0.4622   -0.2822 C   0  0  0  0  0  0  0  0  0  0  0  0
   -2.2277    0.7265    0.4942 O   0  0  0  0  0  0  0  0  0  0  0  0
   -0.8451   -0.9727   -0.5239 C   0  0  0  0  0  0  0  0  0  0  0  0
   -0.3665   -1.6432   -1.5345 O   0  0  0  0  0  0  0  0  0  0  0  0
    0.4720   -0.6704   -1.3107 C   0  0  0  0  0  0  0  0  0  0  0  0
    1.1999   -0.1885   -0.1128 C   0  0  0  0  0  0  0  0  0  0  0  0
    1.3604   -1.2354    0.7795 O   0  0  0  0  0  0  0  0  0  0  0  0
    0.4587   -0.1409    2.0930 H   0  0  0  0  0  0  0  0  0  0  0  0
    0.4856    1.8642    0.1887 H   0  0  0  0  0  0  0  0  0  0  0  0
   -1.1057    1.0617   -1.2379 H   0  0  0  0  0  0  0  0  0  0  0  0
   -2.6315    1.6095    0.2573 H   0  0  0  0  0  0  0  0  0  0  0  0
   -0.7005   -1.5141    0.4623 H   0  0  0  0  0  0  0  0  0  0  0  0
    0.3955    0.1544   -2.0851 H   0  0  0  0  0  0  0  0  0  0  0  0
    2.1381    0.2974   -0.4089 H   0  0  0  0  0  0  0  0  0  0  0  0
    2.3102   -1.3398    1.0066 H   0  0  0  0  0  0  0  0  0  0  0  0
  1  2  1  0
  2  3  1  0
  3  4  1  0
  3  5  1  0
  5  6  1  0
  6  7  1  0
  7  8  1  0
  8  9  1  0
  8  2  1  0
  7  5  1  0
  1 10  1  0
  2 11  1  0
  3 12  1  0
  4 13  1  0
  5 14  1  0
  7 15  1  0
  8 16  1  0
  9 17  1  0
M  END
