
     RDKit          3D

 19 20  0  0  0  0  0  0  0  0999 V2000
    2.1390   -0.9923    0.8394 O   0  0  0  0  0  0  0  0  0  0  0  0
    1.2621   -0.5678   -0.1436 C   0  0  0  0  0  0  0  0  0  0  0  0
    1.5710    0.7763   -0.7573 C   0  0  0  0  0  0  0  0  0  0  0  0
    0.1103    1.1603   -0.5068 C   0  0  0  0  0  0  0  0  0  0  0  0
    0.0197    0.0428    0.4707 C   0  0  0  0  0  0  0  0  0  0  0  0
    0.2383    0.4713    1.7801 O   0  0  0  0  0  0  0  0  0  0  0  0
   -1.2115   -0.8144    0.4059 C   0  0  0  0  0  0  0  0  0  0  0  0
   -2.4422   -0.3395   -0.1428 C   0  0  0  0  0  0  0  0  0  0  0  0
   -1.6206   -1.3526   -0.8048 O   0  0  0  0  0  0  0  0  0  0  0  0
    3.0094   -1.2448    0.4494 H   0  0  0  0  0  0  0  0  0  0  0  0
    1.0448   -1.3427   -0.8994 H   0  0  0  0  0  0  0  0  0  0  0  0
    2.3076    1.3881   -0.2336 H   0  0  0  0  0  0  0  0  0  0  0  0
    1.8370    0.7168   -1.8381 H   0  0  0  0  0  0  0  0  0  0  0  0
   -0.4645    1.0581   -1.4507 H   0  0  0  0  0  0  0  0  0  0  0  0
    0.0205    2.1700   -0.0587 H   0  0  0  0  0  0  0  0  0  0  0  0
   -0.6583    0.6323    2.1729 H   0  0  0  0  0  0  0  0  0  0  0  0
   -1.2589   -1.5644    1.2431 H   0  0  0  0  0  0  0  0  0  0  0  0
   -2.5020    0.5469   -0.7944 H   0  0  0  0  0  0  0  0  0  0  0  0
   -3.4015   -0.7445    0.2687 H   0  0  0  0  0  0  0  0  0  0  0  0
  1  2  1  0
  2  3  1  0
  3  4  1  0
  4  5  1  0
  5  6  1  0
  5  7  1  0
  7  8  1  0
  8  9  1  0
  5  2  1  0
  9  7  1  0
  1 10  1  0
  2 11  1  0
  3 12  1  0
  3 13  1  0
  4 14  1  0
  4 15  1  0
  6 16  1  0
  7 17  1  0
  8 18  1  0
  8 19  1  0
M  END
