
     RDKit          3D

 19 21  0  0  0  0  0  0  0  0999 V2000
    2.8868    0.1529   -0.0434 O   0  0  0  0  0  0  0  0  0  0  0  0
    1.6686   -0.1541    0.4647 C   0  0  0  0  0  0  0  0  0  0  0  0
    0.7394   -0.9710   -0.2705 C   0  0  0  0  0  0  0  0  0  0  0  0
   -0.6057   -1.4391    0.2792 C   0  0  0  0  0  0  0  0  0  0  0  0
   -1.4869   -0.4243   -0.3635 C   0  0  0  0  0  0  0  0  0  0  0  0
   -2.1437    0.7409    0.0496 C   0  0  0  0  0  0  0  0  0  0  0  0
   -0.7865    0.7479    0.4393 C   0  0  0  0  0  0  0  0  0  0  0  0
    0.4936    0.5832   -0.2509 C   0  0  0  0  0  0  0  0  0  0  0  0
    0.7887    1.2253   -1.4345 O   0  0  0  0  0  0  0  0  0  0  0  0
    3.5437    0.4587    0.6538 H   0  0  0  0  0  0  0  0  0  0  0  0
    1.5412   -0.0406    1.5742 H   0  0  0  0  0  0  0  0  0  0  0  0
    1.0443   -1.3805   -1.2596 H   0  0  0  0  0  0  0  0  0  0  0  0
   -0.6357   -1.4378    1.3754 H   0  0  0  0  0  0  0  0  0  0  0  0
   -0.8867   -2.4323   -0.0746 H   0  0  0  0  0  0  0  0  0  0  0  0
   -1.2613   -0.4490   -1.4773 H   0  0  0  0  0  0  0  0  0  0  0  0
   -2.9703    0.6318    0.8087 H   0  0  0  0  0  0  0  0  0  0  0  0
   -2.4657    1.5212   -0.6892 H   0  0  0  0  0  0  0  0  0  0  0  0
   -0.6525    0.5549    1.5516 H   0  0  0  0  0  0  0  0  0  0  0  0
    1.1887    2.1118   -1.3328 H   0  0  0  0  0  0  0  0  0  0  0  0
  1  2  1  0
  2  3  1  0
  3  4  1  0
  4  5  1  0
  5  6  1  0
  6  7  1  0
  7  8  1  0
  8  9  1  0
  8  2  1  0
  8  3  1  0
  7  5  1  0
  1 10  1  0
  2 11  1  0
  3 12  1  0
  4 13  1  0
  4 14  1  0
  5 15  1  0
  6 16  1  0
  6 17  1  0
  7 18  1  0
  9 19  1  0
M  END
