
     RDKit          3D

 21 23  0  0  0  0  0  0  0  0999 V2000
   -2.3868    0.1183    0.4912 O   0  0  0  0  0  0  0  0  0  0  0  0
   -1.2764    0.5996   -0.1378 C   0  0  0  0  0  0  0  0  0  0  0  0
   -0.0903    0.7911    0.8338 C   0  0  0  0  0  0  0  0  0  0  0  0
    0.8123    1.4018   -0.2666 C   0  0  0  0  0  0  0  0  0  0  0  0
    0.8204    0.0816   -1.0740 C   0  0  0  0  0  0  0  0  0  0  0  0
    1.5991   -0.6793    0.0224 C   0  0  0  0  0  0  0  0  0  0  0  0
    0.4473   -0.5727    1.0480 C   0  0  0  0  0  0  0  0  0  0  0  0
   -0.4896   -1.4844    0.2244 C   0  0  0  0  0  0  0  0  0  0  0  0
   -0.5450   -0.4871   -0.9552 C   0  0  0  0  0  0  0  0  0  0  0  0
   -2.9790    0.8906    0.6948 H   0  0  0  0  0  0  0  0  0  0  0  0
   -1.4226    1.4859   -0.7625 H   0  0  0  0  0  0  0  0  0  0  0  0
   -0.2805    1.4245    1.6490 H   0  0  0  0  0  0  0  0  0  0  0  0
    0.3004    2.1970   -0.8058 H   0  0  0  0  0  0  0  0  0  0  0  0
    1.8033    1.6386    0.1211 H   0  0  0  0  0  0  0  0  0  0  0  0
    1.2974    0.1335   -2.0062 H   0  0  0  0  0  0  0  0  0  0  0  0
    2.4584   -0.1063    0.3721 H   0  0  0  0  0  0  0  0  0  0  0  0
    1.7896   -1.7126   -0.2617 H   0  0  0  0  0  0  0  0  0  0  0  0
    0.6735   -0.9158    2.0108 H   0  0  0  0  0  0  0  0  0  0  0  0
   -1.4748   -1.5655    0.6680 H   0  0  0  0  0  0  0  0  0  0  0  0
   -0.0011   -2.4110   -0.0615 H   0  0  0  0  0  0  0  0  0  0  0  0
   -1.0555   -0.8278   -1.8044 H   0  0  0  0  0  0  0  0  0  0  0  0
  1  2  1  0
  2  3  1  0
  3  4  1  0
  4  5  1  0
  5  6  1  0
  6  7  1  0
  7  8  1  0
  8  9  1  0
  9  2  1  0
  7  3  1  0
  9  5  1  0
  1 10  1  0
  2 11  1  0
  3 12  1  0
  4 13  1  0
  4 14  1  0
  5 15  1  0
  6 16  1  0
  6 17  1  0
  7 18  1  0
  8 19  1  0
  8 20  1  0
  9 21  1  0
M  END
