
     RDKit          3D

 20 21  0  0  0  0  0  0  0  0999 V2000
    3.0210   -0.1896    0.0287 O   0  0  0  0  0  0  0  0  0  0  0  0
    1.8094    0.2693   -0.3808 C   0  0  0  0  0  0  0  0  0  0  0  0
    0.8404   -0.9073   -0.5671 C   0  0  0  0  0  0  0  0  0  0  0  0
   -0.1943   -0.0447    0.0637 C   0  0  0  0  0  0  0  0  0  0  0  0
   -1.1683    0.6211   -0.8399 C   0  0  0  0  0  0  0  0  0  0  0  0
   -2.2785   -0.1253   -0.0965 C   0  0  0  0  0  0  0  0  0  0  0  0
   -1.2349   -0.6617    0.8966 C   0  0  0  0  0  0  0  0  0  0  0  0
    0.8668    0.7739    0.6928 C   0  0  0  0  0  0  0  0  0  0  0  0
    3.4477    0.2766    0.7679 H   0  0  0  0  0  0  0  0  0  0  0  0
    1.8971    0.9202   -1.2647 H   0  0  0  0  0  0  0  0  0  0  0  0
    1.1304   -1.7959    0.0272 H   0  0  0  0  0  0  0  0  0  0  0  0
    0.6874   -1.0966   -1.6581 H   0  0  0  0  0  0  0  0  0  0  0  0
   -1.2455    1.7177   -0.7992 H   0  0  0  0  0  0  0  0  0  0  0  0
   -1.1434    0.2473   -1.8957 H   0  0  0  0  0  0  0  0  0  0  0  0
   -2.9455    0.6125    0.4033 H   0  0  0  0  0  0  0  0  0  0  0  0
   -2.7801   -0.9050   -0.6657 H   0  0  0  0  0  0  0  0  0  0  0  0
   -1.3025   -0.1951    1.9036 H   0  0  0  0  0  0  0  0  0  0  0  0
   -1.2647   -1.7564    0.9932 H   0  0  0  0  0  0  0  0  0  0  0  0
    0.7221    1.8830    0.6900 H   0  0  0  0  0  0  0  0  0  0  0  0
    1.1352    0.3559    1.7008 H   0  0  0  0  0  0  0  0  0  0  0  0
  1  2  1  0
  2  3  1  0
  3  4  1  0
  4  5  1  0
  5  6  1  0
  6  7  1  0
  4  8  1  0
  8  2  1  0
  7  4  1  0
  1  9  1  0
  2 10  1  0
  3 11  1  0
  3 12  1  0
  5 13  1  0
  5 14  1  0
  6 15  1  0
  6 16  1  0
  7 17  1  0
  7 18  1  0
  8 19  1  0
  8 20  1  0
M  END
