
     RDKit          3D

 17 19  0  0  0  0  0  0  0  0999 V2000
    2.7342   -0.2411   -0.3321 O   0  0  0  0  0  0  0  0  0  0  0  0
    1.4956   -0.3171    0.3015 C   0  0  0  0  0  0  0  0  0  0  0  0
    0.5796   -1.3738   -0.2786 C   0  0  0  0  0  0  0  0  0  0  0  0
   -0.2719   -0.2885   -0.8689 C   0  0  0  0  0  0  0  0  0  0  0  0
   -1.6970   -0.1143   -0.4618 C   0  0  0  0  0  0  0  0  0  0  0  0
   -1.6720    0.8329    0.6716 C   0  0  0  0  0  0  0  0  0  0  0  0
   -0.4522    1.2935    0.8293 C   0  0  0  0  0  0  0  0  0  0  0  0
    0.5198    0.7625   -0.1272 C   0  0  0  0  0  0  0  0  0  0  0  0
    0.3131    0.8008   -1.4941 O   0  0  0  0  0  0  0  0  0  0  0  0
    2.8968    0.7229   -0.5654 H   0  0  0  0  0  0  0  0  0  0  0  0
    1.6229   -0.4433    1.3846 H   0  0  0  0  0  0  0  0  0  0  0  0
    0.0363   -1.9919    0.4396 H   0  0  0  0  0  0  0  0  0  0  0  0
    1.1000   -1.9396   -1.0787 H   0  0  0  0  0  0  0  0  0  0  0  0
   -2.3203    0.2423   -1.3061 H   0  0  0  0  0  0  0  0  0  0  0  0
   -2.0701   -1.0802   -0.0551 H   0  0  0  0  0  0  0  0  0  0  0  0
   -2.5676    1.1063    1.2934 H   0  0  0  0  0  0  0  0  0  0  0  0
   -0.2472    2.0285    1.6479 H   0  0  0  0  0  0  0  0  0  0  0  0
  1  2  1  0
  2  3  1  0
  3  4  1  0
  4  5  1  0
  5  6  1  0
  6  7  2  0
  7  8  1  0
  8  9  1  0
  8  2  1  0
  8  4  1  0
  9  4  1  0
  1 10  1  0
  2 11  1  0
  3 12  1  0
  3 13  1  0
  5 14  1  0
  5 15  1  0
  6 16  1  0
  7 17  1  0
M  END
