
     RDKit          3D

 19 20  0  0  0  0  0  0  0  0999 V2000
   -2.9221   -0.3962    0.7365 O   0  0  0  0  0  0  0  0  0  0  0  0
   -1.5464   -0.1249    0.8444 C   0  0  0  0  0  0  0  0  0  0  0  0
   -0.9151    0.6726   -0.1991 C   0  0  0  0  0  0  0  0  0  0  0  0
    0.3224    1.4830   -0.0072 C   0  0  0  0  0  0  0  0  0  0  0  0
    1.3799    0.8061    0.5457 O   0  0  0  0  0  0  0  0  0  0  0  0
    2.1413    0.1413   -0.4175 C   0  0  0  0  0  0  0  0  0  0  0  0
    1.5912   -1.1206   -0.7107 O   0  0  0  0  0  0  0  0  0  0  0  0
    0.5590   -1.3349    0.1658 C   0  0  0  0  0  0  0  0  0  0  0  0
   -0.7487   -0.7679   -0.2762 C   0  0  0  0  0  0  0  0  0  0  0  0
   -3.2036   -0.4916   -0.2145 H   0  0  0  0  0  0  0  0  0  0  0  0
   -1.1840   -0.2127    1.8792 H   0  0  0  0  0  0  0  0  0  0  0  0
   -1.6210    1.1310   -0.9541 H   0  0  0  0  0  0  0  0  0  0  0  0
    0.1657    2.4306    0.5457 H   0  0  0  0  0  0  0  0  0  0  0  0
    0.6526    1.8064   -1.0395 H   0  0  0  0  0  0  0  0  0  0  0  0
    2.1649    0.6837   -1.3885 H   0  0  0  0  0  0  0  0  0  0  0  0
    3.1498    0.0017    0.0217 H   0  0  0  0  0  0  0  0  0  0  0  0
    0.8873   -0.9451    1.1747 H   0  0  0  0  0  0  0  0  0  0  0  0
    0.3848   -2.4356    0.3596 H   0  0  0  0  0  0  0  0  0  0  0  0
   -1.2579   -1.3269   -1.0660 H   0  0  0  0  0  0  0  0  0  0  0  0
  1  2  1  0
  2  3  1  0
  3  4  1  0
  4  5  1  0
  5  6  1  0
  6  7  1  0
  7  8  1  0
  8  9  1  0
  9  2  1  0
  9  3  1  0
  1 10  1  0
  2 11  1  0
  3 12  1  0
  4 13  1  0
  4 14  1  0
  6 15  1  0
  6 16  1  0
  8 17  1  0
  8 18  1  0
  9 19  1  0
M  END
