
     RDKit          3D

 19 22  0  0  0  0  0  0  0  0999 V2000
    2.4149   -0.7191   -0.6335 O   0  0  0  0  0  0  0  0  0  0  0  0
    1.5328    0.3189   -0.3897 C   0  0  0  0  0  0  0  0  0  0  0  0
    0.1893    0.1109   -1.1097 C   0  0  0  0  0  0  0  0  0  0  0  0
    0.0445   -1.0452   -0.1092 C   0  0  0  0  0  0  0  0  0  0  0  0
   -1.3997   -1.0562    0.1595 C   0  0  0  0  0  0  0  0  0  0  0  0
   -1.6650    0.4389    0.3933 C   0  0  0  0  0  0  0  0  0  0  0  0
   -0.7980    1.0904   -0.5692 C   0  0  0  0  0  0  0  0  0  0  0  0
   -0.4319    0.9719    0.9550 C   0  0  0  0  0  0  0  0  0  0  0  0
    0.6762   -0.0214    0.8405 C   0  0  0  0  0  0  0  0  0  0  0  0
    3.0418   -0.7451    0.1470 H   0  0  0  0  0  0  0  0  0  0  0  0
    1.9166    1.3317   -0.4192 H   0  0  0  0  0  0  0  0  0  0  0  0
    0.2201   -0.1339   -2.1404 H   0  0  0  0  0  0  0  0  0  0  0  0
    0.6006   -1.9313   -0.3114 H   0  0  0  0  0  0  0  0  0  0  0  0
   -1.9368   -1.3230   -0.7970 H   0  0  0  0  0  0  0  0  0  0  0  0
   -1.7348   -1.6685    1.0022 H   0  0  0  0  0  0  0  0  0  0  0  0
   -2.6523    0.7544    0.6903 H   0  0  0  0  0  0  0  0  0  0  0  0
   -0.8632    2.1177   -0.9141 H   0  0  0  0  0  0  0  0  0  0  0  0
   -0.3340    1.8995    1.5060 H   0  0  0  0  0  0  0  0  0  0  0  0
    1.1788   -0.3905    1.6997 H   0  0  0  0  0  0  0  0  0  0  0  0
  1  2  1  0
  2  3  1  0
  3  4  1  0
  4  5  1  0
  5  6  1  0
  6  7  1  0
  7  8  1  0
  8  9  1  0
  9  2  1  0
  7  3  1  0
  9  4  1  0
  8  6  1  0
  1 10  1  0
  2 11  1  0
  3 12  1  0
  4 13  1  0
  5 14  1  0
  5 15  1  0
  6 16  1  0
  7 17  1  0
  8 18  1  0
  9 19  1  0
M  END
