
     RDKit          3D

 17 18  0  0  0  0  0  0  0  0999 V2000
   -1.1536    2.0052   -0.6849 O   0  0  0  0  0  0  0  0  0  0  0  0
   -0.9132    0.6405   -0.6907 C   0  0  0  0  0  0  0  0  0  0  0  0
   -1.6084   -0.0775    0.4451 C   0  0  0  0  0  0  0  0  0  0  0  0
   -0.8157   -1.3674    0.5161 C   0  0  0  0  0  0  0  0  0  0  0  0
    0.5699   -0.8737    0.3073 C   0  0  0  0  0  0  0  0  0  0  0  0
    1.8229   -1.1617    0.5579 O   0  0  0  0  0  0  0  0  0  0  0  0
    2.6214   -0.2627    0.0699 C   0  0  0  0  0  0  0  0  0  0  0  0
    1.8440    0.6879   -0.5473 C   0  0  0  0  0  0  0  0  0  0  0  0
    0.5097    0.3239   -0.4129 C   0  0  0  0  0  0  0  0  0  0  0  0
   -1.4987    2.3431    0.1789 H   0  0  0  0  0  0  0  0  0  0  0  0
   -1.1952    0.1417   -1.6174 H   0  0  0  0  0  0  0  0  0  0  0  0
   -1.4183    0.4439    1.4266 H   0  0  0  0  0  0  0  0  0  0  0  0
   -2.6728   -0.2357    0.2512 H   0  0  0  0  0  0  0  0  0  0  0  0
   -0.9362   -1.8900    1.4753 H   0  0  0  0  0  0  0  0  0  0  0  0
   -1.0437   -2.0292   -0.3562 H   0  0  0  0  0  0  0  0  0  0  0  0
    3.6892   -0.2695    0.1407 H   0  0  0  0  0  0  0  0  0  0  0  0
    2.1985    1.5812   -1.0595 H   0  0  0  0  0  0  0  0  0  0  0  0
  1  2  1  0
  2  3  1  0
  3  4  1  0
  4  5  1  0
  5  6  1  0
  6  7  1  0
  7  8  2  0
  8  9  1  0
  9  2  1  0
  9  5  2  0
  1 10  1  0
  2 11  1  0
  3 12  1  0
  3 13  1  0
  4 14  1  0
  4 15  1  0
  7 16  1  0
  8 17  1  0
M  END
