
     RDKit          3D

 19 20  0  0  0  0  0  0  0  0999 V2000
    2.5649    0.6628    0.7094 O   0  0  0  0  0  0  0  0  0  0  0  0
    1.8375    0.2915   -0.4152 C   0  0  0  0  0  0  0  0  0  0  0  0
    1.6117   -1.1995   -0.4943 C   0  0  0  0  0  0  0  0  0  0  0  0
    0.1804   -0.9574   -0.2326 C   0  0  0  0  0  0  0  0  0  0  0  0
   -1.0921   -1.2942    0.0303 C   0  0  0  0  0  0  0  0  0  0  0  0
   -2.0992   -0.1966    0.1637 C   0  0  0  0  0  0  0  0  0  0  0  0
   -1.5129    1.0513    0.7511 C   0  0  0  0  0  0  0  0  0  0  0  0
   -0.1437    1.0713    0.8000 O   0  0  0  0  0  0  0  0  0  0  0  0
    0.3750    0.5372   -0.3518 C   0  0  0  0  0  0  0  0  0  0  0  0
    2.6953    1.6278    0.7501 H   0  0  0  0  0  0  0  0  0  0  0  0
    2.2870    0.6419   -1.3742 H   0  0  0  0  0  0  0  0  0  0  0  0
    1.7773   -1.6644   -1.4671 H   0  0  0  0  0  0  0  0  0  0  0  0
    2.1617   -1.7536    0.2939 H   0  0  0  0  0  0  0  0  0  0  0  0
   -1.3389   -2.3439    0.1352 H   0  0  0  0  0  0  0  0  0  0  0  0
   -2.9077   -0.5875    0.8165 H   0  0  0  0  0  0  0  0  0  0  0  0
   -2.5588    0.0099   -0.8399 H   0  0  0  0  0  0  0  0  0  0  0  0
   -1.8486    1.9389    0.1687 H   0  0  0  0  0  0  0  0  0  0  0  0
   -1.8792    1.1930    1.8092 H   0  0  0  0  0  0  0  0  0  0  0  0
   -0.1099    0.9714   -1.2530 H   0  0  0  0  0  0  0  0  0  0  0  0
  1  2  1  0
  2  3  1  0
  3  4  1  0
  4  5  2  0
  5  6  1  0
  6  7  1  0
  7  8  1  0
  8  9  1  0
  9  2  1  0
  9  4  1  0
  1 10  1  0
  2 11  1  0
  3 12  1  0
  3 13  1  0
  5 14  1  0
  6 15  1  0
  6 16  1  0
  7 17  1  0
  7 18  1  0
  9 19  1  0
M  END
