
     RDKit          3D

 19 20  0  0  0  0  0  0  0  0999 V2000
   -2.5080   -0.5056   -1.0088 O   0  0  0  0  0  0  0  0  0  0  0  0
   -1.9304   -0.3528    0.2348 C   0  0  0  0  0  0  0  0  0  0  0  0
   -0.6272   -1.1261    0.4275 C   0  0  0  0  0  0  0  0  0  0  0  0
    0.1883   -0.0115    0.0173 C   0  0  0  0  0  0  0  0  0  0  0  0
   -0.9340    0.8094    0.3148 C   0  0  0  0  0  0  0  0  0  0  0  0
    1.3160    0.8110    0.3936 C   0  0  0  0  0  0  0  0  0  0  0  0
    1.5874    1.8721   -0.4903 O   0  0  0  0  0  0  0  0  0  0  0  0
    1.5096   -0.4955    0.0091 C   0  0  0  0  0  0  0  0  0  0  0  0
    2.0578   -0.8002   -1.2688 O   0  0  0  0  0  0  0  0  0  0  0  0
   -3.0149    0.3226   -1.2015 H   0  0  0  0  0  0  0  0  0  0  0  0
   -2.6110   -0.4473    1.0782 H   0  0  0  0  0  0  0  0  0  0  0  0
   -0.6296   -1.9677   -0.3247 H   0  0  0  0  0  0  0  0  0  0  0  0
   -0.5640   -1.5569    1.4269 H   0  0  0  0  0  0  0  0  0  0  0  0
   -1.2156    1.5338   -0.5052 H   0  0  0  0  0  0  0  0  0  0  0  0
   -1.0861    1.3201    1.2761 H   0  0  0  0  0  0  0  0  0  0  0  0
    1.5292    1.1460    1.4526 H   0  0  0  0  0  0  0  0  0  0  0  0
    1.8955    1.5126   -1.3641 H   0  0  0  0  0  0  0  0  0  0  0  0
    2.0037   -1.1958    0.7557 H   0  0  0  0  0  0  0  0  0  0  0  0
    3.0335   -0.8683   -1.2233 H   0  0  0  0  0  0  0  0  0  0  0  0
  1  2  1  0
  2  3  1  0
  3  4  1  0
  4  5  1  0
  4  6  1  0
  6  7  1  0
  6  8  1  0
  8  9  1  0
  5  2  1  0
  8  4  1  0
  1 10  1  0
  2 11  1  0
  3 12  1  0
  3 13  1  0
  5 14  1  0
  5 15  1  0
  6 16  1  0
  7 17  1  0
  8 18  1  0
  9 19  1  0
M  END
