
     RDKit          3D

 19 20  0  0  0  0  0  0  0  0999 V2000
    2.3935    0.5183    1.0194 O   0  0  0  0  0  0  0  0  0  0  0  0
    1.9216    0.1531   -0.2303 C   0  0  0  0  0  0  0  0  0  0  0  0
    0.9409   -1.0258   -0.1620 C   0  0  0  0  0  0  0  0  0  0  0  0
   -0.1292   -0.0371    0.0792 C   0  0  0  0  0  0  0  0  0  0  0  0
    0.7039    1.0231   -0.5630 C   0  0  0  0  0  0  0  0  0  0  0  0
   -0.5761    0.1700    1.3460 O   0  0  0  0  0  0  0  0  0  0  0  0
   -1.7857    0.6315    0.7759 C   0  0  0  0  0  0  0  0  0  0  0  0
   -1.4859   -0.2766   -0.4265 C   0  0  0  0  0  0  0  0  0  0  0  0
   -1.9170   -1.5816   -0.2358 O   0  0  0  0  0  0  0  0  0  0  0  0
    3.0718   -0.1040    1.3319 H   0  0  0  0  0  0  0  0  0  0  0  0
    2.6455    0.0392   -1.0315 H   0  0  0  0  0  0  0  0  0  0  0  0
    1.1722   -1.7575    0.6256 H   0  0  0  0  0  0  0  0  0  0  0  0
    0.8083   -1.5297   -1.1462 H   0  0  0  0  0  0  0  0  0  0  0  0
    0.6907    1.9964   -0.0413 H   0  0  0  0  0  0  0  0  0  0  0  0
    0.4790    1.1033   -1.6351 H   0  0  0  0  0  0  0  0  0  0  0  0
   -1.6413    1.6991    0.5120 H   0  0  0  0  0  0  0  0  0  0  0  0
   -2.6796    0.3639    1.3315 H   0  0  0  0  0  0  0  0  0  0  0  0
   -1.7087    0.1769   -1.4023 H   0  0  0  0  0  0  0  0  0  0  0  0
   -2.9039   -1.5625   -0.1477 H   0  0  0  0  0  0  0  0  0  0  0  0
  1  2  1  0
  2  3  1  0
  3  4  1  0
  4  5  1  0
  4  6  1  0
  6  7  1  0
  7  8  1  0
  8  9  1  0
  5  2  1  0
  8  4  1  0
  1 10  1  0
  2 11  1  0
  3 12  1  0
  3 13  1  0
  5 14  1  0
  5 15  1  0
  7 16  1  0
  7 17  1  0
  8 18  1  0
  9 19  1  0
M  END
