
     RDKit          3D

 19 20  0  0  0  0  0  0  0  0999 V2000
   -0.7958    1.5353    1.4521 O   0  0  0  0  0  0  0  0  0  0  0  0
   -0.7526    0.9407    0.2074 C   0  0  0  0  0  0  0  0  0  0  0  0
    0.5153    1.2423   -0.5340 C   0  0  0  0  0  0  0  0  0  0  0  0
    1.3174   -0.0404   -0.7786 C   0  0  0  0  0  0  0  0  0  0  0  0
    1.5064   -0.6517    0.5688 C   0  0  0  0  0  0  0  0  0  0  0  0
    0.3655   -0.9646    1.1830 C   0  0  0  0  0  0  0  0  0  0  0  0
   -0.8573   -0.5762    0.3798 C   0  0  0  0  0  0  0  0  0  0  0  0
   -0.7051   -1.1467   -1.0283 C   0  0  0  0  0  0  0  0  0  0  0  0
    0.5556   -0.9450   -1.5180 O   0  0  0  0  0  0  0  0  0  0  0  0
   -1.7137    1.4403    1.7962 H   0  0  0  0  0  0  0  0  0  0  0  0
   -1.6534    1.2432   -0.3609 H   0  0  0  0  0  0  0  0  0  0  0  0
    0.2823    1.7480   -1.4942 H   0  0  0  0  0  0  0  0  0  0  0  0
    1.1495    1.8633    0.1378 H   0  0  0  0  0  0  0  0  0  0  0  0
    2.2386    0.2012   -1.2931 H   0  0  0  0  0  0  0  0  0  0  0  0
    2.4890   -0.8168    0.9894 H   0  0  0  0  0  0  0  0  0  0  0  0
    0.2958   -1.4386    2.1391 H   0  0  0  0  0  0  0  0  0  0  0  0
   -1.7831   -0.8819    0.8561 H   0  0  0  0  0  0  0  0  0  0  0  0
   -1.4112   -0.5551   -1.6756 H   0  0  0  0  0  0  0  0  0  0  0  0
   -1.0433   -2.1973   -1.0269 H   0  0  0  0  0  0  0  0  0  0  0  0
  1  2  1  0
  2  3  1  0
  3  4  1  0
  4  5  1  0
  5  6  2  0
  6  7  1  0
  7  8  1  0
  8  9  1  0
  7  2  1  0
  9  4  1  0
  1 10  1  0
  2 11  1  0
  3 12  1  0
  3 13  1  0
  4 14  1  0
  5 15  1  0
  6 16  1  0
  7 17  1  0
  8 18  1  0
  8 19  1  0
M  END
