
     RDKit          3D

 14 16  0  0  0  0  0  0  0  0999 V2000
    0.5051   -2.0281    0.2396 O   0  0  0  0  0  0  0  0  0  0  0  0
    0.4006   -0.8409   -0.4303 C   0  0  0  0  0  0  0  0  0  0  0  0
    1.5475    0.1303   -0.2746 C   0  0  0  0  0  0  0  0  0  0  0  0
    1.8047    0.6130    1.0002 O   0  0  0  0  0  0  0  0  0  0  0  0
    0.6522    1.0938    0.3498 C   0  0  0  0  0  0  0  0  0  0  0  0
   -0.5028    0.1943    0.1797 C   0  0  0  0  0  0  0  0  0  0  0  0
   -1.8080    0.3960   -0.1520 C   0  0  0  0  0  0  0  0  0  0  0  0
   -1.3872   -0.1134    1.1690 O   0  0  0  0  0  0  0  0  0  0  0  0
    0.5722   -1.9662    1.2135 H   0  0  0  0  0  0  0  0  0  0  0  0
    0.1176   -1.0073   -1.4872 H   0  0  0  0  0  0  0  0  0  0  0  0
    2.2248    0.3383   -1.1069 H   0  0  0  0  0  0  0  0  0  0  0  0
    0.6422    2.1581    0.0996 H   0  0  0  0  0  0  0  0  0  0  0  0
   -2.3479    1.3776   -0.0774 H   0  0  0  0  0  0  0  0  0  0  0  0
   -2.4210   -0.3454   -0.7229 H   0  0  0  0  0  0  0  0  0  0  0  0
  1  2  1  0
  2  3  1  0
  3  4  1  0
  4  5  1  0
  5  6  1  0
  6  7  1  0
  7  8  1  0
  6  2  1  0
  5  3  1  0
  8  6  1  0
  1  9  1  0
  2 10  1  0
  3 11  1  0
  5 12  1  0
  7 13  1  0
  7 14  1  0
M  END
