
     RDKit          3D

 21 22  0  0  0  0  0  0  0  0999 V2000
   -2.8370   -0.2491   -0.8259 O   0  0  0  0  0  0  0  0  0  0  0  0
   -2.0356    0.6678   -0.1709 C   0  0  0  0  0  0  0  0  0  0  0  0
   -1.7134    0.2776    1.2592 C   0  0  0  0  0  0  0  0  0  0  0  0
   -0.6242    0.3280    0.2017 C   0  0  0  0  0  0  0  0  0  0  0  0
   -0.0836   -0.9176   -0.3826 C   0  0  0  0  0  0  0  0  0  0  0  0
    1.3641   -1.1615   -0.1823 C   0  0  0  0  0  0  0  0  0  0  0  0
    2.1826    0.0703    0.0653 C   0  0  0  0  0  0  0  0  0  0  0  0
    1.4015    1.2817   -0.3848 C   0  0  0  0  0  0  0  0  0  0  0  0
    0.2554    1.3590    0.3593 O   0  0  0  0  0  0  0  0  0  0  0  0
   -2.9339   -1.0959   -0.3246 H   0  0  0  0  0  0  0  0  0  0  0  0
   -2.2272    1.7144   -0.4159 H   0  0  0  0  0  0  0  0  0  0  0  0
   -1.9632   -0.7062    1.6410 H   0  0  0  0  0  0  0  0  0  0  0  0
   -1.8134    1.1195    1.9657 H   0  0  0  0  0  0  0  0  0  0  0  0
   -0.2850   -0.9280   -1.4929 H   0  0  0  0  0  0  0  0  0  0  0  0
   -0.6378   -1.8253   -0.0062 H   0  0  0  0  0  0  0  0  0  0  0  0
    1.7987   -1.6855   -1.0847 H   0  0  0  0  0  0  0  0  0  0  0  0
    1.5395   -1.8993    0.6549 H   0  0  0  0  0  0  0  0  0  0  0  0
    3.1475    0.0492   -0.4616 H   0  0  0  0  0  0  0  0  0  0  0  0
    2.3068    0.1615    1.1727 H   0  0  0  0  0  0  0  0  0  0  0  0
    1.1355    1.2615   -1.4497 H   0  0  0  0  0  0  0  0  0  0  0  0
    2.0226    2.1778   -0.1377 H   0  0  0  0  0  0  0  0  0  0  0  0
  1  2  1  0
  2  3  1  0
  3  4  1  0
  4  5  1  0
  5  6  1  0
  6  7  1  0
  7  8  1  0
  8  9  1  0
  4  2  1  0
  9  4  1  0
  1 10  1  0
  2 11  1  0
  3 12  1  0
  3 13  1  0
  5 14  1  0
  5 15  1  0
  6 16  1  0
  6 17  1  0
  7 18  1  0
  7 19  1  0
  8 20  1  0
  8 21  1  0
M  END
