
     RDKit          3D

 19 20  0  0  0  0  0  0  0  0999 V2000
   -2.0555   -1.4717    0.4541 O   0  0  0  0  0  0  0  0  0  0  0  0
   -1.1628   -0.7725   -0.3382 C   0  0  0  0  0  0  0  0  0  0  0  0
   -1.7344    0.6275   -0.5595 C   0  0  0  0  0  0  0  0  0  0  0  0
   -0.5105    1.4948   -0.5937 C   0  0  0  0  0  0  0  0  0  0  0  0
    0.5130    0.9075   -0.0540 C   0  0  0  0  0  0  0  0  0  0  0  0
    1.9643    0.9007    0.3524 C   0  0  0  0  0  0  0  0  0  0  0  0
    2.3308   -0.4074    0.5114 O   0  0  0  0  0  0  0  0  0  0  0  0
    1.3020   -1.2355    0.0175 C   0  0  0  0  0  0  0  0  0  0  0  0
    0.0826   -0.4649    0.4351 C   0  0  0  0  0  0  0  0  0  0  0  0
   -1.9152   -1.3122    1.4136 H   0  0  0  0  0  0  0  0  0  0  0  0
   -0.9458   -1.2668   -1.2997 H   0  0  0  0  0  0  0  0  0  0  0  0
   -2.3474    0.7051   -1.4593 H   0  0  0  0  0  0  0  0  0  0  0  0
   -2.3254    0.9699    0.3138 H   0  0  0  0  0  0  0  0  0  0  0  0
   -0.5011    2.4839   -1.0192 H   0  0  0  0  0  0  0  0  0  0  0  0
    2.5974    1.3455   -0.4360 H   0  0  0  0  0  0  0  0  0  0  0  0
    1.9973    1.4556    1.3132 H   0  0  0  0  0  0  0  0  0  0  0  0
    1.3675   -2.2244    0.5070 H   0  0  0  0  0  0  0  0  0  0  0  0
    1.3832   -1.2751   -1.0785 H   0  0  0  0  0  0  0  0  0  0  0  0
   -0.0399   -0.4600    1.5200 H   0  0  0  0  0  0  0  0  0  0  0  0
  1  2  1  0
  2  3  1  0
  3  4  1  0
  4  5  2  0
  5  6  1  0
  6  7  1  0
  7  8  1  0
  8  9  1  0
  9  2  1  0
  9  5  1  0
  1 10  1  0
  2 11  1  0
  3 12  1  0
  3 13  1  0
  4 14  1  0
  6 15  1  0
  6 16  1  0
  8 17  1  0
  8 18  1  0
  9 19  1  0
M  END
