
     RDKit          3D

 16 17  0  0  0  0  0  0  0  0999 V2000
    2.2732    0.3930    0.2110 O   0  0  0  0  0  0  0  0  0  0  0  0
    1.1043    0.2375   -0.5091 C   0  0  0  0  0  0  0  0  0  0  0  0
    0.0021    1.2170   -0.1988 C   0  0  0  0  0  0  0  0  0  0  0  0
   -0.9031    0.0753    0.1395 C   0  0  0  0  0  0  0  0  0  0  0  0
   -1.7018    0.1571    1.2591 O   0  0  0  0  0  0  0  0  0  0  0  0
   -1.0175   -1.1188   -0.7315 C   0  0  0  0  0  0  0  0  0  0  0  0
    0.2338   -0.8582    0.0322 C   0  0  0  0  0  0  0  0  0  0  0  0
    0.6443   -1.6720    1.0486 O   0  0  0  0  0  0  0  0  0  0  0  0
    2.8168    1.1468   -0.1046 H   0  0  0  0  0  0  0  0  0  0  0  0
    1.2481    0.1058   -1.6133 H   0  0  0  0  0  0  0  0  0  0  0  0
   -0.3955    1.7942   -1.0441 H   0  0  0  0  0  0  0  0  0  0  0  0
    0.1863    1.8837    0.6659 H   0  0  0  0  0  0  0  0  0  0  0  0
   -2.4116    0.8387    1.0525 H   0  0  0  0  0  0  0  0  0  0  0  0
   -1.6430   -1.9352   -0.3367 H   0  0  0  0  0  0  0  0  0  0  0  0
   -0.9635   -0.9437   -1.8239 H   0  0  0  0  0  0  0  0  0  0  0  0
    0.5269   -1.3211    1.9531 H   0  0  0  0  0  0  0  0  0  0  0  0
  1  2  1  0
  2  3  1  0
  3  4  1  0
  4  5  1  0
  4  6  1  0
  6  7  1  0
  7  8  1  0
  7  2  1  0
  7  4  1  0
  1  9  1  0
  2 10  1  0
  3 11  1  0
  3 12  1  0
  5 13  1  0
  6 14  1  0
  6 15  1  0
  8 16  1  0
M  END
