
     RDKit          3D

 19 21  0  0  0  0  0  0  0  0999 V2000
    3.2197    0.6156   -0.1611 O   0  0  0  0  0  0  0  0  0  0  0  0
    1.8404    0.8574   -0.1296 C   0  0  0  0  0  0  0  0  0  0  0  0
    0.9987   -0.0004   -0.9731 C   0  0  0  0  0  0  0  0  0  0  0  0
   -0.2522    0.4016   -1.3591 O   0  0  0  0  0  0  0  0  0  0  0  0
   -0.9581    0.8183   -0.2595 C   0  0  0  0  0  0  0  0  0  0  0  0
   -2.2287   -0.0308   -0.1211 C   0  0  0  0  0  0  0  0  0  0  0  0
   -1.3029   -1.1215    0.4371 C   0  0  0  0  0  0  0  0  0  0  0  0
   -0.4034    0.0258    0.9057 C   0  0  0  0  0  0  0  0  0  0  0  0
    1.0244   -0.1725    0.5068 C   0  0  0  0  0  0  0  0  0  0  0  0
    3.4401   -0.3184    0.0448 H   0  0  0  0  0  0  0  0  0  0  0  0
    1.6006    1.9345   -0.1300 H   0  0  0  0  0  0  0  0  0  0  0  0
    1.4036   -0.8750   -1.5380 H   0  0  0  0  0  0  0  0  0  0  0  0
   -1.0942    1.8848   -0.1010 H   0  0  0  0  0  0  0  0  0  0  0  0
   -2.6900   -0.2965   -1.0914 H   0  0  0  0  0  0  0  0  0  0  0  0
   -2.9057    0.2868    0.6795 H   0  0  0  0  0  0  0  0  0  0  0  0
   -0.8529   -1.6529   -0.4266 H   0  0  0  0  0  0  0  0  0  0  0  0
   -1.7436   -1.7230    1.2243 H   0  0  0  0  0  0  0  0  0  0  0  0
   -0.6124    0.4070    1.9019 H   0  0  0  0  0  0  0  0  0  0  0  0
    1.5165   -1.0409    0.9812 H   0  0  0  0  0  0  0  0  0  0  0  0
  1  2  1  0
  2  3  1  0
  3  4  1  0
  4  5  1  0
  5  6  1  0
  6  7  1  0
  7  8  1  0
  8  9  1  0
  9  2  1  0
  9  3  1  0
  8  5  1  0
  1 10  1  0
  2 11  1  0
  3 12  1  0
  5 13  1  0
  6 14  1  0
  6 15  1  0
  7 16  1  0
  7 17  1  0
  8 18  1  0
  9 19  1  0
M  END
