
     RDKit          3D

 21 23  0  0  0  0  0  0  0  0999 V2000
   -1.1219    2.4595   -0.1942 O   0  0  0  0  0  0  0  0  0  0  0  0
   -0.5730    1.2663    0.2334 C   0  0  0  0  0  0  0  0  0  0  0  0
    0.9049    1.2326   -0.1443 C   0  0  0  0  0  0  0  0  0  0  0  0
    1.5291   -0.0274    0.3443 C   0  0  0  0  0  0  0  0  0  0  0  0
    1.8925   -1.1362   -0.5949 C   0  0  0  0  0  0  0  0  0  0  0  0
    0.7063   -1.2130    0.3967 C   0  0  0  0  0  0  0  0  0  0  0  0
   -0.6149   -1.1963   -0.2630 C   0  0  0  0  0  0  0  0  0  0  0  0
   -1.8776   -0.8856    0.4319 C   0  0  0  0  0  0  0  0  0  0  0  0
   -1.2292    0.1212   -0.4833 C   0  0  0  0  0  0  0  0  0  0  0  0
   -1.8166    2.7503    0.4355 H   0  0  0  0  0  0  0  0  0  0  0  0
   -0.6248    1.1736    1.3442 H   0  0  0  0  0  0  0  0  0  0  0  0
    1.3483    2.1403    0.3568 H   0  0  0  0  0  0  0  0  0  0  0  0
    1.0291    1.4107   -1.2266 H   0  0  0  0  0  0  0  0  0  0  0  0
    2.2806    0.1160    1.1682 H   0  0  0  0  0  0  0  0  0  0  0  0
    1.6800   -0.9518   -1.6425 H   0  0  0  0  0  0  0  0  0  0  0  0
    2.7587   -1.7849   -0.4009 H   0  0  0  0  0  0  0  0  0  0  0  0
    0.8459   -1.9129    1.2612 H   0  0  0  0  0  0  0  0  0  0  0  0
   -0.7198   -1.9439   -1.1036 H   0  0  0  0  0  0  0  0  0  0  0  0
   -2.8317   -1.2887    0.0344 H   0  0  0  0  0  0  0  0  0  0  0  0
   -1.9297   -0.6686    1.5170 H   0  0  0  0  0  0  0  0  0  0  0  0
   -1.6362    0.3386   -1.4701 H   0  0  0  0  0  0  0  0  0  0  0  0
  1  2  1  0
  2  3  1  0
  3  4  1  0
  4  5  1  0
  5  6  1  0
  6  7  1  0
  7  8  1  0
  8  9  1  0
  9  2  1  0
  6  4  1  0
  9  7  1  0
  1 10  1  0
  2 11  1  0
  3 12  1  0
  3 13  1  0
  4 14  1  0
  5 15  1  0
  5 16  1  0
  6 17  1  0
  7 18  1  0
  8 19  1  0
  8 20  1  0
  9 21  1  0
M  END
