
     RDKit          3D

 19 20  0  0  0  0  0  0  0  0999 V2000
    2.7074   -0.2283   -0.2993 O   0  0  0  0  0  0  0  0  0  0  0  0
    1.3264   -0.1982   -0.5815 C   0  0  0  0  0  0  0  0  0  0  0  0
    0.8729    1.1812   -0.4637 C   0  0  0  0  0  0  0  0  0  0  0  0
   -0.3387    1.6475   -0.1930 C   0  0  0  0  0  0  0  0  0  0  0  0
   -1.4452    0.9179    0.4664 C   0  0  0  0  0  0  0  0  0  0  0  0
   -1.6568   -0.3611   -0.3277 C   0  0  0  0  0  0  0  0  0  0  0  0
   -0.7318   -0.9323    0.6774 C   0  0  0  0  0  0  0  0  0  0  0  0
    0.6455   -1.2077    0.2290 C   0  0  0  0  0  0  0  0  0  0  0  0
   -0.9131    0.1330    1.4981 O   0  0  0  0  0  0  0  0  0  0  0  0
    2.8122   -0.0749    0.6631 H   0  0  0  0  0  0  0  0  0  0  0  0
    1.2634   -0.4792   -1.6739 H   0  0  0  0  0  0  0  0  0  0  0  0
    1.6567    1.9450   -0.6251 H   0  0  0  0  0  0  0  0  0  0  0  0
   -0.5366    2.6671   -0.4853 H   0  0  0  0  0  0  0  0  0  0  0  0
   -2.3345    1.4926    0.7032 H   0  0  0  0  0  0  0  0  0  0  0  0
   -1.3254   -0.3370   -1.3649 H   0  0  0  0  0  0  0  0  0  0  0  0
   -2.7258   -0.6861   -0.1653 H   0  0  0  0  0  0  0  0  0  0  0  0
   -1.1715   -1.8592    1.1506 H   0  0  0  0  0  0  0  0  0  0  0  0
    1.2674   -1.4378    1.1330 H   0  0  0  0  0  0  0  0  0  0  0  0
    0.6276   -2.1825   -0.3411 H   0  0  0  0  0  0  0  0  0  0  0  0
  1  2  1  0
  2  3  1  0
  3  4  2  0
  4  5  1  0
  5  6  1  0
  6  7  1  0
  7  8  1  0
  7  9  1  0
  8  2  1  0
  9  5  1  0
  1 10  1  0
  2 11  1  0
  3 12  1  0
  4 13  1  0
  5 14  1  0
  6 15  1  0
  6 16  1  0
  7 17  1  0
  8 18  1  0
  8 19  1  0
M  END
