
     RDKit          3D

 18 20  0  0  0  0  0  0  0  0999 V2000
   -1.8376    1.3725    0.9896 O   0  0  0  0  0  0  0  0  0  0  0  0
   -1.1864    0.7996   -0.0757 C   0  0  0  0  0  0  0  0  0  0  0  0
   -1.3795   -0.7282   -0.1111 C   0  0  0  0  0  0  0  0  0  0  0  0
    0.0600   -1.1533   -0.1553 C   0  0  0  0  0  0  0  0  0  0  0  0
    0.8173   -0.1540   -0.9736 C   0  0  0  0  0  0  0  0  0  0  0  0
    1.9584   -0.3805   -0.0245 C   0  0  0  0  0  0  0  0  0  0  0  0
    0.7540   -0.3073    0.8723 C   0  0  0  0  0  0  0  0  0  0  0  0
    0.3128    0.8493    0.0256 C   0  0  0  0  0  0  0  0  0  0  0  0
   -1.9399    2.3345    0.8104 H   0  0  0  0  0  0  0  0  0  0  0  0
   -1.4691    1.2584   -1.0384 H   0  0  0  0  0  0  0  0  0  0  0  0
   -1.8623   -1.0351    0.8551 H   0  0  0  0  0  0  0  0  0  0  0  0
   -1.9715   -1.0470   -0.9647 H   0  0  0  0  0  0  0  0  0  0  0  0
    0.3009   -2.1930   -0.2297 H   0  0  0  0  0  0  0  0  0  0  0  0
    0.8521   -0.0632   -1.9673 H   0  0  0  0  0  0  0  0  0  0  0  0
    2.6536    0.4420    0.1355 H   0  0  0  0  0  0  0  0  0  0  0  0
    2.4100   -1.3933   -0.1313 H   0  0  0  0  0  0  0  0  0  0  0  0
    0.7217   -0.3942    1.8651 H   0  0  0  0  0  0  0  0  0  0  0  0
    0.8057    1.7928    0.1178 H   0  0  0  0  0  0  0  0  0  0  0  0
  1  2  1  0
  2  3  1  0
  3  4  1  0
  4  5  1  0
  5  6  1  0
  6  7  1  0
  7  8  1  0
  8  2  1  0
  7  4  1  0
  8  5  1  0
  1  9  1  0
  2 10  1  0
  3 11  1  0
  3 12  1  0
  4 13  1  0
  5 14  1  0
  6 15  1  0
  6 16  1  0
  7 17  1  0
  8 18  1  0
M  END
