
     RDKit          3D

 21 22  0  0  0  0  0  0  0  0999 V2000
   -1.8527    1.8079   -0.4371 O   0  0  0  0  0  0  0  0  0  0  0  0
   -1.5788    0.7208    0.4420 C   0  0  0  0  0  0  0  0  0  0  0  0
   -0.3275    0.4472    0.8281 C   0  0  0  0  0  0  0  0  0  0  0  0
    0.8325    1.3181    0.3110 C   0  0  0  0  0  0  0  0  0  0  0  0
    1.6075    0.4198   -0.6415 C   0  0  0  0  0  0  0  0  0  0  0  0
    1.5518   -0.9636   -0.0264 C   0  0  0  0  0  0  0  0  0  0  0  0
    0.0947   -1.4488   -0.0491 C   0  0  0  0  0  0  0  0  0  0  0  0
   -0.8918   -0.3673   -0.1935 C   0  0  0  0  0  0  0  0  0  0  0  0
   -1.9481   -0.8599   -0.8782 O   0  0  0  0  0  0  0  0  0  0  0  0
   -2.4070    1.3876   -1.1576 H   0  0  0  0  0  0  0  0  0  0  0  0
   -2.4464    0.6557    1.1694 H   0  0  0  0  0  0  0  0  0  0  0  0
   -0.1130    0.1265    1.8970 H   0  0  0  0  0  0  0  0  0  0  0  0
    0.4513    2.2284   -0.1849 H   0  0  0  0  0  0  0  0  0  0  0  0
    1.5239    1.6252    1.0918 H   0  0  0  0  0  0  0  0  0  0  0  0
    1.1259    0.4292   -1.6368 H   0  0  0  0  0  0  0  0  0  0  0  0
    2.6478    0.7357   -0.7672 H   0  0  0  0  0  0  0  0  0  0  0  0
    2.2278   -1.6302   -0.5546 H   0  0  0  0  0  0  0  0  0  0  0  0
    1.9030   -0.8952    1.0238 H   0  0  0  0  0  0  0  0  0  0  0  0
   -0.0636   -1.9922    0.9249 H   0  0  0  0  0  0  0  0  0  0  0  0
    0.0667   -2.1969   -0.8302 H   0  0  0  0  0  0  0  0  0  0  0  0
   -2.4041   -1.5478   -0.3310 H   0  0  0  0  0  0  0  0  0  0  0  0
  1  2  1  0
  2  3  1  0
  3  4  1  0
  4  5  1  0
  5  6  1  0
  6  7  1  0
  7  8  1  0
  8  9  1  0
  8  2  1  0
  8  3  1  0
  1 10  1  0
  2 11  1  0
  3 12  1  0
  4 13  1  0
  4 14  1  0
  5 15  1  0
  5 16  1  0
  6 17  1  0
  6 18  1  0
  7 19  1  0
  7 20  1  0
  9 21  1  0
M  END
