
     RDKit          3D

 19 20  0  0  0  0  0  0  0  0999 V2000
   -2.6615    0.0389    0.3019 O   0  0  0  0  0  0  0  0  0  0  0  0
   -1.4751    0.1383   -0.4133 C   0  0  0  0  0  0  0  0  0  0  0  0
   -0.6733    1.2567    0.1678 C   0  0  0  0  0  0  0  0  0  0  0  0
    0.5146    0.6078    0.7993 C   0  0  0  0  0  0  0  0  0  0  0  0
    1.5894    0.2244   -0.2116 C   0  0  0  0  0  0  0  0  0  0  0  0
    2.8673    0.2936    0.2942 O   0  0  0  0  0  0  0  0  0  0  0  0
    0.6313   -0.7804    0.3535 C   0  0  0  0  0  0  0  0  0  0  0  0
    1.2004   -1.7833    1.0915 O   0  0  0  0  0  0  0  0  0  0  0  0
   -0.6331   -1.1010   -0.3458 C   0  0  0  0  0  0  0  0  0  0  0  0
   -2.5137   -0.2369    1.2422 H   0  0  0  0  0  0  0  0  0  0  0  0
   -1.7533    0.3630   -1.4705 H   0  0  0  0  0  0  0  0  0  0  0  0
   -1.2365    1.8961    0.8786 H   0  0  0  0  0  0  0  0  0  0  0  0
   -0.3716    1.9534   -0.6678 H   0  0  0  0  0  0  0  0  0  0  0  0
    0.8061    0.8290    1.8362 H   0  0  0  0  0  0  0  0  0  0  0  0
    1.4876    0.5267   -1.2557 H   0  0  0  0  0  0  0  0  0  0  0  0
    3.0418    1.2665    0.4913 H   0  0  0  0  0  0  0  0  0  0  0  0
    0.7223   -2.0668    1.8823 H   0  0  0  0  0  0  0  0  0  0  0  0
   -1.1477   -1.9179    0.2296 H   0  0  0  0  0  0  0  0  0  0  0  0
   -0.3951   -1.5080   -1.3513 H   0  0  0  0  0  0  0  0  0  0  0  0
  1  2  1  0
  2  3  1  0
  3  4  1  0
  4  5  1  0
  5  6  1  0
  5  7  1  0
  7  8  1  0
  7  9  1  0
  9  2  1  0
  7  4  1  0
  1 10  1  0
  2 11  1  0
  3 12  1  0
  3 13  1  0
  4 14  1  0
  5 15  1  0
  6 16  1  0
  8 17  1  0
  9 18  1  0
  9 19  1  0
M  END
