
     RDKit          3D

 16 17  0  0  0  0  0  0  0  0999 V2000
   -1.7537   -1.4585   -0.0862 O   0  0  0  0  0  0  0  0  0  0  0  0
   -0.7481   -0.5711   -0.3691 C   0  0  0  0  0  0  0  0  0  0  0  0
   -1.1383    0.8692   -0.0356 C   0  0  0  0  0  0  0  0  0  0  0  0
    0.1892    1.3505    0.5697 C   0  0  0  0  0  0  0  0  0  0  0  0
    1.2212    1.2409   -0.3433 O   0  0  0  0  0  0  0  0  0  0  0  0
    1.6297   -0.0999   -0.3455 C   0  0  0  0  0  0  0  0  0  0  0  0
    0.4821   -0.7270    0.4562 C   0  0  0  0  0  0  0  0  0  0  0  0
    0.3929    0.2686    1.4628 O   0  0  0  0  0  0  0  0  0  0  0  0
   -1.5390   -2.3145   -0.5286 H   0  0  0  0  0  0  0  0  0  0  0  0
   -0.4643   -0.6155   -1.4562 H   0  0  0  0  0  0  0  0  0  0  0  0
   -1.8436    0.8107    0.7999 H   0  0  0  0  0  0  0  0  0  0  0  0
   -1.4439    1.4426   -0.8942 H   0  0  0  0  0  0  0  0  0  0  0  0
    0.1009    2.3011    1.0682 H   0  0  0  0  0  0  0  0  0  0  0  0
    1.6629   -0.5339   -1.3568 H   0  0  0  0  0  0  0  0  0  0  0  0
    2.5512   -0.2593    0.2245 H   0  0  0  0  0  0  0  0  0  0  0  0
    0.7006   -1.7038    0.8341 H   0  0  0  0  0  0  0  0  0  0  0  0
  1  2  1  0
  2  3  1  0
  3  4  1  0
  4  5  1  0
  5  6  1  0
  6  7  1  0
  7  8  1  0
  7  2  1  0
  8  4  1  0
  1  9  1  0
  2 10  1  0
  3 11  1  0
  3 12  1  0
  4 13  1  0
  6 14  1  0
  6 15  1  0
  7 16  1  0
M  END
