
     RDKit          3D

 19 20  0  0  0  0  0  0  0  0999 V2000
    2.6450   -0.0279   -0.2093 O   0  0  0  0  0  0  0  0  0  0  0  0
    1.3158    0.0000   -0.5834 C   0  0  0  0  0  0  0  0  0  0  0  0
    0.5667   -1.2149   -0.1599 C   0  0  0  0  0  0  0  0  0  0  0  0
   -0.8973   -1.0760   -0.4238 C   0  0  0  0  0  0  0  0  0  0  0  0
   -1.5045    0.1850    0.0600 C   0  0  0  0  0  0  0  0  0  0  0  0
   -2.0479    0.0523    1.3548 O   0  0  0  0  0  0  0  0  0  0  0  0
   -0.6430    1.3840    0.0491 C   0  0  0  0  0  0  0  0  0  0  0  0
    0.2628    1.3761    1.2282 O   0  0  0  0  0  0  0  0  0  0  0  0
    0.7180    1.2864   -0.0921 C   0  0  0  0  0  0  0  0  0  0  0  0
    2.7908   -0.2211    0.7393 H   0  0  0  0  0  0  0  0  0  0  0  0
    1.3052    0.0339   -1.7080 H   0  0  0  0  0  0  0  0  0  0  0  0
    0.9307   -2.0687   -0.8047 H   0  0  0  0  0  0  0  0  0  0  0  0
    0.7243   -1.4854    0.8973 H   0  0  0  0  0  0  0  0  0  0  0  0
   -1.1527   -1.2595   -1.5028 H   0  0  0  0  0  0  0  0  0  0  0  0
   -1.4065   -1.9265    0.1193 H   0  0  0  0  0  0  0  0  0  0  0  0
   -2.4013    0.4002   -0.5934 H   0  0  0  0  0  0  0  0  0  0  0  0
   -1.3526    0.0205    2.0425 H   0  0  0  0  0  0  0  0  0  0  0  0
   -1.1923    2.3618   -0.0351 H   0  0  0  0  0  0  0  0  0  0  0  0
    1.3386    2.1798   -0.3781 H   0  0  0  0  0  0  0  0  0  0  0  0
  1  2  1  0
  2  3  1  0
  3  4  1  0
  4  5  1  0
  5  6  1  0
  5  7  1  0
  7  8  1  0
  8  9  1  0
  9  2  1  0
  9  7  1  0
  1 10  1  0
  2 11  1  0
  3 12  1  0
  3 13  1  0
  4 14  1  0
  4 15  1  0
  5 16  1  0
  6 17  1  0
  7 18  1  0
  9 19  1  0
M  END
