
     RDKit          3D

 19 21  0  0  0  0  0  0  0  0999 V2000
    2.5676   -0.1603   -0.4043 O   0  0  0  0  0  0  0  0  0  0  0  0
    1.1870    0.1418   -0.5059 C   0  0  0  0  0  0  0  0  0  0  0  0
    0.9139    1.2908    0.3799 C   0  0  0  0  0  0  0  0  0  0  0  0
   -0.3249    1.4411    0.8821 O   0  0  0  0  0  0  0  0  0  0  0  0
   -1.1548    0.3728    0.9018 C   0  0  0  0  0  0  0  0  0  0  0  0
   -1.7621    0.1465   -0.4864 C   0  0  0  0  0  0  0  0  0  0  0  0
   -1.0414   -1.1709   -0.5179 C   0  0  0  0  0  0  0  0  0  0  0  0
    0.4262   -1.0971   -0.2529 C   0  0  0  0  0  0  0  0  0  0  0  0
   -0.5090   -0.9609    0.8490 C   0  0  0  0  0  0  0  0  0  0  0  0
    3.1263    0.5724   -0.7159 H   0  0  0  0  0  0  0  0  0  0  0  0
    1.0580    0.4104   -1.5956 H   0  0  0  0  0  0  0  0  0  0  0  0
    1.6499    1.3095    1.2370 H   0  0  0  0  0  0  0  0  0  0  0  0
    1.1607    2.2234   -0.2117 H   0  0  0  0  0  0  0  0  0  0  0  0
   -1.9259    0.4204    1.7014 H   0  0  0  0  0  0  0  0  0  0  0  0
   -2.8489    0.0871   -0.5120 H   0  0  0  0  0  0  0  0  0  0  0  0
   -1.3683    0.8309   -1.2670 H   0  0  0  0  0  0  0  0  0  0  0  0
   -1.5643   -2.1059   -0.6978 H   0  0  0  0  0  0  0  0  0  0  0  0
    0.9633   -2.0590   -0.4250 H   0  0  0  0  0  0  0  0  0  0  0  0
   -0.5533   -1.6930    1.6413 H   0  0  0  0  0  0  0  0  0  0  0  0
  1  2  1  0
  2  3  1  0
  3  4  1  0
  4  5  1  0
  5  6  1  0
  6  7  1  0
  7  8  1  0
  8  9  1  0
  8  2  1  0
  9  5  1  0
  9  7  1  0
  1 10  1  0
  2 11  1  0
  3 12  1  0
  3 13  1  0
  5 14  1  0
  6 15  1  0
  6 16  1  0
  7 17  1  0
  8 18  1  0
  9 19  1  0
M  END
