
     RDKit          3D

 21 22  0  0  0  0  0  0  0  0999 V2000
   -2.4929   -0.5196   -0.9501 O   0  0  0  0  0  0  0  0  0  0  0  0
   -1.1696   -0.6000   -0.5505 C   0  0  0  0  0  0  0  0  0  0  0  0
   -0.2703    0.3495   -1.3222 C   0  0  0  0  0  0  0  0  0  0  0  0
    0.7749    0.8362   -0.3457 C   0  0  0  0  0  0  0  0  0  0  0  0
    2.0131   -0.0263   -0.3082 C   0  0  0  0  0  0  0  0  0  0  0  0
    1.3405   -0.8430    0.7846 C   0  0  0  0  0  0  0  0  0  0  0  0
    0.3933    0.2864    1.0103 C   0  0  0  0  0  0  0  0  0  0  0  0
   -1.0657   -0.0008    0.8570 C   0  0  0  0  0  0  0  0  0  0  0  0
   -1.7271    1.2423    0.7540 O   0  0  0  0  0  0  0  0  0  0  0  0
   -2.9468   -1.4102   -0.9423 H   0  0  0  0  0  0  0  0  0  0  0  0
   -0.8545   -1.6362   -0.5924 H   0  0  0  0  0  0  0  0  0  0  0  0
   -0.9297    1.2260   -1.5912 H   0  0  0  0  0  0  0  0  0  0  0  0
    0.1630   -0.1045   -2.2222 H   0  0  0  0  0  0  0  0  0  0  0  0
    0.9251    1.9151   -0.2847 H   0  0  0  0  0  0  0  0  0  0  0  0
    2.2302   -0.6037   -1.2136 H   0  0  0  0  0  0  0  0  0  0  0  0
    2.8937    0.5555    0.0184 H   0  0  0  0  0  0  0  0  0  0  0  0
    2.0967   -1.0250    1.5894 H   0  0  0  0  0  0  0  0  0  0  0  0
    0.9382   -1.7754    0.3716 H   0  0  0  0  0  0  0  0  0  0  0  0
    0.6528    0.9123    1.8762 H   0  0  0  0  0  0  0  0  0  0  0  0
   -1.4960   -0.6477    1.6180 H   0  0  0  0  0  0  0  0  0  0  0  0
   -1.4689    1.8690    1.4437 H   0  0  0  0  0  0  0  0  0  0  0  0
  1  2  1  0
  2  3  1  0
  3  4  1  0
  4  5  1  0
  5  6  1  0
  6  7  1  0
  7  8  1  0
  8  9  1  0
  8  2  1  0
  7  4  1  0
  1 10  1  0
  2 11  1  0
  3 12  1  0
  3 13  1  0
  4 14  1  0
  5 15  1  0
  5 16  1  0
  6 17  1  0
  6 18  1  0
  7 19  1  0
  8 20  1  0
  9 21  1  0
M  END
