
     RDKit          3D

 21 22  0  0  0  0  0  0  0  0999 V2000
    2.8861   -1.2590   -0.0197 O   0  0  0  0  0  0  0  0  0  0  0  0
    1.9061   -0.3416    0.2341 C   0  0  0  0  0  0  0  0  0  0  0  0
    0.5721   -0.9314    0.7211 C   0  0  0  0  0  0  0  0  0  0  0  0
   -0.0751    0.1143   -0.1195 C   0  0  0  0  0  0  0  0  0  0  0  0
   -0.5187    1.3668    0.5153 C   0  0  0  0  0  0  0  0  0  0  0  0
   -1.9633    0.8668    0.3676 C   0  0  0  0  0  0  0  0  0  0  0  0
   -1.4115   -0.1217   -0.6686 C   0  0  0  0  0  0  0  0  0  0  0  0
   -1.9479   -1.3878   -0.4336 O   0  0  0  0  0  0  0  0  0  0  0  0
    1.1123    0.1214   -0.9986 C   0  0  0  0  0  0  0  0  0  0  0  0
    3.3296   -1.0309   -0.8789 H   0  0  0  0  0  0  0  0  0  0  0  0
    2.1713    0.4885    0.9069 H   0  0  0  0  0  0  0  0  0  0  0  0
    0.4230   -0.9046    1.7965 H   0  0  0  0  0  0  0  0  0  0  0  0
    0.4339   -1.9474    0.2574 H   0  0  0  0  0  0  0  0  0  0  0  0
   -0.3584    2.2420   -0.1495 H   0  0  0  0  0  0  0  0  0  0  0  0
   -0.1909    1.4918    1.5618 H   0  0  0  0  0  0  0  0  0  0  0  0
   -2.2290    0.3382    1.3057 H   0  0  0  0  0  0  0  0  0  0  0  0
   -2.6659    1.5990   -0.0178 H   0  0  0  0  0  0  0  0  0  0  0  0
   -1.6337    0.1993   -1.7075 H   0  0  0  0  0  0  0  0  0  0  0  0
   -2.4403   -1.4238    0.4319 H   0  0  0  0  0  0  0  0  0  0  0  0
    1.4546    1.1341   -1.2844 H   0  0  0  0  0  0  0  0  0  0  0  0
    1.1460   -0.6140   -1.8202 H   0  0  0  0  0  0  0  0  0  0  0  0
  1  2  1  0
  2  3  1  0
  3  4  1  0
  4  5  1  0
  5  6  1  0
  6  7  1  0
  7  8  1  0
  4  9  1  0
  9  2  1  0
  7  4  1  0
  1 10  1  0
  2 11  1  0
  3 12  1  0
  3 13  1  0
  5 14  1  0
  5 15  1  0
  6 16  1  0
  6 17  1  0
  7 18  1  0
  8 19  1  0
  9 20  1  0
  9 21  1  0
M  END
