
     RDKit          3D

 23 24  0  0  0  0  0  0  0  0999 V2000
   -1.2565   -0.0814    1.5886 O   0  0  0  0  0  0  0  0  0  0  0  0
   -1.4188    0.5142    0.3643 C   0  0  0  0  0  0  0  0  0  0  0  0
   -0.3026    1.3784   -0.1023 C   0  0  0  0  0  0  0  0  0  0  0  0
    0.9777    1.2015    0.6272 C   0  0  0  0  0  0  0  0  0  0  0  0
    1.4714   -0.1513    0.8430 C   0  0  0  0  0  0  0  0  0  0  0  0
    1.1808   -1.1801   -0.1989 C   0  0  0  0  0  0  0  0  0  0  0  0
   -0.2708   -1.5002   -0.3476 C   0  0  0  0  0  0  0  0  0  0  0  0
   -1.1166   -0.3901   -0.8401 C   0  0  0  0  0  0  0  0  0  0  0  0
   -0.3657    0.7568   -1.4480 C   0  0  0  0  0  0  0  0  0  0  0  0
   -2.1052   -0.5932    1.7767 H   0  0  0  0  0  0  0  0  0  0  0  0
   -2.4233    1.0192    0.2688 H   0  0  0  0  0  0  0  0  0  0  0  0
   -0.6003    2.4392   -0.1343 H   0  0  0  0  0  0  0  0  0  0  0  0
    1.7449    1.8347    0.0930 H   0  0  0  0  0  0  0  0  0  0  0  0
    0.8597    1.7060    1.6226 H   0  0  0  0  0  0  0  0  0  0  0  0
    1.1260   -0.5767    1.8257 H   0  0  0  0  0  0  0  0  0  0  0  0
    2.5966   -0.1187    0.9494 H   0  0  0  0  0  0  0  0  0  0  0  0
    1.6599   -2.1381    0.1713 H   0  0  0  0  0  0  0  0  0  0  0  0
    1.6966   -0.9866   -1.1647 H   0  0  0  0  0  0  0  0  0  0  0  0
   -0.6099   -1.9257    0.6367 H   0  0  0  0  0  0  0  0  0  0  0  0
   -0.3466   -2.3547   -1.0712 H   0  0  0  0  0  0  0  0  0  0  0  0
   -2.0481   -0.6844   -1.3307 H   0  0  0  0  0  0  0  0  0  0  0  0
   -1.0297    1.2988   -2.1845 H   0  0  0  0  0  0  0  0  0  0  0  0
    0.5806    0.5324   -1.9449 H   0  0  0  0  0  0  0  0  0  0  0  0
  1  2  1  0
  2  3  1  0
  3  4  1  0
  4  5  1  0
  5  6  1  0
  6  7  1  0
  7  8  1  0
  8  9  1  0
  8  2  1  0
  9  3  1  0
  1 10  1  0
  2 11  1  0
  3 12  1  0
  4 13  1  0
  4 14  1  0
  5 15  1  0
  5 16  1  0
  6 17  1  0
  6 18  1  0
  7 19  1  0
  7 20  1  0
  8 21  1  0
  9 22  1  0
  9 23  1  0
M  END
