
     RDKit          3D

 21 23  0  0  0  0  0  0  0  0999 V2000
    1.1930   -1.8675    0.2123 O   0  0  0  0  0  0  0  0  0  0  0  0
    1.0996   -0.5594    0.6519 C   0  0  0  0  0  0  0  0  0  0  0  0
    2.3252    0.2626    0.2295 C   0  0  0  0  0  0  0  0  0  0  0  0
    1.4096    1.2429   -0.5191 C   0  0  0  0  0  0  0  0  0  0  0  0
    0.2769    0.3771   -0.1482 C   0  0  0  0  0  0  0  0  0  0  0  0
   -0.8438    0.0148   -0.9900 C   0  0  0  0  0  0  0  0  0  0  0  0
   -1.8686   -0.9312   -0.4196 C   0  0  0  0  0  0  0  0  0  0  0  0
   -1.9883   -0.1128    0.8611 C   0  0  0  0  0  0  0  0  0  0  0  0
   -1.0332    0.8923    0.2717 C   0  0  0  0  0  0  0  0  0  0  0  0
    0.8575   -2.0001   -0.7060 H   0  0  0  0  0  0  0  0  0  0  0  0
    0.8712   -0.4431    1.7444 H   0  0  0  0  0  0  0  0  0  0  0  0
    2.8152    0.7067    1.1130 H   0  0  0  0  0  0  0  0  0  0  0  0
    2.9972   -0.2915   -0.4489 H   0  0  0  0  0  0  0  0  0  0  0  0
    1.3957    2.2279    0.0307 H   0  0  0  0  0  0  0  0  0  0  0  0
    1.6601    1.3912   -1.5681 H   0  0  0  0  0  0  0  0  0  0  0  0
   -1.0182    0.5035   -1.9626 H   0  0  0  0  0  0  0  0  0  0  0  0
   -1.4816   -1.9478   -0.1608 H   0  0  0  0  0  0  0  0  0  0  0  0
   -2.7915   -1.0005   -1.0147 H   0  0  0  0  0  0  0  0  0  0  0  0
   -3.0187    0.2068    1.0098 H   0  0  0  0  0  0  0  0  0  0  0  0
   -1.5082   -0.5898    1.7510 H   0  0  0  0  0  0  0  0  0  0  0  0
   -1.3491    1.9179    0.0624 H   0  0  0  0  0  0  0  0  0  0  0  0
  1  2  1  0
  2  3  1  0
  3  4  1  0
  4  5  1  0
  5  6  1  0
  6  7  1  0
  7  8  1  0
  8  9  1  0
  5  2  1  0
  9  6  1  0
  9  5  1  0
  1 10  1  0
  2 11  1  0
  3 12  1  0
  3 13  1  0
  4 14  1  0
  4 15  1  0
  6 16  1  0
  7 17  1  0
  7 18  1  0
  8 19  1  0
  8 20  1  0
  9 21  1  0
M  END
