
     RDKit          3D

 21 22  0  0  0  0  0  0  0  0999 V2000
    2.6955   -0.9233    0.3918 O   0  0  0  0  0  0  0  0  0  0  0  0
    1.6183   -0.3455   -0.3212 C   0  0  0  0  0  0  0  0  0  0  0  0
    1.6856    1.1447    0.0314 C   0  0  0  0  0  0  0  0  0  0  0  0
    0.5593    1.8025   -0.4062 O   0  0  0  0  0  0  0  0  0  0  0  0
   -0.5089    1.4028    0.3768 C   0  0  0  0  0  0  0  0  0  0  0  0
   -0.8368   -0.0360    0.1185 C   0  0  0  0  0  0  0  0  0  0  0  0
   -2.0352   -0.5408    0.9389 C   0  0  0  0  0  0  0  0  0  0  0  0
   -2.0785   -0.4159   -0.5611 C   0  0  0  0  0  0  0  0  0  0  0  0
    0.3561   -0.9307    0.2198 C   0  0  0  0  0  0  0  0  0  0  0  0
    3.0510   -1.7158   -0.0505 H   0  0  0  0  0  0  0  0  0  0  0  0
    1.7484   -0.5205   -1.3975 H   0  0  0  0  0  0  0  0  0  0  0  0
    2.6368    1.5850   -0.3248 H   0  0  0  0  0  0  0  0  0  0  0  0
    1.6767    1.1520    1.1591 H   0  0  0  0  0  0  0  0  0  0  0  0
   -1.3721    2.0404    0.0999 H   0  0  0  0  0  0  0  0  0  0  0  0
   -0.3434    1.5759    1.4658 H   0  0  0  0  0  0  0  0  0  0  0  0
   -2.5714    0.1646    1.5772 H   0  0  0  0  0  0  0  0  0  0  0  0
   -2.0201   -1.5778    1.3011 H   0  0  0  0  0  0  0  0  0  0  0  0
   -2.2037   -1.3117   -1.1777 H   0  0  0  0  0  0  0  0  0  0  0  0
   -2.7196    0.4366   -0.9158 H   0  0  0  0  0  0  0  0  0  0  0  0
    0.5297   -1.1115    1.3221 H   0  0  0  0  0  0  0  0  0  0  0  0
    0.1322   -1.8749   -0.3054 H   0  0  0  0  0  0  0  0  0  0  0  0
  1  2  1  0
  2  3  1  0
  3  4  1  0
  4  5  1  0
  5  6  1  0
  6  7  1  0
  7  8  1  0
  6  9  1  0
  9  2  1  0
  8  6  1  0
  1 10  1  0
  2 11  1  0
  3 12  1  0
  3 13  1  0
  5 14  1  0
  5 15  1  0
  7 16  1  0
  7 17  1  0
  8 18  1  0
  8 19  1  0
  9 20  1  0
  9 21  1  0
M  END
