
     RDKit          3D

 19 20  0  0  0  0  0  0  0  0999 V2000
   -2.5220   -0.6684    0.1180 O   0  0  0  0  0  0  0  0  0  0  0  0
   -1.2764   -0.0807    0.3241 C   0  0  0  0  0  0  0  0  0  0  0  0
   -1.3378    1.3909    0.3226 C   0  0  0  0  0  0  0  0  0  0  0  0
   -0.2200    1.8401   -0.2159 C   0  0  0  0  0  0  0  0  0  0  0  0
    0.6804    0.7476   -0.6217 C   0  0  0  0  0  0  0  0  0  0  0  0
    1.5713    0.2201    0.4742 C   0  0  0  0  0  0  0  0  0  0  0  0
    1.5634   -1.2700    0.2747 C   0  0  0  0  0  0  0  0  0  0  0  0
    0.5014   -1.6372   -0.4318 C   0  0  0  0  0  0  0  0  0  0  0  0
   -0.2974   -0.4260   -0.7682 C   0  0  0  0  0  0  0  0  0  0  0  0
   -2.4485   -1.5958    0.5021 H   0  0  0  0  0  0  0  0  0  0  0  0
   -0.8351   -0.4185    1.2975 H   0  0  0  0  0  0  0  0  0  0  0  0
   -2.1857    1.9985    0.7114 H   0  0  0  0  0  0  0  0  0  0  0  0
   -0.0326    2.9233   -0.3256 H   0  0  0  0  0  0  0  0  0  0  0  0
    1.1811    0.9181   -1.5738 H   0  0  0  0  0  0  0  0  0  0  0  0
    1.2749    0.5179    1.4756 H   0  0  0  0  0  0  0  0  0  0  0  0
    2.6014    0.5789    0.2722 H   0  0  0  0  0  0  0  0  0  0  0  0
    2.3272   -1.9392    0.6611 H   0  0  0  0  0  0  0  0  0  0  0  0
    0.2135   -2.6382   -0.7414 H   0  0  0  0  0  0  0  0  0  0  0  0
   -0.7593   -0.4614   -1.7553 H   0  0  0  0  0  0  0  0  0  0  0  0
  1  2  1  0
  2  3  1  0
  3  4  2  0
  4  5  1  0
  5  6  1  0
  6  7  1  0
  7  8  2  0
  8  9  1  0
  9  2  1  0
  9  5  1  0
  1 10  1  0
  2 11  1  0
  3 12  1  0
  4 13  1  0
  5 14  1  0
  6 15  1  0
  6 16  1  0
  7 17  1  0
  8 18  1  0
  9 19  1  0
M  END
