
     RDKit          3D

 16 17  0  0  0  0  0  0  0  0999 V2000
   -0.4410    2.0179    0.3446 O   0  0  0  0  0  0  0  0  0  0  0  0
   -0.3685    0.9116   -0.5020 C   0  0  0  0  0  0  0  0  0  0  0  0
   -1.5879    0.1155   -0.3017 C   0  0  0  0  0  0  0  0  0  0  0  0
   -1.3290   -1.1563   -0.2287 C   0  0  0  0  0  0  0  0  0  0  0  0
    0.1239   -1.3698   -0.3740 C   0  0  0  0  0  0  0  0  0  0  0  0
    0.7497   -0.0109   -0.1677 C   0  0  0  0  0  0  0  0  0  0  0  0
    1.8334    0.2016    0.6745 C   0  0  0  0  0  0  0  0  0  0  0  0
    2.0293    0.2187   -0.7361 O   0  0  0  0  0  0  0  0  0  0  0  0
   -1.3243    2.4600    0.1351 H   0  0  0  0  0  0  0  0  0  0  0  0
   -0.3471    1.2824   -1.5435 H   0  0  0  0  0  0  0  0  0  0  0  0
   -2.5779    0.5583   -0.2264 H   0  0  0  0  0  0  0  0  0  0  0  0
   -2.0326   -1.9909   -0.0831 H   0  0  0  0  0  0  0  0  0  0  0  0
    0.4567   -2.0047    0.4891 H   0  0  0  0  0  0  0  0  0  0  0  0
    0.4035   -1.7906   -1.3491 H   0  0  0  0  0  0  0  0  0  0  0  0
    2.0532    1.1870    1.1574 H   0  0  0  0  0  0  0  0  0  0  0  0
    2.3587   -0.6297    1.1842 H   0  0  0  0  0  0  0  0  0  0  0  0
  1  2  1  0
  2  3  1  0
  3  4  2  0
  4  5  1  0
  5  6  1  0
  6  7  1  0
  7  8  1  0
  6  2  1  0
  8  6  1  0
  1  9  1  0
  2 10  1  0
  3 11  1  0
  4 12  1  0
  5 13  1  0
  5 14  1  0
  7 15  1  0
  7 16  1  0
M  END
