
     RDKit          3D

 18 19  0  0  0  0  0  0  0  0999 V2000
   -3.1747    0.7807   -0.7798 O   0  0  0  0  0  0  0  0  0  0  0  0
   -2.2318   -0.0882   -0.2596 C   0  0  0  0  0  0  0  0  0  0  0  0
   -1.6459   -1.0424   -1.2577 C   0  0  0  0  0  0  0  0  0  0  0  0
   -0.7934    0.0097   -0.6445 C   0  0  0  0  0  0  0  0  0  0  0  0
    0.1985   -0.3135    0.2524 O   0  0  0  0  0  0  0  0  0  0  0  0
    1.3179    0.4790    0.1854 C   0  0  0  0  0  0  0  0  0  0  0  0
    2.6301   -0.2361    0.2879 C   0  0  0  0  0  0  0  0  0  0  0  0
    2.1854    0.7273    1.3621 C   0  0  0  0  0  0  0  0  0  0  0  0
   -3.9963    0.2543   -0.9965 H   0  0  0  0  0  0  0  0  0  0  0  0
   -2.4484   -0.4278    0.7676 H   0  0  0  0  0  0  0  0  0  0  0  0
   -1.5692   -2.0908   -0.8677 H   0  0  0  0  0  0  0  0  0  0  0  0
   -1.9094   -0.9688   -2.3191 H   0  0  0  0  0  0  0  0  0  0  0  0
   -0.5605    0.8725   -1.3094 H   0  0  0  0  0  0  0  0  0  0  0  0
    1.2767    1.2773   -0.5840 H   0  0  0  0  0  0  0  0  0  0  0  0
    3.5140    0.1009   -0.2738 H   0  0  0  0  0  0  0  0  0  0  0  0
    2.6269   -1.3161    0.4998 H   0  0  0  0  0  0  0  0  0  0  0  0
    1.9054    0.2719    2.3392 H   0  0  0  0  0  0  0  0  0  0  0  0
    2.6747    1.7101    1.4654 H   0  0  0  0  0  0  0  0  0  0  0  0
  1  2  1  0
  2  3  1  0
  3  4  1  0
  4  5  1  0
  5  6  1  0
  6  7  1  0
  7  8  1  0
  4  2  1  0
  8  6  1  0
  1  9  1  0
  2 10  1  0
  3 11  1  0
  3 12  1  0
  4 13  1  0
  6 14  1  0
  7 15  1  0
  7 16  1  0
  8 17  1  0
  8 18  1  0
M  END
