
     RDKit          3D

 19 20  0  0  0  0  0  0  0  0999 V2000
   -2.1097   -0.8174    0.9252 O   0  0  0  0  0  0  0  0  0  0  0  0
   -1.4469    0.1390    0.1985 C   0  0  0  0  0  0  0  0  0  0  0  0
   -0.6831   -0.4602   -0.9917 C   0  0  0  0  0  0  0  0  0  0  0  0
    0.7425   -0.0870   -0.6456 C   0  0  0  0  0  0  0  0  0  0  0  0
    1.6455   -0.1971   -1.6224 O   0  0  0  0  0  0  0  0  0  0  0  0
    1.0633   -0.7667    0.6637 C   0  0  0  0  0  0  0  0  0  0  0  0
    0.4117   -0.0439    1.6587 O   0  0  0  0  0  0  0  0  0  0  0  0
   -0.4044    0.8808    1.0142 C   0  0  0  0  0  0  0  0  0  0  0  0
    0.5208    1.3440   -0.1258 C   0  0  0  0  0  0  0  0  0  0  0  0
   -1.7660   -1.7231    0.8379 H   0  0  0  0  0  0  0  0  0  0  0  0
   -2.1207    0.9056   -0.2339 H   0  0  0  0  0  0  0  0  0  0  0  0
   -0.9452    0.0095   -1.9356 H   0  0  0  0  0  0  0  0  0  0  0  0
   -0.7871   -1.5638   -1.0051 H   0  0  0  0  0  0  0  0  0  0  0  0
    2.5472   -0.3393   -1.2651 H   0  0  0  0  0  0  0  0  0  0  0  0
    0.6236   -1.7979    0.6194 H   0  0  0  0  0  0  0  0  0  0  0  0
    2.1318   -0.8948    0.8468 H   0  0  0  0  0  0  0  0  0  0  0  0
   -0.7707    1.6765    1.6220 H   0  0  0  0  0  0  0  0  0  0  0  0
   -0.0876    1.9391   -0.8032 H   0  0  0  0  0  0  0  0  0  0  0  0
    1.4349    1.7967    0.2421 H   0  0  0  0  0  0  0  0  0  0  0  0
  1  2  1  0
  2  3  1  0
  3  4  1  0
  4  5  1  0
  4  6  1  0
  6  7  1  0
  7  8  1  0
  8  9  1  0
  8  2  1  0
  9  4  1  0
  1 10  1  0
  2 11  1  0
  3 12  1  0
  3 13  1  0
  5 14  1  0
  6 15  1  0
  6 16  1  0
  8 17  1  0
  9 18  1  0
  9 19  1  0
M  END
