
     RDKit          3D

 21 22  0  0  0  0  0  0  0  0999 V2000
    2.7669    0.0342    0.0939 O   0  0  0  0  0  0  0  0  0  0  0  0
    1.4935   -0.0960   -0.4286 C   0  0  0  0  0  0  0  0  0  0  0  0
    0.8349   -1.2893    0.2328 C   0  0  0  0  0  0  0  0  0  0  0  0
   -0.1403   -0.6304    1.1689 C   0  0  0  0  0  0  0  0  0  0  0  0
   -1.5280   -0.6470    0.5543 C   0  0  0  0  0  0  0  0  0  0  0  0
   -1.7993    0.5659   -0.2845 C   0  0  0  0  0  0  0  0  0  0  0  0
   -0.5646    1.2235   -0.8157 C   0  0  0  0  0  0  0  0  0  0  0  0
    0.6317    1.0624    0.0741 C   0  0  0  0  0  0  0  0  0  0  0  0
    0.3266    0.6635    1.3562 O   0  0  0  0  0  0  0  0  0  0  0  0
    3.4661   -0.1208   -0.5964 H   0  0  0  0  0  0  0  0  0  0  0  0
    1.4474   -0.1389   -1.5184 H   0  0  0  0  0  0  0  0  0  0  0  0
    0.2639   -1.9052   -0.4965 H   0  0  0  0  0  0  0  0  0  0  0  0
    1.5796   -1.9127    0.7703 H   0  0  0  0  0  0  0  0  0  0  0  0
   -0.1494   -1.2101    2.1080 H   0  0  0  0  0  0  0  0  0  0  0  0
   -1.6452   -1.5822   -0.0301 H   0  0  0  0  0  0  0  0  0  0  0  0
   -2.2409   -0.6077    1.4265 H   0  0  0  0  0  0  0  0  0  0  0  0
   -2.4565    1.3079    0.2392 H   0  0  0  0  0  0  0  0  0  0  0  0
   -2.4104    0.2162   -1.1632 H   0  0  0  0  0  0  0  0  0  0  0  0
   -0.3127    0.7573   -1.7961 H   0  0  0  0  0  0  0  0  0  0  0  0
   -0.7739    2.2925   -0.9862 H   0  0  0  0  0  0  0  0  0  0  0  0
    1.2104    2.0169    0.0915 H   0  0  0  0  0  0  0  0  0  0  0  0
  1  2  1  0
  2  3  1  0
  3  4  1  0
  4  5  1  0
  5  6  1  0
  6  7  1  0
  7  8  1  0
  8  9  1  0
  8  2  1  0
  9  4  1  0
  1 10  1  0
  2 11  1  0
  3 12  1  0
  3 13  1  0
  4 14  1  0
  5 15  1  0
  5 16  1  0
  6 17  1  0
  6 18  1  0
  7 19  1  0
  7 20  1  0
  8 21  1  0
M  END
