
     RDKit          3D

 19 21  0  0  0  0  0  0  0  0999 V2000
    2.7859    0.6979   -0.0598 O   0  0  0  0  0  0  0  0  0  0  0  0
    1.7994   -0.1141   -0.6673 C   0  0  0  0  0  0  0  0  0  0  0  0
    0.5357    0.5014   -0.8288 C   0  0  0  0  0  0  0  0  0  0  0  0
   -0.2925    1.3733    0.0093 C   0  0  0  0  0  0  0  0  0  0  0  0
   -1.6357    0.6487    0.1396 C   0  0  0  0  0  0  0  0  0  0  0  0
   -1.5908   -0.8076    0.2044 C   0  0  0  0  0  0  0  0  0  0  0  0
   -1.2605   -1.3989   -1.1165 O   0  0  0  0  0  0  0  0  0  0  0  0
   -0.3665   -1.5449   -0.0995 C   0  0  0  0  0  0  0  0  0  0  0  0
    0.8055   -0.7013    0.1420 C   0  0  0  0  0  0  0  0  0  0  0  0
    3.5648    0.1885    0.2104 H   0  0  0  0  0  0  0  0  0  0  0  0
    2.2534   -0.6636   -1.5218 H   0  0  0  0  0  0  0  0  0  0  0  0
   -0.0100    0.2458   -1.7894 H   0  0  0  0  0  0  0  0  0  0  0  0
    0.1119    1.4576    1.0596 H   0  0  0  0  0  0  0  0  0  0  0  0
   -0.4275    2.3662   -0.4280 H   0  0  0  0  0  0  0  0  0  0  0  0
   -2.1789    1.1205    0.9680 H   0  0  0  0  0  0  0  0  0  0  0  0
   -2.1949    0.9542   -0.7948 H   0  0  0  0  0  0  0  0  0  0  0  0
   -2.4507   -1.2967    0.6969 H   0  0  0  0  0  0  0  0  0  0  0  0
   -0.3145   -2.5756    0.3551 H   0  0  0  0  0  0  0  0  0  0  0  0
    0.8661   -0.4513    1.2468 H   0  0  0  0  0  0  0  0  0  0  0  0
  1  2  1  0
  2  3  1  0
  3  4  1  0
  4  5  1  0
  5  6  1  0
  6  7  1  0
  7  8  1  0
  8  9  1  0
  9  2  1  0
  9  3  1  0
  8  6  1  0
  1 10  1  0
  2 11  1  0
  3 12  1  0
  4 13  1  0
  4 14  1  0
  5 15  1  0
  5 16  1  0
  6 17  1  0
  8 18  1  0
  9 19  1  0
M  END
