
     RDKit          3D

 19 20  0  0  0  0  0  0  0  0999 V2000
   -1.1754   -1.8944   -0.0073 O   0  0  0  0  0  0  0  0  0  0  0  0
   -1.3580   -0.5511    0.3155 C   0  0  0  0  0  0  0  0  0  0  0  0
   -0.3608   -0.0083    1.3066 C   0  0  0  0  0  0  0  0  0  0  0  0
    0.1745    0.8831    0.2146 C   0  0  0  0  0  0  0  0  0  0  0  0
    1.6056    0.6213   -0.1878 C   0  0  0  0  0  0  0  0  0  0  0  0
    1.9980   -0.6623   -0.7023 C   0  0  0  0  0  0  0  0  0  0  0  0
    1.9249    0.5363   -1.5405 O   0  0  0  0  0  0  0  0  0  0  0  0
   -0.8321    0.3629   -0.7907 C   0  0  0  0  0  0  0  0  0  0  0  0
   -1.8041    1.3266   -1.1450 O   0  0  0  0  0  0  0  0  0  0  0  0
   -1.6336   -2.4074    0.7250 H   0  0  0  0  0  0  0  0  0  0  0  0
   -2.4066   -0.3212    0.5979 H   0  0  0  0  0  0  0  0  0  0  0  0
   -0.7892    0.5118    2.1850 H   0  0  0  0  0  0  0  0  0  0  0  0
    0.3518   -0.7855    1.6733 H   0  0  0  0  0  0  0  0  0  0  0  0
   -0.0286    1.9552    0.4921 H   0  0  0  0  0  0  0  0  0  0  0  0
    2.3372    1.2067    0.3993 H   0  0  0  0  0  0  0  0  0  0  0  0
    1.3191   -1.4218   -1.0880 H   0  0  0  0  0  0  0  0  0  0  0  0
    3.0311   -1.0197   -0.5260 H   0  0  0  0  0  0  0  0  0  0  0  0
   -0.3660   -0.1524   -1.6381 H   0  0  0  0  0  0  0  0  0  0  0  0
   -1.9881    1.8203   -0.2836 H   0  0  0  0  0  0  0  0  0  0  0  0
  1  2  1  0
  2  3  1  0
  3  4  1  0
  4  5  1  0
  5  6  1  0
  6  7  1  0
  4  8  1  0
  8  9  1  0
  8  2  1  0
  7  5  1  0
  1 10  1  0
  2 11  1  0
  3 12  1  0
  3 13  1  0
  4 14  1  0
  5 15  1  0
  6 16  1  0
  6 17  1  0
  8 18  1  0
  9 19  1  0
M  END
