
     RDKit          3D

 19 21  0  0  0  0  0  0  0  0999 V2000
    0.2458    1.9447    1.0228 O   0  0  0  0  0  0  0  0  0  0  0  0
    0.3994    1.1162   -0.0651 C   0  0  0  0  0  0  0  0  0  0  0  0
    1.6222    0.2694   -0.1211 C   0  0  0  0  0  0  0  0  0  0  0  0
    1.7195   -1.0687    0.4861 C   0  0  0  0  0  0  0  0  0  0  0  0
    0.6788   -0.8824   -0.5963 C   0  0  0  0  0  0  0  0  0  0  0  0
   -0.4740   -0.0688   -0.1615 C   0  0  0  0  0  0  0  0  0  0  0  0
   -1.2635   -0.5011    1.0048 C   0  0  0  0  0  0  0  0  0  0  0  0
   -2.4330   -0.2332    0.2582 O   0  0  0  0  0  0  0  0  0  0  0  0
   -1.7082   -0.0227   -0.9401 C   0  0  0  0  0  0  0  0  0  0  0  0
   -0.0163    2.8642    0.7688 H   0  0  0  0  0  0  0  0  0  0  0  0
    0.3282    1.7259   -1.0153 H   0  0  0  0  0  0  0  0  0  0  0  0
    2.4306    0.5507   -0.8275 H   0  0  0  0  0  0  0  0  0  0  0  0
    2.5503   -1.7077    0.2038 H   0  0  0  0  0  0  0  0  0  0  0  0
    1.2697   -1.3089    1.4739 H   0  0  0  0  0  0  0  0  0  0  0  0
    0.8545   -1.2104   -1.6137 H   0  0  0  0  0  0  0  0  0  0  0  0
   -1.1439    0.1017    1.9000 H   0  0  0  0  0  0  0  0  0  0  0  0
   -1.1177   -1.5966    1.2035 H   0  0  0  0  0  0  0  0  0  0  0  0
   -1.8962   -0.8973   -1.5960 H   0  0  0  0  0  0  0  0  0  0  0  0
   -2.0463    0.9251   -1.3853 H   0  0  0  0  0  0  0  0  0  0  0  0
  1  2  1  0
  2  3  1  0
  3  4  1  0
  4  5  1  0
  5  6  1  0
  6  7  1  0
  7  8  1  0
  8  9  1  0
  6  2  1  0
  5  3  1  0
  9  6  1  0
  1 10  1  0
  2 11  1  0
  3 12  1  0
  4 13  1  0
  4 14  1  0
  5 15  1  0
  7 16  1  0
  7 17  1  0
  9 18  1  0
  9 19  1  0
M  END
