
     RDKit          3D

 18 19  0  0  0  0  0  0  0  0999 V2000
    1.7893   -1.4910   -0.6427 O   0  0  0  0  0  0  0  0  0  0  0  0
    1.7855   -0.3009    0.0694 C   0  0  0  0  0  0  0  0  0  0  0  0
    1.6023    0.9369   -0.7732 C   0  0  0  0  0  0  0  0  0  0  0  0
    0.5800    0.5028    0.2838 C   0  0  0  0  0  0  0  0  0  0  0  0
   -0.7599    0.1919   -0.2560 C   0  0  0  0  0  0  0  0  0  0  0  0
   -1.3901   -1.1098    0.1408 C   0  0  0  0  0  0  0  0  0  0  0  0
   -2.6054   -0.4273    0.2854 O   0  0  0  0  0  0  0  0  0  0  0  0
   -1.9169    0.7599    0.5449 C   0  0  0  0  0  0  0  0  0  0  0  0
    1.6611   -2.2822   -0.0490 H   0  0  0  0  0  0  0  0  0  0  0  0
    2.5818   -0.2548    0.8416 H   0  0  0  0  0  0  0  0  0  0  0  0
    1.3294    0.8018   -1.8376 H   0  0  0  0  0  0  0  0  0  0  0  0
    2.1797    1.8413   -0.5595 H   0  0  0  0  0  0  0  0  0  0  0  0
    0.5612    1.1379    1.2198 H   0  0  0  0  0  0  0  0  0  0  0  0
   -0.8960    0.4542   -1.3125 H   0  0  0  0  0  0  0  0  0  0  0  0
   -1.3646   -1.8028   -0.7445 H   0  0  0  0  0  0  0  0  0  0  0  0
   -1.0608   -1.5250    1.0880 H   0  0  0  0  0  0  0  0  0  0  0  0
   -1.7093    0.8984    1.6233 H   0  0  0  0  0  0  0  0  0  0  0  0
   -2.3674    1.6686    0.0782 H   0  0  0  0  0  0  0  0  0  0  0  0
  1  2  1  0
  2  3  1  0
  3  4  1  0
  4  5  1  0
  5  6  1  0
  6  7  1  0
  7  8  1  0
  4  2  1  0
  8  5  1  0
  1  9  1  0
  2 10  1  0
  3 11  1  0
  3 12  1  0
  4 13  1  0
  5 14  1  0
  6 15  1  0
  6 16  1  0
  8 17  1  0
  8 18  1  0
M  END
