
     RDKit          3D

 17 19  0  0  0  0  0  0  0  0999 V2000
   -1.7359    1.2207    0.8243 O   0  0  0  0  0  0  0  0  0  0  0  0
   -1.4967   -0.0856    0.4931 C   0  0  0  0  0  0  0  0  0  0  0  0
   -1.7512   -0.4099   -0.9859 C   0  0  0  0  0  0  0  0  0  0  0  0
   -0.6984   -1.3469   -0.8522 O   0  0  0  0  0  0  0  0  0  0  0  0
   -0.1500   -0.4789    0.0450 C   0  0  0  0  0  0  0  0  0  0  0  0
    0.8427    0.4602   -0.4233 C   0  0  0  0  0  0  0  0  0  0  0  0
    2.3591    0.3084   -0.2342 C   0  0  0  0  0  0  0  0  0  0  0  0
    1.9666    0.4032    1.1277 O   0  0  0  0  0  0  0  0  0  0  0  0
    1.0605   -0.5850    0.7460 C   0  0  0  0  0  0  0  0  0  0  0  0
   -2.1173    1.2377    1.7398 H   0  0  0  0  0  0  0  0  0  0  0  0
   -2.0632   -0.8122    1.0956 H   0  0  0  0  0  0  0  0  0  0  0  0
   -1.4040    0.4216   -1.6030 H   0  0  0  0  0  0  0  0  0  0  0  0
   -2.7245   -0.8503   -1.1980 H   0  0  0  0  0  0  0  0  0  0  0  0
    0.5987    1.5072   -0.0540 H   0  0  0  0  0  0  0  0  0  0  0  0
    2.9197    1.1561   -0.5951 H   0  0  0  0  0  0  0  0  0  0  0  0
    2.7154   -0.6566   -0.5663 H   0  0  0  0  0  0  0  0  0  0  0  0
    1.6785   -1.4897    0.4407 H   0  0  0  0  0  0  0  0  0  0  0  0
  1  2  1  0
  2  3  1  0
  3  4  1  0
  4  5  1  0
  5  6  1  0
  6  7  1  0
  7  8  1  0
  8  9  1  0
  5  2  1  0
  9  6  1  0
  9  5  1  0
  1 10  1  0
  2 11  1  0
  3 12  1  0
  3 13  1  0
  6 14  1  0
  7 15  1  0
  7 16  1  0
  9 17  1  0
M  END
