
     RDKit          3D

 19 20  0  0  0  0  0  0  0  0999 V2000
   -2.2372    0.9839   -0.6865 O   0  0  0  0  0  0  0  0  0  0  0  0
   -1.1465    0.1416   -0.5585 C   0  0  0  0  0  0  0  0  0  0  0  0
   -1.5109   -1.2298   -0.0493 C   0  0  0  0  0  0  0  0  0  0  0  0
   -0.2953   -1.7405    0.3713 O   0  0  0  0  0  0  0  0  0  0  0  0
    0.5436   -0.7248    0.7481 C   0  0  0  0  0  0  0  0  0  0  0  0
    1.6392   -0.6029   -0.2522 C   0  0  0  0  0  0  0  0  0  0  0  0
    1.8949    0.8483   -0.3568 C   0  0  0  0  0  0  0  0  0  0  0  0
    0.8427    1.4938    0.1090 C   0  0  0  0  0  0  0  0  0  0  0  0
   -0.2202    0.5753    0.5723 C   0  0  0  0  0  0  0  0  0  0  0  0
   -2.4593    1.4801    0.1203 H   0  0  0  0  0  0  0  0  0  0  0  0
   -0.5401    0.0564   -1.4768 H   0  0  0  0  0  0  0  0  0  0  0  0
   -2.1532   -1.1387    0.8522 H   0  0  0  0  0  0  0  0  0  0  0  0
   -1.9572   -1.8738   -0.8284 H   0  0  0  0  0  0  0  0  0  0  0  0
    0.8733   -0.8914    1.7840 H   0  0  0  0  0  0  0  0  0  0  0  0
    1.2695   -1.0279   -1.2306 H   0  0  0  0  0  0  0  0  0  0  0  0
    2.5681   -1.1409    0.0511 H   0  0  0  0  0  0  0  0  0  0  0  0
    2.8218    1.2970   -0.7617 H   0  0  0  0  0  0  0  0  0  0  0  0
    0.8140    2.6002    0.1268 H   0  0  0  0  0  0  0  0  0  0  0  0
   -0.7472    0.8942    1.4654 H   0  0  0  0  0  0  0  0  0  0  0  0
  1  2  1  0
  2  3  1  0
  3  4  1  0
  4  5  1  0
  5  6  1  0
  6  7  1  0
  7  8  2  0
  8  9  1  0
  9  2  1  0
  9  5  1  0
  1 10  1  0
  2 11  1  0
  3 12  1  0
  3 13  1  0
  5 14  1  0
  6 15  1  0
  6 16  1  0
  7 17  1  0
  8 18  1  0
  9 19  1  0
M  END
