
     RDKit          3D

 17 18  0  0  0  0  0  0  0  0999 V2000
   -2.4505    0.1715    0.1300 O   0  0  0  0  0  0  0  0  0  0  0  0
   -1.1256    0.2555    0.5207 C   0  0  0  0  0  0  0  0  0  0  0  0
   -0.3881    1.0323   -0.5487 C   0  0  0  0  0  0  0  0  0  0  0  0
    0.9500    0.3536   -0.7249 C   0  0  0  0  0  0  0  0  0  0  0  0
    1.7510    0.1972    0.5104 C   0  0  0  0  0  0  0  0  0  0  0  0
    0.9292   -0.9238    0.0196 C   0  0  0  0  0  0  0  0  0  0  0  0
   -0.5007   -1.1062    0.4403 C   0  0  0  0  0  0  0  0  0  0  0  0
   -2.4621    0.1045   -0.8655 H   0  0  0  0  0  0  0  0  0  0  0  0
   -1.0672    0.7200    1.5139 H   0  0  0  0  0  0  0  0  0  0  0  0
   -0.1744    2.0436   -0.1125 H   0  0  0  0  0  0  0  0  0  0  0  0
   -0.9540    1.0924   -1.4880 H   0  0  0  0  0  0  0  0  0  0  0  0
    1.3812    0.3355   -1.7306 H   0  0  0  0  0  0  0  0  0  0  0  0
    2.8536    0.0761    0.3968 H   0  0  0  0  0  0  0  0  0  0  0  0
    1.4712    0.8138    1.3826 H   0  0  0  0  0  0  0  0  0  0  0  0
    1.4275   -1.8067   -0.4304 H   0  0  0  0  0  0  0  0  0  0  0  0
   -0.6265   -1.6874    1.3664 H   0  0  0  0  0  0  0  0  0  0  0  0
   -1.0146   -1.6718   -0.3800 H   0  0  0  0  0  0  0  0  0  0  0  0
  1  2  1  0
  2  3  1  0
  3  4  1  0
  4  5  1  0
  5  6  1  0
  6  7  1  0
  7  2  1  0
  6  4  1  0
  1  8  1  0
  2  9  1  0
  3 10  1  0
  3 11  1  0
  4 12  1  0
  5 13  1  0
  5 14  1  0
  6 15  1  0
  7 16  1  0
  7 17  1  0
M  END
