
     RDKit          3D

 15 16  0  0  0  0  0  0  0  0999 V2000
    2.1049    0.7999   -0.8362 O   0  0  0  0  0  0  0  0  0  0  0  0
    1.0064    0.6967   -0.0575 C   0  0  0  0  0  0  0  0  0  0  0  0
    0.9307   -0.3753    0.9708 C   0  0  0  0  0  0  0  0  0  0  0  0
   -0.4573   -0.7411    0.5536 C   0  0  0  0  0  0  0  0  0  0  0  0
   -1.4473    0.2347    0.0743 C   0  0  0  0  0  0  0  0  0  0  0  0
   -2.6420   -0.2552   -0.3844 O   0  0  0  0  0  0  0  0  0  0  0  0
   -0.2196    0.0342   -0.6962 C   0  0  0  0  0  0  0  0  0  0  0  0
    2.5932   -0.0033   -1.0552 H   0  0  0  0  0  0  0  0  0  0  0  0
    0.7345    1.6849    0.3910 H   0  0  0  0  0  0  0  0  0  0  0  0
    1.6615   -1.2043    0.7367 H   0  0  0  0  0  0  0  0  0  0  0  0
    1.0350   -0.0153    2.0121 H   0  0  0  0  0  0  0  0  0  0  0  0
   -0.7334   -1.8050    0.5315 H   0  0  0  0  0  0  0  0  0  0  0  0
   -1.5462    1.1760    0.6714 H   0  0  0  0  0  0  0  0  0  0  0  0
   -2.8786    0.2009   -1.2447 H   0  0  0  0  0  0  0  0  0  0  0  0
   -0.1418   -0.4277   -1.6670 H   0  0  0  0  0  0  0  0  0  0  0  0
  1  2  1  0
  2  3  1  0
  3  4  1  0
  4  5  1  0
  5  6  1  0
  5  7  1  0
  7  2  1  0
  7  4  1  0
  1  8  1  0
  2  9  1  0
  3 10  1  0
  3 11  1  0
  4 12  1  0
  5 13  1  0
  6 14  1  0
  7 15  1  0
M  END
