
     RDKit          3D

 16 17  0  0  0  0  0  0  0  0999 V2000
    2.0913   -0.3912    0.3386 O   0  0  0  0  0  0  0  0  0  0  0  0
    0.8569   -0.4677   -0.2391 C   0  0  0  0  0  0  0  0  0  0  0  0
   -0.1937   -1.0976    0.6806 C   0  0  0  0  0  0  0  0  0  0  0  0
   -1.4490   -0.7690   -0.0966 C   0  0  0  0  0  0  0  0  0  0  0  0
   -1.0589    0.5917    0.4701 C   0  0  0  0  0  0  0  0  0  0  0  0
   -0.5533   -0.0935    1.5600 O   0  0  0  0  0  0  0  0  0  0  0  0
    0.1734    0.9111   -0.3370 C   0  0  0  0  0  0  0  0  0  0  0  0
    0.9460    1.8924    0.2461 O   0  0  0  0  0  0  0  0  0  0  0  0
    2.7642   -0.6598   -0.3670 H   0  0  0  0  0  0  0  0  0  0  0  0
    0.8137   -0.9096   -1.2336 H   0  0  0  0  0  0  0  0  0  0  0  0
   -0.0326   -2.0872    1.0198 H   0  0  0  0  0  0  0  0  0  0  0  0
   -1.2826   -0.8440   -1.1724 H   0  0  0  0  0  0  0  0  0  0  0  0
   -2.3833   -1.1504    0.3157 H   0  0  0  0  0  0  0  0  0  0  0  0
   -1.8174    1.3233    0.5948 H   0  0  0  0  0  0  0  0  0  0  0  0
   -0.0984    1.1520   -1.3731 H   0  0  0  0  0  0  0  0  0  0  0  0
    1.2236    2.5998   -0.4067 H   0  0  0  0  0  0  0  0  0  0  0  0
  1  2  1  0
  2  3  1  0
  3  4  1  0
  4  5  1  0
  5  6  1  0
  5  7  1  0
  7  8  1  0
  7  2  1  0
  6  3  1  0
  1  9  1  0
  2 10  1  0
  3 11  1  0
  4 12  1  0
  4 13  1  0
  5 14  1  0
  7 15  1  0
  8 16  1  0
M  END
