
     RDKit          3D

 21 22  0  0  0  0  0  0  0  0999 V2000
    2.2634    0.8204    0.5164 O   0  0  0  0  0  0  0  0  0  0  0  0
    1.6792   -0.2979   -0.1178 C   0  0  0  0  0  0  0  0  0  0  0  0
    0.6510   -0.9174    0.7619 C   0  0  0  0  0  0  0  0  0  0  0  0
   -0.5879   -0.9931   -0.0938 C   0  0  0  0  0  0  0  0  0  0  0  0
   -1.7558   -0.7044    0.7472 C   0  0  0  0  0  0  0  0  0  0  0  0
   -1.9553    0.5969    0.7492 C   0  0  0  0  0  0  0  0  0  0  0  0
   -0.9275    1.3040   -0.1009 C   0  0  0  0  0  0  0  0  0  0  0  0
   -0.4765    0.1941   -1.0198 C   0  0  0  0  0  0  0  0  0  0  0  0
    0.9730    0.2334   -1.3395 C   0  0  0  0  0  0  0  0  0  0  0  0
    2.3216    0.6847    1.4921 H   0  0  0  0  0  0  0  0  0  0  0  0
    2.4794   -1.0160   -0.4156 H   0  0  0  0  0  0  0  0  0  0  0  0
    0.4369   -0.2739    1.6388 H   0  0  0  0  0  0  0  0  0  0  0  0
    0.8905   -1.9331    1.1142 H   0  0  0  0  0  0  0  0  0  0  0  0
   -0.6671   -1.9318   -0.6655 H   0  0  0  0  0  0  0  0  0  0  0  0
   -2.3583   -1.4621    1.2837 H   0  0  0  0  0  0  0  0  0  0  0  0
   -2.7373    1.1268    1.2750 H   0  0  0  0  0  0  0  0  0  0  0  0
   -0.1296    1.6750    0.5423 H   0  0  0  0  0  0  0  0  0  0  0  0
   -1.4782    2.0792   -0.6635 H   0  0  0  0  0  0  0  0  0  0  0  0
   -1.1418    0.0602   -1.8758 H   0  0  0  0  0  0  0  0  0  0  0  0
    1.3497    1.2240   -1.6579 H   0  0  0  0  0  0  0  0  0  0  0  0
    1.1707   -0.4686   -2.1708 H   0  0  0  0  0  0  0  0  0  0  0  0
  1  2  1  0
  2  3  1  0
  3  4  1  0
  4  5  1  0
  5  6  2  0
  6  7  1  0
  7  8  1  0
  8  9  1  0
  9  2  1  0
  8  4  1  0
  1 10  1  0
  2 11  1  0
  3 12  1  0
  3 13  1  0
  4 14  1  0
  5 15  1  0
  6 16  1  0
  7 17  1  0
  7 18  1  0
  8 19  1  0
  9 20  1  0
  9 21  1  0
M  END
