
     RDKit          3D

 19 20  0  0  0  0  0  0  0  0999 V2000
    3.0094    0.2231    0.0062 O   0  0  0  0  0  0  0  0  0  0  0  0
    1.8695   -0.5644   -0.2242 C   0  0  0  0  0  0  0  0  0  0  0  0
    0.7026    0.0874   -0.7602 C   0  0  0  0  0  0  0  0  0  0  0  0
   -0.4590   -0.5312   -1.4367 C   0  0  0  0  0  0  0  0  0  0  0  0
   -1.4046   -0.8806   -0.5254 O   0  0  0  0  0  0  0  0  0  0  0  0
   -1.8259    0.0161    0.3771 C   0  0  0  0  0  0  0  0  0  0  0  0
   -0.8901    0.9581    1.0037 C   0  0  0  0  0  0  0  0  0  0  0  0
    0.2983    0.4404    1.4713 O   0  0  0  0  0  0  0  0  0  0  0  0
    0.7417   -0.5473    0.6622 C   0  0  0  0  0  0  0  0  0  0  0  0
    3.0145    0.6586    0.8696 H   0  0  0  0  0  0  0  0  0  0  0  0
    2.1606   -1.5466   -0.6772 H   0  0  0  0  0  0  0  0  0  0  0  0
    0.7312    1.1898   -0.8390 H   0  0  0  0  0  0  0  0  0  0  0  0
   -0.0979   -1.4741   -1.9329 H   0  0  0  0  0  0  0  0  0  0  0  0
   -0.8703    0.1267   -2.2270 H   0  0  0  0  0  0  0  0  0  0  0  0
   -2.6592    0.6319   -0.0771 H   0  0  0  0  0  0  0  0  0  0  0  0
   -2.3561   -0.5482    1.2030 H   0  0  0  0  0  0  0  0  0  0  0  0
   -0.7424    1.8891    0.3783 H   0  0  0  0  0  0  0  0  0  0  0  0
   -1.4023    1.3763    1.9270 H   0  0  0  0  0  0  0  0  0  0  0  0
    0.1801   -1.5050    0.8013 H   0  0  0  0  0  0  0  0  0  0  0  0
  1  2  1  0
  2  3  1  0
  3  4  1  0
  4  5  1  0
  5  6  1  0
  6  7  1  0
  7  8  1  0
  8  9  1  0
  9  2  1  0
  9  3  1  0
  1 10  1  0
  2 11  1  0
  3 12  1  0
  4 13  1  0
  4 14  1  0
  6 15  1  0
  6 16  1  0
  7 17  1  0
  7 18  1  0
  9 19  1  0
M  END
