
     RDKit          3D

 17 19  0  0  0  0  0  0  0  0999 V2000
    2.6585   -0.9881   -0.4626 O   0  0  0  0  0  0  0  0  0  0  0  0
    2.0671    0.2603   -0.3861 C   0  0  0  0  0  0  0  0  0  0  0  0
    1.2751    0.6252    0.8041 C   0  0  0  0  0  0  0  0  0  0  0  0
    0.4934   -0.3191    1.4415 O   0  0  0  0  0  0  0  0  0  0  0  0
   -0.3622   -0.2976    0.3809 C   0  0  0  0  0  0  0  0  0  0  0  0
   -1.4280   -1.2276    0.1186 C   0  0  0  0  0  0  0  0  0  0  0  0
   -1.7419    0.1761    0.4218 C   0  0  0  0  0  0  0  0  0  0  0  0
   -2.2558    0.6021    1.6185 O   0  0  0  0  0  0  0  0  0  0  0  0
    0.5843    0.2974   -0.5616 C   0  0  0  0  0  0  0  0  0  0  0  0
    1.9566   -1.7012   -0.4509 H   0  0  0  0  0  0  0  0  0  0  0  0
    2.6932    1.0842   -0.8073 H   0  0  0  0  0  0  0  0  0  0  0  0
    1.1625    1.6473    1.1736 H   0  0  0  0  0  0  0  0  0  0  0  0
   -1.6475   -1.9941    0.9182 H   0  0  0  0  0  0  0  0  0  0  0  0
   -1.6434   -1.6649   -0.8941 H   0  0  0  0  0  0  0  0  0  0  0  0
   -2.1113    0.7780   -0.4592 H   0  0  0  0  0  0  0  0  0  0  0  0
   -1.9205    1.5404    1.7631 H   0  0  0  0  0  0  0  0  0  0  0  0
    0.2198    1.1815   -1.1326 H   0  0  0  0  0  0  0  0  0  0  0  0
  1  2  1  0
  2  3  1  0
  3  4  1  0
  4  5  1  0
  5  6  1  0
  6  7  1  0
  7  8  1  0
  5  9  1  0
  9  2  1  0
  9  3  1  0
  7  5  1  0
  1 10  1  0
  2 11  1  0
  3 12  1  0
  6 13  1  0
  6 14  1  0
  7 15  1  0
  8 16  1  0
  9 17  1  0
M  END
