
     RDKit          3D

 18 20  0  0  0  0  0  0  0  0999 V2000
    1.6780    1.1061   -1.0180 O   0  0  0  0  0  0  0  0  0  0  0  0
    1.3817    0.4019    0.1245 C   0  0  0  0  0  0  0  0  0  0  0  0
    0.0803    0.7955    0.8155 C   0  0  0  0  0  0  0  0  0  0  0  0
   -0.9820    0.9844   -0.2299 C   0  0  0  0  0  0  0  0  0  0  0  0
   -1.6763   -0.3329   -0.3207 C   0  0  0  0  0  0  0  0  0  0  0  0
   -0.5898   -1.3133    0.1003 C   0  0  0  0  0  0  0  0  0  0  0  0
    0.8308   -0.9746   -0.0393 C   0  0  0  0  0  0  0  0  0  0  0  0
   -0.0001   -0.6422    1.2343 C   0  0  0  0  0  0  0  0  0  0  0  0
    2.6830    1.0893   -1.1106 H   0  0  0  0  0  0  0  0  0  0  0  0
    2.1889    0.4006    0.9073 H   0  0  0  0  0  0  0  0  0  0  0  0
    0.1561    1.5510    1.5852 H   0  0  0  0  0  0  0  0  0  0  0  0
   -1.6798    1.7941    0.0601 H   0  0  0  0  0  0  0  0  0  0  0  0
   -0.5301    1.2356   -1.2341 H   0  0  0  0  0  0  0  0  0  0  0  0
   -2.4424   -0.3588    0.5091 H   0  0  0  0  0  0  0  0  0  0  0  0
   -2.1148   -0.5641   -1.2841 H   0  0  0  0  0  0  0  0  0  0  0  0
   -0.8663   -2.3565    0.1715 H   0  0  0  0  0  0  0  0  0  0  0  0
    1.5507   -1.7917    0.0298 H   0  0  0  0  0  0  0  0  0  0  0  0
    0.3322   -1.0246    2.1686 H   0  0  0  0  0  0  0  0  0  0  0  0
  1  2  1  0
  2  3  1  0
  3  4  1  0
  4  5  1  0
  5  6  1  0
  6  7  1  0
  7  8  1  0
  7  2  1  0
  8  3  1  0
  8  6  1  0
  1  9  1  0
  2 10  1  0
  3 11  1  0
  4 12  1  0
  4 13  1  0
  5 14  1  0
  5 15  1  0
  6 16  1  0
  7 17  1  0
  8 18  1  0
M  END
