
     RDKit          3D

 21 22  0  0  0  0  0  0  0  0999 V2000
   -2.5340    1.4779   -0.3438 O   0  0  0  0  0  0  0  0  0  0  0  0
   -1.5471    0.6928    0.1867 C   0  0  0  0  0  0  0  0  0  0  0  0
   -1.8181   -0.7723    0.1356 C   0  0  0  0  0  0  0  0  0  0  0  0
   -0.4185   -1.3817    0.2697 C   0  0  0  0  0  0  0  0  0  0  0  0
    0.5548   -0.2661    0.0947 C   0  0  0  0  0  0  0  0  0  0  0  0
    1.8812   -0.5771   -0.4840 C   0  0  0  0  0  0  0  0  0  0  0  0
    2.2769    0.4855    0.5430 C   0  0  0  0  0  0  0  0  0  0  0  0
    1.0991    0.2664    1.2618 O   0  0  0  0  0  0  0  0  0  0  0  0
   -0.2651    0.7703   -0.6562 C   0  0  0  0  0  0  0  0  0  0  0  0
   -2.2570    2.4236   -0.2398 H   0  0  0  0  0  0  0  0  0  0  0  0
   -1.2949    0.9653    1.2481 H   0  0  0  0  0  0  0  0  0  0  0  0
   -2.5035   -1.1335    0.8992 H   0  0  0  0  0  0  0  0  0  0  0  0
   -2.1495   -1.0274   -0.8989 H   0  0  0  0  0  0  0  0  0  0  0  0
   -0.2850   -1.7840    1.3064 H   0  0  0  0  0  0  0  0  0  0  0  0
   -0.2391   -2.1590   -0.4989 H   0  0  0  0  0  0  0  0  0  0  0  0
    2.0579   -0.2511   -1.5345 H   0  0  0  0  0  0  0  0  0  0  0  0
    2.2828   -1.5672   -0.2158 H   0  0  0  0  0  0  0  0  0  0  0  0
    2.2963    1.5099    0.1712 H   0  0  0  0  0  0  0  0  0  0  0  0
    3.2087    0.2144    1.0463 H   0  0  0  0  0  0  0  0  0  0  0  0
    0.1732    1.7614   -0.6545 H   0  0  0  0  0  0  0  0  0  0  0  0
   -0.5190    0.3521   -1.6362 H   0  0  0  0  0  0  0  0  0  0  0  0
  1  2  1  0
  2  3  1  0
  3  4  1  0
  4  5  1  0
  5  6  1  0
  6  7  1  0
  7  8  1  0
  5  9  1  0
  9  2  1  0
  8  5  1  0
  1 10  1  0
  2 11  1  0
  3 12  1  0
  3 13  1  0
  4 14  1  0
  4 15  1  0
  6 16  1  0
  6 17  1  0
  7 18  1  0
  7 19  1  0
  9 20  1  0
  9 21  1  0
M  END
