
     RDKit          3D

 19 20  0  0  0  0  0  0  0  0999 V2000
   -0.4128    2.0751   -0.5048 O   0  0  0  0  0  0  0  0  0  0  0  0
    0.1569    0.8456   -0.8102 C   0  0  0  0  0  0  0  0  0  0  0  0
    1.4850    0.7946   -0.1332 C   0  0  0  0  0  0  0  0  0  0  0  0
    1.9185   -0.4132    0.2184 C   0  0  0  0  0  0  0  0  0  0  0  0
    1.1720   -1.6642   -0.0218 C   0  0  0  0  0  0  0  0  0  0  0  0
   -0.1320   -1.5008   -0.3841 O   0  0  0  0  0  0  0  0  0  0  0  0
   -0.6658   -0.2619   -0.2061 C   0  0  0  0  0  0  0  0  0  0  0  0
   -1.4534    0.1130    1.0018 C   0  0  0  0  0  0  0  0  0  0  0  0
   -2.1527   -0.1445   -0.2613 C   0  0  0  0  0  0  0  0  0  0  0  0
    0.1231    2.5904    0.1510 H   0  0  0  0  0  0  0  0  0  0  0  0
    0.2659    0.7369   -1.9234 H   0  0  0  0  0  0  0  0  0  0  0  0
    2.0628    1.6904    0.0606 H   0  0  0  0  0  0  0  0  0  0  0  0
    2.8845   -0.5127    0.7176 H   0  0  0  0  0  0  0  0  0  0  0  0
    1.6978   -2.2015   -0.8414 H   0  0  0  0  0  0  0  0  0  0  0  0
    1.2579   -2.2938    0.8937 H   0  0  0  0  0  0  0  0  0  0  0  0
   -1.4450    1.1729    1.3503 H   0  0  0  0  0  0  0  0  0  0  0  0
   -1.4283   -0.6538    1.8231 H   0  0  0  0  0  0  0  0  0  0  0  0
   -2.7217   -1.0828   -0.3324 H   0  0  0  0  0  0  0  0  0  0  0  0
   -2.6126    0.7101   -0.7977 H   0  0  0  0  0  0  0  0  0  0  0  0
  1  2  1  0
  2  3  1  0
  3  4  2  0
  4  5  1  0
  5  6  1  0
  6  7  1  0
  7  8  1  0
  8  9  1  0
  7  2  1  0
  9  7  1  0
  1 10  1  0
  2 11  1  0
  3 12  1  0
  4 13  1  0
  5 14  1  0
  5 15  1  0
  8 16  1  0
  8 17  1  0
  9 18  1  0
  9 19  1  0
M  END
