
     RDKit          3D

 16 17  0  0  0  0  0  0  0  0999 V2000
    1.7868    0.7070   -1.0412 O   0  0  0  0  0  0  0  0  0  0  0  0
    1.0623   -0.2917   -0.4373 C   0  0  0  0  0  0  0  0  0  0  0  0
   -0.4153   -0.3398   -0.8546 C   0  0  0  0  0  0  0  0  0  0  0  0
   -0.8973   -1.3428    0.1368 C   0  0  0  0  0  0  0  0  0  0  0  0
   -0.3215   -0.8355    1.3308 O   0  0  0  0  0  0  0  0  0  0  0  0
    0.4164    0.2174    0.8646 C   0  0  0  0  0  0  0  0  0  0  0  0
   -0.5158    0.9670   -0.1035 C   0  0  0  0  0  0  0  0  0  0  0  0
   -1.7254    1.2042    0.5197 O   0  0  0  0  0  0  0  0  0  0  0  0
    2.6438    0.7838   -0.5487 H   0  0  0  0  0  0  0  0  0  0  0  0
    1.4985   -1.2854   -0.3724 H   0  0  0  0  0  0  0  0  0  0  0  0
   -0.6458   -0.3927   -1.8755 H   0  0  0  0  0  0  0  0  0  0  0  0
   -0.3711   -2.3118   -0.1108 H   0  0  0  0  0  0  0  0  0  0  0  0
   -1.9758   -1.4501    0.2090 H   0  0  0  0  0  0  0  0  0  0  0  0
    1.0224    0.8059    1.5052 H   0  0  0  0  0  0  0  0  0  0  0  0
   -0.0469    1.8298   -0.5746 H   0  0  0  0  0  0  0  0  0  0  0  0
   -1.5152    1.7348    1.3524 H   0  0  0  0  0  0  0  0  0  0  0  0
  1  2  1  0
  2  3  1  0
  3  4  1  0
  4  5  1  0
  5  6  1  0
  6  7  1  0
  7  8  1  0
  6  2  1  0
  7  3  1  0
  1  9  1  0
  2 10  1  0
  3 11  1  0
  4 12  1  0
  4 13  1  0
  6 14  1  0
  7 15  1  0
  8 16  1  0
M  END
