
     RDKit          3D

 17 18  0  0  0  0  0  0  0  0999 V2000
    1.6030    1.5289    0.4712 O   0  0  0  0  0  0  0  0  0  0  0  0
    0.5614    1.0813   -0.3506 C   0  0  0  0  0  0  0  0  0  0  0  0
   -0.6806    1.0379    0.4730 C   0  0  0  0  0  0  0  0  0  0  0  0
   -1.7808    0.2895   -0.2421 C   0  0  0  0  0  0  0  0  0  0  0  0
   -1.4958   -1.0061   -0.1088 C   0  0  0  0  0  0  0  0  0  0  0  0
   -0.1251   -0.9972    0.4771 C   0  0  0  0  0  0  0  0  0  0  0  0
   -0.3120    0.0463    1.4190 O   0  0  0  0  0  0  0  0  0  0  0  0
    0.7952   -0.4105   -0.5674 C   0  0  0  0  0  0  0  0  0  0  0  0
    2.1155   -0.7059   -0.3766 O   0  0  0  0  0  0  0  0  0  0  0  0
    1.6515    0.8639    1.2172 H   0  0  0  0  0  0  0  0  0  0  0  0
    0.4838    1.6339   -1.2846 H   0  0  0  0  0  0  0  0  0  0  0  0
   -1.0036    1.9563    0.9186 H   0  0  0  0  0  0  0  0  0  0  0  0
   -2.6262    0.7315   -0.7561 H   0  0  0  0  0  0  0  0  0  0  0  0
   -2.1184   -1.8540   -0.3675 H   0  0  0  0  0  0  0  0  0  0  0  0
    0.1936   -1.9200    0.9119 H   0  0  0  0  0  0  0  0  0  0  0  0
    0.4123   -0.6330   -1.5813 H   0  0  0  0  0  0  0  0  0  0  0  0
    2.3262   -1.6430   -0.2528 H   0  0  0  0  0  0  0  0  0  0  0  0
  1  2  1  0
  2  3  1  0
  3  4  1  0
  4  5  2  0
  5  6  1  0
  6  7  1  0
  6  8  1  0
  8  9  1  0
  8  2  1  0
  7  3  1  0
  1 10  1  0
  2 11  1  0
  3 12  1  0
  4 13  1  0
  5 14  1  0
  6 15  1  0
  8 16  1  0
  9 17  1  0
M  END
