
     RDKit          3D

 19 20  0  0  0  0  0  0  0  0999 V2000
   -0.8298   -2.1869    0.7722 O   0  0  0  0  0  0  0  0  0  0  0  0
   -0.8356   -1.0598   -0.0420 C   0  0  0  0  0  0  0  0  0  0  0  0
   -2.1165   -0.3143    0.0609 C   0  0  0  0  0  0  0  0  0  0  0  0
   -1.8735    0.9782   -0.0555 C   0  0  0  0  0  0  0  0  0  0  0  0
   -0.4129    1.2230   -0.2464 C   0  0  0  0  0  0  0  0  0  0  0  0
    0.2018   -0.0681    0.2581 C   0  0  0  0  0  0  0  0  0  0  0  0
    1.5984   -0.3285   -0.2449 C   0  0  0  0  0  0  0  0  0  0  0  0
    1.8958    0.5240    0.9528 C   0  0  0  0  0  0  0  0  0  0  0  0
    0.7178    0.0140    1.5267 O   0  0  0  0  0  0  0  0  0  0  0  0
    0.0324   -2.4017    1.1589 H   0  0  0  0  0  0  0  0  0  0  0  0
   -0.7408   -1.4391   -1.0936 H   0  0  0  0  0  0  0  0  0  0  0  0
   -3.0997   -0.7526    0.2082 H   0  0  0  0  0  0  0  0  0  0  0  0
   -2.6096    1.7663   -0.0209 H   0  0  0  0  0  0  0  0  0  0  0  0
   -0.1524    2.0866    0.3928 H   0  0  0  0  0  0  0  0  0  0  0  0
   -0.1209    1.3671   -1.2805 H   0  0  0  0  0  0  0  0  0  0  0  0
    1.8027    0.1173   -1.2301 H   0  0  0  0  0  0  0  0  0  0  0  0
    1.8812   -1.3954   -0.1167 H   0  0  0  0  0  0  0  0  0  0  0  0
    1.8403    1.5901    0.7058 H   0  0  0  0  0  0  0  0  0  0  0  0
    2.8212    0.2799    1.5046 H   0  0  0  0  0  0  0  0  0  0  0  0
  1  2  1  0
  2  3  1  0
  3  4  2  0
  4  5  1  0
  5  6  1  0
  6  7  1  0
  7  8  1  0
  8  9  1  0
  6  2  1  0
  9  6  1  0
  1 10  1  0
  2 11  1  0
  3 12  1  0
  4 13  1  0
  5 14  1  0
  5 15  1  0
  7 16  1  0
  7 17  1  0
  8 18  1  0
  8 19  1  0
M  END
