
     RDKit          3D

 19 20  0  0  0  0  0  0  0  0999 V2000
   -1.7679   -0.7244   -0.8928 O   0  0  0  0  0  0  0  0  0  0  0  0
   -1.3920    0.1798    0.1296 C   0  0  0  0  0  0  0  0  0  0  0  0
   -0.7680   -0.4612    1.2956 C   0  0  0  0  0  0  0  0  0  0  0  0
    0.5888   -0.6557    1.2896 O   0  0  0  0  0  0  0  0  0  0  0  0
    1.0529   -0.8622    0.0394 C   0  0  0  0  0  0  0  0  0  0  0  0
    2.3364   -0.5058   -0.5294 C   0  0  0  0  0  0  0  0  0  0  0  0
    1.3833    0.5554   -0.4952 C   0  0  0  0  0  0  0  0  0  0  0  0
    0.3574    0.8332   -1.3540 O   0  0  0  0  0  0  0  0  0  0  0  0
   -0.6852    1.3070   -0.5157 C   0  0  0  0  0  0  0  0  0  0  0  0
   -2.5821   -1.2086   -0.5980 H   0  0  0  0  0  0  0  0  0  0  0  0
   -2.3932    0.5851    0.4757 H   0  0  0  0  0  0  0  0  0  0  0  0
   -1.2356   -1.4832    1.4203 H   0  0  0  0  0  0  0  0  0  0  0  0
   -1.0835    0.0793    2.2363 H   0  0  0  0  0  0  0  0  0  0  0  0
    0.3989   -1.5118   -0.5760 H   0  0  0  0  0  0  0  0  0  0  0  0
    3.2150   -0.4527    0.1440 H   0  0  0  0  0  0  0  0  0  0  0  0
    2.6116   -0.9473   -1.5111 H   0  0  0  0  0  0  0  0  0  0  0  0
    1.5436    1.3675    0.2549 H   0  0  0  0  0  0  0  0  0  0  0  0
   -1.3507    1.9456   -1.0928 H   0  0  0  0  0  0  0  0  0  0  0  0
   -0.2298    1.9601    0.2796 H   0  0  0  0  0  0  0  0  0  0  0  0
  1  2  1  0
  2  3  1  0
  3  4  1  0
  4  5  1  0
  5  6  1  0
  6  7  1  0
  7  8  1  0
  8  9  1  0
  9  2  1  0
  7  5  1  0
  1 10  1  0
  2 11  1  0
  3 12  1  0
  3 13  1  0
  5 14  1  0
  6 15  1  0
  6 16  1  0
  7 17  1  0
  9 18  1  0
  9 19  1  0
M  END
