
     RDKit          3D

 21 23  0  0  0  0  0  0  0  0999 V2000
    2.3997   -1.3944    0.7292 O   0  0  0  0  0  0  0  0  0  0  0  0
    1.2996   -0.5258    0.6034 C   0  0  0  0  0  0  0  0  0  0  0  0
    1.4289    0.2365   -0.6835 C   0  0  0  0  0  0  0  0  0  0  0  0
    0.0711    0.4232   -1.2510 C   0  0  0  0  0  0  0  0  0  0  0  0
   -0.7046   -0.7556   -0.7410 C   0  0  0  0  0  0  0  0  0  0  0  0
    0.0163   -1.2889    0.4553 C   0  0  0  0  0  0  0  0  0  0  0  0
   -1.8409    0.1931   -0.4710 C   0  0  0  0  0  0  0  0  0  0  0  0
   -1.5978    1.1927    0.6024 C   0  0  0  0  0  0  0  0  0  0  0  0
   -0.8440    1.3930   -0.6278 C   0  0  0  0  0  0  0  0  0  0  0  0
    3.2041   -0.8365    0.8069 H   0  0  0  0  0  0  0  0  0  0  0  0
    1.3223    0.1318    1.4983 H   0  0  0  0  0  0  0  0  0  0  0  0
    2.0256    1.1571   -0.5821 H   0  0  0  0  0  0  0  0  0  0  0  0
    1.9941   -0.4365   -1.3946 H   0  0  0  0  0  0  0  0  0  0  0  0
    0.0617    0.4316   -2.3693 H   0  0  0  0  0  0  0  0  0  0  0  0
   -1.0024   -1.5034   -1.5022 H   0  0  0  0  0  0  0  0  0  0  0  0
   -0.6268   -1.2434    1.3481 H   0  0  0  0  0  0  0  0  0  0  0  0
    0.2849   -2.3546    0.2397 H   0  0  0  0  0  0  0  0  0  0  0  0
   -2.7152    0.2379   -1.1127 H   0  0  0  0  0  0  0  0  0  0  0  0
   -1.1043    0.8811    1.5610 H   0  0  0  0  0  0  0  0  0  0  0  0
   -2.4689    1.8529    0.7954 H   0  0  0  0  0  0  0  0  0  0  0  0
   -1.2034    2.2083   -1.3136 H   0  0  0  0  0  0  0  0  0  0  0  0
  1  2  1  0
  2  3  1  0
  3  4  1  0
  4  5  1  0
  5  6  1  0
  5  7  1  0
  7  8  1  0
  8  9  1  0
  6  2  1  0
  9  7  1  0
  9  4  1  0
  1 10  1  0
  2 11  1  0
  3 12  1  0
  3 13  1  0
  4 14  1  0
  5 15  1  0
  6 16  1  0
  6 17  1  0
  7 18  1  0
  8 19  1  0
  8 20  1  0
  9 21  1  0
M  END
