
     RDKit          3D

 21 22  0  0  0  0  0  0  0  0999 V2000
    2.7616   -0.2610    0.0024 O   0  0  0  0  0  0  0  0  0  0  0  0
    1.4086   -0.4413   -0.3694 C   0  0  0  0  0  0  0  0  0  0  0  0
    0.7999   -1.3584    0.6410 C   0  0  0  0  0  0  0  0  0  0  0  0
   -0.1317   -0.6672    1.3718 O   0  0  0  0  0  0  0  0  0  0  0  0
   -1.3241   -0.4390    0.7405 C   0  0  0  0  0  0  0  0  0  0  0  0
   -1.2552   -0.4650   -0.7571 C   0  0  0  0  0  0  0  0  0  0  0  0
   -0.6645    0.9460   -0.6743 C   0  0  0  0  0  0  0  0  0  0  0  0
    0.7950    0.9325   -0.3916 C   0  0  0  0  0  0  0  0  0  0  0  0
   -1.4660    1.0873    0.6276 C   0  0  0  0  0  0  0  0  0  0  0  0
    3.0411    0.6687   -0.0505 H   0  0  0  0  0  0  0  0  0  0  0  0
    1.4159   -0.9188   -1.3700 H   0  0  0  0  0  0  0  0  0  0  0  0
    0.3734   -2.2972    0.1785 H   0  0  0  0  0  0  0  0  0  0  0  0
    1.5569   -1.7589    1.3799 H   0  0  0  0  0  0  0  0  0  0  0  0
   -2.2033   -0.9397    1.1798 H   0  0  0  0  0  0  0  0  0  0  0  0
   -0.6167   -1.2012   -1.2285 H   0  0  0  0  0  0  0  0  0  0  0  0
   -2.2871   -0.4125   -1.1790 H   0  0  0  0  0  0  0  0  0  0  0  0
   -1.0447    1.6384   -1.4282 H   0  0  0  0  0  0  0  0  0  0  0  0
    1.3319    1.5125   -1.1763 H   0  0  0  0  0  0  0  0  0  0  0  0
    0.9677    1.3757    0.6197 H   0  0  0  0  0  0  0  0  0  0  0  0
   -0.9357    1.6511    1.4004 H   0  0  0  0  0  0  0  0  0  0  0  0
   -2.5230    1.3482    0.4836 H   0  0  0  0  0  0  0  0  0  0  0  0
  1  2  1  0
  2  3  1  0
  3  4  1  0
  4  5  1  0
  5  6  1  0
  6  7  1  0
  7  8  1  0
  7  9  1  0
  8  2  1  0
  9  5  1  0
  1 10  1  0
  2 11  1  0
  3 12  1  0
  3 13  1  0
  5 14  1  0
  6 15  1  0
  6 16  1  0
  7 17  1  0
  8 18  1  0
  8 19  1  0
  9 20  1  0
  9 21  1  0
M  END
