
     RDKit          3D

 23 24  0  0  0  0  0  0  0  0999 V2000
    3.2279   -0.2443    0.8552 O   0  0  0  0  0  0  0  0  0  0  0  0
    2.3211   -0.0500   -0.1776 C   0  0  0  0  0  0  0  0  0  0  0  0
    1.1824    0.8642    0.2971 C   0  0  0  0  0  0  0  0  0  0  0  0
    0.5216   -0.3510    0.8558 C   0  0  0  0  0  0  0  0  0  0  0  0
   -0.9640   -0.4166    0.7934 C   0  0  0  0  0  0  0  0  0  0  0  0
   -1.6058   -0.3617   -0.5576 C   0  0  0  0  0  0  0  0  0  0  0  0
   -2.6886    0.5130    0.0958 C   0  0  0  0  0  0  0  0  0  0  0  0
   -1.5640    0.9575    1.0416 C   0  0  0  0  0  0  0  0  0  0  0  0
    1.2680   -1.1694   -0.1887 C   0  0  0  0  0  0  0  0  0  0  0  0
    3.9723   -0.8136    0.5939 H   0  0  0  0  0  0  0  0  0  0  0  0
    2.7313    0.2003   -1.1586 H   0  0  0  0  0  0  0  0  0  0  0  0
    0.6870    1.3407   -0.5676 H   0  0  0  0  0  0  0  0  0  0  0  0
    1.5050    1.5609    1.0785 H   0  0  0  0  0  0  0  0  0  0  0  0
    0.9125   -0.6178    1.8532 H   0  0  0  0  0  0  0  0  0  0  0  0
   -1.4327   -1.1704    1.4265 H   0  0  0  0  0  0  0  0  0  0  0  0
   -1.9816   -1.3393   -0.8999 H   0  0  0  0  0  0  0  0  0  0  0  0
   -1.1009    0.2614   -1.3227 H   0  0  0  0  0  0  0  0  0  0  0  0
   -3.0903    1.2965   -0.5408 H   0  0  0  0  0  0  0  0  0  0  0  0
   -3.4386   -0.0814    0.6656 H   0  0  0  0  0  0  0  0  0  0  0  0
   -1.8888    1.1432    2.0723 H   0  0  0  0  0  0  0  0  0  0  0  0
   -0.9472    1.7532    0.5789 H   0  0  0  0  0  0  0  0  0  0  0  0
    1.6518   -2.1326    0.1554 H   0  0  0  0  0  0  0  0  0  0  0  0
    0.7218   -1.1427   -1.1314 H   0  0  0  0  0  0  0  0  0  0  0  0
  1  2  1  0
  2  3  1  0
  3  4  1  0
  4  5  1  0
  5  6  1  0
  6  7  1  0
  7  8  1  0
  4  9  1  0
  9  2  1  0
  8  5  1  0
  1 10  1  0
  2 11  1  0
  3 12  1  0
  3 13  1  0
  4 14  1  0
  5 15  1  0
  6 16  1  0
  6 17  1  0
  7 18  1  0
  7 19  1  0
  8 20  1  0
  8 21  1  0
  9 22  1  0
  9 23  1  0
M  END
