
     RDKit          3D

 16 17  0  0  0  0  0  0  0  0999 V2000
    2.3872    0.4609   -0.6074 O   0  0  0  0  0  0  0  0  0  0  0  0
    1.0605    0.6486   -0.2074 C   0  0  0  0  0  0  0  0  0  0  0  0
    0.7383    0.1958    1.1872 C   0  0  0  0  0  0  0  0  0  0  0  0
   -0.1738   -0.8628    0.6079 C   0  0  0  0  0  0  0  0  0  0  0  0
   -1.5057   -0.6157    0.8148 O   0  0  0  0  0  0  0  0  0  0  0  0
   -1.9890    0.1149   -0.2456 C   0  0  0  0  0  0  0  0  0  0  0  0
   -1.0739    0.0783   -1.2634 O   0  0  0  0  0  0  0  0  0  0  0  0
    0.1235   -0.3886   -0.7808 C   0  0  0  0  0  0  0  0  0  0  0  0
    2.3621    0.3020   -1.5785 H   0  0  0  0  0  0  0  0  0  0  0  0
    0.7183    1.6915   -0.4235 H   0  0  0  0  0  0  0  0  0  0  0  0
    0.1765    0.9650    1.7671 H   0  0  0  0  0  0  0  0  0  0  0  0
    1.5553   -0.2596    1.7621 H   0  0  0  0  0  0  0  0  0  0  0  0
    0.0973   -1.9045    0.8458 H   0  0  0  0  0  0  0  0  0  0  0  0
   -2.9201   -0.3953   -0.6029 H   0  0  0  0  0  0  0  0  0  0  0  0
   -2.1918    1.1405    0.1110 H   0  0  0  0  0  0  0  0  0  0  0  0
    0.6352   -1.1710   -1.3864 H   0  0  0  0  0  0  0  0  0  0  0  0
  1  2  1  0
  2  3  1  0
  3  4  1  0
  4  5  1  0
  5  6  1  0
  6  7  1  0
  7  8  1  0
  8  2  1  0
  8  4  1  0
  1  9  1  0
  2 10  1  0
  3 11  1  0
  3 12  1  0
  4 13  1  0
  6 14  1  0
  6 15  1  0
  8 16  1  0
M  END
