
     RDKit          3D

 19 20  0  0  0  0  0  0  0  0999 V2000
   -3.0021   -0.6481    0.8540 O   0  0  0  0  0  0  0  0  0  0  0  0
   -1.9512    0.1707    0.4301 C   0  0  0  0  0  0  0  0  0  0  0  0
   -1.7659    0.2288   -1.0831 C   0  0  0  0  0  0  0  0  0  0  0  0
   -0.7645   -0.4548   -0.1408 C   0  0  0  0  0  0  0  0  0  0  0  0
    0.5834    0.1814   -0.0958 C   0  0  0  0  0  0  0  0  0  0  0  0
    1.6221   -0.7030   -0.7690 C   0  0  0  0  0  0  0  0  0  0  0  0
    2.7852   -0.3402   -0.1181 O   0  0  0  0  0  0  0  0  0  0  0  0
    2.4519    0.5531    0.8856 C   0  0  0  0  0  0  0  0  0  0  0  0
    1.1161    0.2222    1.2136 O   0  0  0  0  0  0  0  0  0  0  0  0
   -3.6991   -0.6493    0.1261 H   0  0  0  0  0  0  0  0  0  0  0  0
   -1.9277    1.1494    0.9595 H   0  0  0  0  0  0  0  0  0  0  0  0
   -2.3507   -0.4608   -1.7106 H   0  0  0  0  0  0  0  0  0  0  0  0
   -1.5106    1.2163   -1.4917 H   0  0  0  0  0  0  0  0  0  0  0  0
   -0.7339   -1.5734   -0.1813 H   0  0  0  0  0  0  0  0  0  0  0  0
    0.6288    1.2084   -0.4724 H   0  0  0  0  0  0  0  0  0  0  0  0
    1.4077   -1.7624   -0.6060 H   0  0  0  0  0  0  0  0  0  0  0  0
    1.6139   -0.4269   -1.8460 H   0  0  0  0  0  0  0  0  0  0  0  0
    2.3808    1.5874    0.4479 H   0  0  0  0  0  0  0  0  0  0  0  0
    3.1158    0.5013    1.7511 H   0  0  0  0  0  0  0  0  0  0  0  0
  1  2  1  0
  2  3  1  0
  3  4  1  0
  4  5  1  0
  5  6  1  0
  6  7  1  0
  7  8  1  0
  8  9  1  0
  4  2  1  0
  9  5  1  0
  1 10  1  0
  2 11  1  0
  3 12  1  0
  3 13  1  0
  4 14  1  0
  5 15  1  0
  6 16  1  0
  6 17  1  0
  8 18  1  0
  8 19  1  0
M  END
