
     RDKit          3D

 16 17  0  0  0  0  0  0  0  0999 V2000
    2.4534   -0.6051    0.2262 O   0  0  0  0  0  0  0  0  0  0  0  0
    1.3563    0.2043    0.3884 C   0  0  0  0  0  0  0  0  0  0  0  0
    0.3349   -0.2056    1.3918 C   0  0  0  0  0  0  0  0  0  0  0  0
   -0.7596   -0.2275    0.3894 C   0  0  0  0  0  0  0  0  0  0  0  0
   -1.5029   -1.3772    0.3255 O   0  0  0  0  0  0  0  0  0  0  0  0
   -0.8732    0.8516   -0.6110 C   0  0  0  0  0  0  0  0  0  0  0  0
   -1.7519    0.7177   -1.6760 O   0  0  0  0  0  0  0  0  0  0  0  0
    0.3374   -0.0192   -0.7005 C   0  0  0  0  0  0  0  0  0  0  0  0
    2.9589   -0.2565   -0.5646 H   0  0  0  0  0  0  0  0  0  0  0  0
    1.6467    1.2914    0.4199 H   0  0  0  0  0  0  0  0  0  0  0  0
    0.1709    0.4868    2.2481 H   0  0  0  0  0  0  0  0  0  0  0  0
    0.5995   -1.2068    1.8179 H   0  0  0  0  0  0  0  0  0  0  0  0
   -1.9782   -1.5255   -0.5148 H   0  0  0  0  0  0  0  0  0  0  0  0
   -0.7146    1.9129   -0.3061 H   0  0  0  0  0  0  0  0  0  0  0  0
   -2.6906    0.8148   -1.4441 H   0  0  0  0  0  0  0  0  0  0  0  0
    0.4129   -0.8561   -1.3901 H   0  0  0  0  0  0  0  0  0  0  0  0
  1  2  1  0
  2  3  1  0
  3  4  1  0
  4  5  1  0
  4  6  1  0
  6  7  1  0
  6  8  1  0
  8  2  1  0
  8  4  1  0
  1  9  1  0
  2 10  1  0
  3 11  1  0
  3 12  1  0
  5 13  1  0
  6 14  1  0
  7 15  1  0
  8 16  1  0
M  END
