
     RDKit          3D

 14 16  0  0  0  0  0  0  0  0999 V2000
    2.0714    0.1154   -0.3745 O   0  0  0  0  0  0  0  0  0  0  0  0
    0.7660    0.2752   -0.7691 C   0  0  0  0  0  0  0  0  0  0  0  0
    0.0171    1.2883    0.1066 C   0  0  0  0  0  0  0  0  0  0  0  0
    0.0501    0.6678    1.3252 O   0  0  0  0  0  0  0  0  0  0  0  0
   -0.4771   -0.6087    1.0116 C   0  0  0  0  0  0  0  0  0  0  0  0
   -1.3924   -0.3305   -0.0879 C   0  0  0  0  0  0  0  0  0  0  0  0
   -1.2839    1.0619   -0.3200 O   0  0  0  0  0  0  0  0  0  0  0  0
   -0.0897   -0.9358   -0.3646 C   0  0  0  0  0  0  0  0  0  0  0  0
    2.1190   -0.2275    0.5441 H   0  0  0  0  0  0  0  0  0  0  0  0
    0.6686    0.4981   -1.8340 H   0  0  0  0  0  0  0  0  0  0  0  0
    0.3799    2.2854    0.0344 H   0  0  0  0  0  0  0  0  0  0  0  0
   -0.6226   -1.3375    1.8018 H   0  0  0  0  0  0  0  0  0  0  0  0
   -2.3135   -0.8465   -0.3080 H   0  0  0  0  0  0  0  0  0  0  0  0
    0.1071   -1.9056   -0.7658 H   0  0  0  0  0  0  0  0  0  0  0  0
  1  2  1  0
  2  3  1  0
  3  4  1  0
  4  5  1  0
  5  6  1  0
  6  7  1  0
  6  8  1  0
  8  2  1  0
  7  3  1  0
  8  5  1  0
  1  9  1  0
  2 10  1  0
  3 11  1  0
  5 12  1  0
  6 13  1  0
  8 14  1  0
M  END
