
     RDKit          3D

 19 20  0  0  0  0  0  0  0  0999 V2000
   -2.6844    0.0341   -0.5315 O   0  0  0  0  0  0  0  0  0  0  0  0
   -1.3070    0.0608   -0.6339 C   0  0  0  0  0  0  0  0  0  0  0  0
   -0.8223    1.2385    0.2137 C   0  0  0  0  0  0  0  0  0  0  0  0
    0.6634    0.9272    0.3892 C   0  0  0  0  0  0  0  0  0  0  0  0
    1.3856    1.3679   -0.7065 O   0  0  0  0  0  0  0  0  0  0  0  0
    0.6849   -0.5486    0.5665 C   0  0  0  0  0  0  0  0  0  0  0  0
    1.8254   -1.3870    0.4861 C   0  0  0  0  0  0  0  0  0  0  0  0
    1.2318   -0.9980    1.7540 O   0  0  0  0  0  0  0  0  0  0  0  0
   -0.6605   -1.0875    0.1275 C   0  0  0  0  0  0  0  0  0  0  0  0
   -3.0618    0.9390   -0.3371 H   0  0  0  0  0  0  0  0  0  0  0  0
   -0.9746    0.1281   -1.6728 H   0  0  0  0  0  0  0  0  0  0  0  0
   -1.3294    1.1233    1.1992 H   0  0  0  0  0  0  0  0  0  0  0  0
   -0.9977    2.2001   -0.2705 H   0  0  0  0  0  0  0  0  0  0  0  0
    0.9706    1.4766    1.3259 H   0  0  0  0  0  0  0  0  0  0  0  0
    2.3524    1.2804   -0.4660 H   0  0  0  0  0  0  0  0  0  0  0  0
    2.8865   -1.0727    0.3936 H   0  0  0  0  0  0  0  0  0  0  0  0
    1.6927   -2.4796    0.3510 H   0  0  0  0  0  0  0  0  0  0  0  0
   -1.2700   -1.1990    1.0686 H   0  0  0  0  0  0  0  0  0  0  0  0
   -0.5856   -2.0036   -0.4515 H   0  0  0  0  0  0  0  0  0  0  0  0
  1  2  1  0
  2  3  1  0
  3  4  1  0
  4  5  1  0
  4  6  1  0
  6  7  1  0
  7  8  1  0
  6  9  1  0
  9  2  1  0
  8  6  1  0
  1 10  1  0
  2 11  1  0
  3 12  1  0
  3 13  1  0
  4 14  1  0
  5 15  1  0
  7 16  1  0
  7 17  1  0
  9 18  1  0
  9 19  1  0
M  END
