
     RDKit          3D

 19 20  0  0  0  0  0  0  0  0999 V2000
    3.3323    0.3384    0.4754 O   0  0  0  0  0  0  0  0  0  0  0  0
    2.1597   -0.3865    0.5133 C   0  0  0  0  0  0  0  0  0  0  0  0
    1.8915   -1.2000   -0.7373 C   0  0  0  0  0  0  0  0  0  0  0  0
    1.0111   -0.0669   -0.3647 C   0  0  0  0  0  0  0  0  0  0  0  0
   -0.2710   -0.3972    0.0165 O   0  0  0  0  0  0  0  0  0  0  0  0
   -1.1633    0.5337   -0.4311 C   0  0  0  0  0  0  0  0  0  0  0  0
   -2.2020    1.0134    0.5572 C   0  0  0  0  0  0  0  0  0  0  0  0
   -3.0911    1.1203   -0.5385 O   0  0  0  0  0  0  0  0  0  0  0  0
   -2.4241    0.0058   -1.0702 C   0  0  0  0  0  0  0  0  0  0  0  0
    4.0612   -0.2862    0.7810 H   0  0  0  0  0  0  0  0  0  0  0  0
    1.9399   -0.8313    1.5022 H   0  0  0  0  0  0  0  0  0  0  0  0
    2.5264   -1.0801   -1.6206 H   0  0  0  0  0  0  0  0  0  0  0  0
    1.6176   -2.2493   -0.5258 H   0  0  0  0  0  0  0  0  0  0  0  0
    1.1196    0.8698   -0.9551 H   0  0  0  0  0  0  0  0  0  0  0  0
   -0.7759    1.3846   -1.0075 H   0  0  0  0  0  0  0  0  0  0  0  0
   -1.9758    1.9729    1.0430 H   0  0  0  0  0  0  0  0  0  0  0  0
   -2.5489    0.2219    1.2499 H   0  0  0  0  0  0  0  0  0  0  0  0
   -2.4318   -0.0355   -2.1707 H   0  0  0  0  0  0  0  0  0  0  0  0
   -2.7754   -0.9278   -0.5641 H   0  0  0  0  0  0  0  0  0  0  0  0
  1  2  1  0
  2  3  1  0
  3  4  1  0
  4  5  1  0
  5  6  1  0
  6  7  1  0
  7  8  1  0
  8  9  1  0
  4  2  1  0
  9  6  1  0
  1 10  1  0
  2 11  1  0
  3 12  1  0
  3 13  1  0
  4 14  1  0
  6 15  1  0
  7 16  1  0
  7 17  1  0
  9 18  1  0
  9 19  1  0
M  END
