
     RDKit          3D

 19 20  0  0  0  0  0  0  0  0999 V2000
    2.0862    1.1980    0.7640 O   0  0  0  0  0  0  0  0  0  0  0  0
    1.1026    0.5941    0.0272 C   0  0  0  0  0  0  0  0  0  0  0  0
   -0.1779    1.4370   -0.0452 C   0  0  0  0  0  0  0  0  0  0  0  0
   -1.2027    0.5620   -0.7240 C   0  0  0  0  0  0  0  0  0  0  0  0
   -1.8027   -0.4667    0.1802 C   0  0  0  0  0  0  0  0  0  0  0  0
   -0.5352   -1.1973   -0.2171 C   0  0  0  0  0  0  0  0  0  0  0  0
   -0.5900   -0.4975   -1.4320 O   0  0  0  0  0  0  0  0  0  0  0  0
    0.6230   -0.7208    0.6452 C   0  0  0  0  0  0  0  0  0  0  0  0
    1.6454   -1.6405    0.6178 O   0  0  0  0  0  0  0  0  0  0  0  0
    2.9577    1.0240    0.2833 H   0  0  0  0  0  0  0  0  0  0  0  0
    1.3973    0.3996   -1.0309 H   0  0  0  0  0  0  0  0  0  0  0  0
    0.0445    2.2732   -0.7160 H   0  0  0  0  0  0  0  0  0  0  0  0
   -0.4899    1.7463    0.9701 H   0  0  0  0  0  0  0  0  0  0  0  0
   -1.9386    1.1014   -1.3435 H   0  0  0  0  0  0  0  0  0  0  0  0
   -2.7020   -0.9106   -0.2860 H   0  0  0  0  0  0  0  0  0  0  0  0
   -1.9085   -0.2268    1.2349 H   0  0  0  0  0  0  0  0  0  0  0  0
   -0.6087   -2.2863   -0.2924 H   0  0  0  0  0  0  0  0  0  0  0  0
    0.2829   -0.5030    1.6785 H   0  0  0  0  0  0  0  0  0  0  0  0
    1.8164   -1.8862   -0.3143 H   0  0  0  0  0  0  0  0  0  0  0  0
  1  2  1  0
  2  3  1  0
  3  4  1  0
  4  5  1  0
  5  6  1  0
  6  7  1  0
  6  8  1  0
  8  9  1  0
  8  2  1  0
  7  4  1  0
  1 10  1  0
  2 11  1  0
  3 12  1  0
  3 13  1  0
  4 14  1  0
  5 15  1  0
  5 16  1  0
  6 17  1  0
  8 18  1  0
  9 19  1  0
M  END
