
     RDKit          3D

 20 20  0  0  0  0  0  0  0  0999 V2000
    2.6198    0.6613   -0.3524 O   0  0  0  0  0  0  0  0  0  0  0  0
    1.3562    0.4140    0.1989 C   0  0  0  0  0  0  0  0  0  0  0  0
    0.3908    1.3306   -0.5468 C   0  0  0  0  0  0  0  0  0  0  0  0
   -0.9209    1.1749    0.1845 C   0  0  0  0  0  0  0  0  0  0  0  0
   -1.4070   -0.2185    0.2621 C   0  0  0  0  0  0  0  0  0  0  0  0
   -2.5415   -0.3240   -0.5797 O   0  0  0  0  0  0  0  0  0  0  0  0
   -0.4710   -1.2967   -0.0840 C   0  0  0  0  0  0  0  0  0  0  0  0
    0.9759   -1.0161   -0.0181 C   0  0  0  0  0  0  0  0  0  0  0  0
    3.3246    0.0989    0.0266 H   0  0  0  0  0  0  0  0  0  0  0  0
    1.3650    0.6302    1.2847 H   0  0  0  0  0  0  0  0  0  0  0  0
    0.3306    1.0037   -1.5827 H   0  0  0  0  0  0  0  0  0  0  0  0
    0.7307    2.3642   -0.3920 H   0  0  0  0  0  0  0  0  0  0  0  0
   -1.6681    1.8538   -0.2802 H   0  0  0  0  0  0  0  0  0  0  0  0
   -0.7472    1.6094    1.2140 H   0  0  0  0  0  0  0  0  0  0  0  0
   -1.8381   -0.3664    1.2976 H   0  0  0  0  0  0  0  0  0  0  0  0
   -3.1218   -1.0791   -0.2992 H   0  0  0  0  0  0  0  0  0  0  0  0
   -0.6849   -2.1737    0.5993 H   0  0  0  0  0  0  0  0  0  0  0  0
   -0.7009   -1.7124   -1.1105 H   0  0  0  0  0  0  0  0  0  0  0  0
    1.4898   -1.6116    0.7943 H   0  0  0  0  0  0  0  0  0  0  0  0
    1.5180   -1.3424   -0.9556 H   0  0  0  0  0  0  0  0  0  0  0  0
  1  2  1  0
  2  3  1  0
  3  4  1  0
  4  5  1  0
  5  6  1  0
  5  7  1  0
  7  8  1  0
  8  2  1  0
  1  9  1  0
  2 10  1  0
  3 11  1  0
  3 12  1  0
  4 13  1  0
  4 14  1  0
  5 15  1  0
  6 16  1  0
  7 17  1  0
  7 18  1  0
  8 19  1  0
  8 20  1  0
M  END
