
     RDKit          3D

 17 19  0  0  0  0  0  0  0  0999 V2000
    2.2988   -0.3770   -0.8630 O   0  0  0  0  0  0  0  0  0  0  0  0
    1.2278    0.2341   -0.2279 C   0  0  0  0  0  0  0  0  0  0  0  0
   -0.1163    0.0267   -0.9011 C   0  0  0  0  0  0  0  0  0  0  0  0
   -1.1356    0.9695   -0.2634 C   0  0  0  0  0  0  0  0  0  0  0  0
   -1.3681    0.2455    1.0466 C   0  0  0  0  0  0  0  0  0  0  0  0
   -0.1755    0.1640    1.7252 O   0  0  0  0  0  0  0  0  0  0  0  0
    0.6648   -0.5925    0.9343 C   0  0  0  0  0  0  0  0  0  0  0  0
   -0.2760   -1.2049   -0.0791 C   0  0  0  0  0  0  0  0  0  0  0  0
   -1.5049   -1.0830    0.5751 O   0  0  0  0  0  0  0  0  0  0  0  0
    2.6779    0.2421   -1.5054 H   0  0  0  0  0  0  0  0  0  0  0  0
    1.4178    1.2962    0.0262 H   0  0  0  0  0  0  0  0  0  0  0  0
   -0.1283   -0.0427   -1.9743 H   0  0  0  0  0  0  0  0  0  0  0  0
   -0.6494    1.9443   -0.1432 H   0  0  0  0  0  0  0  0  0  0  0  0
   -2.0553    1.0149   -0.8805 H   0  0  0  0  0  0  0  0  0  0  0  0
   -2.2200    0.5892    1.6086 H   0  0  0  0  0  0  0  0  0  0  0  0
    1.3620   -1.2652    1.4136 H   0  0  0  0  0  0  0  0  0  0  0  0
   -0.0197   -2.1610   -0.4918 H   0  0  0  0  0  0  0  0  0  0  0  0
  1  2  1  0
  2  3  1  0
  3  4  1  0
  4  5  1  0
  5  6  1  0
  6  7  1  0
  7  8  1  0
  8  9  1  0
  7  2  1  0
  8  3  1  0
  9  5  1  0
  1 10  1  0
  2 11  1  0
  3 12  1  0
  4 13  1  0
  4 14  1  0
  5 15  1  0
  7 16  1  0
  8 17  1  0
M  END
