
     RDKit          3D

 21 22  0  0  0  0  0  0  0  0999 V2000
   -0.5464    1.9349   -0.1970 O   0  0  0  0  0  0  0  0  0  0  0  0
   -0.6964    0.6021   -0.5457 C   0  0  0  0  0  0  0  0  0  0  0  0
   -2.0319    0.0486   -0.1442 C   0  0  0  0  0  0  0  0  0  0  0  0
   -1.7080   -1.1240    0.7253 C   0  0  0  0  0  0  0  0  0  0  0  0
   -0.3599   -1.3693    0.6512 O   0  0  0  0  0  0  0  0  0  0  0  0
    0.2828   -0.3102    0.1110 C   0  0  0  0  0  0  0  0  0  0  0  0
    1.3785   -0.7836   -0.8559 C   0  0  0  0  0  0  0  0  0  0  0  0
    2.1199    0.4985   -0.4456 C   0  0  0  0  0  0  0  0  0  0  0  0
    1.3889    0.3307    0.8957 C   0  0  0  0  0  0  0  0  0  0  0  0
   -0.7693    2.0569    0.7593 H   0  0  0  0  0  0  0  0  0  0  0  0
   -0.6033    0.5135   -1.6548 H   0  0  0  0  0  0  0  0  0  0  0  0
   -2.6512   -0.2390   -1.0317 H   0  0  0  0  0  0  0  0  0  0  0  0
   -2.6486    0.7646    0.4287 H   0  0  0  0  0  0  0  0  0  0  0  0
   -1.9632   -0.9540    1.7989 H   0  0  0  0  0  0  0  0  0  0  0  0
   -2.2594   -2.0415    0.4150 H   0  0  0  0  0  0  0  0  0  0  0  0
    1.1166   -0.7360   -1.9089 H   0  0  0  0  0  0  0  0  0  0  0  0
    1.8823   -1.6894   -0.4834 H   0  0  0  0  0  0  0  0  0  0  0  0
    1.7844    1.3862   -0.9940 H   0  0  0  0  0  0  0  0  0  0  0  0
    3.1883    0.2817   -0.4108 H   0  0  0  0  0  0  0  0  0  0  0  0
    1.1617    1.2690    1.4093 H   0  0  0  0  0  0  0  0  0  0  0  0
    1.9342   -0.4398    1.4777 H   0  0  0  0  0  0  0  0  0  0  0  0
  1  2  1  0
  2  3  1  0
  3  4  1  0
  4  5  1  0
  5  6  1  0
  6  7  1  0
  7  8  1  0
  8  9  1  0
  6  2  1  0
  9  6  1  0
  1 10  1  0
  2 11  1  0
  3 12  1  0
  3 13  1  0
  4 14  1  0
  4 15  1  0
  7 16  1  0
  7 17  1  0
  8 18  1  0
  8 19  1  0
  9 20  1  0
  9 21  1  0
M  END
