
     RDKit          3D

 18 19  0  0  0  0  0  0  0  0999 V2000
   -1.3749    1.7060   -0.9700 O   0  0  0  0  0  0  0  0  0  0  0  0
   -0.6924    0.9442   -0.0539 C   0  0  0  0  0  0  0  0  0  0  0  0
   -1.2881   -0.4629    0.0910 C   0  0  0  0  0  0  0  0  0  0  0  0
   -0.0325   -1.2992    0.1220 C   0  0  0  0  0  0  0  0  0  0  0  0
    0.8176   -0.8338    1.2393 C   0  0  0  0  0  0  0  0  0  0  0  0
    1.4294    0.3192    0.8877 C   0  0  0  0  0  0  0  0  0  0  0  0
    0.7565    0.7344   -0.3751 C   0  0  0  0  0  0  0  0  0  0  0  0
    0.6934   -0.6401   -1.0674 C   0  0  0  0  0  0  0  0  0  0  0  0
   -1.8343    2.4312   -0.4700 H   0  0  0  0  0  0  0  0  0  0  0  0
   -0.7417    1.3757    0.9845 H   0  0  0  0  0  0  0  0  0  0  0  0
   -1.9201   -0.5620    0.9674 H   0  0  0  0  0  0  0  0  0  0  0  0
   -1.8073   -0.7178   -0.8748 H   0  0  0  0  0  0  0  0  0  0  0  0
   -0.1607   -2.3509    0.0190 H   0  0  0  0  0  0  0  0  0  0  0  0
    0.9886   -1.2781    2.2237 H   0  0  0  0  0  0  0  0  0  0  0  0
    2.2200    0.8404    1.3826 H   0  0  0  0  0  0  0  0  0  0  0  0
    1.2482    1.4872   -0.9460 H   0  0  0  0  0  0  0  0  0  0  0  0
    1.6781   -1.0647   -1.2302 H   0  0  0  0  0  0  0  0  0  0  0  0
    0.0202   -0.6288   -1.9298 H   0  0  0  0  0  0  0  0  0  0  0  0
  1  2  1  0
  2  3  1  0
  3  4  1  0
  4  5  1  0
  5  6  2  0
  6  7  1  0
  7  8  1  0
  7  2  1  0
  8  4  1  0
  1  9  1  0
  2 10  1  0
  3 11  1  0
  3 12  1  0
  4 13  1  0
  5 14  1  0
  6 15  1  0
  7 16  1  0
  8 17  1  0
  8 18  1  0
M  END
