
     RDKit          3D

 19 20  0  0  0  0  0  0  0  0999 V2000
   -0.2426   -1.3809    1.1978 O   0  0  0  0  0  0  0  0  0  0  0  0
   -0.4083   -1.1096   -0.1714 C   0  0  0  0  0  0  0  0  0  0  0  0
   -1.6098   -0.1539   -0.2450 C   0  0  0  0  0  0  0  0  0  0  0  0
   -1.3306    1.2539    0.0522 C   0  0  0  0  0  0  0  0  0  0  0  0
   -0.0496    1.7373   -0.2145 O   0  0  0  0  0  0  0  0  0  0  0  0
    0.8253    0.8319    0.2866 C   0  0  0  0  0  0  0  0  0  0  0  0
    1.9330    0.1290   -0.2421 C   0  0  0  0  0  0  0  0  0  0  0  0
    2.7442   -0.6033    0.6578 O   0  0  0  0  0  0  0  0  0  0  0  0
    0.7030   -0.3378   -0.7479 C   0  0  0  0  0  0  0  0  0  0  0  0
   -1.1280   -1.3079    1.6664 H   0  0  0  0  0  0  0  0  0  0  0  0
   -0.6127   -2.0086   -0.7521 H   0  0  0  0  0  0  0  0  0  0  0  0
   -1.9617   -0.2364   -1.3138 H   0  0  0  0  0  0  0  0  0  0  0  0
   -2.4279   -0.5161    0.4017 H   0  0  0  0  0  0  0  0  0  0  0  0
   -2.0280    1.9006   -0.5435 H   0  0  0  0  0  0  0  0  0  0  0  0
   -1.5932    1.4635    1.1179 H   0  0  0  0  0  0  0  0  0  0  0  0
    0.5540    0.6002    1.3559 H   0  0  0  0  0  0  0  0  0  0  0  0
    2.6196    0.6884   -0.9461 H   0  0  0  0  0  0  0  0  0  0  0  0
    3.5695   -0.9100    0.2510 H   0  0  0  0  0  0  0  0  0  0  0  0
    0.4438   -0.0402   -1.8109 H   0  0  0  0  0  0  0  0  0  0  0  0
  1  2  1  0
  2  3  1  0
  3  4  1  0
  4  5  1  0
  5  6  1  0
  6  7  1  0
  7  8  1  0
  7  9  1  0
  9  2  1  0
  9  6  1  0
  1 10  1  0
  2 11  1  0
  3 12  1  0
  3 13  1  0
  4 14  1  0
  4 15  1  0
  6 16  1  0
  7 17  1  0
  8 18  1  0
  9 19  1  0
M  END
