
     RDKit          3D

 19 21  0  0  0  0  0  0  0  0999 V2000
    1.6721   -0.5915    0.9671 O   0  0  0  0  0  0  0  0  0  0  0  0
    1.2453   -0.4679   -0.3514 C   0  0  0  0  0  0  0  0  0  0  0  0
    0.5235    0.7872   -0.7027 C   0  0  0  0  0  0  0  0  0  0  0  0
    0.0852    1.6644    0.4286 C   0  0  0  0  0  0  0  0  0  0  0  0
   -1.0529    1.1573    0.9785 O   0  0  0  0  0  0  0  0  0  0  0  0
   -1.5020    0.0950    0.2526 C   0  0  0  0  0  0  0  0  0  0  0  0
   -0.8513   -1.2087    0.7297 C   0  0  0  0  0  0  0  0  0  0  0  0
   -0.0577   -1.2267   -0.5233 C   0  0  0  0  0  0  0  0  0  0  0  0
   -0.7072   -0.0087   -0.9998 C   0  0  0  0  0  0  0  0  0  0  0  0
    2.5000   -0.1179    1.1546 H   0  0  0  0  0  0  0  0  0  0  0  0
    1.9838   -0.7400   -1.1097 H   0  0  0  0  0  0  0  0  0  0  0  0
    0.9363    1.3173   -1.5699 H   0  0  0  0  0  0  0  0  0  0  0  0
   -0.1564    2.6642   -0.0396 H   0  0  0  0  0  0  0  0  0  0  0  0
    0.9033    1.8756    1.1417 H   0  0  0  0  0  0  0  0  0  0  0  0
   -2.5819   -0.0637    0.1597 H   0  0  0  0  0  0  0  0  0  0  0  0
   -0.1957   -1.0611    1.6365 H   0  0  0  0  0  0  0  0  0  0  0  0
   -1.5400   -2.0262    0.9276 H   0  0  0  0  0  0  0  0  0  0  0  0
   -0.0292   -2.1194   -1.1283 H   0  0  0  0  0  0  0  0  0  0  0  0
   -1.1753    0.0704   -1.9518 H   0  0  0  0  0  0  0  0  0  0  0  0
  1  2  1  0
  2  3  1  0
  3  4  1  0
  4  5  1  0
  5  6  1  0
  6  7  1  0
  7  8  1  0
  8  9  1  0
  8  2  1  0
  9  3  1  0
  9  6  1  0
  1 10  1  0
  2 11  1  0
  3 12  1  0
  4 13  1  0
  4 14  1  0
  6 15  1  0
  7 16  1  0
  7 17  1  0
  8 18  1  0
  9 19  1  0
M  END
