
     RDKit          3D

 13 14  0  0  0  0  0  0  0  0999 V2000
    2.3879   -0.5150    0.3807 O   0  0  0  0  0  0  0  0  0  0  0  0
    1.2505    0.0956   -0.0967 C   0  0  0  0  0  0  0  0  0  0  0  0
    0.1051    0.1926    0.8353 C   0  0  0  0  0  0  0  0  0  0  0  0
   -0.8745    1.1549    0.5489 O   0  0  0  0  0  0  0  0  0  0  0  0
   -1.8178    0.4033   -0.1219 C   0  0  0  0  0  0  0  0  0  0  0  0
   -1.0253   -0.2917   -1.0530 O   0  0  0  0  0  0  0  0  0  0  0  0
    0.0643   -0.7470   -0.3214 C   0  0  0  0  0  0  0  0  0  0  0  0
    3.0512    0.1578    0.7187 H   0  0  0  0  0  0  0  0  0  0  0  0
    1.4357    0.8865   -0.8403 H   0  0  0  0  0  0  0  0  0  0  0  0
    0.1257   -0.1889    1.8591 H   0  0  0  0  0  0  0  0  0  0  0  0
   -2.2943   -0.2947    0.5864 H   0  0  0  0  0  0  0  0  0  0  0  0
   -2.5666    0.9793   -0.6646 H   0  0  0  0  0  0  0  0  0  0  0  0
    0.1579   -1.8325   -0.1988 H   0  0  0  0  0  0  0  0  0  0  0  0
  1  2  1  0
  2  3  1  0
  3  4  1  0
  4  5  1  0
  5  6  1  0
  6  7  1  0
  7  2  1  0
  7  3  1  0
  1  8  1  0
  2  9  1  0
  3 10  1  0
  5 11  1  0
  5 12  1  0
  7 13  1  0
M  END
