
     RDKit          3D

 18 19  0  0  0  0  0  0  0  0999 V2000
    1.6923    1.0133   -0.1729 O   0  0  0  0  0  0  0  0  0  0  0  0
    1.4068   -0.1840    0.4189 C   0  0  0  0  0  0  0  0  0  0  0  0
    0.1586   -0.2875    1.2292 C   0  0  0  0  0  0  0  0  0  0  0  0
   -0.9168    0.6669    0.8255 C   0  0  0  0  0  0  0  0  0  0  0  0
   -1.4093    0.3155   -0.5517 C   0  0  0  0  0  0  0  0  0  0  0  0
   -0.2888   -0.2988   -1.3799 C   0  0  0  0  0  0  0  0  0  0  0  0
    0.6043   -1.0967   -0.4790 C   0  0  0  0  0  0  0  0  0  0  0  0
   -0.0486   -1.5620    0.6618 O   0  0  0  0  0  0  0  0  0  0  0  0
    1.7432    1.7794    0.4573 H   0  0  0  0  0  0  0  0  0  0  0  0
    2.2411   -0.7197    0.9175 H   0  0  0  0  0  0  0  0  0  0  0  0
    0.2668   -0.3914    2.3178 H   0  0  0  0  0  0  0  0  0  0  0  0
   -1.7600    0.5607    1.5229 H   0  0  0  0  0  0  0  0  0  0  0  0
   -0.5427    1.7109    0.7990 H   0  0  0  0  0  0  0  0  0  0  0  0
   -1.7945    1.1914   -1.0937 H   0  0  0  0  0  0  0  0  0  0  0  0
   -2.2053   -0.4526   -0.4981 H   0  0  0  0  0  0  0  0  0  0  0  0
    0.3210    0.5066   -1.8487 H   0  0  0  0  0  0  0  0  0  0  0  0
   -0.7434   -0.9360   -2.1500 H   0  0  0  0  0  0  0  0  0  0  0  0
    1.2754   -1.8160   -0.9759 H   0  0  0  0  0  0  0  0  0  0  0  0
  1  2  1  0
  2  3  1  0
  3  4  1  0
  4  5  1  0
  5  6  1  0
  6  7  1  0
  7  8  1  0
  7  2  1  0
  8  3  1  0
  1  9  1  0
  2 10  1  0
  3 11  1  0
  4 12  1  0
  4 13  1  0
  5 14  1  0
  5 15  1  0
  6 16  1  0
  6 17  1  0
  7 18  1  0
M  END
