
     RDKit          3D

 19 20  0  0  0  0  0  0  0  0999 V2000
    1.0408   -0.0108    1.4347 O   0  0  0  0  0  0  0  0  0  0  0  0
    1.2877   -0.1484    0.0537 C   0  0  0  0  0  0  0  0  0  0  0  0
    0.9489    1.1960   -0.5641 C   0  0  0  0  0  0  0  0  0  0  0  0
   -0.5009    0.9301   -0.9951 C   0  0  0  0  0  0  0  0  0  0  0  0
   -1.2913    0.8519    0.2555 C   0  0  0  0  0  0  0  0  0  0  0  0
   -1.5040   -0.3341    0.8398 C   0  0  0  0  0  0  0  0  0  0  0  0
   -0.7898   -1.5305    0.3496 C   0  0  0  0  0  0  0  0  0  0  0  0
    0.3059   -1.0629   -0.6024 C   0  0  0  0  0  0  0  0  0  0  0  0
   -0.3540   -0.3181   -1.5952 O   0  0  0  0  0  0  0  0  0  0  0  0
    1.7406    0.5912    1.7928 H   0  0  0  0  0  0  0  0  0  0  0  0
    2.3370   -0.3949   -0.1071 H   0  0  0  0  0  0  0  0  0  0  0  0
    1.5770    1.3602   -1.4529 H   0  0  0  0  0  0  0  0  0  0  0  0
    0.9219    2.0139    0.1511 H   0  0  0  0  0  0  0  0  0  0  0  0
   -0.8013    1.7229   -1.6742 H   0  0  0  0  0  0  0  0  0  0  0  0
   -1.6806    1.7565    0.6704 H   0  0  0  0  0  0  0  0  0  0  0  0
   -2.1943   -0.3833    1.6564 H   0  0  0  0  0  0  0  0  0  0  0  0
   -0.3995   -2.1808    1.1423 H   0  0  0  0  0  0  0  0  0  0  0  0
   -1.4898   -2.1397   -0.2937 H   0  0  0  0  0  0  0  0  0  0  0  0
    0.8458   -1.9193   -1.0615 H   0  0  0  0  0  0  0  0  0  0  0  0
  1  2  1  0
  2  3  1  0
  3  4  1  0
  4  5  1  0
  5  6  2  0
  6  7  1  0
  7  8  1  0
  8  9  1  0
  8  2  1  0
  9  4  1  0
  1 10  1  0
  2 11  1  0
  3 12  1  0
  3 13  1  0
  4 14  1  0
  5 15  1  0
  6 16  1  0
  7 17  1  0
  7 18  1  0
  8 19  1  0
M  END
