
     RDKit          3D

 17 19  0  0  0  0  0  0  0  0999 V2000
    2.4927   -0.0534   -0.2754 O   0  0  0  0  0  0  0  0  0  0  0  0
    1.1633   -0.4137   -0.4674 C   0  0  0  0  0  0  0  0  0  0  0  0
    0.3428   -0.5033    0.8014 C   0  0  0  0  0  0  0  0  0  0  0  0
   -0.8491   -1.3963    0.6023 C   0  0  0  0  0  0  0  0  0  0  0  0
   -1.6998   -0.7937   -0.2118 C   0  0  0  0  0  0  0  0  0  0  0  0
   -1.1731    0.5318   -0.6271 C   0  0  0  0  0  0  0  0  0  0  0  0
    0.2637    0.7117   -0.9040 C   0  0  0  0  0  0  0  0  0  0  0  0
   -0.2228    0.8271    0.4646 C   0  0  0  0  0  0  0  0  0  0  0  0
   -0.2230    1.9039    1.2505 O   0  0  0  0  0  0  0  0  0  0  0  0
    3.0015   -0.9044   -0.1356 H   0  0  0  0  0  0  0  0  0  0  0  0
    1.0291   -1.3206   -1.0646 H   0  0  0  0  0  0  0  0  0  0  0  0
    0.8703   -0.5927    1.7393 H   0  0  0  0  0  0  0  0  0  0  0  0
   -0.9346   -2.3683    1.0803 H   0  0  0  0  0  0  0  0  0  0  0  0
   -2.6338   -1.2163   -0.5189 H   0  0  0  0  0  0  0  0  0  0  0  0
   -1.8660    1.3012   -0.9980 H   0  0  0  0  0  0  0  0  0  0  0  0
    0.6540    1.5266   -1.5194 H   0  0  0  0  0  0  0  0  0  0  0  0
   -0.2153    2.7603    0.7839 H   0  0  0  0  0  0  0  0  0  0  0  0
  1  2  1  0
  2  3  1  0
  3  4  1  0
  4  5  2  0
  5  6  1  0
  6  7  1  0
  7  8  1  0
  8  9  1  0
  7  2  1  0
  8  3  1  0
  8  6  1  0
  1 10  1  0
  2 11  1  0
  3 12  1  0
  4 13  1  0
  5 14  1  0
  6 15  1  0
  7 16  1  0
  9 17  1  0
M  END
