
     RDKit          3D

 21 23  0  0  0  0  0  0  0  0999 V2000
    0.2470   -1.9300   -0.7760 O   0  0  0  0  0  0  0  0  0  0  0  0
    0.0348   -0.5680   -0.7421 C   0  0  0  0  0  0  0  0  0  0  0  0
   -1.0740   -0.0769    0.1267 C   0  0  0  0  0  0  0  0  0  0  0  0
   -2.0812    0.8080   -0.4195 C   0  0  0  0  0  0  0  0  0  0  0  0
   -2.4002   -0.5657    0.2227 C   0  0  0  0  0  0  0  0  0  0  0  0
   -0.1066    0.2450    1.1889 C   0  0  0  0  0  0  0  0  0  0  0  0
    0.9832    0.1063    0.1919 C   0  0  0  0  0  0  0  0  0  0  0  0
    1.9445    1.1145   -0.1675 C   0  0  0  0  0  0  0  0  0  0  0  0
    2.3424   -0.2741    0.4382 C   0  0  0  0  0  0  0  0  0  0  0  0
    0.6190   -2.2417   -1.6382 H   0  0  0  0  0  0  0  0  0  0  0  0
    0.0564   -0.0775   -1.7422 H   0  0  0  0  0  0  0  0  0  0  0  0
   -2.1648    0.8688   -1.5269 H   0  0  0  0  0  0  0  0  0  0  0  0
   -2.3605    1.7062    0.1261 H   0  0  0  0  0  0  0  0  0  0  0  0
   -2.7859   -1.3533   -0.4362 H   0  0  0  0  0  0  0  0  0  0  0  0
   -2.9554   -0.4799    1.1831 H   0  0  0  0  0  0  0  0  0  0  0  0
   -0.0950   -0.5417    1.9978 H   0  0  0  0  0  0  0  0  0  0  0  0
   -0.2852    1.2507    1.6195 H   0  0  0  0  0  0  0  0  0  0  0  0
    2.1907    1.2686   -1.2271 H   0  0  0  0  0  0  0  0  0  0  0  0
    2.1893    1.9588    0.5021 H   0  0  0  0  0  0  0  0  0  0  0  0
    2.8363   -0.9557   -0.3135 H   0  0  0  0  0  0  0  0  0  0  0  0
    2.8653   -0.2624    1.3922 H   0  0  0  0  0  0  0  0  0  0  0  0
  1  2  1  0
  2  3  1  0
  3  4  1  0
  4  5  1  0
  3  6  1  0
  6  7  1  0
  7  8  1  0
  8  9  1  0
  7  2  1  0
  5  3  1  0
  9  7  1  0
  1 10  1  0
  2 11  1  0
  4 12  1  0
  4 13  1  0
  5 14  1  0
  5 15  1  0
  6 16  1  0
  6 17  1  0
  8 18  1  0
  8 19  1  0
  9 20  1  0
  9 21  1  0
M  END
