
     RDKit          3D

 16 17  0  0  0  0  0  0  0  0999 V2000
    2.0138   -0.8273   -0.4597 O   0  0  0  0  0  0  0  0  0  0  0  0
    1.2915   -0.0518    0.4762 C   0  0  0  0  0  0  0  0  0  0  0  0
    0.1939    0.7975   -0.0163 C   0  0  0  0  0  0  0  0  0  0  0  0
   -0.0898    1.9901    0.6208 O   0  0  0  0  0  0  0  0  0  0  0  0
   -0.7912    0.3518   -1.0411 C   0  0  0  0  0  0  0  0  0  0  0  0
   -0.8227   -1.0539   -0.4804 C   0  0  0  0  0  0  0  0  0  0  0  0
   -0.0755   -0.5140    0.7344 C   0  0  0  0  0  0  0  0  0  0  0  0
   -0.7412   -0.3294    1.9180 O   0  0  0  0  0  0  0  0  0  0  0  0
    2.6773   -0.2605   -0.9409 H   0  0  0  0  0  0  0  0  0  0  0  0
    1.8872    0.3316    1.3011 H   0  0  0  0  0  0  0  0  0  0  0  0
   -0.2604    2.6634   -0.1019 H   0  0  0  0  0  0  0  0  0  0  0  0
   -1.8193    0.7972   -0.9230 H   0  0  0  0  0  0  0  0  0  0  0  0
   -0.5048    0.4416   -2.0994 H   0  0  0  0  0  0  0  0  0  0  0  0
   -0.1398   -1.7049   -1.0930 H   0  0  0  0  0  0  0  0  0  0  0  0
   -1.8035   -1.4715   -0.2609 H   0  0  0  0  0  0  0  0  0  0  0  0
   -1.0155   -1.1599    2.3659 H   0  0  0  0  0  0  0  0  0  0  0  0
  1  2  1  0
  2  3  1  0
  3  4  1  0
  3  5  1  0
  5  6  1  0
  6  7  1  0
  7  8  1  0
  7  2  1  0
  7  3  1  0
  1  9  1  0
  2 10  1  0
  4 11  1  0
  5 12  1  0
  5 13  1  0
  6 14  1  0
  6 15  1  0
  8 16  1  0
M  END
