
     RDKit          3D

 19 21  0  0  0  0  0  0  0  0999 V2000
    2.9620   -0.6459   -0.7054 O   0  0  0  0  0  0  0  0  0  0  0  0
    1.6068   -0.2582   -0.8222 C   0  0  0  0  0  0  0  0  0  0  0  0
    1.0502    0.6434    0.2587 C   0  0  0  0  0  0  0  0  0  0  0  0
    0.1015    1.5445   -0.1145 O   0  0  0  0  0  0  0  0  0  0  0  0
   -1.1882    1.0961   -0.1169 C   0  0  0  0  0  0  0  0  0  0  0  0
   -1.4210    0.0519    0.9805 C   0  0  0  0  0  0  0  0  0  0  0  0
   -0.7791   -0.9369   -0.0081 C   0  0  0  0  0  0  0  0  0  0  0  0
   -1.3196   -0.0667   -1.1101 C   0  0  0  0  0  0  0  0  0  0  0  0
    0.7054   -0.7763    0.1875 C   0  0  0  0  0  0  0  0  0  0  0  0
    3.5757    0.0312   -1.0309 H   0  0  0  0  0  0  0  0  0  0  0  0
    1.3452    0.0144   -1.8482 H   0  0  0  0  0  0  0  0  0  0  0  0
    1.7202    0.9739    1.0871 H   0  0  0  0  0  0  0  0  0  0  0  0
   -1.9435    1.8675   -0.1989 H   0  0  0  0  0  0  0  0  0  0  0  0
   -2.4715   -0.1836    1.1304 H   0  0  0  0  0  0  0  0  0  0  0  0
   -0.7991    0.2197    1.8764 H   0  0  0  0  0  0  0  0  0  0  0  0
   -1.1915   -1.9384    0.0889 H   0  0  0  0  0  0  0  0  0  0  0  0
   -0.6879    0.1021   -1.9767 H   0  0  0  0  0  0  0  0  0  0  0  0
   -2.3794   -0.3017   -1.3029 H   0  0  0  0  0  0  0  0  0  0  0  0
    1.1139   -1.4370    0.9799 H   0  0  0  0  0  0  0  0  0  0  0  0
  1  2  1  0
  2  3  1  0
  3  4  1  0
  4  5  1  0
  5  6  1  0
  6  7  1  0
  7  8  1  0
  7  9  1  0
  9  2  1  0
  9  3  1  0
  8  5  1  0
  1 10  1  0
  2 11  1  0
  3 12  1  0
  5 13  1  0
  6 14  1  0
  6 15  1  0
  7 16  1  0
  8 17  1  0
  8 18  1  0
  9 19  1  0
M  END
