
     RDKit          3D

 19 20  0  0  0  0  0  0  0  0999 V2000
   -1.4609   -1.0961    1.2505 O   0  0  0  0  0  0  0  0  0  0  0  0
   -1.3551   -0.4868    0.0130 C   0  0  0  0  0  0  0  0  0  0  0  0
   -0.4189   -1.3031   -0.8796 C   0  0  0  0  0  0  0  0  0  0  0  0
    0.9019   -1.0344   -0.1875 C   0  0  0  0  0  0  0  0  0  0  0  0
    0.8641    0.4661   -0.0263 C   0  0  0  0  0  0  0  0  0  0  0  0
    1.9811    1.1248    0.5610 C   0  0  0  0  0  0  0  0  0  0  0  0
    1.6697    1.2687   -0.8127 O   0  0  0  0  0  0  0  0  0  0  0  0
   -0.5733    0.8083    0.1347 C   0  0  0  0  0  0  0  0  0  0  0  0
   -0.9748    1.6094   -0.9486 O   0  0  0  0  0  0  0  0  0  0  0  0
   -1.9482   -0.4557    1.8396 H   0  0  0  0  0  0  0  0  0  0  0  0
   -2.3358   -0.3654   -0.4433 H   0  0  0  0  0  0  0  0  0  0  0  0
   -0.4684   -0.9023   -1.8972 H   0  0  0  0  0  0  0  0  0  0  0  0
   -0.6612   -2.3875   -0.8293 H   0  0  0  0  0  0  0  0  0  0  0  0
    1.7631   -1.3940   -0.7432 H   0  0  0  0  0  0  0  0  0  0  0  0
    0.8029   -1.4735    0.8385 H   0  0  0  0  0  0  0  0  0  0  0  0
    1.9798    2.0301    1.1927 H   0  0  0  0  0  0  0  0  0  0  0  0
    2.9140    0.5103    0.7362 H   0  0  0  0  0  0  0  0  0  0  0  0
   -0.7210    1.3015    1.1038 H   0  0  0  0  0  0  0  0  0  0  0  0
   -1.9589    1.7797   -0.9022 H   0  0  0  0  0  0  0  0  0  0  0  0
  1  2  1  0
  2  3  1  0
  3  4  1  0
  4  5  1  0
  5  6  1  0
  6  7  1  0
  5  8  1  0
  8  9  1  0
  8  2  1  0
  7  5  1  0
  1 10  1  0
  2 11  1  0
  3 12  1  0
  3 13  1  0
  4 14  1  0
  4 15  1  0
  6 16  1  0
  6 17  1  0
  8 18  1  0
  9 19  1  0
M  END
