
     RDKit          3D

 21 23  0  0  0  0  0  0  0  0999 V2000
    2.4860   -0.4543   -0.9907 O   0  0  0  0  0  0  0  0  0  0  0  0
    1.3761   -0.9548   -0.2971 C   0  0  0  0  0  0  0  0  0  0  0  0
    1.2976   -0.6893    1.2036 C   0  0  0  0  0  0  0  0  0  0  0  0
    0.5169    0.0905    0.3020 C   0  0  0  0  0  0  0  0  0  0  0  0
    0.6694    1.5379   -0.0004 C   0  0  0  0  0  0  0  0  0  0  0  0
   -0.8039    1.5553   -0.4226 C   0  0  0  0  0  0  0  0  0  0  0  0
   -0.8868    0.1263    0.0209 C   0  0  0  0  0  0  0  0  0  0  0  0
   -1.5831   -0.9019   -0.8054 C   0  0  0  0  0  0  0  0  0  0  0  0
   -2.0231   -0.4999    0.6027 C   0  0  0  0  0  0  0  0  0  0  0  0
    3.2625   -0.3033   -0.4159 H   0  0  0  0  0  0  0  0  0  0  0  0
    0.9416   -1.9156   -0.6331 H   0  0  0  0  0  0  0  0  0  0  0  0
    0.8620   -1.4818    1.8375 H   0  0  0  0  0  0  0  0  0  0  0  0
    2.2595   -0.2981    1.6223 H   0  0  0  0  0  0  0  0  0  0  0  0
    0.8337    2.2172    0.8491 H   0  0  0  0  0  0  0  0  0  0  0  0
    1.3497    1.7111   -0.8600 H   0  0  0  0  0  0  0  0  0  0  0  0
   -0.9166    1.5928   -1.5386 H   0  0  0  0  0  0  0  0  0  0  0  0
   -1.4276    2.2728    0.1352 H   0  0  0  0  0  0  0  0  0  0  0  0
   -2.1280   -0.4920   -1.6700 H   0  0  0  0  0  0  0  0  0  0  0  0
   -1.0963   -1.8798   -0.9190 H   0  0  0  0  0  0  0  0  0  0  0  0
   -3.0097    0.0402    0.5934 H   0  0  0  0  0  0  0  0  0  0  0  0
   -1.9798   -1.2734    1.3861 H   0  0  0  0  0  0  0  0  0  0  0  0
  1  2  1  0
  2  3  1  0
  3  4  1  0
  4  5  1  0
  5  6  1  0
  6  7  1  0
  7  8  1  0
  8  9  1  0
  4  2  1  0
  9  7  1  0
  7  4  1  0
  1 10  1  0
  2 11  1  0
  3 12  1  0
  3 13  1  0
  5 14  1  0
  5 15  1  0
  6 16  1  0
  6 17  1  0
  8 18  1  0
  8 19  1  0
  9 20  1  0
  9 21  1  0
M  END
