
     RDKit          3D

 17 19  0  0  0  0  0  0  0  0999 V2000
   -2.3145    1.3085   -0.7739 O   0  0  0  0  0  0  0  0  0  0  0  0
   -1.1707    0.8975   -0.1066 C   0  0  0  0  0  0  0  0  0  0  0  0
   -1.2052   -0.4878    0.4498 C   0  0  0  0  0  0  0  0  0  0  0  0
    0.1658   -0.5675    1.1401 C   0  0  0  0  0  0  0  0  0  0  0  0
    0.9807   -0.1087   -0.0800 C   0  0  0  0  0  0  0  0  0  0  0  0
    2.3293   -0.0047   -0.1818 C   0  0  0  0  0  0  0  0  0  0  0  0
    1.7714   -1.2490   -0.6156 O   0  0  0  0  0  0  0  0  0  0  0  0
   -0.1477    0.1899   -0.9898 C   0  0  0  0  0  0  0  0  0  0  0  0
   -0.9640   -0.9490   -0.8390 O   0  0  0  0  0  0  0  0  0  0  0  0
   -3.0636    0.6520   -0.6740 H   0  0  0  0  0  0  0  0  0  0  0  0
   -0.7556    1.6093    0.6145 H   0  0  0  0  0  0  0  0  0  0  0  0
   -2.0476   -0.8399    0.9906 H   0  0  0  0  0  0  0  0  0  0  0  0
    0.4138   -1.5689    1.4617 H   0  0  0  0  0  0  0  0  0  0  0  0
    0.1669    0.2070    1.9134 H   0  0  0  0  0  0  0  0  0  0  0  0
    2.8265    0.5173   -1.0136 H   0  0  0  0  0  0  0  0  0  0  0  0
    3.0083   -0.1710    0.6775 H   0  0  0  0  0  0  0  0  0  0  0  0
    0.0063    0.5652   -1.9736 H   0  0  0  0  0  0  0  0  0  0  0  0
  1  2  1  0
  2  3  1  0
  3  4  1  0
  4  5  1  0
  5  6  1  0
  6  7  1  0
  5  8  1  0
  8  9  1  0
  8  2  1  0
  9  3  1  0
  7  5  1  0
  1 10  1  0
  2 11  1  0
  3 12  1  0
  4 13  1  0
  4 14  1  0
  6 15  1  0
  6 16  1  0
  8 17  1  0
M  END
