
     RDKit          3D

 15 16  0  0  0  0  0  0  0  0999 V2000
   -1.4045   -1.7029   -0.3892 O   0  0  0  0  0  0  0  0  0  0  0  0
   -0.9602   -0.6602    0.4220 C   0  0  0  0  0  0  0  0  0  0  0  0
   -1.7627    0.5226    0.0727 C   0  0  0  0  0  0  0  0  0  0  0  0
   -0.9572    1.4739   -0.3455 C   0  0  0  0  0  0  0  0  0  0  0  0
    0.4241    1.0149   -0.3112 C   0  0  0  0  0  0  0  0  0  0  0  0
    1.6834    1.3674   -0.5571 O   0  0  0  0  0  0  0  0  0  0  0  0
    2.5020    0.3834   -0.2809 C   0  0  0  0  0  0  0  0  0  0  0  0
    1.7726   -0.6797    0.1704 C   0  0  0  0  0  0  0  0  0  0  0  0
    0.4260   -0.2767    0.1529 C   0  0  0  0  0  0  0  0  0  0  0  0
   -2.1517   -2.2025   -0.0039 H   0  0  0  0  0  0  0  0  0  0  0  0
   -1.1126   -0.9902    1.4696 H   0  0  0  0  0  0  0  0  0  0  0  0
   -2.8462    0.5299    0.1726 H   0  0  0  0  0  0  0  0  0  0  0  0
   -1.2821    2.4562   -0.6679 H   0  0  0  0  0  0  0  0  0  0  0  0
    3.5763    0.4062   -0.3907 H   0  0  0  0  0  0  0  0  0  0  0  0
    2.0930   -1.6423    0.4861 H   0  0  0  0  0  0  0  0  0  0  0  0
  1  2  1  0
  2  3  1  0
  3  4  2  0
  4  5  1  0
  5  6  1  0
  6  7  1  0
  7  8  2  0
  8  9  1  0
  9  2  1  0
  9  5  2  0
  1 10  1  0
  2 11  1  0
  3 12  1  0
  4 13  1  0
  7 14  1  0
  8 15  1  0
M  END
