
     RDKit          3D

 18 19  0  0  0  0  0  0  0  0999 V2000
   -0.8215    1.2386   -1.4480 O   0  0  0  0  0  0  0  0  0  0  0  0
   -1.1207    0.8418   -0.1508 C   0  0  0  0  0  0  0  0  0  0  0  0
   -1.8501   -0.4666   -0.0631 C   0  0  0  0  0  0  0  0  0  0  0  0
   -0.6804   -1.0078    0.7440 C   0  0  0  0  0  0  0  0  0  0  0  0
    0.0855    0.2783    0.5679 C   0  0  0  0  0  0  0  0  0  0  0  0
    1.2918    0.2023   -0.3254 C   0  0  0  0  0  0  0  0  0  0  0  0
    2.5341   -0.3444    0.3036 C   0  0  0  0  0  0  0  0  0  0  0  0
    1.8214   -1.0261   -0.6825 O   0  0  0  0  0  0  0  0  0  0  0  0
   -1.3696    1.9827   -1.7664 H   0  0  0  0  0  0  0  0  0  0  0  0
   -1.5870    1.6843    0.4171 H   0  0  0  0  0  0  0  0  0  0  0  0
   -1.9461   -0.9689   -1.0665 H   0  0  0  0  0  0  0  0  0  0  0  0
   -2.8064   -0.4049    0.4815 H   0  0  0  0  0  0  0  0  0  0  0  0
   -1.0229   -1.2206    1.7778 H   0  0  0  0  0  0  0  0  0  0  0  0
   -0.2220   -1.8875    0.2403 H   0  0  0  0  0  0  0  0  0  0  0  0
    0.2724    0.7519    1.5530 H   0  0  0  0  0  0  0  0  0  0  0  0
    1.4133    1.0710   -1.0113 H   0  0  0  0  0  0  0  0  0  0  0  0
    2.5083   -0.8585    1.2706 H   0  0  0  0  0  0  0  0  0  0  0  0
    3.4999    0.1342    0.0505 H   0  0  0  0  0  0  0  0  0  0  0  0
  1  2  1  0
  2  3  1  0
  3  4  1  0
  4  5  1  0
  5  6  1  0
  6  7  1  0
  7  8  1  0
  5  2  1  0
  8  6  1  0
  1  9  1  0
  2 10  1  0
  3 11  1  0
  3 12  1  0
  4 13  1  0
  4 14  1  0
  5 15  1  0
  6 16  1  0
  7 17  1  0
  7 18  1  0
M  END
