
     RDKit          3D

 17 19  0  0  0  0  0  0  0  0999 V2000
   -1.5834    1.4874   -0.1946 O   0  0  0  0  0  0  0  0  0  0  0  0
   -1.4015    0.2218   -0.6845 C   0  0  0  0  0  0  0  0  0  0  0  0
   -1.5850   -0.8394    0.4345 C   0  0  0  0  0  0  0  0  0  0  0  0
   -0.1339   -0.4979    0.7611 C   0  0  0  0  0  0  0  0  0  0  0  0
    1.0212   -0.2905    1.3119 C   0  0  0  0  0  0  0  0  0  0  0  0
    1.9875    0.2250    0.2759 C   0  0  0  0  0  0  0  0  0  0  0  0
    1.6146    1.5388   -0.0752 O   0  0  0  0  0  0  0  0  0  0  0  0
    1.1525    0.5759   -0.9190 C   0  0  0  0  0  0  0  0  0  0  0  0
   -0.0102   -0.2987   -0.7313 C   0  0  0  0  0  0  0  0  0  0  0  0
   -1.2654    1.5577    0.7224 H   0  0  0  0  0  0  0  0  0  0  0  0
   -1.9767   -0.0240   -1.5772 H   0  0  0  0  0  0  0  0  0  0  0  0
   -2.2755   -0.5510    1.2241 H   0  0  0  0  0  0  0  0  0  0  0  0
   -1.5981   -1.8667    0.0514 H   0  0  0  0  0  0  0  0  0  0  0  0
    1.3098   -0.4428    2.3424 H   0  0  0  0  0  0  0  0  0  0  0  0
    3.0082   -0.1115    0.2337 H   0  0  0  0  0  0  0  0  0  0  0  0
    1.6805    0.6034   -1.9160 H   0  0  0  0  0  0  0  0  0  0  0  0
    0.0555   -1.2873   -1.2597 H   0  0  0  0  0  0  0  0  0  0  0  0
  1  2  1  0
  2  3  1  0
  3  4  1  0
  4  5  2  0
  5  6  1  0
  6  7  1  0
  7  8  1  0
  8  9  1  0
  9  2  1  0
  9  4  1  0
  8  6  1  0
  1 10  1  0
  2 11  1  0
  3 12  1  0
  3 13  1  0
  5 14  1  0
  6 15  1  0
  8 16  1  0
  9 17  1  0
M  END
