
     RDKit          3D

 17 18  0  0  0  0  0  0  0  0999 V2000
    1.8808   -1.5017    0.0896 O   0  0  0  0  0  0  0  0  0  0  0  0
    1.4554   -0.2878    0.6238 C   0  0  0  0  0  0  0  0  0  0  0  0
   -0.0542   -0.2277    0.7042 C   0  0  0  0  0  0  0  0  0  0  0  0
   -1.3584   -0.1940    0.9253 C   0  0  0  0  0  0  0  0  0  0  0  0
   -2.1039   -0.0025   -0.3563 C   0  0  0  0  0  0  0  0  0  0  0  0
   -1.0998    0.5110   -1.2017 O   0  0  0  0  0  0  0  0  0  0  0  0
    0.0599   -0.1133   -0.8122 C   0  0  0  0  0  0  0  0  0  0  0  0
    1.2813    0.7172   -0.5251 C   0  0  0  0  0  0  0  0  0  0  0  0
    1.0665    2.0133   -0.1246 O   0  0  0  0  0  0  0  0  0  0  0  0
    1.3352   -2.2693    0.3784 H   0  0  0  0  0  0  0  0  0  0  0  0
    1.9807    0.0868    1.4933 H   0  0  0  0  0  0  0  0  0  0  0  0
   -1.8145   -0.2914    1.8957 H   0  0  0  0  0  0  0  0  0  0  0  0
   -2.4756   -0.9423   -0.7818 H   0  0  0  0  0  0  0  0  0  0  0  0
   -2.8764    0.7935   -0.2752 H   0  0  0  0  0  0  0  0  0  0  0  0
    0.3134   -1.0696   -1.2569 H   0  0  0  0  0  0  0  0  0  0  0  0
    2.1163    0.6319   -1.2268 H   0  0  0  0  0  0  0  0  0  0  0  0
    0.2932    2.1461    0.4503 H   0  0  0  0  0  0  0  0  0  0  0  0
  1  2  1  0
  2  3  1  0
  3  4  2  0
  4  5  1  0
  5  6  1  0
  6  7  1  0
  7  8  1  0
  8  9  1  0
  8  2  1  0
  7  3  1  0
  1 10  1  0
  2 11  1  0
  4 12  1  0
  5 13  1  0
  5 14  1  0
  7 15  1  0
  8 16  1  0
  9 17  1  0
M  END
