
     RDKit          3D

 19 21  0  0  0  0  0  0  0  0999 V2000
   -2.0887    0.5535   -1.0209 O   0  0  0  0  0  0  0  0  0  0  0  0
   -1.2953    0.6634    0.1192 C   0  0  0  0  0  0  0  0  0  0  0  0
   -1.2450   -0.7268    0.7821 C   0  0  0  0  0  0  0  0  0  0  0  0
    0.2032   -1.0547    0.5468 C   0  0  0  0  0  0  0  0  0  0  0  0
    0.5248   -0.5603   -0.8391 C   0  0  0  0  0  0  0  0  0  0  0  0
    1.9003   -0.2754   -0.3086 C   0  0  0  0  0  0  0  0  0  0  0  0
    0.9935    0.1966    0.7865 C   0  0  0  0  0  0  0  0  0  0  0  0
    0.1393    0.7795   -0.3064 C   0  0  0  0  0  0  0  0  0  0  0  0
    0.5540    1.8942   -0.9329 O   0  0  0  0  0  0  0  0  0  0  0  0
   -2.1993   -0.4006   -1.3092 H   0  0  0  0  0  0  0  0  0  0  0  0
   -1.6271    1.4323    0.8160 H   0  0  0  0  0  0  0  0  0  0  0  0
   -1.4869   -0.5854    1.8410 H   0  0  0  0  0  0  0  0  0  0  0  0
   -1.8613   -1.4516    0.2504 H   0  0  0  0  0  0  0  0  0  0  0  0
    0.5913   -1.9978    0.8672 H   0  0  0  0  0  0  0  0  0  0  0  0
    0.2763   -0.9869   -1.7070 H   0  0  0  0  0  0  0  0  0  0  0  0
    2.4960    0.4714   -0.8341 H   0  0  0  0  0  0  0  0  0  0  0  0
    2.4179   -1.2393   -0.0863 H   0  0  0  0  0  0  0  0  0  0  0  0
    1.2374    0.6162    1.6587 H   0  0  0  0  0  0  0  0  0  0  0  0
    0.4696    2.6716   -0.3236 H   0  0  0  0  0  0  0  0  0  0  0  0
  1  2  1  0
  2  3  1  0
  3  4  1  0
  4  5  1  0
  5  6  1  0
  6  7  1  0
  7  8  1  0
  8  9  1  0
  8  2  1  0
  7  4  1  0
  8  5  1  0
  1 10  1  0
  2 11  1  0
  3 12  1  0
  3 13  1  0
  4 14  1  0
  5 15  1  0
  6 16  1  0
  6 17  1  0
  7 18  1  0
  9 19  1  0
M  END
