
     RDKit          3D

 21 22  0  0  0  0  0  0  0  0999 V2000
   -2.4462    1.0677    0.0316 O   0  0  0  0  0  0  0  0  0  0  0  0
   -1.2709    0.5716    0.5332 C   0  0  0  0  0  0  0  0  0  0  0  0
   -1.1290   -0.9391    0.2983 C   0  0  0  0  0  0  0  0  0  0  0  0
    0.2021   -1.0537   -0.4055 C   0  0  0  0  0  0  0  0  0  0  0  0
    0.1150    0.1871   -1.3130 C   0  0  0  0  0  0  0  0  0  0  0  0
   -0.1081    1.1827   -0.1825 C   0  0  0  0  0  0  0  0  0  0  0  0
    1.1284    0.8932    0.6692 C   0  0  0  0  0  0  0  0  0  0  0  0
    1.3338   -0.6180    0.4952 C   0  0  0  0  0  0  0  0  0  0  0  0
    2.5191   -0.7665   -0.2390 O   0  0  0  0  0  0  0  0  0  0  0  0
   -3.2394    0.6914    0.4695 H   0  0  0  0  0  0  0  0  0  0  0  0
   -1.1620    0.7879    1.6329 H   0  0  0  0  0  0  0  0  0  0  0  0
   -1.1992   -1.5117    1.2215 H   0  0  0  0  0  0  0  0  0  0  0  0
   -1.9108   -1.1953   -0.4397 H   0  0  0  0  0  0  0  0  0  0  0  0
    0.3644   -1.9656   -0.9467 H   0  0  0  0  0  0  0  0  0  0  0  0
    1.0895    0.2818   -1.7863 H   0  0  0  0  0  0  0  0  0  0  0  0
   -0.7402    0.0822   -1.9719 H   0  0  0  0  0  0  0  0  0  0  0  0
   -0.2059    2.2018   -0.4910 H   0  0  0  0  0  0  0  0  0  0  0  0
    1.9546    1.4747    0.2643 H   0  0  0  0  0  0  0  0  0  0  0  0
    0.9362    1.1399    1.7295 H   0  0  0  0  0  0  0  0  0  0  0  0
    1.3725   -1.1444    1.4482 H   0  0  0  0  0  0  0  0  0  0  0  0
    2.3962   -1.3676   -1.0176 H   0  0  0  0  0  0  0  0  0  0  0  0
  1  2  1  0
  2  3  1  0
  3  4  1  0
  4  5  1  0
  5  6  1  0
  6  7  1  0
  7  8  1  0
  8  9  1  0
  6  2  1  0
  8  4  1  0
  1 10  1  0
  2 11  1  0
  3 12  1  0
  3 13  1  0
  4 14  1  0
  5 15  1  0
  5 16  1  0
  6 17  1  0
  7 18  1  0
  7 19  1  0
  8 20  1  0
  9 21  1  0
M  END
