
     RDKit          3D

 19 20  0  0  0  0  0  0  0  0999 V2000
    2.0627    0.4795   -1.1629 O   0  0  0  0  0  0  0  0  0  0  0  0
    1.7697    0.2502    0.1767 C   0  0  0  0  0  0  0  0  0  0  0  0
    0.9518   -1.0192    0.3331 C   0  0  0  0  0  0  0  0  0  0  0  0
   -0.2673   -0.1930    0.1854 C   0  0  0  0  0  0  0  0  0  0  0  0
   -1.2292   -0.2808   -0.8957 C   0  0  0  0  0  0  0  0  0  0  0  0
   -1.5973   -0.5341    0.5912 C   0  0  0  0  0  0  0  0  0  0  0  0
   -2.4745    0.4069    1.1633 O   0  0  0  0  0  0  0  0  0  0  0  0
    0.5000    1.0204    0.5591 C   0  0  0  0  0  0  0  0  0  0  0  0
    0.2787    2.1033   -0.3110 O   0  0  0  0  0  0  0  0  0  0  0  0
    2.6834   -0.1957   -1.5363 H   0  0  0  0  0  0  0  0  0  0  0  0
    2.5981    0.3809    0.8685 H   0  0  0  0  0  0  0  0  0  0  0  0
    1.0734   -1.7606   -0.4782 H   0  0  0  0  0  0  0  0  0  0  0  0
    1.0119   -1.4856    1.3472 H   0  0  0  0  0  0  0  0  0  0  0  0
   -1.2225   -1.1501   -1.5663 H   0  0  0  0  0  0  0  0  0  0  0  0
   -1.6331    0.6816   -1.3068 H   0  0  0  0  0  0  0  0  0  0  0  0
   -1.8093   -1.6155    0.8321 H   0  0  0  0  0  0  0  0  0  0  0  0
   -3.2979   -0.0895    1.4213 H   0  0  0  0  0  0  0  0  0  0  0  0
    0.4413    1.3157    1.6111 H   0  0  0  0  0  0  0  0  0  0  0  0
    0.1601    1.6857   -1.2141 H   0  0  0  0  0  0  0  0  0  0  0  0
  1  2  1  0
  2  3  1  0
  3  4  1  0
  4  5  1  0
  5  6  1  0
  6  7  1  0
  4  8  1  0
  8  9  1  0
  8  2  1  0
  6  4  1  0
  1 10  1  0
  2 11  1  0
  3 12  1  0
  3 13  1  0
  5 14  1  0
  5 15  1  0
  6 16  1  0
  7 17  1  0
  8 18  1  0
  9 19  1  0
M  END
