
     RDKit          3D

 23 24  0  0  0  0  0  0  0  0999 V2000
   -3.0836   -0.3604    0.4110 O   0  0  0  0  0  0  0  0  0  0  0  0
   -2.0064   -0.2610   -0.4263 C   0  0  0  0  0  0  0  0  0  0  0  0
   -0.9698   -1.3728   -0.1754 C   0  0  0  0  0  0  0  0  0  0  0  0
    0.2179   -0.6989   -0.7303 C   0  0  0  0  0  0  0  0  0  0  0  0
    1.5518   -1.1174   -0.2709 C   0  0  0  0  0  0  0  0  0  0  0  0
    2.3389    0.1937   -0.4350 C   0  0  0  0  0  0  0  0  0  0  0  0
    1.2773    1.3083   -0.4698 C   0  0  0  0  0  0  0  0  0  0  0  0
    0.1095    0.6154    0.0780 C   0  0  0  0  0  0  0  0  0  0  0  0
   -1.2399    1.0522   -0.2636 C   0  0  0  0  0  0  0  0  0  0  0  0
   -3.4027    0.5154    0.7560 H   0  0  0  0  0  0  0  0  0  0  0  0
   -2.2757   -0.3104   -1.5169 H   0  0  0  0  0  0  0  0  0  0  0  0
   -0.8729   -1.4267    0.9265 H   0  0  0  0  0  0  0  0  0  0  0  0
   -1.2714   -2.2986   -0.6486 H   0  0  0  0  0  0  0  0  0  0  0  0
    0.1807   -0.4778   -1.8052 H   0  0  0  0  0  0  0  0  0  0  0  0
    2.0044   -1.8846   -0.9123 H   0  0  0  0  0  0  0  0  0  0  0  0
    1.5097   -1.4213    0.7915 H   0  0  0  0  0  0  0  0  0  0  0  0
    2.8508    0.1926   -1.4002 H   0  0  0  0  0  0  0  0  0  0  0  0
    3.0634    0.3423    0.3629 H   0  0  0  0  0  0  0  0  0  0  0  0
    1.1114    1.6204   -1.5297 H   0  0  0  0  0  0  0  0  0  0  0  0
    1.6235    2.2021    0.0636 H   0  0  0  0  0  0  0  0  0  0  0  0
    0.2852    0.3552    1.1350 H   0  0  0  0  0  0  0  0  0  0  0  0
   -1.2990    1.6886   -1.1459 H   0  0  0  0  0  0  0  0  0  0  0  0
   -1.7032    1.5435    0.6438 H   0  0  0  0  0  0  0  0  0  0  0  0
  1  2  1  0
  2  3  1  0
  3  4  1  0
  4  5  1  0
  5  6  1  0
  6  7  1  0
  7  8  1  0
  8  9  1  0
  9  2  1  0
  8  4  1  0
  1 10  1  0
  2 11  1  0
  3 12  1  0
  3 13  1  0
  4 14  1  0
  5 15  1  0
  5 16  1  0
  6 17  1  0
  6 18  1  0
  7 19  1  0
  7 20  1  0
  8 21  1  0
  9 22  1  0
  9 23  1  0
M  END
