
     RDKit          3D

 19 20  0  0  0  0  0  0  0  0999 V2000
   -0.6899    1.0780   -1.6379 O   0  0  0  0  0  0  0  0  0  0  0  0
   -1.0450    0.1045   -0.7294 C   0  0  0  0  0  0  0  0  0  0  0  0
   -1.6900    0.6831    0.5304 C   0  0  0  0  0  0  0  0  0  0  0  0
   -0.4838    1.0293    1.3296 C   0  0  0  0  0  0  0  0  0  0  0  0
    0.5912    0.3566    0.9768 C   0  0  0  0  0  0  0  0  0  0  0  0
    1.9384   -0.2646    0.7745 C   0  0  0  0  0  0  0  0  0  0  0  0
    1.4972   -0.3527   -0.7142 C   0  0  0  0  0  0  0  0  0  0  0  0
    0.1482   -0.5951   -0.1348 C   0  0  0  0  0  0  0  0  0  0  0  0
   -0.0436   -1.8802    0.2994 O   0  0  0  0  0  0  0  0  0  0  0  0
   -1.0528    0.8296   -2.5438 H   0  0  0  0  0  0  0  0  0  0  0  0
   -1.7291   -0.6319   -1.1482 H   0  0  0  0  0  0  0  0  0  0  0  0
   -2.1881    1.6214    0.2058 H   0  0  0  0  0  0  0  0  0  0  0  0
   -2.3449   -0.0189    1.0350 H   0  0  0  0  0  0  0  0  0  0  0  0
   -0.5064    1.7757    2.1320 H   0  0  0  0  0  0  0  0  0  0  0  0
    2.7945    0.4183    0.9233 H   0  0  0  0  0  0  0  0  0  0  0  0
    1.9709   -1.2384    1.2586 H   0  0  0  0  0  0  0  0  0  0  0  0
    1.9784   -1.1756   -1.2497 H   0  0  0  0  0  0  0  0  0  0  0  0
    1.6525    0.6115   -1.2048 H   0  0  0  0  0  0  0  0  0  0  0  0
   -0.7978   -2.3506   -0.1026 H   0  0  0  0  0  0  0  0  0  0  0  0
  1  2  1  0
  2  3  1  0
  3  4  1  0
  4  5  2  0
  5  6  1  0
  6  7  1  0
  7  8  1  0
  8  9  1  0
  8  2  1  0
  8  5  1  0
  1 10  1  0
  2 11  1  0
  3 12  1  0
  3 13  1  0
  4 14  1  0
  6 15  1  0
  6 16  1  0
  7 17  1  0
  7 18  1  0
  9 19  1  0
M  END
