
     RDKit          3D

 15 16  0  0  0  0  0  0  0  0999 V2000
    1.5208   -1.3893   -0.2230 O   0  0  0  0  0  0  0  0  0  0  0  0
    1.0534   -0.1309    0.0191 C   0  0  0  0  0  0  0  0  0  0  0  0
   -0.1197    0.0024    0.9503 C   0  0  0  0  0  0  0  0  0  0  0  0
   -1.1352   -0.8950    0.3180 C   0  0  0  0  0  0  0  0  0  0  0  0
   -0.8691   -0.6375   -1.0516 O   0  0  0  0  0  0  0  0  0  0  0  0
    0.0259    0.3907   -1.0004 C   0  0  0  0  0  0  0  0  0  0  0  0
   -0.3975    1.2965    0.1652 C   0  0  0  0  0  0  0  0  0  0  0  0
    1.9706   -1.4680   -1.0950 H   0  0  0  0  0  0  0  0  0  0  0  0
    1.8107    0.6725    0.1687 H   0  0  0  0  0  0  0  0  0  0  0  0
    0.0082    0.0668    1.9893 H   0  0  0  0  0  0  0  0  0  0  0  0
   -1.0493   -1.9485    0.5672 H   0  0  0  0  0  0  0  0  0  0  0  0
   -2.1436   -0.4550    0.5313 H   0  0  0  0  0  0  0  0  0  0  0  0
    0.4034    0.8587   -1.8718 H   0  0  0  0  0  0  0  0  0  0  0  0
    0.3650    2.0484    0.3738 H   0  0  0  0  0  0  0  0  0  0  0  0
   -1.4437    1.5880    0.1590 H   0  0  0  0  0  0  0  0  0  0  0  0
  1  2  1  0
  2  3  1  0
  3  4  1  0
  4  5  1  0
  5  6  1  0
  6  7  1  0
  6  2  1  0
  7  3  1  0
  1  8  1  0
  2  9  1  0
  3 10  1  0
  4 11  1  0
  4 12  1  0
  6 13  1  0
  7 14  1  0
  7 15  1  0
M  END
