
     RDKit          3D

 19 21  0  0  0  0  0  0  0  0999 V2000
    2.0747    1.1043   -0.5452 O   0  0  0  0  0  0  0  0  0  0  0  0
    0.7490    0.7561   -0.5945 C   0  0  0  0  0  0  0  0  0  0  0  0
    0.5043   -0.7455   -0.7833 C   0  0  0  0  0  0  0  0  0  0  0  0
    0.9809   -0.8403    0.6737 C   0  0  0  0  0  0  0  0  0  0  0  0
    0.1998    0.4792    0.7946 C   0  0  0  0  0  0  0  0  0  0  0  0
    0.5148    1.2981    1.7940 O   0  0  0  0  0  0  0  0  0  0  0  0
   -1.2026   -0.0209    0.6219 C   0  0  0  0  0  0  0  0  0  0  0  0
   -1.9398    0.1515   -0.6277 C   0  0  0  0  0  0  0  0  0  0  0  0
   -0.9592   -0.9385   -0.6312 C   0  0  0  0  0  0  0  0  0  0  0  0
    2.7086    0.3934   -0.7589 H   0  0  0  0  0  0  0  0  0  0  0  0
    0.1736    1.4136   -1.2305 H   0  0  0  0  0  0  0  0  0  0  0  0
    1.0698   -1.2526   -1.5199 H   0  0  0  0  0  0  0  0  0  0  0  0
    0.5231   -1.6413    1.2528 H   0  0  0  0  0  0  0  0  0  0  0  0
    2.0496   -0.7205    0.8183 H   0  0  0  0  0  0  0  0  0  0  0  0
    0.2968    2.2256    1.5916 H   0  0  0  0  0  0  0  0  0  0  0  0
   -1.6033   -0.5706    1.4949 H   0  0  0  0  0  0  0  0  0  0  0  0
   -3.0131   -0.1872   -0.5974 H   0  0  0  0  0  0  0  0  0  0  0  0
   -1.8355    1.0774   -1.2246 H   0  0  0  0  0  0  0  0  0  0  0  0
   -1.2917   -1.9818   -0.5286 H   0  0  0  0  0  0  0  0  0  0  0  0
  1  2  1  0
  2  3  1  0
  3  4  1  0
  4  5  1  0
  5  6  1  0
  5  7  1  0
  7  8  1  0
  8  9  1  0
  5  2  1  0
  9  7  1  0
  9  3  1  0
  1 10  1  0
  2 11  1  0
  3 12  1  0
  4 13  1  0
  4 14  1  0
  6 15  1  0
  7 16  1  0
  8 17  1  0
  8 18  1  0
  9 19  1  0
M  END
