
     RDKit          3D

 19 20  0  0  0  0  0  0  0  0999 V2000
    2.6424    0.5408   -0.0597 O   0  0  0  0  0  0  0  0  0  0  0  0
    1.3198    0.3330   -0.3638 C   0  0  0  0  0  0  0  0  0  0  0  0
    0.8798   -1.0754   -0.5980 C   0  0  0  0  0  0  0  0  0  0  0  0
   -0.3164   -0.8152    0.2833 C   0  0  0  0  0  0  0  0  0  0  0  0
   -0.5254   -1.8550    1.1758 O   0  0  0  0  0  0  0  0  0  0  0  0
   -1.5353   -0.2940   -0.3965 C   0  0  0  0  0  0  0  0  0  0  0  0
   -1.6318    1.1540   -0.0451 C   0  0  0  0  0  0  0  0  0  0  0  0
   -0.5689    1.5421    0.6340 C   0  0  0  0  0  0  0  0  0  0  0  0
    0.3561    0.4034    0.8139 C   0  0  0  0  0  0  0  0  0  0  0  0
    2.8025    1.5343   -0.1442 H   0  0  0  0  0  0  0  0  0  0  0  0
    1.0055    0.9707   -1.2385 H   0  0  0  0  0  0  0  0  0  0  0  0
    0.6530   -1.3296   -1.6405 H   0  0  0  0  0  0  0  0  0  0  0  0
    1.5896   -1.8120   -0.1263 H   0  0  0  0  0  0  0  0  0  0  0  0
   -0.6288   -2.6850    0.6366 H   0  0  0  0  0  0  0  0  0  0  0  0
   -1.5641   -0.4506   -1.4857 H   0  0  0  0  0  0  0  0  0  0  0  0
   -2.4313   -0.7881    0.0805 H   0  0  0  0  0  0  0  0  0  0  0  0
   -2.4792    1.7684   -0.3293 H   0  0  0  0  0  0  0  0  0  0  0  0
   -0.4032    2.5366    1.0000 H   0  0  0  0  0  0  0  0  0  0  0  0
    0.8355    0.3217    1.8036 H   0  0  0  0  0  0  0  0  0  0  0  0
  1  2  1  0
  2  3  1  0
  3  4  1  0
  4  5  1  0
  4  6  1  0
  6  7  1  0
  7  8  2  0
  8  9  1  0
  9  2  1  0
  9  4  1  0
  1 10  1  0
  2 11  1  0
  3 12  1  0
  3 13  1  0
  5 14  1  0
  6 15  1  0
  6 16  1  0
  7 17  1  0
  8 18  1  0
  9 19  1  0
M  END
