
     RDKit          3D

 17 19  0  0  0  0  0  0  0  0999 V2000
   -1.6374   -0.9189   -1.4039 O   0  0  0  0  0  0  0  0  0  0  0  0
   -1.2094   -0.7145   -0.0987 C   0  0  0  0  0  0  0  0  0  0  0  0
   -1.7844    0.5947    0.4323 C   0  0  0  0  0  0  0  0  0  0  0  0
   -0.4999    1.1655    0.5103 O   0  0  0  0  0  0  0  0  0  0  0  0
    0.0358    0.0101    0.0750 C   0  0  0  0  0  0  0  0  0  0  0  0
    1.1940   -0.5920    0.7511 C   0  0  0  0  0  0  0  0  0  0  0  0
    2.0253    0.5175    0.1584 C   0  0  0  0  0  0  0  0  0  0  0  0
    1.1147   -0.0160   -0.9089 C   0  0  0  0  0  0  0  0  0  0  0  0
    1.4500   -1.2888   -0.4216 O   0  0  0  0  0  0  0  0  0  0  0  0
   -1.8648   -0.0511   -1.8237 H   0  0  0  0  0  0  0  0  0  0  0  0
   -1.4085   -1.5639    0.5950 H   0  0  0  0  0  0  0  0  0  0  0  0
   -2.3678    1.1751   -0.3134 H   0  0  0  0  0  0  0  0  0  0  0  0
   -2.2238    0.5426    1.4333 H   0  0  0  0  0  0  0  0  0  0  0  0
    1.2795   -0.9511    1.6914 H   0  0  0  0  0  0  0  0  0  0  0  0
    3.0905    0.3434    0.0535 H   0  0  0  0  0  0  0  0  0  0  0  0
    1.6818    1.5039    0.5026 H   0  0  0  0  0  0  0  0  0  0  0  0
    1.1244    0.2435   -1.8857 H   0  0  0  0  0  0  0  0  0  0  0  0
  1  2  1  0
  2  3  1  0
  3  4  1  0
  4  5  1  0
  5  6  1  0
  6  7  1  0
  7  8  1  0
  8  9  1  0
  5  2  1  0
  9  6  1  0
  8  5  1  0
  1 10  1  0
  2 11  1  0
  3 12  1  0
  3 13  1  0
  6 14  1  0
  7 15  1  0
  7 16  1  0
  8 17  1  0
M  END
