
     RDKit          3D

 21 23  0  0  0  0  0  0  0  0999 V2000
    0.5763    1.8052   -1.6999 O   0  0  0  0  0  0  0  0  0  0  0  0
    0.3460    1.1708   -0.5038 C   0  0  0  0  0  0  0  0  0  0  0  0
   -1.0681    0.6646   -0.3479 C   0  0  0  0  0  0  0  0  0  0  0  0
   -1.2018    0.1235    1.0439 C   0  0  0  0  0  0  0  0  0  0  0  0
   -0.1332   -0.9757    1.0410 C   0  0  0  0  0  0  0  0  0  0  0  0
    1.2733   -0.3876    1.1722 C   0  0  0  0  0  0  0  0  0  0  0  0
    1.1617   -0.0940   -0.3316 C   0  0  0  0  0  0  0  0  0  0  0  0
    0.1957   -1.2361   -0.4103 C   0  0  0  0  0  0  0  0  0  0  0  0
   -0.9800   -0.6424   -1.1542 C   0  0  0  0  0  0  0  0  0  0  0  0
    1.2455    2.5392   -1.5624 H   0  0  0  0  0  0  0  0  0  0  0  0
    0.5385    1.8491    0.3599 H   0  0  0  0  0  0  0  0  0  0  0  0
   -1.8415    1.3265   -0.6843 H   0  0  0  0  0  0  0  0  0  0  0  0
   -2.1784   -0.3526    1.2214 H   0  0  0  0  0  0  0  0  0  0  0  0
   -0.9582    0.8503    1.8294 H   0  0  0  0  0  0  0  0  0  0  0  0
   -0.3448   -1.8365    1.6653 H   0  0  0  0  0  0  0  0  0  0  0  0
    1.9956   -1.2041    1.3192 H   0  0  0  0  0  0  0  0  0  0  0  0
    1.3605    0.4889    1.8045 H   0  0  0  0  0  0  0  0  0  0  0  0
    2.0875   -0.1633   -0.8887 H   0  0  0  0  0  0  0  0  0  0  0  0
    0.5424   -2.2044   -0.6933 H   0  0  0  0  0  0  0  0  0  0  0  0
   -1.8424   -1.2879   -0.9755 H   0  0  0  0  0  0  0  0  0  0  0  0
   -0.7746   -0.4335   -2.2049 H   0  0  0  0  0  0  0  0  0  0  0  0
  1  2  1  0
  2  3  1  0
  3  4  1  0
  4  5  1  0
  5  6  1  0
  6  7  1  0
  7  8  1  0
  8  9  1  0
  7  2  1  0
  9  3  1  0
  8  5  1  0
  1 10  1  0
  2 11  1  0
  3 12  1  0
  4 13  1  0
  4 14  1  0
  5 15  1  0
  6 16  1  0
  6 17  1  0
  7 18  1  0
  8 19  1  0
  9 20  1  0
  9 21  1  0
M  END
