
     RDKit          3D

 14 16  0  0  0  0  0  0  0  0999 V2000
   -2.1146   -0.3940   -0.0859 O   0  0  0  0  0  0  0  0  0  0  0  0
   -0.8511   -0.0647    0.4115 C   0  0  0  0  0  0  0  0  0  0  0  0
   -0.3524    1.1559   -0.3051 C   0  0  0  0  0  0  0  0  0  0  0  0
    0.4489    2.1276    0.0048 O   0  0  0  0  0  0  0  0  0  0  0  0
    1.0503    1.0265    0.3758 C   0  0  0  0  0  0  0  0  0  0  0  0
    1.4174   -0.2243   -0.2979 C   0  0  0  0  0  0  0  0  0  0  0  0
    1.2820   -1.4237    0.4095 O   0  0  0  0  0  0  0  0  0  0  0  0
    0.1312   -1.0676   -0.1846 C   0  0  0  0  0  0  0  0  0  0  0  0
   -2.5620   -1.0873    0.4735 H   0  0  0  0  0  0  0  0  0  0  0  0
   -0.8043   -0.0123    1.4974 H   0  0  0  0  0  0  0  0  0  0  0  0
   -0.3575    0.9379   -1.4203 H   0  0  0  0  0  0  0  0  0  0  0  0
    1.0313    0.9227    1.5061 H   0  0  0  0  0  0  0  0  0  0  0  0
    1.8577   -0.2440   -1.3161 H   0  0  0  0  0  0  0  0  0  0  0  0
   -0.1769   -1.6526   -1.0686 H   0  0  0  0  0  0  0  0  0  0  0  0
  1  2  1  0
  2  3  1  0
  3  4  1  0
  4  5  1  0
  5  6  1  0
  6  7  1  0
  7  8  1  0
  8  2  1  0
  5  3  1  0
  8  6  1  0
  1  9  1  0
  2 10  1  0
  3 11  1  0
  5 12  1  0
  6 13  1  0
  8 14  1  0
M  END
