
     RDKit          3D

 21 22  0  0  0  0  0  0  0  0999 V2000
    3.1325   -0.8830    0.4148 O   0  0  0  0  0  0  0  0  0  0  0  0
    1.9438   -0.2002    0.2888 C   0  0  0  0  0  0  0  0  0  0  0  0
    0.8100   -0.7347    1.1633 C   0  0  0  0  0  0  0  0  0  0  0  0
   -0.0967   -0.3278   -0.0080 C   0  0  0  0  0  0  0  0  0  0  0  0
   -0.4823    1.1292    0.0241 C   0  0  0  0  0  0  0  0  0  0  0  0
   -1.8981    1.0392    0.5600 C   0  0  0  0  0  0  0  0  0  0  0  0
   -2.3328   -0.3108    0.0717 C   0  0  0  0  0  0  0  0  0  0  0  0
   -1.2217   -1.0726   -0.1666 O   0  0  0  0  0  0  0  0  0  0  0  0
    1.0794   -0.6491   -0.8998 C   0  0  0  0  0  0  0  0  0  0  0  0
    3.8288   -0.3390   -0.0343 H   0  0  0  0  0  0  0  0  0  0  0  0
    2.0120    0.8903    0.3672 H   0  0  0  0  0  0  0  0  0  0  0  0
    0.6342   -0.1799    2.0831 H   0  0  0  0  0  0  0  0  0  0  0  0
    0.8365   -1.8427    1.2366 H   0  0  0  0  0  0  0  0  0  0  0  0
   -0.5404    1.5511   -1.0114 H   0  0  0  0  0  0  0  0  0  0  0  0
    0.1363    1.7361    0.6849 H   0  0  0  0  0  0  0  0  0  0  0  0
   -1.8143    1.0320    1.6641 H   0  0  0  0  0  0  0  0  0  0  0  0
   -2.5319    1.8686    0.1991 H   0  0  0  0  0  0  0  0  0  0  0  0
   -2.9442   -0.1296   -0.8588 H   0  0  0  0  0  0  0  0  0  0  0  0
   -2.9466   -0.7842    0.8596 H   0  0  0  0  0  0  0  0  0  0  0  0
    1.1988   -1.7463   -1.0044 H   0  0  0  0  0  0  0  0  0  0  0  0
    1.1967   -0.0466   -1.7970 H   0  0  0  0  0  0  0  0  0  0  0  0
  1  2  1  0
  2  3  1  0
  3  4  1  0
  4  5  1  0
  5  6  1  0
  6  7  1  0
  7  8  1  0
  4  9  1  0
  9  2  1  0
  8  4  1  0
  1 10  1  0
  2 11  1  0
  3 12  1  0
  3 13  1  0
  5 14  1  0
  5 15  1  0
  6 16  1  0
  6 17  1  0
  7 18  1  0
  7 19  1  0
  9 20  1  0
  9 21  1  0
M  END
