
     RDKit          3D

 18 20  0  0  0  0  0  0  0  0999 V2000
   -0.6343    1.3087    1.5385 O   0  0  0  0  0  0  0  0  0  0  0  0
   -0.8653    0.7547    0.2777 C   0  0  0  0  0  0  0  0  0  0  0  0
   -1.5016   -0.5933    0.2579 C   0  0  0  0  0  0  0  0  0  0  0  0
   -0.8099   -1.8241    0.6582 C   0  0  0  0  0  0  0  0  0  0  0  0
   -0.3065   -1.1099   -0.5892 C   0  0  0  0  0  0  0  0  0  0  0  0
    0.3633    0.1823   -0.3225 C   0  0  0  0  0  0  0  0  0  0  0  0
    1.2972    0.8662   -1.1763 C   0  0  0  0  0  0  0  0  0  0  0  0
    1.7047    0.3445    0.2104 C   0  0  0  0  0  0  0  0  0  0  0  0
   -0.7247    2.3004    1.4052 H   0  0  0  0  0  0  0  0  0  0  0  0
   -1.3753    1.4351   -0.4433 H   0  0  0  0  0  0  0  0  0  0  0  0
   -2.5031   -0.6845   -0.1755 H   0  0  0  0  0  0  0  0  0  0  0  0
   -1.3070   -2.7715    0.4530 H   0  0  0  0  0  0  0  0  0  0  0  0
   -0.1060   -1.7680    1.5367 H   0  0  0  0  0  0  0  0  0  0  0  0
   -0.5984   -1.4540   -1.5769 H   0  0  0  0  0  0  0  0  0  0  0  0
    1.8210    0.3569   -1.9956 H   0  0  0  0  0  0  0  0  0  0  0  0
    1.2652    1.9804   -1.3083 H   0  0  0  0  0  0  0  0  0  0  0  0
    1.8449    1.1458    0.9793 H   0  0  0  0  0  0  0  0  0  0  0  0
    2.4360   -0.4699    0.2709 H   0  0  0  0  0  0  0  0  0  0  0  0
  1  2  1  0
  2  3  1  0
  3  4  1  0
  4  5  1  0
  5  6  1  0
  6  7  1  0
  7  8  1  0
  6  2  1  0
  5  3  1  0
  8  6  1  0
  1  9  1  0
  2 10  1  0
  3 11  1  0
  4 12  1  0
  4 13  1  0
  5 14  1  0
  7 15  1  0
  7 16  1  0
  8 17  1  0
  8 18  1  0
M  END
