
     RDKit          3D

 17 18  0  0  0  0  0  0  0  0999 V2000
    2.0330   -0.4774    0.4619 O   0  0  0  0  0  0  0  0  0  0  0  0
    1.2063    0.0143   -0.5561 C   0  0  0  0  0  0  0  0  0  0  0  0
    0.6737    1.3139   -0.0824 C   0  0  0  0  0  0  0  0  0  0  0  0
   -0.6361    1.5239   -0.0793 C   0  0  0  0  0  0  0  0  0  0  0  0
   -1.5183    0.3308   -0.1879 C   0  0  0  0  0  0  0  0  0  0  0  0
   -1.3097   -0.6198    0.9556 C   0  0  0  0  0  0  0  0  0  0  0  0
   -0.3398   -1.4342    0.5931 C   0  0  0  0  0  0  0  0  0  0  0  0
    0.1025   -0.9941   -0.7468 C   0  0  0  0  0  0  0  0  0  0  0  0
   -1.0588   -0.4278   -1.2634 O   0  0  0  0  0  0  0  0  0  0  0  0
    2.7400    0.1447    0.7217 H   0  0  0  0  0  0  0  0  0  0  0  0
    1.8203    0.1618   -1.4496 H   0  0  0  0  0  0  0  0  0  0  0  0
    1.3399    2.0819    0.2564 H   0  0  0  0  0  0  0  0  0  0  0  0
   -1.0752    2.5121   -0.0020 H   0  0  0  0  0  0  0  0  0  0  0  0
   -2.5794    0.5656   -0.2422 H   0  0  0  0  0  0  0  0  0  0  0  0
   -1.8541   -0.6238    1.8856 H   0  0  0  0  0  0  0  0  0  0  0  0
    0.0554   -2.2515    1.1480 H   0  0  0  0  0  0  0  0  0  0  0  0
    0.4004   -1.8204   -1.4128 H   0  0  0  0  0  0  0  0  0  0  0  0
  1  2  1  0
  2  3  1  0
  3  4  2  0
  4  5  1  0
  5  6  1  0
  6  7  2  0
  7  8  1  0
  8  9  1  0
  8  2  1  0
  9  5  1  0
  1 10  1  0
  2 11  1  0
  3 12  1  0
  4 13  1  0
  5 14  1  0
  6 15  1  0
  7 16  1  0
  8 17  1  0
M  END
