
     RDKit          3D

 19 20  0  0  0  0  0  0  0  0999 V2000
   -2.2112    0.4707    0.0291 O   0  0  0  0  0  0  0  0  0  0  0  0
   -0.9511    0.1865   -0.4718 C   0  0  0  0  0  0  0  0  0  0  0  0
   -0.2988   -1.0442    0.1360 C   0  0  0  0  0  0  0  0  0  0  0  0
   -1.0145   -2.1381    0.3355 O   0  0  0  0  0  0  0  0  0  0  0  0
    1.0172   -1.0774   -0.5721 C   0  0  0  0  0  0  0  0  0  0  0  0
    1.4098    0.4080   -0.4452 C   0  0  0  0  0  0  0  0  0  0  0  0
    0.1875    0.9196    0.2493 C   0  0  0  0  0  0  0  0  0  0  0  0
    0.0363    2.1963    0.5509 O   0  0  0  0  0  0  0  0  0  0  0  0
    0.0096   -0.1366    1.3363 C   0  0  0  0  0  0  0  0  0  0  0  0
   -2.5639    1.2318   -0.4926 H   0  0  0  0  0  0  0  0  0  0  0  0
   -0.8135    0.2909   -1.5566 H   0  0  0  0  0  0  0  0  0  0  0  0
   -1.9562   -2.0923    0.0591 H   0  0  0  0  0  0  0  0  0  0  0  0
    1.7673   -1.7357   -0.1341 H   0  0  0  0  0  0  0  0  0  0  0  0
    0.8039   -1.2928   -1.6528 H   0  0  0  0  0  0  0  0  0  0  0  0
    2.2735    0.4443    0.2672 H   0  0  0  0  0  0  0  0  0  0  0  0
    1.6149    0.8619   -1.4110 H   0  0  0  0  0  0  0  0  0  0  0  0
    0.5942    2.7861   -0.0171 H   0  0  0  0  0  0  0  0  0  0  0  0
   -0.8521    0.1137    1.9543 H   0  0  0  0  0  0  0  0  0  0  0  0
    0.9471   -0.3928    1.8358 H   0  0  0  0  0  0  0  0  0  0  0  0
  1  2  1  0
  2  3  1  0
  3  4  1  0
  3  5  1  0
  5  6  1  0
  6  7  1  0
  7  8  1  0
  7  9  1  0
  7  2  1  0
  9  3  1  0
  1 10  1  0
  2 11  1  0
  4 12  1  0
  5 13  1  0
  5 14  1  0
  6 15  1  0
  6 16  1  0
  8 17  1  0
  9 18  1  0
  9 19  1  0
M  END
