
     RDKit          3D

 19 21  0  0  0  0  0  0  0  0999 V2000
    1.6141   -0.6790    1.4114 O   0  0  0  0  0  0  0  0  0  0  0  0
    1.4083   -0.8418    0.0480 C   0  0  0  0  0  0  0  0  0  0  0  0
    1.0121    0.3397   -0.8070 C   0  0  0  0  0  0  0  0  0  0  0  0
    0.4922    1.4804   -0.0850 C   0  0  0  0  0  0  0  0  0  0  0  0
   -0.8369    1.5675    0.2661 O   0  0  0  0  0  0  0  0  0  0  0  0
   -1.2115    0.3643    0.7519 C   0  0  0  0  0  0  0  0  0  0  0  0
   -2.2065   -0.5843    0.3963 C   0  0  0  0  0  0  0  0  0  0  0  0
   -1.1600   -0.4741   -0.5607 C   0  0  0  0  0  0  0  0  0  0  0  0
    0.1907   -0.9857   -0.6663 C   0  0  0  0  0  0  0  0  0  0  0  0
    2.3493   -0.0307    1.5698 H   0  0  0  0  0  0  0  0  0  0  0  0
    2.3428   -1.3285   -0.3770 H   0  0  0  0  0  0  0  0  0  0  0  0
    1.4429    0.4730   -1.8191 H   0  0  0  0  0  0  0  0  0  0  0  0
    1.0697    1.6057    0.8814 H   0  0  0  0  0  0  0  0  0  0  0  0
    0.7646    2.4195   -0.6558 H   0  0  0  0  0  0  0  0  0  0  0  0
   -0.5464    0.0720    1.5874 H   0  0  0  0  0  0  0  0  0  0  0  0
   -3.2321   -0.2311    0.1728 H   0  0  0  0  0  0  0  0  0  0  0  0
   -2.2716   -1.5501    0.9739 H   0  0  0  0  0  0  0  0  0  0  0  0
   -1.4765    0.0631   -1.5141 H   0  0  0  0  0  0  0  0  0  0  0  0
    0.2548   -1.6798   -1.5740 H   0  0  0  0  0  0  0  0  0  0  0  0
  1  2  1  0
  2  3  1  0
  3  4  1  0
  4  5  1  0
  5  6  1  0
  6  7  1  0
  7  8  1  0
  8  9  1  0
  9  2  1  0
  9  3  1  0
  8  6  1  0
  1 10  1  0
  2 11  1  0
  3 12  1  0
  4 13  1  0
  4 14  1  0
  6 15  1  0
  7 16  1  0
  7 17  1  0
  8 18  1  0
  9 19  1  0
M  END
