
     RDKit          3D

 21 22  0  0  0  0  0  0  0  0999 V2000
    3.0144    0.3930    1.4361 O   0  0  0  0  0  0  0  0  0  0  0  0
    2.7133   -0.2292    0.2432 C   0  0  0  0  0  0  0  0  0  0  0  0
    2.3398    0.6273   -0.9199 C   0  0  0  0  0  0  0  0  0  0  0  0
    1.3187   -0.3302   -0.2382 C   0  0  0  0  0  0  0  0  0  0  0  0
    0.2872    0.3461    0.3834 O   0  0  0  0  0  0  0  0  0  0  0  0
   -0.8965   -0.2404   -0.0212 C   0  0  0  0  0  0  0  0  0  0  0  0
   -1.6987   -0.6516    1.2134 C   0  0  0  0  0  0  0  0  0  0  0  0
   -2.9396   -0.2022    0.4660 C   0  0  0  0  0  0  0  0  0  0  0  0
   -2.0165    0.6973   -0.3642 C   0  0  0  0  0  0  0  0  0  0  0  0
    3.8461    0.9338    1.3325 H   0  0  0  0  0  0  0  0  0  0  0  0
    3.3678   -1.0898   -0.0140 H   0  0  0  0  0  0  0  0  0  0  0  0
    2.6844    0.3499   -1.9412 H   0  0  0  0  0  0  0  0  0  0  0  0
    2.1954    1.7127   -0.7709 H   0  0  0  0  0  0  0  0  0  0  0  0
    1.0165   -1.1514   -0.8927 H   0  0  0  0  0  0  0  0  0  0  0  0
   -0.7875   -1.0866   -0.7225 H   0  0  0  0  0  0  0  0  0  0  0  0
   -1.5328    0.0111    2.0893 H   0  0  0  0  0  0  0  0  0  0  0  0
   -1.6178   -1.7145    1.4282 H   0  0  0  0  0  0  0  0  0  0  0  0
   -3.6757    0.3535    1.0566 H   0  0  0  0  0  0  0  0  0  0  0  0
   -3.3342   -1.0701   -0.1202 H   0  0  0  0  0  0  0  0  0  0  0  0
   -1.9473    1.7159    0.0089 H   0  0  0  0  0  0  0  0  0  0  0  0
   -2.3370    0.6255   -1.4225 H   0  0  0  0  0  0  0  0  0  0  0  0
  1  2  1  0
  2  3  1  0
  3  4  1  0
  4  5  1  0
  5  6  1  0
  6  7  1  0
  7  8  1  0
  8  9  1  0
  4  2  1  0
  9  6  1  0
  1 10  1  0
  2 11  1  0
  3 12  1  0
  3 13  1  0
  4 14  1  0
  6 15  1  0
  7 16  1  0
  7 17  1  0
  8 18  1  0
  8 19  1  0
  9 20  1  0
  9 21  1  0
M  END
