
     RDKit          3D

 21 22  0  0  0  0  0  0  0  0999 V2000
   -1.3587   -1.0439    1.3592 O   0  0  0  0  0  0  0  0  0  0  0  0
   -1.2750   -0.5864    0.0659 C   0  0  0  0  0  0  0  0  0  0  0  0
   -1.7781    0.8522   -0.0776 C   0  0  0  0  0  0  0  0  0  0  0  0
   -0.5437    1.6922   -0.4514 C   0  0  0  0  0  0  0  0  0  0  0  0
    0.5255    0.8675    0.0917 C   0  0  0  0  0  0  0  0  0  0  0  0
    1.7711    0.9067   -0.4141 O   0  0  0  0  0  0  0  0  0  0  0  0
    2.3492   -0.3304   -0.0341 C   0  0  0  0  0  0  0  0  0  0  0  0
    1.1638   -1.2658    0.2659 C   0  0  0  0  0  0  0  0  0  0  0  0
    0.0942   -0.5229   -0.4377 C   0  0  0  0  0  0  0  0  0  0  0  0
   -2.0221   -1.8027    1.3964 H   0  0  0  0  0  0  0  0  0  0  0  0
   -1.9213   -1.1984   -0.6139 H   0  0  0  0  0  0  0  0  0  0  0  0
   -2.2185    1.2005    0.8637 H   0  0  0  0  0  0  0  0  0  0  0  0
   -2.4826    0.9651   -0.9102 H   0  0  0  0  0  0  0  0  0  0  0  0
   -0.6999    2.6781    0.0287 H   0  0  0  0  0  0  0  0  0  0  0  0
   -0.4913    1.8003   -1.5593 H   0  0  0  0  0  0  0  0  0  0  0  0
    0.4613    0.8180    1.1952 H   0  0  0  0  0  0  0  0  0  0  0  0
    3.0063   -0.2207    0.8395 H   0  0  0  0  0  0  0  0  0  0  0  0
    2.8574   -0.8015   -0.9128 H   0  0  0  0  0  0  0  0  0  0  0  0
    0.9968   -1.1670    1.3642 H   0  0  0  0  0  0  0  0  0  0  0  0
    1.3497   -2.2828   -0.0609 H   0  0  0  0  0  0  0  0  0  0  0  0
    0.2157   -0.5580   -1.5344 H   0  0  0  0  0  0  0  0  0  0  0  0
  1  2  1  0
  2  3  1  0
  3  4  1  0
  4  5  1  0
  5  6  1  0
  6  7  1  0
  7  8  1  0
  8  9  1  0
  9  2  1  0
  9  5  1  0
  1 10  1  0
  2 11  1  0
  3 12  1  0
  3 13  1  0
  4 14  1  0
  4 15  1  0
  5 16  1  0
  7 17  1  0
  7 18  1  0
  8 19  1  0
  8 20  1  0
  9 21  1  0
M  END
