
     RDKit          3D

 17 18  0  0  0  0  0  0  0  0999 V2000
    2.4843    0.4184    0.0514 O   0  0  0  0  0  0  0  0  0  0  0  0
    1.3074   -0.0610   -0.5258 C   0  0  0  0  0  0  0  0  0  0  0  0
    0.9564   -1.4140    0.0471 C   0  0  0  0  0  0  0  0  0  0  0  0
   -0.2948   -1.5364    0.4636 C   0  0  0  0  0  0  0  0  0  0  0  0
   -1.1371   -0.3190    0.5796 C   0  0  0  0  0  0  0  0  0  0  0  0
   -0.2904    0.6634    1.1362 O   0  0  0  0  0  0  0  0  0  0  0  0
    0.1990    0.8865   -0.1390 C   0  0  0  0  0  0  0  0  0  0  0  0
   -1.1402    0.4927   -0.6859 C   0  0  0  0  0  0  0  0  0  0  0  0
   -2.0525    1.5259   -0.6146 O   0  0  0  0  0  0  0  0  0  0  0  0
    2.3055    0.8276    0.9361 H   0  0  0  0  0  0  0  0  0  0  0  0
    1.4482   -0.1399   -1.6068 H   0  0  0  0  0  0  0  0  0  0  0  0
    1.7032   -2.2006    0.0957 H   0  0  0  0  0  0  0  0  0  0  0  0
   -0.6879   -2.5069    0.7125 H   0  0  0  0  0  0  0  0  0  0  0  0
   -2.0759   -0.4137    1.1161 H   0  0  0  0  0  0  0  0  0  0  0  0
    0.4594    1.9649   -0.2551 H   0  0  0  0  0  0  0  0  0  0  0  0
   -1.1424   -0.0537   -1.6268 H   0  0  0  0  0  0  0  0  0  0  0  0
   -2.0423    1.8658    0.3156 H   0  0  0  0  0  0  0  0  0  0  0  0
  1  2  1  0
  2  3  1  0
  3  4  2  0
  4  5  1  0
  5  6  1  0
  6  7  1  0
  7  8  1  0
  8  9  1  0
  7  2  1  0
  8  5  1  0
  1 10  1  0
  2 11  1  0
  3 12  1  0
  4 13  1  0
  5 14  1  0
  7 15  1  0
  8 16  1  0
  9 17  1  0
M  END
