
     RDKit          3D

 19 21  0  0  0  0  0  0  0  0999 V2000
    1.9976   -0.9216    1.1578 O   0  0  0  0  0  0  0  0  0  0  0  0
    1.4355   -0.8150   -0.1016 C   0  0  0  0  0  0  0  0  0  0  0  0
    1.7502    0.3475   -0.9891 C   0  0  0  0  0  0  0  0  0  0  0  0
    0.4792    0.3508   -0.2851 C   0  0  0  0  0  0  0  0  0  0  0  0
    0.1587    1.2147    0.8534 C   0  0  0  0  0  0  0  0  0  0  0  0
   -1.1521    1.3273    1.0017 C   0  0  0  0  0  0  0  0  0  0  0  0
   -1.8662    0.5381   -0.0383 C   0  0  0  0  0  0  0  0  0  0  0  0
   -1.6717   -0.9513   -0.0265 C   0  0  0  0  0  0  0  0  0  0  0  0
   -0.8268   -0.0406   -0.9121 C   0  0  0  0  0  0  0  0  0  0  0  0
    2.3199   -1.8628    1.3260 H   0  0  0  0  0  0  0  0  0  0  0  0
    1.1826   -1.7941   -0.5706 H   0  0  0  0  0  0  0  0  0  0  0  0
    1.8482    0.2100   -2.0815 H   0  0  0  0  0  0  0  0  0  0  0  0
    2.5521    1.0176   -0.5779 H   0  0  0  0  0  0  0  0  0  0  0  0
    0.8841    1.6946    1.4857 H   0  0  0  0  0  0  0  0  0  0  0  0
   -1.6840    1.9059    1.7641 H   0  0  0  0  0  0  0  0  0  0  0  0
   -2.8385    0.8981   -0.4115 H   0  0  0  0  0  0  0  0  0  0  0  0
   -1.2389   -1.3444    0.9038 H   0  0  0  0  0  0  0  0  0  0  0  0
   -2.3981   -1.6103   -0.5141 H   0  0  0  0  0  0  0  0  0  0  0  0
   -0.9319   -0.1644   -1.9843 H   0  0  0  0  0  0  0  0  0  0  0  0
  1  2  1  0
  2  3  1  0
  3  4  1  0
  4  5  1  0
  5  6  2  0
  6  7  1  0
  7  8  1  0
  8  9  1  0
  4  2  1  0
  9  7  1  0
  9  4  1  0
  1 10  1  0
  2 11  1  0
  3 12  1  0
  3 13  1  0
  5 14  1  0
  6 15  1  0
  7 16  1  0
  8 17  1  0
  8 18  1  0
  9 19  1  0
M  END
