
     RDKit          3D

 19 21  0  0  0  0  0  0  0  0999 V2000
    2.2728    1.0333    0.8682 O   0  0  0  0  0  0  0  0  0  0  0  0
    0.8859    0.9987    0.8525 C   0  0  0  0  0  0  0  0  0  0  0  0
    0.3522    0.7383   -0.5632 C   0  0  0  0  0  0  0  0  0  0  0  0
   -1.1783    0.8074   -0.5517 C   0  0  0  0  0  0  0  0  0  0  0  0
   -1.5248   -0.5178    0.0666 C   0  0  0  0  0  0  0  0  0  0  0  0
   -0.5600   -1.4417   -0.6994 C   0  0  0  0  0  0  0  0  0  0  0  0
    0.6907   -0.6879   -0.3320 C   0  0  0  0  0  0  0  0  0  0  0  0
    0.4169   -0.4343    1.1537 C   0  0  0  0  0  0  0  0  0  0  0  0
   -0.9456   -0.5536    1.3312 O   0  0  0  0  0  0  0  0  0  0  0  0
    2.6229    1.2493   -0.0362 H   0  0  0  0  0  0  0  0  0  0  0  0
    0.3665    1.7776    1.4058 H   0  0  0  0  0  0  0  0  0  0  0  0
    0.8442    1.2846   -1.3571 H   0  0  0  0  0  0  0  0  0  0  0  0
   -1.4797    1.5987    0.1653 H   0  0  0  0  0  0  0  0  0  0  0  0
   -1.5936    0.9506   -1.5558 H   0  0  0  0  0  0  0  0  0  0  0  0
   -2.5473   -0.8236    0.0130 H   0  0  0  0  0  0  0  0  0  0  0  0
   -0.7768   -1.4527   -1.7729 H   0  0  0  0  0  0  0  0  0  0  0  0
   -0.5416   -2.4556   -0.2343 H   0  0  0  0  0  0  0  0  0  0  0  0
    1.6420   -1.0827   -0.5960 H   0  0  0  0  0  0  0  0  0  0  0  0
    1.0535   -0.9886    1.8423 H   0  0  0  0  0  0  0  0  0  0  0  0
  1  2  1  0
  2  3  1  0
  3  4  1  0
  4  5  1  0
  5  6  1  0
  6  7  1  0
  7  8  1  0
  8  9  1  0
  8  2  1  0
  7  3  1  0
  9  5  1  0
  1 10  1  0
  2 11  1  0
  3 12  1  0
  4 13  1  0
  4 14  1  0
  5 15  1  0
  6 16  1  0
  6 17  1  0
  7 18  1  0
  8 19  1  0
M  END
