
     RDKit          3D

 19 20  0  0  0  0  0  0  0  0999 V2000
   -1.1675    2.3525    0.0964 O   0  0  0  0  0  0  0  0  0  0  0  0
   -0.8449    1.0390    0.3852 C   0  0  0  0  0  0  0  0  0  0  0  0
   -1.9252    0.0767   -0.1081 C   0  0  0  0  0  0  0  0  0  0  0  0
   -1.1692   -1.2561   -0.1070 C   0  0  0  0  0  0  0  0  0  0  0  0
    0.2610   -0.9119   -0.0117 C   0  0  0  0  0  0  0  0  0  0  0  0
    1.4877   -1.2954    0.2678 C   0  0  0  0  0  0  0  0  0  0  0  0
    2.3909   -0.1304    0.0528 C   0  0  0  0  0  0  0  0  0  0  0  0
    1.5545    0.9905    0.0363 O   0  0  0  0  0  0  0  0  0  0  0  0
    0.3311    0.5399   -0.4267 C   0  0  0  0  0  0  0  0  0  0  0  0
   -0.3920    2.9297    0.1325 H   0  0  0  0  0  0  0  0  0  0  0  0
   -0.6207    0.8468    1.4355 H   0  0  0  0  0  0  0  0  0  0  0  0
   -2.7949    0.0587    0.5613 H   0  0  0  0  0  0  0  0  0  0  0  0
   -2.1882    0.3140   -1.1552 H   0  0  0  0  0  0  0  0  0  0  0  0
   -1.3793   -1.8162   -1.0450 H   0  0  0  0  0  0  0  0  0  0  0  0
   -1.5479   -1.8202    0.7795 H   0  0  0  0  0  0  0  0  0  0  0  0
    1.8335   -2.2739    0.5997 H   0  0  0  0  0  0  0  0  0  0  0  0
    3.1147   -0.0500    0.8951 H   0  0  0  0  0  0  0  0  0  0  0  0
    2.9052   -0.2770   -0.9018 H   0  0  0  0  0  0  0  0  0  0  0  0
    0.1513    0.6834   -1.4865 H   0  0  0  0  0  0  0  0  0  0  0  0
  1  2  1  0
  2  3  1  0
  3  4  1  0
  4  5  1  0
  5  6  2  0
  6  7  1  0
  7  8  1  0
  8  9  1  0
  9  2  1  0
  9  5  1  0
  1 10  1  0
  2 11  1  0
  3 12  1  0
  3 13  1  0
  4 14  1  0
  4 15  1  0
  6 16  1  0
  7 17  1  0
  7 18  1  0
  9 19  1  0
M  END
