
     RDKit          3D

 21 22  0  0  0  0  0  0  0  0999 V2000
   -2.0026   -1.8272    0.1194 O   0  0  0  0  0  0  0  0  0  0  0  0
   -1.5483   -0.5575    0.3699 C   0  0  0  0  0  0  0  0  0  0  0  0
   -2.0451    0.4964   -0.6257 C   0  0  0  0  0  0  0  0  0  0  0  0
   -0.6037    0.7546   -1.0633 C   0  0  0  0  0  0  0  0  0  0  0  0
   -0.1670   -0.2076    0.0008 C   0  0  0  0  0  0  0  0  0  0  0  0
    0.6555    0.4802    1.1028 C   0  0  0  0  0  0  0  0  0  0  0  0
    1.9727    0.5927    0.3217 C   0  0  0  0  0  0  0  0  0  0  0  0
    1.9670   -0.7580   -0.3548 C   0  0  0  0  0  0  0  0  0  0  0  0
    0.6775   -1.2095   -0.3993 O   0  0  0  0  0  0  0  0  0  0  0  0
   -2.0825   -2.3497    0.9661 H   0  0  0  0  0  0  0  0  0  0  0  0
   -1.8167   -0.2293    1.3995 H   0  0  0  0  0  0  0  0  0  0  0  0
   -2.6628    0.0717   -1.4321 H   0  0  0  0  0  0  0  0  0  0  0  0
   -2.4346    1.4167   -0.1538 H   0  0  0  0  0  0  0  0  0  0  0  0
   -0.2489    1.7779   -0.9241 H   0  0  0  0  0  0  0  0  0  0  0  0
   -0.4025    0.4043   -2.1044 H   0  0  0  0  0  0  0  0  0  0  0  0
    0.2507    1.4469    1.3819 H   0  0  0  0  0  0  0  0  0  0  0  0
    0.8307   -0.2292    1.9158 H   0  0  0  0  0  0  0  0  0  0  0  0
    2.8263    0.7598    0.9714 H   0  0  0  0  0  0  0  0  0  0  0  0
    1.8398    1.3499   -0.4793 H   0  0  0  0  0  0  0  0  0  0  0  0
    2.4557   -0.7385   -1.3488 H   0  0  0  0  0  0  0  0  0  0  0  0
    2.5387   -1.4449    0.3364 H   0  0  0  0  0  0  0  0  0  0  0  0
  1  2  1  0
  2  3  1  0
  3  4  1  0
  4  5  1  0
  5  6  1  0
  6  7  1  0
  7  8  1  0
  8  9  1  0
  5  2  1  0
  9  5  1  0
  1 10  1  0
  2 11  1  0
  3 12  1  0
  3 13  1  0
  4 14  1  0
  4 15  1  0
  6 16  1  0
  6 17  1  0
  7 18  1  0
  7 19  1  0
  8 20  1  0
  8 21  1  0
M  END
