
     RDKit          3D

 16 18  0  0  0  0  0  0  0  0999 V2000
   -1.7829    0.9710   -0.9644 O   0  0  0  0  0  0  0  0  0  0  0  0
   -0.4431    0.8281   -0.6557 C   0  0  0  0  0  0  0  0  0  0  0  0
   -0.3189    0.3847    0.8090 C   0  0  0  0  0  0  0  0  0  0  0  0
   -0.7320   -0.9756    0.3074 C   0  0  0  0  0  0  0  0  0  0  0  0
    0.0937   -0.5701   -0.9246 C   0  0  0  0  0  0  0  0  0  0  0  0
    1.4677   -0.5070   -0.3584 C   0  0  0  0  0  0  0  0  0  0  0  0
    1.9897    0.7311   -0.0765 O   0  0  0  0  0  0  0  0  0  0  0  0
    1.1693    0.2580    0.9467 C   0  0  0  0  0  0  0  0  0  0  0  0
   -2.1636    1.7489   -0.4826 H   0  0  0  0  0  0  0  0  0  0  0  0
    0.2212    1.6511   -0.9069 H   0  0  0  0  0  0  0  0  0  0  0  0
   -0.8977    0.8885    1.5323 H   0  0  0  0  0  0  0  0  0  0  0  0
   -0.3519   -1.8414    0.8483 H   0  0  0  0  0  0  0  0  0  0  0  0
   -1.8278   -1.0299    0.0730 H   0  0  0  0  0  0  0  0  0  0  0  0
   -0.1221   -1.0399   -1.8424 H   0  0  0  0  0  0  0  0  0  0  0  0
    2.0571   -1.4232   -0.1755 H   0  0  0  0  0  0  0  0  0  0  0  0
    1.6411   -0.0743    1.8702 H   0  0  0  0  0  0  0  0  0  0  0  0
  1  2  1  0
  2  3  1  0
  3  4  1  0
  4  5  1  0
  5  6  1  0
  6  7  1  0
  7  8  1  0
  5  2  1  0
  8  6  1  0
  8  3  1  0
  1  9  1  0
  2 10  1  0
  3 11  1  0
  4 12  1  0
  4 13  1  0
  5 14  1  0
  6 15  1  0
  8 16  1  0
M  END
