
     RDKit          3D

 16 18  0  0  0  0  0  0  0  0999 V2000
   -2.2642    1.0147    0.5624 O   0  0  0  0  0  0  0  0  0  0  0  0
   -1.3825   -0.0311    0.7377 C   0  0  0  0  0  0  0  0  0  0  0  0
   -1.1297   -0.8999   -0.5200 C   0  0  0  0  0  0  0  0  0  0  0  0
   -0.1059   -0.0890    0.1498 C   0  0  0  0  0  0  0  0  0  0  0  0
    0.6724    0.8959   -0.6033 C   0  0  0  0  0  0  0  0  0  0  0  0
    1.9208    0.1060   -0.2034 C   0  0  0  0  0  0  0  0  0  0  0  0
    1.9455   -1.2511   -0.3509 O   0  0  0  0  0  0  0  0  0  0  0  0
    1.1461   -0.7090    0.6582 C   0  0  0  0  0  0  0  0  0  0  0  0
   -1.9605    1.6877   -0.0958 H   0  0  0  0  0  0  0  0  0  0  0  0
   -1.6048   -0.6371    1.6564 H   0  0  0  0  0  0  0  0  0  0  0  0
   -1.0500   -1.9942   -0.3533 H   0  0  0  0  0  0  0  0  0  0  0  0
   -1.6227   -0.5938   -1.4526 H   0  0  0  0  0  0  0  0  0  0  0  0
    0.7415    1.9167   -0.1435 H   0  0  0  0  0  0  0  0  0  0  0  0
    0.5366    0.9439   -1.7009 H   0  0  0  0  0  0  0  0  0  0  0  0
    2.8569    0.6171   -0.0378 H   0  0  0  0  0  0  0  0  0  0  0  0
    1.3005   -0.9767    1.6969 H   0  0  0  0  0  0  0  0  0  0  0  0
  1  2  1  0
  2  3  1  0
  3  4  1  0
  4  5  1  0
  5  6  1  0
  6  7  1  0
  7  8  1  0
  4  2  1  0
  8  6  1  0
  8  4  1  0
  1  9  1  0
  2 10  1  0
  3 11  1  0
  3 12  1  0
  5 13  1  0
  5 14  1  0
  6 15  1  0
  8 16  1  0
M  END
