
     RDKit          3D

 19 22  0  0  0  0  0  0  0  0999 V2000
    2.3573    0.3024    0.1506 O   0  0  0  0  0  0  0  0  0  0  0  0
    1.2604   -0.2057   -0.4936 C   0  0  0  0  0  0  0  0  0  0  0  0
    0.2243    0.8771   -0.8228 C   0  0  0  0  0  0  0  0  0  0  0  0
   -0.0276    1.3749    0.6077 C   0  0  0  0  0  0  0  0  0  0  0  0
   -0.4839    0.0226    1.1777 C   0  0  0  0  0  0  0  0  0  0  0  0
    0.3537   -0.9985    0.4665 C   0  0  0  0  0  0  0  0  0  0  0  0
   -0.7928   -1.2489   -0.4517 C   0  0  0  0  0  0  0  0  0  0  0  0
   -1.0023    0.0891   -1.0901 C   0  0  0  0  0  0  0  0  0  0  0  0
   -1.5973   -0.2852    0.2290 C   0  0  0  0  0  0  0  0  0  0  0  0
    2.8118   -0.4666    0.6080 H   0  0  0  0  0  0  0  0  0  0  0  0
    1.4852   -0.8390   -1.3548 H   0  0  0  0  0  0  0  0  0  0  0  0
    0.5374    1.6116   -1.5092 H   0  0  0  0  0  0  0  0  0  0  0  0
    0.8717    1.7467    1.0859 H   0  0  0  0  0  0  0  0  0  0  0  0
   -0.8745    2.0672    0.5591 H   0  0  0  0  0  0  0  0  0  0  0  0
   -0.6316   -0.0404    2.2278 H   0  0  0  0  0  0  0  0  0  0  0  0
    0.8049   -1.7941    1.0101 H   0  0  0  0  0  0  0  0  0  0  0  0
   -1.0354   -2.1823   -0.9022 H   0  0  0  0  0  0  0  0  0  0  0  0
   -1.6289    0.2321   -1.9625 H   0  0  0  0  0  0  0  0  0  0  0  0
   -2.6325   -0.2630    0.4645 H   0  0  0  0  0  0  0  0  0  0  0  0
  1  2  1  0
  2  3  1  0
  3  4  1  0
  4  5  1  0
  5  6  1  0
  6  7  1  0
  7  8  1  0
  8  9  1  0
  6  2  1  0
  9  7  1  0
  8  3  1  0
  9  5  1  0
  1 10  1  0
  2 11  1  0
  3 12  1  0
  4 13  1  0
  4 14  1  0
  5 15  1  0
  6 16  1  0
  7 17  1  0
  8 18  1  0
  9 19  1  0
M  END
