
     RDKit          3D

 19 21  0  0  0  0  0  0  0  0999 V2000
   -0.7155    2.4098   -0.3628 O   0  0  0  0  0  0  0  0  0  0  0  0
   -0.3618    1.1772    0.1488 C   0  0  0  0  0  0  0  0  0  0  0  0
   -1.3756    0.1299   -0.2467 C   0  0  0  0  0  0  0  0  0  0  0  0
   -1.0488   -1.1238    0.5389 C   0  0  0  0  0  0  0  0  0  0  0  0
   -0.1873   -1.3518   -0.6406 C   0  0  0  0  0  0  0  0  0  0  0  0
   -1.0523   -0.5429   -1.3975 O   0  0  0  0  0  0  0  0  0  0  0  0
    1.1428   -0.6862   -0.6130 C   0  0  0  0  0  0  0  0  0  0  0  0
    1.7814   -0.1866    0.6132 C   0  0  0  0  0  0  0  0  0  0  0  0
    1.0259    0.7548   -0.2580 C   0  0  0  0  0  0  0  0  0  0  0  0
   -1.3870    2.8652    0.1867 H   0  0  0  0  0  0  0  0  0  0  0  0
   -0.3700    1.1984    1.2778 H   0  0  0  0  0  0  0  0  0  0  0  0
   -2.4017    0.5036   -0.1436 H   0  0  0  0  0  0  0  0  0  0  0  0
   -0.5960   -0.9654    1.5141 H   0  0  0  0  0  0  0  0  0  0  0  0
   -1.9313   -1.7951    0.5255 H   0  0  0  0  0  0  0  0  0  0  0  0
   -0.1443   -2.4040   -0.9370 H   0  0  0  0  0  0  0  0  0  0  0  0
    1.7681   -0.8899   -1.5078 H   0  0  0  0  0  0  0  0  0  0  0  0
    1.4002   -0.5504    1.5678 H   0  0  0  0  0  0  0  0  0  0  0  0
    2.8813   -0.0465    0.5973 H   0  0  0  0  0  0  0  0  0  0  0  0
    1.5720    1.5040   -0.8631 H   0  0  0  0  0  0  0  0  0  0  0  0
  1  2  1  0
  2  3  1  0
  3  4  1  0
  4  5  1  0
  5  6  1  0
  5  7  1  0
  7  8  1  0
  8  9  1  0
  9  2  1  0
  6  3  1  0
  9  7  1  0
  1 10  1  0
  2 11  1  0
  3 12  1  0
  4 13  1  0
  4 14  1  0
  5 15  1  0
  7 16  1  0
  8 17  1  0
  8 18  1  0
  9 19  1  0
M  END
