
     RDKit          3D

 19 20  0  0  0  0  0  0  0  0999 V2000
    2.0817    0.4299   -0.8028 O   0  0  0  0  0  0  0  0  0  0  0  0
    1.4841   -0.1214    0.3277 C   0  0  0  0  0  0  0  0  0  0  0  0
    0.6410    0.9767    0.9238 C   0  0  0  0  0  0  0  0  0  0  0  0
   -0.4842    1.4553    0.3919 C   0  0  0  0  0  0  0  0  0  0  0  0
   -1.3691    0.8726   -0.6841 C   0  0  0  0  0  0  0  0  0  0  0  0
   -1.2075   -0.6248   -0.7546 C   0  0  0  0  0  0  0  0  0  0  0  0
   -0.7494   -1.2402    0.5219 C   0  0  0  0  0  0  0  0  0  0  0  0
    0.6033   -1.2572   -0.1501 C   0  0  0  0  0  0  0  0  0  0  0  0
   -0.0141   -0.9664   -1.3660 O   0  0  0  0  0  0  0  0  0  0  0  0
    2.8795    0.9475   -0.6071 H   0  0  0  0  0  0  0  0  0  0  0  0
    2.1881   -0.4914    1.0711 H   0  0  0  0  0  0  0  0  0  0  0  0
    0.9675    1.4168    1.8569 H   0  0  0  0  0  0  0  0  0  0  0  0
   -0.8045    2.4126    0.8036 H   0  0  0  0  0  0  0  0  0  0  0  0
   -2.3989    1.1977   -0.5199 H   0  0  0  0  0  0  0  0  0  0  0  0
   -0.9302    1.2719   -1.6457 H   0  0  0  0  0  0  0  0  0  0  0  0
   -2.0754   -1.1056   -1.2418 H   0  0  0  0  0  0  0  0  0  0  0  0
   -0.8312   -0.6611    1.4387 H   0  0  0  0  0  0  0  0  0  0  0  0
   -1.1166   -2.3051    0.5973 H   0  0  0  0  0  0  0  0  0  0  0  0
    1.1360   -2.2080   -0.1610 H   0  0  0  0  0  0  0  0  0  0  0  0
  1  2  1  0
  2  3  1  0
  3  4  2  0
  4  5  1  0
  5  6  1  0
  6  7  1  0
  7  8  1  0
  8  9  1  0
  8  2  1  0
  9  6  1  0
  1 10  1  0
  2 11  1  0
  3 12  1  0
  4 13  1  0
  5 14  1  0
  5 15  1  0
  6 16  1  0
  7 17  1  0
  7 18  1  0
  8 19  1  0
M  END
