
     RDKit          3D

 21 22  0  0  0  0  0  0  0  0999 V2000
   -0.5039    1.8212    1.0650 O   0  0  0  0  0  0  0  0  0  0  0  0
   -0.7028    1.2743   -0.2253 C   0  0  0  0  0  0  0  0  0  0  0  0
   -1.9254    0.4488   -0.1788 C   0  0  0  0  0  0  0  0  0  0  0  0
   -1.9342   -0.8549    0.0724 C   0  0  0  0  0  0  0  0  0  0  0  0
   -0.5998   -1.4682    0.3145 C   0  0  0  0  0  0  0  0  0  0  0  0
    0.4700   -0.9291   -0.5792 C   0  0  0  0  0  0  0  0  0  0  0  0
    1.7996   -0.8884    0.1466 C   0  0  0  0  0  0  0  0  0  0  0  0
    1.7216    0.6264    0.1858 C   0  0  0  0  0  0  0  0  0  0  0  0
    0.5121    0.5517   -0.6923 C   0  0  0  0  0  0  0  0  0  0  0  0
   -1.0467    2.6679    1.1601 H   0  0  0  0  0  0  0  0  0  0  0  0
   -0.9139    2.1469   -0.8753 H   0  0  0  0  0  0  0  0  0  0  0  0
   -2.8749    0.9403   -0.3597 H   0  0  0  0  0  0  0  0  0  0  0  0
   -2.8547   -1.4426    0.1007 H   0  0  0  0  0  0  0  0  0  0  0  0
   -0.6987   -2.5488    0.1819 H   0  0  0  0  0  0  0  0  0  0  0  0
   -0.3376   -1.2336    1.3735 H   0  0  0  0  0  0  0  0  0  0  0  0
    0.4879   -1.4784   -1.5487 H   0  0  0  0  0  0  0  0  0  0  0  0
    2.6148   -1.3005   -0.4832 H   0  0  0  0  0  0  0  0  0  0  0  0
    1.7898   -1.2926    1.1717 H   0  0  0  0  0  0  0  0  0  0  0  0
    2.6429    1.0367   -0.2918 H   0  0  0  0  0  0  0  0  0  0  0  0
    1.5792    1.0663    1.1894 H   0  0  0  0  0  0  0  0  0  0  0  0
    0.7746    0.8565   -1.7272 H   0  0  0  0  0  0  0  0  0  0  0  0
  1  2  1  0
  2  3  1  0
  3  4  2  0
  4  5  1  0
  5  6  1  0
  6  7  1  0
  7  8  1  0
  8  9  1  0
  9  2  1  0
  9  6  1  0
  1 10  1  0
  2 11  1  0
  3 12  1  0
  4 13  1  0
  5 14  1  0
  5 15  1  0
  6 16  1  0
  7 17  1  0
  7 18  1  0
  8 19  1  0
  8 20  1  0
  9 21  1  0
M  END
