
     RDKit          3D

 19 21  0  0  0  0  0  0  0  0999 V2000
    3.0275   -0.4489   -0.7757 O   0  0  0  0  0  0  0  0  0  0  0  0
    1.7176   -0.0145   -0.6234 C   0  0  0  0  0  0  0  0  0  0  0  0
    1.5215    1.1722    0.3246 C   0  0  0  0  0  0  0  0  0  0  0  0
    1.0632   -0.1696    0.6796 C   0  0  0  0  0  0  0  0  0  0  0  0
   -0.3992   -0.5460    0.7158 C   0  0  0  0  0  0  0  0  0  0  0  0
   -1.3717    0.3817    0.0587 C   0  0  0  0  0  0  0  0  0  0  0  0
   -2.7687   -0.1085   -0.1776 C   0  0  0  0  0  0  0  0  0  0  0  0
   -2.3447   -1.3761   -0.5440 O   0  0  0  0  0  0  0  0  0  0  0  0
   -1.0438   -0.9157   -0.5499 C   0  0  0  0  0  0  0  0  0  0  0  0
    3.4818   -0.4646    0.1125 H   0  0  0  0  0  0  0  0  0  0  0  0
    1.1805    0.1094   -1.5752 H   0  0  0  0  0  0  0  0  0  0  0  0
    0.8623    1.9936    0.0186 H   0  0  0  0  0  0  0  0  0  0  0  0
    2.4474    1.5386    0.8380 H   0  0  0  0  0  0  0  0  0  0  0  0
    1.6605   -0.7396    1.4494 H   0  0  0  0  0  0  0  0  0  0  0  0
   -0.8028   -1.0154    1.6548 H   0  0  0  0  0  0  0  0  0  0  0  0
   -1.0413    1.3488   -0.3327 H   0  0  0  0  0  0  0  0  0  0  0  0
   -3.3149    0.3562   -1.0192 H   0  0  0  0  0  0  0  0  0  0  0  0
   -3.3686   -0.0673    0.7499 H   0  0  0  0  0  0  0  0  0  0  0  0
   -0.5068   -1.0343   -1.4975 H   0  0  0  0  0  0  0  0  0  0  0  0
  1  2  1  0
  2  3  1  0
  3  4  1  0
  4  5  1  0
  5  6  1  0
  6  7  1  0
  7  8  1  0
  8  9  1  0
  4  2  1  0
  9  5  1  0
  9  6  1  0
  1 10  1  0
  2 11  1  0
  3 12  1  0
  3 13  1  0
  4 14  1  0
  5 15  1  0
  6 16  1  0
  7 17  1  0
  7 18  1  0
  9 19  1  0
M  END
