
     RDKit          3D

 19 21  0  0  0  0  0  0  0  0999 V2000
    1.9163   -0.1811    1.3594 O   0  0  0  0  0  0  0  0  0  0  0  0
    1.7832    0.1402    0.0131 C   0  0  0  0  0  0  0  0  0  0  0  0
    0.7021   -0.5858   -0.7793 C   0  0  0  0  0  0  0  0  0  0  0  0
   -0.2430   -1.3787    0.0570 C   0  0  0  0  0  0  0  0  0  0  0  0
   -1.3658   -0.5171    0.5987 C   0  0  0  0  0  0  0  0  0  0  0  0
   -1.7339    0.4748   -0.4632 C   0  0  0  0  0  0  0  0  0  0  0  0
   -0.5861    1.2128    0.2401 C   0  0  0  0  0  0  0  0  0  0  0  0
   -0.7684    0.4750    1.3769 O   0  0  0  0  0  0  0  0  0  0  0  0
    0.6587    0.8965   -0.5148 C   0  0  0  0  0  0  0  0  0  0  0  0
    2.6868    0.2844    1.7183 H   0  0  0  0  0  0  0  0  0  0  0  0
    2.7425    0.2085   -0.5181 H   0  0  0  0  0  0  0  0  0  0  0  0
    0.9074   -0.8693   -1.8286 H   0  0  0  0  0  0  0  0  0  0  0  0
    0.3069   -1.7591    0.9660 H   0  0  0  0  0  0  0  0  0  0  0  0
   -0.6393   -2.2755   -0.4631 H   0  0  0  0  0  0  0  0  0  0  0  0
   -2.1927   -1.0615    1.0433 H   0  0  0  0  0  0  0  0  0  0  0  0
   -1.4745    0.1410   -1.4979 H   0  0  0  0  0  0  0  0  0  0  0  0
   -2.7160    0.9265   -0.3327 H   0  0  0  0  0  0  0  0  0  0  0  0
   -0.8473    2.2670    0.3860 H   0  0  0  0  0  0  0  0  0  0  0  0
    0.8630    1.6011   -1.3612 H   0  0  0  0  0  0  0  0  0  0  0  0
  1  2  1  0
  2  3  1  0
  3  4  1  0
  4  5  1  0
  5  6  1  0
  6  7  1  0
  7  8  1  0
  7  9  1  0
  9  2  1  0
  9  3  1  0
  8  5  1  0
  1 10  1  0
  2 11  1  0
  3 12  1  0
  4 13  1  0
  4 14  1  0
  5 15  1  0
  6 16  1  0
  6 17  1  0
  7 18  1  0
  9 19  1  0
M  END
