
     RDKit          3D

 16 17  0  0  0  0  0  0  0  0999 V2000
    1.4342    1.5459    0.0589 O   0  0  0  0  0  0  0  0  0  0  0  0
    0.1766    1.0255    0.1259 C   0  0  0  0  0  0  0  0  0  0  0  0
   -0.2643    0.1421   -1.0150 C   0  0  0  0  0  0  0  0  0  0  0  0
   -1.6286   -0.2444   -0.5475 C   0  0  0  0  0  0  0  0  0  0  0  0
   -1.4204   -0.5227    0.7457 C   0  0  0  0  0  0  0  0  0  0  0  0
    0.0304   -0.2746    0.9077 C   0  0  0  0  0  0  0  0  0  0  0  0
    0.5767   -0.9474   -0.3339 C   0  0  0  0  0  0  0  0  0  0  0  0
    1.9001   -0.7915   -0.5910 O   0  0  0  0  0  0  0  0  0  0  0  0
    1.4340    2.4609    0.4696 H   0  0  0  0  0  0  0  0  0  0  0  0
   -0.6316    1.7315    0.3980 H   0  0  0  0  0  0  0  0  0  0  0  0
   -0.0772    0.3898   -2.0107 H   0  0  0  0  0  0  0  0  0  0  0  0
   -2.5391   -0.2820   -1.1265 H   0  0  0  0  0  0  0  0  0  0  0  0
   -2.1464   -0.8474    1.4763 H   0  0  0  0  0  0  0  0  0  0  0  0
    0.5096   -0.3844    1.8307 H   0  0  0  0  0  0  0  0  0  0  0  0
    0.1223   -1.9415   -0.4831 H   0  0  0  0  0  0  0  0  0  0  0  0
    2.5237   -1.0597    0.0949 H   0  0  0  0  0  0  0  0  0  0  0  0
  1  2  1  0
  2  3  1  0
  3  4  1  0
  4  5  2  0
  5  6  1  0
  6  7  1  0
  7  8  1  0
  6  2  1  0
  7  3  1  0
  1  9  1  0
  2 10  1  0
  3 11  1  0
  4 12  1  0
  5 13  1  0
  6 14  1  0
  7 15  1  0
  8 16  1  0
M  END
