
     RDKit          3D

 19 20  0  0  0  0  0  0  0  0999 V2000
    1.2987   -1.7235    0.3227 O   0  0  0  0  0  0  0  0  0  0  0  0
    0.9121   -0.5116    0.8935 C   0  0  0  0  0  0  0  0  0  0  0  0
    1.8881    0.6069    0.4875 C   0  0  0  0  0  0  0  0  0  0  0  0
    1.3076    1.0762   -0.7984 C   0  0  0  0  0  0  0  0  0  0  0  0
    0.0370    0.7232   -0.9158 C   0  0  0  0  0  0  0  0  0  0  0  0
   -0.3486   -0.0146    0.2832 C   0  0  0  0  0  0  0  0  0  0  0  0
   -1.4631   -0.9861    0.0768 C   0  0  0  0  0  0  0  0  0  0  0  0
   -2.2357    0.3003    0.2919 C   0  0  0  0  0  0  0  0  0  0  0  0
   -1.1847    0.7283    1.1020 O   0  0  0  0  0  0  0  0  0  0  0  0
    1.6152   -1.6268   -0.6115 H   0  0  0  0  0  0  0  0  0  0  0  0
    0.8831   -0.6254    1.9884 H   0  0  0  0  0  0  0  0  0  0  0  0
    2.8714    0.1318    0.2288 H   0  0  0  0  0  0  0  0  0  0  0  0
    1.9623    1.3804    1.2506 H   0  0  0  0  0  0  0  0  0  0  0  0
    1.8331    1.6494   -1.5847 H   0  0  0  0  0  0  0  0  0  0  0  0
   -0.6175    0.9510   -1.7794 H   0  0  0  0  0  0  0  0  0  0  0  0
   -1.6139   -1.3752   -0.9323 H   0  0  0  0  0  0  0  0  0  0  0  0
   -1.6276   -1.7135    0.8692 H   0  0  0  0  0  0  0  0  0  0  0  0
   -3.1959    0.1779    0.8298 H   0  0  0  0  0  0  0  0  0  0  0  0
   -2.3214    0.8512   -0.6769 H   0  0  0  0  0  0  0  0  0  0  0  0
  1  2  1  0
  2  3  1  0
  3  4  1  0
  4  5  2  0
  5  6  1  0
  6  7  1  0
  7  8  1  0
  8  9  1  0
  6  2  1  0
  9  6  1  0
  1 10  1  0
  2 11  1  0
  3 12  1  0
  3 13  1  0
  4 14  1  0
  5 15  1  0
  7 16  1  0
  7 17  1  0
  8 18  1  0
  8 19  1  0
M  END
