
     RDKit          3D

 21 22  0  0  0  0  0  0  0  0999 V2000
   -1.6001    1.6272   -1.0225 O   0  0  0  0  0  0  0  0  0  0  0  0
   -1.0076    0.8189   -0.0663 C   0  0  0  0  0  0  0  0  0  0  0  0
   -1.7631   -0.4356    0.2238 C   0  0  0  0  0  0  0  0  0  0  0  0
   -0.7416   -1.5498    0.3763 C   0  0  0  0  0  0  0  0  0  0  0  0
    0.5357   -1.0483   -0.1922 C   0  0  0  0  0  0  0  0  0  0  0  0
    1.6038   -0.6215    0.7540 C   0  0  0  0  0  0  0  0  0  0  0  0
    1.4188    0.8340    0.3943 C   0  0  0  0  0  0  0  0  0  0  0  0
    0.3363    0.4012   -0.5735 C   0  0  0  0  0  0  0  0  0  0  0  0
    0.5976    0.5954   -1.9010 O   0  0  0  0  0  0  0  0  0  0  0  0
   -1.4070    2.5873   -0.8659 H   0  0  0  0  0  0  0  0  0  0  0  0
   -0.9338    1.4486    0.8690 H   0  0  0  0  0  0  0  0  0  0  0  0
   -2.3454   -0.3398    1.1532 H   0  0  0  0  0  0  0  0  0  0  0  0
   -2.4382   -0.6252   -0.6516 H   0  0  0  0  0  0  0  0  0  0  0  0
   -0.6818   -1.9334    1.4054 H   0  0  0  0  0  0  0  0  0  0  0  0
   -1.1246   -2.4157   -0.2409 H   0  0  0  0  0  0  0  0  0  0  0  0
    0.9205   -1.6836   -1.0081 H   0  0  0  0  0  0  0  0  0  0  0  0
    1.4532   -0.8127    1.8228 H   0  0  0  0  0  0  0  0  0  0  0  0
    2.6380   -0.9398    0.4401 H   0  0  0  0  0  0  0  0  0  0  0  0
    2.2320    1.3193   -0.1388 H   0  0  0  0  0  0  0  0  0  0  0  0
    1.0870    1.4366    1.2493 H   0  0  0  0  0  0  0  0  0  0  0  0
    1.2202    1.3368   -2.0275 H   0  0  0  0  0  0  0  0  0  0  0  0
  1  2  1  0
  2  3  1  0
  3  4  1  0
  4  5  1  0
  5  6  1  0
  6  7  1  0
  7  8  1  0
  8  9  1  0
  8  2  1  0
  8  5  1  0
  1 10  1  0
  2 11  1  0
  3 12  1  0
  3 13  1  0
  4 14  1  0
  4 15  1  0
  5 16  1  0
  6 17  1  0
  6 18  1  0
  7 19  1  0
  7 20  1  0
  9 21  1  0
M  END
