
     RDKit          3D

 19 21  0  0  0  0  0  0  0  0999 V2000
    1.8994   -1.0664   -0.1559 O   0  0  0  0  0  0  0  0  0  0  0  0
    0.6971   -0.7227   -0.7278 C   0  0  0  0  0  0  0  0  0  0  0  0
    0.6954    0.8074   -0.8671 C   0  0  0  0  0  0  0  0  0  0  0  0
    0.3894    1.3025    0.4887 C   0  0  0  0  0  0  0  0  0  0  0  0
    0.0894    0.0849    1.3738 C   0  0  0  0  0  0  0  0  0  0  0  0
   -0.4084   -0.8507    0.2982 C   0  0  0  0  0  0  0  0  0  0  0  0
   -0.7520   -2.0780    0.6684 O   0  0  0  0  0  0  0  0  0  0  0  0
   -1.4844    0.0035   -0.3400 C   0  0  0  0  0  0  0  0  0  0  0  0
   -0.6562    1.2818   -0.5531 C   0  0  0  0  0  0  0  0  0  0  0  0
    2.3954   -0.2788    0.2039 H   0  0  0  0  0  0  0  0  0  0  0  0
    0.4684   -1.2102   -1.6737 H   0  0  0  0  0  0  0  0  0  0  0  0
    1.3907    1.2810   -1.5461 H   0  0  0  0  0  0  0  0  0  0  0  0
    0.7958    2.2014    0.9284 H   0  0  0  0  0  0  0  0  0  0  0  0
   -0.6588    0.2990    2.1352 H   0  0  0  0  0  0  0  0  0  0  0  0
    1.0407   -0.2615    1.7979 H   0  0  0  0  0  0  0  0  0  0  0  0
   -0.6816   -2.7139   -0.0816 H   0  0  0  0  0  0  0  0  0  0  0  0
   -1.7782   -0.4468   -1.3011 H   0  0  0  0  0  0  0  0  0  0  0  0
   -2.3165    0.2093    0.3284 H   0  0  0  0  0  0  0  0  0  0  0  0
   -1.1258    2.1582   -0.9768 H   0  0  0  0  0  0  0  0  0  0  0  0
  1  2  1  0
  2  3  1  0
  3  4  1  0
  4  5  1  0
  5  6  1  0
  6  7  1  0
  6  8  1  0
  8  9  1  0
  6  2  1  0
  9  3  1  0
  9  4  1  0
  1 10  1  0
  2 11  1  0
  3 12  1  0
  4 13  1  0
  5 14  1  0
  5 15  1  0
  7 16  1  0
  8 17  1  0
  8 18  1  0
  9 19  1  0
M  END
