
     RDKit          3D

 19 20  0  0  0  0  0  0  0  0999 V2000
   -0.8096   -1.6565    1.5538 O   0  0  0  0  0  0  0  0  0  0  0  0
   -0.0499   -0.7504    0.8203 C   0  0  0  0  0  0  0  0  0  0  0  0
    0.7898   -1.4769   -0.2472 C   0  0  0  0  0  0  0  0  0  0  0  0
    1.7774   -0.4556   -0.6509 C   0  0  0  0  0  0  0  0  0  0  0  0
    1.3131    0.7407   -0.9515 C   0  0  0  0  0  0  0  0  0  0  0  0
   -0.1420    1.0415   -0.8855 C   0  0  0  0  0  0  0  0  0  0  0  0
   -0.3842    2.1395   -0.0635 O   0  0  0  0  0  0  0  0  0  0  0  0
   -1.2680    1.4772    0.7854 C   0  0  0  0  0  0  0  0  0  0  0  0
   -0.9296    0.2001    0.0462 C   0  0  0  0  0  0  0  0  0  0  0  0
   -1.4462   -2.0641    0.8948 H   0  0  0  0  0  0  0  0  0  0  0  0
    0.6307   -0.1656    1.4770 H   0  0  0  0  0  0  0  0  0  0  0  0
    1.2444   -2.3923    0.1610 H   0  0  0  0  0  0  0  0  0  0  0  0
    0.1618   -1.6803   -1.1535 H   0  0  0  0  0  0  0  0  0  0  0  0
    2.8228   -0.6570   -0.7031 H   0  0  0  0  0  0  0  0  0  0  0  0
    2.0226    1.5393   -1.2591 H   0  0  0  0  0  0  0  0  0  0  0  0
   -0.6404    1.0925   -1.8808 H   0  0  0  0  0  0  0  0  0  0  0  0
   -0.9474    1.5021    1.8458 H   0  0  0  0  0  0  0  0  0  0  0  0
   -2.3028    1.8515    0.5936 H   0  0  0  0  0  0  0  0  0  0  0  0
   -1.8426   -0.2857   -0.3830 H   0  0  0  0  0  0  0  0  0  0  0  0
  1  2  1  0
  2  3  1  0
  3  4  1  0
  4  5  2  0
  5  6  1  0
  6  7  1  0
  7  8  1  0
  8  9  1  0
  9  2  1  0
  9  6  1  0
  1 10  1  0
  2 11  1  0
  3 12  1  0
  3 13  1  0
  4 14  1  0
  5 15  1  0
  6 16  1  0
  8 17  1  0
  8 18  1  0
  9 19  1  0
M  END
