
     RDKit          3D

 17 19  0  0  0  0  0  0  0  0999 V2000
    1.9249   -1.0757   -0.5436 O   0  0  0  0  0  0  0  0  0  0  0  0
    1.5298    0.0800    0.0871 C   0  0  0  0  0  0  0  0  0  0  0  0
    0.1751   -0.1367    0.8285 C   0  0  0  0  0  0  0  0  0  0  0  0
    0.0935    0.2081    2.1373 O   0  0  0  0  0  0  0  0  0  0  0  0
   -0.8629   -0.9103    0.1084 C   0  0  0  0  0  0  0  0  0  0  0  0
   -2.0265   -0.2348   -0.5016 C   0  0  0  0  0  0  0  0  0  0  0  0
   -0.7022    0.0191   -1.0991 C   0  0  0  0  0  0  0  0  0  0  0  0
    0.2992    0.8026   -0.2890 C   0  0  0  0  0  0  0  0  0  0  0  0
    0.1568    2.1618   -0.1664 O   0  0  0  0  0  0  0  0  0  0  0  0
    2.5585   -0.9690   -1.2709 H   0  0  0  0  0  0  0  0  0  0  0  0
    2.2874    0.6531    0.6304 H   0  0  0  0  0  0  0  0  0  0  0  0
    0.3514   -0.5478    2.7281 H   0  0  0  0  0  0  0  0  0  0  0  0
   -0.7048   -1.9774   -0.1492 H   0  0  0  0  0  0  0  0  0  0  0  0
   -2.5051    0.6470   -0.0108 H   0  0  0  0  0  0  0  0  0  0  0  0
   -2.7255   -0.8375   -1.1081 H   0  0  0  0  0  0  0  0  0  0  0  0
   -0.3761   -0.4115   -2.0570 H   0  0  0  0  0  0  0  0  0  0  0  0
    0.5263    2.5289    0.6761 H   0  0  0  0  0  0  0  0  0  0  0  0
  1  2  1  0
  2  3  1  0
  3  4  1  0
  3  5  1  0
  5  6  1  0
  6  7  1  0
  7  8  1  0
  8  9  1  0
  8  2  1  0
  8  3  1  0
  7  5  1  0
  1 10  1  0
  2 11  1  0
  4 12  1  0
  5 13  1  0
  6 14  1  0
  6 15  1  0
  7 16  1  0
  9 17  1  0
M  END
