
     RDKit          3D

 16 18  0  0  0  0  0  0  0  0999 V2000
    2.4534   -0.2342    0.2384 O   0  0  0  0  0  0  0  0  0  0  0  0
    1.1678   -0.2818   -0.2804 C   0  0  0  0  0  0  0  0  0  0  0  0
    0.1200   -0.7014    0.7648 C   0  0  0  0  0  0  0  0  0  0  0  0
   -1.0356   -1.3100    0.0684 C   0  0  0  0  0  0  0  0  0  0  0  0
   -1.7004   -0.3530   -0.5642 C   0  0  0  0  0  0  0  0  0  0  0  0
   -1.0525    0.9643   -0.3437 C   0  0  0  0  0  0  0  0  0  0  0  0
    0.4319    1.0000   -0.3951 C   0  0  0  0  0  0  0  0  0  0  0  0
   -0.2686    0.7293    0.8739 C   0  0  0  0  0  0  0  0  0  0  0  0
    3.0464    0.0572   -0.4913 H   0  0  0  0  0  0  0  0  0  0  0  0
    1.0753   -0.8819   -1.2085 H   0  0  0  0  0  0  0  0  0  0  0  0
    0.5151   -1.2133    1.6286 H   0  0  0  0  0  0  0  0  0  0  0  0
   -1.2486   -2.3773    0.1095 H   0  0  0  0  0  0  0  0  0  0  0  0
   -2.5970   -0.5689   -1.1522 H   0  0  0  0  0  0  0  0  0  0  0  0
   -1.6423    1.8844   -0.5143 H   0  0  0  0  0  0  0  0  0  0  0  0
    0.9738    1.9639   -0.4919 H   0  0  0  0  0  0  0  0  0  0  0  0
   -0.2388    1.3225    1.7580 H   0  0  0  0  0  0  0  0  0  0  0  0
  1  2  1  0
  2  3  1  0
  3  4  1  0
  4  5  2  0
  5  6  1  0
  6  7  1  0
  7  8  1  0
  7  2  1  0
  8  3  1  0
  8  6  1  0
  1  9  1  0
  2 10  1  0
  3 11  1  0
  4 12  1  0
  5 13  1  0
  6 14  1  0
  7 15  1  0
  8 16  1  0
M  END
