
     RDKit          3D

 11 11  0  0  0  0  0  0  0  0999 V2000
   -0.9503    1.4237   -0.8554 O   0  0  0  0  0  0  0  0  0  0  0  0
   -0.0321    0.7104   -0.0864 C   0  0  0  0  0  0  0  0  0  0  0  0
   -0.6159   -0.5894    0.4577 C   0  0  0  0  0  0  0  0  0  0  0  0
    0.5345   -0.5669   -0.5324 C   0  0  0  0  0  0  0  0  0  0  0  0
    1.7470   -0.9621    0.0393 O   0  0  0  0  0  0  0  0  0  0  0  0
   -1.7523    1.5558   -0.2558 H   0  0  0  0  0  0  0  0  0  0  0  0
    0.5750    1.3359    0.5816 H   0  0  0  0  0  0  0  0  0  0  0  0
   -0.4225   -0.7407    1.5223 H   0  0  0  0  0  0  0  0  0  0  0  0
   -1.5484   -0.9742    0.0269 H   0  0  0  0  0  0  0  0  0  0  0  0
    0.3894   -0.9504   -1.5477 H   0  0  0  0  0  0  0  0  0  0  0  0
    2.0755   -0.2421    0.6499 H   0  0  0  0  0  0  0  0  0  0  0  0
  1  2  1  0
  2  3  1  0
  3  4  1  0
  4  5  1  0
  4  2  1  0
  1  6  1  0
  2  7  1  0
  3  8  1  0
  3  9  1  0
  4 10  1  0
  5 11  1  0
M  END
