
     RDKit          3D

 19 21  0  0  0  0  0  0  0  0999 V2000
    2.0100   -1.2978   -0.9373 O   0  0  0  0  0  0  0  0  0  0  0  0
    1.3065   -0.6868    0.0876 C   0  0  0  0  0  0  0  0  0  0  0  0
    0.9085    0.7201   -0.2161 C   0  0  0  0  0  0  0  0  0  0  0  0
   -0.4170    0.9048    0.4745 C   0  0  0  0  0  0  0  0  0  0  0  0
   -0.6131    2.0629    1.1595 O   0  0  0  0  0  0  0  0  0  0  0  0
   -1.5251    0.5304   -0.5198 C   0  0  0  0  0  0  0  0  0  0  0  0
   -1.2648   -0.8993   -0.2060 C   0  0  0  0  0  0  0  0  0  0  0  0
   -0.0024   -1.3905    0.3852 C   0  0  0  0  0  0  0  0  0  0  0  0
   -0.7196   -0.3863    1.1521 C   0  0  0  0  0  0  0  0  0  0  0  0
    2.9821   -1.1135   -0.7575 H   0  0  0  0  0  0  0  0  0  0  0  0
    1.9073   -0.6576    1.0413 H   0  0  0  0  0  0  0  0  0  0  0  0
    1.6648    1.4744    0.0746 H   0  0  0  0  0  0  0  0  0  0  0  0
    0.8212    0.8033   -1.3340 H   0  0  0  0  0  0  0  0  0  0  0  0
    0.1637    2.6778    0.9840 H   0  0  0  0  0  0  0  0  0  0  0  0
   -1.2663    0.8437   -1.5422 H   0  0  0  0  0  0  0  0  0  0  0  0
   -2.5227    0.9194   -0.2071 H   0  0  0  0  0  0  0  0  0  0  0  0
   -2.1331   -1.5532   -0.1957 H   0  0  0  0  0  0  0  0  0  0  0  0
    0.0173   -2.4472    0.6742 H   0  0  0  0  0  0  0  0  0  0  0  0
   -1.3173   -0.5045    2.0244 H   0  0  0  0  0  0  0  0  0  0  0  0
  1  2  1  0
  2  3  1  0
  3  4  1  0
  4  5  1  0
  4  6  1  0
  6  7  1  0
  7  8  1  0
  8  9  1  0
  8  2  1  0
  9  4  1  0
  9  7  1  0
  1 10  1  0
  2 11  1  0
  3 12  1  0
  3 13  1  0
  5 14  1  0
  6 15  1  0
  6 16  1  0
  7 17  1  0
  8 18  1  0
  9 19  1  0
M  END
