
     RDKit          3D

 19 20  0  0  0  0  0  0  0  0999 V2000
    2.2368   -1.1437   -0.2184 O   0  0  0  0  0  0  0  0  0  0  0  0
    1.1281   -0.4748    0.2921 C   0  0  0  0  0  0  0  0  0  0  0  0
    1.2767    1.0315    0.0700 C   0  0  0  0  0  0  0  0  0  0  0  0
   -0.1468    1.0761   -0.4619 C   0  0  0  0  0  0  0  0  0  0  0  0
   -1.0877    1.2357    0.6684 C   0  0  0  0  0  0  0  0  0  0  0  0
   -1.7430    0.1214    0.9236 C   0  0  0  0  0  0  0  0  0  0  0  0
   -1.3107   -0.9367   -0.0236 C   0  0  0  0  0  0  0  0  0  0  0  0
   -0.0554   -0.4195   -0.6457 C   0  0  0  0  0  0  0  0  0  0  0  0
    0.1971   -0.7945   -1.9469 O   0  0  0  0  0  0  0  0  0  0  0  0
    2.9048   -1.1649    0.5332 H   0  0  0  0  0  0  0  0  0  0  0  0
    0.8590   -0.7391    1.3376 H   0  0  0  0  0  0  0  0  0  0  0  0
    1.4068    1.5707    1.0345 H   0  0  0  0  0  0  0  0  0  0  0  0
    1.9752    1.3058   -0.7375 H   0  0  0  0  0  0  0  0  0  0  0  0
   -0.3137    1.6778   -1.3485 H   0  0  0  0  0  0  0  0  0  0  0  0
   -1.2086    2.1628    1.2070 H   0  0  0  0  0  0  0  0  0  0  0  0
   -2.5027    0.0051    1.7308 H   0  0  0  0  0  0  0  0  0  0  0  0
   -2.0492   -1.0989   -0.8373 H   0  0  0  0  0  0  0  0  0  0  0  0
   -1.1362   -1.8547    0.5699 H   0  0  0  0  0  0  0  0  0  0  0  0
   -0.4305   -1.5600   -2.1472 H   0  0  0  0  0  0  0  0  0  0  0  0
  1  2  1  0
  2  3  1  0
  3  4  1  0
  4  5  1  0
  5  6  2  0
  6  7  1  0
  7  8  1  0
  8  9  1  0
  8  2  1  0
  8  4  1  0
  1 10  1  0
  2 11  1  0
  3 12  1  0
  3 13  1  0
  4 14  1  0
  5 15  1  0
  6 16  1  0
  7 17  1  0
  7 18  1  0
  9 19  1  0
M  END
