
     RDKit          3D

 18 19  0  0  0  0  0  0  0  0999 V2000
    1.8007    1.1835    0.1498 O   0  0  0  0  0  0  0  0  0  0  0  0
    1.6928   -0.0871   -0.3629 C   0  0  0  0  0  0  0  0  0  0  0  0
    0.9965   -1.1706    0.3728 C   0  0  0  0  0  0  0  0  0  0  0  0
    0.2700   -0.5090   -0.7627 C   0  0  0  0  0  0  0  0  0  0  0  0
    0.1572   -1.3163   -1.9043 O   0  0  0  0  0  0  0  0  0  0  0  0
   -0.8070    0.4665   -0.4820 C   0  0  0  0  0  0  0  0  0  0  0  0
   -1.0361    0.9125    0.9651 C   0  0  0  0  0  0  0  0  0  0  0  0
   -2.0595    0.1049    0.2160 C   0  0  0  0  0  0  0  0  0  0  0  0
    2.7061    1.5748    0.0684 H   0  0  0  0  0  0  0  0  0  0  0  0
    2.4431   -0.3824   -1.1095 H   0  0  0  0  0  0  0  0  0  0  0  0
    0.7486   -0.9875    1.4261 H   0  0  0  0  0  0  0  0  0  0  0  0
    1.4005   -2.2172    0.1933 H   0  0  0  0  0  0  0  0  0  0  0  0
   -0.4313   -0.8931   -2.5866 H   0  0  0  0  0  0  0  0  0  0  0  0
   -0.9166    1.2859   -1.2626 H   0  0  0  0  0  0  0  0  0  0  0  0
   -0.5518    0.3952    1.8006 H   0  0  0  0  0  0  0  0  0  0  0  0
   -1.2129    2.0197    1.0791 H   0  0  0  0  0  0  0  0  0  0  0  0
   -2.1976   -0.9549    0.5102 H   0  0  0  0  0  0  0  0  0  0  0  0
   -3.0026    0.5752   -0.1295 H   0  0  0  0  0  0  0  0  0  0  0  0
  1  2  1  0
  2  3  1  0
  3  4  1  0
  4  5  1  0
  4  6  1  0
  6  7  1  0
  7  8  1  0
  4  2  1  0
  8  6  1  0
  1  9  1  0
  2 10  1  0
  3 11  1  0
  3 12  1  0
  5 13  1  0
  6 14  1  0
  7 15  1  0
  7 16  1  0
  8 17  1  0
  8 18  1  0
M  END
