
     RDKit          3D

 23 23  0  0  0  0  0  0  0  0999 V2000
   -1.7229   -0.9259    1.2832 O   0  0  0  0  0  0  0  0  0  0  0  0
   -1.6627   -0.6708   -0.0995 C   0  0  0  0  0  0  0  0  0  0  0  0
   -0.4211   -1.3739   -0.6638 C   0  0  0  0  0  0  0  0  0  0  0  0
    0.6783   -1.3689    0.3324 C   0  0  0  0  0  0  0  0  0  0  0  0
    1.7452   -0.3746    0.1368 C   0  0  0  0  0  0  0  0  0  0  0  0
    1.3593    0.8828   -0.5638 C   0  0  0  0  0  0  0  0  0  0  0  0
    0.5680    1.7733    0.3671 C   0  0  0  0  0  0  0  0  0  0  0  0
   -0.6149    1.2192    0.7866 O   0  0  0  0  0  0  0  0  0  0  0  0
   -1.4530    0.8305   -0.2296 C   0  0  0  0  0  0  0  0  0  0  0  0
   -2.4650   -0.3278    1.6118 H   0  0  0  0  0  0  0  0  0  0  0  0
   -2.5748   -0.9504   -0.6253 H   0  0  0  0  0  0  0  0  0  0  0  0
   -0.1668   -1.0097   -1.6578 H   0  0  0  0  0  0  0  0  0  0  0  0
   -0.7505   -2.4465   -0.7977 H   0  0  0  0  0  0  0  0  0  0  0  0
    0.2095   -1.2390    1.3505 H   0  0  0  0  0  0  0  0  0  0  0  0
    1.1651   -2.3871    0.3896 H   0  0  0  0  0  0  0  0  0  0  0  0
    2.1443   -0.0797    1.1488 H   0  0  0  0  0  0  0  0  0  0  0  0
    2.6408   -0.7966   -0.3993 H   0  0  0  0  0  0  0  0  0  0  0  0
    0.8889    0.7320   -1.5385 H   0  0  0  0  0  0  0  0  0  0  0  0
    2.3178    1.4466   -0.7717 H   0  0  0  0  0  0  0  0  0  0  0  0
    0.4381    2.8006   -0.0293 H   0  0  0  0  0  0  0  0  0  0  0  0
    1.2109    1.8982    1.2864 H   0  0  0  0  0  0  0  0  0  0  0  0
   -2.4290    1.3315   -0.0805 H   0  0  0  0  0  0  0  0  0  0  0  0
   -1.1056    1.0360   -1.2366 H   0  0  0  0  0  0  0  0  0  0  0  0
  1  2  1  0
  2  3  1  0
  3  4  1  0
  4  5  1  0
  5  6  1  0
  6  7  1  0
  7  8  1  0
  8  9  1  0
  9  2  1  0
  1 10  1  0
  2 11  1  0
  3 12  1  0
  3 13  1  0
  4 14  1  0
  4 15  1  0
  5 16  1  0
  5 17  1  0
  6 18  1  0
  6 19  1  0
  7 20  1  0
  7 21  1  0
  9 22  1  0
  9 23  1  0
M  END
