
     RDKit          3D

 19 20  0  0  0  0  0  0  0  0999 V2000
   -2.0848    0.7737   -0.4471 O   0  0  0  0  0  0  0  0  0  0  0  0
   -1.5450    0.1883    0.7201 C   0  0  0  0  0  0  0  0  0  0  0  0
   -1.3951   -1.2617    0.4119 C   0  0  0  0  0  0  0  0  0  0  0  0
   -0.2704   -1.8584    0.1159 C   0  0  0  0  0  0  0  0  0  0  0  0
    0.9999   -1.1178    0.0589 C   0  0  0  0  0  0  0  0  0  0  0  0
    0.8355    0.3650    0.0488 C   0  0  0  0  0  0  0  0  0  0  0  0
    2.0812    1.1586   -0.1069 C   0  0  0  0  0  0  0  0  0  0  0  0
    0.9888    1.0989   -1.1118 O   0  0  0  0  0  0  0  0  0  0  0  0
   -0.2018    0.8318    1.0165 C   0  0  0  0  0  0  0  0  0  0  0  0
   -2.6690    1.5274   -0.2449 H   0  0  0  0  0  0  0  0  0  0  0  0
   -2.2707    0.3757    1.5235 H   0  0  0  0  0  0  0  0  0  0  0  0
   -2.2982   -1.8578    0.4389 H   0  0  0  0  0  0  0  0  0  0  0  0
   -0.2685   -2.9252   -0.0936 H   0  0  0  0  0  0  0  0  0  0  0  0
    1.6208   -1.3834    0.9414 H   0  0  0  0  0  0  0  0  0  0  0  0
    1.5776   -1.4599   -0.8320 H   0  0  0  0  0  0  0  0  0  0  0  0
    2.1882    2.1615    0.3477 H   0  0  0  0  0  0  0  0  0  0  0  0
    2.9794    0.7168   -0.5681 H   0  0  0  0  0  0  0  0  0  0  0  0
   -0.3526    1.9364    0.8461 H   0  0  0  0  0  0  0  0  0  0  0  0
    0.0847    0.7300    2.0730 H   0  0  0  0  0  0  0  0  0  0  0  0
  1  2  1  0
  2  3  1  0
  3  4  2  0
  4  5  1  0
  5  6  1  0
  6  7  1  0
  7  8  1  0
  6  9  1  0
  9  2  1  0
  8  6  1  0
  1 10  1  0
  2 11  1  0
  3 12  1  0
  4 13  1  0
  5 14  1  0
  5 15  1  0
  7 16  1  0
  7 17  1  0
  9 18  1  0
  9 19  1  0
M  END
