
     RDKit          3D

 19 19  0  0  0  0  0  0  0  0999 V2000
   -2.2607    0.5566    1.2114 O   0  0  0  0  0  0  0  0  0  0  0  0
   -1.6379    0.3644   -0.0430 C   0  0  0  0  0  0  0  0  0  0  0  0
   -0.7670    1.4996   -0.2954 C   0  0  0  0  0  0  0  0  0  0  0  0
    0.5228    1.7335   -0.2396 C   0  0  0  0  0  0  0  0  0  0  0  0
    1.7145    0.9509    0.1083 C   0  0  0  0  0  0  0  0  0  0  0  0
    1.9698   -0.3470    0.0569 C   0  0  0  0  0  0  0  0  0  0  0  0
    1.2075   -1.5597   -0.3565 C   0  0  0  0  0  0  0  0  0  0  0  0
    0.0078   -1.1612   -0.9406 O   0  0  0  0  0  0  0  0  0  0  0  0
   -0.9931   -0.9668   -0.0237 C   0  0  0  0  0  0  0  0  0  0  0  0
   -2.7879   -0.2413    1.4657 H   0  0  0  0  0  0  0  0  0  0  0  0
   -2.4584    0.3866   -0.8147 H   0  0  0  0  0  0  0  0  0  0  0  0
   -1.3064    2.3726   -0.6068 H   0  0  0  0  0  0  0  0  0  0  0  0
    0.7999    2.7619   -0.5177 H   0  0  0  0  0  0  0  0  0  0  0  0
    2.5416    1.5429    0.4761 H   0  0  0  0  0  0  0  0  0  0  0  0
    2.9722   -0.5574    0.3995 H   0  0  0  0  0  0  0  0  0  0  0  0
    1.7951   -2.0943   -1.1565 H   0  0  0  0  0  0  0  0  0  0  0  0
    1.0506   -2.2638    0.4840 H   0  0  0  0  0  0  0  0  0  0  0  0
   -1.7701   -1.7585   -0.2128 H   0  0  0  0  0  0  0  0  0  0  0  0
   -0.6003   -1.2189    1.0054 H   0  0  0  0  0  0  0  0  0  0  0  0
  1  2  1  0
  2  3  1  0
  3  4  2  3
  4  5  1  0
  5  6  2  3
  6  7  1  0
  7  8  1  0
  8  9  1  0
  9  2  1  0
  1 10  1  0
  2 11  1  0
  3 12  1  0
  4 13  1  0
  5 14  1  0
  6 15  1  0
  7 16  1  0
  7 17  1  0
  9 18  1  0
  9 19  1  0
M  END
