
     RDKit          3D

 21 22  0  0  0  0  0  0  0  0999 V2000
   -1.4799   -2.1358    0.5859 O   0  0  0  0  0  0  0  0  0  0  0  0
   -0.6699   -1.1544    0.0365 C   0  0  0  0  0  0  0  0  0  0  0  0
   -1.5898    0.0589   -0.1720 C   0  0  0  0  0  0  0  0  0  0  0  0
   -0.7323    0.9905   -1.0322 C   0  0  0  0  0  0  0  0  0  0  0  0
    0.2993    1.5600   -0.0918 C   0  0  0  0  0  0  0  0  0  0  0  0
    1.0569    0.5562    0.6749 C   0  0  0  0  0  0  0  0  0  0  0  0
    2.0099   -0.3211   -0.0518 C   0  0  0  0  0  0  0  0  0  0  0  0
    1.6443   -1.3693    0.8134 O   0  0  0  0  0  0  0  0  0  0  0  0
    0.4094   -0.7262    0.9652 C   0  0  0  0  0  0  0  0  0  0  0  0
   -2.0531   -2.4718   -0.1736 H   0  0  0  0  0  0  0  0  0  0  0  0
   -0.2923   -1.4654   -0.9689 H   0  0  0  0  0  0  0  0  0  0  0  0
   -2.5298   -0.2074   -0.6418 H   0  0  0  0  0  0  0  0  0  0  0  0
   -1.7108    0.5352    0.8229 H   0  0  0  0  0  0  0  0  0  0  0  0
   -1.3055    1.7798   -1.5042 H   0  0  0  0  0  0  0  0  0  0  0  0
   -0.2177    0.3998   -1.8457 H   0  0  0  0  0  0  0  0  0  0  0  0
    1.0301    2.2071   -0.6587 H   0  0  0  0  0  0  0  0  0  0  0  0
   -0.2638    2.2043    0.6344 H   0  0  0  0  0  0  0  0  0  0  0  0
    1.5349    1.0159    1.5781 H   0  0  0  0  0  0  0  0  0  0  0  0
    1.7137   -0.5721   -1.0898 H   0  0  0  0  0  0  0  0  0  0  0  0
    3.0710   -0.0260    0.0898 H   0  0  0  0  0  0  0  0  0  0  0  0
    0.0755   -0.8582    2.0294 H   0  0  0  0  0  0  0  0  0  0  0  0
  1  2  1  0
  2  3  1  0
  3  4  1  0
  4  5  1  0
  5  6  1  0
  6  7  1  0
  7  8  1  0
  8  9  1  0
  9  2  1  0
  9  6  1  0
  1 10  1  0
  2 11  1  0
  3 12  1  0
  3 13  1  0
  4 14  1  0
  4 15  1  0
  5 16  1  0
  5 17  1  0
  6 18  1  0
  7 19  1  0
  7 20  1  0
  9 21  1  0
M  END
