
     RDKit          3D

 19 21  0  0  0  0  0  0  0  0999 V2000
   -2.0384    1.3593   -0.1061 O   0  0  0  0  0  0  0  0  0  0  0  0
   -1.0570    0.5644   -0.7389 C   0  0  0  0  0  0  0  0  0  0  0  0
   -1.3168   -0.8552   -0.2842 C   0  0  0  0  0  0  0  0  0  0  0  0
   -0.3206   -1.1778    0.7792 C   0  0  0  0  0  0  0  0  0  0  0  0
    0.5643    0.0403    0.9591 C   0  0  0  0  0  0  0  0  0  0  0  0
    1.9126   -0.2027    0.3749 C   0  0  0  0  0  0  0  0  0  0  0  0
    2.6618    0.7674   -0.2217 O   0  0  0  0  0  0  0  0  0  0  0  0
    1.4861    0.4206   -0.8597 C   0  0  0  0  0  0  0  0  0  0  0  0
    0.2625    0.9683   -0.1911 C   0  0  0  0  0  0  0  0  0  0  0  0
   -1.6385    2.1008    0.4021 H   0  0  0  0  0  0  0  0  0  0  0  0
   -1.1814    0.7107   -1.8101 H   0  0  0  0  0  0  0  0  0  0  0  0
   -1.1933   -1.4967   -1.2047 H   0  0  0  0  0  0  0  0  0  0  0  0
   -2.3374   -0.9835    0.1441 H   0  0  0  0  0  0  0  0  0  0  0  0
   -0.7733   -1.4951    1.7313 H   0  0  0  0  0  0  0  0  0  0  0  0
    0.2754   -2.0621    0.4137 H   0  0  0  0  0  0  0  0  0  0  0  0
    0.4984    0.5363    1.9280 H   0  0  0  0  0  0  0  0  0  0  0  0
    2.3519   -1.1977    0.4825 H   0  0  0  0  0  0  0  0  0  0  0  0
    1.4630   -0.0464   -1.8346 H   0  0  0  0  0  0  0  0  0  0  0  0
    0.3809    2.0492    0.0361 H   0  0  0  0  0  0  0  0  0  0  0  0
  1  2  1  0
  2  3  1  0
  3  4  1  0
  4  5  1  0
  5  6  1  0
  6  7  1  0
  7  8  1  0
  8  9  1  0
  9  2  1  0
  9  5  1  0
  8  6  1  0
  1 10  1  0
  2 11  1  0
  3 12  1  0
  3 13  1  0
  4 14  1  0
  4 15  1  0
  5 16  1  0
  6 17  1  0
  8 18  1  0
  9 19  1  0
M  END
