
     RDKit          3D

 17 19  0  0  0  0  0  0  0  0999 V2000
    2.9819   -0.1706    0.4637 O   0  0  0  0  0  0  0  0  0  0  0  0
    1.6672    0.2118    0.4475 C   0  0  0  0  0  0  0  0  0  0  0  0
    0.6505   -0.8433    0.7842 C   0  0  0  0  0  0  0  0  0  0  0  0
    1.0121   -1.4449   -0.4193 O   0  0  0  0  0  0  0  0  0  0  0  0
    0.8817   -0.1157   -0.7954 C   0  0  0  0  0  0  0  0  0  0  0  0
   -0.3252   -0.0450    0.0329 C   0  0  0  0  0  0  0  0  0  0  0  0
   -1.6039   -0.5727   -0.3829 C   0  0  0  0  0  0  0  0  0  0  0  0
   -2.0609    0.8035    0.0481 C   0  0  0  0  0  0  0  0  0  0  0  0
   -0.7742    1.1354    0.5132 O   0  0  0  0  0  0  0  0  0  0  0  0
    3.5355    0.6550    0.4012 H   0  0  0  0  0  0  0  0  0  0  0  0
    1.4112    1.1963    0.8656 H   0  0  0  0  0  0  0  0  0  0  0  0
    0.5573   -1.3139    1.6733 H   0  0  0  0  0  0  0  0  0  0  0  0
    1.0607    0.2625   -1.7175 H   0  0  0  0  0  0  0  0  0  0  0  0
   -1.8473   -0.7295   -1.4408 H   0  0  0  0  0  0  0  0  0  0  0  0
   -2.0590   -1.3448    0.2563 H   0  0  0  0  0  0  0  0  0  0  0  0
   -2.3138    1.5005   -0.7765 H   0  0  0  0  0  0  0  0  0  0  0  0
   -2.7738    0.8156    0.8936 H   0  0  0  0  0  0  0  0  0  0  0  0
  1  2  1  0
  2  3  1  0
  3  4  1  0
  4  5  1  0
  5  6  1  0
  6  7  1  0
  7  8  1  0
  8  9  1  0
  5  2  1  0
  9  6  1  0
  6  3  1  0
  1 10  1  0
  2 11  1  0
  3 12  1  0
  5 13  1  0
  7 14  1  0
  7 15  1  0
  8 16  1  0
  8 17  1  0
M  END
