
     RDKit          3D

 19 21  0  0  0  0  0  0  0  0999 V2000
    2.1133    0.8011    0.9969 O   0  0  0  0  0  0  0  0  0  0  0  0
    1.1173   -0.1600    0.7324 C   0  0  0  0  0  0  0  0  0  0  0  0
    1.4093   -0.9708   -0.4862 C   0  0  0  0  0  0  0  0  0  0  0  0
    0.3481   -0.8895   -1.3455 O   0  0  0  0  0  0  0  0  0  0  0  0
   -0.5396    0.0387   -0.9167 C   0  0  0  0  0  0  0  0  0  0  0  0
   -1.9097   -0.3740   -0.4188 C   0  0  0  0  0  0  0  0  0  0  0  0
   -1.4131   -0.1098    0.9884 C   0  0  0  0  0  0  0  0  0  0  0  0
   -0.1839    0.5188    0.4365 C   0  0  0  0  0  0  0  0  0  0  0  0
   -0.1989    1.4664   -0.6961 C   0  0  0  0  0  0  0  0  0  0  0  0
    2.8156    0.8107    0.3115 H   0  0  0  0  0  0  0  0  0  0  0  0
    0.9925   -0.8092    1.6283 H   0  0  0  0  0  0  0  0  0  0  0  0
    1.5100   -2.0480   -0.1831 H   0  0  0  0  0  0  0  0  0  0  0  0
    2.3224   -0.6249   -1.0191 H   0  0  0  0  0  0  0  0  0  0  0  0
   -2.7416    0.2815   -0.6945 H   0  0  0  0  0  0  0  0  0  0  0  0
   -2.1146   -1.4536   -0.5897 H   0  0  0  0  0  0  0  0  0  0  0  0
   -1.2213   -1.0544    1.5471 H   0  0  0  0  0  0  0  0  0  0  0  0
   -2.0346    0.5573    1.5924 H   0  0  0  0  0  0  0  0  0  0  0  0
    0.7752    1.8462   -1.0242 H   0  0  0  0  0  0  0  0  0  0  0  0
   -1.0463    2.1734   -0.8594 H   0  0  0  0  0  0  0  0  0  0  0  0
  1  2  1  0
  2  3  1  0
  3  4  1  0
  4  5  1  0
  5  6  1  0
  6  7  1  0
  7  8  1  0
  8  9  1  0
  8  2  1  0
  8  5  1  0
  9  5  1  0
  1 10  1  0
  2 11  1  0
  3 12  1  0
  3 13  1  0
  6 14  1  0
  6 15  1  0
  7 16  1  0
  7 17  1  0
  9 18  1  0
  9 19  1  0
M  END
