
     RDKit          3D

 17 19  0  0  0  0  0  0  0  0999 V2000
    1.5912   -1.1717   -1.0219 O   0  0  0  0  0  0  0  0  0  0  0  0
    1.0432   -0.2028   -0.2413 C   0  0  0  0  0  0  0  0  0  0  0  0
   -0.1777    0.4692   -0.8947 C   0  0  0  0  0  0  0  0  0  0  0  0
   -1.1416   -0.6857   -0.8656 C   0  0  0  0  0  0  0  0  0  0  0  0
   -0.7612   -1.4731    0.2225 O   0  0  0  0  0  0  0  0  0  0  0  0
    0.2129   -0.7780    0.9227 C   0  0  0  0  0  0  0  0  0  0  0  0
   -0.3350    0.4990    1.4854 C   0  0  0  0  0  0  0  0  0  0  0  0
   -1.5634    0.9842    1.1271 O   0  0  0  0  0  0  0  0  0  0  0  0
   -0.5613    1.3895    0.2505 C   0  0  0  0  0  0  0  0  0  0  0  0
    2.5547   -0.9207   -1.1869 H   0  0  0  0  0  0  0  0  0  0  0  0
    1.7122    0.5613    0.1422 H   0  0  0  0  0  0  0  0  0  0  0  0
    0.0143    0.9290   -1.8296 H   0  0  0  0  0  0  0  0  0  0  0  0
   -2.1780   -0.3144   -0.6120 H   0  0  0  0  0  0  0  0  0  0  0  0
   -1.2325   -1.2307   -1.7981 H   0  0  0  0  0  0  0  0  0  0  0  0
    0.7851   -1.3945    1.5879 H   0  0  0  0  0  0  0  0  0  0  0  0
    0.1375    0.9627    2.3729 H   0  0  0  0  0  0  0  0  0  0  0  0
   -0.1001    2.3767    0.3389 H   0  0  0  0  0  0  0  0  0  0  0  0
  1  2  1  0
  2  3  1  0
  3  4  1  0
  4  5  1  0
  5  6  1  0
  6  7  1  0
  7  8  1  0
  8  9  1  0
  6  2  1  0
  9  7  1  0
  9  3  1  0
  1 10  1  0
  2 11  1  0
  3 12  1  0
  4 13  1  0
  4 14  1  0
  6 15  1  0
  7 16  1  0
  9 17  1  0
M  END
