
     RDKit          3D

 19 21  0  0  0  0  0  0  0  0999 V2000
    2.9446   -0.9245    0.7325 O   0  0  0  0  0  0  0  0  0  0  0  0
    1.9116   -0.0183    0.4892 C   0  0  0  0  0  0  0  0  0  0  0  0
    1.7917    0.4531   -0.8955 C   0  0  0  0  0  0  0  0  0  0  0  0
    0.7087   -0.4693   -0.2419 C   0  0  0  0  0  0  0  0  0  0  0  0
   -0.5427    0.0852   -0.0587 C   0  0  0  0  0  0  0  0  0  0  0  0
   -1.3515    0.1505    1.1933 C   0  0  0  0  0  0  0  0  0  0  0  0
   -2.1279    0.8344    0.1051 C   0  0  0  0  0  0  0  0  0  0  0  0
   -1.7903   -0.3243   -0.7771 C   0  0  0  0  0  0  0  0  0  0  0  0
   -0.9237    1.3971   -0.2983 O   0  0  0  0  0  0  0  0  0  0  0  0
    2.7039   -1.8516    0.4969 H   0  0  0  0  0  0  0  0  0  0  0  0
    1.8323    0.7439    1.3103 H   0  0  0  0  0  0  0  0  0  0  0  0
    2.3344    0.0273   -1.7397 H   0  0  0  0  0  0  0  0  0  0  0  0
    1.5126    1.5128   -1.0316 H   0  0  0  0  0  0  0  0  0  0  0  0
    0.7784   -1.5401   -0.6072 H   0  0  0  0  0  0  0  0  0  0  0  0
   -1.7739   -0.8200    1.4696 H   0  0  0  0  0  0  0  0  0  0  0  0
   -0.9330    0.7802    1.9830 H   0  0  0  0  0  0  0  0  0  0  0  0
   -3.0145    1.3018    0.1956 H   0  0  0  0  0  0  0  0  0  0  0  0
   -1.8537   -0.0477   -1.8449 H   0  0  0  0  0  0  0  0  0  0  0  0
   -2.2070   -1.2906   -0.4807 H   0  0  0  0  0  0  0  0  0  0  0  0
  1  2  1  0
  2  3  1  0
  3  4  1  0
  4  5  1  0
  5  6  1  0
  6  7  1  0
  7  8  1  0
  7  9  1  0
  4  2  1  0
  8  5  1  0
  9  5  1  0
  1 10  1  0
  2 11  1  0
  3 12  1  0
  3 13  1  0
  4 14  1  0
  6 15  1  0
  6 16  1  0
  7 17  1  0
  8 18  1  0
  8 19  1  0
M  END
