
     RDKit          3D

 18 19  0  0  0  0  0  0  0  0999 V2000
   -1.3603   -1.8505   -0.1546 O   0  0  0  0  0  0  0  0  0  0  0  0
   -1.4002   -0.5382   -0.6486 C   0  0  0  0  0  0  0  0  0  0  0  0
   -1.6600    0.5555    0.2837 C   0  0  0  0  0  0  0  0  0  0  0  0
   -2.3396    1.7033   -0.0510 O   0  0  0  0  0  0  0  0  0  0  0  0
   -0.3079    0.4056   -0.4220 C   0  0  0  0  0  0  0  0  0  0  0  0
    0.8267    0.1735    0.5080 C   0  0  0  0  0  0  0  0  0  0  0  0
    1.7735   -0.9296    0.4073 C   0  0  0  0  0  0  0  0  0  0  0  0
    2.2317    0.3674   -0.1108 C   0  0  0  0  0  0  0  0  0  0  0  0
   -1.9660   -2.4544   -0.6105 H   0  0  0  0  0  0  0  0  0  0  0  0
   -1.9422   -0.4881   -1.6260 H   0  0  0  0  0  0  0  0  0  0  0  0
   -1.7203    0.2932    1.3578 H   0  0  0  0  0  0  0  0  0  0  0  0
   -1.9700    2.4339    0.5415 H   0  0  0  0  0  0  0  0  0  0  0  0
   -0.0828    1.1189   -1.2516 H   0  0  0  0  0  0  0  0  0  0  0  0
    0.7315    0.6773    1.5115 H   0  0  0  0  0  0  0  0  0  0  0  0
    1.6945   -1.7519   -0.3144 H   0  0  0  0  0  0  0  0  0  0  0  0
    2.2817   -1.2607    1.3602 H   0  0  0  0  0  0  0  0  0  0  0  0
    2.2556    0.5674   -1.2179 H   0  0  0  0  0  0  0  0  0  0  0  0
    2.9540    0.9774    0.4375 H   0  0  0  0  0  0  0  0  0  0  0  0
  1  2  1  0
  2  3  1  0
  3  4  1  0
  3  5  1  0
  5  6  1  0
  6  7  1  0
  7  8  1  0
  5  2  1  0
  8  6  1  0
  1  9  1  0
  2 10  1  0
  3 11  1  0
  4 12  1  0
  5 13  1  0
  6 14  1  0
  7 15  1  0
  7 16  1  0
  8 17  1  0
  8 18  1  0
M  END
