
     RDKit          3D

 23 24  0  0  0  0  0  0  0  0999 V2000
   -2.6782   -0.4090   -1.2900 O   0  0  0  0  0  0  0  0  0  0  0  0
   -2.0550    0.3453   -0.2851 C   0  0  0  0  0  0  0  0  0  0  0  0
   -1.8404   -0.4313    0.9884 C   0  0  0  0  0  0  0  0  0  0  0  0
   -0.6536    0.0211    0.1243 C   0  0  0  0  0  0  0  0  0  0  0  0
    0.1609    1.0902    0.7250 C   0  0  0  0  0  0  0  0  0  0  0  0
    1.5799    1.1693    0.3403 C   0  0  0  0  0  0  0  0  0  0  0  0
    2.2308   -0.1545    0.0314 C   0  0  0  0  0  0  0  0  0  0  0  0
    1.3940   -0.7446   -1.1139 C   0  0  0  0  0  0  0  0  0  0  0  0
    0.0733   -1.0940   -0.5227 C   0  0  0  0  0  0  0  0  0  0  0  0
   -3.6478   -0.4458   -1.0111 H   0  0  0  0  0  0  0  0  0  0  0  0
   -2.4070    1.3845   -0.1596 H   0  0  0  0  0  0  0  0  0  0  0  0
   -2.0264    0.1027    1.9369 H   0  0  0  0  0  0  0  0  0  0  0  0
   -2.0838   -1.4990    1.0300 H   0  0  0  0  0  0  0  0  0  0  0  0
    0.0999    1.0209    1.8482 H   0  0  0  0  0  0  0  0  0  0  0  0
   -0.3236    2.0839    0.4952 H   0  0  0  0  0  0  0  0  0  0  0  0
    2.1732    1.6138    1.1902 H   0  0  0  0  0  0  0  0  0  0  0  0
    1.7208    1.8123   -0.5571 H   0  0  0  0  0  0  0  0  0  0  0  0
    2.1806   -0.8448    0.9208 H   0  0  0  0  0  0  0  0  0  0  0  0
    3.2706   -0.0042   -0.2484 H   0  0  0  0  0  0  0  0  0  0  0  0
    1.8726   -1.6262   -1.5263 H   0  0  0  0  0  0  0  0  0  0  0  0
    1.2685    0.0954   -1.8420 H   0  0  0  0  0  0  0  0  0  0  0  0
   -0.5427   -1.5774   -1.3162 H   0  0  0  0  0  0  0  0  0  0  0  0
    0.2336   -1.9086    0.2419 H   0  0  0  0  0  0  0  0  0  0  0  0
  1  2  1  0
  2  3  1  0
  3  4  1  0
  4  5  1  0
  5  6  1  0
  6  7  1  0
  7  8  1  0
  8  9  1  0
  4  2  1  0
  9  4  1  0
  1 10  1  0
  2 11  1  0
  3 12  1  0
  3 13  1  0
  5 14  1  0
  5 15  1  0
  6 16  1  0
  6 17  1  0
  7 18  1  0
  7 19  1  0
  8 20  1  0
  8 21  1  0
  9 22  1  0
  9 23  1  0
M  END
