
     RDKit          3D

 19 21  0  0  0  0  0  0  0  0999 V2000
   -1.1886    1.5483    0.1507 O   0  0  0  0  0  0  0  0  0  0  0  0
   -1.4227    0.2558   -0.2463 C   0  0  0  0  0  0  0  0  0  0  0  0
   -2.1509   -0.6163    0.7748 C   0  0  0  0  0  0  0  0  0  0  0  0
   -1.3189   -1.6840    0.3576 O   0  0  0  0  0  0  0  0  0  0  0  0
   -0.3830   -0.7648    0.0503 C   0  0  0  0  0  0  0  0  0  0  0  0
    0.8487   -0.5267    0.7703 C   0  0  0  0  0  0  0  0  0  0  0  0
    1.6895    0.6715    0.4473 C   0  0  0  0  0  0  0  0  0  0  0  0
    1.5672    0.3731   -1.0458 C   0  0  0  0  0  0  0  0  0  0  0  0
    0.8582   -0.9345   -0.6597 C   0  0  0  0  0  0  0  0  0  0  0  0
   -1.5162    2.1442   -0.5848 H   0  0  0  0  0  0  0  0  0  0  0  0
   -1.8056    0.1289   -1.2862 H   0  0  0  0  0  0  0  0  0  0  0  0
   -1.8802   -0.3054    1.7894 H   0  0  0  0  0  0  0  0  0  0  0  0
   -3.2011   -0.7188    0.5180 H   0  0  0  0  0  0  0  0  0  0  0  0
    1.2724   -1.1928    1.5419 H   0  0  0  0  0  0  0  0  0  0  0  0
    1.1722    1.6004    0.7415 H   0  0  0  0  0  0  0  0  0  0  0  0
    2.7481    0.5920    0.7768 H   0  0  0  0  0  0  0  0  0  0  0  0
    0.8909    1.1032   -1.5538 H   0  0  0  0  0  0  0  0  0  0  0  0
    2.5222    0.2049   -1.5390 H   0  0  0  0  0  0  0  0  0  0  0  0
    1.2976   -1.8790   -1.0032 H   0  0  0  0  0  0  0  0  0  0  0  0
  1  2  1  0
  2  3  1  0
  3  4  1  0
  4  5  1  0
  5  6  1  0
  6  7  1  0
  7  8  1  0
  8  9  1  0
  5  2  1  0
  9  6  1  0
  9  5  1  0
  1 10  1  0
  2 11  1  0
  3 12  1  0
  3 13  1  0
  6 14  1  0
  7 15  1  0
  7 16  1  0
  8 17  1  0
  8 18  1  0
  9 19  1  0
M  END
