
     RDKit          3D

 21 21  0  0  0  0  0  0  0  0999 V2000
    2.0236   -0.3336   -1.2333 O   0  0  0  0  0  0  0  0  0  0  0  0
    1.4660   -0.1294    0.0505 C   0  0  0  0  0  0  0  0  0  0  0  0
    0.6317   -1.2831    0.4606 C   0  0  0  0  0  0  0  0  0  0  0  0
   -0.8065   -1.2003    0.0680 C   0  0  0  0  0  0  0  0  0  0  0  0
   -1.0289   -1.3023   -1.2827 O   0  0  0  0  0  0  0  0  0  0  0  0
   -1.3555    0.0837    0.6689 C   0  0  0  0  0  0  0  0  0  0  0  0
   -0.6400    1.2556    0.0953 C   0  0  0  0  0  0  0  0  0  0  0  0
   -1.0636    1.4459   -1.2268 O   0  0  0  0  0  0  0  0  0  0  0  0
    0.8335    1.2046    0.1517 C   0  0  0  0  0  0  0  0  0  0  0  0
    2.8121   -0.9587   -1.1468 H   0  0  0  0  0  0  0  0  0  0  0  0
    2.3714   -0.1251    0.7299 H   0  0  0  0  0  0  0  0  0  0  0  0
    1.1276   -2.2194    0.1014 H   0  0  0  0  0  0  0  0  0  0  0  0
    0.6583   -1.3666    1.5864 H   0  0  0  0  0  0  0  0  0  0  0  0
   -1.3421   -2.0352    0.5775 H   0  0  0  0  0  0  0  0  0  0  0  0
   -2.0060   -1.2533   -1.4320 H   0  0  0  0  0  0  0  0  0  0  0  0
   -2.4199    0.1238    0.4120 H   0  0  0  0  0  0  0  0  0  0  0  0
   -1.1493    0.0396    1.7556 H   0  0  0  0  0  0  0  0  0  0  0  0
   -0.9972    2.1682    0.6579 H   0  0  0  0  0  0  0  0  0  0  0  0
   -1.5292    2.2926   -1.3672 H   0  0  0  0  0  0  0  0  0  0  0  0
    1.1809    1.7588    1.0712 H   0  0  0  0  0  0  0  0  0  0  0  0
    1.2328    1.8342   -0.6981 H   0  0  0  0  0  0  0  0  0  0  0  0
  1  2  1  0
  2  3  1  0
  3  4  1  0
  4  5  1  0
  4  6  1  0
  6  7  1  0
  7  8  1  0
  7  9  1  0
  9  2  1  0
  1 10  1  0
  2 11  1  0
  3 12  1  0
  3 13  1  0
  4 14  1  0
  5 15  1  0
  6 16  1  0
  6 17  1  0
  7 18  1  0
  8 19  1  0
  9 20  1  0
  9 21  1  0
M  END
