
     RDKit          3D

 17 18  0  0  0  0  0  0  0  0999 V2000
    2.6102   -0.2535    0.7297 O   0  0  0  0  0  0  0  0  0  0  0  0
    1.2446   -0.3632    0.5901 C   0  0  0  0  0  0  0  0  0  0  0  0
    0.6251   -0.3162   -0.7798 C   0  0  0  0  0  0  0  0  0  0  0  0
   -0.3504   -1.1994   -1.0366 O   0  0  0  0  0  0  0  0  0  0  0  0
   -1.4659   -1.1956   -0.2709 C   0  0  0  0  0  0  0  0  0  0  0  0
   -1.3736   -0.5119    0.9256 O   0  0  0  0  0  0  0  0  0  0  0  0
   -1.0536    0.8204    0.5741 C   0  0  0  0  0  0  0  0  0  0  0  0
    0.3989    0.7730    0.1470 C   0  0  0  0  0  0  0  0  0  0  0  0
    0.9489    2.0423   -0.0473 O   0  0  0  0  0  0  0  0  0  0  0  0
    3.0166   -0.8577    0.0364 H   0  0  0  0  0  0  0  0  0  0  0  0
    0.7637   -1.0268    1.3511 H   0  0  0  0  0  0  0  0  0  0  0  0
    1.3151   -0.0987   -1.6463 H   0  0  0  0  0  0  0  0  0  0  0  0
   -2.2923   -0.6937   -0.8535 H   0  0  0  0  0  0  0  0  0  0  0  0
   -1.7853   -2.2487   -0.0787 H   0  0  0  0  0  0  0  0  0  0  0  0
   -1.6974    1.1128   -0.2994 H   0  0  0  0  0  0  0  0  0  0  0  0
   -1.2545    1.5277    1.3724 H   0  0  0  0  0  0  0  0  0  0  0  0
    0.3499    2.4893   -0.7140 H   0  0  0  0  0  0  0  0  0  0  0  0
  1  2  1  0
  2  3  1  0
  3  4  1  0
  4  5  1  0
  5  6  1  0
  6  7  1  0
  7  8  1  0
  8  9  1  0
  8  2  1  0
  8  3  1  0
  1 10  1  0
  2 11  1  0
  3 12  1  0
  5 13  1  0
  5 14  1  0
  7 15  1  0
  7 16  1  0
  9 17  1  0
M  END
