
     RDKit          3D

 20 21  0  0  0  0  0  0  0  0999 V2000
    0.7617   -2.1215    0.4671 O   0  0  0  0  0  0  0  0  0  0  0  0
    0.9195   -0.8268    0.0755 C   0  0  0  0  0  0  0  0  0  0  0  0
   -0.0559   -0.4311   -1.0431 C   0  0  0  0  0  0  0  0  0  0  0  0
    0.2588    1.0371   -1.1410 C   0  0  0  0  0  0  0  0  0  0  0  0
    0.6357    1.4618    0.2876 C   0  0  0  0  0  0  0  0  0  0  0  0
    0.3863    0.1811    1.0934 C   0  0  0  0  0  0  0  0  0  0  0  0
   -1.0817   -0.0366    1.0864 C   0  0  0  0  0  0  0  0  0  0  0  0
   -1.3712   -0.5665   -0.3186 C   0  0  0  0  0  0  0  0  0  0  0  0
    1.3835   -2.6854   -0.0575 H   0  0  0  0  0  0  0  0  0  0  0  0
    1.9116   -0.5303   -0.2507 H   0  0  0  0  0  0  0  0  0  0  0  0
    0.0526   -1.0033   -1.9385 H   0  0  0  0  0  0  0  0  0  0  0  0
    1.1882    1.1331   -1.7391 H   0  0  0  0  0  0  0  0  0  0  0  0
   -0.5692    1.6362   -1.5350 H   0  0  0  0  0  0  0  0  0  0  0  0
    1.6957    1.6844    0.3870 H   0  0  0  0  0  0  0  0  0  0  0  0
   -0.0525    2.2477    0.5889 H   0  0  0  0  0  0  0  0  0  0  0  0
    0.8884    0.1592    2.0377 H   0  0  0  0  0  0  0  0  0  0  0  0
   -1.6258    0.9504    1.1441 H   0  0  0  0  0  0  0  0  0  0  0  0
   -1.4834   -0.6648    1.8715 H   0  0  0  0  0  0  0  0  0  0  0  0
   -2.1589   -0.0085   -0.8258 H   0  0  0  0  0  0  0  0  0  0  0  0
   -1.6834   -1.6162   -0.1898 H   0  0  0  0  0  0  0  0  0  0  0  0
  1  2  1  0
  2  3  1  0
  3  4  1  0
  4  5  1  0
  5  6  1  0
  6  7  1  0
  7  8  1  0
  6  2  1  0
  8  3  1  0
  1  9  1  0
  2 10  1  0
  3 11  1  0
  4 12  1  0
  4 13  1  0
  5 14  1  0
  5 15  1  0
  6 16  1  0
  7 17  1  0
  7 18  1  0
  8 19  1  0
  8 20  1  0
M  END
