
     RDKit          3D

 18 19  0  0  0  0  0  0  0  0999 V2000
   -1.2279   -1.8957   -0.3447 O   0  0  0  0  0  0  0  0  0  0  0  0
   -1.0808   -0.5614   -0.0635 C   0  0  0  0  0  0  0  0  0  0  0  0
   -0.1547    0.1081   -1.0878 C   0  0  0  0  0  0  0  0  0  0  0  0
   -0.1614    1.5280   -0.6005 C   0  0  0  0  0  0  0  0  0  0  0  0
    0.0141    1.2694    0.9116 C   0  0  0  0  0  0  0  0  0  0  0  0
    0.0560   -0.2177    0.8989 C   0  0  0  0  0  0  0  0  0  0  0  0
    0.9759   -0.4962   -0.2962 C   0  0  0  0  0  0  0  0  0  0  0  0
    1.2437   -1.8192   -0.5278 O   0  0  0  0  0  0  0  0  0  0  0  0
   -0.9097   -2.5096    0.3478 H   0  0  0  0  0  0  0  0  0  0  0  0
   -1.9753    0.0134    0.1906 H   0  0  0  0  0  0  0  0  0  0  0  0
   -0.2845   -0.1248   -2.1072 H   0  0  0  0  0  0  0  0  0  0  0  0
   -1.1071    2.0229   -0.8185 H   0  0  0  0  0  0  0  0  0  0  0  0
    0.7208    2.0571   -0.9980 H   0  0  0  0  0  0  0  0  0  0  0  0
    0.9354    1.7612    1.2377 H   0  0  0  0  0  0  0  0  0  0  0  0
   -0.8964    1.6189    1.4568 H   0  0  0  0  0  0  0  0  0  0  0  0
    0.1768   -0.7923    1.7709 H   0  0  0  0  0  0  0  0  0  0  0  0
    1.8596    0.1811   -0.2021 H   0  0  0  0  0  0  0  0  0  0  0  0
    1.8156   -2.1431    0.2322 H   0  0  0  0  0  0  0  0  0  0  0  0
  1  2  1  0
  2  3  1  0
  3  4  1  0
  4  5  1  0
  5  6  1  0
  6  7  1  0
  7  8  1  0
  6  2  1  0
  7  3  1  0
  1  9  1  0
  2 10  1  0
  3 11  1  0
  4 12  1  0
  4 13  1  0
  5 14  1  0
  5 15  1  0
  6 16  1  0
  7 17  1  0
  8 18  1  0
M  END
