
     RDKit          3D

 19 21  0  0  0  0  0  0  0  0999 V2000
    3.0127   -0.1145    0.3659 O   0  0  0  0  0  0  0  0  0  0  0  0
    1.6530   -0.3776    0.6164 C   0  0  0  0  0  0  0  0  0  0  0  0
    0.8602   -0.6226   -0.6295 C   0  0  0  0  0  0  0  0  0  0  0  0
   -0.5663   -1.0815   -0.5640 C   0  0  0  0  0  0  0  0  0  0  0  0
   -1.0622   -0.7865    0.8355 C   0  0  0  0  0  0  0  0  0  0  0  0
   -0.7407    0.6493    0.4500 C   0  0  0  0  0  0  0  0  0  0  0  0
   -1.3771    1.6401    1.0810 O   0  0  0  0  0  0  0  0  0  0  0  0
   -1.2859    0.2282   -0.9293 C   0  0  0  0  0  0  0  0  0  0  0  0
    0.7261    0.6830    0.2327 C   0  0  0  0  0  0  0  0  0  0  0  0
    3.1431    0.5987   -0.2797 H   0  0  0  0  0  0  0  0  0  0  0  0
    1.5083   -1.0895    1.4290 H   0  0  0  0  0  0  0  0  0  0  0  0
    1.2704   -0.4158   -1.6181 H   0  0  0  0  0  0  0  0  0  0  0  0
   -0.8789   -1.9644   -1.0557 H   0  0  0  0  0  0  0  0  0  0  0  0
   -2.1694   -0.9648    0.8587 H   0  0  0  0  0  0  0  0  0  0  0  0
   -0.5108   -1.2085    1.6632 H   0  0  0  0  0  0  0  0  0  0  0  0
   -1.4930    2.4165    0.4454 H   0  0  0  0  0  0  0  0  0  0  0  0
   -2.3631    0.0335   -0.9400 H   0  0  0  0  0  0  0  0  0  0  0  0
   -0.8463    0.7697   -1.7690 H   0  0  0  0  0  0  0  0  0  0  0  0
    1.1200    1.6067   -0.1924 H   0  0  0  0  0  0  0  0  0  0  0  0
  1  2  1  0
  2  3  1  0
  3  4  1  0
  4  5  1  0
  5  6  1  0
  6  7  1  0
  6  8  1  0
  6  9  1  0
  9  2  1  0
  9  3  1  0
  8  4  1  0
  1 10  1  0
  2 11  1  0
  3 12  1  0
  4 13  1  0
  5 14  1  0
  5 15  1  0
  7 16  1  0
  8 17  1  0
  8 18  1  0
  9 19  1  0
M  END
