
     RDKit          3D

 17 19  0  0  0  0  0  0  0  0999 V2000
    2.1104    0.4733    1.0296 O   0  0  0  0  0  0  0  0  0  0  0  0
    1.3864   -0.4189    0.2227 C   0  0  0  0  0  0  0  0  0  0  0  0
    0.1361   -0.8604    0.9417 C   0  0  0  0  0  0  0  0  0  0  0  0
   -0.2770    0.3239    1.5197 O   0  0  0  0  0  0  0  0  0  0  0  0
   -0.2632    1.2455    0.4418 C   0  0  0  0  0  0  0  0  0  0  0  0
   -1.5551    1.2870   -0.0356 O   0  0  0  0  0  0  0  0  0  0  0  0
   -1.8551   -0.0784   -0.2345 C   0  0  0  0  0  0  0  0  0  0  0  0
   -0.5494   -0.7865   -0.4302 C   0  0  0  0  0  0  0  0  0  0  0  0
    0.4057    0.3701   -0.6031 C   0  0  0  0  0  0  0  0  0  0  0  0
    2.9039    0.7657    0.5149 H   0  0  0  0  0  0  0  0  0  0  0  0
    1.9632   -1.1841   -0.2861 H   0  0  0  0  0  0  0  0  0  0  0  0
    0.1102   -1.7728    1.4644 H   0  0  0  0  0  0  0  0  0  0  0  0
    0.2213    2.1693    0.6535 H   0  0  0  0  0  0  0  0  0  0  0  0
   -2.5961   -0.2432   -1.0084 H   0  0  0  0  0  0  0  0  0  0  0  0
   -2.3128   -0.4037    0.7462 H   0  0  0  0  0  0  0  0  0  0  0  0
   -0.4748   -1.6301   -1.0645 H   0  0  0  0  0  0  0  0  0  0  0  0
    0.6463    0.7433   -1.5464 H   0  0  0  0  0  0  0  0  0  0  0  0
  1  2  1  0
  2  3  1  0
  3  4  1  0
  4  5  1  0
  5  6  1  0
  6  7  1  0
  7  8  1  0
  8  9  1  0
  9  2  1  0
  8  3  1  0
  9  5  1  0
  1 10  1  0
  2 11  1  0
  3 12  1  0
  5 13  1  0
  7 14  1  0
  7 15  1  0
  8 16  1  0
  9 17  1  0
M  END
