
     RDKit          3D

 19 20  0  0  0  0  0  0  0  0999 V2000
    1.3733    1.5225   -0.9684 O   0  0  0  0  0  0  0  0  0  0  0  0
    1.3966    0.7252    0.1481 C   0  0  0  0  0  0  0  0  0  0  0  0
    2.1088   -0.5685   -0.0581 C   0  0  0  0  0  0  0  0  0  0  0  0
    1.2739   -1.5758   -0.1966 C   0  0  0  0  0  0  0  0  0  0  0  0
   -0.1048   -1.1026   -0.1040 C   0  0  0  0  0  0  0  0  0  0  0  0
   -1.3768   -1.3105   -0.3338 C   0  0  0  0  0  0  0  0  0  0  0  0
   -2.1842   -0.1324    0.1580 C   0  0  0  0  0  0  0  0  0  0  0  0
   -1.1216    0.9761   -0.0289 C   0  0  0  0  0  0  0  0  0  0  0  0
    0.0384    0.2356    0.5856 C   0  0  0  0  0  0  0  0  0  0  0  0
    1.6764    2.4523   -0.7722 H   0  0  0  0  0  0  0  0  0  0  0  0
    1.8360    1.2705    1.0084 H   0  0  0  0  0  0  0  0  0  0  0  0
    3.1790   -0.6490   -0.0871 H   0  0  0  0  0  0  0  0  0  0  0  0
    1.6010   -2.5923   -0.3556 H   0  0  0  0  0  0  0  0  0  0  0  0
   -1.7679   -2.2072   -0.8095 H   0  0  0  0  0  0  0  0  0  0  0  0
   -2.3971   -0.2354    1.2372 H   0  0  0  0  0  0  0  0  0  0  0  0
   -3.0663    0.0486   -0.4536 H   0  0  0  0  0  0  0  0  0  0  0  0
   -1.4003    1.8904    0.4924 H   0  0  0  0  0  0  0  0  0  0  0  0
   -0.9781    1.0955   -1.1258 H   0  0  0  0  0  0  0  0  0  0  0  0
   -0.0861    0.1570    1.6639 H   0  0  0  0  0  0  0  0  0  0  0  0
  1  2  1  0
  2  3  1  0
  3  4  2  0
  4  5  1  0
  5  6  2  0
  6  7  1  0
  7  8  1  0
  8  9  1  0
  9  2  1  0
  9  5  1  0
  1 10  1  0
  2 11  1  0
  3 12  1  0
  4 13  1  0
  6 14  1  0
  7 15  1  0
  7 16  1  0
  8 17  1  0
  8 18  1  0
  9 19  1  0
M  END
