
     RDKit          3D

 19 20  0  0  0  0  0  0  0  0999 V2000
   -2.0276   -1.4955    0.4946 O   0  0  0  0  0  0  0  0  0  0  0  0
   -1.3228   -0.5560   -0.2060 C   0  0  0  0  0  0  0  0  0  0  0  0
   -1.5503    0.8929    0.2862 C   0  0  0  0  0  0  0  0  0  0  0  0
   -0.1244    1.0957   -0.1143 C   0  0  0  0  0  0  0  0  0  0  0  0
    1.0441    1.4842   -0.5104 C   0  0  0  0  0  0  0  0  0  0  0  0
    2.1041    0.4352   -0.4461 C   0  0  0  0  0  0  0  0  0  0  0  0
    1.2303   -0.8274   -0.4364 C   0  0  0  0  0  0  0  0  0  0  0  0
    0.0534   -0.3501    0.3651 C   0  0  0  0  0  0  0  0  0  0  0  0
    0.1654   -0.4648    1.7264 O   0  0  0  0  0  0  0  0  0  0  0  0
   -2.7997   -1.8473    0.0144 H   0  0  0  0  0  0  0  0  0  0  0  0
   -1.2900   -0.6299   -1.2921 H   0  0  0  0  0  0  0  0  0  0  0  0
   -2.2939    1.4424   -0.2917 H   0  0  0  0  0  0  0  0  0  0  0  0
   -1.7394    0.8856    1.3572 H   0  0  0  0  0  0  0  0  0  0  0  0
    1.2691    2.4932   -0.8691 H   0  0  0  0  0  0  0  0  0  0  0  0
    2.6581    0.4480    0.4900 H   0  0  0  0  0  0  0  0  0  0  0  0
    2.6930    0.4361   -1.3686 H   0  0  0  0  0  0  0  0  0  0  0  0
    1.7083   -1.6600    0.0781 H   0  0  0  0  0  0  0  0  0  0  0  0
    0.9043   -1.0974   -1.4582 H   0  0  0  0  0  0  0  0  0  0  0  0
   -0.6818   -0.6847    2.1809 H   0  0  0  0  0  0  0  0  0  0  0  0
  1  2  1  0
  2  3  1  0
  3  4  1  0
  4  5  2  0
  5  6  1  0
  6  7  1  0
  7  8  1  0
  8  9  1  0
  8  2  1  0
  8  4  1  0
  1 10  1  0
  2 11  1  0
  3 12  1  0
  3 13  1  0
  5 14  1  0
  6 15  1  0
  6 16  1  0
  7 17  1  0
  7 18  1  0
  9 19  1  0
M  END
