
     RDKit          3D

 19 20  0  0  0  0  0  0  0  0999 V2000
   -1.3452    1.7781    0.6309 O   0  0  0  0  0  0  0  0  0  0  0  0
   -0.7481    0.8372   -0.1907 C   0  0  0  0  0  0  0  0  0  0  0  0
   -1.5266   -0.4763    0.0454 C   0  0  0  0  0  0  0  0  0  0  0  0
   -0.4272   -1.5588    0.1383 C   0  0  0  0  0  0  0  0  0  0  0  0
    0.6176   -0.8708   -0.6540 C   0  0  0  0  0  0  0  0  0  0  0  0
    1.7355   -0.0799   -0.3472 C   0  0  0  0  0  0  0  0  0  0  0  0
    2.3299    0.7189   -1.3461 O   0  0  0  0  0  0  0  0  0  0  0  0
    0.5830    0.4072    0.2862 C   0  0  0  0  0  0  0  0  0  0  0  0
    0.5076    0.1188    1.6775 O   0  0  0  0  0  0  0  0  0  0  0  0
   -1.5014    2.6170    0.1366 H   0  0  0  0  0  0  0  0  0  0  0  0
   -0.7756    1.1089   -1.2639 H   0  0  0  0  0  0  0  0  0  0  0  0
   -2.0858   -0.4423    0.9809 H   0  0  0  0  0  0  0  0  0  0  0  0
   -2.1221   -0.7185   -0.8381 H   0  0  0  0  0  0  0  0  0  0  0  0
   -0.7792   -2.5105   -0.2511 H   0  0  0  0  0  0  0  0  0  0  0  0
   -0.1846   -1.6726    1.2104 H   0  0  0  0  0  0  0  0  0  0  0  0
    0.2047   -0.7127   -1.7000 H   0  0  0  0  0  0  0  0  0  0  0  0
    2.5615   -0.5514    0.2611 H   0  0  0  0  0  0  0  0  0  0  0  0
    3.0473    1.2742   -0.9189 H   0  0  0  0  0  0  0  0  0  0  0  0
   -0.0913    0.7335    2.1427 H   0  0  0  0  0  0  0  0  0  0  0  0
  1  2  1  0
  2  3  1  0
  3  4  1  0
  4  5  1  0
  5  6  1  0
  6  7  1  0
  6  8  1  0
  8  9  1  0
  8  2  1  0
  8  5  1  0
  1 10  1  0
  2 11  1  0
  3 12  1  0
  3 13  1  0
  4 14  1  0
  4 15  1  0
  5 16  1  0
  6 17  1  0
  7 18  1  0
  9 19  1  0
M  END
