
     RDKit          3D

 19 20  0  0  0  0  0  0  0  0999 V2000
   -2.2047    1.7179    0.2628 O   0  0  0  0  0  0  0  0  0  0  0  0
   -1.5778    0.8053   -0.5821 C   0  0  0  0  0  0  0  0  0  0  0  0
   -1.6477   -0.6141   -0.1100 C   0  0  0  0  0  0  0  0  0  0  0  0
   -2.1059   -0.9096    1.1673 O   0  0  0  0  0  0  0  0  0  0  0  0
   -0.3389    0.1777   -0.1395 C   0  0  0  0  0  0  0  0  0  0  0  0
    0.6798   -0.4053   -1.0729 C   0  0  0  0  0  0  0  0  0  0  0  0
    1.8388   -0.6457   -0.0940 C   0  0  0  0  0  0  0  0  0  0  0  0
    1.6402    0.5631    0.8314 C   0  0  0  0  0  0  0  0  0  0  0  0
    0.2749    0.5225    1.0292 O   0  0  0  0  0  0  0  0  0  0  0  0
   -1.6945    1.9023    1.0872 H   0  0  0  0  0  0  0  0  0  0  0  0
   -1.7608    1.0332   -1.6592 H   0  0  0  0  0  0  0  0  0  0  0  0
   -1.7959   -1.4260   -0.8337 H   0  0  0  0  0  0  0  0  0  0  0  0
   -1.3224   -1.2966    1.6556 H   0  0  0  0  0  0  0  0  0  0  0  0
    0.9757    0.2481   -1.8961 H   0  0  0  0  0  0  0  0  0  0  0  0
    0.4083   -1.4127   -1.4553 H   0  0  0  0  0  0  0  0  0  0  0  0
    1.6736   -1.5754    0.4658 H   0  0  0  0  0  0  0  0  0  0  0  0
    2.7798   -0.5762   -0.6339 H   0  0  0  0  0  0  0  0  0  0  0  0
    2.2309    0.4220    1.7332 H   0  0  0  0  0  0  0  0  0  0  0  0
    1.9466    1.4694    0.2441 H   0  0  0  0  0  0  0  0  0  0  0  0
  1  2  1  0
  2  3  1  0
  3  4  1  0
  3  5  1  0
  5  6  1  0
  6  7  1  0
  7  8  1  0
  8  9  1  0
  5  2  1  0
  9  5  1  0
  1 10  1  0
  2 11  1  0
  3 12  1  0
  4 13  1  0
  6 14  1  0
  6 15  1  0
  7 16  1  0
  7 17  1  0
  8 18  1  0
  8 19  1  0
M  END
