
     RDKit          3D

 21 22  0  0  0  0  0  0  0  0999 V2000
   -1.6842    0.8853    0.9954 O   0  0  0  0  0  0  0  0  0  0  0  0
   -1.4842    0.5655   -0.3476 C   0  0  0  0  0  0  0  0  0  0  0  0
   -1.5719   -0.9625   -0.4336 C   0  0  0  0  0  0  0  0  0  0  0  0
   -0.7246   -1.4940    0.6876 C   0  0  0  0  0  0  0  0  0  0  0  0
    0.2856   -0.6821    1.0810 O   0  0  0  0  0  0  0  0  0  0  0  0
    0.8952    0.0806    0.1371 C   0  0  0  0  0  0  0  0  0  0  0  0
    2.0831    0.8798    0.6373 C   0  0  0  0  0  0  0  0  0  0  0  0
    2.2847   -0.1940   -0.3503 C   0  0  0  0  0  0  0  0  0  0  0  0
   -0.0395    0.8753   -0.7365 C   0  0  0  0  0  0  0  0  0  0  0  0
   -2.3857    1.5767    1.1162 H   0  0  0  0  0  0  0  0  0  0  0  0
   -2.1904    1.0588   -1.0239 H   0  0  0  0  0  0  0  0  0  0  0  0
   -1.1362   -1.2603   -1.4295 H   0  0  0  0  0  0  0  0  0  0  0  0
   -2.6199   -1.2748   -0.3852 H   0  0  0  0  0  0  0  0  0  0  0  0
   -1.4262   -1.6066    1.5687 H   0  0  0  0  0  0  0  0  0  0  0  0
   -0.4200   -2.5417    0.4483 H   0  0  0  0  0  0  0  0  0  0  0  0
    2.2221    1.9160    0.2792 H   0  0  0  0  0  0  0  0  0  0  0  0
    2.3991    0.7543    1.6971 H   0  0  0  0  0  0  0  0  0  0  0  0
    2.8104   -1.0956    0.0033 H   0  0  0  0  0  0  0  0  0  0  0  0
    2.4605    0.1054   -1.4087 H   0  0  0  0  0  0  0  0  0  0  0  0
    0.1694    1.9426   -0.7555 H   0  0  0  0  0  0  0  0  0  0  0  0
    0.0725    0.4710   -1.7806 H   0  0  0  0  0  0  0  0  0  0  0  0
  1  2  1  0
  2  3  1  0
  3  4  1  0
  4  5  1  0
  5  6  1  0
  6  7  1  0
  7  8  1  0
  6  9  1  0
  9  2  1  0
  8  6  1  0
  1 10  1  0
  2 11  1  0
  3 12  1  0
  3 13  1  0
  4 14  1  0
  4 15  1  0
  7 16  1  0
  7 17  1  0
  8 18  1  0
  8 19  1  0
  9 20  1  0
  9 21  1  0
M  END
