
     RDKit          3D

 15 16  0  0  0  0  0  0  0  0999 V2000
   -1.8495   -0.6999   -1.1080 O   0  0  0  0  0  0  0  0  0  0  0  0
   -1.2193   -0.5202    0.1359 C   0  0  0  0  0  0  0  0  0  0  0  0
   -1.4991    0.8461    0.6699 C   0  0  0  0  0  0  0  0  0  0  0  0
   -0.2527    1.5064    0.8287 O   0  0  0  0  0  0  0  0  0  0  0  0
    0.7654    0.7153    0.2925 C   0  0  0  0  0  0  0  0  0  0  0  0
    2.1099    0.6289   -0.0009 C   0  0  0  0  0  0  0  0  0  0  0  0
    2.3588   -0.5964   -0.5785 C   0  0  0  0  0  0  0  0  0  0  0  0
    1.2155   -1.2237   -0.6322 O   0  0  0  0  0  0  0  0  0  0  0  0
    0.2532   -0.4937   -0.1331 C   0  0  0  0  0  0  0  0  0  0  0  0
   -2.4681   -1.4739   -1.0938 H   0  0  0  0  0  0  0  0  0  0  0  0
   -1.4989   -1.3418    0.8205 H   0  0  0  0  0  0  0  0  0  0  0  0
   -2.0582    0.7894    1.6359 H   0  0  0  0  0  0  0  0  0  0  0  0
   -2.0603    1.4452   -0.0942 H   0  0  0  0  0  0  0  0  0  0  0  0
    2.8640    1.3854    0.1828 H   0  0  0  0  0  0  0  0  0  0  0  0
    3.3394   -0.9672   -0.9257 H   0  0  0  0  0  0  0  0  0  0  0  0
  1  2  1  0
  2  3  1  0
  3  4  1  0
  4  5  1  0
  5  6  1  0
  6  7  2  0
  7  8  1  0
  8  9  1  0
  9  2  1  0
  9  5  2  0
  1 10  1  0
  2 11  1  0
  3 12  1  0
  3 13  1  0
  6 14  1  0
  7 15  1  0
M  END
