
     RDKit          3D

 20 21  0  0  0  0  0  0  0  0999 V2000
    2.2812   -0.8233    0.8585 O   0  0  0  0  0  0  0  0  0  0  0  0
    0.9466   -0.5005    0.7355 C   0  0  0  0  0  0  0  0  0  0  0  0
    0.4926   -0.7773   -0.7049 C   0  0  0  0  0  0  0  0  0  0  0  0
   -0.9980   -0.9368   -0.6432 C   0  0  0  0  0  0  0  0  0  0  0  0
   -1.6378    0.1021    0.2035 C   0  0  0  0  0  0  0  0  0  0  0  0
   -0.7888    1.2576    0.5690 C   0  0  0  0  0  0  0  0  0  0  0  0
    0.6786    0.9679    0.4275 C   0  0  0  0  0  0  0  0  0  0  0  0
    0.9297    0.6274   -1.0306 C   0  0  0  0  0  0  0  0  0  0  0  0
    2.3355   -1.8216    0.8582 H   0  0  0  0  0  0  0  0  0  0  0  0
    0.2773   -0.9526    1.4788 H   0  0  0  0  0  0  0  0  0  0  0  0
    1.0554   -1.5809   -1.1657 H   0  0  0  0  0  0  0  0  0  0  0  0
   -1.1870   -1.9345   -0.1461 H   0  0  0  0  0  0  0  0  0  0  0  0
   -1.4710   -1.0365   -1.6469 H   0  0  0  0  0  0  0  0  0  0  0  0
   -2.5400    0.4823   -0.3574 H   0  0  0  0  0  0  0  0  0  0  0  0
   -2.0760   -0.3196    1.1530 H   0  0  0  0  0  0  0  0  0  0  0  0
   -1.0027    1.6350    1.5975 H   0  0  0  0  0  0  0  0  0  0  0  0
   -1.0271    2.1346   -0.1027 H   0  0  0  0  0  0  0  0  0  0  0  0
    1.3755    1.6520    0.8953 H   0  0  0  0  0  0  0  0  0  0  0  0
    0.3406    1.1772   -1.7609 H   0  0  0  0  0  0  0  0  0  0  0  0
    2.0153    0.6474   -1.2183 H   0  0  0  0  0  0  0  0  0  0  0  0
  1  2  1  0
  2  3  1  0
  3  4  1  0
  4  5  1  0
  5  6  1  0
  6  7  1  0
  7  8  1  0
  7  2  1  0
  8  3  1  0
  1  9  1  0
  2 10  1  0
  3 11  1  0
  4 12  1  0
  4 13  1  0
  5 14  1  0
  5 15  1  0
  6 16  1  0
  6 17  1  0
  7 18  1  0
  8 19  1  0
  8 20  1  0
M  END
