
     RDKit          3D

 18 19  0  0  0  0  0  0  0  0999 V2000
    1.5063    0.2773   -1.4642 O   0  0  0  0  0  0  0  0  0  0  0  0
    1.6369   -0.0835   -0.1196 C   0  0  0  0  0  0  0  0  0  0  0  0
    0.5220   -0.8013    0.5733 C   0  0  0  0  0  0  0  0  0  0  0  0
   -0.7051   -1.2077   -0.1472 C   0  0  0  0  0  0  0  0  0  0  0  0
   -1.7739   -0.1724   -0.2310 C   0  0  0  0  0  0  0  0  0  0  0  0
   -1.5734    0.9191    0.5995 O   0  0  0  0  0  0  0  0  0  0  0  0
   -0.3589    1.5030    0.2113 C   0  0  0  0  0  0  0  0  0  0  0  0
    0.7323    0.6189    0.8069 C   0  0  0  0  0  0  0  0  0  0  0  0
    2.1743   -0.1511   -2.0401 H   0  0  0  0  0  0  0  0  0  0  0  0
    2.6954   -0.3199    0.1452 H   0  0  0  0  0  0  0  0  0  0  0  0
    0.8895   -1.5067    1.3756 H   0  0  0  0  0  0  0  0  0  0  0  0
   -0.4788   -1.5406   -1.1966 H   0  0  0  0  0  0  0  0  0  0  0  0
   -1.1509   -2.1245    0.3365 H   0  0  0  0  0  0  0  0  0  0  0  0
   -2.7844   -0.6126   -0.0237 H   0  0  0  0  0  0  0  0  0  0  0  0
   -1.8617    0.2404   -1.2732 H   0  0  0  0  0  0  0  0  0  0  0  0
   -0.2655    1.4841   -0.9019 H   0  0  0  0  0  0  0  0  0  0  0  0
   -0.2492    2.5366    0.5563 H   0  0  0  0  0  0  0  0  0  0  0  0
    1.0452    0.9409    1.8237 H   0  0  0  0  0  0  0  0  0  0  0  0
  1  2  1  0
  2  3  1  0
  3  4  1  0
  4  5  1  0
  5  6  1  0
  6  7  1  0
  7  8  1  0
  8  2  1  0
  8  3  1  0
  1  9  1  0
  2 10  1  0
  3 11  1  0
  4 12  1  0
  4 13  1  0
  5 14  1  0
  5 15  1  0
  7 16  1  0
  7 17  1  0
  8 18  1  0
M  END
