
     RDKit          3D

 18 19  0  0  0  0  0  0  0  0999 V2000
    2.5734   -0.2842   -0.5128 O   0  0  0  0  0  0  0  0  0  0  0  0
    1.3898   -0.3949    0.1981 C   0  0  0  0  0  0  0  0  0  0  0  0
    0.3033   -1.1894   -0.5247 C   0  0  0  0  0  0  0  0  0  0  0  0
   -0.6080   -0.0587   -0.2685 C   0  0  0  0  0  0  0  0  0  0  0  0
   -1.8675    0.2129   -0.8801 C   0  0  0  0  0  0  0  0  0  0  0  0
   -1.7534   -0.0805    0.6327 C   0  0  0  0  0  0  0  0  0  0  0  0
    0.5185    0.8547   -0.0117 C   0  0  0  0  0  0  0  0  0  0  0  0
    0.4820    1.5452    1.2177 O   0  0  0  0  0  0  0  0  0  0  0  0
    3.1997    0.2272    0.0499 H   0  0  0  0  0  0  0  0  0  0  0  0
    1.4575   -0.7327    1.2355 H   0  0  0  0  0  0  0  0  0  0  0  0
    0.5549   -1.4478   -1.5598 H   0  0  0  0  0  0  0  0  0  0  0  0
    0.0045   -2.1282    0.0235 H   0  0  0  0  0  0  0  0  0  0  0  0
   -2.2394    1.2262   -1.1116 H   0  0  0  0  0  0  0  0  0  0  0  0
   -2.3850   -0.5846   -1.4795 H   0  0  0  0  0  0  0  0  0  0  0  0
   -2.0902   -1.0584    0.9935 H   0  0  0  0  0  0  0  0  0  0  0  0
   -1.8527    0.8152    1.3140 H   0  0  0  0  0  0  0  0  0  0  0  0
    0.8670    1.5045   -0.8253 H   0  0  0  0  0  0  0  0  0  0  0  0
    1.4455    1.5737    1.5090 H   0  0  0  0  0  0  0  0  0  0  0  0
  1  2  1  0
  2  3  1  0
  3  4  1  0
  4  5  1  0
  5  6  1  0
  4  7  1  0
  7  8  1  0
  7  2  1  0
  6  4  1  0
  1  9  1  0
  2 10  1  0
  3 11  1  0
  3 12  1  0
  5 13  1  0
  5 14  1  0
  6 15  1  0
  6 16  1  0
  7 17  1  0
  8 18  1  0
M  END
