
     RDKit          3D

 17 19  0  0  0  0  0  0  0  0999 V2000
    1.3146    0.4181    1.2909 O   0  0  0  0  0  0  0  0  0  0  0  0
    1.3258   -0.2147    0.0747 C   0  0  0  0  0  0  0  0  0  0  0  0
    0.2506   -1.1915   -0.2157 C   0  0  0  0  0  0  0  0  0  0  0  0
   -1.0598   -0.9156    0.4344 C   0  0  0  0  0  0  0  0  0  0  0  0
   -1.4775    0.5265    0.2221 C   0  0  0  0  0  0  0  0  0  0  0  0
   -0.6860    1.4293    0.9415 O   0  0  0  0  0  0  0  0  0  0  0  0
   -0.5073    1.3521   -0.4234 C   0  0  0  0  0  0  0  0  0  0  0  0
    0.6201    0.5566   -1.0118 C   0  0  0  0  0  0  0  0  0  0  0  0
    0.1859   -0.6802   -1.5274 O   0  0  0  0  0  0  0  0  0  0  0  0
    2.1934    0.2082    1.7383 H   0  0  0  0  0  0  0  0  0  0  0  0
    2.3030   -0.5645   -0.2886 H   0  0  0  0  0  0  0  0  0  0  0  0
    0.4954   -2.2617   -0.1840 H   0  0  0  0  0  0  0  0  0  0  0  0
   -1.0853   -1.1627    1.5114 H   0  0  0  0  0  0  0  0  0  0  0  0
   -1.8306   -1.5686   -0.0512 H   0  0  0  0  0  0  0  0  0  0  0  0
   -2.5703    0.7175    0.1396 H   0  0  0  0  0  0  0  0  0  0  0  0
   -0.7899    2.2588   -0.9822 H   0  0  0  0  0  0  0  0  0  0  0  0
    1.3180    1.0924   -1.6685 H   0  0  0  0  0  0  0  0  0  0  0  0
  1  2  1  0
  2  3  1  0
  3  4  1  0
  4  5  1  0
  5  6  1  0
  6  7  1  0
  7  8  1  0
  8  9  1  0
  8  2  1  0
  9  3  1  0
  7  5  1  0
  1 10  1  0
  2 11  1  0
  3 12  1  0
  4 13  1  0
  4 14  1  0
  5 15  1  0
  7 16  1  0
  8 17  1  0
M  END
