
     RDKit          3D

 19 20  0  0  0  0  0  0  0  0999 V2000
   -1.6273   -0.6981   -1.4651 O   0  0  0  0  0  0  0  0  0  0  0  0
   -1.7449   -0.2468   -0.1505 C   0  0  0  0  0  0  0  0  0  0  0  0
   -1.1594    1.1343    0.0181 C   0  0  0  0  0  0  0  0  0  0  0  0
    0.2837    0.8407   -0.1591 C   0  0  0  0  0  0  0  0  0  0  0  0
    1.4465    1.1414   -0.6835 C   0  0  0  0  0  0  0  0  0  0  0  0
    2.4018    0.0820   -0.1878 C   0  0  0  0  0  0  0  0  0  0  0  0
    1.5141   -1.0035   -0.0078 O   0  0  0  0  0  0  0  0  0  0  0  0
    0.4940   -0.4063    0.6746 C   0  0  0  0  0  0  0  0  0  0  0  0
   -0.8190   -1.0949    0.6894 C   0  0  0  0  0  0  0  0  0  0  0  0
   -1.5357   -1.6772   -1.4269 H   0  0  0  0  0  0  0  0  0  0  0  0
   -2.7633   -0.3471    0.2363 H   0  0  0  0  0  0  0  0  0  0  0  0
   -1.5456    1.8512   -0.7301 H   0  0  0  0  0  0  0  0  0  0  0  0
   -1.3235    1.4540    1.0511 H   0  0  0  0  0  0  0  0  0  0  0  0
    1.6853    1.9682   -1.3338 H   0  0  0  0  0  0  0  0  0  0  0  0
    3.1500   -0.1178   -0.9598 H   0  0  0  0  0  0  0  0  0  0  0  0
    2.8251    0.4257    0.7649 H   0  0  0  0  0  0  0  0  0  0  0  0
    0.7795   -0.0749    1.7018 H   0  0  0  0  0  0  0  0  0  0  0  0
   -0.8105   -2.1123    0.2516 H   0  0  0  0  0  0  0  0  0  0  0  0
   -1.2509   -1.1186    1.7168 H   0  0  0  0  0  0  0  0  0  0  0  0
  1  2  1  0
  2  3  1  0
  3  4  1  0
  4  5  2  0
  5  6  1  0
  6  7  1  0
  7  8  1  0
  8  9  1  0
  9  2  1  0
  8  4  1  0
  1 10  1  0
  2 11  1  0
  3 12  1  0
  3 13  1  0
  5 14  1  0
  6 15  1  0
  6 16  1  0
  8 17  1  0
  9 18  1  0
  9 19  1  0
M  END
