
     RDKit          3D

 19 20  0  0  0  0  0  0  0  0999 V2000
   -0.4594   -0.3393    1.9473 O   0  0  0  0  0  0  0  0  0  0  0  0
   -1.1711   -0.1776    0.7863 C   0  0  0  0  0  0  0  0  0  0  0  0
   -0.7868   -1.1218   -0.3485 C   0  0  0  0  0  0  0  0  0  0  0  0
    0.6395   -1.5263   -0.2669 C   0  0  0  0  0  0  0  0  0  0  0  0
    1.6810   -0.7285   -0.0696 C   0  0  0  0  0  0  0  0  0  0  0  0
    1.6419    0.7464    0.1299 C   0  0  0  0  0  0  0  0  0  0  0  0
    0.5512    1.4926    0.1368 C   0  0  0  0  0  0  0  0  0  0  0  0
   -0.8550    1.0450   -0.0379 C   0  0  0  0  0  0  0  0  0  0  0  0
   -0.8689    0.1100   -1.2569 C   0  0  0  0  0  0  0  0  0  0  0  0
    0.1405    0.4058    2.1747 H   0  0  0  0  0  0  0  0  0  0  0  0
   -2.2634   -0.2107    0.9801 H   0  0  0  0  0  0  0  0  0  0  0  0
   -1.4874   -1.9164   -0.5699 H   0  0  0  0  0  0  0  0  0  0  0  0
    0.8230   -2.5754   -0.3821 H   0  0  0  0  0  0  0  0  0  0  0  0
    2.6604   -1.1783   -0.0491 H   0  0  0  0  0  0  0  0  0  0  0  0
    2.5789    1.2518    0.2818 H   0  0  0  0  0  0  0  0  0  0  0  0
    0.6595    2.5516    0.2837 H   0  0  0  0  0  0  0  0  0  0  0  0
   -1.6024    1.8243   -0.0899 H   0  0  0  0  0  0  0  0  0  0  0  0
   -0.0171    0.2212   -1.9257 H   0  0  0  0  0  0  0  0  0  0  0  0
   -1.8644    0.1254   -1.7241 H   0  0  0  0  0  0  0  0  0  0  0  0
  1  2  1  0
  2  3  1  0
  3  4  1  0
  4  5  2  0
  5  6  1  0
  6  7  2  0
  7  8  1  0
  8  9  1  0
  8  2  1  0
  9  3  1  0
  1 10  1  0
  2 11  1  0
  3 12  1  0
  4 13  1  0
  5 14  1  0
  6 15  1  0
  7 16  1  0
  8 17  1  0
  9 18  1  0
  9 19  1  0
M  END
