
     RDKit          3D

 17 18  0  0  0  0  0  0  0  0999 V2000
    1.9435   -1.0197   -0.8843 O   0  0  0  0  0  0  0  0  0  0  0  0
    0.7598   -0.3185   -0.8213 C   0  0  0  0  0  0  0  0  0  0  0  0
    0.8295    1.0087   -0.0776 C   0  0  0  0  0  0  0  0  0  0  0  0
    1.9647    0.9858    0.7494 O   0  0  0  0  0  0  0  0  0  0  0  0
   -0.3804    0.5995    0.7200 C   0  0  0  0  0  0  0  0  0  0  0  0
   -1.6037    0.9008    0.1925 O   0  0  0  0  0  0  0  0  0  0  0  0
   -2.1877   -0.2280   -0.3017 C   0  0  0  0  0  0  0  0  0  0  0  0
   -1.3597   -1.3030   -0.0882 O   0  0  0  0  0  0  0  0  0  0  0  0
   -0.1330   -0.8245    0.2767 C   0  0  0  0  0  0  0  0  0  0  0  0
    2.6396   -0.6841   -0.2576 H   0  0  0  0  0  0  0  0  0  0  0  0
    0.3059   -0.1909   -1.8118 H   0  0  0  0  0  0  0  0  0  0  0  0
    0.7366    1.8990   -0.6983 H   0  0  0  0  0  0  0  0  0  0  0  0
    1.8463    0.2767    1.4347 H   0  0  0  0  0  0  0  0  0  0  0  0
   -0.2658    0.7895    1.8047 H   0  0  0  0  0  0  0  0  0  0  0  0
   -2.3200   -0.0856   -1.4095 H   0  0  0  0  0  0  0  0  0  0  0  0
   -3.2020   -0.4437    0.1214 H   0  0  0  0  0  0  0  0  0  0  0  0
    0.4264   -1.3621    1.0511 H   0  0  0  0  0  0  0  0  0  0  0  0
  1  2  1  0
  2  3  1  0
  3  4  1  0
  3  5  1  0
  5  6  1  0
  6  7  1  0
  7  8  1  0
  8  9  1  0
  9  2  1  0
  9  5  1  0
  1 10  1  0
  2 11  1  0
  3 12  1  0
  4 13  1  0
  5 14  1  0
  7 15  1  0
  7 16  1  0
  9 17  1  0
M  END
