
     RDKit          3D

 19 21  0  0  0  0  0  0  0  0999 V2000
    0.7123    2.0420   -0.2261 O   0  0  0  0  0  0  0  0  0  0  0  0
   -0.0385    0.9658   -0.7005 C   0  0  0  0  0  0  0  0  0  0  0  0
    0.8821   -0.2065   -0.8431 C   0  0  0  0  0  0  0  0  0  0  0  0
    1.9666   -0.3159    0.2349 C   0  0  0  0  0  0  0  0  0  0  0  0
    0.7324   -1.1045    0.3022 C   0  0  0  0  0  0  0  0  0  0  0  0
   -0.4798   -0.6333    1.0571 C   0  0  0  0  0  0  0  0  0  0  0  0
   -1.5854   -1.4301    0.6826 O   0  0  0  0  0  0  0  0  0  0  0  0
   -2.1141   -0.3694   -0.0714 C   0  0  0  0  0  0  0  0  0  0  0  0
   -1.0264    0.5653    0.3570 C   0  0  0  0  0  0  0  0  0  0  0  0
    1.5774    2.0548   -0.7156 H   0  0  0  0  0  0  0  0  0  0  0  0
   -0.5048    1.2840   -1.6489 H   0  0  0  0  0  0  0  0  0  0  0  0
    1.1102   -0.5214   -1.8627 H   0  0  0  0  0  0  0  0  0  0  0  0
    2.8781   -0.8450   -0.0897 H   0  0  0  0  0  0  0  0  0  0  0  0
    2.0465    0.5261    0.9632 H   0  0  0  0  0  0  0  0  0  0  0  0
    0.8183   -2.2051    0.2422 H   0  0  0  0  0  0  0  0  0  0  0  0
   -0.3523   -0.5056    2.1401 H   0  0  0  0  0  0  0  0  0  0  0  0
   -3.1354   -0.1417    0.3491 H   0  0  0  0  0  0  0  0  0  0  0  0
   -2.1327   -0.5728   -1.1623 H   0  0  0  0  0  0  0  0  0  0  0  0
   -1.3543    1.4134    0.9921 H   0  0  0  0  0  0  0  0  0  0  0  0
  1  2  1  0
  2  3  1  0
  3  4  1  0
  4  5  1  0
  5  6  1  0
  6  7  1  0
  7  8  1  0
  8  9  1  0
  9  2  1  0
  5  3  1  0
  9  6  1  0
  1 10  1  0
  2 11  1  0
  3 12  1  0
  4 13  1  0
  4 14  1  0
  5 15  1  0
  6 16  1  0
  8 17  1  0
  8 18  1  0
  9 19  1  0
M  END
