
     RDKit          3D

 17 19  0  0  0  0  0  0  0  0999 V2000
    2.7184    1.1272   -0.5488 O   0  0  0  0  0  0  0  0  0  0  0  0
    1.9182   -0.0369   -0.4282 C   0  0  0  0  0  0  0  0  0  0  0  0
    0.6194    0.1167   -1.0671 C   0  0  0  0  0  0  0  0  0  0  0  0
    0.8272   -0.1703    0.4609 C   0  0  0  0  0  0  0  0  0  0  0  0
   -0.5112   -0.8067    0.3838 C   0  0  0  0  0  0  0  0  0  0  0  0
   -0.9932   -1.0050    1.7019 O   0  0  0  0  0  0  0  0  0  0  0  0
   -1.7027   -0.5170   -0.4281 C   0  0  0  0  0  0  0  0  0  0  0  0
   -2.9619   -0.2144    0.0328 O   0  0  0  0  0  0  0  0  0  0  0  0
   -0.7023    0.5028   -0.3816 C   0  0  0  0  0  0  0  0  0  0  0  0
    3.2987    1.1078    0.2647 H   0  0  0  0  0  0  0  0  0  0  0  0
    2.5859   -0.9426   -0.5323 H   0  0  0  0  0  0  0  0  0  0  0  0
    0.4839   -0.7306   -1.7663 H   0  0  0  0  0  0  0  0  0  0  0  0
    0.7229    0.7953    1.0737 H   0  0  0  0  0  0  0  0  0  0  0  0
   -0.7456   -0.2925    2.3040 H   0  0  0  0  0  0  0  0  0  0  0  0
   -1.7563   -1.1307   -1.3799 H   0  0  0  0  0  0  0  0  0  0  0  0
   -3.0808    0.7784    0.0954 H   0  0  0  0  0  0  0  0  0  0  0  0
   -0.7205    1.4184    0.2151 H   0  0  0  0  0  0  0  0  0  0  0  0
  1  2  1  0
  2  3  1  0
  3  4  1  0
  4  5  1  0
  5  6  1  0
  5  7  1  0
  7  8  1  0
  7  9  1  0
  4  2  1  0
  9  5  1  0
  9  3  1  0
  1 10  1  0
  2 11  1  0
  3 12  1  0
  4 13  1  0
  6 14  1  0
  7 15  1  0
  8 16  1  0
  9 17  1  0
M  END
