
     RDKit          3D

 21 21  0  0  0  0  0  0  0  0999 V2000
   -2.0103   -1.5858    0.7191 O   0  0  0  0  0  0  0  0  0  0  0  0
   -1.1240   -0.7561    0.0864 C   0  0  0  0  0  0  0  0  0  0  0  0
   -1.2368    0.6966    0.5404 C   0  0  0  0  0  0  0  0  0  0  0  0
   -0.8070    1.5400   -0.6141 C   0  0  0  0  0  0  0  0  0  0  0  0
    0.5048    1.8917   -0.6336 O   0  0  0  0  0  0  0  0  0  0  0  0
    1.3872    1.0319   -0.0623 C   0  0  0  0  0  0  0  0  0  0  0  0
    1.2761   -0.3936   -0.4918 C   0  0  0  0  0  0  0  0  0  0  0  0
    2.5289   -0.9896   -0.2016 O   0  0  0  0  0  0  0  0  0  0  0  0
    0.2801   -1.1909    0.3237 C   0  0  0  0  0  0  0  0  0  0  0  0
   -2.4800   -2.1936    0.0629 H   0  0  0  0  0  0  0  0  0  0  0  0
   -1.3177   -0.8193   -1.0159 H   0  0  0  0  0  0  0  0  0  0  0  0
   -2.2988    0.8526    0.8216 H   0  0  0  0  0  0  0  0  0  0  0  0
   -0.6052    0.8836    1.4379 H   0  0  0  0  0  0  0  0  0  0  0  0
   -1.0312    1.0058   -1.5834 H   0  0  0  0  0  0  0  0  0  0  0  0
   -1.4364    2.4693   -0.6339 H   0  0  0  0  0  0  0  0  0  0  0  0
    1.3856    1.0852    1.0420 H   0  0  0  0  0  0  0  0  0  0  0  0
    2.4243    1.3692   -0.3647 H   0  0  0  0  0  0  0  0  0  0  0  0
    1.0463   -0.5124   -1.5626 H   0  0  0  0  0  0  0  0  0  0  0  0
    2.5696   -0.9641    0.8074 H   0  0  0  0  0  0  0  0  0  0  0  0
    0.3645   -2.2516   -0.0565 H   0  0  0  0  0  0  0  0  0  0  0  0
    0.5798   -1.1690    1.3790 H   0  0  0  0  0  0  0  0  0  0  0  0
  1  2  1  0
  2  3  1  0
  3  4  1  0
  4  5  1  0
  5  6  1  0
  6  7  1  0
  7  8  1  0
  7  9  1  0
  9  2  1  0
  1 10  1  0
  2 11  1  0
  3 12  1  0
  3 13  1  0
  4 14  1  0
  4 15  1  0
  6 16  1  0
  6 17  1  0
  7 18  1  0
  8 19  1  0
  9 20  1  0
  9 21  1  0
M  END
