
     RDKit          3D

 19 21  0  0  0  0  0  0  0  0999 V2000
   -2.2127   -0.0027    1.8894 O   0  0  0  0  0  0  0  0  0  0  0  0
   -1.9519   -0.6048    0.6302 C   0  0  0  0  0  0  0  0  0  0  0  0
   -1.3159    0.0957   -0.4307 C   0  0  0  0  0  0  0  0  0  0  0  0
   -0.2450   -0.3867   -1.3886 C   0  0  0  0  0  0  0  0  0  0  0  0
    0.5735   -0.3125   -0.1087 C   0  0  0  0  0  0  0  0  0  0  0  0
    1.0562    0.9393    0.3814 C   0  0  0  0  0  0  0  0  0  0  0  0
    2.3551    0.3521   -0.1523 C   0  0  0  0  0  0  0  0  0  0  0  0
    1.7723   -0.9153   -0.0799 O   0  0  0  0  0  0  0  0  0  0  0  0
   -0.6036   -1.0218    0.4459 C   0  0  0  0  0  0  0  0  0  0  0  0
   -2.3957    0.9611    1.7812 H   0  0  0  0  0  0  0  0  0  0  0  0
   -2.8665   -1.2127    0.3454 H   0  0  0  0  0  0  0  0  0  0  0  0
   -1.0245    1.1530   -0.1271 H   0  0  0  0  0  0  0  0  0  0  0  0
    0.0711    0.3506   -2.1132 H   0  0  0  0  0  0  0  0  0  0  0  0
   -0.3557   -1.4251   -1.7253 H   0  0  0  0  0  0  0  0  0  0  0  0
    1.0813    1.0115    1.5009 H   0  0  0  0  0  0  0  0  0  0  0  0
    0.8692    1.8996   -0.1074 H   0  0  0  0  0  0  0  0  0  0  0  0
    3.2281    0.4854    0.5104 H   0  0  0  0  0  0  0  0  0  0  0  0
    2.5456    0.6801   -1.1961 H   0  0  0  0  0  0  0  0  0  0  0  0
   -0.5809   -2.0468   -0.0555 H   0  0  0  0  0  0  0  0  0  0  0  0
  1  2  1  0
  2  3  1  0
  3  4  1  0
  4  5  1  0
  5  6  1  0
  6  7  1  0
  7  8  1  0
  5  9  1  0
  9  2  1  0
  9  3  1  0
  8  5  1  0
  1 10  1  0
  2 11  1  0
  3 12  1  0
  4 13  1  0
  4 14  1  0
  6 15  1  0
  6 16  1  0
  7 17  1  0
  7 18  1  0
  9 19  1  0
M  END
