
     RDKit          3D

 19 21  0  0  0  0  0  0  0  0999 V2000
    1.9604   -0.8045    1.1427 O   0  0  0  0  0  0  0  0  0  0  0  0
    1.0916   -1.0112    0.0764 C   0  0  0  0  0  0  0  0  0  0  0  0
    1.2070    0.1729   -0.8778 C   0  0  0  0  0  0  0  0  0  0  0  0
    0.1371    1.1581   -0.4075 C   0  0  0  0  0  0  0  0  0  0  0  0
    0.3291    2.5033   -0.5911 O   0  0  0  0  0  0  0  0  0  0  0  0
   -1.2634    0.5823   -0.5683 C   0  0  0  0  0  0  0  0  0  0  0  0
   -1.4071   -0.8976   -0.4222 C   0  0  0  0  0  0  0  0  0  0  0  0
   -0.3339   -0.8940    0.6272 C   0  0  0  0  0  0  0  0  0  0  0  0
   -0.4900    0.5809    0.7555 C   0  0  0  0  0  0  0  0  0  0  0  0
    1.4859   -0.9792    2.0043 H   0  0  0  0  0  0  0  0  0  0  0  0
    1.2698   -1.9718   -0.4149 H   0  0  0  0  0  0  0  0  0  0  0  0
    2.2048    0.6108   -0.8976 H   0  0  0  0  0  0  0  0  0  0  0  0
    0.8657   -0.1602   -1.8923 H   0  0  0  0  0  0  0  0  0  0  0  0
    0.1487    2.9471    0.2914 H   0  0  0  0  0  0  0  0  0  0  0  0
   -2.1232    1.2502   -0.6479 H   0  0  0  0  0  0  0  0  0  0  0  0
   -2.3838   -1.2080    0.0370 H   0  0  0  0  0  0  0  0  0  0  0  0
   -1.1747   -1.5092   -1.3268 H   0  0  0  0  0  0  0  0  0  0  0  0
   -0.5234   -1.4407    1.5481 H   0  0  0  0  0  0  0  0  0  0  0  0
   -1.0007    1.0708    1.5638 H   0  0  0  0  0  0  0  0  0  0  0  0
  1  2  1  0
  2  3  1  0
  3  4  1  0
  4  5  1  0
  4  6  1  0
  6  7  1  0
  7  8  1  0
  8  9  1  0
  8  2  1  0
  9  4  1  0
  9  6  1  0
  1 10  1  0
  2 11  1  0
  3 12  1  0
  3 13  1  0
  5 14  1  0
  6 15  1  0
  7 16  1  0
  7 17  1  0
  8 18  1  0
  9 19  1  0
M  END
