
     RDKit          3D

 21 23  0  0  0  0  0  0  0  0999 V2000
    2.8447    1.1697    0.3686 O   0  0  0  0  0  0  0  0  0  0  0  0
    1.5439    0.7125    0.3868 C   0  0  0  0  0  0  0  0  0  0  0  0
    1.3495   -0.5773   -0.4049 C   0  0  0  0  0  0  0  0  0  0  0  0
    0.2906   -1.4702    0.1538 C   0  0  0  0  0  0  0  0  0  0  0  0
   -1.0021   -0.8847   -0.3144 C   0  0  0  0  0  0  0  0  0  0  0  0
   -1.7992   -0.2095    0.7809 C   0  0  0  0  0  0  0  0  0  0  0  0
   -1.5386    1.1333    0.1477 C   0  0  0  0  0  0  0  0  0  0  0  0
   -0.6940    0.4690   -0.8976 C   0  0  0  0  0  0  0  0  0  0  0  0
    0.7667    0.6876   -0.8485 C   0  0  0  0  0  0  0  0  0  0  0  0
    3.4160    0.3922    0.6705 H   0  0  0  0  0  0  0  0  0  0  0  0
    1.0720    0.7793    1.4006 H   0  0  0  0  0  0  0  0  0  0  0  0
    2.2033   -1.0175   -0.9358 H   0  0  0  0  0  0  0  0  0  0  0  0
    0.4095   -2.5130   -0.2128 H   0  0  0  0  0  0  0  0  0  0  0  0
    0.3111   -1.4617    1.2791 H   0  0  0  0  0  0  0  0  0  0  0  0
   -1.5856   -1.5582   -0.9779 H   0  0  0  0  0  0  0  0  0  0  0  0
   -2.8500   -0.5691    0.7316 H   0  0  0  0  0  0  0  0  0  0  0  0
   -1.3283   -0.2669    1.7843 H   0  0  0  0  0  0  0  0  0  0  0  0
   -2.4821    1.5692   -0.2575 H   0  0  0  0  0  0  0  0  0  0  0  0
   -1.0437    1.8814    0.7808 H   0  0  0  0  0  0  0  0  0  0  0  0
   -1.1405    0.5605   -1.8954 H   0  0  0  0  0  0  0  0  0  0  0  0
    1.2568    1.1736   -1.7400 H   0  0  0  0  0  0  0  0  0  0  0  0
  1  2  1  0
  2  3  1  0
  3  4  1  0
  4  5  1  0
  5  6  1  0
  6  7  1  0
  7  8  1  0
  8  9  1  0
  9  2  1  0
  9  3  1  0
  8  5  1  0
  1 10  1  0
  2 11  1  0
  3 12  1  0
  4 13  1  0
  4 14  1  0
  5 15  1  0
  6 16  1  0
  6 17  1  0
  7 18  1  0
  7 19  1  0
  8 20  1  0
  9 21  1  0
M  END
