
     RDKit          3D

 19 20  0  0  0  0  0  0  0  0999 V2000
    1.5595    1.3139    0.8778 O   0  0  0  0  0  0  0  0  0  0  0  0
    1.2021    0.4740   -0.1600 C   0  0  0  0  0  0  0  0  0  0  0  0
    0.9202   -0.9531    0.2376 C   0  0  0  0  0  0  0  0  0  0  0  0
    1.7027   -1.8693   -0.4811 O   0  0  0  0  0  0  0  0  0  0  0  0
   -0.4438   -0.8125   -0.3828 C   0  0  0  0  0  0  0  0  0  0  0  0
   -1.5940   -0.6859    0.5717 C   0  0  0  0  0  0  0  0  0  0  0  0
   -2.2544    0.4557    0.0768 O   0  0  0  0  0  0  0  0  0  0  0  0
   -1.1745    1.3681    0.0813 C   0  0  0  0  0  0  0  0  0  0  0  0
   -0.1600    0.6439   -0.7359 C   0  0  0  0  0  0  0  0  0  0  0  0
    2.4142    0.9445    1.2548 H   0  0  0  0  0  0  0  0  0  0  0  0
    1.9731    0.5500   -0.9696 H   0  0  0  0  0  0  0  0  0  0  0  0
    0.9589   -1.0620    1.3288 H   0  0  0  0  0  0  0  0  0  0  0  0
    1.6566   -1.5901   -1.4385 H   0  0  0  0  0  0  0  0  0  0  0  0
   -0.6412   -1.4439   -1.2609 H   0  0  0  0  0  0  0  0  0  0  0  0
   -2.2056   -1.5868    0.5190 H   0  0  0  0  0  0  0  0  0  0  0  0
   -1.2652   -0.4183    1.5938 H   0  0  0  0  0  0  0  0  0  0  0  0
   -0.8957    1.5179    1.1289 H   0  0  0  0  0  0  0  0  0  0  0  0
   -1.5260    2.2682   -0.4365 H   0  0  0  0  0  0  0  0  0  0  0  0
   -0.2268    0.8856   -1.8053 H   0  0  0  0  0  0  0  0  0  0  0  0
  1  2  1  0
  2  3  1  0
  3  4  1  0
  3  5  1  0
  5  6  1  0
  6  7  1  0
  7  8  1  0
  8  9  1  0
  9  2  1  0
  9  5  1  0
  1 10  1  0
  2 11  1  0
  3 12  1  0
  4 13  1  0
  5 14  1  0
  6 15  1  0
  6 16  1  0
  8 17  1  0
  8 18  1  0
  9 19  1  0
M  END
