
     RDKit          3D

 19 20  0  0  0  0  0  0  0  0999 V2000
    2.5672   -0.3035   -0.5073 O   0  0  0  0  0  0  0  0  0  0  0  0
    1.3240   -0.1690    0.0540 C   0  0  0  0  0  0  0  0  0  0  0  0
    0.6046   -1.5249    0.1257 C   0  0  0  0  0  0  0  0  0  0  0  0
   -0.7343   -1.1209   -0.4973 C   0  0  0  0  0  0  0  0  0  0  0  0
   -1.3795   -0.1606    0.4493 C   0  0  0  0  0  0  0  0  0  0  0  0
   -0.7885    1.1746   -0.0270 C   0  0  0  0  0  0  0  0  0  0  0  0
   -1.6844    1.7023   -0.9261 O   0  0  0  0  0  0  0  0  0  0  0  0
    0.4090    0.6483   -0.8171 C   0  0  0  0  0  0  0  0  0  0  0  0
   -0.2459   -0.3489   -1.5800 O   0  0  0  0  0  0  0  0  0  0  0  0
    3.0604    0.5346   -0.3938 H   0  0  0  0  0  0  0  0  0  0  0  0
    1.3830    0.2755    1.0813 H   0  0  0  0  0  0  0  0  0  0  0  0
    0.3972   -1.7914    1.1665 H   0  0  0  0  0  0  0  0  0  0  0  0
    1.1156   -2.2932   -0.4516 H   0  0  0  0  0  0  0  0  0  0  0  0
   -1.3340   -1.9593   -0.8082 H   0  0  0  0  0  0  0  0  0  0  0  0
   -2.4655   -0.1766    0.3971 H   0  0  0  0  0  0  0  0  0  0  0  0
   -1.0586   -0.3762    1.4998 H   0  0  0  0  0  0  0  0  0  0  0  0
   -0.5055    1.8224    0.7963 H   0  0  0  0  0  0  0  0  0  0  0  0
   -1.5570    2.6684   -1.0987 H   0  0  0  0  0  0  0  0  0  0  0  0
    0.8922    1.3981   -1.4216 H   0  0  0  0  0  0  0  0  0  0  0  0
  1  2  1  0
  2  3  1  0
  3  4  1  0
  4  5  1  0
  5  6  1  0
  6  7  1  0
  6  8  1  0
  8  9  1  0
  8  2  1  0
  9  4  1  0
  1 10  1  0
  2 11  1  0
  3 12  1  0
  3 13  1  0
  4 14  1  0
  5 15  1  0
  5 16  1  0
  6 17  1  0
  7 18  1  0
  8 19  1  0
M  END
