
     RDKit          3D

 19 21  0  0  0  0  0  0  0  0999 V2000
    2.4803    0.3664    0.4584 O   0  0  0  0  0  0  0  0  0  0  0  0
    1.8161   -0.5064   -0.3477 C   0  0  0  0  0  0  0  0  0  0  0  0
    1.0164    0.2877   -1.3661 C   0  0  0  0  0  0  0  0  0  0  0  0
   -0.1635    0.5479   -0.8764 C   0  0  0  0  0  0  0  0  0  0  0  0
   -1.5478    0.9401   -0.5020 C   0  0  0  0  0  0  0  0  0  0  0  0
   -1.9290   -0.3033    0.4062 C   0  0  0  0  0  0  0  0  0  0  0  0
   -0.5818   -0.7602    1.0117 C   0  0  0  0  0  0  0  0  0  0  0  0
    0.2050    0.2707    0.6351 C   0  0  0  0  0  0  0  0  0  0  0  0
    0.6006   -1.1822    0.3189 C   0  0  0  0  0  0  0  0  0  0  0  0
    2.6470    1.2045   -0.0769 H   0  0  0  0  0  0  0  0  0  0  0  0
    2.4399   -1.2676   -0.7803 H   0  0  0  0  0  0  0  0  0  0  0  0
    1.3646    0.5852   -2.3335 H   0  0  0  0  0  0  0  0  0  0  0  0
   -1.4976    1.7863    0.1884 H   0  0  0  0  0  0  0  0  0  0  0  0
   -2.2258    1.0060   -1.3382 H   0  0  0  0  0  0  0  0  0  0  0  0
   -2.6425   -0.0135    1.1586 H   0  0  0  0  0  0  0  0  0  0  0  0
   -2.2330   -1.1150   -0.2788 H   0  0  0  0  0  0  0  0  0  0  0  0
   -0.7373   -1.0327    2.0976 H   0  0  0  0  0  0  0  0  0  0  0  0
    0.7934    0.9486    1.1568 H   0  0  0  0  0  0  0  0  0  0  0  0
    0.1951   -1.7626   -0.5343 H   0  0  0  0  0  0  0  0  0  0  0  0
  1  2  1  0
  2  3  1  0
  3  4  2  0
  4  5  1  0
  5  6  1  0
  6  7  1  0
  7  8  1  0
  8  9  1  0
  9  2  1  0
  8  4  1  0
  9  7  1  0
  1 10  1  0
  2 11  1  0
  3 12  1  0
  5 13  1  0
  5 14  1  0
  6 15  1  0
  6 16  1  0
  7 17  1  0
  8 18  1  0
  9 19  1  0
M  END
