
     RDKit          3D

 19 21  0  0  0  0  0  0  0  0999 V2000
   -1.8512   -0.7316    1.3314 O   0  0  0  0  0  0  0  0  0  0  0  0
   -1.5248   -0.5541    0.0169 C   0  0  0  0  0  0  0  0  0  0  0  0
   -1.8328    0.8556   -0.5041 C   0  0  0  0  0  0  0  0  0  0  0  0
   -0.5978    0.8856   -1.1938 O   0  0  0  0  0  0  0  0  0  0  0  0
   -0.1769   -0.1078   -0.3446 C   0  0  0  0  0  0  0  0  0  0  0  0
    0.8193   -1.0759   -0.8415 C   0  0  0  0  0  0  0  0  0  0  0  0
    1.8986   -0.4630   -0.0175 C   0  0  0  0  0  0  0  0  0  0  0  0
    2.0026    0.9729    0.2512 C   0  0  0  0  0  0  0  0  0  0  0  0
    0.7705    0.2949    0.7446 C   0  0  0  0  0  0  0  0  0  0  0  0
   -2.2537    0.0831    1.7143 H   0  0  0  0  0  0  0  0  0  0  0  0
   -1.9435   -1.2784   -0.7140 H   0  0  0  0  0  0  0  0  0  0  0  0
   -2.6396    0.9018   -1.2426 H   0  0  0  0  0  0  0  0  0  0  0  0
   -1.8955    1.5396    0.3450 H   0  0  0  0  0  0  0  0  0  0  0  0
    0.5810   -2.1127   -0.4623 H   0  0  0  0  0  0  0  0  0  0  0  0
    0.9882   -1.1522   -1.9287 H   0  0  0  0  0  0  0  0  0  0  0  0
    2.5299   -1.1382    0.5811 H   0  0  0  0  0  0  0  0  0  0  0  0
    1.8071    1.7511   -0.5324 H   0  0  0  0  0  0  0  0  0  0  0  0
    2.7043    1.3044    1.0128 H   0  0  0  0  0  0  0  0  0  0  0  0
    0.6144    0.0251    1.7842 H   0  0  0  0  0  0  0  0  0  0  0  0
  1  2  1  0
  2  3  1  0
  3  4  1  0
  4  5  1  0
  5  6  1  0
  6  7  1  0
  7  8  1  0
  8  9  1  0
  5  2  1  0
  9  7  1  0
  9  5  1  0
  1 10  1  0
  2 11  1  0
  3 12  1  0
  3 13  1  0
  6 14  1  0
  6 15  1  0
  7 16  1  0
  8 17  1  0
  8 18  1  0
  9 19  1  0
M  END
