
     RDKit          3D

 21 22  0  0  0  0  0  0  0  0999 V2000
    0.2959    1.9306    0.3755 O   0  0  0  0  0  0  0  0  0  0  0  0
    0.1946    0.9705   -0.6591 C   0  0  0  0  0  0  0  0  0  0  0  0
    1.5913    0.5228   -0.9601 C   0  0  0  0  0  0  0  0  0  0  0  0
    2.0955   -0.1963    0.2389 C   0  0  0  0  0  0  0  0  0  0  0  0
    1.3116   -1.1263    0.7484 C   0  0  0  0  0  0  0  0  0  0  0  0
    0.0026   -1.3959    0.1118 C   0  0  0  0  0  0  0  0  0  0  0  0
   -0.7059   -0.1146   -0.1867 C   0  0  0  0  0  0  0  0  0  0  0  0
   -1.7587    0.3377    0.8369 C   0  0  0  0  0  0  0  0  0  0  0  0
   -2.1543   -0.1412   -0.4912 C   0  0  0  0  0  0  0  0  0  0  0  0
    0.2554    1.4095    1.2162 H   0  0  0  0  0  0  0  0  0  0  0  0
   -0.2768    1.5144   -1.5055 H   0  0  0  0  0  0  0  0  0  0  0  0
    1.6405   -0.0943   -1.8842 H   0  0  0  0  0  0  0  0  0  0  0  0
    2.2087    1.4468   -1.1031 H   0  0  0  0  0  0  0  0  0  0  0  0
    3.0563    0.0239    0.6803 H   0  0  0  0  0  0  0  0  0  0  0  0
    1.6136   -1.6831    1.6129 H   0  0  0  0  0  0  0  0  0  0  0  0
    0.1673   -1.9596   -0.8393 H   0  0  0  0  0  0  0  0  0  0  0  0
   -0.6344   -2.0130    0.8056 H   0  0  0  0  0  0  0  0  0  0  0  0
   -1.8432   -0.2802    1.7484 H   0  0  0  0  0  0  0  0  0  0  0  0
   -1.8516    1.4276    1.0239 H   0  0  0  0  0  0  0  0  0  0  0  0
   -2.6075   -1.1588   -0.5554 H   0  0  0  0  0  0  0  0  0  0  0  0
   -2.6008    0.5795   -1.2140 H   0  0  0  0  0  0  0  0  0  0  0  0
  1  2  1  0
  2  3  1  0
  3  4  1  0
  4  5  2  0
  5  6  1  0
  6  7  1  0
  7  8  1  0
  8  9  1  0
  7  2  1  0
  9  7  1  0
  1 10  1  0
  2 11  1  0
  3 12  1  0
  3 13  1  0
  4 14  1  0
  5 15  1  0
  6 16  1  0
  6 17  1  0
  8 18  1  0
  8 19  1  0
  9 20  1  0
  9 21  1  0
M  END
