
     RDKit          3D

 21 22  0  0  0  0  0  0  0  0999 V2000
    0.2277    2.5055   -0.2050 O   0  0  0  0  0  0  0  0  0  0  0  0
   -0.0263    1.1614   -0.2632 C   0  0  0  0  0  0  0  0  0  0  0  0
   -1.3863    0.7780    0.2936 C   0  0  0  0  0  0  0  0  0  0  0  0
   -1.6791   -0.6191   -0.1614 C   0  0  0  0  0  0  0  0  0  0  0  0
   -0.6075   -1.6018    0.0724 C   0  0  0  0  0  0  0  0  0  0  0  0
    0.7716   -1.1063    0.1287 C   0  0  0  0  0  0  0  0  0  0  0  0
    1.4370   -0.8820   -1.0744 O   0  0  0  0  0  0  0  0  0  0  0  0
    2.1967    0.0911   -0.3834 C   0  0  0  0  0  0  0  0  0  0  0  0
    0.9748    0.3136    0.4835 C   0  0  0  0  0  0  0  0  0  0  0  0
   -0.4583    3.0573    0.2085 H   0  0  0  0  0  0  0  0  0  0  0  0
   -0.0272    0.8221   -1.3262 H   0  0  0  0  0  0  0  0  0  0  0  0
   -2.1936    1.4313   -0.0463 H   0  0  0  0  0  0  0  0  0  0  0  0
   -1.2911    0.8160    1.4110 H   0  0  0  0  0  0  0  0  0  0  0  0
   -1.9038   -0.5576   -1.2621 H   0  0  0  0  0  0  0  0  0  0  0  0
   -2.6234   -0.9624    0.3170 H   0  0  0  0  0  0  0  0  0  0  0  0
   -0.6705   -2.3856   -0.7405 H   0  0  0  0  0  0  0  0  0  0  0  0
   -0.8243   -2.1879    1.0137 H   0  0  0  0  0  0  0  0  0  0  0  0
    1.4244   -1.7662    0.7706 H   0  0  0  0  0  0  0  0  0  0  0  0
    2.9824   -0.4098    0.2261 H   0  0  0  0  0  0  0  0  0  0  0  0
    2.5238    0.9375   -0.9886 H   0  0  0  0  0  0  0  0  0  0  0  0
    1.1528    0.5647    1.5261 H   0  0  0  0  0  0  0  0  0  0  0  0
  1  2  1  0
  2  3  1  0
  3  4  1  0
  4  5  1  0
  5  6  1  0
  6  7  1  0
  7  8  1  0
  8  9  1  0
  9  2  1  0
  9  6  1  0
  1 10  1  0
  2 11  1  0
  3 12  1  0
  3 13  1  0
  4 14  1  0
  4 15  1  0
  5 16  1  0
  5 17  1  0
  6 18  1  0
  8 19  1  0
  8 20  1  0
  9 21  1  0
M  END
