
     RDKit          3D

 21 22  0  0  0  0  0  0  0  0999 V2000
    2.5545   -0.0607    0.8903 O   0  0  0  0  0  0  0  0  0  0  0  0
    1.9087    0.7709   -0.0352 C   0  0  0  0  0  0  0  0  0  0  0  0
    1.7123    0.1736   -1.4214 C   0  0  0  0  0  0  0  0  0  0  0  0
    0.5638    0.4382   -0.5482 C   0  0  0  0  0  0  0  0  0  0  0  0
   -0.2465   -0.6632    0.0840 C   0  0  0  0  0  0  0  0  0  0  0  0
   -1.5603   -0.7743   -0.6406 C   0  0  0  0  0  0  0  0  0  0  0  0
   -2.3818    0.2892    0.0021 C   0  0  0  0  0  0  0  0  0  0  0  0
   -1.8653    0.6188    1.1819 C   0  0  0  0  0  0  0  0  0  0  0  0
   -0.6519   -0.1726    1.4697 C   0  0  0  0  0  0  0  0  0  0  0  0
    3.2842   -0.5146    0.3774 H   0  0  0  0  0  0  0  0  0  0  0  0
    2.2171    1.8279    0.0569 H   0  0  0  0  0  0  0  0  0  0  0  0
    2.1002   -0.8261   -1.6394 H   0  0  0  0  0  0  0  0  0  0  0  0
    1.9187    0.9011   -2.2577 H   0  0  0  0  0  0  0  0  0  0  0  0
   -0.0662    1.3316   -0.8126 H   0  0  0  0  0  0  0  0  0  0  0  0
    0.2658   -1.6199    0.1342 H   0  0  0  0  0  0  0  0  0  0  0  0
   -1.4261   -0.6166   -1.7234 H   0  0  0  0  0  0  0  0  0  0  0  0
   -2.0472   -1.7597   -0.5074 H   0  0  0  0  0  0  0  0  0  0  0  0
   -3.2763    0.6959   -0.4905 H   0  0  0  0  0  0  0  0  0  0  0  0
   -2.3300    1.3877    1.8108 H   0  0  0  0  0  0  0  0  0  0  0  0
   -0.7992   -0.9890    2.1824 H   0  0  0  0  0  0  0  0  0  0  0  0
    0.1255    0.5268    1.8868 H   0  0  0  0  0  0  0  0  0  0  0  0
  1  2  1  0
  2  3  1  0
  3  4  1  0
  4  5  1  0
  5  6  1  0
  6  7  1  0
  7  8  2  0
  8  9  1  0
  4  2  1  0
  9  5  1  0
  1 10  1  0
  2 11  1  0
  3 12  1  0
  3 13  1  0
  4 14  1  0
  5 15  1  0
  6 16  1  0
  6 17  1  0
  7 18  1  0
  8 19  1  0
  9 20  1  0
  9 21  1  0
M  END
