
     RDKit          3D

 17 19  0  0  0  0  0  0  0  0999 V2000
    1.9714   -1.2658   -0.4204 O   0  0  0  0  0  0  0  0  0  0  0  0
    1.3851   -0.2063    0.2627 C   0  0  0  0  0  0  0  0  0  0  0  0
    0.1002   -0.6496    0.8957 C   0  0  0  0  0  0  0  0  0  0  0  0
   -0.9322    0.2497    0.3152 C   0  0  0  0  0  0  0  0  0  0  0  0
   -2.0853   -0.3790   -0.4351 C   0  0  0  0  0  0  0  0  0  0  0  0
   -2.1999    0.3431    0.7937 O   0  0  0  0  0  0  0  0  0  0  0  0
   -0.2530    1.3619   -0.4135 C   0  0  0  0  0  0  0  0  0  0  0  0
    0.2674    0.8926   -1.6936 O   0  0  0  0  0  0  0  0  0  0  0  0
    1.1017    0.9811   -0.5959 C   0  0  0  0  0  0  0  0  0  0  0  0
    2.1412   -1.9720    0.2666 H   0  0  0  0  0  0  0  0  0  0  0  0
    2.1051    0.1067    1.0478 H   0  0  0  0  0  0  0  0  0  0  0  0
    0.1020   -0.5613    2.0080 H   0  0  0  0  0  0  0  0  0  0  0  0
   -0.1529   -1.7172    0.6667 H   0  0  0  0  0  0  0  0  0  0  0  0
   -2.4826    0.1011   -1.3423 H   0  0  0  0  0  0  0  0  0  0  0  0
   -2.3141   -1.4414   -0.3121 H   0  0  0  0  0  0  0  0  0  0  0  0
   -0.6469    2.3851   -0.4161 H   0  0  0  0  0  0  0  0  0  0  0  0
    1.8929    1.7714   -0.6272 H   0  0  0  0  0  0  0  0  0  0  0  0
  1  2  1  0
  2  3  1  0
  3  4  1  0
  4  5  1  0
  5  6  1  0
  4  7  1  0
  7  8  1  0
  8  9  1  0
  9  2  1  0
  6  4  1  0
  9  7  1  0
  1 10  1  0
  2 11  1  0
  3 12  1  0
  3 13  1  0
  5 14  1  0
  5 15  1  0
  7 16  1  0
  9 17  1  0
M  END
