
     RDKit          3D

 18 18  0  0  0  0  0  0  0  0999 V2000
   -2.4967    0.6184   -0.5433 O   0  0  0  0  0  0  0  0  0  0  0  0
   -1.1597    0.3040   -0.4807 C   0  0  0  0  0  0  0  0  0  0  0  0
   -0.3882    1.3661    0.2370 C   0  0  0  0  0  0  0  0  0  0  0  0
    0.9185    1.3007    0.4822 C   0  0  0  0  0  0  0  0  0  0  0  0
    1.9051    0.2157    0.1281 C   0  0  0  0  0  0  0  0  0  0  0  0
    1.4934   -0.9863    0.6434 O   0  0  0  0  0  0  0  0  0  0  0  0
    0.4344   -1.5700    0.0081 C   0  0  0  0  0  0  0  0  0  0  0  0
   -0.9027   -0.9612    0.3406 C   0  0  0  0  0  0  0  0  0  0  0  0
   -2.6081    1.2567   -1.3078 H   0  0  0  0  0  0  0  0  0  0  0  0
   -0.7069    0.0962   -1.4818 H   0  0  0  0  0  0  0  0  0  0  0  0
   -0.9418    2.2370    0.5722 H   0  0  0  0  0  0  0  0  0  0  0  0
    1.2837    2.1648    1.0100 H   0  0  0  0  0  0  0  0  0  0  0  0
    2.8715    0.4782    0.6106 H   0  0  0  0  0  0  0  0  0  0  0  0
    2.0314    0.2283   -0.9694 H   0  0  0  0  0  0  0  0  0  0  0  0
    0.5430   -1.6471   -1.0969 H   0  0  0  0  0  0  0  0  0  0  0  0
    0.3837   -2.6403    0.3658 H   0  0  0  0  0  0  0  0  0  0  0  0
   -1.6767   -1.6876    0.0589 H   0  0  0  0  0  0  0  0  0  0  0  0
   -0.9838   -0.7734    1.4230 H   0  0  0  0  0  0  0  0  0  0  0  0
  1  2  1  0
  2  3  1  0
  3  4  2  0
  4  5  1  0
  5  6  1  0
  6  7  1  0
  7  8  1  0
  8  2  1  0
  1  9  1  0
  2 10  1  0
  3 11  1  0
  4 12  1  0
  5 13  1  0
  5 14  1  0
  7 15  1  0
  7 16  1  0
  8 17  1  0
  8 18  1  0
M  END
