
     RDKit          3D

 19 21  0  0  0  0  0  0  0  0999 V2000
    0.4894    1.9028   -1.6291 O   0  0  0  0  0  0  0  0  0  0  0  0
    0.3899    0.5266   -1.3170 C   0  0  0  0  0  0  0  0  0  0  0  0
    1.3700    0.2412   -0.2368 C   0  0  0  0  0  0  0  0  0  0  0  0
    1.4099   -1.0185    0.5174 C   0  0  0  0  0  0  0  0  0  0  0  0
    0.6161    0.1277    1.0253 C   0  0  0  0  0  0  0  0  0  0  0  0
   -0.8466    0.1801    0.7185 C   0  0  0  0  0  0  0  0  0  0  0  0
   -1.5556   -1.1195    0.5452 C   0  0  0  0  0  0  0  0  0  0  0  0
   -1.4999   -0.9508   -0.8426 O   0  0  0  0  0  0  0  0  0  0  0  0
   -0.9970    0.3287   -0.7584 C   0  0  0  0  0  0  0  0  0  0  0  0
    0.4037    2.4517   -0.8057 H   0  0  0  0  0  0  0  0  0  0  0  0
    0.5694   -0.0051   -2.2594 H   0  0  0  0  0  0  0  0  0  0  0  0
    2.3118    0.8398   -0.3037 H   0  0  0  0  0  0  0  0  0  0  0  0
    2.3445   -1.2247    1.0827 H   0  0  0  0  0  0  0  0  0  0  0  0
    0.8406   -1.9245    0.2069 H   0  0  0  0  0  0  0  0  0  0  0  0
    0.9625    0.7580    1.8656 H   0  0  0  0  0  0  0  0  0  0  0  0
   -1.4019    0.8707    1.3618 H   0  0  0  0  0  0  0  0  0  0  0  0
   -2.6213   -1.1176    0.8870 H   0  0  0  0  0  0  0  0  0  0  0  0
   -1.0628   -2.0159    0.9390 H   0  0  0  0  0  0  0  0  0  0  0  0
   -1.7226    1.1494   -0.9966 H   0  0  0  0  0  0  0  0  0  0  0  0
  1  2  1  0
  2  3  1  0
  3  4  1  0
  4  5  1  0
  5  6  1  0
  6  7  1  0
  7  8  1  0
  8  9  1  0
  9  2  1  0
  5  3  1  0
  9  6  1  0
  1 10  1  0
  2 11  1  0
  3 12  1  0
  4 13  1  0
  4 14  1  0
  5 15  1  0
  6 16  1  0
  7 17  1  0
  7 18  1  0
  9 19  1  0
M  END
