
     RDKit          3D

 21 22  0  0  0  0  0  0  0  0999 V2000
   -2.5229    0.5102   -0.2838 O   0  0  0  0  0  0  0  0  0  0  0  0
   -1.2105    0.3186   -0.7523 C   0  0  0  0  0  0  0  0  0  0  0  0
   -0.7903   -1.1412   -0.5332 C   0  0  0  0  0  0  0  0  0  0  0  0
    0.1196   -1.1185    0.6478 C   0  0  0  0  0  0  0  0  0  0  0  0
    1.4844   -0.6289    0.1838 C   0  0  0  0  0  0  0  0  0  0  0  0
    1.1569    0.7943   -0.2512 C   0  0  0  0  0  0  0  0  0  0  0  0
    1.2747    0.9332   -1.6192 O   0  0  0  0  0  0  0  0  0  0  0  0
   -0.2609    1.0602    0.1625 C   0  0  0  0  0  0  0  0  0  0  0  0
   -0.3402    0.1414    1.3962 C   0  0  0  0  0  0  0  0  0  0  0  0
   -2.5587    1.2485    0.3898 H   0  0  0  0  0  0  0  0  0  0  0  0
   -1.1052    0.5785   -1.8059 H   0  0  0  0  0  0  0  0  0  0  0  0
   -0.2818   -1.4938   -1.4758 H   0  0  0  0  0  0  0  0  0  0  0  0
   -1.6507   -1.8010   -0.3941 H   0  0  0  0  0  0  0  0  0  0  0  0
    0.1449   -1.9970    1.2613 H   0  0  0  0  0  0  0  0  0  0  0  0
    2.1415   -0.6422    1.0844 H   0  0  0  0  0  0  0  0  0  0  0  0
    1.9179   -1.2344   -0.6045 H   0  0  0  0  0  0  0  0  0  0  0  0
    1.8306    1.4583    0.3265 H   0  0  0  0  0  0  0  0  0  0  0  0
    2.0761    0.5108   -2.0005 H   0  0  0  0  0  0  0  0  0  0  0  0
   -0.5177    2.0793    0.3712 H   0  0  0  0  0  0  0  0  0  0  0  0
    0.4430    0.3699    2.1161 H   0  0  0  0  0  0  0  0  0  0  0  0
   -1.3508    0.0538    1.7808 H   0  0  0  0  0  0  0  0  0  0  0  0
  1  2  1  0
  2  3  1  0
  3  4  1  0
  4  5  1  0
  5  6  1  0
  6  7  1  0
  6  8  1  0
  8  9  1  0
  8  2  1  0
  9  4  1  0
  1 10  1  0
  2 11  1  0
  3 12  1  0
  3 13  1  0
  4 14  1  0
  5 15  1  0
  5 16  1  0
  6 17  1  0
  7 18  1  0
  8 19  1  0
  9 20  1  0
  9 21  1  0
M  END
