
     RDKit          3D

 19 19  0  0  0  0  0  0  0  0999 V2000
   -1.1663   -1.1411    1.1700 O   0  0  0  0  0  0  0  0  0  0  0  0
   -1.0963   -0.6142   -0.1303 C   0  0  0  0  0  0  0  0  0  0  0  0
   -1.4838    0.8326   -0.1495 C   0  0  0  0  0  0  0  0  0  0  0  0
   -0.6743    1.6483    0.6040 O   0  0  0  0  0  0  0  0  0  0  0  0
    0.6608    1.5729    0.3031 C   0  0  0  0  0  0  0  0  0  0  0  0
    1.1123    0.1453    0.5390 C   0  0  0  0  0  0  0  0  0  0  0  0
    2.4733   -0.0137    0.4846 O   0  0  0  0  0  0  0  0  0  0  0  0
    0.3848   -0.6964   -0.5195 C   0  0  0  0  0  0  0  0  0  0  0  0
    0.8428   -1.9896   -0.5589 O   0  0  0  0  0  0  0  0  0  0  0  0
   -2.1325   -1.3055    1.3363 H   0  0  0  0  0  0  0  0  0  0  0  0
   -1.7367   -1.1505   -0.8409 H   0  0  0  0  0  0  0  0  0  0  0  0
   -1.5922    1.1457   -1.2052 H   0  0  0  0  0  0  0  0  0  0  0  0
   -2.5140    0.8952    0.3007 H   0  0  0  0  0  0  0  0  0  0  0  0
    0.8595    1.8312   -0.7729 H   0  0  0  0  0  0  0  0  0  0  0  0
    1.2021    2.2781    0.9610 H   0  0  0  0  0  0  0  0  0  0  0  0
    0.7196   -0.1809    1.5163 H   0  0  0  0  0  0  0  0  0  0  0  0
    2.7639   -0.8252   -0.0361 H   0  0  0  0  0  0  0  0  0  0  0  0
    0.5585   -0.1545   -1.4815 H   0  0  0  0  0  0  0  0  0  0  0  0
    0.8186   -2.2778   -1.5203 H   0  0  0  0  0  0  0  0  0  0  0  0
  1  2  1  0
  2  3  1  0
  3  4  1  0
  4  5  1  0
  5  6  1  0
  6  7  1  0
  6  8  1  0
  8  9  1  0
  8  2  1  0
  1 10  1  0
  2 11  1  0
  3 12  1  0
  3 13  1  0
  5 14  1  0
  5 15  1  0
  6 16  1  0
  7 17  1  0
  8 18  1  0
  9 19  1  0
M  END
