
     RDKit          3D

 15 16  0  0  0  0  0  0  0  0999 V2000
   -2.1296   -0.5212   -0.4519 O   0  0  0  0  0  0  0  0  0  0  0  0
   -0.7828   -0.6989   -0.2752 C   0  0  0  0  0  0  0  0  0  0  0  0
   -0.1449    0.0241    0.8777 C   0  0  0  0  0  0  0  0  0  0  0  0
   -0.3639    1.2798    0.0756 C   0  0  0  0  0  0  0  0  0  0  0  0
    0.1347    0.2857   -0.9341 C   0  0  0  0  0  0  0  0  0  0  0  0
    1.1425   -0.1131    0.1171 C   0  0  0  0  0  0  0  0  0  0  0  0
    1.6287   -1.4049    0.0055 O   0  0  0  0  0  0  0  0  0  0  0  0
   -2.5513   -0.4148    0.4341 H   0  0  0  0  0  0  0  0  0  0  0  0
   -0.4664   -1.7594   -0.2908 H   0  0  0  0  0  0  0  0  0  0  0  0
   -0.3033   -0.1123    1.8520 H   0  0  0  0  0  0  0  0  0  0  0  0
    0.4087    2.0562    0.2677 H   0  0  0  0  0  0  0  0  0  0  0  0
   -1.3926    1.6291   -0.0285 H   0  0  0  0  0  0  0  0  0  0  0  0
    0.3012    0.4261   -1.9068 H   0  0  0  0  0  0  0  0  0  0  0  0
    1.9083    0.6645    0.3027 H   0  0  0  0  0  0  0  0  0  0  0  0
    2.6107   -1.3410   -0.0452 H   0  0  0  0  0  0  0  0  0  0  0  0
  1  2  1  0
  2  3  1  0
  3  4  1  0
  4  5  1  0
  5  6  1  0
  6  7  1  0
  5  2  1  0
  6  3  1  0
  1  8  1  0
  2  9  1  0
  3 10  1  0
  4 11  1  0
  4 12  1  0
  5 13  1  0
  6 14  1  0
  7 15  1  0
M  END
