
     RDKit          3D

 19 20  0  0  0  0  0  0  0  0999 V2000
    2.6486    0.7936    0.0862 O   0  0  0  0  0  0  0  0  0  0  0  0
    1.3737    0.4799   -0.3128 C   0  0  0  0  0  0  0  0  0  0  0  0
    0.3365    0.5951    0.8028 C   0  0  0  0  0  0  0  0  0  0  0  0
   -0.9393    1.2382    0.3792 C   0  0  0  0  0  0  0  0  0  0  0  0
   -1.8629    0.3458   -0.3838 C   0  0  0  0  0  0  0  0  0  0  0  0
   -1.6562   -0.9726    0.0236 O   0  0  0  0  0  0  0  0  0  0  0  0
   -0.4335   -1.3644   -0.5677 C   0  0  0  0  0  0  0  0  0  0  0  0
    0.6566   -0.6948    0.2037 C   0  0  0  0  0  0  0  0  0  0  0  0
    1.4332   -1.5939    0.9691 O   0  0  0  0  0  0  0  0  0  0  0  0
    3.3567    0.4103   -0.4718 H   0  0  0  0  0  0  0  0  0  0  0  0
    1.1040    0.8206   -1.3201 H   0  0  0  0  0  0  0  0  0  0  0  0
    0.6954    0.7716    1.8392 H   0  0  0  0  0  0  0  0  0  0  0  0
   -0.6796    2.0986   -0.3048 H   0  0  0  0  0  0  0  0  0  0  0  0
   -1.4804    1.7167    1.2312 H   0  0  0  0  0  0  0  0  0  0  0  0
   -2.9027    0.6375   -0.1762 H   0  0  0  0  0  0  0  0  0  0  0  0
   -1.5951    0.3890   -1.4621 H   0  0  0  0  0  0  0  0  0  0  0  0
   -0.4297   -1.1378   -1.6489 H   0  0  0  0  0  0  0  0  0  0  0  0
   -0.4188   -2.4811   -0.4746 H   0  0  0  0  0  0  0  0  0  0  0  0
    0.7934   -2.0523    1.5877 H   0  0  0  0  0  0  0  0  0  0  0  0
  1  2  1  0
  2  3  1  0
  3  4  1  0
  4  5  1  0
  5  6  1  0
  6  7  1  0
  7  8  1  0
  8  9  1  0
  8  2  1  0
  8  3  1  0
  1 10  1  0
  2 11  1  0
  3 12  1  0
  4 13  1  0
  4 14  1  0
  5 15  1  0
  5 16  1  0
  7 17  1  0
  7 18  1  0
  9 19  1  0
M  END
