
     RDKit          3D

 19 20  0  0  0  0  0  0  0  0999 V2000
    2.3512    1.0331    0.8886 O   0  0  0  0  0  0  0  0  0  0  0  0
    2.1389    0.2556   -0.2412 C   0  0  0  0  0  0  0  0  0  0  0  0
    1.9985   -1.2234    0.0596 C   0  0  0  0  0  0  0  0  0  0  0  0
    0.8442   -0.3887   -0.5155 C   0  0  0  0  0  0  0  0  0  0  0  0
   -0.3474   -0.2136    0.3766 C   0  0  0  0  0  0  0  0  0  0  0  0
   -1.3788   -0.9404   -0.1528 O   0  0  0  0  0  0  0  0  0  0  0  0
   -2.5487   -0.2190    0.0043 C   0  0  0  0  0  0  0  0  0  0  0  0
   -2.0561    1.2049    0.1092 C   0  0  0  0  0  0  0  0  0  0  0  0
   -0.7363    1.1057    0.4750 O   0  0  0  0  0  0  0  0  0  0  0  0
    3.3135    0.8980    1.1499 H   0  0  0  0  0  0  0  0  0  0  0  0
    2.7252    0.5812   -1.1214 H   0  0  0  0  0  0  0  0  0  0  0  0
    1.9035   -1.5437    1.1064 H   0  0  0  0  0  0  0  0  0  0  0  0
    2.4539   -1.9565   -0.6336 H   0  0  0  0  0  0  0  0  0  0  0  0
    0.5871   -0.5722   -1.5958 H   0  0  0  0  0  0  0  0  0  0  0  0
   -0.1390   -0.6041    1.4013 H   0  0  0  0  0  0  0  0  0  0  0  0
   -3.0647   -0.5565    0.9189 H   0  0  0  0  0  0  0  0  0  0  0  0
   -3.2383   -0.2777   -0.8418 H   0  0  0  0  0  0  0  0  0  0  0  0
   -2.7021    1.7220    0.8313 H   0  0  0  0  0  0  0  0  0  0  0  0
   -2.1048    1.6951   -0.9039 H   0  0  0  0  0  0  0  0  0  0  0  0
  1  2  1  0
  2  3  1  0
  3  4  1  0
  4  5  1  0
  5  6  1  0
  6  7  1  0
  7  8  1  0
  8  9  1  0
  4  2  1  0
  9  5  1  0
  1 10  1  0
  2 11  1  0
  3 12  1  0
  3 13  1  0
  4 14  1  0
  5 15  1  0
  7 16  1  0
  7 17  1  0
  8 18  1  0
  8 19  1  0
M  END
