
     RDKit          3D

 17 17  0  0  0  0  0  0  0  0999 V2000
   -1.8674    1.2171    0.6312 O   0  0  0  0  0  0  0  0  0  0  0  0
   -0.8974    0.6015   -0.1345 C   0  0  0  0  0  0  0  0  0  0  0  0
   -1.0193   -0.8925   -0.1776 C   0  0  0  0  0  0  0  0  0  0  0  0
    0.4191   -1.3637   -0.3732 C   0  0  0  0  0  0  0  0  0  0  0  0
    1.1704   -0.4570    0.5627 C   0  0  0  0  0  0  0  0  0  0  0  0
    0.4722    0.8847    0.4403 C   0  0  0  0  0  0  0  0  0  0  0  0
    1.1454    1.7099   -0.4728 O   0  0  0  0  0  0  0  0  0  0  0  0
   -2.0827    2.0887    0.2227 H   0  0  0  0  0  0  0  0  0  0  0  0
   -0.9978    0.9662   -1.1863 H   0  0  0  0  0  0  0  0  0  0  0  0
   -1.6501   -1.2703   -0.9983 H   0  0  0  0  0  0  0  0  0  0  0  0
   -1.3598   -1.2614    0.8003 H   0  0  0  0  0  0  0  0  0  0  0  0
    0.4382   -2.4244   -0.0664 H   0  0  0  0  0  0  0  0  0  0  0  0
    0.7461   -1.2074   -1.4073 H   0  0  0  0  0  0  0  0  0  0  0  0
    2.2318   -0.3126    0.2749 H   0  0  0  0  0  0  0  0  0  0  0  0
    1.1542   -0.8543    1.5936 H   0  0  0  0  0  0  0  0  0  0  0  0
    0.4393    1.4005    1.4123 H   0  0  0  0  0  0  0  0  0  0  0  0
    1.6575    1.1749   -1.1218 H   0  0  0  0  0  0  0  0  0  0  0  0
  1  2  1  0
  2  3  1  0
  3  4  1  0
  4  5  1  0
  5  6  1  0
  6  7  1  0
  6  2  1  0
  1  8  1  0
  2  9  1  0
  3 10  1  0
  3 11  1  0
  4 12  1  0
  4 13  1  0
  5 14  1  0
  5 15  1  0
  6 16  1  0
  7 17  1  0
M  END
