
     RDKit          3D

 19 20  0  0  0  0  0  0  0  0999 V2000
   -2.2540    0.0890   -0.9838 O   0  0  0  0  0  0  0  0  0  0  0  0
   -1.3626   -0.1290    0.0748 C   0  0  0  0  0  0  0  0  0  0  0  0
   -0.7655   -1.4886    0.0154 C   0  0  0  0  0  0  0  0  0  0  0  0
    0.5099   -1.7207   -0.3238 C   0  0  0  0  0  0  0  0  0  0  0  0
    1.2838   -0.5399   -0.6345 C   0  0  0  0  0  0  0  0  0  0  0  0
    2.2168    0.2528    0.0558 C   0  0  0  0  0  0  0  0  0  0  0  0
    0.9193    0.3645    0.5935 C   0  0  0  0  0  0  0  0  0  0  0  0
   -0.3273    0.9854    0.1457 C   0  0  0  0  0  0  0  0  0  0  0  0
   -0.7803    2.0041    0.9743 O   0  0  0  0  0  0  0  0  0  0  0  0
   -3.0785    0.4583   -0.5760 H   0  0  0  0  0  0  0  0  0  0  0  0
   -1.8966   -0.0792    1.0703 H   0  0  0  0  0  0  0  0  0  0  0  0
   -1.4392   -2.3076    0.2696 H   0  0  0  0  0  0  0  0  0  0  0  0
    0.9006   -2.7034   -0.3554 H   0  0  0  0  0  0  0  0  0  0  0  0
    0.9651   -0.1569   -1.6538 H   0  0  0  0  0  0  0  0  0  0  0  0
    2.6590    1.1525   -0.4622 H   0  0  0  0  0  0  0  0  0  0  0  0
    3.0244   -0.2405    0.6487 H   0  0  0  0  0  0  0  0  0  0  0  0
    0.7538   -0.1666    1.5807 H   0  0  0  0  0  0  0  0  0  0  0  0
   -0.2195    1.4347   -0.8858 H   0  0  0  0  0  0  0  0  0  0  0  0
   -1.1092    2.7911    0.4463 H   0  0  0  0  0  0  0  0  0  0  0  0
  1  2  1  0
  2  3  1  0
  3  4  2  0
  4  5  1  0
  5  6  1  0
  6  7  1  0
  7  8  1  0
  8  9  1  0
  8  2  1  0
  7  5  1  0
  1 10  1  0
  2 11  1  0
  3 12  1  0
  4 13  1  0
  5 14  1  0
  6 15  1  0
  6 16  1  0
  7 17  1  0
  8 18  1  0
  9 19  1  0
M  END
