
     RDKit          3D

 11 11  0  0  0  0  0  0  0  0999 V2000
   -0.0540    1.7128   -0.1993 O   0  0  0  0  0  0  0  0  0  0  0  0
   -0.1515    0.5006    0.4544 C   0  0  0  0  0  0  0  0  0  0  0  0
    1.0200   -0.4302    0.3155 C   0  0  0  0  0  0  0  0  0  0  0  0
    0.1809   -1.4334   -0.2014 O   0  0  0  0  0  0  0  0  0  0  0  0
   -0.8819   -0.5448   -0.3373 C   0  0  0  0  0  0  0  0  0  0  0  0
   -0.0006    1.6401   -1.1685 H   0  0  0  0  0  0  0  0  0  0  0  0
   -0.4851    0.6055    1.4922 H   0  0  0  0  0  0  0  0  0  0  0  0
    1.4105   -0.7964    1.3029 H   0  0  0  0  0  0  0  0  0  0  0  0
    1.7980   -0.1483   -0.4025 H   0  0  0  0  0  0  0  0  0  0  0  0
   -1.0152   -0.2722   -1.4101 H   0  0  0  0  0  0  0  0  0  0  0  0
   -1.8213   -0.8338    0.1539 H   0  0  0  0  0  0  0  0  0  0  0  0
  1  2  1  0
  2  3  1  0
  3  4  1  0
  4  5  1  0
  5  2  1  0
  1  6  1  0
  2  7  1  0
  3  8  1  0
  3  9  1  0
  5 10  1  0
  5 11  1  0
M  END
