
     RDKit          3D

 17 18  0  0  0  0  0  0  0  0999 V2000
   -1.8306   -0.4755   -1.1269 O   0  0  0  0  0  0  0  0  0  0  0  0
   -0.4687   -0.4052   -1.1601 C   0  0  0  0  0  0  0  0  0  0  0  0
    0.1857   -1.1539    0.0083 C   0  0  0  0  0  0  0  0  0  0  0  0
   -0.5445   -0.5985    1.1534 C   0  0  0  0  0  0  0  0  0  0  0  0
   -0.5660    0.7238    0.8822 C   0  0  0  0  0  0  0  0  0  0  0  0
    0.1283    0.8039   -0.4196 C   0  0  0  0  0  0  0  0  0  0  0  0
    0.2765    1.9391   -1.0648 O   0  0  0  0  0  0  0  0  0  0  0  0
    1.3054   -0.1221   -0.1886 C   0  0  0  0  0  0  0  0  0  0  0  0
    2.0487    0.1183    0.9385 O   0  0  0  0  0  0  0  0  0  0  0  0
   -2.1346   -0.4568   -0.2016 H   0  0  0  0  0  0  0  0  0  0  0  0
    0.0546   -0.6568   -2.0799 H   0  0  0  0  0  0  0  0  0  0  0  0
    0.4054   -2.1681   -0.0957 H   0  0  0  0  0  0  0  0  0  0  0  0
   -0.9892   -1.0468    2.0345 H   0  0  0  0  0  0  0  0  0  0  0  0
   -0.9739    1.5463    1.4427 H   0  0  0  0  0  0  0  0  0  0  0  0
   -0.3819    2.6212   -0.7749 H   0  0  0  0  0  0  0  0  0  0  0  0
    1.8662   -0.3950   -1.1051 H   0  0  0  0  0  0  0  0  0  0  0  0
    1.6186   -0.2737    1.7576 H   0  0  0  0  0  0  0  0  0  0  0  0
  1  2  1  0
  2  3  1  0
  3  4  1  0
  4  5  2  0
  5  6  1  0
  6  7  1  0
  6  8  1  0
  8  9  1  0
  6  2  1  0
  8  3  1  0
  1 10  1  0
  2 11  1  0
  3 12  1  0
  4 13  1  0
  5 14  1  0
  7 15  1  0
  8 16  1  0
  9 17  1  0
M  END
