
     RDKit          3D

 21 22  0  0  0  0  0  0  0  0999 V2000
   -0.8694   -2.2349    0.4679 O   0  0  0  0  0  0  0  0  0  0  0  0
   -0.6744   -0.9415    0.0156 C   0  0  0  0  0  0  0  0  0  0  0  0
   -1.8418   -0.0334    0.3151 C   0  0  0  0  0  0  0  0  0  0  0  0
   -1.5942    1.2942   -0.3247 C   0  0  0  0  0  0  0  0  0  0  0  0
   -0.1936    1.5608   -0.6970 C   0  0  0  0  0  0  0  0  0  0  0  0
    0.8423    0.8687   -0.2871 C   0  0  0  0  0  0  0  0  0  0  0  0
    2.2701    0.4733   -0.1526 C   0  0  0  0  0  0  0  0  0  0  0  0
    1.8728   -0.9180    0.3247 C   0  0  0  0  0  0  0  0  0  0  0  0
    0.5403   -0.2903    0.6421 C   0  0  0  0  0  0  0  0  0  0  0  0
   -1.1214   -2.8340   -0.2821 H   0  0  0  0  0  0  0  0  0  0  0  0
   -0.4697   -1.0017   -1.0831 H   0  0  0  0  0  0  0  0  0  0  0  0
   -1.8402    0.1044    1.4369 H   0  0  0  0  0  0  0  0  0  0  0  0
   -2.8073   -0.4789   -0.0020 H   0  0  0  0  0  0  0  0  0  0  0  0
   -2.1875    1.3080   -1.2833 H   0  0  0  0  0  0  0  0  0  0  0  0
   -2.0471    2.1053    0.2929 H   0  0  0  0  0  0  0  0  0  0  0  0
   -0.0063    2.3963   -1.3631 H   0  0  0  0  0  0  0  0  0  0  0  0
    2.8166    0.4126   -1.1197 H   0  0  0  0  0  0  0  0  0  0  0  0
    2.7458    1.0790    0.6371 H   0  0  0  0  0  0  0  0  0  0  0  0
    1.7990   -1.6740   -0.4590 H   0  0  0  0  0  0  0  0  0  0  0  0
    2.3723   -1.2498    1.2460 H   0  0  0  0  0  0  0  0  0  0  0  0
    0.3939    0.0540    1.6755 H   0  0  0  0  0  0  0  0  0  0  0  0
  1  2  1  0
  2  3  1  0
  3  4  1  0
  4  5  1  0
  5  6  2  0
  6  7  1  0
  7  8  1  0
  8  9  1  0
  9  2  1  0
  9  6  1  0
  1 10  1  0
  2 11  1  0
  3 12  1  0
  3 13  1  0
  4 14  1  0
  4 15  1  0
  5 16  1  0
  7 17  1  0
  7 18  1  0
  8 19  1  0
  8 20  1  0
  9 21  1  0
M  END
