
     RDKit          3D

 19 20  0  0  0  0  0  0  0  0999 V2000
   -2.2988   -0.4323    0.8446 O   0  0  0  0  0  0  0  0  0  0  0  0
   -1.5506    0.2561   -0.1230 C   0  0  0  0  0  0  0  0  0  0  0  0
   -0.7553    1.3553    0.4928 C   0  0  0  0  0  0  0  0  0  0  0  0
    0.5568    1.3635    0.5509 C   0  0  0  0  0  0  0  0  0  0  0  0
    1.3382    0.2461   -0.0238 C   0  0  0  0  0  0  0  0  0  0  0  0
    1.0836   -1.0512    0.7196 C   0  0  0  0  0  0  0  0  0  0  0  0
   -0.1063   -1.5533    0.2688 O   0  0  0  0  0  0  0  0  0  0  0  0
   -0.6079   -0.7531   -0.7403 C   0  0  0  0  0  0  0  0  0  0  0  0
    0.6233   -0.1046   -1.3421 C   0  0  0  0  0  0  0  0  0  0  0  0
   -1.6850   -0.7002    1.5814 H   0  0  0  0  0  0  0  0  0  0  0  0
   -2.2778    0.6345   -0.8706 H   0  0  0  0  0  0  0  0  0  0  0  0
   -1.3408    2.1885    0.9109 H   0  0  0  0  0  0  0  0  0  0  0  0
    1.0749    2.1748    1.0125 H   0  0  0  0  0  0  0  0  0  0  0  0
    2.3904    0.4605   -0.1857 H   0  0  0  0  0  0  0  0  0  0  0  0
    1.1565   -0.8989    1.7990 H   0  0  0  0  0  0  0  0  0  0  0  0
    1.8905   -1.7540    0.3909 H   0  0  0  0  0  0  0  0  0  0  0  0
   -1.1165   -1.3295   -1.5326 H   0  0  0  0  0  0  0  0  0  0  0  0
    0.4099    0.7807   -1.9337 H   0  0  0  0  0  0  0  0  0  0  0  0
    1.2149   -0.8830   -1.8195 H   0  0  0  0  0  0  0  0  0  0  0  0
  1  2  1  0
  2  3  1  0
  3  4  2  0
  4  5  1  0
  5  6  1  0
  6  7  1  0
  7  8  1  0
  8  9  1  0
  8  2  1  0
  9  5  1  0
  1 10  1  0
  2 11  1  0
  3 12  1  0
  4 13  1  0
  5 14  1  0
  6 15  1  0
  6 16  1  0
  8 17  1  0
  9 18  1  0
  9 19  1  0
M  END
