
     RDKit          3D

 19 21  0  0  0  0  0  0  0  0999 V2000
    2.7047    0.5585    0.7135 O   0  0  0  0  0  0  0  0  0  0  0  0
    1.7981    0.4697   -0.3815 C   0  0  0  0  0  0  0  0  0  0  0  0
    0.8386   -0.5479   -0.6355 C   0  0  0  0  0  0  0  0  0  0  0  0
   -0.5890   -0.9027   -0.6690 C   0  0  0  0  0  0  0  0  0  0  0  0
   -1.5832    0.1490   -0.9507 C   0  0  0  0  0  0  0  0  0  0  0  0
   -1.8459    0.8359    0.1890 C   0  0  0  0  0  0  0  0  0  0  0  0
   -0.5166    0.5715    0.9036 C   0  0  0  0  0  0  0  0  0  0  0  0
   -0.7985   -0.9527    0.8801 C   0  0  0  0  0  0  0  0  0  0  0  0
    0.5140    0.8614   -0.0892 C   0  0  0  0  0  0  0  0  0  0  0  0
    3.4057   -0.1175    0.5006 H   0  0  0  0  0  0  0  0  0  0  0  0
    2.3895    0.7698   -1.2969 H   0  0  0  0  0  0  0  0  0  0  0  0
    1.2861   -1.3892   -0.0581 H   0  0  0  0  0  0  0  0  0  0  0  0
   -0.7536   -1.8483   -1.1359 H   0  0  0  0  0  0  0  0  0  0  0  0
   -2.0290    0.3321   -1.9197 H   0  0  0  0  0  0  0  0  0  0  0  0
   -2.6953    1.3757    0.4795 H   0  0  0  0  0  0  0  0  0  0  0  0
   -0.4757    0.9843    1.8792 H   0  0  0  0  0  0  0  0  0  0  0  0
   -1.8058   -1.2161    1.1448 H   0  0  0  0  0  0  0  0  0  0  0  0
    0.0118   -1.5038    1.3547 H   0  0  0  0  0  0  0  0  0  0  0  0
    0.1443    1.5704   -0.9084 H   0  0  0  0  0  0  0  0  0  0  0  0
  1  2  1  0
  2  3  1  0
  3  4  1  0
  4  5  1  0
  5  6  2  0
  6  7  1  0
  7  8  1  0
  7  9  1  0
  9  2  1  0
  9  3  1  0
  8  4  1  0
  1 10  1  0
  2 11  1  0
  3 12  1  0
  4 13  1  0
  5 14  1  0
  6 15  1  0
  7 16  1  0
  8 17  1  0
  8 18  1  0
  9 19  1  0
M  END
