
     RDKit          3D

 21 22  0  0  0  0  0  0  0  0999 V2000
    2.4477    0.4382   -0.3954 O   0  0  0  0  0  0  0  0  0  0  0  0
    1.0946    0.3727   -0.7383 C   0  0  0  0  0  0  0  0  0  0  0  0
    0.3821    1.4623   -0.0279 C   0  0  0  0  0  0  0  0  0  0  0  0
   -1.1125    1.2993    0.1061 C   0  0  0  0  0  0  0  0  0  0  0  0
   -1.4936   -0.1015   -0.1559 C   0  0  0  0  0  0  0  0  0  0  0  0
   -1.7775   -1.2024    0.6852 C   0  0  0  0  0  0  0  0  0  0  0  0
   -0.4019   -0.8784    0.6457 C   0  0  0  0  0  0  0  0  0  0  0  0
    0.6472   -1.0378   -0.3598 C   0  0  0  0  0  0  0  0  0  0  0  0
    1.6814   -1.8313    0.0725 O   0  0  0  0  0  0  0  0  0  0  0  0
    2.4972    0.4192    0.5984 H   0  0  0  0  0  0  0  0  0  0  0  0
    1.0559    0.4922   -1.8453 H   0  0  0  0  0  0  0  0  0  0  0  0
    0.7929    1.6390    0.9884 H   0  0  0  0  0  0  0  0  0  0  0  0
    0.5565    2.4036   -0.5922 H   0  0  0  0  0  0  0  0  0  0  0  0
   -1.4710    1.5746    1.1310 H   0  0  0  0  0  0  0  0  0  0  0  0
   -1.6547    1.9703   -0.5913 H   0  0  0  0  0  0  0  0  0  0  0  0
   -1.5495   -0.2948   -1.2675 H   0  0  0  0  0  0  0  0  0  0  0  0
   -2.1221   -2.1602    0.2284 H   0  0  0  0  0  0  0  0  0  0  0  0
   -2.3547   -1.0203    1.6302 H   0  0  0  0  0  0  0  0  0  0  0  0
    0.0128   -0.3721    1.5665 H   0  0  0  0  0  0  0  0  0  0  0  0
    0.2316   -1.5290   -1.2850 H   0  0  0  0  0  0  0  0  0  0  0  0
    2.5377   -1.6435   -0.3940 H   0  0  0  0  0  0  0  0  0  0  0  0
  1  2  1  0
  2  3  1  0
  3  4  1  0
  4  5  1  0
  5  6  1  0
  6  7  1  0
  7  8  1  0
  8  9  1  0
  8  2  1  0
  7  5  1  0
  1 10  1  0
  2 11  1  0
  3 12  1  0
  3 13  1  0
  4 14  1  0
  4 15  1  0
  5 16  1  0
  6 17  1  0
  6 18  1  0
  7 19  1  0
  8 20  1  0
  9 21  1  0
M  END
