
     RDKit          3D

 21 21  0  0  0  0  0  0  0  0999 V2000
   -2.0855   -1.9982    0.1510 O   0  0  0  0  0  0  0  0  0  0  0  0
   -1.1534   -1.0039    0.4764 C   0  0  0  0  0  0  0  0  0  0  0  0
    0.2104   -1.5382    0.3601 C   0  0  0  0  0  0  0  0  0  0  0  0
    1.4265   -1.0119    0.2715 C   0  0  0  0  0  0  0  0  0  0  0  0
    1.9310    0.3663    0.2522 C   0  0  0  0  0  0  0  0  0  0  0  0
    1.1840    1.2887   -0.6588 C   0  0  0  0  0  0  0  0  0  0  0  0
    0.1859    2.0026   -0.0854 O   0  0  0  0  0  0  0  0  0  0  0  0
   -0.9638    1.4382    0.2606 C   0  0  0  0  0  0  0  0  0  0  0  0
   -1.4059    0.1967   -0.4157 C   0  0  0  0  0  0  0  0  0  0  0  0
   -1.9419   -2.2012   -0.8019 H   0  0  0  0  0  0  0  0  0  0  0  0
   -1.4016   -0.7077    1.5348 H   0  0  0  0  0  0  0  0  0  0  0  0
    0.2088   -2.6314    0.3438 H   0  0  0  0  0  0  0  0  0  0  0  0
    2.2025   -1.7900    0.1985 H   0  0  0  0  0  0  0  0  0  0  0  0
    2.9990    0.3131   -0.0890 H   0  0  0  0  0  0  0  0  0  0  0  0
    1.9770    0.8314    1.2584 H   0  0  0  0  0  0  0  0  0  0  0  0
    0.9070    0.7750   -1.6186 H   0  0  0  0  0  0  0  0  0  0  0  0
    1.9498    2.0535   -1.0007 H   0  0  0  0  0  0  0  0  0  0  0  0
   -1.7941    2.2004    0.1553 H   0  0  0  0  0  0  0  0  0  0  0  0
   -0.9563    1.2315    1.3737 H   0  0  0  0  0  0  0  0  0  0  0  0
   -2.5233    0.2028   -0.5823 H   0  0  0  0  0  0  0  0  0  0  0  0
   -0.9561   -0.0176   -1.3839 H   0  0  0  0  0  0  0  0  0  0  0  0
  1  2  1  0
  2  3  1  0
  3  4  2  3
  4  5  1  0
  5  6  1  0
  6  7  1  0
  7  8  1  0
  8  9  1  0
  9  2  1  0
  1 10  1  0
  2 11  1  0
  3 12  1  0
  4 13  1  0
  5 14  1  0
  5 15  1  0
  6 16  1  0
  6 17  1  0
  8 18  1  0
  8 19  1  0
  9 20  1  0
  9 21  1  0
M  END
