
     RDKit          3D

 21 22  0  0  0  0  0  0  0  0999 V2000
   -1.4749    0.9115    1.5156 O   0  0  0  0  0  0  0  0  0  0  0  0
   -0.2095    0.6199    1.0778 C   0  0  0  0  0  0  0  0  0  0  0  0
    0.0424    1.1225   -0.3524 C   0  0  0  0  0  0  0  0  0  0  0  0
    1.4406    0.5255   -0.5570 C   0  0  0  0  0  0  0  0  0  0  0  0
    1.3583   -0.8205    0.0923 C   0  0  0  0  0  0  0  0  0  0  0  0
    0.0623   -0.8375    0.9029 C   0  0  0  0  0  0  0  0  0  0  0  0
   -0.9957   -1.4470    0.0003 C   0  0  0  0  0  0  0  0  0  0  0  0
   -1.7049   -0.5024   -0.7039 O   0  0  0  0  0  0  0  0  0  0  0  0
   -0.9233    0.4584   -1.2972 C   0  0  0  0  0  0  0  0  0  0  0  0
   -1.5492    1.8962    1.5931 H   0  0  0  0  0  0  0  0  0  0  0  0
    0.5985    1.0469    1.7020 H   0  0  0  0  0  0  0  0  0  0  0  0
    0.0410    2.2105   -0.4142 H   0  0  0  0  0  0  0  0  0  0  0  0
    2.1105    1.1616    0.0898 H   0  0  0  0  0  0  0  0  0  0  0  0
    1.7409    0.5141   -1.6004 H   0  0  0  0  0  0  0  0  0  0  0  0
    2.2183   -0.9898    0.7704 H   0  0  0  0  0  0  0  0  0  0  0  0
    1.3153   -1.5817   -0.7093 H   0  0  0  0  0  0  0  0  0  0  0  0
    0.1486   -1.4039    1.8282 H   0  0  0  0  0  0  0  0  0  0  0  0
   -1.7308   -2.0482    0.5994 H   0  0  0  0  0  0  0  0  0  0  0  0
   -0.5107   -2.1994   -0.6768 H   0  0  0  0  0  0  0  0  0  0  0  0
   -0.3699    0.0977   -2.1912 H   0  0  0  0  0  0  0  0  0  0  0  0
   -1.6078    1.2653   -1.6694 H   0  0  0  0  0  0  0  0  0  0  0  0
  1  2  1  0
  2  3  1  0
  3  4  1  0
  4  5  1  0
  5  6  1  0
  6  7  1  0
  7  8  1  0
  8  9  1  0
  6  2  1  0
  9  3  1  0
  1 10  1  0
  2 11  1  0
  3 12  1  0
  4 13  1  0
  4 14  1  0
  5 15  1  0
  5 16  1  0
  6 17  1  0
  7 18  1  0
  7 19  1  0
  9 20  1  0
  9 21  1  0
M  END
