
     RDKit          3D

 21 22  0  0  0  0  0  0  0  0999 V2000
   -2.4589   -0.6870   -0.5346 O   0  0  0  0  0  0  0  0  0  0  0  0
   -1.1267   -0.2546   -0.6018 C   0  0  0  0  0  0  0  0  0  0  0  0
   -0.2887   -1.0278    0.3594 C   0  0  0  0  0  0  0  0  0  0  0  0
    1.1678   -0.9300    0.1842 C   0  0  0  0  0  0  0  0  0  0  0  0
    1.6622   -0.0845   -0.9190 C   0  0  0  0  0  0  0  0  0  0  0  0
    0.9180    1.0213   -1.2179 O   0  0  0  0  0  0  0  0  0  0  0  0
    0.3283    1.6373   -0.1307 C   0  0  0  0  0  0  0  0  0  0  0  0
   -0.9465    0.9583    0.2887 C   0  0  0  0  0  0  0  0  0  0  0  0
   -0.7072   -0.0246    1.4443 C   0  0  0  0  0  0  0  0  0  0  0  0
   -2.5514   -1.3877   -1.2356 H   0  0  0  0  0  0  0  0  0  0  0  0
   -0.7483   -0.1221   -1.6220 H   0  0  0  0  0  0  0  0  0  0  0  0
   -0.6800   -2.0582    0.5383 H   0  0  0  0  0  0  0  0  0  0  0  0
    1.5765   -1.9722    0.0379 H   0  0  0  0  0  0  0  0  0  0  0  0
    1.6255   -0.6059    1.1652 H   0  0  0  0  0  0  0  0  0  0  0  0
    2.7112    0.2442   -0.6577 H   0  0  0  0  0  0  0  0  0  0  0  0
    1.7481   -0.7144   -1.8453 H   0  0  0  0  0  0  0  0  0  0  0  0
    0.1035    2.6938   -0.4318 H   0  0  0  0  0  0  0  0  0  0  0  0
    0.9782    1.7055    0.7563 H   0  0  0  0  0  0  0  0  0  0  0  0
   -1.8129    1.6017    0.4180 H   0  0  0  0  0  0  0  0  0  0  0  0
    0.1293    0.3286    2.0625 H   0  0  0  0  0  0  0  0  0  0  0  0
   -1.6282   -0.3216    1.9415 H   0  0  0  0  0  0  0  0  0  0  0  0
  1  2  1  0
  2  3  1  0
  3  4  1  0
  4  5  1  0
  5  6  1  0
  6  7  1  0
  7  8  1  0
  8  9  1  0
  8  2  1  0
  9  3  1  0
  1 10  1  0
  2 11  1  0
  3 12  1  0
  4 13  1  0
  4 14  1  0
  5 15  1  0
  5 16  1  0
  7 17  1  0
  7 18  1  0
  8 19  1  0
  9 20  1  0
  9 21  1  0
M  END
