
     RDKit          3D

 19 21  0  0  0  0  0  0  0  0999 V2000
   -2.1284    0.5699   -0.9844 O   0  0  0  0  0  0  0  0  0  0  0  0
   -1.1601    0.4181   -0.0305 C   0  0  0  0  0  0  0  0  0  0  0  0
    0.2146    0.8968   -0.4953 C   0  0  0  0  0  0  0  0  0  0  0  0
    1.0291    1.1063    0.7433 C   0  0  0  0  0  0  0  0  0  0  0  0
    0.9322    0.0541    1.5895 O   0  0  0  0  0  0  0  0  0  0  0  0
    0.3615   -1.0789    1.1455 C   0  0  0  0  0  0  0  0  0  0  0  0
    0.4163   -1.4142   -0.2641 C   0  0  0  0  0  0  0  0  0  0  0  0
    0.7891   -0.3178   -1.2043 C   0  0  0  0  0  0  0  0  0  0  0  0
   -0.8764   -0.9894    0.3714 C   0  0  0  0  0  0  0  0  0  0  0  0
   -2.6835    1.3746   -0.7318 H   0  0  0  0  0  0  0  0  0  0  0  0
   -1.3852    1.0098    0.8995 H   0  0  0  0  0  0  0  0  0  0  0  0
    0.0878    1.7625   -1.1300 H   0  0  0  0  0  0  0  0  0  0  0  0
    2.0805    1.3337    0.4066 H   0  0  0  0  0  0  0  0  0  0  0  0
    0.6947    2.0309    1.2699 H   0  0  0  0  0  0  0  0  0  0  0  0
    0.4224   -1.9419    1.8619 H   0  0  0  0  0  0  0  0  0  0  0  0
    0.5891   -2.4560   -0.5660 H   0  0  0  0  0  0  0  0  0  0  0  0
    1.9110   -0.2073   -1.1850 H   0  0  0  0  0  0  0  0  0  0  0  0
    0.4011   -0.4452   -2.2219 H   0  0  0  0  0  0  0  0  0  0  0  0
   -1.6959   -1.7058    0.5257 H   0  0  0  0  0  0  0  0  0  0  0  0
  1  2  1  0
  2  3  1  0
  3  4  1  0
  4  5  1  0
  5  6  1  0
  6  7  1  0
  7  8  1  0
  7  9  1  0
  9  2  1  0
  8  3  1  0
  9  6  1  0
  1 10  1  0
  2 11  1  0
  3 12  1  0
  4 13  1  0
  4 14  1  0
  6 15  1  0
  7 16  1  0
  8 17  1  0
  8 18  1  0
  9 19  1  0
M  END
