
     RDKit          3D

 19 21  0  0  0  0  0  0  0  0999 V2000
   -1.4934    1.8595   -0.0512 O   0  0  0  0  0  0  0  0  0  0  0  0
   -1.3308    0.5768    0.4205 C   0  0  0  0  0  0  0  0  0  0  0  0
   -1.9825   -0.5076   -0.4490 C   0  0  0  0  0  0  0  0  0  0  0  0
   -0.6880   -1.3113   -0.2378 C   0  0  0  0  0  0  0  0  0  0  0  0
   -0.0351   -0.0106    0.0380 C   0  0  0  0  0  0  0  0  0  0  0  0
    1.2378    0.2040    0.6601 C   0  0  0  0  0  0  0  0  0  0  0  0
    2.4464   -0.4837    0.1116 C   0  0  0  0  0  0  0  0  0  0  0  0
    2.1061    0.0253   -1.1531 O   0  0  0  0  0  0  0  0  0  0  0  0
    0.9362    0.6583   -0.7917 C   0  0  0  0  0  0  0  0  0  0  0  0
   -1.4459    2.4631    0.7580 H   0  0  0  0  0  0  0  0  0  0  0  0
   -1.6704    0.4061    1.4729 H   0  0  0  0  0  0  0  0  0  0  0  0
   -2.8639   -0.9776   -0.0173 H   0  0  0  0  0  0  0  0  0  0  0  0
   -2.0448   -0.1429   -1.4881 H   0  0  0  0  0  0  0  0  0  0  0  0
   -0.7575   -2.0001    0.6488 H   0  0  0  0  0  0  0  0  0  0  0  0
   -0.3812   -1.8872   -1.1098 H   0  0  0  0  0  0  0  0  0  0  0  0
    1.3763    1.0338    1.4081 H   0  0  0  0  0  0  0  0  0  0  0  0
    3.3656   -0.0673    0.5497 H   0  0  0  0  0  0  0  0  0  0  0  0
    2.3229   -1.5913    0.2014 H   0  0  0  0  0  0  0  0  0  0  0  0
    0.9023    1.7527   -0.9712 H   0  0  0  0  0  0  0  0  0  0  0  0
  1  2  1  0
  2  3  1  0
  3  4  1  0
  4  5  1  0
  5  6  1  0
  6  7  1  0
  7  8  1  0
  8  9  1  0
  5  2  1  0
  9  6  1  0
  9  5  1  0
  1 10  1  0
  2 11  1  0
  3 12  1  0
  3 13  1  0
  4 14  1  0
  4 15  1  0
  6 16  1  0
  7 17  1  0
  7 18  1  0
  9 19  1  0
M  END
