
     RDKit          3D

 19 20  0  0  0  0  0  0  0  0999 V2000
   -1.2911    1.8927    0.5630 O   0  0  0  0  0  0  0  0  0  0  0  0
   -1.0799    0.7606   -0.2093 C   0  0  0  0  0  0  0  0  0  0  0  0
   -2.1939   -0.2588   -0.0562 C   0  0  0  0  0  0  0  0  0  0  0  0
   -1.5782   -1.4024   -0.5653 O   0  0  0  0  0  0  0  0  0  0  0  0
   -0.3199   -1.4435   -0.0123 C   0  0  0  0  0  0  0  0  0  0  0  0
    0.0907   -0.0388    0.3487 C   0  0  0  0  0  0  0  0  0  0  0  0
    1.3217    0.4061   -0.3897 C   0  0  0  0  0  0  0  0  0  0  0  0
    2.5683   -0.2170   -0.0215 C   0  0  0  0  0  0  0  0  0  0  0  0
    2.2220    1.0867    0.5746 O   0  0  0  0  0  0  0  0  0  0  0  0
   -0.7423    2.6265    0.1608 H   0  0  0  0  0  0  0  0  0  0  0  0
   -0.9742    0.9760   -1.2692 H   0  0  0  0  0  0  0  0  0  0  0  0
   -2.3904   -0.4395    1.0227 H   0  0  0  0  0  0  0  0  0  0  0  0
   -3.0697    0.0496   -0.6221 H   0  0  0  0  0  0  0  0  0  0  0  0
   -0.3612   -2.0579    0.9068 H   0  0  0  0  0  0  0  0  0  0  0  0
    0.4285   -1.9135   -0.6796 H   0  0  0  0  0  0  0  0  0  0  0  0
    0.1552    0.0686    1.4413 H   0  0  0  0  0  0  0  0  0  0  0  0
    1.1617    1.0080   -1.2968 H   0  0  0  0  0  0  0  0  0  0  0  0
    2.5805   -0.9698    0.7644 H   0  0  0  0  0  0  0  0  0  0  0  0
    3.4723   -0.1336   -0.6604 H   0  0  0  0  0  0  0  0  0  0  0  0
  1  2  1  0
  2  3  1  0
  3  4  1  0
  4  5  1  0
  5  6  1  0
  6  7  1  0
  7  8  1  0
  8  9  1  0
  6  2  1  0
  9  7  1  0
  1 10  1  0
  2 11  1  0
  3 12  1  0
  3 13  1  0
  5 14  1  0
  5 15  1  0
  6 16  1  0
  7 17  1  0
  8 18  1  0
  8 19  1  0
M  END
