
     RDKit          3D

 19 20  0  0  0  0  0  0  0  0999 V2000
    2.0782   -0.7859   -0.4709 O   0  0  0  0  0  0  0  0  0  0  0  0
    1.3000   -0.1378    0.4862 C   0  0  0  0  0  0  0  0  0  0  0  0
    0.1079   -1.0543    0.7470 C   0  0  0  0  0  0  0  0  0  0  0  0
   -1.0362   -0.4846   -0.0738 C   0  0  0  0  0  0  0  0  0  0  0  0
   -1.9486   -1.3556   -0.4995 O   0  0  0  0  0  0  0  0  0  0  0  0
   -1.5235    0.7132    0.6471 C   0  0  0  0  0  0  0  0  0  0  0  0
   -0.4897    1.5661    0.6538 C   0  0  0  0  0  0  0  0  0  0  0  0
    0.6114    1.0264   -0.1925 C   0  0  0  0  0  0  0  0  0  0  0  0
   -0.2292    0.2040   -1.1911 C   0  0  0  0  0  0  0  0  0  0  0  0
    2.9676   -0.4195   -0.5828 H   0  0  0  0  0  0  0  0  0  0  0  0
    1.8397    0.1277    1.3882 H   0  0  0  0  0  0  0  0  0  0  0  0
    0.3310   -2.0967    0.5174 H   0  0  0  0  0  0  0  0  0  0  0  0
   -0.1410   -0.9158    1.8328 H   0  0  0  0  0  0  0  0  0  0  0  0
   -1.6351   -1.7964   -1.3468 H   0  0  0  0  0  0  0  0  0  0  0  0
   -2.5174    0.8116    1.0563 H   0  0  0  0  0  0  0  0  0  0  0  0
   -0.4922    2.5043    1.2081 H   0  0  0  0  0  0  0  0  0  0  0  0
    1.2458    1.7452   -0.6530 H   0  0  0  0  0  0  0  0  0  0  0  0
   -0.8687    0.8464   -1.7949 H   0  0  0  0  0  0  0  0  0  0  0  0
    0.4000   -0.4984   -1.7317 H   0  0  0  0  0  0  0  0  0  0  0  0
  1  2  1  0
  2  3  1  0
  3  4  1  0
  4  5  1  0
  4  6  1  0
  6  7  2  0
  7  8  1  0
  8  9  1  0
  8  2  1  0
  9  4  1  0
  1 10  1  0
  2 11  1  0
  3 12  1  0
  3 13  1  0
  5 14  1  0
  6 15  1  0
  7 16  1  0
  8 17  1  0
  9 18  1  0
  9 19  1  0
M  END
