
     RDKit          3D

 19 21  0  0  0  0  0  0  0  0999 V2000
   -0.3820   -0.5117    2.2369 O   0  0  0  0  0  0  0  0  0  0  0  0
    0.2986    0.0879    1.2019 C   0  0  0  0  0  0  0  0  0  0  0  0
   -0.6347    0.8937    0.2965 C   0  0  0  0  0  0  0  0  0  0  0  0
    0.3902    1.3371   -0.7412 C   0  0  0  0  0  0  0  0  0  0  0  0
    1.0919   -0.0029   -1.0022 C   0  0  0  0  0  0  0  0  0  0  0  0
    0.3542   -0.8270   -1.8229 O   0  0  0  0  0  0  0  0  0  0  0  0
   -0.4008   -1.2172   -0.6939 C   0  0  0  0  0  0  0  0  0  0  0  0
   -1.4647   -0.1588   -0.3649 C   0  0  0  0  0  0  0  0  0  0  0  0
    0.7736   -0.8922    0.1499 C   0  0  0  0  0  0  0  0  0  0  0  0
    0.2966   -0.8367    2.8812 H   0  0  0  0  0  0  0  0  0  0  0  0
    1.1017    0.7788    1.5260 H   0  0  0  0  0  0  0  0  0  0  0  0
   -1.1511    1.6882    0.7873 H   0  0  0  0  0  0  0  0  0  0  0  0
    1.0849    2.0284   -0.2411 H   0  0  0  0  0  0  0  0  0  0  0  0
   -0.0953    1.7281   -1.6362 H   0  0  0  0  0  0  0  0  0  0  0  0
    2.1538    0.0975   -1.1981 H   0  0  0  0  0  0  0  0  0  0  0  0
   -0.7627   -2.2400   -0.7277 H   0  0  0  0  0  0  0  0  0  0  0  0
   -1.8461    0.2698   -1.3338 H   0  0  0  0  0  0  0  0  0  0  0  0
   -2.2708   -0.5686    0.2366 H   0  0  0  0  0  0  0  0  0  0  0  0
    1.4626   -1.6545    0.4456 H   0  0  0  0  0  0  0  0  0  0  0  0
  1  2  1  0
  2  3  1  0
  3  4  1  0
  4  5  1  0
  5  6  1  0
  6  7  1  0
  7  8  1  0
  7  9  1  0
  9  2  1  0
  8  3  1  0
  9  5  1  0
  1 10  1  0
  2 11  1  0
  3 12  1  0
  4 13  1  0
  4 14  1  0
  5 15  1  0
  7 16  1  0
  8 17  1  0
  8 18  1  0
  9 19  1  0
M  END
