
     RDKit          3D

 19 20  0  0  0  0  0  0  0  0999 V2000
    2.9782    0.3074   -0.3869 O   0  0  0  0  0  0  0  0  0  0  0  0
    1.8381   -0.1935    0.2087 C   0  0  0  0  0  0  0  0  0  0  0  0
    0.9928   -1.0769   -0.7447 C   0  0  0  0  0  0  0  0  0  0  0  0
   -0.1033   -0.6520    0.1978 C   0  0  0  0  0  0  0  0  0  0  0  0
    0.6490    0.6784    0.1988 C   0  0  0  0  0  0  0  0  0  0  0  0
   -0.2466    1.6355    0.1986 C   0  0  0  0  0  0  0  0  0  0  0  0
   -1.6399    1.1024    0.1465 C   0  0  0  0  0  0  0  0  0  0  0  0
   -1.4453   -0.3213   -0.3725 C   0  0  0  0  0  0  0  0  0  0  0  0
   -2.4814   -1.0798    0.1664 O   0  0  0  0  0  0  0  0  0  0  0  0
    3.4158    0.8919    0.2639 H   0  0  0  0  0  0  0  0  0  0  0  0
    1.9699   -0.6833    1.1721 H   0  0  0  0  0  0  0  0  0  0  0  0
    0.8587   -0.6113   -1.7312 H   0  0  0  0  0  0  0  0  0  0  0  0
    1.2794   -2.1315   -0.7154 H   0  0  0  0  0  0  0  0  0  0  0  0
   -0.0596   -1.1843    1.1435 H   0  0  0  0  0  0  0  0  0  0  0  0
   -0.0256    2.6860    0.2316 H   0  0  0  0  0  0  0  0  0  0  0  0
   -2.0182    1.1084    1.1876 H   0  0  0  0  0  0  0  0  0  0  0  0
   -2.2873    1.6289   -0.5651 H   0  0  0  0  0  0  0  0  0  0  0  0
   -1.4998   -0.3926   -1.4576 H   0  0  0  0  0  0  0  0  0  0  0  0
   -2.1748   -1.7127    0.8577 H   0  0  0  0  0  0  0  0  0  0  0  0
  1  2  1  0
  2  3  1  0
  3  4  1  0
  4  5  1  0
  5  6  2  0
  6  7  1  0
  7  8  1  0
  8  9  1  0
  5  2  1  0
  8  4  1  0
  1 10  1  0
  2 11  1  0
  3 12  1  0
  3 13  1  0
  4 14  1  0
  6 15  1  0
  7 16  1  0
  7 17  1  0
  8 18  1  0
  9 19  1  0
M  END
