
     RDKit          3D

 16 17  0  0  0  0  0  0  0  0999 V2000
   -1.8615    0.6930    0.8189 O   0  0  0  0  0  0  0  0  0  0  0  0
   -0.8776   -0.2814    0.6196 C   0  0  0  0  0  0  0  0  0  0  0  0
   -0.7763   -0.5887   -0.8844 C   0  0  0  0  0  0  0  0  0  0  0  0
   -0.1191    0.7991   -0.9521 C   0  0  0  0  0  0  0  0  0  0  0  0
    0.5103    0.2899    0.3566 C   0  0  0  0  0  0  0  0  0  0  0  0
    1.0308    1.1637    1.1926 O   0  0  0  0  0  0  0  0  0  0  0  0
    1.2492   -0.8945   -0.1456 C   0  0  0  0  0  0  0  0  0  0  0  0
    0.2389   -1.5040   -0.9355 O   0  0  0  0  0  0  0  0  0  0  0  0
   -2.2474    0.6724    1.7086 H   0  0  0  0  0  0  0  0  0  0  0  0
   -0.9225   -1.1570    1.2563 H   0  0  0  0  0  0  0  0  0  0  0  0
   -1.6834   -0.7255   -1.4128 H   0  0  0  0  0  0  0  0  0  0  0  0
   -0.8539    1.5908   -0.8145 H   0  0  0  0  0  0  0  0  0  0  0  0
    0.6326    0.9060   -1.7336 H   0  0  0  0  0  0  0  0  0  0  0  0
    2.0129    1.1490    1.1793 H   0  0  0  0  0  0  0  0  0  0  0  0
    2.0408   -0.5308   -0.8594 H   0  0  0  0  0  0  0  0  0  0  0  0
    1.6261   -1.5819    0.6060 H   0  0  0  0  0  0  0  0  0  0  0  0
  1  2  1  0
  2  3  1  0
  3  4  1  0
  4  5  1  0
  5  6  1  0
  5  7  1  0
  7  8  1  0
  5  2  1  0
  8  3  1  0
  1  9  1  0
  2 10  1  0
  3 11  1  0
  4 12  1  0
  4 13  1  0
  6 14  1  0
  7 15  1  0
  7 16  1  0
M  END
