
     RDKit          3D

 19 21  0  0  0  0  0  0  0  0999 V2000
   -1.4255    1.3522   -0.8514 O   0  0  0  0  0  0  0  0  0  0  0  0
   -1.1407    0.4646    0.1805 C   0  0  0  0  0  0  0  0  0  0  0  0
   -0.9999   -0.9152   -0.4373 C   0  0  0  0  0  0  0  0  0  0  0  0
   -1.6978   -1.7910    0.4256 O   0  0  0  0  0  0  0  0  0  0  0  0
    0.4557   -1.2747   -0.3163 C   0  0  0  0  0  0  0  0  0  0  0  0
    1.5247   -0.2582   -0.4202 C   0  0  0  0  0  0  0  0  0  0  0  0
    1.1959    1.2010   -0.2150 C   0  0  0  0  0  0  0  0  0  0  0  0
    0.1817    0.7459    0.8438 C   0  0  0  0  0  0  0  0  0  0  0  0
    0.8954   -0.5602    0.8759 C   0  0  0  0  0  0  0  0  0  0  0  0
   -1.8767    2.1501   -0.4579 H   0  0  0  0  0  0  0  0  0  0  0  0
   -1.9164    0.5001    0.9682 H   0  0  0  0  0  0  0  0  0  0  0  0
   -1.3938   -0.9448   -1.4520 H   0  0  0  0  0  0  0  0  0  0  0  0
   -1.3383   -1.5941    1.3371 H   0  0  0  0  0  0  0  0  0  0  0  0
    0.7417   -2.3218   -0.4249 H   0  0  0  0  0  0  0  0  0  0  0  0
    2.5385   -0.5916   -0.6159 H   0  0  0  0  0  0  0  0  0  0  0  0
    1.9895    1.7945    0.2896 H   0  0  0  0  0  0  0  0  0  0  0  0
    0.7098    1.6802   -1.0714 H   0  0  0  0  0  0  0  0  0  0  0  0
    0.1715    1.3297    1.7581 H   0  0  0  0  0  0  0  0  0  0  0  0
    1.3848   -0.9667    1.7378 H   0  0  0  0  0  0  0  0  0  0  0  0
  1  2  1  0
  2  3  1  0
  3  4  1  0
  3  5  1  0
  5  6  1  0
  6  7  1  0
  7  8  1  0
  8  9  1  0
  8  2  1  0
  9  5  1  0
  9  6  1  0
  1 10  1  0
  2 11  1  0
  3 12  1  0
  4 13  1  0
  5 14  1  0
  6 15  1  0
  7 16  1  0
  7 17  1  0
  8 18  1  0
  9 19  1  0
M  END
