
     RDKit          3D

 20 21  0  0  0  0  0  0  0  0999 V2000
    2.0470   -0.9409    0.5974 O   0  0  0  0  0  0  0  0  0  0  0  0
    1.0877   -0.7193   -0.4174 C   0  0  0  0  0  0  0  0  0  0  0  0
    1.1139    0.7940   -0.6511 C   0  0  0  0  0  0  0  0  0  0  0  0
    0.5181    1.2829    0.6640 C   0  0  0  0  0  0  0  0  0  0  0  0
   -0.5672    0.2923    0.9528 C   0  0  0  0  0  0  0  0  0  0  0  0
   -1.7420    0.5004    0.0280 C   0  0  0  0  0  0  0  0  0  0  0  0
   -1.4470   -0.7998   -0.6837 C   0  0  0  0  0  0  0  0  0  0  0  0
   -0.2539   -0.9726    0.2129 C   0  0  0  0  0  0  0  0  0  0  0  0
    2.6991   -1.6154    0.3476 H   0  0  0  0  0  0  0  0  0  0  0  0
    1.2857   -1.2902   -1.3188 H   0  0  0  0  0  0  0  0  0  0  0  0
    2.1841    1.1159   -0.7400 H   0  0  0  0  0  0  0  0  0  0  0  0
    0.5079    1.0866   -1.5222 H   0  0  0  0  0  0  0  0  0  0  0  0
    0.1227    2.3077    0.5920 H   0  0  0  0  0  0  0  0  0  0  0  0
    1.3270    1.1729    1.4210 H   0  0  0  0  0  0  0  0  0  0  0  0
   -0.7978    0.0842    2.0011 H   0  0  0  0  0  0  0  0  0  0  0  0
   -1.6232    1.3496   -0.6734 H   0  0  0  0  0  0  0  0  0  0  0  0
   -2.7016    0.5268    0.5906 H   0  0  0  0  0  0  0  0  0  0  0  0
   -1.2522   -0.7303   -1.7619 H   0  0  0  0  0  0  0  0  0  0  0  0
   -2.2467   -1.5354   -0.4642 H   0  0  0  0  0  0  0  0  0  0  0  0
   -0.2618   -1.9095    0.8254 H   0  0  0  0  0  0  0  0  0  0  0  0
  1  2  1  0
  2  3  1  0
  3  4  1  0
  4  5  1  0
  5  6  1  0
  6  7  1  0
  7  8  1  0
  8  2  1  0
  8  5  1  0
  1  9  1  0
  2 10  1  0
  3 11  1  0
  3 12  1  0
  4 13  1  0
  4 14  1  0
  5 15  1  0
  6 16  1  0
  6 17  1  0
  7 18  1  0
  7 19  1  0
  8 20  1  0
M  END
