
     RDKit          3D

 19 21  0  0  0  0  0  0  0  0999 V2000
   -2.7189    0.4604   -0.9087 O   0  0  0  0  0  0  0  0  0  0  0  0
   -1.9490   -0.1957    0.0178 C   0  0  0  0  0  0  0  0  0  0  0  0
   -1.3145    0.6179    1.0957 C   0  0  0  0  0  0  0  0  0  0  0  0
   -0.1172   -0.3222    0.8905 C   0  0  0  0  0  0  0  0  0  0  0  0
   -0.6248   -0.6032   -0.5457 C   0  0  0  0  0  0  0  0  0  0  0  0
    0.6497    0.0033   -0.2878 C   0  0  0  0  0  0  0  0  0  0  0  0
    1.8909   -0.6747   -0.7258 C   0  0  0  0  0  0  0  0  0  0  0  0
    2.4220    0.6995   -0.2933 C   0  0  0  0  0  0  0  0  0  0  0  0
    1.1451    1.1984   -0.6440 O   0  0  0  0  0  0  0  0  0  0  0  0
   -3.3600    1.1078   -0.5336 H   0  0  0  0  0  0  0  0  0  0  0  0
   -2.5156   -1.0489    0.4980 H   0  0  0  0  0  0  0  0  0  0  0  0
   -1.1118    1.6592    0.7836 H   0  0  0  0  0  0  0  0  0  0  0  0
   -1.7240    0.5581    2.1009 H   0  0  0  0  0  0  0  0  0  0  0  0
   -0.0439   -1.2157    1.5001 H   0  0  0  0  0  0  0  0  0  0  0  0
   -0.6085   -1.6690   -0.8779 H   0  0  0  0  0  0  0  0  0  0  0  0
    2.2639   -1.5107   -0.1381 H   0  0  0  0  0  0  0  0  0  0  0  0
    1.8935   -0.8119   -1.8324 H   0  0  0  0  0  0  0  0  0  0  0  0
    3.2514    1.0817   -0.8665 H   0  0  0  0  0  0  0  0  0  0  0  0
    2.5716    0.6656    0.8082 H   0  0  0  0  0  0  0  0  0  0  0  0
  1  2  1  0
  2  3  1  0
  3  4  1  0
  4  5  1  0
  5  6  1  0
  6  7  1  0
  7  8  1  0
  8  9  1  0
  5  2  1  0
  9  6  1  0
  6  4  1  0
  1 10  1  0
  2 11  1  0
  3 12  1  0
  3 13  1  0
  4 14  1  0
  5 15  1  0
  7 16  1  0
  7 17  1  0
  8 18  1  0
  8 19  1  0
M  END
