
     RDKit          3D

 21 22  0  0  0  0  0  0  0  0999 V2000
    2.2712    0.7905    1.3487 O   0  0  0  0  0  0  0  0  0  0  0  0
    2.0740   -0.2693    0.4705 C   0  0  0  0  0  0  0  0  0  0  0  0
    1.4931    0.1291   -0.8524 C   0  0  0  0  0  0  0  0  0  0  0  0
    0.2362   -0.6909   -0.5958 C   0  0  0  0  0  0  0  0  0  0  0  0
   -1.0025    0.1419   -0.6601 C   0  0  0  0  0  0  0  0  0  0  0  0
   -2.3315   -0.4949   -0.4333 C   0  0  0  0  0  0  0  0  0  0  0  0
   -1.7716    0.5568    0.5086 C   0  0  0  0  0  0  0  0  0  0  0  0
   -2.3792    1.8348    0.4894 O   0  0  0  0  0  0  0  0  0  0  0  0
    0.7772   -1.0240    0.7510 C   0  0  0  0  0  0  0  0  0  0  0  0
    2.8092    1.4751    0.8607 H   0  0  0  0  0  0  0  0  0  0  0  0
    2.9729   -0.9179    0.4265 H   0  0  0  0  0  0  0  0  0  0  0  0
    1.2768    1.2124   -0.8931 H   0  0  0  0  0  0  0  0  0  0  0  0
    2.0575   -0.1641   -1.7487 H   0  0  0  0  0  0  0  0  0  0  0  0
    0.1706   -1.5912   -1.2502 H   0  0  0  0  0  0  0  0  0  0  0  0
   -0.9938    0.8729   -1.5195 H   0  0  0  0  0  0  0  0  0  0  0  0
   -2.3829   -1.5463   -0.1008 H   0  0  0  0  0  0  0  0  0  0  0  0
   -3.2320   -0.1642   -0.9803 H   0  0  0  0  0  0  0  0  0  0  0  0
   -1.6179    0.1933    1.5304 H   0  0  0  0  0  0  0  0  0  0  0  0
   -1.6684    2.4366    0.1124 H   0  0  0  0  0  0  0  0  0  0  0  0
    0.2282   -0.6665    1.6319 H   0  0  0  0  0  0  0  0  0  0  0  0
    1.0129   -2.1143    0.9043 H   0  0  0  0  0  0  0  0  0  0  0  0
  1  2  1  0
  2  3  1  0
  3  4  1  0
  4  5  1  0
  5  6  1  0
  6  7  1  0
  7  8  1  0
  4  9  1  0
  9  2  1  0
  7  5  1  0
  1 10  1  0
  2 11  1  0
  3 12  1  0
  3 13  1  0
  4 14  1  0
  5 15  1  0
  6 16  1  0
  6 17  1  0
  7 18  1  0
  8 19  1  0
  9 20  1  0
  9 21  1  0
M  END
