
     RDKit          3D

 19 21  0  0  0  0  0  0  0  0999 V2000
   -2.1182    0.7249   -1.4972 O   0  0  0  0  0  0  0  0  0  0  0  0
   -2.2043    0.0667   -0.2747 C   0  0  0  0  0  0  0  0  0  0  0  0
   -1.5125   -1.2172   -0.0317 C   0  0  0  0  0  0  0  0  0  0  0  0
   -0.2702   -1.5032   -0.5282 O   0  0  0  0  0  0  0  0  0  0  0  0
    0.2769   -0.3603   -0.0451 C   0  0  0  0  0  0  0  0  0  0  0  0
    1.3898   -0.4528    0.9389 C   0  0  0  0  0  0  0  0  0  0  0  0
    2.2216    0.4264    0.0029 C   0  0  0  0  0  0  0  0  0  0  0  0
    1.0341    0.5223   -0.9541 C   0  0  0  0  0  0  0  0  0  0  0  0
   -0.9813    0.1307    0.5627 C   0  0  0  0  0  0  0  0  0  0  0  0
   -2.2060    1.7053   -1.2789 H   0  0  0  0  0  0  0  0  0  0  0  0
   -3.1668    0.1900    0.2659 H   0  0  0  0  0  0  0  0  0  0  0  0
   -1.9274   -1.9345    0.6816 H   0  0  0  0  0  0  0  0  0  0  0  0
    1.7726   -1.4590    1.0990 H   0  0  0  0  0  0  0  0  0  0  0  0
    1.2199    0.1141    1.8948 H   0  0  0  0  0  0  0  0  0  0  0  0
    3.0781   -0.1351   -0.3644 H   0  0  0  0  0  0  0  0  0  0  0  0
    2.4662    1.4170    0.3884 H   0  0  0  0  0  0  0  0  0  0  0  0
    0.6683    1.5360   -1.1422 H   0  0  0  0  0  0  0  0  0  0  0  0
    1.3392    0.0409   -1.9278 H   0  0  0  0  0  0  0  0  0  0  0  0
   -1.0800    0.1877    1.6738 H   0  0  0  0  0  0  0  0  0  0  0  0
  1  2  1  0
  2  3  1  0
  3  4  1  0
  4  5  1  0
  5  6  1  0
  6  7  1  0
  7  8  1  0
  5  9  1  0
  9  2  1  0
  9  3  1  0
  8  5  1  0
  1 10  1  0
  2 11  1  0
  3 12  1  0
  6 13  1  0
  6 14  1  0
  7 15  1  0
  7 16  1  0
  8 17  1  0
  8 18  1  0
  9 19  1  0
M  END
