
     RDKit          3D

 13 13  0  0  0  0  0  0  0  0999 V2000
    1.6946    0.8578   -0.5006 O   0  0  0  0  0  0  0  0  0  0  0  0
    0.6916    0.5637    0.4125 C   0  0  0  0  0  0  0  0  0  0  0  0
    0.3211   -0.9020    0.3606 C   0  0  0  0  0  0  0  0  0  0  0  0
   -1.0241   -0.5865   -0.2721 C   0  0  0  0  0  0  0  0  0  0  0  0
   -0.7183    0.8761   -0.0668 C   0  0  0  0  0  0  0  0  0  0  0  0
    1.9173    0.0746   -1.0508 H   0  0  0  0  0  0  0  0  0  0  0  0
    0.8783    0.9795    1.4133 H   0  0  0  0  0  0  0  0  0  0  0  0
    0.2740   -1.3052    1.3867 H   0  0  0  0  0  0  0  0  0  0  0  0
    0.9144   -1.5144   -0.3404 H   0  0  0  0  0  0  0  0  0  0  0  0
   -1.0997   -0.8660   -1.3535 H   0  0  0  0  0  0  0  0  0  0  0  0
   -1.8438   -1.0000    0.3483 H   0  0  0  0  0  0  0  0  0  0  0  0
   -1.3339    1.3964    0.6819 H   0  0  0  0  0  0  0  0  0  0  0  0
   -0.6715    1.4260   -1.0192 H   0  0  0  0  0  0  0  0  0  0  0  0
  1  2  1  0
  2  3  1  0
  3  4  1  0
  4  5  1  0
  5  2  1  0
  1  6  1  0
  2  7  1  0
  3  8  1  0
  3  9  1  0
  4 10  1  0
  4 11  1  0
  5 12  1  0
  5 13  1  0
M  END
