
     RDKit          3D

 19 21  0  0  0  0  0  0  0  0999 V2000
    3.3434    0.2472   -0.1953 O   0  0  0  0  0  0  0  0  0  0  0  0
    2.0225    0.3249    0.1931 C   0  0  0  0  0  0  0  0  0  0  0  0
    1.3211   -0.9445    0.4762 C   0  0  0  0  0  0  0  0  0  0  0  0
   -0.1140   -0.7670    0.9508 C   0  0  0  0  0  0  0  0  0  0  0  0
   -0.4309   -0.3042   -0.4483 C   0  0  0  0  0  0  0  0  0  0  0  0
   -1.3768    0.8492   -0.5473 C   0  0  0  0  0  0  0  0  0  0  0  0
   -2.7483    0.5763    0.0652 C   0  0  0  0  0  0  0  0  0  0  0  0
   -2.5465    0.6901   -1.3308 O   0  0  0  0  0  0  0  0  0  0  0  0
    0.9955   -0.0528   -0.7704 C   0  0  0  0  0  0  0  0  0  0  0  0
    3.4271    0.5495   -1.1383 H   0  0  0  0  0  0  0  0  0  0  0  0
    1.8484    1.1263    0.9680 H   0  0  0  0  0  0  0  0  0  0  0  0
    1.7191   -1.9286    0.2679 H   0  0  0  0  0  0  0  0  0  0  0  0
   -0.1516    0.0679    1.7011 H   0  0  0  0  0  0  0  0  0  0  0  0
   -0.6145   -1.6646    1.3022 H   0  0  0  0  0  0  0  0  0  0  0  0
   -0.8396   -1.1807   -1.0276 H   0  0  0  0  0  0  0  0  0  0  0  0
   -1.0233    1.8854   -0.5486 H   0  0  0  0  0  0  0  0  0  0  0  0
   -3.1930    1.4416    0.5874 H   0  0  0  0  0  0  0  0  0  0  0  0
   -2.9922   -0.4487    0.3659 H   0  0  0  0  0  0  0  0  0  0  0  0
    1.3537   -0.4675   -1.7484 H   0  0  0  0  0  0  0  0  0  0  0  0
  1  2  1  0
  2  3  1  0
  3  4  1  0
  4  5  1  0
  5  6  1  0
  6  7  1  0
  7  8  1  0
  5  9  1  0
  9  2  1  0
  9  3  1  0
  8  6  1  0
  1 10  1  0
  2 11  1  0
  3 12  1  0
  4 13  1  0
  4 14  1  0
  5 15  1  0
  6 16  1  0
  7 17  1  0
  7 18  1  0
  9 19  1  0
M  END
