
     RDKit          3D

 19 20  0  0  0  0  0  0  0  0999 V2000
   -2.3407    0.8985   -0.7568 O   0  0  0  0  0  0  0  0  0  0  0  0
   -1.5926   -0.2288   -0.5465 C   0  0  0  0  0  0  0  0  0  0  0  0
   -1.6193   -0.7015    0.9195 C   0  0  0  0  0  0  0  0  0  0  0  0
   -0.3749   -0.1890    0.2716 C   0  0  0  0  0  0  0  0  0  0  0  0
    0.7320   -1.1890    0.1426 C   0  0  0  0  0  0  0  0  0  0  0  0
    1.7904   -0.7211   -0.6112 O   0  0  0  0  0  0  0  0  0  0  0  0
    2.2529    0.4990   -0.1192 C   0  0  0  0  0  0  0  0  0  0  0  0
    1.2652    1.4733   -0.1202 O   0  0  0  0  0  0  0  0  0  0  0  0
    0.2369    1.1188    0.7201 C   0  0  0  0  0  0  0  0  0  0  0  0
   -2.1199    1.4265   -1.5393 H   0  0  0  0  0  0  0  0  0  0  0  0
   -1.7359   -1.0177   -1.3295 H   0  0  0  0  0  0  0  0  0  0  0  0
   -2.0625   -0.0542    1.6722 H   0  0  0  0  0  0  0  0  0  0  0  0
   -1.7413   -1.8176    1.0270 H   0  0  0  0  0  0  0  0  0  0  0  0
    0.4220   -2.1739   -0.2151 H   0  0  0  0  0  0  0  0  0  0  0  0
    1.1389   -1.3525    1.1837 H   0  0  0  0  0  0  0  0  0  0  0  0
    2.6170    0.4208    0.9331 H   0  0  0  0  0  0  0  0  0  0  0  0
    3.1206    0.7824   -0.7316 H   0  0  0  0  0  0  0  0  0  0  0  0
   -0.5609    1.8631    0.7514 H   0  0  0  0  0  0  0  0  0  0  0  0
    0.5720    0.9629    1.7742 H   0  0  0  0  0  0  0  0  0  0  0  0
  1  2  1  0
  2  3  1  0
  3  4  1  0
  4  5  1  0
  5  6  1  0
  6  7  1  0
  7  8  1  0
  8  9  1  0
  4  2  1  0
  9  4  1  0
  1 10  1  0
  2 11  1  0
  3 12  1  0
  3 13  1  0
  5 14  1  0
  5 15  1  0
  7 16  1  0
  7 17  1  0
  9 18  1  0
  9 19  1  0
M  END
