
     RDKit          3D

 18 19  0  0  0  0  0  0  0  0999 V2000
    2.2570   -0.8528   -0.7276 O   0  0  0  0  0  0  0  0  0  0  0  0
    1.4205   -0.3123    0.2284 C   0  0  0  0  0  0  0  0  0  0  0  0
    1.2885    1.2298    0.2021 C   0  0  0  0  0  0  0  0  0  0  0  0
    0.1710    0.3703   -0.1052 C   0  0  0  0  0  0  0  0  0  0  0  0
   -1.0090    0.1536    0.8108 C   0  0  0  0  0  0  0  0  0  0  0  0
   -1.8297   -0.7914   -0.0363 C   0  0  0  0  0  0  0  0  0  0  0  0
   -1.4554   -0.6465   -1.3381 O   0  0  0  0  0  0  0  0  0  0  0  0
   -0.4783    0.2998   -1.4512 C   0  0  0  0  0  0  0  0  0  0  0  0
    2.3367   -1.8213   -0.5441 H   0  0  0  0  0  0  0  0  0  0  0  0
    1.5457   -0.7698    1.2436 H   0  0  0  0  0  0  0  0  0  0  0  0
    1.4866    1.7233    1.1507 H   0  0  0  0  0  0  0  0  0  0  0  0
    1.7972    1.7357   -0.6648 H   0  0  0  0  0  0  0  0  0  0  0  0
   -0.7427   -0.3338    1.7515 H   0  0  0  0  0  0  0  0  0  0  0  0
   -1.5495    1.1285    0.9729 H   0  0  0  0  0  0  0  0  0  0  0  0
   -1.5855   -1.8511    0.2674 H   0  0  0  0  0  0  0  0  0  0  0  0
   -2.9088   -0.6542    0.1219 H   0  0  0  0  0  0  0  0  0  0  0  0
    0.2517    0.1024   -2.2735 H   0  0  0  0  0  0  0  0  0  0  0  0
   -0.9960    1.2897   -1.6273 H   0  0  0  0  0  0  0  0  0  0  0  0
  1  2  1  0
  2  3  1  0
  3  4  1  0
  4  5  1  0
  5  6  1  0
  6  7  1  0
  7  8  1  0
  4  2  1  0
  8  4  1  0
  1  9  1  0
  2 10  1  0
  3 11  1  0
  3 12  1  0
  5 13  1  0
  5 14  1  0
  6 15  1  0
  6 16  1  0
  8 17  1  0
  8 18  1  0
M  END
