
     RDKit          3D

 17 20  0  0  0  0  0  0  0  0999 V2000
    2.2354   -0.7599   -0.1008 O   0  0  0  0  0  0  0  0  0  0  0  0
    1.1017   -0.3803    0.5556 C   0  0  0  0  0  0  0  0  0  0  0  0
   -0.1128   -1.1624    0.2101 C   0  0  0  0  0  0  0  0  0  0  0  0
   -1.2861   -0.3680    0.6863 C   0  0  0  0  0  0  0  0  0  0  0  0
   -1.9131   -0.7330   -0.5310 O   0  0  0  0  0  0  0  0  0  0  0  0
   -0.6204   -0.5614   -1.0824 C   0  0  0  0  0  0  0  0  0  0  0  0
   -0.2315    0.8859   -0.9253 C   0  0  0  0  0  0  0  0  0  0  0  0
    0.6416    1.0285    0.2133 C   0  0  0  0  0  0  0  0  0  0  0  0
   -0.7681    1.0462    0.5459 C   0  0  0  0  0  0  0  0  0  0  0  0
    2.6482   -0.0989   -0.6820 H   0  0  0  0  0  0  0  0  0  0  0  0
    1.3058   -0.3806    1.6565 H   0  0  0  0  0  0  0  0  0  0  0  0
   -0.1190   -2.2272    0.3084 H   0  0  0  0  0  0  0  0  0  0  0  0
   -1.7881   -0.6439    1.5904 H   0  0  0  0  0  0  0  0  0  0  0  0
   -0.4101   -1.0647   -1.9999 H   0  0  0  0  0  0  0  0  0  0  0  0
   -0.5901    1.6554   -1.5927 H   0  0  0  0  0  0  0  0  0  0  0  0
    1.2964    1.8609    0.3989 H   0  0  0  0  0  0  0  0  0  0  0  0
   -1.3895    1.9034    0.7487 H   0  0  0  0  0  0  0  0  0  0  0  0
  1  2  1  0
  2  3  1  0
  3  4  1  0
  4  5  1  0
  5  6  1  0
  6  7  1  0
  7  8  1  0
  8  9  1  0
  8  2  1  0
  6  3  1  0
  9  7  1  0
  9  4  1  0
  1 10  1  0
  2 11  1  0
  3 12  1  0
  4 13  1  0
  6 14  1  0
  7 15  1  0
  8 16  1  0
  9 17  1  0
M  END
