
     RDKit          3D

 19 21  0  0  0  0  0  0  0  0999 V2000
    2.4843    0.4566    0.4324 O   0  0  0  0  0  0  0  0  0  0  0  0
    1.3594    1.0513   -0.1744 C   0  0  0  0  0  0  0  0  0  0  0  0
    0.9814    0.4717   -1.5761 C   0  0  0  0  0  0  0  0  0  0  0  0
    0.2516    0.1472   -0.4172 C   0  0  0  0  0  0  0  0  0  0  0  0
   -1.1611    0.3653   -0.0676 C   0  0  0  0  0  0  0  0  0  0  0  0
   -1.0616    0.2867    1.4450 C   0  0  0  0  0  0  0  0  0  0  0  0
   -0.2220   -0.8527    1.5483 O   0  0  0  0  0  0  0  0  0  0  0  0
    0.0613   -1.1800    0.2385 C   0  0  0  0  0  0  0  0  0  0  0  0
   -1.3537   -1.1343   -0.3668 C   0  0  0  0  0  0  0  0  0  0  0  0
    2.0930   -0.0964    1.1817 H   0  0  0  0  0  0  0  0  0  0  0  0
    1.2162    2.1250   -0.0275 H   0  0  0  0  0  0  0  0  0  0  0  0
    1.7447   -0.2357   -1.9867 H   0  0  0  0  0  0  0  0  0  0  0  0
    0.6579    1.2474   -2.2841 H   0  0  0  0  0  0  0  0  0  0  0  0
   -1.7959    1.0547   -0.5307 H   0  0  0  0  0  0  0  0  0  0  0  0
   -0.4936    1.1842    1.7602 H   0  0  0  0  0  0  0  0  0  0  0  0
   -2.0142    0.1438    1.9395 H   0  0  0  0  0  0  0  0  0  0  0  0
    0.6680   -2.0086    0.0008 H   0  0  0  0  0  0  0  0  0  0  0  0
   -1.3760   -1.3852   -1.4266 H   0  0  0  0  0  0  0  0  0  0  0  0
   -2.0397   -1.6410    0.3115 H   0  0  0  0  0  0  0  0  0  0  0  0
  1  2  1  0
  2  3  1  0
  3  4  1  0
  4  5  1  0
  5  6  1  0
  6  7  1  0
  7  8  1  0
  8  9  1  0
  4  2  1  0
  9  5  1  0
  8  4  1  0
  1 10  1  0
  2 11  1  0
  3 12  1  0
  3 13  1  0
  5 14  1  0
  6 15  1  0
  6 16  1  0
  8 17  1  0
  9 18  1  0
  9 19  1  0
M  END
