
     RDKit          3D

 17 19  0  0  0  0  0  0  0  0999 V2000
    2.1642    0.9529   -0.2602 O   0  0  0  0  0  0  0  0  0  0  0  0
    1.3431    0.0930    0.4967 C   0  0  0  0  0  0  0  0  0  0  0  0
   -0.0034    0.7055    0.7183 C   0  0  0  0  0  0  0  0  0  0  0  0
   -0.4402    1.5541   -0.3051 O   0  0  0  0  0  0  0  0  0  0  0  0
   -1.6538    0.8513   -0.2736 C   0  0  0  0  0  0  0  0  0  0  0  0
   -0.9679   -0.3433    0.2602 C   0  0  0  0  0  0  0  0  0  0  0  0
   -0.2985   -1.2753   -0.6509 C   0  0  0  0  0  0  0  0  0  0  0  0
    0.6333   -0.9256   -1.5795 O   0  0  0  0  0  0  0  0  0  0  0  0
    1.1580   -1.1539   -0.3187 C   0  0  0  0  0  0  0  0  0  0  0  0
    1.5564    1.5734   -0.7507 H   0  0  0  0  0  0  0  0  0  0  0  0
    1.8196   -0.0657    1.4687 H   0  0  0  0  0  0  0  0  0  0  0  0
   -0.1979    1.1287    1.7243 H   0  0  0  0  0  0  0  0  0  0  0  0
   -2.2977    1.3322    0.5127 H   0  0  0  0  0  0  0  0  0  0  0  0
   -2.1673    0.7923   -1.2323 H   0  0  0  0  0  0  0  0  0  0  0  0
   -1.5490   -0.8638    1.0449 H   0  0  0  0  0  0  0  0  0  0  0  0
   -0.7599   -2.2674   -0.7894 H   0  0  0  0  0  0  0  0  0  0  0  0
    1.6609   -2.0883   -0.0655 H   0  0  0  0  0  0  0  0  0  0  0  0
  1  2  1  0
  2  3  1  0
  3  4  1  0
  4  5  1  0
  5  6  1  0
  6  7  1  0
  7  8  1  0
  8  9  1  0
  9  2  1  0
  6  3  1  0
  9  7  1  0
  1 10  1  0
  2 11  1  0
  3 12  1  0
  5 13  1  0
  5 14  1  0
  6 15  1  0
  7 16  1  0
  9 17  1  0
M  END
