
     RDKit          3D

 14 16  0  0  0  0  0  0  0  0999 V2000
    1.8614   -1.0070   -0.5884 O   0  0  0  0  0  0  0  0  0  0  0  0
    1.1966   -0.0407    0.2027 C   0  0  0  0  0  0  0  0  0  0  0  0
   -0.0977   -0.3439    0.7971 C   0  0  0  0  0  0  0  0  0  0  0  0
   -0.9782   -1.2554   -0.0124 C   0  0  0  0  0  0  0  0  0  0  0  0
   -1.9909   -0.9393   -0.8834 O   0  0  0  0  0  0  0  0  0  0  0  0
   -1.3809    0.1399   -0.5026 C   0  0  0  0  0  0  0  0  0  0  0  0
    0.0270    0.5644   -0.4488 C   0  0  0  0  0  0  0  0  0  0  0  0
    0.1189    1.9722   -0.2771 O   0  0  0  0  0  0  0  0  0  0  0  0
    2.7671   -0.6688   -0.8256 H   0  0  0  0  0  0  0  0  0  0  0  0
    1.9131    0.4797    0.8607 H   0  0  0  0  0  0  0  0  0  0  0  0
   -0.4369    0.0989    1.7294 H   0  0  0  0  0  0  0  0  0  0  0  0
   -0.3700   -1.9680   -0.6053 H   0  0  0  0  0  0  0  0  0  0  0  0
   -2.0018    0.6412    0.3223 H   0  0  0  0  0  0  0  0  0  0  0  0
   -0.6280    2.3267    0.2315 H   0  0  0  0  0  0  0  0  0  0  0  0
  1  2  1  0
  2  3  1  0
  3  4  1  0
  4  5  1  0
  5  6  1  0
  6  7  1  0
  7  8  1  0
  7  2  1  0
  7  3  1  0
  6  4  1  0
  1  9  1  0
  2 10  1  0
  3 11  1  0
  4 12  1  0
  6 13  1  0
  8 14  1  0
M  END
