
     RDKit          3D

 21 23  0  0  0  0  0  0  0  0999 V2000
   -3.4260   -0.0048    0.2888 O   0  0  0  0  0  0  0  0  0  0  0  0
   -2.0935    0.1440    0.7612 C   0  0  0  0  0  0  0  0  0  0  0  0
   -1.2342    0.9185   -0.0542 C   0  0  0  0  0  0  0  0  0  0  0  0
   -0.4005    0.4752   -1.2546 C   0  0  0  0  0  0  0  0  0  0  0  0
    0.3736   -0.1991   -0.1482 C   0  0  0  0  0  0  0  0  0  0  0  0
    1.3646   -1.2105   -0.4682 C   0  0  0  0  0  0  0  0  0  0  0  0
    2.4197   -0.2560    0.0592 C   0  0  0  0  0  0  0  0  0  0  0  0
    1.2797    0.5386    0.6830 C   0  0  0  0  0  0  0  0  0  0  0  0
   -0.9881   -0.6150    0.2826 C   0  0  0  0  0  0  0  0  0  0  0  0
   -3.9900    0.7067    0.6768 H   0  0  0  0  0  0  0  0  0  0  0  0
   -2.1388    0.2943    1.8828 H   0  0  0  0  0  0  0  0  0  0  0  0
   -0.5575    1.6183    0.5356 H   0  0  0  0  0  0  0  0  0  0  0  0
    0.0751    1.3023   -1.7694 H   0  0  0  0  0  0  0  0  0  0  0  0
   -0.8884   -0.2360   -1.9181 H   0  0  0  0  0  0  0  0  0  0  0  0
    1.3163   -2.0976    0.2296 H   0  0  0  0  0  0  0  0  0  0  0  0
    1.4988   -1.5270   -1.5203 H   0  0  0  0  0  0  0  0  0  0  0  0
    3.1200   -0.7014    0.7919 H   0  0  0  0  0  0  0  0  0  0  0  0
    2.8988    0.2734   -0.7887 H   0  0  0  0  0  0  0  0  0  0  0  0
    1.4816    1.6182    0.5080 H   0  0  0  0  0  0  0  0  0  0  0  0
    1.2226    0.2810    1.7657 H   0  0  0  0  0  0  0  0  0  0  0  0
   -1.3339   -1.3230   -0.5436 H   0  0  0  0  0  0  0  0  0  0  0  0
  1  2  1  0
  2  3  1  0
  3  4  1  0
  4  5  1  0
  5  6  1  0
  6  7  1  0
  7  8  1  0
  5  9  1  0
  9  2  1  0
  9  3  1  0
  8  5  1  0
  1 10  1  0
  2 11  1  0
  3 12  1  0
  4 13  1  0
  4 14  1  0
  6 15  1  0
  6 16  1  0
  7 17  1  0
  7 18  1  0
  8 19  1  0
  8 20  1  0
  9 21  1  0
M  END
