
     RDKit          3D

 19 20  0  0  0  0  0  0  0  0999 V2000
    2.4420   -1.0538   -0.1376 O   0  0  0  0  0  0  0  0  0  0  0  0
    1.8467    0.1742   -0.4212 C   0  0  0  0  0  0  0  0  0  0  0  0
    0.7764   -0.0548   -1.4211 C   0  0  0  0  0  0  0  0  0  0  0  0
   -0.3528   -0.2784   -0.7941 C   0  0  0  0  0  0  0  0  0  0  0  0
   -1.8013   -0.5754   -0.9026 C   0  0  0  0  0  0  0  0  0  0  0  0
   -2.3323    0.2854    0.2114 C   0  0  0  0  0  0  0  0  0  0  0  0
   -1.3828    0.4960    1.1123 C   0  0  0  0  0  0  0  0  0  0  0  0
   -0.1540   -0.1995    0.6804 C   0  0  0  0  0  0  0  0  0  0  0  0
    1.1044    0.6389    0.8091 C   0  0  0  0  0  0  0  0  0  0  0  0
    2.9359   -0.9680    0.7371 H   0  0  0  0  0  0  0  0  0  0  0  0
    2.5770    0.9225   -0.7834 H   0  0  0  0  0  0  0  0  0  0  0  0
    0.9256   -0.0363   -2.5341 H   0  0  0  0  0  0  0  0  0  0  0  0
   -2.2392   -0.3370   -1.8678 H   0  0  0  0  0  0  0  0  0  0  0  0
   -1.9598   -1.6378   -0.5885 H   0  0  0  0  0  0  0  0  0  0  0  0
   -3.3510    0.6625    0.2420 H   0  0  0  0  0  0  0  0  0  0  0  0
   -1.5371    1.0999    2.0190 H   0  0  0  0  0  0  0  0  0  0  0  0
   -0.0491   -1.1885    1.1525 H   0  0  0  0  0  0  0  0  0  0  0  0
    0.8723    1.7233    0.7895 H   0  0  0  0  0  0  0  0  0  0  0  0
    1.6792    0.3269    1.6969 H   0  0  0  0  0  0  0  0  0  0  0  0
  1  2  1  0
  2  3  1  0
  3  4  2  0
  4  5  1  0
  5  6  1  0
  6  7  2  0
  7  8  1  0
  8  9  1  0
  9  2  1  0
  8  4  1  0
  1 10  1  0
  2 11  1  0
  3 12  1  0
  5 13  1  0
  5 14  1  0
  6 15  1  0
  7 16  1  0
  8 17  1  0
  9 18  1  0
  9 19  1  0
M  END
