
     RDKit          3D

 19 20  0  0  0  0  0  0  0  0999 V2000
   -1.0702    0.8720   -1.5149 O   0  0  0  0  0  0  0  0  0  0  0  0
   -1.1559   -0.0938   -0.5362 C   0  0  0  0  0  0  0  0  0  0  0  0
   -0.1902   -1.2565   -0.7136 C   0  0  0  0  0  0  0  0  0  0  0  0
   -0.0804   -1.2719    0.8175 C   0  0  0  0  0  0  0  0  0  0  0  0
   -0.3686    0.2239    0.7428 C   0  0  0  0  0  0  0  0  0  0  0  0
   -1.1475    0.7372    1.7331 O   0  0  0  0  0  0  0  0  0  0  0  0
    0.8534    0.9768    0.3367 C   0  0  0  0  0  0  0  0  0  0  0  0
    1.7046    0.0307   -0.5056 C   0  0  0  0  0  0  0  0  0  0  0  0
    0.9600   -0.7888   -1.3074 O   0  0  0  0  0  0  0  0  0  0  0  0
   -1.8064    1.5207   -1.3455 H   0  0  0  0  0  0  0  0  0  0  0  0
   -2.1798   -0.3867   -0.2360 H   0  0  0  0  0  0  0  0  0  0  0  0
   -0.6553   -2.1305   -1.1546 H   0  0  0  0  0  0  0  0  0  0  0  0
    0.8996   -1.5466    1.2069 H   0  0  0  0  0  0  0  0  0  0  0  0
   -0.9514   -1.8151    1.2451 H   0  0  0  0  0  0  0  0  0  0  0  0
   -1.5118    1.6084    1.4241 H   0  0  0  0  0  0  0  0  0  0  0  0
    1.4327    1.3574    1.1896 H   0  0  0  0  0  0  0  0  0  0  0  0
    0.5526    1.8330   -0.3228 H   0  0  0  0  0  0  0  0  0  0  0  0
    2.3162    0.6906   -1.1681 H   0  0  0  0  0  0  0  0  0  0  0  0
    2.3984   -0.5609    0.1088 H   0  0  0  0  0  0  0  0  0  0  0  0
  1  2  1  0
  2  3  1  0
  3  4  1  0
  4  5  1  0
  5  6  1  0
  5  7  1  0
  7  8  1  0
  8  9  1  0
  5  2  1  0
  9  3  1  0
  1 10  1  0
  2 11  1  0
  3 12  1  0
  4 13  1  0
  4 14  1  0
  6 15  1  0
  7 16  1  0
  7 17  1  0
  8 18  1  0
  8 19  1  0
M  END
