
     RDKit          3D

 21 23  0  0  0  0  0  0  0  0999 V2000
   -1.8428    0.8845   -1.4751 O   0  0  0  0  0  0  0  0  0  0  0  0
   -1.4500    0.8157   -0.1626 C   0  0  0  0  0  0  0  0  0  0  0  0
   -1.8143   -0.4246    0.5975 C   0  0  0  0  0  0  0  0  0  0  0  0
   -0.7654   -1.1259   -0.2116 C   0  0  0  0  0  0  0  0  0  0  0  0
   -0.1241    0.1863    0.1167 C   0  0  0  0  0  0  0  0  0  0  0  0
    1.1149    0.6506   -0.2114 C   0  0  0  0  0  0  0  0  0  0  0  0
    2.3513   -0.1797    0.1894 C   0  0  0  0  0  0  0  0  0  0  0  0
    1.9644   -0.0508   -1.2829 C   0  0  0  0  0  0  0  0  0  0  0  0
   -0.6735   -0.0482    1.5239 C   0  0  0  0  0  0  0  0  0  0  0  0
   -2.8297    0.9717   -1.4937 H   0  0  0  0  0  0  0  0  0  0  0  0
   -1.6320    1.7206    0.4585 H   0  0  0  0  0  0  0  0  0  0  0  0
   -2.7174   -0.7492    0.8673 H   0  0  0  0  0  0  0  0  0  0  0  0
   -0.3063   -1.9549    0.3271 H   0  0  0  0  0  0  0  0  0  0  0  0
   -1.0581   -1.2915   -1.2620 H   0  0  0  0  0  0  0  0  0  0  0  0
    1.3011    1.7653   -0.2287 H   0  0  0  0  0  0  0  0  0  0  0  0
    3.2687    0.4123    0.4647 H   0  0  0  0  0  0  0  0  0  0  0  0
    2.1759   -1.1461    0.6765 H   0  0  0  0  0  0  0  0  0  0  0  0
    2.6012    0.5470   -1.9482 H   0  0  0  0  0  0  0  0  0  0  0  0
    1.5154   -0.9567   -1.7534 H   0  0  0  0  0  0  0  0  0  0  0  0
   -0.2145   -0.8935    2.0578 H   0  0  0  0  0  0  0  0  0  0  0  0
   -0.8649    0.8672    2.0782 H   0  0  0  0  0  0  0  0  0  0  0  0
  1  2  1  0
  2  3  1  0
  3  4  1  0
  4  5  1  0
  5  6  1  0
  6  7  1  0
  7  8  1  0
  5  9  1  0
  5  2  1  0
  8  6  1  0
  9  3  1  0
  1 10  1  0
  2 11  1  0
  3 12  1  0
  4 13  1  0
  4 14  1  0
  6 15  1  0
  7 16  1  0
  7 17  1  0
  8 18  1  0
  8 19  1  0
  9 20  1  0
  9 21  1  0
M  END
