
     RDKit          3D

 16 18  0  0  0  0  0  0  0  0999 V2000
    2.9549   -0.0495   -0.2970 O   0  0  0  0  0  0  0  0  0  0  0  0
    1.6924    0.4983   -0.2633 C   0  0  0  0  0  0  0  0  0  0  0  0
    0.5865   -0.3488   -0.5986 C   0  0  0  0  0  0  0  0  0  0  0  0
    0.6851    0.2925    0.7906 C   0  0  0  0  0  0  0  0  0  0  0  0
   -0.6896   -0.2610    0.7584 C   0  0  0  0  0  0  0  0  0  0  0  0
   -1.9108    0.2062    0.2441 C   0  0  0  0  0  0  0  0  0  0  0  0
   -2.9280   -0.6390   -0.2540 O   0  0  0  0  0  0  0  0  0  0  0  0
   -0.7788    0.3533   -0.6686 C   0  0  0  0  0  0  0  0  0  0  0  0
    3.6152    0.3852    0.2624 H   0  0  0  0  0  0  0  0  0  0  0  0
    1.6880    1.5460   -0.6939 H   0  0  0  0  0  0  0  0  0  0  0  0
    0.6081   -1.4474   -0.6713 H   0  0  0  0  0  0  0  0  0  0  0  0
    1.2439   -0.2045    1.6437 H   0  0  0  0  0  0  0  0  0  0  0  0
   -0.6325   -1.4069    0.6809 H   0  0  0  0  0  0  0  0  0  0  0  0
   -2.4015    1.0589    0.8029 H   0  0  0  0  0  0  0  0  0  0  0  0
   -3.0788   -1.3968    0.3414 H   0  0  0  0  0  0  0  0  0  0  0  0
   -0.6540    1.4135   -0.8722 H   0  0  0  0  0  0  0  0  0  0  0  0
  1  2  1  0
  2  3  1  0
  3  4  1  0
  4  5  1  0
  5  6  1  0
  6  7  1  0
  6  8  1  0
  4  2  1  0
  8  5  1  0
  8  3  1  0
  1  9  1  0
  2 10  1  0
  3 11  1  0
  4 12  1  0
  5 13  1  0
  6 14  1  0
  7 15  1  0
  8 16  1  0
M  END
