
     RDKit          3D

 19 20  0  0  0  0  0  0  0  0999 V2000
   -1.7281    1.1186    0.5324 O   0  0  0  0  0  0  0  0  0  0  0  0
   -1.0969    0.4900   -0.5252 C   0  0  0  0  0  0  0  0  0  0  0  0
   -1.7075   -0.9194   -0.6043 C   0  0  0  0  0  0  0  0  0  0  0  0
   -1.3269   -1.3969    0.6716 O   0  0  0  0  0  0  0  0  0  0  0  0
   -0.0172   -1.0343    0.8560 C   0  0  0  0  0  0  0  0  0  0  0  0
    0.2969    0.0831   -0.1090 C   0  0  0  0  0  0  0  0  0  0  0  0
    1.2081    1.1452    0.3531 C   0  0  0  0  0  0  0  0  0  0  0  0
    2.2135    0.1807   -0.2798 C   0  0  0  0  0  0  0  0  0  0  0  0
    1.1653   -0.2453   -1.1185 O   0  0  0  0  0  0  0  0  0  0  0  0
   -2.7033    1.2194    0.3786 H   0  0  0  0  0  0  0  0  0  0  0  0
   -1.1416    1.0159   -1.4715 H   0  0  0  0  0  0  0  0  0  0  0  0
   -1.1421   -1.4958   -1.3331 H   0  0  0  0  0  0  0  0  0  0  0  0
   -2.7813   -0.8917   -0.7284 H   0  0  0  0  0  0  0  0  0  0  0  0
    0.6169   -1.9277    0.6651 H   0  0  0  0  0  0  0  0  0  0  0  0
    0.1916   -0.6725    1.8983 H   0  0  0  0  0  0  0  0  0  0  0  0
    1.1264    2.0848   -0.1962 H   0  0  0  0  0  0  0  0  0  0  0  0
    1.3468    1.2495    1.4571 H   0  0  0  0  0  0  0  0  0  0  0  0
    3.0118    0.6416   -0.8515 H   0  0  0  0  0  0  0  0  0  0  0  0
    2.4675   -0.6451    0.4053 H   0  0  0  0  0  0  0  0  0  0  0  0
  1  2  1  0
  2  3  1  0
  3  4  1  0
  4  5  1  0
  5  6  1  0
  6  7  1  0
  7  8  1  0
  8  9  1  0
  6  2  1  0
  9  6  1  0
  1 10  1  0
  2 11  1  0
  3 12  1  0
  3 13  1  0
  5 14  1  0
  5 15  1  0
  7 16  1  0
  7 17  1  0
  8 18  1  0
  8 19  1  0
M  END
