
     RDKit          3D

 19 20  0  0  0  0  0  0  0  0999 V2000
   -0.6366   -1.6893   -1.1340 O   0  0  0  0  0  0  0  0  0  0  0  0
    0.1067   -1.1813   -0.0822 C   0  0  0  0  0  0  0  0  0  0  0  0
   -0.7815   -0.7828    1.0961 C   0  0  0  0  0  0  0  0  0  0  0  0
   -1.8184    0.1375    0.5256 C   0  0  0  0  0  0  0  0  0  0  0  0
   -1.3512    1.1156   -0.2588 C   0  0  0  0  0  0  0  0  0  0  0  0
    0.0766    1.2885   -0.5503 C   0  0  0  0  0  0  0  0  0  0  0  0
    0.8913    0.0431   -0.4622 C   0  0  0  0  0  0  0  0  0  0  0  0
    2.2817    0.1099    0.1491 C   0  0  0  0  0  0  0  0  0  0  0  0
    2.0524   -0.0921   -1.2076 O   0  0  0  0  0  0  0  0  0  0  0  0
   -1.1608   -1.0248   -1.6146 H   0  0  0  0  0  0  0  0  0  0  0  0
    0.7687   -1.9724    0.2840 H   0  0  0  0  0  0  0  0  0  0  0  0
   -0.1488   -0.1616    1.7653 H   0  0  0  0  0  0  0  0  0  0  0  0
   -1.2223   -1.6566    1.5963 H   0  0  0  0  0  0  0  0  0  0  0  0
   -2.8558   -0.0071    0.7516 H   0  0  0  0  0  0  0  0  0  0  0  0
   -2.0705    1.7983   -0.6877 H   0  0  0  0  0  0  0  0  0  0  0  0
    0.4877    2.0239    0.1897 H   0  0  0  0  0  0  0  0  0  0  0  0
    0.1903    1.7212   -1.5734 H   0  0  0  0  0  0  0  0  0  0  0  0
    2.6555   -0.7846    0.6881 H   0  0  0  0  0  0  0  0  0  0  0  0
    2.5348    1.1144    0.5249 H   0  0  0  0  0  0  0  0  0  0  0  0
  1  2  1  0
  2  3  1  0
  3  4  1  0
  4  5  2  0
  5  6  1  0
  6  7  1  0
  7  8  1  0
  8  9  1  0
  7  2  1  0
  9  7  1  0
  1 10  1  0
  2 11  1  0
  3 12  1  0
  3 13  1  0
  4 14  1  0
  5 15  1  0
  6 16  1  0
  6 17  1  0
  8 18  1  0
  8 19  1  0
M  END
