
     RDKit          3D

 21 22  0  0  0  0  0  0  0  0999 V2000
    2.9461   -0.8005    0.2325 O   0  0  0  0  0  0  0  0  0  0  0  0
    1.9187   -0.1921   -0.4723 C   0  0  0  0  0  0  0  0  0  0  0  0
    1.7705    1.2408   -0.0328 C   0  0  0  0  0  0  0  0  0  0  0  0
    0.4959    1.4831    0.2568 C   0  0  0  0  0  0  0  0  0  0  0  0
   -0.3144    0.3039    0.0557 C   0  0  0  0  0  0  0  0  0  0  0  0
   -1.2787    0.3202   -1.1208 C   0  0  0  0  0  0  0  0  0  0  0  0
   -2.0997   -0.6664   -0.2797 C   0  0  0  0  0  0  0  0  0  0  0  0
   -1.5106    0.0894    0.9225 C   0  0  0  0  0  0  0  0  0  0  0  0
    0.6216   -0.8744   -0.0522 C   0  0  0  0  0  0  0  0  0  0  0  0
    2.6230   -1.4787    0.8764 H   0  0  0  0  0  0  0  0  0  0  0  0
    2.0429   -0.2395   -1.5670 H   0  0  0  0  0  0  0  0  0  0  0  0
    2.6333    1.8968    0.0082 H   0  0  0  0  0  0  0  0  0  0  0  0
    0.1620    2.4568    0.5957 H   0  0  0  0  0  0  0  0  0  0  0  0
   -0.8898   -0.0867   -2.0530 H   0  0  0  0  0  0  0  0  0  0  0  0
   -1.8538    1.2615   -1.1991 H   0  0  0  0  0  0  0  0  0  0  0  0
   -3.1756   -0.5781   -0.3872 H   0  0  0  0  0  0  0  0  0  0  0  0
   -1.6938   -1.6983   -0.3028 H   0  0  0  0  0  0  0  0  0  0  0  0
   -2.0688    1.0391    1.0663 H   0  0  0  0  0  0  0  0  0  0  0  0
   -1.3885   -0.5155    1.8214 H   0  0  0  0  0  0  0  0  0  0  0  0
    0.3346   -1.5511   -0.8855 H   0  0  0  0  0  0  0  0  0  0  0  0
    0.7250   -1.4106    0.8939 H   0  0  0  0  0  0  0  0  0  0  0  0
  1  2  1  0
  2  3  1  0
  3  4  2  0
  4  5  1  0
  5  6  1  0
  6  7  1  0
  7  8  1  0
  5  9  1  0
  9  2  1  0
  8  5  1  0
  1 10  1  0
  2 11  1  0
  3 12  1  0
  4 13  1  0
  6 14  1  0
  6 15  1  0
  7 16  1  0
  7 17  1  0
  8 18  1  0
  8 19  1  0
  9 20  1  0
  9 21  1  0
M  END
