
     RDKit          3D

 21 22  0  0  0  0  0  0  0  0999 V2000
    3.0301   -0.3179    0.8126 O   0  0  0  0  0  0  0  0  0  0  0  0
    1.7066    0.1673    0.8159 C   0  0  0  0  0  0  0  0  0  0  0  0
    0.8313   -0.9397    1.2429 C   0  0  0  0  0  0  0  0  0  0  0  0
   -0.4127   -1.0635    0.8307 C   0  0  0  0  0  0  0  0  0  0  0  0
   -0.9570   -0.0517   -0.0991 C   0  0  0  0  0  0  0  0  0  0  0  0
    0.0859    0.3019   -1.1004 C   0  0  0  0  0  0  0  0  0  0  0  0
    1.3972    0.7100   -0.5385 C   0  0  0  0  0  0  0  0  0  0  0  0
   -2.0534    0.8249    0.2887 C   0  0  0  0  0  0  0  0  0  0  0  0
   -2.3398   -0.2793   -0.6872 C   0  0  0  0  0  0  0  0  0  0  0  0
    3.2121   -0.7821   -0.0625 H   0  0  0  0  0  0  0  0  0  0  0  0
    1.7089    0.9726    1.6084 H   0  0  0  0  0  0  0  0  0  0  0  0
    1.2039   -1.7024    1.9286 H   0  0  0  0  0  0  0  0  0  0  0  0
   -1.0296   -1.8751    1.1537 H   0  0  0  0  0  0  0  0  0  0  0  0
   -0.2468    1.0920   -1.8151 H   0  0  0  0  0  0  0  0  0  0  0  0
    0.2607   -0.6043   -1.7451 H   0  0  0  0  0  0  0  0  0  0  0  0
    1.4323    1.8370   -0.4867 H   0  0  0  0  0  0  0  0  0  0  0  0
    2.2037    0.4430   -1.2684 H   0  0  0  0  0  0  0  0  0  0  0  0
   -2.5021    0.6347    1.3024 H   0  0  0  0  0  0  0  0  0  0  0  0
   -2.2106    1.8386   -0.0809 H   0  0  0  0  0  0  0  0  0  0  0  0
   -2.5069    0.0182   -1.7582 H   0  0  0  0  0  0  0  0  0  0  0  0
   -2.8139   -1.2241   -0.3417 H   0  0  0  0  0  0  0  0  0  0  0  0
  1  2  1  0
  2  3  1  0
  3  4  2  0
  4  5  1  0
  5  6  1  0
  6  7  1  0
  5  8  1  0
  8  9  1  0
  7  2  1  0
  9  5  1  0
  1 10  1  0
  2 11  1  0
  3 12  1  0
  4 13  1  0
  6 14  1  0
  6 15  1  0
  7 16  1  0
  7 17  1  0
  8 18  1  0
  8 19  1  0
  9 20  1  0
  9 21  1  0
M  END
