
     RDKit          3D

 19 20  0  0  0  0  0  0  0  0999 V2000
    2.2848    1.2885    0.4496 O   0  0  0  0  0  0  0  0  0  0  0  0
    1.3885    0.6350   -0.4336 C   0  0  0  0  0  0  0  0  0  0  0  0
    1.3337   -0.8789   -0.0023 C   0  0  0  0  0  0  0  0  0  0  0  0
    0.0249   -1.4821   -0.0984 C   0  0  0  0  0  0  0  0  0  0  0  0
   -1.2424   -1.1176    0.0028 C   0  0  0  0  0  0  0  0  0  0  0  0
   -1.9646    0.0938    0.2662 C   0  0  0  0  0  0  0  0  0  0  0  0
   -2.4474    0.9213   -0.7382 O   0  0  0  0  0  0  0  0  0  0  0  0
   -1.2776    1.4161   -0.2052 C   0  0  0  0  0  0  0  0  0  0  0  0
    0.0502    1.0122   -0.3311 C   0  0  0  0  0  0  0  0  0  0  0  0
    2.1998    0.8032    1.3088 H   0  0  0  0  0  0  0  0  0  0  0  0
    1.9085    0.7139   -1.4124 H   0  0  0  0  0  0  0  0  0  0  0  0
    1.7241   -0.9311    1.0427 H   0  0  0  0  0  0  0  0  0  0  0  0
    2.0844   -1.3871   -0.6351 H   0  0  0  0  0  0  0  0  0  0  0  0
    0.1404   -2.5780   -0.3234 H   0  0  0  0  0  0  0  0  0  0  0  0
   -1.9519   -1.9736   -0.1587 H   0  0  0  0  0  0  0  0  0  0  0  0
   -2.5746    0.2041    1.2074 H   0  0  0  0  0  0  0  0  0  0  0  0
   -1.5286    2.3386    0.4087 H   0  0  0  0  0  0  0  0  0  0  0  0
   -0.2146    0.2247   -1.1240 H   0  0  0  0  0  0  0  0  0  0  0  0
    0.0625    0.6968    0.7761 H   0  0  0  0  0  0  0  0  0  0  0  0
  1  2  1  0
  2  3  1  0
  3  4  1  0
  4  5  2  0
  5  6  1  0
  6  7  1  0
  7  8  1  0
  8  9  1  0
  9  2  1  0
  8  6  1  0
  1 10  1  0
  2 11  1  0
  3 12  1  0
  3 13  1  0
  4 14  1  0
  5 15  1  0
  6 16  1  0
  8 17  1  0
  9 18  1  0
  9 19  1  0
M  END
