
     RDKit          3D

 19 20  0  0  0  0  0  0  0  0999 V2000
   -1.3351    2.1311    0.2914 O   0  0  0  0  0  0  0  0  0  0  0  0
   -0.4335    1.0915    0.4313 C   0  0  0  0  0  0  0  0  0  0  0  0
    0.4995    0.9608   -0.7551 C   0  0  0  0  0  0  0  0  0  0  0  0
    1.2404   -0.3595   -0.5763 C   0  0  0  0  0  0  0  0  0  0  0  0
    2.4337   -0.1959    0.1099 O   0  0  0  0  0  0  0  0  0  0  0  0
    0.3307   -1.3780    0.0457 C   0  0  0  0  0  0  0  0  0  0  0  0
   -1.0732   -1.1687   -0.4563 C   0  0  0  0  0  0  0  0  0  0  0  0
   -1.0813   -0.2318    0.7120 C   0  0  0  0  0  0  0  0  0  0  0  0
   -0.1026   -1.0477    1.3083 O   0  0  0  0  0  0  0  0  0  0  0  0
   -1.4404    2.6302    1.1545 H   0  0  0  0  0  0  0  0  0  0  0  0
    0.2261    1.3627    1.3035 H   0  0  0  0  0  0  0  0  0  0  0  0
    1.2132    1.8233   -0.8028 H   0  0  0  0  0  0  0  0  0  0  0  0
   -0.0864    0.9720   -1.7049 H   0  0  0  0  0  0  0  0  0  0  0  0
    1.5051   -0.7342   -1.5905 H   0  0  0  0  0  0  0  0  0  0  0  0
    2.4014   -0.5281    1.0429 H   0  0  0  0  0  0  0  0  0  0  0  0
    0.6324   -2.4263   -0.0738 H   0  0  0  0  0  0  0  0  0  0  0  0
   -1.7327   -2.0368   -0.2575 H   0  0  0  0  0  0  0  0  0  0  0  0
   -1.1821   -0.7318   -1.4544 H   0  0  0  0  0  0  0  0  0  0  0  0
   -2.0155   -0.1328    1.2719 H   0  0  0  0  0  0  0  0  0  0  0  0
  1  2  1  0
  2  3  1  0
  3  4  1  0
  4  5  1  0
  4  6  1  0
  6  7  1  0
  7  8  1  0
  8  9  1  0
  8  2  1  0
  9  6  1  0
  1 10  1  0
  2 11  1  0
  3 12  1  0
  3 13  1  0
  4 14  1  0
  5 15  1  0
  6 16  1  0
  7 17  1  0
  7 18  1  0
  8 19  1  0
M  END
