
     RDKit          3D

 21 22  0  0  0  0  0  0  0  0999 V2000
   -1.1872    1.1966   -1.3910 O   0  0  0  0  0  0  0  0  0  0  0  0
   -0.8184    0.9207   -0.0807 C   0  0  0  0  0  0  0  0  0  0  0  0
   -1.9187    0.2779    0.7581 C   0  0  0  0  0  0  0  0  0  0  0  0
   -1.2903   -1.0724    0.4064 C   0  0  0  0  0  0  0  0  0  0  0  0
   -0.0536   -0.3683    0.0583 C   0  0  0  0  0  0  0  0  0  0  0  0
    0.6945   -0.7234   -1.1699 C   0  0  0  0  0  0  0  0  0  0  0  0
    1.9247    0.1003   -1.0098 C   0  0  0  0  0  0  0  0  0  0  0  0
    2.1375    0.3374    0.2791 C   0  0  0  0  0  0  0  0  0  0  0  0
    1.0466   -0.3214    1.0924 C   0  0  0  0  0  0  0  0  0  0  0  0
   -1.2633    2.1814   -1.4638 H   0  0  0  0  0  0  0  0  0  0  0  0
   -0.2717    1.7397    0.4384 H   0  0  0  0  0  0  0  0  0  0  0  0
   -1.7808    0.5580    1.8132 H   0  0  0  0  0  0  0  0  0  0  0  0
   -2.8855    0.4745    0.2959 H   0  0  0  0  0  0  0  0  0  0  0  0
   -1.8347   -1.6174   -0.3735 H   0  0  0  0  0  0  0  0  0  0  0  0
   -1.2814   -1.6902    1.3377 H   0  0  0  0  0  0  0  0  0  0  0  0
    1.0316   -1.7873   -1.1622 H   0  0  0  0  0  0  0  0  0  0  0  0
    0.1688   -0.5216   -2.1116 H   0  0  0  0  0  0  0  0  0  0  0  0
    2.5765    0.4720   -1.7893 H   0  0  0  0  0  0  0  0  0  0  0  0
    2.9244    0.8927    0.7601 H   0  0  0  0  0  0  0  0  0  0  0  0
    0.7331    0.2902    1.9371 H   0  0  0  0  0  0  0  0  0  0  0  0
    1.3479   -1.3393    1.3750 H   0  0  0  0  0  0  0  0  0  0  0  0
  1  2  1  0
  2  3  1  0
  3  4  1  0
  4  5  1  0
  5  6  1  0
  6  7  1  0
  7  8  2  0
  8  9  1  0
  5  2  1  0
  9  5  1  0
  1 10  1  0
  2 11  1  0
  3 12  1  0
  3 13  1  0
  4 14  1  0
  4 15  1  0
  6 16  1  0
  6 17  1  0
  7 18  1  0
  8 19  1  0
  9 20  1  0
  9 21  1  0
M  END
