
     RDKit          3D

 12 12  0  0  0  0  0  0  0  0999 V2000
   -1.1378    1.5944    0.0641 O   0  0  0  0  0  0  0  0  0  0  0  0
   -0.4506    0.6047   -0.6223 C   0  0  0  0  0  0  0  0  0  0  0  0
    0.8385    0.1216   -0.0912 C   0  0  0  0  0  0  0  0  0  0  0  0
    1.8284   -0.3854   -0.9102 O   0  0  0  0  0  0  0  0  0  0  0  0
   -0.4355   -0.7318   -0.0372 C   0  0  0  0  0  0  0  0  0  0  0  0
   -0.8545   -1.0174    1.2447 O   0  0  0  0  0  0  0  0  0  0  0  0
   -0.6987    1.7414    0.9490 H   0  0  0  0  0  0  0  0  0  0  0  0
   -0.5791    0.6927   -1.7341 H   0  0  0  0  0  0  0  0  0  0  0  0
    1.1851    0.5858    0.8557 H   0  0  0  0  0  0  0  0  0  0  0  0
    2.6337   -0.5698   -0.3579 H   0  0  0  0  0  0  0  0  0  0  0  0
   -0.5168   -1.5870   -0.7396 H   0  0  0  0  0  0  0  0  0  0  0  0
   -1.8127   -1.0493    1.3789 H   0  0  0  0  0  0  0  0  0  0  0  0
  1  2  1  0
  2  3  1  0
  3  4  1  0
  3  5  1  0
  5  6  1  0
  5  2  1  0
  1  7  1  0
  2  8  1  0
  3  9  1  0
  4 10  1  0
  5 11  1  0
  6 12  1  0
M  END
