
     RDKit          3D

 17 19  0  0  0  0  0  0  0  0999 V2000
   -0.3469    1.6024   -1.2148 O   0  0  0  0  0  0  0  0  0  0  0  0
   -0.6531    0.9949    0.0234 C   0  0  0  0  0  0  0  0  0  0  0  0
   -1.5531   -0.1790   -0.3046 C   0  0  0  0  0  0  0  0  0  0  0  0
   -0.5679   -1.2928   -0.5178 C   0  0  0  0  0  0  0  0  0  0  0  0
    0.4769   -0.9727   -1.4072 O   0  0  0  0  0  0  0  0  0  0  0  0
    1.3113   -0.5033   -0.3731 C   0  0  0  0  0  0  0  0  0  0  0  0
    0.3964   -1.0537    0.6059 C   0  0  0  0  0  0  0  0  0  0  0  0
    0.6312    0.3801    0.5971 C   0  0  0  0  0  0  0  0  0  0  0  0
    1.2649    0.9931    1.6381 O   0  0  0  0  0  0  0  0  0  0  0  0
    0.2407    2.3650   -1.0873 H   0  0  0  0  0  0  0  0  0  0  0  0
   -1.1047    1.7086    0.7068 H   0  0  0  0  0  0  0  0  0  0  0  0
   -2.0961   -0.4174    0.6535 H   0  0  0  0  0  0  0  0  0  0  0  0
   -2.2271    0.0033   -1.1380 H   0  0  0  0  0  0  0  0  0  0  0  0
   -0.9529   -2.2951   -0.6591 H   0  0  0  0  0  0  0  0  0  0  0  0
    2.3734   -0.7007   -0.3907 H   0  0  0  0  0  0  0  0  0  0  0  0
    0.5938   -1.7574    1.3850 H   0  0  0  0  0  0  0  0  0  0  0  0
    2.2131    1.1247    1.4828 H   0  0  0  0  0  0  0  0  0  0  0  0
  1  2  1  0
  2  3  1  0
  3  4  1  0
  4  5  1  0
  5  6  1  0
  6  7  1  0
  7  8  1  0
  8  9  1  0
  8  2  1  0
  7  4  1  0
  8  6  1  0
  1 10  1  0
  2 11  1  0
  3 12  1  0
  3 13  1  0
  4 14  1  0
  6 15  1  0
  7 16  1  0
  9 17  1  0
M  END
