
     RDKit          3D

 21 22  0  0  0  0  0  0  0  0999 V2000
    2.8849    0.5438   -0.4200 O   0  0  0  0  0  0  0  0  0  0  0  0
    1.6123    0.3262    0.1008 C   0  0  0  0  0  0  0  0  0  0  0  0
    0.6957    1.4330   -0.3361 C   0  0  0  0  0  0  0  0  0  0  0  0
   -0.6587    1.1487    0.2978 C   0  0  0  0  0  0  0  0  0  0  0  0
   -1.1940   -0.1075   -0.2646 C   0  0  0  0  0  0  0  0  0  0  0  0
   -0.2882   -1.2653   -0.3165 C   0  0  0  0  0  0  0  0  0  0  0  0
    1.1538   -1.0277   -0.3183 C   0  0  0  0  0  0  0  0  0  0  0  0
   -2.6256   -0.4390    0.1769 C   0  0  0  0  0  0  0  0  0  0  0  0
   -2.3088    0.0020   -1.0885 O   0  0  0  0  0  0  0  0  0  0  0  0
    2.9221    0.0439   -1.2904 H   0  0  0  0  0  0  0  0  0  0  0  0
    1.7032    0.3936    1.2078 H   0  0  0  0  0  0  0  0  0  0  0  0
    1.1088    2.3843    0.0814 H   0  0  0  0  0  0  0  0  0  0  0  0
    0.6374    1.5711   -1.4208 H   0  0  0  0  0  0  0  0  0  0  0  0
   -0.4903    1.1213    1.3883 H   0  0  0  0  0  0  0  0  0  0  0  0
   -1.3083    1.9989    0.0446 H   0  0  0  0  0  0  0  0  0  0  0  0
   -0.5533   -1.9558    0.5378 H   0  0  0  0  0  0  0  0  0  0  0  0
   -0.5567   -1.8727   -1.2319 H   0  0  0  0  0  0  0  0  0  0  0  0
    1.6853   -1.7734    0.3439 H   0  0  0  0  0  0  0  0  0  0  0  0
    1.5997   -1.2234   -1.3380 H   0  0  0  0  0  0  0  0  0  0  0  0
   -3.1063    0.2211    0.9133 H   0  0  0  0  0  0  0  0  0  0  0  0
   -2.9131   -1.5229    0.2037 H   0  0  0  0  0  0  0  0  0  0  0  0
  1  2  1  0
  2  3  1  0
  3  4  1  0
  4  5  1  0
  5  6  1  0
  6  7  1  0
  5  8  1  0
  8  9  1  0
  7  2  1  0
  9  5  1  0
  1 10  1  0
  2 11  1  0
  3 12  1  0
  3 13  1  0
  4 14  1  0
  4 15  1  0
  6 16  1  0
  6 17  1  0
  7 18  1  0
  7 19  1  0
  8 20  1  0
  8 21  1  0
M  END
