
     RDKit          3D

 19 21  0  0  0  0  0  0  0  0999 V2000
    2.7831   -0.1364   -0.3541 O   0  0  0  0  0  0  0  0  0  0  0  0
    1.5119   -0.3843    0.1928 C   0  0  0  0  0  0  0  0  0  0  0  0
    0.5371   -0.6487   -0.9163 C   0  0  0  0  0  0  0  0  0  0  0  0
    0.7600    0.7158   -1.2392 O   0  0  0  0  0  0  0  0  0  0  0  0
    0.7148    0.8952    0.1722 C   0  0  0  0  0  0  0  0  0  0  0  0
   -0.6676    0.7657    0.7156 C   0  0  0  0  0  0  0  0  0  0  0  0
   -1.0434   -0.6924    1.0202 C   0  0  0  0  0  0  0  0  0  0  0  0
   -0.8699   -0.8393   -0.4900 C   0  0  0  0  0  0  0  0  0  0  0  0
   -1.5802    0.5316   -0.5071 C   0  0  0  0  0  0  0  0  0  0  0  0
    3.0608    0.8028   -0.2401 H   0  0  0  0  0  0  0  0  0  0  0  0
    1.5285   -0.9919    1.0648 H   0  0  0  0  0  0  0  0  0  0  0  0
    0.8592   -1.3585   -1.6722 H   0  0  0  0  0  0  0  0  0  0  0  0
    1.2638    1.8132    0.4347 H   0  0  0  0  0  0  0  0  0  0  0  0
   -1.0270    1.4975    1.4215 H   0  0  0  0  0  0  0  0  0  0  0  0
   -0.3928   -1.2472    1.6611 H   0  0  0  0  0  0  0  0  0  0  0  0
   -2.0908   -0.7517    1.3314 H   0  0  0  0  0  0  0  0  0  0  0  0
   -1.4666   -1.6111   -0.9631 H   0  0  0  0  0  0  0  0  0  0  0  0
   -1.2405    1.1449   -1.3524 H   0  0  0  0  0  0  0  0  0  0  0  0
   -2.6403    0.4947   -0.2798 H   0  0  0  0  0  0  0  0  0  0  0  0
  1  2  1  0
  2  3  1  0
  3  4  1  0
  4  5  1  0
  5  6  1  0
  6  7  1  0
  7  8  1  0
  8  9  1  0
  5  2  1  0
  9  6  1  0
  8  3  1  0
  1 10  1  0
  2 11  1  0
  3 12  1  0
  5 13  1  0
  6 14  1  0
  7 15  1  0
  7 16  1  0
  8 17  1  0
  9 18  1  0
  9 19  1  0
M  END
