
     RDKit          3D

 17 18  0  0  0  0  0  0  0  0999 V2000
    2.1273    0.9952   -1.1213 O   0  0  0  0  0  0  0  0  0  0  0  0
    1.5362   -0.0359   -0.4094 C   0  0  0  0  0  0  0  0  0  0  0  0
    1.0659    0.3280    0.9710 C   0  0  0  0  0  0  0  0  0  0  0  0
    0.1628   -0.0701   -0.1343 C   0  0  0  0  0  0  0  0  0  0  0  0
   -0.7604   -1.2081    0.0661 C   0  0  0  0  0  0  0  0  0  0  0  0
   -1.8287   -0.1428    0.3711 C   0  0  0  0  0  0  0  0  0  0  0  0
   -0.9544    0.7969   -0.4748 C   0  0  0  0  0  0  0  0  0  0  0  0
    2.8571    0.6891   -1.7228 H   0  0  0  0  0  0  0  0  0  0  0  0
    2.1179   -0.9973   -0.4965 H   0  0  0  0  0  0  0  0  0  0  0  0
    1.1473   -0.4029    1.7951 H   0  0  0  0  0  0  0  0  0  0  0  0
    1.0097    1.4018    1.2659 H   0  0  0  0  0  0  0  0  0  0  0  0
   -0.5292   -1.8637    0.9265 H   0  0  0  0  0  0  0  0  0  0  0  0
   -1.0161   -1.8357   -0.8059 H   0  0  0  0  0  0  0  0  0  0  0  0
   -2.8103   -0.3532   -0.0388 H   0  0  0  0  0  0  0  0  0  0  0  0
   -1.7641    0.1257    1.4460 H   0  0  0  0  0  0  0  0  0  0  0  0
   -0.9927    1.8214   -0.1158 H   0  0  0  0  0  0  0  0  0  0  0  0
   -1.3684    0.7517   -1.5223 H   0  0  0  0  0  0  0  0  0  0  0  0
  1  2  1  0
  2  3  1  0
  3  4  1  0
  4  5  1  0
  5  6  1  0
  6  7  1  0
  4  2  1  0
  7  4  1  0
  1  8  1  0
  2  9  1  0
  3 10  1  0
  3 11  1  0
  5 12  1  0
  5 13  1  0
  6 14  1  0
  6 15  1  0
  7 16  1  0
  7 17  1  0
M  END
