
     RDKit          3D

 17 18  0  0  0  0  0  0  0  0999 V2000
   -2.7804   -0.8719    0.2263 O   0  0  0  0  0  0  0  0  0  0  0  0
   -1.6497   -0.2075   -0.1895 C   0  0  0  0  0  0  0  0  0  0  0  0
   -1.0603    0.8843    0.7032 C   0  0  0  0  0  0  0  0  0  0  0  0
   -0.3543   -0.4023    0.6184 C   0  0  0  0  0  0  0  0  0  0  0  0
    0.8508   -0.6282   -0.2240 C   0  0  0  0  0  0  0  0  0  0  0  0
    1.3282    0.3578   -1.2199 C   0  0  0  0  0  0  0  0  0  0  0  0
    2.0423    0.2710    0.1064 C   0  0  0  0  0  0  0  0  0  0  0  0
   -2.6260   -1.4914    0.9712 H   0  0  0  0  0  0  0  0  0  0  0  0
   -1.5599   -0.0908   -1.2860 H   0  0  0  0  0  0  0  0  0  0  0  0
   -1.6797    1.0870    1.5827 H   0  0  0  0  0  0  0  0  0  0  0  0
   -0.7563    1.7852    0.1418 H   0  0  0  0  0  0  0  0  0  0  0  0
   -0.4429   -1.0693    1.5154 H   0  0  0  0  0  0  0  0  0  0  0  0
    1.0907   -1.7135   -0.3829 H   0  0  0  0  0  0  0  0  0  0  0  0
    1.9210   -0.0161   -2.0709 H   0  0  0  0  0  0  0  0  0  0  0  0
    0.7401    1.2624   -1.4683 H   0  0  0  0  0  0  0  0  0  0  0  0
    3.0398   -0.2396    0.1422 H   0  0  0  0  0  0  0  0  0  0  0  0
    1.8967    1.0828    0.8341 H   0  0  0  0  0  0  0  0  0  0  0  0
  1  2  1  0
  2  3  1  0
  3  4  1  0
  4  5  1  0
  5  6  1  0
  6  7  1  0
  4  2  1  0
  7  5  1  0
  1  8  1  0
  2  9  1  0
  3 10  1  0
  3 11  1  0
  4 12  1  0
  5 13  1  0
  6 14  1  0
  6 15  1  0
  7 16  1  0
  7 17  1  0
M  END
