
     RDKit          3D

 19 20  0  0  0  0  0  0  0  0999 V2000
    1.8043    0.6235   -1.2655 O   0  0  0  0  0  0  0  0  0  0  0  0
    1.4297   -0.2782   -0.2707 C   0  0  0  0  0  0  0  0  0  0  0  0
    0.4421   -1.2711   -0.8587 C   0  0  0  0  0  0  0  0  0  0  0  0
   -0.6688   -0.6405   -0.0907 C   0  0  0  0  0  0  0  0  0  0  0  0
   -1.3820   -1.5624    0.6288 O   0  0  0  0  0  0  0  0  0  0  0  0
   -1.5307    0.3453   -0.8322 C   0  0  0  0  0  0  0  0  0  0  0  0
   -0.6453    1.4041   -1.0352 O   0  0  0  0  0  0  0  0  0  0  0  0
   -0.1061    1.6055    0.2474 C   0  0  0  0  0  0  0  0  0  0  0  0
    0.3154    0.2077    0.6376 C   0  0  0  0  0  0  0  0  0  0  0  0
    2.6770    1.0450   -1.1058 H   0  0  0  0  0  0  0  0  0  0  0  0
    2.2613   -0.7264    0.3038 H   0  0  0  0  0  0  0  0  0  0  0  0
    0.7188   -2.2888   -0.5446 H   0  0  0  0  0  0  0  0  0  0  0  0
    0.3335   -1.2291   -1.9598 H   0  0  0  0  0  0  0  0  0  0  0  0
   -1.8088   -2.1853   -0.0421 H   0  0  0  0  0  0  0  0  0  0  0  0
   -2.3320    0.6656   -0.1237 H   0  0  0  0  0  0  0  0  0  0  0  0
   -1.9234   -0.0302   -1.7859 H   0  0  0  0  0  0  0  0  0  0  0  0
    0.7918    2.2365    0.1816 H   0  0  0  0  0  0  0  0  0  0  0  0
   -0.8358    2.0541    0.9288 H   0  0  0  0  0  0  0  0  0  0  0  0
    0.4589    0.0248    1.7102 H   0  0  0  0  0  0  0  0  0  0  0  0
  1  2  1  0
  2  3  1  0
  3  4  1  0
  4  5  1  0
  4  6  1  0
  6  7  1  0
  7  8  1  0
  8  9  1  0
  9  2  1  0
  9  4  1  0
  1 10  1  0
  2 11  1  0
  3 12  1  0
  3 13  1  0
  5 14  1  0
  6 15  1  0
  6 16  1  0
  8 17  1  0
  8 18  1  0
  9 19  1  0
M  END
