
     RDKit          3D

 19 20  0  0  0  0  0  0  0  0999 V2000
    1.6833   -0.5436    1.0622 O   0  0  0  0  0  0  0  0  0  0  0  0
    1.1814   -0.6505   -0.2078 C   0  0  0  0  0  0  0  0  0  0  0  0
    0.0076   -1.5916   -0.2328 C   0  0  0  0  0  0  0  0  0  0  0  0
   -0.7769   -1.2166    0.8838 O   0  0  0  0  0  0  0  0  0  0  0  0
   -1.7009   -0.2966    0.3921 C   0  0  0  0  0  0  0  0  0  0  0  0
   -1.2621    1.1117    0.4547 C   0  0  0  0  0  0  0  0  0  0  0  0
   -0.1183    1.2710    1.3713 O   0  0  0  0  0  0  0  0  0  0  0  0
   -0.0291    1.5448    0.0078 C   0  0  0  0  0  0  0  0  0  0  0  0
    0.8671    0.6963   -0.8177 C   0  0  0  0  0  0  0  0  0  0  0  0
    2.6589   -0.2989    1.0785 H   0  0  0  0  0  0  0  0  0  0  0  0
    1.9666   -1.1096   -0.8751 H   0  0  0  0  0  0  0  0  0  0  0  0
    0.3753   -2.6164   -0.0642 H   0  0  0  0  0  0  0  0  0  0  0  0
   -0.5847   -1.5025   -1.1673 H   0  0  0  0  0  0  0  0  0  0  0  0
   -2.0434   -0.6182   -0.6321 H   0  0  0  0  0  0  0  0  0  0  0  0
   -2.6212   -0.4359    1.0295 H   0  0  0  0  0  0  0  0  0  0  0  0
   -2.0859    1.8433    0.6593 H   0  0  0  0  0  0  0  0  0  0  0  0
    0.1007    2.6434   -0.1951 H   0  0  0  0  0  0  0  0  0  0  0  0
    0.5268    0.5527   -1.8579 H   0  0  0  0  0  0  0  0  0  0  0  0
    1.8548    1.2173   -0.8890 H   0  0  0  0  0  0  0  0  0  0  0  0
  1  2  1  0
  2  3  1  0
  3  4  1  0
  4  5  1  0
  5  6  1  0
  6  7  1  0
  7  8  1  0
  8  9  1  0
  9  2  1  0
  8  6  1  0
  1 10  1  0
  2 11  1  0
  3 12  1  0
  3 13  1  0
  5 14  1  0
  5 15  1  0
  6 16  1  0
  8 17  1  0
  9 18  1  0
  9 19  1  0
M  END
