
     RDKit          3D

 19 21  0  0  0  0  0  0  0  0999 V2000
    2.3465    0.2113    0.3476 O   0  0  0  0  0  0  0  0  0  0  0  0
    1.2180    0.5898   -0.4177 C   0  0  0  0  0  0  0  0  0  0  0  0
    0.5218    1.6287    0.3337 C   0  0  0  0  0  0  0  0  0  0  0  0
   -0.7662    1.5612    0.5974 C   0  0  0  0  0  0  0  0  0  0  0  0
   -1.6050    0.4363    0.1572 C   0  0  0  0  0  0  0  0  0  0  0  0
   -1.2758   -0.9622    0.5083 C   0  0  0  0  0  0  0  0  0  0  0  0
    0.1526   -1.4295    0.5599 C   0  0  0  0  0  0  0  0  0  0  0  0
    0.4422   -0.6476   -0.6876 C   0  0  0  0  0  0  0  0  0  0  0  0
   -1.0194   -0.4187   -0.8928 C   0  0  0  0  0  0  0  0  0  0  0  0
    3.0456   -0.0908   -0.3124 H   0  0  0  0  0  0  0  0  0  0  0  0
    1.5526    1.0394   -1.3841 H   0  0  0  0  0  0  0  0  0  0  0  0
    1.0849    2.4813    0.6845 H   0  0  0  0  0  0  0  0  0  0  0  0
   -1.2206    2.3656    1.1595 H   0  0  0  0  0  0  0  0  0  0  0  0
   -2.6844    0.6556    0.0447 H   0  0  0  0  0  0  0  0  0  0  0  0
   -2.0794   -1.6815    0.6601 H   0  0  0  0  0  0  0  0  0  0  0  0
    0.7204   -1.1432    1.4653 H   0  0  0  0  0  0  0  0  0  0  0  0
    0.1985   -2.5245    0.3846 H   0  0  0  0  0  0  0  0  0  0  0  0
    0.9352   -1.2565   -1.4681 H   0  0  0  0  0  0  0  0  0  0  0  0
   -1.5677   -0.8144   -1.7401 H   0  0  0  0  0  0  0  0  0  0  0  0
  1  2  1  0
  2  3  1  0
  3  4  2  0
  4  5  1  0
  5  6  1  0
  6  7  1  0
  7  8  1  0
  8  9  1  0
  8  2  1  0
  9  5  1  0
  9  6  1  0
  1 10  1  0
  2 11  1  0
  3 12  1  0
  4 13  1  0
  5 14  1  0
  6 15  1  0
  7 16  1  0
  7 17  1  0
  8 18  1  0
  9 19  1  0
M  END
