
     RDKit          3D

 19 20  0  0  0  0  0  0  0  0999 V2000
    2.3209   -1.0910    0.5987 O   0  0  0  0  0  0  0  0  0  0  0  0
    1.2579   -0.8329   -0.2734 C   0  0  0  0  0  0  0  0  0  0  0  0
    1.5163    0.4762   -0.9051 C   0  0  0  0  0  0  0  0  0  0  0  0
    0.7238    1.3697   -0.3843 C   0  0  0  0  0  0  0  0  0  0  0  0
   -0.1574    0.7770    0.6523 C   0  0  0  0  0  0  0  0  0  0  0  0
   -1.5607    1.1305    0.2867 C   0  0  0  0  0  0  0  0  0  0  0  0
   -2.1628    0.1245   -0.3191 C   0  0  0  0  0  0  0  0  0  0  0  0
   -1.2338   -1.0250   -0.4322 C   0  0  0  0  0  0  0  0  0  0  0  0
   -0.0536   -0.7182    0.4443 C   0  0  0  0  0  0  0  0  0  0  0  0
    3.1462   -0.6269    0.2593 H   0  0  0  0  0  0  0  0  0  0  0  0
    1.2381   -1.6620   -1.0080 H   0  0  0  0  0  0  0  0  0  0  0  0
    2.2595    0.6976   -1.7002 H   0  0  0  0  0  0  0  0  0  0  0  0
    0.6520    2.4447   -0.6238 H   0  0  0  0  0  0  0  0  0  0  0  0
    0.0769    1.0962    1.6700 H   0  0  0  0  0  0  0  0  0  0  0  0
   -1.9698    2.1194    0.5237 H   0  0  0  0  0  0  0  0  0  0  0  0
   -3.1864    0.1634   -0.6703 H   0  0  0  0  0  0  0  0  0  0  0  0
   -1.8053   -1.9228   -0.0576 H   0  0  0  0  0  0  0  0  0  0  0  0
   -0.9682   -1.2392   -1.4765 H   0  0  0  0  0  0  0  0  0  0  0  0
   -0.0934   -1.2813    1.3811 H   0  0  0  0  0  0  0  0  0  0  0  0
  1  2  1  0
  2  3  1  0
  3  4  2  0
  4  5  1  0
  5  6  1  0
  6  7  2  0
  7  8  1  0
  8  9  1  0
  9  2  1  0
  9  5  1  0
  1 10  1  0
  2 11  1  0
  3 12  1  0
  4 13  1  0
  5 14  1  0
  6 15  1  0
  7 16  1  0
  8 17  1  0
  8 18  1  0
  9 19  1  0
M  END
