
     RDKit          3D

 20 21  0  0  0  0  0  0  0  0999 V2000
    1.5836   -1.5780   -0.4568 O   0  0  0  0  0  0  0  0  0  0  0  0
    0.9143   -0.8533    0.5044 C   0  0  0  0  0  0  0  0  0  0  0  0
    1.3855    0.5964    0.3709 C   0  0  0  0  0  0  0  0  0  0  0  0
    0.4864    1.3084   -0.6202 C   0  0  0  0  0  0  0  0  0  0  0  0
   -0.9497    0.9144   -0.4304 C   0  0  0  0  0  0  0  0  0  0  0  0
   -1.1002   -0.5266   -0.9408 C   0  0  0  0  0  0  0  0  0  0  0  0
   -0.5816   -0.9520    0.4130 C   0  0  0  0  0  0  0  0  0  0  0  0
   -1.1713    0.3562    0.9555 C   0  0  0  0  0  0  0  0  0  0  0  0
    1.1396   -2.3858   -0.7622 H   0  0  0  0  0  0  0  0  0  0  0  0
    1.1974   -1.1923    1.5303 H   0  0  0  0  0  0  0  0  0  0  0  0
    1.3640    1.0924    1.3648 H   0  0  0  0  0  0  0  0  0  0  0  0
    2.4386    0.5823    0.0436 H   0  0  0  0  0  0  0  0  0  0  0  0
    0.6348    2.4058   -0.4855 H   0  0  0  0  0  0  0  0  0  0  0  0
    0.8123    1.0549   -1.6602 H   0  0  0  0  0  0  0  0  0  0  0  0
   -1.6944    1.6099   -0.8089 H   0  0  0  0  0  0  0  0  0  0  0  0
   -0.4593   -0.7484   -1.7981 H   0  0  0  0  0  0  0  0  0  0  0  0
   -2.1607   -0.8465   -1.0559 H   0  0  0  0  0  0  0  0  0  0  0  0
   -1.0011   -1.8610    0.8392 H   0  0  0  0  0  0  0  0  0  0  0  0
   -2.2221    0.2091    1.2281 H   0  0  0  0  0  0  0  0  0  0  0  0
   -0.6160    0.8141    1.7691 H   0  0  0  0  0  0  0  0  0  0  0  0
  1  2  1  0
  2  3  1  0
  3  4  1  0
  4  5  1  0
  5  6  1  0
  6  7  1  0
  7  8  1  0
  7  2  1  0
  8  5  1  0
  1  9  1  0
  2 10  1  0
  3 11  1  0
  3 12  1  0
  4 13  1  0
  4 14  1  0
  5 15  1  0
  6 16  1  0
  6 17  1  0
  7 18  1  0
  8 19  1  0
  8 20  1  0
M  END
