
     RDKit          3D

 19 21  0  0  0  0  0  0  0  0999 V2000
    2.4718    0.1125   -0.3680 O   0  0  0  0  0  0  0  0  0  0  0  0
    1.1185    0.3234   -0.5439 C   0  0  0  0  0  0  0  0  0  0  0  0
    0.4382    0.5199    0.8129 C   0  0  0  0  0  0  0  0  0  0  0  0
    0.7480   -0.9864    0.9514 C   0  0  0  0  0  0  0  0  0  0  0  0
    0.3093   -0.9775   -0.5297 C   0  0  0  0  0  0  0  0  0  0  0  0
   -1.1521   -0.7223   -0.5820 C   0  0  0  0  0  0  0  0  0  0  0  0
   -1.5455    0.7167   -0.7276 C   0  0  0  0  0  0  0  0  0  0  0  0
   -1.0401    0.6872    0.6923 C   0  0  0  0  0  0  0  0  0  0  0  0
   -1.6661   -0.5886    0.7370 O   0  0  0  0  0  0  0  0  0  0  0  0
    2.8839    1.0284   -0.2716 H   0  0  0  0  0  0  0  0  0  0  0  0
    0.9169    1.0318   -1.3171 H   0  0  0  0  0  0  0  0  0  0  0  0
    0.9767    1.1265    1.5268 H   0  0  0  0  0  0  0  0  0  0  0  0
    1.7983   -1.2163    1.1085 H   0  0  0  0  0  0  0  0  0  0  0  0
    0.0164   -1.4318    1.6299 H   0  0  0  0  0  0  0  0  0  0  0  0
    0.7258   -1.7963   -1.1008 H   0  0  0  0  0  0  0  0  0  0  0  0
   -1.7554   -1.3846   -1.2128 H   0  0  0  0  0  0  0  0  0  0  0  0
   -1.0810    1.3441   -1.4508 H   0  0  0  0  0  0  0  0  0  0  0  0
   -2.6499    0.8063   -0.7207 H   0  0  0  0  0  0  0  0  0  0  0  0
   -1.5136    1.4069    1.3660 H   0  0  0  0  0  0  0  0  0  0  0  0
  1  2  1  0
  2  3  1  0
  3  4  1  0
  4  5  1  0
  5  6  1  0
  6  7  1  0
  7  8  1  0
  8  9  1  0
  5  2  1  0
  9  6  1  0
  8  3  1  0
  1 10  1  0
  2 11  1  0
  3 12  1  0
  4 13  1  0
  4 14  1  0
  5 15  1  0
  6 16  1  0
  7 17  1  0
  7 18  1  0
  8 19  1  0
M  END
