
     RDKit          3D

 19 21  0  0  0  0  0  0  0  0999 V2000
    1.1182    1.8390   -0.4991 O   0  0  0  0  0  0  0  0  0  0  0  0
    1.0948    1.0631    0.6216 C   0  0  0  0  0  0  0  0  0  0  0  0
    2.1586   -0.0842    0.4945 C   0  0  0  0  0  0  0  0  0  0  0  0
    1.3371   -1.0310   -0.3085 C   0  0  0  0  0  0  0  0  0  0  0  0
    0.0566   -0.8729   -0.2299 C   0  0  0  0  0  0  0  0  0  0  0  0
   -1.4233   -1.0016   -0.3957 C   0  0  0  0  0  0  0  0  0  0  0  0
   -2.4260   -0.5154    0.5265 C   0  0  0  0  0  0  0  0  0  0  0  0
   -1.4034    0.4875    0.1245 C   0  0  0  0  0  0  0  0  0  0  0  0
   -0.1243    0.2448    0.8083 C   0  0  0  0  0  0  0  0  0  0  0  0
    0.5297    1.4254   -1.1849 H   0  0  0  0  0  0  0  0  0  0  0  0
    1.3527    1.5630    1.5681 H   0  0  0  0  0  0  0  0  0  0  0  0
    2.4494   -0.4461    1.4675 H   0  0  0  0  0  0  0  0  0  0  0  0
    2.9409    0.3127   -0.1526 H   0  0  0  0  0  0  0  0  0  0  0  0
    1.8188   -1.8121   -0.9257 H   0  0  0  0  0  0  0  0  0  0  0  0
   -1.7925   -1.1254   -1.4548 H   0  0  0  0  0  0  0  0  0  0  0  0
   -3.4387   -0.2944    0.1682 H   0  0  0  0  0  0  0  0  0  0  0  0
   -2.4441   -0.7765    1.6253 H   0  0  0  0  0  0  0  0  0  0  0  0
   -1.5704    1.2495   -0.6233 H   0  0  0  0  0  0  0  0  0  0  0  0
   -0.2342   -0.2252    1.8202 H   0  0  0  0  0  0  0  0  0  0  0  0
  1  2  1  0
  2  3  1  0
  3  4  1  0
  4  5  2  0
  5  6  1  0
  6  7  1  0
  7  8  1  0
  8  9  1  0
  9  2  1  0
  9  5  1  0
  8  6  1  0
  1 10  1  0
  2 11  1  0
  3 12  1  0
  3 13  1  0
  4 14  1  0
  6 15  1  0
  7 16  1  0
  7 17  1  0
  8 18  1  0
  9 19  1  0
M  END
