
     RDKit          3D

 19 20  0  0  0  0  0  0  0  0999 V2000
    0.2050   -1.8675   -1.2528 O   0  0  0  0  0  0  0  0  0  0  0  0
   -0.7405   -1.1059   -0.6213 C   0  0  0  0  0  0  0  0  0  0  0  0
   -0.5814    0.4090   -0.7948 C   0  0  0  0  0  0  0  0  0  0  0  0
    0.8695    0.8195   -0.7381 C   0  0  0  0  0  0  0  0  0  0  0  0
    1.5887    0.1184    0.3516 C   0  0  0  0  0  0  0  0  0  0  0  0
    0.8788   -0.7963    1.0578 O   0  0  0  0  0  0  0  0  0  0  0  0
   -0.4639   -0.8274    0.8640 C   0  0  0  0  0  0  0  0  0  0  0  0
   -1.1082    0.5138    0.6426 C   0  0  0  0  0  0  0  0  0  0  0  0
   -0.5088    1.5915    1.2607 O   0  0  0  0  0  0  0  0  0  0  0  0
    0.4035   -2.6875   -0.7214 H   0  0  0  0  0  0  0  0  0  0  0  0
   -1.7974   -1.3701   -0.7595 H   0  0  0  0  0  0  0  0  0  0  0  0
   -1.1993    0.8632   -1.5538 H   0  0  0  0  0  0  0  0  0  0  0  0
    1.3753    0.7036   -1.7206 H   0  0  0  0  0  0  0  0  0  0  0  0
    0.8568    1.9204   -0.4800 H   0  0  0  0  0  0  0  0  0  0  0  0
    2.0548    0.8342    1.0912 H   0  0  0  0  0  0  0  0  0  0  0  0
    2.4821   -0.4111   -0.0945 H   0  0  0  0  0  0  0  0  0  0  0  0
   -0.9719   -1.5029    1.5559 H   0  0  0  0  0  0  0  0  0  0  0  0
   -2.1952    0.4364    0.7388 H   0  0  0  0  0  0  0  0  0  0  0  0
   -1.1478    2.3588    1.1740 H   0  0  0  0  0  0  0  0  0  0  0  0
  1  2  1  0
  2  3  1  0
  3  4  1  0
  4  5  1  0
  5  6  1  0
  6  7  1  0
  7  8  1  0
  8  9  1  0
  7  2  1  0
  8  3  1  0
  1 10  1  0
  2 11  1  0
  3 12  1  0
  4 13  1  0
  4 14  1  0
  5 15  1  0
  5 16  1  0
  7 17  1  0
  8 18  1  0
  9 19  1  0
M  END
