
     RDKit          3D

 17 19  0  0  0  0  0  0  0  0999 V2000
    2.2835   -1.1597    0.6470 O   0  0  0  0  0  0  0  0  0  0  0  0
    1.1783   -0.3292    0.8987 C   0  0  0  0  0  0  0  0  0  0  0  0
    0.6109    0.3369   -0.2771 C   0  0  0  0  0  0  0  0  0  0  0  0
   -0.2937    1.5245    0.0027 C   0  0  0  0  0  0  0  0  0  0  0  0
   -1.6419    0.8091    0.1263 C   0  0  0  0  0  0  0  0  0  0  0  0
   -1.3127   -0.2816    0.8893 O   0  0  0  0  0  0  0  0  0  0  0  0
   -0.1485   -0.8272    0.4380 C   0  0  0  0  0  0  0  0  0  0  0  0
   -0.1156   -1.5324   -0.9111 C   0  0  0  0  0  0  0  0  0  0  0  0
    0.3172   -0.3106   -1.4548 O   0  0  0  0  0  0  0  0  0  0  0  0
    2.9339   -0.5691    0.1539 H   0  0  0  0  0  0  0  0  0  0  0  0
    1.1742    0.2231    1.8412 H   0  0  0  0  0  0  0  0  0  0  0  0
   -0.2893    2.2358   -0.8371 H   0  0  0  0  0  0  0  0  0  0  0  0
   -0.0339    1.9519    0.9749 H   0  0  0  0  0  0  0  0  0  0  0  0
   -1.9981    0.5698   -0.8875 H   0  0  0  0  0  0  0  0  0  0  0  0
   -2.3081    1.5085    0.6473 H   0  0  0  0  0  0  0  0  0  0  0  0
   -1.0838   -1.8902   -1.2480 H   0  0  0  0  0  0  0  0  0  0  0  0
    0.7275   -2.2596   -1.0039 H   0  0  0  0  0  0  0  0  0  0  0  0
  1  2  1  0
  2  3  1  0
  3  4  1  0
  4  5  1  0
  5  6  1  0
  6  7  1  0
  7  8  1  0
  8  9  1  0
  7  2  1  0
  7  3  1  0
  9  3  1  0
  1 10  1  0
  2 11  1  0
  4 12  1  0
  4 13  1  0
  5 14  1  0
  5 15  1  0
  8 16  1  0
  8 17  1  0
M  END
