
     RDKit          3D

 19 21  0  0  0  0  0  0  0  0999 V2000
    2.4081   -0.0816    0.4315 O   0  0  0  0  0  0  0  0  0  0  0  0
    1.1619    0.1185   -0.1413 C   0  0  0  0  0  0  0  0  0  0  0  0
    0.4493    1.2699    0.4975 C   0  0  0  0  0  0  0  0  0  0  0  0
   -1.0149    0.8461    0.4501 C   0  0  0  0  0  0  0  0  0  0  0  0
   -1.4630    0.4736   -0.9451 C   0  0  0  0  0  0  0  0  0  0  0  0
   -1.0686   -0.9538   -0.6327 C   0  0  0  0  0  0  0  0  0  0  0  0
   -0.8902   -0.6105    0.7707 C   0  0  0  0  0  0  0  0  0  0  0  0
    0.2605   -1.1001    0.0157 C   0  0  0  0  0  0  0  0  0  0  0  0
    0.8220   -2.3325    0.2596 O   0  0  0  0  0  0  0  0  0  0  0  0
    2.9903    0.6577    0.0928 H   0  0  0  0  0  0  0  0  0  0  0  0
    1.2793    0.3719   -1.2293 H   0  0  0  0  0  0  0  0  0  0  0  0
    0.5868    2.2254   -0.0136 H   0  0  0  0  0  0  0  0  0  0  0  0
    0.7310    1.2841    1.5730 H   0  0  0  0  0  0  0  0  0  0  0  0
   -1.7021    1.4447    1.0444 H   0  0  0  0  0  0  0  0  0  0  0  0
   -0.7563    0.9190   -1.6931 H   0  0  0  0  0  0  0  0  0  0  0  0
   -2.5093    0.6440   -1.1879 H   0  0  0  0  0  0  0  0  0  0  0  0
   -1.7019   -1.7888   -0.9075 H   0  0  0  0  0  0  0  0  0  0  0  0
   -1.3515   -1.0755    1.6211 H   0  0  0  0  0  0  0  0  0  0  0  0
    1.7684   -2.3121   -0.0060 H   0  0  0  0  0  0  0  0  0  0  0  0
  1  2  1  0
  2  3  1  0
  3  4  1  0
  4  5  1  0
  5  6  1  0
  6  7  1  0
  7  8  1  0
  8  9  1  0
  8  2  1  0
  7  4  1  0
  8  6  1  0
  1 10  1  0
  2 11  1  0
  3 12  1  0
  3 13  1  0
  4 14  1  0
  5 15  1  0
  5 16  1  0
  6 17  1  0
  7 18  1  0
  9 19  1  0
M  END
