
     RDKit          3D

 18 19  0  0  0  0  0  0  0  0999 V2000
    1.9278    1.5114   -0.4661 O   0  0  0  0  0  0  0  0  0  0  0  0
    1.0101    0.6880    0.1782 C   0  0  0  0  0  0  0  0  0  0  0  0
    1.5569   -0.6501    0.4753 C   0  0  0  0  0  0  0  0  0  0  0  0
    0.6418   -1.5574    0.1745 C   0  0  0  0  0  0  0  0  0  0  0  0
   -0.6020   -0.9498   -0.3507 C   0  0  0  0  0  0  0  0  0  0  0  0
   -1.5174   -0.2810    0.6182 C   0  0  0  0  0  0  0  0  0  0  0  0
   -1.4705    0.9484   -0.2842 C   0  0  0  0  0  0  0  0  0  0  0  0
   -0.1181    0.4423   -0.7530 C   0  0  0  0  0  0  0  0  0  0  0  0
    2.8707    1.2656   -0.2639 H   0  0  0  0  0  0  0  0  0  0  0  0
    0.6878    1.1162    1.1570 H   0  0  0  0  0  0  0  0  0  0  0  0
    2.5390   -0.9179    0.8757 H   0  0  0  0  0  0  0  0  0  0  0  0
    0.7859   -2.6497    0.2999 H   0  0  0  0  0  0  0  0  0  0  0  0
   -1.0934   -1.5108   -1.1779 H   0  0  0  0  0  0  0  0  0  0  0  0
   -2.5709   -0.6688    0.6030 H   0  0  0  0  0  0  0  0  0  0  0  0
   -1.0869   -0.1270    1.6168 H   0  0  0  0  0  0  0  0  0  0  0  0
   -2.1908    0.8724   -1.1244 H   0  0  0  0  0  0  0  0  0  0  0  0
   -1.4720    1.9087    0.2335 H   0  0  0  0  0  0  0  0  0  0  0  0
    0.1020    0.5594   -1.8121 H   0  0  0  0  0  0  0  0  0  0  0  0
  1  2  1  0
  2  3  1  0
  3  4  2  0
  4  5  1  0
  5  6  1  0
  6  7  1  0
  7  8  1  0
  8  2  1  0
  8  5  1  0
  1  9  1  0
  2 10  1  0
  3 11  1  0
  4 12  1  0
  5 13  1  0
  6 14  1  0
  6 15  1  0
  7 16  1  0
  7 17  1  0
  8 18  1  0
M  END
