
     RDKit          3D

 19 21  0  0  0  0  0  0  0  0999 V2000
    2.4292   -0.6263   -0.6930 O   0  0  0  0  0  0  0  0  0  0  0  0
    1.1432   -0.7877   -0.2616 C   0  0  0  0  0  0  0  0  0  0  0  0
    0.7425    0.0952    0.9328 C   0  0  0  0  0  0  0  0  0  0  0  0
    0.7750    1.2303   -0.0981 C   0  0  0  0  0  0  0  0  0  0  0  0
    0.1899    0.1618   -1.0059 C   0  0  0  0  0  0  0  0  0  0  0  0
   -1.1199   -0.2373   -0.4109 C   0  0  0  0  0  0  0  0  0  0  0  0
   -1.6389   -1.4415   -0.8744 O   0  0  0  0  0  0  0  0  0  0  0  0
   -1.8007    0.5542    0.6293 C   0  0  0  0  0  0  0  0  0  0  0  0
   -0.6899   -0.2739    1.1013 C   0  0  0  0  0  0  0  0  0  0  0  0
    3.0271   -0.1805   -0.0715 H   0  0  0  0  0  0  0  0  0  0  0  0
    0.7598   -1.7954   -0.1119 H   0  0  0  0  0  0  0  0  0  0  0  0
    1.4105    0.1461    1.7504 H   0  0  0  0  0  0  0  0  0  0  0  0
    1.8143    1.4640   -0.3395 H   0  0  0  0  0  0  0  0  0  0  0  0
    0.1420    2.0806    0.1297 H   0  0  0  0  0  0  0  0  0  0  0  0
    0.3151    0.2540   -2.0555 H   0  0  0  0  0  0  0  0  0  0  0  0
   -2.0094   -1.2580   -1.7728 H   0  0  0  0  0  0  0  0  0  0  0  0
   -1.7897    1.6602    0.6201 H   0  0  0  0  0  0  0  0  0  0  0  0
   -2.8228    0.1661    0.9016 H   0  0  0  0  0  0  0  0  0  0  0  0
   -0.8774   -1.2120    1.6297 H   0  0  0  0  0  0  0  0  0  0  0  0
  1  2  1  0
  2  3  1  0
  3  4  1  0
  4  5  1  0
  5  6  1  0
  6  7  1  0
  6  8  1  0
  8  9  1  0
  5  2  1  0
  9  6  1  0
  9  3  1  0
  1 10  1  0
  2 11  1  0
  3 12  1  0
  4 13  1  0
  4 14  1  0
  5 15  1  0
  7 16  1  0
  8 17  1  0
  8 18  1  0
  9 19  1  0
M  END
