
     RDKit          3D

 21 22  0  0  0  0  0  0  0  0999 V2000
    1.9519    1.1859    1.4653 O   0  0  0  0  0  0  0  0  0  0  0  0
    2.1186    0.6589    0.1924 C   0  0  0  0  0  0  0  0  0  0  0  0
    2.0451   -0.7954   -0.0549 C   0  0  0  0  0  0  0  0  0  0  0  0
    2.8374   -1.3761   -1.0471 O   0  0  0  0  0  0  0  0  0  0  0  0
    0.9241    0.0591   -0.5229 C   0  0  0  0  0  0  0  0  0  0  0  0
   -0.3574    0.1403    0.2832 C   0  0  0  0  0  0  0  0  0  0  0  0
   -1.5248   -0.4595   -0.4455 C   0  0  0  0  0  0  0  0  0  0  0  0
   -2.8405   -0.4573    0.2058 C   0  0  0  0  0  0  0  0  0  0  0  0
   -2.6147    0.5732   -0.8262 C   0  0  0  0  0  0  0  0  0  0  0  0
    2.5869    0.8004    2.1100 H   0  0  0  0  0  0  0  0  0  0  0  0
    2.7707    1.3111   -0.4520 H   0  0  0  0  0  0  0  0  0  0  0  0
    1.9136   -1.4625    0.8267 H   0  0  0  0  0  0  0  0  0  0  0  0
    3.4626   -0.7127   -1.4094 H   0  0  0  0  0  0  0  0  0  0  0  0
    0.8154    0.2302   -1.6132 H   0  0  0  0  0  0  0  0  0  0  0  0
   -0.5119    1.2224    0.5060 H   0  0  0  0  0  0  0  0  0  0  0  0
   -0.1697   -0.3576    1.2520 H   0  0  0  0  0  0  0  0  0  0  0  0
   -1.3544   -1.2636   -1.1937 H   0  0  0  0  0  0  0  0  0  0  0  0
   -2.9060   -0.1610    1.2747 H   0  0  0  0  0  0  0  0  0  0  0  0
   -3.6126   -1.2298   -0.0614 H   0  0  0  0  0  0  0  0  0  0  0  0
   -3.0585    0.4870   -1.8334 H   0  0  0  0  0  0  0  0  0  0  0  0
   -2.4758    1.6070   -0.4845 H   0  0  0  0  0  0  0  0  0  0  0  0
  1  2  1  0
  2  3  1  0
  3  4  1  0
  3  5  1  0
  5  6  1  0
  6  7  1  0
  7  8  1  0
  8  9  1  0
  5  2  1  0
  9  7  1  0
  1 10  1  0
  2 11  1  0
  3 12  1  0
  4 13  1  0
  5 14  1  0
  6 15  1  0
  6 16  1  0
  7 17  1  0
  8 18  1  0
  8 19  1  0
  9 20  1  0
  9 21  1  0
M  END
