
     RDKit          3D

 19 21  0  0  0  0  0  0  0  0999 V2000
    1.9629   -0.7766   -1.1282 O   0  0  0  0  0  0  0  0  0  0  0  0
    1.2699   -0.5514    0.0388 C   0  0  0  0  0  0  0  0  0  0  0  0
    0.9777    0.9455    0.2496 C   0  0  0  0  0  0  0  0  0  0  0  0
    1.4782    1.6660   -0.8177 O   0  0  0  0  0  0  0  0  0  0  0  0
   -0.5246    0.9146    0.2509 C   0  0  0  0  0  0  0  0  0  0  0  0
   -0.9294   -0.3199    1.0000 C   0  0  0  0  0  0  0  0  0  0  0  0
   -2.0852   -0.4109    0.0525 C   0  0  0  0  0  0  0  0  0  0  0  0
   -0.9314   -0.0322   -0.8319 C   0  0  0  0  0  0  0  0  0  0  0  0
   -0.1412   -1.0533   -0.0507 C   0  0  0  0  0  0  0  0  0  0  0  0
    2.6749   -1.4575   -0.9067 H   0  0  0  0  0  0  0  0  0  0  0  0
    1.7651   -0.9811    0.9379 H   0  0  0  0  0  0  0  0  0  0  0  0
    1.3975    1.2449    1.2281 H   0  0  0  0  0  0  0  0  0  0  0  0
    1.6272    2.6018   -0.4747 H   0  0  0  0  0  0  0  0  0  0  0  0
   -1.0700    1.8242    0.3986 H   0  0  0  0  0  0  0  0  0  0  0  0
   -0.9193   -0.4742    1.9872 H   0  0  0  0  0  0  0  0  0  0  0  0
   -2.8859    0.3189    0.1510 H   0  0  0  0  0  0  0  0  0  0  0  0
   -2.4078   -1.4731   -0.0482 H   0  0  0  0  0  0  0  0  0  0  0  0
   -0.9302    0.1055   -1.8188 H   0  0  0  0  0  0  0  0  0  0  0  0
   -0.3285   -2.0912   -0.2175 H   0  0  0  0  0  0  0  0  0  0  0  0
  1  2  1  0
  2  3  1  0
  3  4  1  0
  3  5  1  0
  5  6  1  0
  6  7  1  0
  7  8  1  0
  8  9  1  0
  9  2  1  0
  8  5  1  0
  9  6  1  0
  1 10  1  0
  2 11  1  0
  3 12  1  0
  4 13  1  0
  5 14  1  0
  6 15  1  0
  7 16  1  0
  7 17  1  0
  8 18  1  0
  9 19  1  0
M  END
