
     RDKit          3D

 19 21  0  0  0  0  0  0  0  0999 V2000
    2.9802    0.1290   -0.6376 O   0  0  0  0  0  0  0  0  0  0  0  0
    1.8912    0.7799   -0.0939 C   0  0  0  0  0  0  0  0  0  0  0  0
    1.2100   -0.0240    1.0192 C   0  0  0  0  0  0  0  0  0  0  0  0
   -0.0045   -0.0701    0.1919 C   0  0  0  0  0  0  0  0  0  0  0  0
    0.6250    0.6565   -0.9497 C   0  0  0  0  0  0  0  0  0  0  0  0
   -1.3656    0.1320    0.6511 C   0  0  0  0  0  0  0  0  0  0  0  0
   -2.5052   -0.0812   -0.2745 C   0  0  0  0  0  0  0  0  0  0  0  0
   -1.8654   -1.0790   -0.9871 O   0  0  0  0  0  0  0  0  0  0  0  0
   -0.9139   -1.1947    0.0537 C   0  0  0  0  0  0  0  0  0  0  0  0
    2.6214   -0.6831   -1.1017 H   0  0  0  0  0  0  0  0  0  0  0  0
    2.0964    1.8227    0.1468 H   0  0  0  0  0  0  0  0  0  0  0  0
    1.7251   -0.9677    1.2636 H   0  0  0  0  0  0  0  0  0  0  0  0
    1.1440    0.6139    1.9321 H   0  0  0  0  0  0  0  0  0  0  0  0
    0.1567    1.6148   -1.2023 H   0  0  0  0  0  0  0  0  0  0  0  0
    0.7661   -0.0415   -1.8115 H   0  0  0  0  0  0  0  0  0  0  0  0
   -1.5223    0.1766    1.7609 H   0  0  0  0  0  0  0  0  0  0  0  0
   -2.7281    0.8066   -0.9141 H   0  0  0  0  0  0  0  0  0  0  0  0
   -3.3826   -0.5013    0.2664 H   0  0  0  0  0  0  0  0  0  0  0  0
   -0.9282   -2.0893    0.6868 H   0  0  0  0  0  0  0  0  0  0  0  0
  1  2  1  0
  2  3  1  0
  3  4  1  0
  4  5  1  0
  4  6  1  0
  6  7  1  0
  7  8  1  0
  8  9  1  0
  5  2  1  0
  9  6  1  0
  9  4  1  0
  1 10  1  0
  2 11  1  0
  3 12  1  0
  3 13  1  0
  5 14  1  0
  5 15  1  0
  6 16  1  0
  7 17  1  0
  7 18  1  0
  9 19  1  0
M  END
