
     RDKit          3D

 18 19  0  0  0  0  0  0  0  0999 V2000
   -2.2279    0.0160   -0.5998 O   0  0  0  0  0  0  0  0  0  0  0  0
   -1.2625    0.3560    0.3512 C   0  0  0  0  0  0  0  0  0  0  0  0
   -0.2467    1.2353   -0.3911 C   0  0  0  0  0  0  0  0  0  0  0  0
    0.9388    0.3508   -0.6500 C   0  0  0  0  0  0  0  0  0  0  0  0
    1.6317    0.1481    0.6902 C   0  0  0  0  0  0  0  0  0  0  0  0
    0.6554   -0.4576    1.4846 O   0  0  0  0  0  0  0  0  0  0  0  0
   -0.3874   -0.8481    0.6854 C   0  0  0  0  0  0  0  0  0  0  0  0
    0.2437   -1.0206   -0.7130 C   0  0  0  0  0  0  0  0  0  0  0  0
   -2.5178   -0.9236   -0.5294 H   0  0  0  0  0  0  0  0  0  0  0  0
   -1.6664    0.8479    1.2320 H   0  0  0  0  0  0  0  0  0  0  0  0
   -0.6818    1.6812   -1.3001 H   0  0  0  0  0  0  0  0  0  0  0  0
    0.0692    2.0051    0.3618 H   0  0  0  0  0  0  0  0  0  0  0  0
    1.5607    0.5762   -1.4736 H   0  0  0  0  0  0  0  0  0  0  0  0
    1.9336    1.1429    1.0695 H   0  0  0  0  0  0  0  0  0  0  0  0
    2.4914   -0.5382    0.5282 H   0  0  0  0  0  0  0  0  0  0  0  0
   -0.9384   -1.7160    1.0008 H   0  0  0  0  0  0  0  0  0  0  0  0
   -0.5461   -1.0178   -1.4611 H   0  0  0  0  0  0  0  0  0  0  0  0
    0.9505   -1.8378   -0.7455 H   0  0  0  0  0  0  0  0  0  0  0  0
  1  2  1  0
  2  3  1  0
  3  4  1  0
  4  5  1  0
  5  6  1  0
  6  7  1  0
  7  8  1  0
  7  2  1  0
  8  4  1  0
  1  9  1  0
  2 10  1  0
  3 11  1  0
  3 12  1  0
  4 13  1  0
  5 14  1  0
  5 15  1  0
  7 16  1  0
  8 17  1  0
  8 18  1  0
M  END
