
     RDKit          3D

 16 17  0  0  0  0  0  0  0  0999 V2000
    0.4087    1.8645    1.1270 O   0  0  0  0  0  0  0  0  0  0  0  0
    0.5575    1.1125   -0.0603 C   0  0  0  0  0  0  0  0  0  0  0  0
    1.6305    0.1084    0.1663 C   0  0  0  0  0  0  0  0  0  0  0  0
    1.1482   -1.0988   -0.0464 C   0  0  0  0  0  0  0  0  0  0  0  0
   -0.2827   -1.0256   -0.4330 C   0  0  0  0  0  0  0  0  0  0  0  0
   -1.2957   -0.5876    0.5946 C   0  0  0  0  0  0  0  0  0  0  0  0
   -0.6964    0.3723   -0.3256 C   0  0  0  0  0  0  0  0  0  0  0  0
   -1.5368    0.9693   -1.2662 O   0  0  0  0  0  0  0  0  0  0  0  0
    0.4771    1.1771    1.8628 H   0  0  0  0  0  0  0  0  0  0  0  0
    0.8570    1.7433   -0.9046 H   0  0  0  0  0  0  0  0  0  0  0  0
    2.6695    0.3246    0.4653 H   0  0  0  0  0  0  0  0  0  0  0  0
    1.7635   -2.0129    0.0610 H   0  0  0  0  0  0  0  0  0  0  0  0
   -0.6064   -1.6766   -1.2773 H   0  0  0  0  0  0  0  0  0  0  0  0
   -1.0512   -0.6561    1.6714 H   0  0  0  0  0  0  0  0  0  0  0  0
   -2.3233   -0.9287    0.3679 H   0  0  0  0  0  0  0  0  0  0  0  0
   -1.7195    0.3144   -2.0029 H   0  0  0  0  0  0  0  0  0  0  0  0
  1  2  1  0
  2  3  1  0
  3  4  2  0
  4  5  1  0
  5  6  1  0
  6  7  1  0
  7  8  1  0
  7  2  1  0
  7  5  1  0
  1  9  1  0
  2 10  1  0
  3 11  1  0
  4 12  1  0
  5 13  1  0
  6 14  1  0
  6 15  1  0
  8 16  1  0
M  END
