
     RDKit          3D

 19 21  0  0  0  0  0  0  0  0999 V2000
    0.9485   -1.4549    1.6727 O   0  0  0  0  0  0  0  0  0  0  0  0
    0.9082   -0.2101    1.1038 C   0  0  0  0  0  0  0  0  0  0  0  0
   -0.3568    0.3741    0.6542 C   0  0  0  0  0  0  0  0  0  0  0  0
   -0.3869    1.6214   -0.1613 C   0  0  0  0  0  0  0  0  0  0  0  0
    0.8067    1.1801   -0.9997 C   0  0  0  0  0  0  0  0  0  0  0  0
    0.6567   -0.1848   -0.3759 C   0  0  0  0  0  0  0  0  0  0  0  0
   -0.0993   -1.2649   -1.0370 C   0  0  0  0  0  0  0  0  0  0  0  0
   -1.3773   -1.3063   -0.5940 O   0  0  0  0  0  0  0  0  0  0  0  0
   -1.5481   -0.5240    0.5007 C   0  0  0  0  0  0  0  0  0  0  0  0
    1.8364   -1.5962    2.1324 H   0  0  0  0  0  0  0  0  0  0  0  0
    1.6706    0.5122    1.4848 H   0  0  0  0  0  0  0  0  0  0  0  0
   -1.2732    1.6937   -0.8599 H   0  0  0  0  0  0  0  0  0  0  0  0
   -0.2477    2.5214    0.4308 H   0  0  0  0  0  0  0  0  0  0  0  0
    0.6845    1.2508   -2.0778 H   0  0  0  0  0  0  0  0  0  0  0  0
    1.7251    1.6668   -0.5754 H   0  0  0  0  0  0  0  0  0  0  0  0
    0.3955   -2.2764   -0.9487 H   0  0  0  0  0  0  0  0  0  0  0  0
   -0.1122   -1.0649   -2.1386 H   0  0  0  0  0  0  0  0  0  0  0  0
   -1.7913   -1.0937    1.4328 H   0  0  0  0  0  0  0  0  0  0  0  0
   -2.4393    0.1559    0.3563 H   0  0  0  0  0  0  0  0  0  0  0  0
  1  2  1  0
  2  3  1  0
  3  4  1  0
  4  5  1  0
  5  6  1  0
  6  7  1  0
  7  8  1  0
  8  9  1  0
  6  2  1  0
  6  3  1  0
  9  3  1  0
  1 10  1  0
  2 11  1  0
  4 12  1  0
  4 13  1  0
  5 14  1  0
  5 15  1  0
  7 16  1  0
  7 17  1  0
  9 18  1  0
  9 19  1  0
M  END
