
     RDKit          3D

 21 21  0  0  0  0  0  0  0  0999 V2000
    2.3138   -1.0717   -0.8488 O   0  0  0  0  0  0  0  0  0  0  0  0
    1.4963   -0.7101    0.2459 C   0  0  0  0  0  0  0  0  0  0  0  0
    1.4673    0.7488    0.3757 C   0  0  0  0  0  0  0  0  0  0  0  0
    0.1310    1.3829    0.5802 C   0  0  0  0  0  0  0  0  0  0  0  0
   -0.6617    1.3952   -0.5644 O   0  0  0  0  0  0  0  0  0  0  0  0
   -1.8990    0.8216   -0.3727 C   0  0  0  0  0  0  0  0  0  0  0  0
   -1.8094   -0.6691   -0.6457 C   0  0  0  0  0  0  0  0  0  0  0  0
   -0.5011   -0.9906   -1.0723 O   0  0  0  0  0  0  0  0  0  0  0  0
    0.1828   -1.4011    0.0592 C   0  0  0  0  0  0  0  0  0  0  0  0
    2.8365   -0.2985   -1.1243 H   0  0  0  0  0  0  0  0  0  0  0  0
    1.9869   -1.1941    1.1318 H   0  0  0  0  0  0  0  0  0  0  0  0
    1.9460    1.2386   -0.4958 H   0  0  0  0  0  0  0  0  0  0  0  0
    2.1033    1.0542    1.2596 H   0  0  0  0  0  0  0  0  0  0  0  0
    0.3291    2.4741    0.8073 H   0  0  0  0  0  0  0  0  0  0  0  0
   -0.4065    1.0060    1.4714 H   0  0  0  0  0  0  0  0  0  0  0  0
   -2.3807    1.0607    0.5779 H   0  0  0  0  0  0  0  0  0  0  0  0
   -2.5747    1.2287   -1.1800 H   0  0  0  0  0  0  0  0  0  0  0  0
   -2.0378   -1.1682    0.3334 H   0  0  0  0  0  0  0  0  0  0  0  0
   -2.5263   -1.0196   -1.3881 H   0  0  0  0  0  0  0  0  0  0  0  0
   -0.4276   -1.3977    0.9749 H   0  0  0  0  0  0  0  0  0  0  0  0
    0.4319   -2.4901   -0.1252 H   0  0  0  0  0  0  0  0  0  0  0  0
  1  2  1  0
  2  3  1  0
  3  4  1  0
  4  5  1  0
  5  6  1  0
  6  7  1  0
  7  8  1  0
  8  9  1  0
  9  2  1  0
  1 10  1  0
  2 11  1  0
  3 12  1  0
  3 13  1  0
  4 14  1  0
  4 15  1  0
  6 16  1  0
  6 17  1  0
  7 18  1  0
  7 19  1  0
  9 20  1  0
  9 21  1  0
M  END
