
     RDKit          3D

 21 23  0  0  0  0  0  0  0  0999 V2000
    1.4065   -0.8275   -1.8642 O   0  0  0  0  0  0  0  0  0  0  0  0
    1.4876   -1.1236   -0.5064 C   0  0  0  0  0  0  0  0  0  0  0  0
    1.2669   -0.0714    0.5159 C   0  0  0  0  0  0  0  0  0  0  0  0
    0.6644    1.2477    0.1938 C   0  0  0  0  0  0  0  0  0  0  0  0
   -0.8275    1.2100   -0.0090 C   0  0  0  0  0  0  0  0  0  0  0  0
   -1.3972    0.2775    1.0715 C   0  0  0  0  0  0  0  0  0  0  0  0
   -1.0557   -0.8507    0.0760 C   0  0  0  0  0  0  0  0  0  0  0  0
   -1.2520    0.1523   -0.9910 C   0  0  0  0  0  0  0  0  0  0  0  0
    0.3444   -1.2350    0.3738 C   0  0  0  0  0  0  0  0  0  0  0  0
    2.0198   -0.0863   -2.0796 H   0  0  0  0  0  0  0  0  0  0  0  0
    2.3272   -1.8601   -0.3363 H   0  0  0  0  0  0  0  0  0  0  0  0
    2.0297   -0.0733    1.3512 H   0  0  0  0  0  0  0  0  0  0  0  0
    0.8294    1.9418    1.0503 H   0  0  0  0  0  0  0  0  0  0  0  0
    1.1705    1.7568   -0.6774 H   0  0  0  0  0  0  0  0  0  0  0  0
   -1.2917    2.1851   -0.0758 H   0  0  0  0  0  0  0  0  0  0  0  0
   -2.4821    0.4070    1.1538 H   0  0  0  0  0  0  0  0  0  0  0  0
   -0.8068    0.2494    1.9902 H   0  0  0  0  0  0  0  0  0  0  0  0
   -1.7515   -1.7013    0.1345 H   0  0  0  0  0  0  0  0  0  0  0  0
   -2.3588    0.2799   -1.1839 H   0  0  0  0  0  0  0  0  0  0  0  0
   -0.7385    0.0812   -1.9282 H   0  0  0  0  0  0  0  0  0  0  0  0
    0.4154   -1.9593    1.2404 H   0  0  0  0  0  0  0  0  0  0  0  0
  1  2  1  0
  2  3  1  0
  3  4  1  0
  4  5  1  0
  5  6  1  0
  6  7  1  0
  7  8  1  0
  7  9  1  0
  9  2  1  0
  9  3  1  0
  8  5  1  0
  1 10  1  0
  2 11  1  0
  3 12  1  0
  4 13  1  0
  4 14  1  0
  5 15  1  0
  6 16  1  0
  6 17  1  0
  7 18  1  0
  8 19  1  0
  8 20  1  0
  9 21  1  0
M  END
