
     RDKit          3D

 17 18  0  0  0  0  0  0  0  0999 V2000
    1.4327    0.5174   -1.2632 O   0  0  0  0  0  0  0  0  0  0  0  0
    1.1588   -0.1033   -0.0794 C   0  0  0  0  0  0  0  0  0  0  0  0
    0.2686    0.7582    0.8397 C   0  0  0  0  0  0  0  0  0  0  0  0
   -0.2181    1.8154    0.1111 O   0  0  0  0  0  0  0  0  0  0  0  0
   -0.8127   -0.3069    1.0515 C   0  0  0  0  0  0  0  0  0  0  0  0
   -0.1020   -1.5097    1.1587 O   0  0  0  0  0  0  0  0  0  0  0  0
    0.2317   -1.2885   -0.1993 C   0  0  0  0  0  0  0  0  0  0  0  0
   -1.1396   -0.7092   -0.3479 C   0  0  0  0  0  0  0  0  0  0  0  0
   -1.2874    0.3608   -1.1907 O   0  0  0  0  0  0  0  0  0  0  0  0
    2.4316    0.6705   -1.2928 H   0  0  0  0  0  0  0  0  0  0  0  0
    2.0231   -0.4048    0.5179 H   0  0  0  0  0  0  0  0  0  0  0  0
    0.7868    1.0171    1.7606 H   0  0  0  0  0  0  0  0  0  0  0  0
    0.3024    2.0678   -0.6703 H   0  0  0  0  0  0  0  0  0  0  0  0
   -1.5806   -0.0998    1.7552 H   0  0  0  0  0  0  0  0  0  0  0  0
    0.5292   -2.1320   -0.7756 H   0  0  0  0  0  0  0  0  0  0  0  0
   -1.9033   -1.5025   -0.3978 H   0  0  0  0  0  0  0  0  0  0  0  0
   -2.1211    0.8495   -0.9777 H   0  0  0  0  0  0  0  0  0  0  0  0
  1  2  1  0
  2  3  1  0
  3  4  1  0
  3  5  1  0
  5  6  1  0
  6  7  1  0
  7  8  1  0
  8  9  1  0
  7  2  1  0
  8  5  1  0
  1 10  1  0
  2 11  1  0
  3 12  1  0
  4 13  1  0
  5 14  1  0
  7 15  1  0
  8 16  1  0
  9 17  1  0
M  END
