
     RDKit          3D

 13 14  0  0  0  0  0  0  0  0999 V2000
   -2.2547   -0.2261   -0.2762 O   0  0  0  0  0  0  0  0  0  0  0  0
   -0.9284   -0.4922   -0.4782 C   0  0  0  0  0  0  0  0  0  0  0  0
   -0.0496   -0.6391    0.7123 C   0  0  0  0  0  0  0  0  0  0  0  0
   -0.2919    0.6952    0.9819 O   0  0  0  0  0  0  0  0  0  0  0  0
   -0.0753    0.7405   -0.3778 C   0  0  0  0  0  0  0  0  0  0  0  0
    1.0804   -0.1908   -0.1705 C   0  0  0  0  0  0  0  0  0  0  0  0
    2.1943    0.3091    0.4363 O   0  0  0  0  0  0  0  0  0  0  0  0
   -2.5002    0.5492   -0.8475 H   0  0  0  0  0  0  0  0  0  0  0  0
   -0.6749   -1.2076   -1.2709 H   0  0  0  0  0  0  0  0  0  0  0  0
   -0.0239   -1.3989    1.3745 H   0  0  0  0  0  0  0  0  0  0  0  0
   -0.1061    1.5418   -0.9849 H   0  0  0  0  0  0  0  0  0  0  0  0
    1.2295   -0.8723   -1.0372 H   0  0  0  0  0  0  0  0  0  0  0  0
    2.4008    1.1914    0.0453 H   0  0  0  0  0  0  0  0  0  0  0  0
  1  2  1  0
  2  3  1  0
  3  4  1  0
  4  5  1  0
  5  6  1  0
  6  7  1  0
  5  2  1  0
  6  3  1  0
  1  8  1  0
  2  9  1  0
  3 10  1  0
  5 11  1  0
  6 12  1  0
  7 13  1  0
M  END
