
     RDKit          3D

 16 17  0  0  0  0  0  0  0  0999 V2000
   -1.6599   -1.1773    0.6485 O   0  0  0  0  0  0  0  0  0  0  0  0
   -0.3112   -1.1796    0.3893 C   0  0  0  0  0  0  0  0  0  0  0  0
    0.4413   -0.0189    1.0598 C   0  0  0  0  0  0  0  0  0  0  0  0
    1.3529   -0.0660   -0.1671 C   0  0  0  0  0  0  0  0  0  0  0  0
    0.0910   -0.5001   -0.9257 C   0  0  0  0  0  0  0  0  0  0  0  0
   -0.7480    0.5790   -1.1553 O   0  0  0  0  0  0  0  0  0  0  0  0
   -0.5746    1.5871   -0.2327 C   0  0  0  0  0  0  0  0  0  0  0  0
   -0.4142    1.0642    1.0308 O   0  0  0  0  0  0  0  0  0  0  0  0
   -2.2220   -1.1951   -0.1582 H   0  0  0  0  0  0  0  0  0  0  0  0
    0.2174   -2.1473    0.5274 H   0  0  0  0  0  0  0  0  0  0  0  0
    0.9269   -0.2644    1.9978 H   0  0  0  0  0  0  0  0  0  0  0  0
    2.0383   -0.9206   -0.0559 H   0  0  0  0  0  0  0  0  0  0  0  0
    1.7748    0.8859   -0.4767 H   0  0  0  0  0  0  0  0  0  0  0  0
    0.2834   -1.1708   -1.7555 H   0  0  0  0  0  0  0  0  0  0  0  0
   -1.4749    2.2511   -0.2340 H   0  0  0  0  0  0  0  0  0  0  0  0
    0.2789    2.2727   -0.4926 H   0  0  0  0  0  0  0  0  0  0  0  0
  1  2  1  0
  2  3  1  0
  3  4  1  0
  4  5  1  0
  5  6  1  0
  6  7  1  0
  7  8  1  0
  5  2  1  0
  8  3  1  0
  1  9  1  0
  2 10  1  0
  3 11  1  0
  4 12  1  0
  4 13  1  0
  5 14  1  0
  7 15  1  0
  7 16  1  0
M  END
