
     RDKit          3D

 21 22  0  0  0  0  0  0  0  0999 V2000
    2.6941   -0.3577   -0.0551 O   0  0  0  0  0  0  0  0  0  0  0  0
    1.3699   -0.0501    0.1760 C   0  0  0  0  0  0  0  0  0  0  0  0
    0.5133   -1.2515   -0.0447 C   0  0  0  0  0  0  0  0  0  0  0  0
   -0.9513   -0.9526    0.1519 C   0  0  0  0  0  0  0  0  0  0  0  0
   -1.1873   -0.0717    1.3659 C   0  0  0  0  0  0  0  0  0  0  0  0
   -0.6635    1.1502    1.0358 O   0  0  0  0  0  0  0  0  0  0  0  0
   -0.5972    1.2774   -0.3253 C   0  0  0  0  0  0  0  0  0  0  0  0
    0.8735    1.0700   -0.7210 C   0  0  0  0  0  0  0  0  0  0  0  0
   -1.3239    0.0746   -0.9293 C   0  0  0  0  0  0  0  0  0  0  0  0
    3.2224   -0.1418    0.7586 H   0  0  0  0  0  0  0  0  0  0  0  0
    1.2177    0.3257    1.2286 H   0  0  0  0  0  0  0  0  0  0  0  0
    0.6365   -1.5512   -1.1245 H   0  0  0  0  0  0  0  0  0  0  0  0
    0.8710   -2.1089    0.5520 H   0  0  0  0  0  0  0  0  0  0  0  0
   -1.5673   -1.8391    0.1198 H   0  0  0  0  0  0  0  0  0  0  0  0
   -2.3079    0.0591    1.4200 H   0  0  0  0  0  0  0  0  0  0  0  0
   -0.8122   -0.5112    2.2884 H   0  0  0  0  0  0  0  0  0  0  0  0
   -0.9912    2.2274   -0.7117 H   0  0  0  0  0  0  0  0  0  0  0  0
    0.8819    0.6656   -1.7735 H   0  0  0  0  0  0  0  0  0  0  0  0
    1.4526    1.9882   -0.6293 H   0  0  0  0  0  0  0  0  0  0  0  0
   -2.4127    0.2151   -0.8894 H   0  0  0  0  0  0  0  0  0  0  0  0
   -0.9184   -0.2176   -1.8932 H   0  0  0  0  0  0  0  0  0  0  0  0
  1  2  1  0
  2  3  1  0
  3  4  1  0
  4  5  1  0
  5  6  1  0
  6  7  1  0
  7  8  1  0
  7  9  1  0
  8  2  1  0
  9  4  1  0
  1 10  1  0
  2 11  1  0
  3 12  1  0
  3 13  1  0
  4 14  1  0
  5 15  1  0
  5 16  1  0
  7 17  1  0
  8 18  1  0
  8 19  1  0
  9 20  1  0
  9 21  1  0
M  END
