
     RDKit          3D

 19 20  0  0  0  0  0  0  0  0999 V2000
    2.9697   -0.4453   -0.8176 O   0  0  0  0  0  0  0  0  0  0  0  0
    1.6591   -0.6293   -0.3371 C   0  0  0  0  0  0  0  0  0  0  0  0
    1.3813   -0.5053    1.1170 C   0  0  0  0  0  0  0  0  0  0  0  0
    0.9719    0.5653    0.1460 C   0  0  0  0  0  0  0  0  0  0  0  0
   -0.4854    0.7804   -0.1456 C   0  0  0  0  0  0  0  0  0  0  0  0
   -0.8244    0.8437   -1.4986 O   0  0  0  0  0  0  0  0  0  0  0  0
   -2.0791    0.3563   -1.1207 C   0  0  0  0  0  0  0  0  0  0  0  0
   -1.3508   -0.4596   -0.0673 C   0  0  0  0  0  0  0  0  0  0  0  0
   -1.9847   -0.5125    1.1627 O   0  0  0  0  0  0  0  0  0  0  0  0
    3.4880   -0.1157   -0.0343 H   0  0  0  0  0  0  0  0  0  0  0  0
    1.1354   -1.4511   -0.8487 H   0  0  0  0  0  0  0  0  0  0  0  0
    0.6085   -1.1565    1.5874 H   0  0  0  0  0  0  0  0  0  0  0  0
    2.2716   -0.3610    1.7587 H   0  0  0  0  0  0  0  0  0  0  0  0
    1.5460    1.5088    0.2496 H   0  0  0  0  0  0  0  0  0  0  0  0
   -0.9624    1.6137    0.3899 H   0  0  0  0  0  0  0  0  0  0  0  0
   -2.6492    1.1663   -0.6383 H   0  0  0  0  0  0  0  0  0  0  0  0
   -2.6021   -0.2357   -1.8875 H   0  0  0  0  0  0  0  0  0  0  0  0
   -0.8904   -1.3911   -0.4277 H   0  0  0  0  0  0  0  0  0  0  0  0
   -2.2029    0.4287    1.4120 H   0  0  0  0  0  0  0  0  0  0  0  0
  1  2  1  0
  2  3  1  0
  3  4  1  0
  4  5  1  0
  5  6  1  0
  6  7  1  0
  7  8  1  0
  8  9  1  0
  4  2  1  0
  8  5  1  0
  1 10  1  0
  2 11  1  0
  3 12  1  0
  3 13  1  0
  4 14  1  0
  5 15  1  0
  7 16  1  0
  7 17  1  0
  8 18  1  0
  9 19  1  0
M  END
