
     RDKit          3D

 21 22  0  0  0  0  0  0  0  0999 V2000
    3.2762    0.4055   -1.1870 O   0  0  0  0  0  0  0  0  0  0  0  0
    2.2879   -0.3167   -0.4929 C   0  0  0  0  0  0  0  0  0  0  0  0
    1.8058    0.3649    0.7571 C   0  0  0  0  0  0  0  0  0  0  0  0
    0.9102    0.2183   -0.4578 C   0  0  0  0  0  0  0  0  0  0  0  0
   -0.2548   -0.7435   -0.3873 C   0  0  0  0  0  0  0  0  0  0  0  0
   -0.2335   -1.5436    0.7267 O   0  0  0  0  0  0  0  0  0  0  0  0
   -1.5504   -0.0103   -0.5967 C   0  0  0  0  0  0  0  0  0  0  0  0
   -1.9051    1.1013    0.3899 C   0  0  0  0  0  0  0  0  0  0  0  0
   -2.6921   -0.1703    0.3159 C   0  0  0  0  0  0  0  0  0  0  0  0
    4.1058   -0.0908   -1.2677 H   0  0  0  0  0  0  0  0  0  0  0  0
    2.4704   -1.4201   -0.4460 H   0  0  0  0  0  0  0  0  0  0  0  0
    2.1367    1.3744    1.0107 H   0  0  0  0  0  0  0  0  0  0  0  0
    1.5285   -0.2616    1.6403 H   0  0  0  0  0  0  0  0  0  0  0  0
    0.6891    1.1513   -1.0089 H   0  0  0  0  0  0  0  0  0  0  0  0
   -0.1364   -1.4314   -1.2684 H   0  0  0  0  0  0  0  0  0  0  0  0
   -0.6477   -1.1636    1.5271 H   0  0  0  0  0  0  0  0  0  0  0  0
   -1.8060    0.2542   -1.6584 H   0  0  0  0  0  0  0  0  0  0  0  0
   -2.3355    2.0400   -0.0032 H   0  0  0  0  0  0  0  0  0  0  0  0
   -1.2677    1.2348    1.2853 H   0  0  0  0  0  0  0  0  0  0  0  0
   -2.6502   -0.8443    1.2032 H   0  0  0  0  0  0  0  0  0  0  0  0
   -3.7313   -0.1485   -0.1206 H   0  0  0  0  0  0  0  0  0  0  0  0
  1  2  1  0
  2  3  1  0
  3  4  1  0
  4  5  1  0
  5  6  1  0
  5  7  1  0
  7  8  1  0
  8  9  1  0
  4  2  1  0
  9  7  1  0
  1 10  1  0
  2 11  1  0
  3 12  1  0
  3 13  1  0
  4 14  1  0
  5 15  1  0
  6 16  1  0
  7 17  1  0
  8 18  1  0
  8 19  1  0
  9 20  1  0
  9 21  1  0
M  END
