
     RDKit          3D

 19 20  0  0  0  0  0  0  0  0999 V2000
   -0.9966    0.6669   -1.5212 O   0  0  0  0  0  0  0  0  0  0  0  0
   -1.2216    0.6757   -0.1497 C   0  0  0  0  0  0  0  0  0  0  0  0
   -1.8501   -0.6713    0.2337 C   0  0  0  0  0  0  0  0  0  0  0  0
   -0.7736   -1.5296   -0.0738 O   0  0  0  0  0  0  0  0  0  0  0  0
    0.2564   -0.9716    0.6558 C   0  0  0  0  0  0  0  0  0  0  0  0
    1.5966   -0.9058   -0.0121 C   0  0  0  0  0  0  0  0  0  0  0  0
    1.2950    0.5071   -0.4192 C   0  0  0  0  0  0  0  0  0  0  0  0
    2.3031    1.4286   -0.1647 O   0  0  0  0  0  0  0  0  0  0  0  0
    0.1319    0.5366    0.5224 C   0  0  0  0  0  0  0  0  0  0  0  0
   -1.7936    0.3071   -1.9579 H   0  0  0  0  0  0  0  0  0  0  0  0
   -1.8034    1.5234    0.2072 H   0  0  0  0  0  0  0  0  0  0  0  0
   -2.7471   -0.8914   -0.3392 H   0  0  0  0  0  0  0  0  0  0  0  0
   -1.9686   -0.6916    1.3289 H   0  0  0  0  0  0  0  0  0  0  0  0
    0.2357   -1.3367    1.6969 H   0  0  0  0  0  0  0  0  0  0  0  0
    2.4199   -0.9976    0.7406 H   0  0  0  0  0  0  0  0  0  0  0  0
    1.7879   -1.6268   -0.8220 H   0  0  0  0  0  0  0  0  0  0  0  0
    0.9741    0.5943   -1.4701 H   0  0  0  0  0  0  0  0  0  0  0  0
    1.8981    2.2837    0.0852 H   0  0  0  0  0  0  0  0  0  0  0  0
    0.2559    1.0989    1.4591 H   0  0  0  0  0  0  0  0  0  0  0  0
  1  2  1  0
  2  3  1  0
  3  4  1  0
  4  5  1  0
  5  6  1  0
  6  7  1  0
  7  8  1  0
  7  9  1  0
  9  2  1  0
  9  5  1  0
  1 10  1  0
  2 11  1  0
  3 12  1  0
  3 13  1  0
  5 14  1  0
  6 15  1  0
  6 16  1  0
  7 17  1  0
  8 18  1  0
  9 19  1  0
M  END
