
     RDKit          3D

 21 22  0  0  0  0  0  0  0  0999 V2000
   -1.2273    1.8241    1.0906 O   0  0  0  0  0  0  0  0  0  0  0  0
   -1.1957    0.7918    0.1792 C   0  0  0  0  0  0  0  0  0  0  0  0
   -1.2960   -0.5708    0.7903 C   0  0  0  0  0  0  0  0  0  0  0  0
   -0.6731   -1.5072   -0.2159 C   0  0  0  0  0  0  0  0  0  0  0  0
    0.2127   -0.6747   -1.1044 C   0  0  0  0  0  0  0  0  0  0  0  0
    1.6267   -0.6189   -0.6090 C   0  0  0  0  0  0  0  0  0  0  0  0
    1.3461    0.7207    0.0165 C   0  0  0  0  0  0  0  0  0  0  0  0
    1.2374    0.7086    1.4146 O   0  0  0  0  0  0  0  0  0  0  0  0
    0.0263    0.7658   -0.6825 C   0  0  0  0  0  0  0  0  0  0  0  0
   -1.9827    2.4680    0.9344 H   0  0  0  0  0  0  0  0  0  0  0  0
   -2.0748    0.9243   -0.4965 H   0  0  0  0  0  0  0  0  0  0  0  0
   -0.8020   -0.6466    1.7888 H   0  0  0  0  0  0  0  0  0  0  0  0
   -2.3631   -0.8980    0.9254 H   0  0  0  0  0  0  0  0  0  0  0  0
   -0.0563   -2.2420    0.3608 H   0  0  0  0  0  0  0  0  0  0  0  0
   -1.4283   -2.0484   -0.8133 H   0  0  0  0  0  0  0  0  0  0  0  0
    0.1057   -0.8503   -2.1952 H   0  0  0  0  0  0  0  0  0  0  0  0
    2.4209   -0.6409   -1.3786 H   0  0  0  0  0  0  0  0  0  0  0  0
    1.8604   -1.3833    0.1622 H   0  0  0  0  0  0  0  0  0  0  0  0
    2.0965    1.4633   -0.3645 H   0  0  0  0  0  0  0  0  0  0  0  0
    2.1312    0.9884    1.7615 H   0  0  0  0  0  0  0  0  0  0  0  0
    0.0352    1.4261   -1.5644 H   0  0  0  0  0  0  0  0  0  0  0  0
  1  2  1  0
  2  3  1  0
  3  4  1  0
  4  5  1  0
  5  6  1  0
  6  7  1  0
  7  8  1  0
  7  9  1  0
  9  2  1  0
  9  5  1  0
  1 10  1  0
  2 11  1  0
  3 12  1  0
  3 13  1  0
  4 14  1  0
  4 15  1  0
  5 16  1  0
  6 17  1  0
  6 18  1  0
  7 19  1  0
  8 20  1  0
  9 21  1  0
M  END
