
     RDKit          3D

 19 20  0  0  0  0  0  0  0  0999 V2000
    2.0654   -0.0921   -1.5370 O   0  0  0  0  0  0  0  0  0  0  0  0
    1.6875    0.5290   -0.3760 C   0  0  0  0  0  0  0  0  0  0  0  0
    1.9114   -0.3554    0.8404 C   0  0  0  0  0  0  0  0  0  0  0  0
    0.8311   -1.0883    1.0706 C   0  0  0  0  0  0  0  0  0  0  0  0
   -0.1758   -0.7621    0.0499 C   0  0  0  0  0  0  0  0  0  0  0  0
   -1.5927   -0.6682    0.5346 C   0  0  0  0  0  0  0  0  0  0  0  0
   -2.0964    0.5298   -0.2379 C   0  0  0  0  0  0  0  0  0  0  0  0
   -0.8676    1.3375   -0.5091 C   0  0  0  0  0  0  0  0  0  0  0  0
    0.2124    0.6179   -0.3474 C   0  0  0  0  0  0  0  0  0  0  0  0
    2.5654    0.5704   -2.0835 H   0  0  0  0  0  0  0  0  0  0  0  0
    2.1917    1.4789   -0.1578 H   0  0  0  0  0  0  0  0  0  0  0  0
    2.7992   -0.4127    1.4556 H   0  0  0  0  0  0  0  0  0  0  0  0
    0.7157   -1.8212    1.8964 H   0  0  0  0  0  0  0  0  0  0  0  0
   -0.0622   -1.4426   -0.8180 H   0  0  0  0  0  0  0  0  0  0  0  0
   -1.7070   -0.5926    1.6118 H   0  0  0  0  0  0  0  0  0  0  0  0
   -2.1304   -1.5677    0.1713 H   0  0  0  0  0  0  0  0  0  0  0  0
   -2.6272    0.2428   -1.1647 H   0  0  0  0  0  0  0  0  0  0  0  0
   -2.7821    1.0946    0.4052 H   0  0  0  0  0  0  0  0  0  0  0  0
   -0.9383    2.4019   -0.8043 H   0  0  0  0  0  0  0  0  0  0  0  0
  1  2  1  0
  2  3  1  0
  3  4  2  0
  4  5  1  0
  5  6  1  0
  6  7  1  0
  7  8  1  0
  8  9  2  0
  9  2  1  0
  9  5  1  0
  1 10  1  0
  2 11  1  0
  3 12  1  0
  4 13  1  0
  5 14  1  0
  6 15  1  0
  6 16  1  0
  7 17  1  0
  7 18  1  0
  8 19  1  0
M  END
