
     RDKit          3D

 21 22  0  0  0  0  0  0  0  0999 V2000
    2.6326    0.4797   -0.5906 O   0  0  0  0  0  0  0  0  0  0  0  0
    1.3779    0.2326   -0.0604 C   0  0  0  0  0  0  0  0  0  0  0  0
    0.8401   -1.1302   -0.4213 C   0  0  0  0  0  0  0  0  0  0  0  0
   -0.3025   -1.4333    0.5100 C   0  0  0  0  0  0  0  0  0  0  0  0
   -1.5741   -0.8157    0.0337 C   0  0  0  0  0  0  0  0  0  0  0  0
   -1.4422    0.6223   -0.3596 C   0  0  0  0  0  0  0  0  0  0  0  0
   -0.6461    1.4469    0.5957 C   0  0  0  0  0  0  0  0  0  0  0  0
    0.3989    1.2980   -0.4920 C   0  0  0  0  0  0  0  0  0  0  0  0
   -0.5247    0.7660   -1.3811 O   0  0  0  0  0  0  0  0  0  0  0  0
    3.2884    0.5798    0.1595 H   0  0  0  0  0  0  0  0  0  0  0  0
    1.4173    0.2659    1.0602 H   0  0  0  0  0  0  0  0  0  0  0  0
    1.6879   -1.8473   -0.2979 H   0  0  0  0  0  0  0  0  0  0  0  0
    0.4682   -1.1991   -1.4548 H   0  0  0  0  0  0  0  0  0  0  0  0
   -0.0270   -1.1729    1.5461 H   0  0  0  0  0  0  0  0  0  0  0  0
   -0.4448   -2.5496    0.4800 H   0  0  0  0  0  0  0  0  0  0  0  0
   -2.3848   -0.9662    0.7619 H   0  0  0  0  0  0  0  0  0  0  0  0
   -1.8881   -1.3771   -0.8894 H   0  0  0  0  0  0  0  0  0  0  0  0
   -2.4208    1.0589   -0.5912 H   0  0  0  0  0  0  0  0  0  0  0  0
   -0.3687    0.9856    1.5549 H   0  0  0  0  0  0  0  0  0  0  0  0
   -0.9508    2.5153    0.6588 H   0  0  0  0  0  0  0  0  0  0  0  0
    0.8632    2.2403   -0.8225 H   0  0  0  0  0  0  0  0  0  0  0  0
  1  2  1  0
  2  3  1  0
  3  4  1  0
  4  5  1  0
  5  6  1  0
  6  7  1  0
  7  8  1  0
  8  9  1  0
  8  2  1  0
  9  6  1  0
  1 10  1  0
  2 11  1  0
  3 12  1  0
  3 13  1  0
  4 14  1  0
  4 15  1  0
  5 16  1  0
  5 17  1  0
  6 18  1  0
  7 19  1  0
  7 20  1  0
  8 21  1  0
M  END
