
     RDKit          3D

 18 19  0  0  0  0  0  0  0  0999 V2000
   -0.4218    1.3018    1.1856 O   0  0  0  0  0  0  0  0  0  0  0  0
   -0.1565    1.1174   -0.1917 C   0  0  0  0  0  0  0  0  0  0  0  0
    1.3408    0.8268   -0.2560 C   0  0  0  0  0  0  0  0  0  0  0  0
    1.5235   -0.5218    0.4149 C   0  0  0  0  0  0  0  0  0  0  0  0
    0.8871   -1.5392   -0.2050 O   0  0  0  0  0  0  0  0  0  0  0  0
   -0.3902   -1.3534   -0.6128 C   0  0  0  0  0  0  0  0  0  0  0  0
   -1.4858   -0.9558    0.3123 C   0  0  0  0  0  0  0  0  0  0  0  0
   -0.9352   -0.0281   -0.7309 C   0  0  0  0  0  0  0  0  0  0  0  0
   -1.2890    1.7439    1.3341 H   0  0  0  0  0  0  0  0  0  0  0  0
   -0.3864    2.0701   -0.6872 H   0  0  0  0  0  0  0  0  0  0  0  0
    1.7100    0.8620   -1.2792 H   0  0  0  0  0  0  0  0  0  0  0  0
    1.8248    1.5970    0.3733 H   0  0  0  0  0  0  0  0  0  0  0  0
    1.2483   -0.4275    1.4679 H   0  0  0  0  0  0  0  0  0  0  0  0
    2.6342   -0.7266    0.3643 H   0  0  0  0  0  0  0  0  0  0  0  0
   -0.7228   -2.1075   -1.3901 H   0  0  0  0  0  0  0  0  0  0  0  0
   -1.2975   -0.7440    1.3833 H   0  0  0  0  0  0  0  0  0  0  0  0
   -2.5243   -1.3378    0.1406 H   0  0  0  0  0  0  0  0  0  0  0  0
   -1.5592    0.2225   -1.6232 H   0  0  0  0  0  0  0  0  0  0  0  0
  1  2  1  0
  2  3  1  0
  3  4  1  0
  4  5  1  0
  5  6  1  0
  6  7  1  0
  7  8  1  0
  8  2  1  0
  8  6  1  0
  1  9  1  0
  2 10  1  0
  3 11  1  0
  3 12  1  0
  4 13  1  0
  4 14  1  0
  6 15  1  0
  7 16  1  0
  7 17  1  0
  8 18  1  0
M  END
