
     RDKit          3D

 19 21  0  0  0  0  0  0  0  0999 V2000
   -2.1013    1.6146   -0.1755 O   0  0  0  0  0  0  0  0  0  0  0  0
   -1.0800    0.7480    0.2593 C   0  0  0  0  0  0  0  0  0  0  0  0
   -1.7126   -0.6258    0.5003 C   0  0  0  0  0  0  0  0  0  0  0  0
   -0.5305   -1.2206   -0.2276 C   0  0  0  0  0  0  0  0  0  0  0  0
    0.4949   -1.4773    0.6580 O   0  0  0  0  0  0  0  0  0  0  0  0
    1.6256   -0.8614    0.1893 C   0  0  0  0  0  0  0  0  0  0  0  0
    1.9714    0.5414    0.5100 C   0  0  0  0  0  0  0  0  0  0  0  0
    1.2268    0.2568   -0.7198 C   0  0  0  0  0  0  0  0  0  0  0  0
   -0.2438    0.1455   -0.8080 C   0  0  0  0  0  0  0  0  0  0  0  0
   -1.9202    2.5535    0.0657 H   0  0  0  0  0  0  0  0  0  0  0  0
   -0.5998    1.0838    1.1798 H   0  0  0  0  0  0  0  0  0  0  0  0
   -1.7446   -0.9295    1.5575 H   0  0  0  0  0  0  0  0  0  0  0  0
   -2.6325   -0.8108   -0.0831 H   0  0  0  0  0  0  0  0  0  0  0  0
   -0.7601   -1.9901   -0.9730 H   0  0  0  0  0  0  0  0  0  0  0  0
    2.4278   -1.5526   -0.1349 H   0  0  0  0  0  0  0  0  0  0  0  0
    3.0297    0.8109    0.4155 H   0  0  0  0  0  0  0  0  0  0  0  0
    1.4372    1.1228    1.2864 H   0  0  0  0  0  0  0  0  0  0  0  0
    1.7914    0.2761   -1.6953 H   0  0  0  0  0  0  0  0  0  0  0  0
   -0.6793    0.3147   -1.8046 H   0  0  0  0  0  0  0  0  0  0  0  0
  1  2  1  0
  2  3  1  0
  3  4  1  0
  4  5  1  0
  5  6  1  0
  6  7  1  0
  7  8  1  0
  8  9  1  0
  9  2  1  0
  9  4  1  0
  8  6  1  0
  1 10  1  0
  2 11  1  0
  3 12  1  0
  3 13  1  0
  4 14  1  0
  6 15  1  0
  7 16  1  0
  7 17  1  0
  8 18  1  0
  9 19  1  0
M  END
