
     RDKit          3D

 16 18  0  0  0  0  0  0  0  0999 V2000
   -1.7018   -0.7791   -1.1969 O   0  0  0  0  0  0  0  0  0  0  0  0
   -1.0901   -0.3403   -0.0512 C   0  0  0  0  0  0  0  0  0  0  0  0
   -0.6601    1.1347   -0.1540 C   0  0  0  0  0  0  0  0  0  0  0  0
    0.7945    1.0000    0.1610 C   0  0  0  0  0  0  0  0  0  0  0  0
    0.9613   -0.1493    1.1157 C   0  0  0  0  0  0  0  0  0  0  0  0
    2.1340   -0.4323    0.4252 O   0  0  0  0  0  0  0  0  0  0  0  0
    1.2612   -0.1667   -0.6174 C   0  0  0  0  0  0  0  0  0  0  0  0
    0.2493   -0.9847    0.1327 C   0  0  0  0  0  0  0  0  0  0  0  0
   -2.2579   -1.5819   -0.9366 H   0  0  0  0  0  0  0  0  0  0  0  0
   -1.7598   -0.4312    0.8204 H   0  0  0  0  0  0  0  0  0  0  0  0
   -0.7897    1.4979   -1.1942 H   0  0  0  0  0  0  0  0  0  0  0  0
   -1.1970    1.7508    0.5687 H   0  0  0  0  0  0  0  0  0  0  0  0
    1.4021    1.8709    0.2795 H   0  0  0  0  0  0  0  0  0  0  0  0
    0.8561   -0.1084    2.1186 H   0  0  0  0  0  0  0  0  0  0  0  0
    1.4651   -0.2293   -1.6047 H   0  0  0  0  0  0  0  0  0  0  0  0
    0.3328   -2.0513    0.1332 H   0  0  0  0  0  0  0  0  0  0  0  0
  1  2  1  0
  2  3  1  0
  3  4  1  0
  4  5  1  0
  5  6  1  0
  6  7  1  0
  7  8  1  0
  8  2  1  0
  7  4  1  0
  8  5  1  0
  1  9  1  0
  2 10  1  0
  3 11  1  0
  3 12  1  0
  4 13  1  0
  5 14  1  0
  7 15  1  0
  8 16  1  0
M  END
