
     RDKit          3D

 19 21  0  0  0  0  0  0  0  0999 V2000
    2.1249   -1.8931   -0.5939 O   0  0  0  0  0  0  0  0  0  0  0  0
    1.6243   -1.0389    0.3969 C   0  0  0  0  0  0  0  0  0  0  0  0
    1.2731    0.2783    0.0411 C   0  0  0  0  0  0  0  0  0  0  0  0
    0.6905    1.4079    0.7750 C   0  0  0  0  0  0  0  0  0  0  0  0
   -0.5797    1.6309    0.4215 C   0  0  0  0  0  0  0  0  0  0  0  0
   -1.2697    0.8021   -0.6004 C   0  0  0  0  0  0  0  0  0  0  0  0
   -2.2008   -0.2859   -0.2570 C   0  0  0  0  0  0  0  0  0  0  0  0
   -0.7841   -0.6525   -0.6273 C   0  0  0  0  0  0  0  0  0  0  0  0
    0.2187   -0.8303    0.4130 C   0  0  0  0  0  0  0  0  0  0  0  0
    3.0551   -1.5823   -0.7723 H   0  0  0  0  0  0  0  0  0  0  0  0
    2.1762   -1.2067    1.3506 H   0  0  0  0  0  0  0  0  0  0  0  0
    1.3661    0.5469   -1.0345 H   0  0  0  0  0  0  0  0  0  0  0  0
    1.2159    1.9912    1.5104 H   0  0  0  0  0  0  0  0  0  0  0  0
   -1.1541    2.4310    0.8724 H   0  0  0  0  0  0  0  0  0  0  0  0
   -1.4806    1.2908   -1.5749 H   0  0  0  0  0  0  0  0  0  0  0  0
   -3.0197   -0.5483   -0.9249 H   0  0  0  0  0  0  0  0  0  0  0  0
   -2.4311   -0.5324    0.8200 H   0  0  0  0  0  0  0  0  0  0  0  0
   -0.6003   -1.0322   -1.6680 H   0  0  0  0  0  0  0  0  0  0  0  0
   -0.2248   -0.7767    1.4522 H   0  0  0  0  0  0  0  0  0  0  0  0
  1  2  1  0
  2  3  1  0
  3  4  1  0
  4  5  2  0
  5  6  1  0
  6  7  1  0
  7  8  1  0
  8  9  1  0
  9  2  1  0
  9  3  1  0
  8  6  1  0
  1 10  1  0
  2 11  1  0
  3 12  1  0
  4 13  1  0
  5 14  1  0
  6 15  1  0
  7 16  1  0
  7 17  1  0
  8 18  1  0
  9 19  1  0
M  END
