
     RDKit          3D

 19 20  0  0  0  0  0  0  0  0999 V2000
   -1.0555   -1.8000   -0.4338 O   0  0  0  0  0  0  0  0  0  0  0  0
   -0.6700   -0.8039    0.4379 C   0  0  0  0  0  0  0  0  0  0  0  0
   -1.7985    0.2411    0.4393 C   0  0  0  0  0  0  0  0  0  0  0  0
   -1.3710    1.1625   -0.6700 C   0  0  0  0  0  0  0  0  0  0  0  0
   -0.0764    1.0155   -0.9122 C   0  0  0  0  0  0  0  0  0  0  0  0
    0.4723    0.0131   -0.0161 C   0  0  0  0  0  0  0  0  0  0  0  0
    1.7076   -0.7112   -0.4694 C   0  0  0  0  0  0  0  0  0  0  0  0
    2.4608    0.3298    0.1185 O   0  0  0  0  0  0  0  0  0  0  0  0
    1.4285    0.4998    1.0410 C   0  0  0  0  0  0  0  0  0  0  0  0
   -0.8538   -1.6121   -1.3833 H   0  0  0  0  0  0  0  0  0  0  0  0
   -0.5723   -1.2409    1.4494 H   0  0  0  0  0  0  0  0  0  0  0  0
   -1.7712    0.7223    1.4150 H   0  0  0  0  0  0  0  0  0  0  0  0
   -2.7586   -0.1905    0.1556 H   0  0  0  0  0  0  0  0  0  0  0  0
   -2.0860    1.8359   -1.1647 H   0  0  0  0  0  0  0  0  0  0  0  0
    0.4160    1.6120   -1.6974 H   0  0  0  0  0  0  0  0  0  0  0  0
    1.8980   -1.6621    0.0444 H   0  0  0  0  0  0  0  0  0  0  0  0
    1.8292   -0.7578   -1.5568 H   0  0  0  0  0  0  0  0  0  0  0  0
    1.2559    1.5623    1.3409 H   0  0  0  0  0  0  0  0  0  0  0  0
    1.5451   -0.2157    1.8617 H   0  0  0  0  0  0  0  0  0  0  0  0
  1  2  1  0
  2  3  1  0
  3  4  1  0
  4  5  2  0
  5  6  1  0
  6  7  1  0
  7  8  1  0
  8  9  1  0
  6  2  1  0
  9  6  1  0
  1 10  1  0
  2 11  1  0
  3 12  1  0
  3 13  1  0
  4 14  1  0
  5 15  1  0
  7 16  1  0
  7 17  1  0
  9 18  1  0
  9 19  1  0
M  END
