
     RDKit          3D

 15 16  0  0  0  0  0  0  0  0999 V2000
   -1.6744   -1.2875   -0.8086 O   0  0  0  0  0  0  0  0  0  0  0  0
   -1.1717   -0.5253    0.2316 C   0  0  0  0  0  0  0  0  0  0  0  0
   -1.4390    0.9205    0.0438 C   0  0  0  0  0  0  0  0  0  0  0  0
   -0.3116    1.5882   -0.0987 C   0  0  0  0  0  0  0  0  0  0  0  0
    0.7920    0.6497   -0.0182 C   0  0  0  0  0  0  0  0  0  0  0  0
    2.1892    0.5778   -0.0706 C   0  0  0  0  0  0  0  0  0  0  0  0
    2.4903   -0.6758    0.0891 O   0  0  0  0  0  0  0  0  0  0  0  0
    1.4285   -1.4303    0.2407 C   0  0  0  0  0  0  0  0  0  0  0  0
    0.3085   -0.6230    0.1791 C   0  0  0  0  0  0  0  0  0  0  0  0
   -2.6747   -1.2917   -0.6933 H   0  0  0  0  0  0  0  0  0  0  0  0
   -1.5384   -0.8731    1.2286 H   0  0  0  0  0  0  0  0  0  0  0  0
   -2.4140    1.3741    0.0247 H   0  0  0  0  0  0  0  0  0  0  0  0
   -0.2187    2.6703   -0.2523 H   0  0  0  0  0  0  0  0  0  0  0  0
    2.8353    1.4401   -0.2186 H   0  0  0  0  0  0  0  0  0  0  0  0
    1.3987   -2.5140    0.3917 H   0  0  0  0  0  0  0  0  0  0  0  0
  1  2  1  0
  2  3  1  0
  3  4  2  0
  4  5  1  0
  5  6  2  0
  6  7  1  0
  7  8  1  0
  8  9  2  0
  9  2  1  0
  9  5  1  0
  1 10  1  0
  2 11  1  0
  3 12  1  0
  4 13  1  0
  6 14  1  0
  8 15  1  0
M  END
