
     RDKit          3D

 15 16  0  0  0  0  0  0  0  0999 V2000
    2.0396   -0.1636   -0.5799 O   0  0  0  0  0  0  0  0  0  0  0  0
    0.9159   -0.5232    0.0998 C   0  0  0  0  0  0  0  0  0  0  0  0
    0.2174    0.5123    0.9143 C   0  0  0  0  0  0  0  0  0  0  0  0
   -0.1819    1.1494   -0.3914 C   0  0  0  0  0  0  0  0  0  0  0  0
   -0.3973   -0.3107   -0.6356 C   0  0  0  0  0  0  0  0  0  0  0  0
   -0.7841   -0.8939   -1.6691 O   0  0  0  0  0  0  0  0  0  0  0  0
   -1.0211   -0.3316    0.7394 C   0  0  0  0  0  0  0  0  0  0  0  0
    2.6359    0.4680   -0.1425 H   0  0  0  0  0  0  0  0  0  0  0  0
    0.9267   -1.5029    0.6318 H   0  0  0  0  0  0  0  0  0  0  0  0
    0.5204    0.9729    1.7466 H   0  0  0  0  0  0  0  0  0  0  0  0
   -1.1488    1.6905   -0.3266 H   0  0  0  0  0  0  0  0  0  0  0  0
    0.6172    1.6378   -0.9485 H   0  0  0  0  0  0  0  0  0  0  0  0
   -1.3727   -1.6733   -1.5417 H   0  0  0  0  0  0  0  0  0  0  0  0
   -0.9857   -1.2745    1.2833 H   0  0  0  0  0  0  0  0  0  0  0  0
   -1.9814    0.2427    0.8202 H   0  0  0  0  0  0  0  0  0  0  0  0
  1  2  1  0
  2  3  1  0
  3  4  1  0
  4  5  1  0
  5  6  1  0
  5  7  1  0
  5  2  1  0
  7  3  1  0
  1  8  1  0
  2  9  1  0
  3 10  1  0
  4 11  1  0
  4 12  1  0
  6 13  1  0
  7 14  1  0
  7 15  1  0
M  END
