
     RDKit          3D

 17 19  0  0  0  0  0  0  0  0999 V2000
    2.1247   -0.1921    0.6662 O   0  0  0  0  0  0  0  0  0  0  0  0
    1.2896    0.1297   -0.4041 C   0  0  0  0  0  0  0  0  0  0  0  0
    0.2460   -0.9219   -0.6245 C   0  0  0  0  0  0  0  0  0  0  0  0
   -0.2833   -0.5451    0.7297 C   0  0  0  0  0  0  0  0  0  0  0  0
   -1.7527   -0.6726    0.5712 C   0  0  0  0  0  0  0  0  0  0  0  0
   -1.9382   -0.1396   -0.7302 O   0  0  0  0  0  0  0  0  0  0  0  0
   -0.6510    0.1727   -1.1087 C   0  0  0  0  0  0  0  0  0  0  0  0
    0.0270    0.7774    0.1051 C   0  0  0  0  0  0  0  0  0  0  0  0
   -0.1242    1.9281    0.5646 O   0  0  0  0  0  0  0  0  0  0  0  0
    3.0239    0.1875    0.5840 H   0  0  0  0  0  0  0  0  0  0  0  0
    1.7601    0.5739   -1.2774 H   0  0  0  0  0  0  0  0  0  0  0  0
    0.3621   -1.8415   -1.0004 H   0  0  0  0  0  0  0  0  0  0  0  0
    0.2184   -0.8631    1.6066 H   0  0  0  0  0  0  0  0  0  0  0  0
   -2.3480   -0.0929    1.3005 H   0  0  0  0  0  0  0  0  0  0  0  0
   -2.0584   -1.7299    0.6030 H   0  0  0  0  0  0  0  0  0  0  0  0
   -0.4687    0.6243   -2.0630 H   0  0  0  0  0  0  0  0  0  0  0  0
    0.5726    2.6052    0.4775 H   0  0  0  0  0  0  0  0  0  0  0  0
  1  2  1  0
  2  3  1  0
  3  4  1  0
  4  5  1  0
  5  6  1  0
  6  7  1  0
  7  8  1  0
  8  9  1  0
  8  2  1  0
  7  3  1  0
  8  4  1  0
  1 10  1  0
  2 11  1  0
  3 12  1  0
  4 13  1  0
  5 14  1  0
  5 15  1  0
  7 16  1  0
  9 17  1  0
M  END
