
     RDKit          3D

 17 18  0  0  0  0  0  0  0  0999 V2000
    2.5451   -0.7398   -0.1546 O   0  0  0  0  0  0  0  0  0  0  0  0
    1.2366   -0.5536    0.3217 C   0  0  0  0  0  0  0  0  0  0  0  0
    1.0752    0.8032    0.9153 C   0  0  0  0  0  0  0  0  0  0  0  0
   -0.0569    1.3554    0.5197 C   0  0  0  0  0  0  0  0  0  0  0  0
   -0.7816    0.4451   -0.3760 C   0  0  0  0  0  0  0  0  0  0  0  0
   -1.5298    1.0039   -1.3803 O   0  0  0  0  0  0  0  0  0  0  0  0
   -1.4544   -0.7290    0.2934 C   0  0  0  0  0  0  0  0  0  0  0  0
   -0.7224   -1.6003   -0.5198 O   0  0  0  0  0  0  0  0  0  0  0  0
    0.2154   -0.6050   -0.7777 C   0  0  0  0  0  0  0  0  0  0  0  0
    2.4493   -1.1569   -1.0475 H   0  0  0  0  0  0  0  0  0  0  0  0
    1.0231   -1.2822    1.1279 H   0  0  0  0  0  0  0  0  0  0  0  0
    1.8019    1.2459    1.5745 H   0  0  0  0  0  0  0  0  0  0  0  0
   -0.3837    2.3426    0.8265 H   0  0  0  0  0  0  0  0  0  0  0  0
   -2.1949    1.6006   -0.9742 H   0  0  0  0  0  0  0  0  0  0  0  0
   -2.5437   -0.7760    0.0902 H   0  0  0  0  0  0  0  0  0  0  0  0
   -1.2563   -0.8275    1.3647 H   0  0  0  0  0  0  0  0  0  0  0  0
    0.5769   -0.5265   -1.8035 H   0  0  0  0  0  0  0  0  0  0  0  0
  1  2  1  0
  2  3  1  0
  3  4  2  0
  4  5  1  0
  5  6  1  0
  5  7  1  0
  7  8  1  0
  8  9  1  0
  9  2  1  0
  9  5  1  0
  1 10  1  0
  2 11  1  0
  3 12  1  0
  4 13  1  0
  6 14  1  0
  7 15  1  0
  7 16  1  0
  9 17  1  0
M  END
