
     RDKit          3D

 17 18  0  0  0  0  0  0  0  0999 V2000
    0.8078    1.8438    0.3354 O   0  0  0  0  0  0  0  0  0  0  0  0
   -0.0581    1.1507   -0.5321 C   0  0  0  0  0  0  0  0  0  0  0  0
   -1.2912    0.6817    0.1862 C   0  0  0  0  0  0  0  0  0  0  0  0
   -0.9664   -0.6930    0.7138 C   0  0  0  0  0  0  0  0  0  0  0  0
    0.1402   -1.1950   -0.1633 C   0  0  0  0  0  0  0  0  0  0  0  0
    1.5416   -0.8232    0.0398 C   0  0  0  0  0  0  0  0  0  0  0  0
    0.6600   -0.0865   -0.9776 C   0  0  0  0  0  0  0  0  0  0  0  0
    0.6683    1.4285    1.2260 H   0  0  0  0  0  0  0  0  0  0  0  0
   -0.2784    1.7940   -1.4121 H   0  0  0  0  0  0  0  0  0  0  0  0
   -1.6126    1.3297    1.0072 H   0  0  0  0  0  0  0  0  0  0  0  0
   -2.1179    0.6203   -0.5428 H   0  0  0  0  0  0  0  0  0  0  0  0
   -1.8773   -1.3279    0.5858 H   0  0  0  0  0  0  0  0  0  0  0  0
   -0.7268   -0.6935    1.7887 H   0  0  0  0  0  0  0  0  0  0  0  0
   -0.0493   -2.1548   -0.6924 H   0  0  0  0  0  0  0  0  0  0  0  0
    2.3236   -1.4816   -0.3740 H   0  0  0  0  0  0  0  0  0  0  0  0
    1.8952   -0.1550    0.8368 H   0  0  0  0  0  0  0  0  0  0  0  0
    0.9415   -0.2382   -2.0255 H   0  0  0  0  0  0  0  0  0  0  0  0
  1  2  1  0
  2  3  1  0
  3  4  1  0
  4  5  1  0
  5  6  1  0
  6  7  1  0
  7  2  1  0
  7  5  1  0
  1  8  1  0
  2  9  1  0
  3 10  1  0
  3 11  1  0
  4 12  1  0
  4 13  1  0
  5 14  1  0
  6 15  1  0
  6 16  1  0
  7 17  1  0
M  END
