
     RDKit          3D

 19 20  0  0  0  0  0  0  0  0999 V2000
    2.7401   -0.3659    0.0006 O   0  0  0  0  0  0  0  0  0  0  0  0
    1.4588   -0.1521    0.5557 C   0  0  0  0  0  0  0  0  0  0  0  0
    1.0183    1.2386    0.2722 C   0  0  0  0  0  0  0  0  0  0  0  0
   -0.2495    1.3557   -0.2450 O   0  0  0  0  0  0  0  0  0  0  0  0
   -1.1876    0.5526    0.3598 C   0  0  0  0  0  0  0  0  0  0  0  0
   -2.3701    0.1858   -0.5500 C   0  0  0  0  0  0  0  0  0  0  0  0
   -1.4310   -0.5899   -1.2651 O   0  0  0  0  0  0  0  0  0  0  0  0
   -0.8830   -0.8789    0.0067 C   0  0  0  0  0  0  0  0  0  0  0  0
    0.5608   -1.2190    0.0185 C   0  0  0  0  0  0  0  0  0  0  0  0
    3.2226    0.4899    0.0364 H   0  0  0  0  0  0  0  0  0  0  0  0
    1.6121   -0.2727    1.6629 H   0  0  0  0  0  0  0  0  0  0  0  0
    1.0910    1.8749    1.1949 H   0  0  0  0  0  0  0  0  0  0  0  0
    1.7272    1.7225   -0.4524 H   0  0  0  0  0  0  0  0  0  0  0  0
   -1.4815    0.7693    1.3789 H   0  0  0  0  0  0  0  0  0  0  0  0
   -3.0712   -0.4834   -0.0237 H   0  0  0  0  0  0  0  0  0  0  0  0
   -2.7820    1.0355   -1.0834 H   0  0  0  0  0  0  0  0  0  0  0  0
   -1.5390   -1.5538    0.5821 H   0  0  0  0  0  0  0  0  0  0  0  0
    0.6887   -2.1173    0.6923 H   0  0  0  0  0  0  0  0  0  0  0  0
    0.8753   -1.5918   -0.9897 H   0  0  0  0  0  0  0  0  0  0  0  0
  1  2  1  0
  2  3  1  0
  3  4  1  0
  4  5  1  0
  5  6  1  0
  6  7  1  0
  7  8  1  0
  8  9  1  0
  9  2  1  0
  8  5  1  0
  1 10  1  0
  2 11  1  0
  3 12  1  0
  3 13  1  0
  5 14  1  0
  6 15  1  0
  6 16  1  0
  8 17  1  0
  9 18  1  0
  9 19  1  0
M  END
