
     RDKit          3D

 16 17  0  0  0  0  0  0  0  0999 V2000
    2.4214   -0.1437   -0.1386 O   0  0  0  0  0  0  0  0  0  0  0  0
    1.1765   -0.1168    0.4460 C   0  0  0  0  0  0  0  0  0  0  0  0
    0.2621   -1.2575   -0.0242 C   0  0  0  0  0  0  0  0  0  0  0  0
   -0.8406   -0.2528   -0.1125 C   0  0  0  0  0  0  0  0  0  0  0  0
   -2.0986   -0.2610    0.4437 C   0  0  0  0  0  0  0  0  0  0  0  0
   -1.8943   -0.3850   -0.9621 O   0  0  0  0  0  0  0  0  0  0  0  0
    0.1729    0.8301   -0.2268 C   0  0  0  0  0  0  0  0  0  0  0  0
    0.5811    1.1879   -1.4962 O   0  0  0  0  0  0  0  0  0  0  0  0
    2.8766    0.7085    0.1078 H   0  0  0  0  0  0  0  0  0  0  0  0
    1.1396    0.0481    1.5292 H   0  0  0  0  0  0  0  0  0  0  0  0
    0.5712   -1.7149   -0.9796 H   0  0  0  0  0  0  0  0  0  0  0  0
    0.0474   -2.0139    0.7348 H   0  0  0  0  0  0  0  0  0  0  0  0
   -2.6153    0.6705    0.7897 H   0  0  0  0  0  0  0  0  0  0  0  0
   -2.5247   -1.1608    0.9623 H   0  0  0  0  0  0  0  0  0  0  0  0
   -0.1037    1.7038    0.4005 H   0  0  0  0  0  0  0  0  0  0  0  0
    0.8285    2.1577   -1.4740 H   0  0  0  0  0  0  0  0  0  0  0  0
  1  2  1  0
  2  3  1  0
  3  4  1  0
  4  5  1  0
  5  6  1  0
  4  7  1  0
  7  8  1  0
  7  2  1  0
  6  4  1  0
  1  9  1  0
  2 10  1  0
  3 11  1  0
  3 12  1  0
  5 13  1  0
  5 14  1  0
  7 15  1  0
  8 16  1  0
M  END
