
     RDKit          3D

 19 20  0  0  0  0  0  0  0  0999 V2000
    1.9482    0.7888    1.2766 O   0  0  0  0  0  0  0  0  0  0  0  0
    1.7579    0.4299   -0.0497 C   0  0  0  0  0  0  0  0  0  0  0  0
    1.2992   -0.9773   -0.1194 C   0  0  0  0  0  0  0  0  0  0  0  0
    0.1165   -1.4616    0.1945 C   0  0  0  0  0  0  0  0  0  0  0  0
   -1.0606   -0.7785    0.6913 C   0  0  0  0  0  0  0  0  0  0  0  0
   -2.1628   -0.5956   -0.3210 C   0  0  0  0  0  0  0  0  0  0  0  0
   -1.3710    0.5617    0.2563 C   0  0  0  0  0  0  0  0  0  0  0  0
   -0.4917    1.3488   -0.5708 C   0  0  0  0  0  0  0  0  0  0  0  0
    0.8074    1.3414   -0.7397 C   0  0  0  0  0  0  0  0  0  0  0  0
    2.7914    0.4806    1.6507 H   0  0  0  0  0  0  0  0  0  0  0  0
    2.7242    0.4893   -0.5844 H   0  0  0  0  0  0  0  0  0  0  0  0
    2.0174   -1.6887   -0.4671 H   0  0  0  0  0  0  0  0  0  0  0  0
   -0.0206   -2.5421    0.0688 H   0  0  0  0  0  0  0  0  0  0  0  0
   -1.3975   -1.0502    1.7473 H   0  0  0  0  0  0  0  0  0  0  0  0
   -1.9814   -0.9004   -1.3689 H   0  0  0  0  0  0  0  0  0  0  0  0
   -3.1747   -0.7955    0.0308 H   0  0  0  0  0  0  0  0  0  0  0  0
   -2.0583    1.2060    0.9118 H   0  0  0  0  0  0  0  0  0  0  0  0
   -1.0202    2.1078   -1.1826 H   0  0  0  0  0  0  0  0  0  0  0  0
    1.2763    2.0355   -1.4244 H   0  0  0  0  0  0  0  0  0  0  0  0
  1  2  1  0
  2  3  1  0
  3  4  2  0
  4  5  1  0
  5  6  1  0
  6  7  1  0
  7  8  1  0
  8  9  2  0
  9  2  1  0
  7  5  1  0
  1 10  1  0
  2 11  1  0
  3 12  1  0
  4 13  1  0
  5 14  1  0
  6 15  1  0
  6 16  1  0
  7 17  1  0
  8 18  1  0
  9 19  1  0
M  END
