
     RDKit          3D

 21 23  0  0  0  0  0  0  0  0999 V2000
    2.1648   -0.5889    1.7138 O   0  0  0  0  0  0  0  0  0  0  0  0
    1.6119    0.4379    0.9728 C   0  0  0  0  0  0  0  0  0  0  0  0
    1.9431    0.3911   -0.4954 C   0  0  0  0  0  0  0  0  0  0  0  0
    0.5335    0.0899    0.0295 C   0  0  0  0  0  0  0  0  0  0  0  0
    0.0206   -1.3122   -0.0594 C   0  0  0  0  0  0  0  0  0  0  0  0
   -1.3648   -1.2386   -0.6129 C   0  0  0  0  0  0  0  0  0  0  0  0
   -1.6388    0.1946   -0.9240 C   0  0  0  0  0  0  0  0  0  0  0  0
   -1.8402    1.1018    0.2709 C   0  0  0  0  0  0  0  0  0  0  0  0
   -0.5306    1.0270   -0.3926 C   0  0  0  0  0  0  0  0  0  0  0  0
    2.3674   -0.3546    2.6436 H   0  0  0  0  0  0  0  0  0  0  0  0
    1.6194    1.4281    1.4641 H   0  0  0  0  0  0  0  0  0  0  0  0
    2.0935    1.3932   -0.9770 H   0  0  0  0  0  0  0  0  0  0  0  0
    2.4330   -0.4853   -0.9184 H   0  0  0  0  0  0  0  0  0  0  0  0
    0.7167   -1.9021   -0.6933 H   0  0  0  0  0  0  0  0  0  0  0  0
    0.0342   -1.7470    0.9666 H   0  0  0  0  0  0  0  0  0  0  0  0
   -2.0603   -1.6940    0.1117 H   0  0  0  0  0  0  0  0  0  0  0  0
   -1.4420   -1.8218   -1.5522 H   0  0  0  0  0  0  0  0  0  0  0  0
   -2.0242    0.5028   -1.9140 H   0  0  0  0  0  0  0  0  0  0  0  0
   -1.9504    0.6514    1.2679 H   0  0  0  0  0  0  0  0  0  0  0  0
   -2.4840    1.9740    0.0440 H   0  0  0  0  0  0  0  0  0  0  0  0
   -0.2026    1.9525   -0.9458 H   0  0  0  0  0  0  0  0  0  0  0  0
  1  2  1  0
  2  3  1  0
  3  4  1  0
  4  5  1  0
  5  6  1  0
  6  7  1  0
  7  8  1  0
  8  9  1  0
  4  2  1  0
  9  7  1  0
  9  4  1  0
  1 10  1  0
  2 11  1  0
  3 12  1  0
  3 13  1  0
  5 14  1  0
  5 15  1  0
  6 16  1  0
  6 17  1  0
  7 18  1  0
  8 19  1  0
  8 20  1  0
  9 21  1  0
M  END
