
     RDKit          3D

 19 20  0  0  0  0  0  0  0  0999 V2000
   -1.0926    1.6341   -0.7180 O   0  0  0  0  0  0  0  0  0  0  0  0
   -0.7824    0.7560    0.3140 C   0  0  0  0  0  0  0  0  0  0  0  0
   -1.8929   -0.2972    0.3914 C   0  0  0  0  0  0  0  0  0  0  0  0
   -1.2407   -1.5304    0.3993 O   0  0  0  0  0  0  0  0  0  0  0  0
   -0.2353   -1.3323   -0.5770 C   0  0  0  0  0  0  0  0  0  0  0  0
    0.4038   -0.0794   -0.0310 C   0  0  0  0  0  0  0  0  0  0  0  0
    1.4965    0.5260   -0.8105 C   0  0  0  0  0  0  0  0  0  0  0  0
    2.3199    0.4347    0.3372 O   0  0  0  0  0  0  0  0  0  0  0  0
    1.3665   -0.2946    1.0842 C   0  0  0  0  0  0  0  0  0  0  0  0
   -0.4274    2.3506   -0.7355 H   0  0  0  0  0  0  0  0  0  0  0  0
   -0.6419    1.2762    1.2647 H   0  0  0  0  0  0  0  0  0  0  0  0
   -2.4905   -0.2667   -0.5418 H   0  0  0  0  0  0  0  0  0  0  0  0
   -2.4894   -0.1604    1.3070 H   0  0  0  0  0  0  0  0  0  0  0  0
    0.4691   -2.1589   -0.6267 H   0  0  0  0  0  0  0  0  0  0  0  0
   -0.7757   -1.1118   -1.5120 H   0  0  0  0  0  0  0  0  0  0  0  0
    1.3960    1.5409   -1.1911 H   0  0  0  0  0  0  0  0  0  0  0  0
    1.9484   -0.1661   -1.5781 H   0  0  0  0  0  0  0  0  0  0  0  0
    1.0346    0.2357    2.0045 H   0  0  0  0  0  0  0  0  0  0  0  0
    1.6338   -1.3563    1.2193 H   0  0  0  0  0  0  0  0  0  0  0  0
  1  2  1  0
  2  3  1  0
  3  4  1  0
  4  5  1  0
  5  6  1  0
  6  7  1  0
  7  8  1  0
  8  9  1  0
  6  2  1  0
  9  6  1  0
  1 10  1  0
  2 11  1  0
  3 12  1  0
  3 13  1  0
  5 14  1  0
  5 15  1  0
  7 16  1  0
  7 17  1  0
  9 18  1  0
  9 19  1  0
M  END
