
     RDKit          3D

 18 19  0  0  0  0  0  0  0  0999 V2000
    2.4303   -0.3362   -0.5143 O   0  0  0  0  0  0  0  0  0  0  0  0
    1.3048   -0.2524    0.2631 C   0  0  0  0  0  0  0  0  0  0  0  0
    0.9234    1.1636    0.4353 C   0  0  0  0  0  0  0  0  0  0  0  0
   -0.3981    1.3882    0.8881 O   0  0  0  0  0  0  0  0  0  0  0  0
   -1.2086    0.7008    0.0580 C   0  0  0  0  0  0  0  0  0  0  0  0
   -2.2495   -0.2352    0.2414 C   0  0  0  0  0  0  0  0  0  0  0  0
   -0.9792   -0.7759    0.5384 C   0  0  0  0  0  0  0  0  0  0  0  0
    0.1822   -1.1636   -0.2645 C   0  0  0  0  0  0  0  0  0  0  0  0
    2.7639    0.5447   -0.8356 H   0  0  0  0  0  0  0  0  0  0  0  0
    1.5352   -0.6735    1.2862 H   0  0  0  0  0  0  0  0  0  0  0  0
    1.5724    1.6153    1.2144 H   0  0  0  0  0  0  0  0  0  0  0  0
    1.0003    1.7376   -0.5360 H   0  0  0  0  0  0  0  0  0  0  0  0
   -0.9299    0.9290   -1.0160 H   0  0  0  0  0  0  0  0  0  0  0  0
   -2.7958   -0.6248   -0.6658 H   0  0  0  0  0  0  0  0  0  0  0  0
   -2.9871   -0.0774    1.0601 H   0  0  0  0  0  0  0  0  0  0  0  0
   -0.7464   -0.9051    1.6408 H   0  0  0  0  0  0  0  0  0  0  0  0
    0.5258   -2.1932   -0.1833 H   0  0  0  0  0  0  0  0  0  0  0  0
    0.0562   -0.8421   -1.3390 H   0  0  0  0  0  0  0  0  0  0  0  0
  1  2  1  0
  2  3  1  0
  3  4  1  0
  4  5  1  0
  5  6  1  0
  6  7  1  0
  7  8  1  0
  8  2  1  0
  7  5  1  0
  1  9  1  0
  2 10  1  0
  3 11  1  0
  3 12  1  0
  5 13  1  0
  6 14  1  0
  6 15  1  0
  7 16  1  0
  8 17  1  0
  8 18  1  0
M  END
