
     RDKit          3D

 18 19  0  0  0  0  0  0  0  0999 V2000
   -0.6444    1.8831    0.4087 O   0  0  0  0  0  0  0  0  0  0  0  0
   -0.3811    0.8584   -0.4967 C   0  0  0  0  0  0  0  0  0  0  0  0
   -1.6139    0.0132   -0.7645 C   0  0  0  0  0  0  0  0  0  0  0  0
   -1.5660   -1.0144    0.3201 C   0  0  0  0  0  0  0  0  0  0  0  0
   -0.3446   -1.0869    0.8435 C   0  0  0  0  0  0  0  0  0  0  0  0
    0.5224   -0.1251    0.1627 C   0  0  0  0  0  0  0  0  0  0  0  0
    1.7828    0.3860    0.7153 C   0  0  0  0  0  0  0  0  0  0  0  0
    1.7686   -0.5502   -0.5146 C   0  0  0  0  0  0  0  0  0  0  0  0
   -1.5267    1.7380    0.7922 H   0  0  0  0  0  0  0  0  0  0  0  0
    0.0213    1.3249   -1.4047 H   0  0  0  0  0  0  0  0  0  0  0  0
   -1.4694   -0.4325   -1.7698 H   0  0  0  0  0  0  0  0  0  0  0  0
   -2.5143    0.6196   -0.7541 H   0  0  0  0  0  0  0  0  0  0  0  0
   -2.4463   -1.5969    0.6020 H   0  0  0  0  0  0  0  0  0  0  0  0
   -0.1309   -1.7872    1.6492 H   0  0  0  0  0  0  0  0  0  0  0  0
    2.3045   -0.0365    1.5723 H   0  0  0  0  0  0  0  0  0  0  0  0
    2.0616    1.4542    0.5129 H   0  0  0  0  0  0  0  0  0  0  0  0
    1.9778   -0.0898   -1.4823 H   0  0  0  0  0  0  0  0  0  0  0  0
    2.1985   -1.5580   -0.3920 H   0  0  0  0  0  0  0  0  0  0  0  0
  1  2  1  0
  2  3  1  0
  3  4  1  0
  4  5  2  0
  5  6  1  0
  6  7  1  0
  7  8  1  0
  6  2  1  0
  8  6  1  0
  1  9  1  0
  2 10  1  0
  3 11  1  0
  3 12  1  0
  4 13  1  0
  5 14  1  0
  7 15  1  0
  7 16  1  0
  8 17  1  0
  8 18  1  0
M  END
