
     RDKit          3D

 18 20  0  0  0  0  0  0  0  0999 V2000
   -2.4022    0.4875    0.4313 O   0  0  0  0  0  0  0  0  0  0  0  0
   -1.2097    0.3889   -0.3053 C   0  0  0  0  0  0  0  0  0  0  0  0
   -0.8515   -1.0611   -0.3835 C   0  0  0  0  0  0  0  0  0  0  0  0
    0.6051   -1.1278    0.0714 C   0  0  0  0  0  0  0  0  0  0  0  0
    1.4908   -0.2920   -0.8175 C   0  0  0  0  0  0  0  0  0  0  0  0
    1.2920    0.8562    0.1349 C   0  0  0  0  0  0  0  0  0  0  0  0
   -0.1406    1.0781    0.5145 C   0  0  0  0  0  0  0  0  0  0  0  0
    0.6359   -0.0277    1.0830 C   0  0  0  0  0  0  0  0  0  0  0  0
   -2.6861    1.4258    0.5129 H   0  0  0  0  0  0  0  0  0  0  0  0
   -1.3629    0.8309   -1.2916 H   0  0  0  0  0  0  0  0  0  0  0  0
   -1.4362   -1.6859    0.3441 H   0  0  0  0  0  0  0  0  0  0  0  0
   -0.9637   -1.4717   -1.4168 H   0  0  0  0  0  0  0  0  0  0  0  0
    0.9676   -2.1079    0.3605 H   0  0  0  0  0  0  0  0  0  0  0  0
    2.5034   -0.6392   -0.9852 H   0  0  0  0  0  0  0  0  0  0  0  0
    0.9803   -0.0392   -1.7920 H   0  0  0  0  0  0  0  0  0  0  0  0
    2.0768    1.5643    0.3606 H   0  0  0  0  0  0  0  0  0  0  0  0
   -0.3673    1.9934    1.0591 H   0  0  0  0  0  0  0  0  0  0  0  0
    0.8682   -0.1725    2.1195 H   0  0  0  0  0  0  0  0  0  0  0  0
  1  2  1  0
  2  3  1  0
  3  4  1  0
  4  5  1  0
  5  6  1  0
  6  7  1  0
  7  8  1  0
  7  2  1  0
  8  4  1  0
  8  6  1  0
  1  9  1  0
  2 10  1  0
  3 11  1  0
  3 12  1  0
  4 13  1  0
  5 14  1  0
  5 15  1  0
  6 16  1  0
  7 17  1  0
  8 18  1  0
M  END
