
     RDKit          3D

 21 23  0  0  0  0  0  0  0  0999 V2000
   -2.9919    1.1116   -0.0319 O   0  0  0  0  0  0  0  0  0  0  0  0
   -1.7963    0.5681   -0.5217 C   0  0  0  0  0  0  0  0  0  0  0  0
   -1.7952   -0.9362   -0.3285 C   0  0  0  0  0  0  0  0  0  0  0  0
   -0.6826   -0.8540    0.6754 C   0  0  0  0  0  0  0  0  0  0  0  0
   -0.6257    0.6740    0.3870 C   0  0  0  0  0  0  0  0  0  0  0  0
    0.5382   -0.1869    0.2897 C   0  0  0  0  0  0  0  0  0  0  0  0
    1.7406    0.0195    1.1094 C   0  0  0  0  0  0  0  0  0  0  0  0
    2.5237    0.2592   -0.1907 C   0  0  0  0  0  0  0  0  0  0  0  0
    1.3514   -0.4294   -0.9073 C   0  0  0  0  0  0  0  0  0  0  0  0
   -3.3410    1.8311   -0.6158 H   0  0  0  0  0  0  0  0  0  0  0  0
   -1.6540    0.9101   -1.5651 H   0  0  0  0  0  0  0  0  0  0  0  0
   -1.5065   -1.4156   -1.3039 H   0  0  0  0  0  0  0  0  0  0  0  0
   -2.7206   -1.3351    0.1230 H   0  0  0  0  0  0  0  0  0  0  0  0
   -0.8495   -1.1479    1.7271 H   0  0  0  0  0  0  0  0  0  0  0  0
   -0.7915    1.3005    1.2880 H   0  0  0  0  0  0  0  0  0  0  0  0
    1.7562    0.9439    1.7377 H   0  0  0  0  0  0  0  0  0  0  0  0
    2.1034   -0.8520    1.6899 H   0  0  0  0  0  0  0  0  0  0  0  0
    2.6125    1.3344   -0.4173 H   0  0  0  0  0  0  0  0  0  0  0  0
    3.4737   -0.3079   -0.2501 H   0  0  0  0  0  0  0  0  0  0  0  0
    1.5917   -1.5200   -1.0394 H   0  0  0  0  0  0  0  0  0  0  0  0
    1.0635    0.0327   -1.8554 H   0  0  0  0  0  0  0  0  0  0  0  0
  1  2  1  0
  2  3  1  0
  3  4  1  0
  4  5  1  0
  5  6  1  0
  6  7  1  0
  7  8  1  0
  8  9  1  0
  5  2  1  0
  9  6  1  0
  6  4  1  0
  1 10  1  0
  2 11  1  0
  3 12  1  0
  3 13  1  0
  4 14  1  0
  5 15  1  0
  7 16  1  0
  7 17  1  0
  8 18  1  0
  8 19  1  0
  9 20  1  0
  9 21  1  0
M  END
