
     RDKit          3D

 19 20  0  0  0  0  0  0  0  0999 V2000
   -2.5376   -0.1617    0.7036 O   0  0  0  0  0  0  0  0  0  0  0  0
   -1.1470   -0.1047    0.7110 C   0  0  0  0  0  0  0  0  0  0  0  0
   -0.6119   -1.3924    0.0989 C   0  0  0  0  0  0  0  0  0  0  0  0
    0.3162   -0.7938   -0.9643 C   0  0  0  0  0  0  0  0  0  0  0  0
   -0.5627    0.1982   -1.4637 O   0  0  0  0  0  0  0  0  0  0  0  0
   -0.7169    0.9412   -0.2662 C   0  0  0  0  0  0  0  0  0  0  0  0
    0.7434    1.3491   -0.0802 C   0  0  0  0  0  0  0  0  0  0  0  0
    1.4182    0.0166   -0.3543 C   0  0  0  0  0  0  0  0  0  0  0  0
    1.9563   -0.5366    0.7841 O   0  0  0  0  0  0  0  0  0  0  0  0
   -2.9606    0.5606    1.1989 H   0  0  0  0  0  0  0  0  0  0  0  0
   -0.7119   -0.0168    1.7087 H   0  0  0  0  0  0  0  0  0  0  0  0
   -1.4255   -1.8910   -0.4663 H   0  0  0  0  0  0  0  0  0  0  0  0
   -0.0878   -2.0251    0.8065 H   0  0  0  0  0  0  0  0  0  0  0  0
    0.6191   -1.5080   -1.7147 H   0  0  0  0  0  0  0  0  0  0  0  0
   -1.3852    1.7847   -0.3791 H   0  0  0  0  0  0  0  0  0  0  0  0
    0.9811    2.0056   -0.9468 H   0  0  0  0  0  0  0  0  0  0  0  0
    0.9572    1.7660    0.8894 H   0  0  0  0  0  0  0  0  0  0  0  0
    2.2281    0.1149   -1.1167 H   0  0  0  0  0  0  0  0  0  0  0  0
    2.9276   -0.3067    0.8511 H   0  0  0  0  0  0  0  0  0  0  0  0
  1  2  1  0
  2  3  1  0
  3  4  1  0
  4  5  1  0
  5  6  1  0
  6  7  1  0
  7  8  1  0
  8  9  1  0
  6  2  1  0
  8  4  1  0
  1 10  1  0
  2 11  1  0
  3 12  1  0
  3 13  1  0
  4 14  1  0
  6 15  1  0
  7 16  1  0
  7 17  1  0
  8 18  1  0
  9 19  1  0
M  END
