
     RDKit          3D

 17 19  0  0  0  0  0  0  0  0999 V2000
   -1.4621   -0.2609   -2.0462 O   0  0  0  0  0  0  0  0  0  0  0  0
   -1.3253    0.5922   -0.9332 C   0  0  0  0  0  0  0  0  0  0  0  0
   -1.0905   -0.0837    0.3453 C   0  0  0  0  0  0  0  0  0  0  0  0
   -0.1375   -1.2813    0.2299 C   0  0  0  0  0  0  0  0  0  0  0  0
    0.9326   -0.2798    0.0531 C   0  0  0  0  0  0  0  0  0  0  0  0
    2.2855   -0.3998    0.1128 C   0  0  0  0  0  0  0  0  0  0  0  0
    1.6297   -0.0021    1.3393 O   0  0  0  0  0  0  0  0  0  0  0  0
    0.0138    0.7890   -0.3320 C   0  0  0  0  0  0  0  0  0  0  0  0
    0.2247    2.0499    0.2077 O   0  0  0  0  0  0  0  0  0  0  0  0
   -2.3754   -0.6866   -1.9958 H   0  0  0  0  0  0  0  0  0  0  0  0
   -2.0442    1.4093   -0.9380 H   0  0  0  0  0  0  0  0  0  0  0  0
   -1.3857    0.2783    1.3203 H   0  0  0  0  0  0  0  0  0  0  0  0
   -0.3528   -1.8325   -0.7268 H   0  0  0  0  0  0  0  0  0  0  0  0
   -0.1149   -1.9340    1.1053 H   0  0  0  0  0  0  0  0  0  0  0  0
    2.9755    0.4163   -0.2104 H   0  0  0  0  0  0  0  0  0  0  0  0
    2.8141   -1.3515    0.2689 H   0  0  0  0  0  0  0  0  0  0  0  0
   -0.5875    2.5772    0.3291 H   0  0  0  0  0  0  0  0  0  0  0  0
  1  2  1  0
  2  3  1  0
  3  4  1  0
  4  5  1  0
  5  6  1  0
  6  7  1  0
  5  8  1  0
  8  9  1  0
  8  2  1  0
  8  3  1  0
  7  5  1  0
  1 10  1  0
  2 11  1  0
  3 12  1  0
  4 13  1  0
  4 14  1  0
  6 15  1  0
  6 16  1  0
  9 17  1  0
M  END
