
     RDKit          3D

 19 20  0  0  0  0  0  0  0  0999 V2000
   -1.2672   -1.6394   -1.4066 O   0  0  0  0  0  0  0  0  0  0  0  0
   -0.9926   -0.4008   -0.8573 C   0  0  0  0  0  0  0  0  0  0  0  0
   -2.0049   -0.0581    0.2559 C   0  0  0  0  0  0  0  0  0  0  0  0
   -1.2548    1.0877    0.8916 C   0  0  0  0  0  0  0  0  0  0  0  0
    0.0511    0.9280    0.7231 C   0  0  0  0  0  0  0  0  0  0  0  0
    1.5622    1.0194    0.6912 C   0  0  0  0  0  0  0  0  0  0  0  0
    1.5049    0.1743   -0.5993 C   0  0  0  0  0  0  0  0  0  0  0  0
    2.5569   -0.7554   -0.6571 O   0  0  0  0  0  0  0  0  0  0  0  0
    0.2542   -0.3741   -0.0299 C   0  0  0  0  0  0  0  0  0  0  0  0
   -0.7366   -2.3371   -0.9217 H   0  0  0  0  0  0  0  0  0  0  0  0
   -1.0589    0.4275   -1.5721 H   0  0  0  0  0  0  0  0  0  0  0  0
   -2.9571    0.2635   -0.1780 H   0  0  0  0  0  0  0  0  0  0  0  0
   -2.0865   -0.8995    0.9707 H   0  0  0  0  0  0  0  0  0  0  0  0
   -1.6937    1.9264    1.4128 H   0  0  0  0  0  0  0  0  0  0  0  0
    1.9520    2.0163    0.4931 H   0  0  0  0  0  0  0  0  0  0  0  0
    1.9598    0.4740    1.5543 H   0  0  0  0  0  0  0  0  0  0  0  0
    1.3925    0.7827   -1.4972 H   0  0  0  0  0  0  0  0  0  0  0  0
    2.4828   -1.3794    0.1045 H   0  0  0  0  0  0  0  0  0  0  0  0
    0.3358   -1.2560    0.6218 H   0  0  0  0  0  0  0  0  0  0  0  0
  1  2  1  0
  2  3  1  0
  3  4  1  0
  4  5  2  0
  5  6  1  0
  6  7  1  0
  7  8  1  0
  7  9  1  0
  9  2  1  0
  9  5  1  0
  1 10  1  0
  2 11  1  0
  3 12  1  0
  3 13  1  0
  4 14  1  0
  6 15  1  0
  6 16  1  0
  7 17  1  0
  8 18  1  0
  9 19  1  0
M  END
