
     RDKit          3D

 19 20  0  0  0  0  0  0  0  0999 V2000
    2.6040   -0.9544   -0.0123 O   0  0  0  0  0  0  0  0  0  0  0  0
    1.4694   -0.3218   -0.5744 C   0  0  0  0  0  0  0  0  0  0  0  0
    1.2309    1.0743   -0.0016 C   0  0  0  0  0  0  0  0  0  0  0  0
   -0.0910    0.6550    0.5553 C   0  0  0  0  0  0  0  0  0  0  0  0
   -1.3098    1.0610   -0.2248 C   0  0  0  0  0  0  0  0  0  0  0  0
   -2.3687    0.1982    0.1447 O   0  0  0  0  0  0  0  0  0  0  0  0
   -1.9459   -1.1241    0.1849 C   0  0  0  0  0  0  0  0  0  0  0  0
   -0.8200   -1.1948   -0.6694 O   0  0  0  0  0  0  0  0  0  0  0  0
    0.2443   -0.7754    0.1354 C   0  0  0  0  0  0  0  0  0  0  0  0
    3.4358   -0.6594   -0.4186 H   0  0  0  0  0  0  0  0  0  0  0  0
    1.4504   -0.3679   -1.6796 H   0  0  0  0  0  0  0  0  0  0  0  0
    1.2245    1.8840   -0.7421 H   0  0  0  0  0  0  0  0  0  0  0  0
    1.9517    1.2648    0.8421 H   0  0  0  0  0  0  0  0  0  0  0  0
   -0.2371    0.8075    1.6236 H   0  0  0  0  0  0  0  0  0  0  0  0
   -1.6563    2.0887    0.0293 H   0  0  0  0  0  0  0  0  0  0  0  0
   -1.1709    0.9964   -1.3233 H   0  0  0  0  0  0  0  0  0  0  0  0
   -2.7051   -1.8519   -0.0939 H   0  0  0  0  0  0  0  0  0  0  0  0
   -1.6534   -1.3381    1.2364 H   0  0  0  0  0  0  0  0  0  0  0  0
    0.3473   -1.4419    0.9882 H   0  0  0  0  0  0  0  0  0  0  0  0
  1  2  1  0
  2  3  1  0
  3  4  1  0
  4  5  1  0
  5  6  1  0
  6  7  1  0
  7  8  1  0
  8  9  1  0
  9  2  1  0
  9  4  1  0
  1 10  1  0
  2 11  1  0
  3 12  1  0
  3 13  1  0
  4 14  1  0
  5 15  1  0
  5 16  1  0
  7 17  1  0
  7 18  1  0
  9 19  1  0
M  END
