
     RDKit          3D

 19 21  0  0  0  0  0  0  0  0999 V2000
    2.4416   -0.6243    0.6836 O   0  0  0  0  0  0  0  0  0  0  0  0
    1.3051   -0.5095   -0.0653 C   0  0  0  0  0  0  0  0  0  0  0  0
    1.2170    0.8283   -0.8084 C   0  0  0  0  0  0  0  0  0  0  0  0
   -0.2828    1.0317   -0.7955 C   0  0  0  0  0  0  0  0  0  0  0  0
   -0.8185   -0.1497   -1.3705 O   0  0  0  0  0  0  0  0  0  0  0  0
   -1.1133   -0.9236   -0.2713 C   0  0  0  0  0  0  0  0  0  0  0  0
   -1.9191    0.0801    0.5695 C   0  0  0  0  0  0  0  0  0  0  0  0
   -0.5899    0.7681    0.6498 C   0  0  0  0  0  0  0  0  0  0  0  0
    0.0260   -0.6406    0.6889 C   0  0  0  0  0  0  0  0  0  0  0  0
    2.6373   -1.6096    0.7882 H   0  0  0  0  0  0  0  0  0  0  0  0
    1.2977   -1.2845   -0.8748 H   0  0  0  0  0  0  0  0  0  0  0  0
    1.6465    1.6486   -0.1859 H   0  0  0  0  0  0  0  0  0  0  0  0
    1.6080    0.7761   -1.8182 H   0  0  0  0  0  0  0  0  0  0  0  0
   -0.6441    1.9381   -1.2180 H   0  0  0  0  0  0  0  0  0  0  0  0
   -1.4891   -1.9049   -0.3614 H   0  0  0  0  0  0  0  0  0  0  0  0
   -2.3477   -0.3180    1.4798 H   0  0  0  0  0  0  0  0  0  0  0  0
   -2.6372    0.5829   -0.1378 H   0  0  0  0  0  0  0  0  0  0  0  0
   -0.3508    1.4451    1.4086 H   0  0  0  0  0  0  0  0  0  0  0  0
    0.0132   -1.1344    1.6388 H   0  0  0  0  0  0  0  0  0  0  0  0
  1  2  1  0
  2  3  1  0
  3  4  1  0
  4  5  1  0
  5  6  1  0
  6  7  1  0
  7  8  1  0
  8  9  1  0
  9  2  1  0
  8  4  1  0
  9  6  1  0
  1 10  1  0
  2 11  1  0
  3 12  1  0
  3 13  1  0
  4 14  1  0
  6 15  1  0
  7 16  1  0
  7 17  1  0
  8 18  1  0
  9 19  1  0
M  END
