
     RDKit          3D

 21 23  0  0  0  0  0  0  0  0999 V2000
    3.0457   -0.4892    0.3659 O   0  0  0  0  0  0  0  0  0  0  0  0
    2.0496    0.2916   -0.1688 C   0  0  0  0  0  0  0  0  0  0  0  0
    1.0056    0.7844    0.8418 C   0  0  0  0  0  0  0  0  0  0  0  0
   -0.0210    0.0733    0.0699 C   0  0  0  0  0  0  0  0  0  0  0  0
    0.9908   -0.5744   -0.8177 C   0  0  0  0  0  0  0  0  0  0  0  0
   -1.0381    0.8304   -0.6924 C   0  0  0  0  0  0  0  0  0  0  0  0
   -2.0258   -0.2903   -0.3360 C   0  0  0  0  0  0  0  0  0  0  0  0
   -2.3797   -0.3533    1.0894 C   0  0  0  0  0  0  0  0  0  0  0  0
   -1.0137   -0.7710    0.7442 C   0  0  0  0  0  0  0  0  0  0  0  0
    3.9172   -0.1547    0.0106 H   0  0  0  0  0  0  0  0  0  0  0  0
    2.3953    1.1496   -0.7565 H   0  0  0  0  0  0  0  0  0  0  0  0
    1.1675    0.3268    1.8577 H   0  0  0  0  0  0  0  0  0  0  0  0
    0.9218    1.8629    0.9307 H   0  0  0  0  0  0  0  0  0  0  0  0
    0.8954   -0.3416   -1.9124 H   0  0  0  0  0  0  0  0  0  0  0  0
    1.0880   -1.6513   -0.6726 H   0  0  0  0  0  0  0  0  0  0  0  0
   -0.8443    0.9166   -1.7786 H   0  0  0  0  0  0  0  0  0  0  0  0
   -1.4162    1.7761   -0.2150 H   0  0  0  0  0  0  0  0  0  0  0  0
   -2.2573   -1.0524   -1.0724 H   0  0  0  0  0  0  0  0  0  0  0  0
   -3.0876   -1.1239    1.4212 H   0  0  0  0  0  0  0  0  0  0  0  0
   -2.5935    0.6435    1.5693 H   0  0  0  0  0  0  0  0  0  0  0  0
   -0.7999   -1.8530    0.7758 H   0  0  0  0  0  0  0  0  0  0  0  0
  1  2  1  0
  2  3  1  0
  3  4  1  0
  4  5  1  0
  4  6  1  0
  6  7  1  0
  7  8  1  0
  8  9  1  0
  5  2  1  0
  9  7  1  0
  9  4  1  0
  1 10  1  0
  2 11  1  0
  3 12  1  0
  3 13  1  0
  5 14  1  0
  5 15  1  0
  6 16  1  0
  6 17  1  0
  7 18  1  0
  8 19  1  0
  8 20  1  0
  9 21  1  0
M  END
