
     RDKit          3D

 19 20  0  0  0  0  0  0  0  0999 V2000
    2.1960   -1.2821   -0.3541 O   0  0  0  0  0  0  0  0  0  0  0  0
    1.8451    0.0586   -0.4721 C   0  0  0  0  0  0  0  0  0  0  0  0
    1.5260    0.6805    0.8334 C   0  0  0  0  0  0  0  0  0  0  0  0
    0.2168    0.6975    1.0535 C   0  0  0  0  0  0  0  0  0  0  0  0
   -0.4744    0.0857   -0.0885 C   0  0  0  0  0  0  0  0  0  0  0  0
    0.5262    0.1074   -1.2132 C   0  0  0  0  0  0  0  0  0  0  0  0
   -1.8670    0.4988   -0.4518 C   0  0  0  0  0  0  0  0  0  0  0  0
   -1.5158   -0.9267    0.0366 C   0  0  0  0  0  0  0  0  0  0  0  0
   -1.9696   -1.1905    1.3471 O   0  0  0  0  0  0  0  0  0  0  0  0
    2.3453   -1.5694    0.5759 H   0  0  0  0  0  0  0  0  0  0  0  0
    2.6415    0.5907   -1.0221 H   0  0  0  0  0  0  0  0  0  0  0  0
    2.2452    1.0793    1.5397 H   0  0  0  0  0  0  0  0  0  0  0  0
   -0.2585    1.1017    1.9400 H   0  0  0  0  0  0  0  0  0  0  0  0
    0.4384    1.1272   -1.6886 H   0  0  0  0  0  0  0  0  0  0  0  0
    0.4096   -0.7019   -1.9369 H   0  0  0  0  0  0  0  0  0  0  0  0
   -2.3413    1.1786    0.2752 H   0  0  0  0  0  0  0  0  0  0  0  0
   -2.1052    0.5633   -1.5298 H   0  0  0  0  0  0  0  0  0  0  0  0
   -1.6634   -1.7487   -0.6708 H   0  0  0  0  0  0  0  0  0  0  0  0
   -2.1948   -0.3501    1.8263 H   0  0  0  0  0  0  0  0  0  0  0  0
  1  2  1  0
  2  3  1  0
  3  4  2  0
  4  5  1  0
  5  6  1  0
  5  7  1  0
  7  8  1  0
  8  9  1  0
  6  2  1  0
  8  5  1  0
  1 10  1  0
  2 11  1  0
  3 12  1  0
  4 13  1  0
  6 14  1  0
  6 15  1  0
  7 16  1  0
  7 17  1  0
  8 18  1  0
  9 19  1  0
M  END
