
     RDKit          3D

 19 20  0  0  0  0  0  0  0  0999 V2000
    2.2604   -1.6559    0.2412 O   0  0  0  0  0  0  0  0  0  0  0  0
    1.5828   -0.5613   -0.2693 C   0  0  0  0  0  0  0  0  0  0  0  0
    1.8239    0.6749    0.5123 C   0  0  0  0  0  0  0  0  0  0  0  0
    0.7414    1.4302    0.4766 C   0  0  0  0  0  0  0  0  0  0  0  0
   -0.3294    0.7816   -0.3277 C   0  0  0  0  0  0  0  0  0  0  0  0
   -1.6651    0.7960    0.3364 C   0  0  0  0  0  0  0  0  0  0  0  0
   -1.7220   -0.6015    0.9570 C   0  0  0  0  0  0  0  0  0  0  0  0
   -0.3666   -0.9908    1.0628 O   0  0  0  0  0  0  0  0  0  0  0  0
    0.0938   -0.6911   -0.2143 C   0  0  0  0  0  0  0  0  0  0  0  0
    1.7176   -2.4992    0.2094 H   0  0  0  0  0  0  0  0  0  0  0  0
    1.8631   -0.3370   -1.3192 H   0  0  0  0  0  0  0  0  0  0  0  0
    2.7409    0.9047    1.0217 H   0  0  0  0  0  0  0  0  0  0  0  0
    0.6452    2.3916    0.9661 H   0  0  0  0  0  0  0  0  0  0  0  0
   -0.3242    1.0581   -1.3808 H   0  0  0  0  0  0  0  0  0  0  0  0
   -2.4999    0.9293   -0.3836 H   0  0  0  0  0  0  0  0  0  0  0  0
   -1.7780    1.5797    1.0984 H   0  0  0  0  0  0  0  0  0  0  0  0
   -2.1988   -1.2906    0.2471 H   0  0  0  0  0  0  0  0  0  0  0  0
   -2.2370   -0.6157    1.9154 H   0  0  0  0  0  0  0  0  0  0  0  0
   -0.3480   -1.3032   -1.0036 H   0  0  0  0  0  0  0  0  0  0  0  0
  1  2  1  0
  2  3  1  0
  3  4  2  0
  4  5  1  0
  5  6  1  0
  6  7  1  0
  7  8  1  0
  8  9  1  0
  9  2  1  0
  9  5  1  0
  1 10  1  0
  2 11  1  0
  3 12  1  0
  4 13  1  0
  5 14  1  0
  6 15  1  0
  6 16  1  0
  7 17  1  0
  7 18  1  0
  9 19  1  0
M  END
