
     RDKit          3D

 17 19  0  0  0  0  0  0  0  0999 V2000
    2.3283    0.2983    0.4357 O   0  0  0  0  0  0  0  0  0  0  0  0
    1.2966    0.3426   -0.4855 C   0  0  0  0  0  0  0  0  0  0  0  0
    0.6258   -0.9972   -0.6394 C   0  0  0  0  0  0  0  0  0  0  0  0
   -0.7516   -0.8397   -0.0589 C   0  0  0  0  0  0  0  0  0  0  0  0
   -1.4727   -1.9068    0.3871 O   0  0  0  0  0  0  0  0  0  0  0  0
   -1.4901    0.3823   -0.5416 C   0  0  0  0  0  0  0  0  0  0  0  0
   -0.7579    1.4856   -0.9357 O   0  0  0  0  0  0  0  0  0  0  0  0
    0.2211    1.2918    0.0463 C   0  0  0  0  0  0  0  0  0  0  0  0
   -0.7035    0.3668    0.7421 C   0  0  0  0  0  0  0  0  0  0  0  0
    2.0391    0.5902    1.3473 H   0  0  0  0  0  0  0  0  0  0  0  0
    1.6757    0.7177   -1.4527 H   0  0  0  0  0  0  0  0  0  0  0  0
    0.5381   -1.2113   -1.7354 H   0  0  0  0  0  0  0  0  0  0  0  0
    1.2051   -1.8253   -0.1936 H   0  0  0  0  0  0  0  0  0  0  0  0
   -1.5488   -1.8465    1.3883 H   0  0  0  0  0  0  0  0  0  0  0  0
   -2.5867    0.4072   -0.5342 H   0  0  0  0  0  0  0  0  0  0  0  0
    0.5807    2.1740    0.5596 H   0  0  0  0  0  0  0  0  0  0  0  0
   -1.1993    0.5703    1.6707 H   0  0  0  0  0  0  0  0  0  0  0  0
  1  2  1  0
  2  3  1  0
  3  4  1  0
  4  5  1  0
  4  6  1  0
  6  7  1  0
  7  8  1  0
  8  9  1  0
  8  2  1  0
  9  4  1  0
  9  6  1  0
  1 10  1  0
  2 11  1  0
  3 12  1  0
  3 13  1  0
  5 14  1  0
  6 15  1  0
  8 16  1  0
  9 17  1  0
M  END
