
     RDKit          3D

 19 21  0  0  0  0  0  0  0  0999 V2000
   -2.3491   -0.5818    0.2935 O   0  0  0  0  0  0  0  0  0  0  0  0
   -1.2657    0.0812   -0.2091 C   0  0  0  0  0  0  0  0  0  0  0  0
   -0.1960   -0.7927   -0.7762 C   0  0  0  0  0  0  0  0  0  0  0  0
    0.8736    0.1351   -1.3340 C   0  0  0  0  0  0  0  0  0  0  0  0
    1.1964    0.9625   -0.0797 C   0  0  0  0  0  0  0  0  0  0  0  0
    0.2014    1.8929    0.2313 O   0  0  0  0  0  0  0  0  0  0  0  0
   -0.4910    0.8473    0.8728 C   0  0  0  0  0  0  0  0  0  0  0  0
    0.7942    0.1205    1.0691 C   0  0  0  0  0  0  0  0  0  0  0  0
    0.5089   -1.2684    0.5029 C   0  0  0  0  0  0  0  0  0  0  0  0
   -3.0773    0.0985    0.4283 H   0  0  0  0  0  0  0  0  0  0  0  0
   -1.5724    0.7977   -1.0107 H   0  0  0  0  0  0  0  0  0  0  0  0
   -0.4979   -1.5826   -1.4273 H   0  0  0  0  0  0  0  0  0  0  0  0
    1.7559   -0.4306   -1.6244 H   0  0  0  0  0  0  0  0  0  0  0  0
    0.4125    0.7417   -2.1177 H   0  0  0  0  0  0  0  0  0  0  0  0
    2.2236    1.3133   -0.0115 H   0  0  0  0  0  0  0  0  0  0  0  0
   -1.0722    1.1291    1.7463 H   0  0  0  0  0  0  0  0  0  0  0  0
    1.3073    0.1744    2.0018 H   0  0  0  0  0  0  0  0  0  0  0  0
   -0.1812   -1.8129    1.1672 H   0  0  0  0  0  0  0  0  0  0  0  0
    1.4288   -1.8252    0.2771 H   0  0  0  0  0  0  0  0  0  0  0  0
  1  2  1  0
  2  3  1  0
  3  4  1  0
  4  5  1  0
  5  6  1  0
  6  7  1  0
  7  8  1  0
  8  9  1  0
  7  2  1  0
  9  3  1  0
  8  5  1  0
  1 10  1  0
  2 11  1  0
  3 12  1  0
  4 13  1  0
  4 14  1  0
  5 15  1  0
  7 16  1  0
  8 17  1  0
  9 18  1  0
  9 19  1  0
M  END
