
     RDKit          3D

 15 15  0  0  0  0  0  0  0  0999 V2000
    1.7734   -0.5458    0.7134 O   0  0  0  0  0  0  0  0  0  0  0  0
    0.9667   -0.0555   -0.3074 C   0  0  0  0  0  0  0  0  0  0  0  0
   -0.2072   -0.9612   -0.6447 C   0  0  0  0  0  0  0  0  0  0  0  0
   -1.1877    0.1689   -0.3928 C   0  0  0  0  0  0  0  0  0  0  0  0
   -2.1361   -0.2034    0.5340 O   0  0  0  0  0  0  0  0  0  0  0  0
   -0.0358    0.9892    0.1161 C   0  0  0  0  0  0  0  0  0  0  0  0
   -0.0380    1.2285    1.4896 O   0  0  0  0  0  0  0  0  0  0  0  0
    2.4385   -1.1396    0.3128 H   0  0  0  0  0  0  0  0  0  0  0  0
    1.5567    0.1815   -1.2107 H   0  0  0  0  0  0  0  0  0  0  0  0
   -0.2627   -1.7867    0.0820 H   0  0  0  0  0  0  0  0  0  0  0  0
   -0.2385   -1.2579   -1.7211 H   0  0  0  0  0  0  0  0  0  0  0  0
   -1.6595    0.5689   -1.3128 H   0  0  0  0  0  0  0  0  0  0  0  0
   -1.8690   -0.9376    1.1251 H   0  0  0  0  0  0  0  0  0  0  0  0
    0.1516    1.9302   -0.4450 H   0  0  0  0  0  0  0  0  0  0  0  0
    0.7476    1.8204    1.6615 H   0  0  0  0  0  0  0  0  0  0  0  0
  1  2  1  0
  2  3  1  0
  3  4  1  0
  4  5  1  0
  4  6  1  0
  6  7  1  0
  6  2  1  0
  1  8  1  0
  2  9  1  0
  3 10  1  0
  3 11  1  0
  4 12  1  0
  5 13  1  0
  6 14  1  0
  7 15  1  0
M  END
