
     RDKit          3D

 21 22  0  0  0  0  0  0  0  0999 V2000
    2.8958   -0.8275   -1.2944 O   0  0  0  0  0  0  0  0  0  0  0  0
    2.1001    0.0925   -0.6041 C   0  0  0  0  0  0  0  0  0  0  0  0
    2.4632    0.2477    0.8618 C   0  0  0  0  0  0  0  0  0  0  0  0
    1.3632   -0.5595    1.2051 O   0  0  0  0  0  0  0  0  0  0  0  0
    0.8334   -0.5262   -0.0772 C   0  0  0  0  0  0  0  0  0  0  0  0
   -0.3671    0.4019   -0.1199 C   0  0  0  0  0  0  0  0  0  0  0  0
   -1.5783   -0.2784    0.4158 C   0  0  0  0  0  0  0  0  0  0  0  0
   -2.8323    0.6142    0.3987 C   0  0  0  0  0  0  0  0  0  0  0  0
   -2.7171   -0.6759   -0.4124 C   0  0  0  0  0  0  0  0  0  0  0  0
    3.7704   -0.4262   -1.5128 H   0  0  0  0  0  0  0  0  0  0  0  0
    1.9911    1.0457   -1.1292 H   0  0  0  0  0  0  0  0  0  0  0  0
    2.3133    1.2759    1.2509 H   0  0  0  0  0  0  0  0  0  0  0  0
    3.4391   -0.1745    1.1333 H   0  0  0  0  0  0  0  0  0  0  0  0
    0.5884   -1.5200   -0.5163 H   0  0  0  0  0  0  0  0  0  0  0  0
   -0.1166    1.2489    0.5802 H   0  0  0  0  0  0  0  0  0  0  0  0
   -0.4987    0.8522   -1.1113 H   0  0  0  0  0  0  0  0  0  0  0  0
   -1.3991   -0.8781    1.3364 H   0  0  0  0  0  0  0  0  0  0  0  0
   -2.8012    1.5433   -0.1823 H   0  0  0  0  0  0  0  0  0  0  0  0
   -3.4199    0.6008    1.3332 H   0  0  0  0  0  0  0  0  0  0  0  0
   -2.6453   -0.5763   -1.4927 H   0  0  0  0  0  0  0  0  0  0  0  0
   -3.3823   -1.4803   -0.0631 H   0  0  0  0  0  0  0  0  0  0  0  0
  1  2  1  0
  2  3  1  0
  3  4  1  0
  4  5  1  0
  5  6  1  0
  6  7  1  0
  7  8  1  0
  8  9  1  0
  5  2  1  0
  9  7  1  0
  1 10  1  0
  2 11  1  0
  3 12  1  0
  3 13  1  0
  5 14  1  0
  6 15  1  0
  6 16  1  0
  7 17  1  0
  8 18  1  0
  8 19  1  0
  9 20  1  0
  9 21  1  0
M  END
