
     RDKit          3D

 23 24  0  0  0  0  0  0  0  0999 V2000
    3.0666   -0.0242    0.3332 O   0  0  0  0  0  0  0  0  0  0  0  0
    1.8385   -0.5316   -0.0839 C   0  0  0  0  0  0  0  0  0  0  0  0
    0.9183   -0.8581    1.0435 C   0  0  0  0  0  0  0  0  0  0  0  0
   -0.2539    0.0549    1.1767 C   0  0  0  0  0  0  0  0  0  0  0  0
   -1.0065    0.3108   -0.0713 C   0  0  0  0  0  0  0  0  0  0  0  0
   -0.2031   -0.0167   -1.3026 C   0  0  0  0  0  0  0  0  0  0  0  0
    1.2442    0.3812   -1.1177 C   0  0  0  0  0  0  0  0  0  0  0  0
   -2.0478    1.3470   -0.0629 C   0  0  0  0  0  0  0  0  0  0  0  0
   -2.4712   -0.0933   -0.1878 C   0  0  0  0  0  0  0  0  0  0  0  0
    3.5869   -0.7783    0.7273 H   0  0  0  0  0  0  0  0  0  0  0  0
    2.0756   -1.4997   -0.6075 H   0  0  0  0  0  0  0  0  0  0  0  0
    0.5457   -1.9006    1.0432 H   0  0  0  0  0  0  0  0  0  0  0  0
    1.5228   -0.7676    1.9927 H   0  0  0  0  0  0  0  0  0  0  0  0
    0.1245    1.0224    1.5978 H   0  0  0  0  0  0  0  0  0  0  0  0
   -0.9334   -0.3773    1.9455 H   0  0  0  0  0  0  0  0  0  0  0  0
   -0.6503    0.3546   -2.2256 H   0  0  0  0  0  0  0  0  0  0  0  0
   -0.2030   -1.1435   -1.3803 H   0  0  0  0  0  0  0  0  0  0  0  0
    1.3369    1.4611   -0.8542 H   0  0  0  0  0  0  0  0  0  0  0  0
    1.7404    0.1909   -2.1125 H   0  0  0  0  0  0  0  0  0  0  0  0
   -2.2878    1.8081    0.9291 H   0  0  0  0  0  0  0  0  0  0  0  0
   -2.2083    2.0468   -0.9053 H   0  0  0  0  0  0  0  0  0  0  0  0
   -2.8704   -0.3399   -1.2013 H   0  0  0  0  0  0  0  0  0  0  0  0
   -2.8647   -0.6469    0.6668 H   0  0  0  0  0  0  0  0  0  0  0  0
  1  2  1  0
  2  3  1  0
  3  4  1  0
  4  5  1  0
  5  6  1  0
  6  7  1  0
  5  8  1  0
  8  9  1  0
  7  2  1  0
  9  5  1  0
  1 10  1  0
  2 11  1  0
  3 12  1  0
  3 13  1  0
  4 14  1  0
  4 15  1  0
  6 16  1  0
  6 17  1  0
  7 18  1  0
  7 19  1  0
  8 20  1  0
  8 21  1  0
  9 22  1  0
  9 23  1  0
M  END
