
     RDKit          3D

 17 19  0  0  0  0  0  0  0  0999 V2000
    2.3005   -0.8431   -0.1129 O   0  0  0  0  0  0  0  0  0  0  0  0
    1.1961   -0.2877    0.5606 C   0  0  0  0  0  0  0  0  0  0  0  0
    1.0547    1.1002    0.0579 C   0  0  0  0  0  0  0  0  0  0  0  0
   -0.0668    1.6532   -0.3232 C   0  0  0  0  0  0  0  0  0  0  0  0
   -1.3152    0.8489   -0.2578 C   0  0  0  0  0  0  0  0  0  0  0  0
   -1.6383    0.5644    1.0706 O   0  0  0  0  0  0  0  0  0  0  0  0
   -1.2578   -0.7592    0.9909 C   0  0  0  0  0  0  0  0  0  0  0  0
    0.0230   -1.1541    0.3164 C   0  0  0  0  0  0  0  0  0  0  0  0
   -1.0719   -0.6034   -0.4745 C   0  0  0  0  0  0  0  0  0  0  0  0
    3.0213   -0.9298    0.5521 H   0  0  0  0  0  0  0  0  0  0  0  0
    1.3781   -0.2312    1.6541 H   0  0  0  0  0  0  0  0  0  0  0  0
    1.9667    1.6903    0.0092 H   0  0  0  0  0  0  0  0  0  0  0  0
   -0.1267    2.6659   -0.6826 H   0  0  0  0  0  0  0  0  0  0  0  0
   -2.1274    1.2579   -0.8645 H   0  0  0  0  0  0  0  0  0  0  0  0
   -1.8885   -1.5508    1.4243 H   0  0  0  0  0  0  0  0  0  0  0  0
    0.2176   -2.2343    0.2930 H   0  0  0  0  0  0  0  0  0  0  0  0
   -1.6656   -1.1871   -1.2048 H   0  0  0  0  0  0  0  0  0  0  0  0
  1  2  1  0
  2  3  1  0
  3  4  2  0
  4  5  1  0
  5  6  1  0
  6  7  1  0
  7  8  1  0
  8  9  1  0
  8  2  1  0
  9  5  1  0
  9  7  1  0
  1 10  1  0
  2 11  1  0
  3 12  1  0
  4 13  1  0
  5 14  1  0
  7 15  1  0
  8 16  1  0
  9 17  1  0
M  END
