
     RDKit          3D

 19 20  0  0  0  0  0  0  0  0999 V2000
   -2.4375    0.2181    1.0101 O   0  0  0  0  0  0  0  0  0  0  0  0
   -2.1509   -0.5720   -0.0883 C   0  0  0  0  0  0  0  0  0  0  0  0
   -1.5864    0.2084   -1.2910 C   0  0  0  0  0  0  0  0  0  0  0  0
   -0.7955   -0.8325   -0.5594 C   0  0  0  0  0  0  0  0  0  0  0  0
    0.4328   -0.3862    0.1510 C   0  0  0  0  0  0  0  0  0  0  0  0
    1.6593   -0.8027   -0.5786 C   0  0  0  0  0  0  0  0  0  0  0  0
    2.4336    0.2540   -0.6963 C   0  0  0  0  0  0  0  0  0  0  0  0
    1.7685    1.4050   -0.0602 C   0  0  0  0  0  0  0  0  0  0  0  0
    0.4728    1.0076    0.1397 O   0  0  0  0  0  0  0  0  0  0  0  0
   -2.6725   -0.3805    1.7778 H   0  0  0  0  0  0  0  0  0  0  0  0
   -2.9705   -1.2823   -0.3571 H   0  0  0  0  0  0  0  0  0  0  0  0
   -1.3594    1.2846   -1.1352 H   0  0  0  0  0  0  0  0  0  0  0  0
   -2.0334   -0.0290   -2.2906 H   0  0  0  0  0  0  0  0  0  0  0  0
   -0.6564   -1.8020   -1.1213 H   0  0  0  0  0  0  0  0  0  0  0  0
    0.4675   -0.6898    1.2195 H   0  0  0  0  0  0  0  0  0  0  0  0
    1.8818   -1.7908   -0.9481 H   0  0  0  0  0  0  0  0  0  0  0  0
    3.4105    0.2936   -1.1809 H   0  0  0  0  0  0  0  0  0  0  0  0
    1.8360    2.2676   -0.7791 H   0  0  0  0  0  0  0  0  0  0  0  0
    2.2998    1.6291    0.8874 H   0  0  0  0  0  0  0  0  0  0  0  0
  1  2  1  0
  2  3  1  0
  3  4  1  0
  4  5  1  0
  5  6  1  0
  6  7  2  0
  7  8  1  0
  8  9  1  0
  4  2  1  0
  9  5  1  0
  1 10  1  0
  2 11  1  0
  3 12  1  0
  3 13  1  0
  4 14  1  0
  5 15  1  0
  6 16  1  0
  7 17  1  0
  8 18  1  0
  8 19  1  0
M  END
