
     RDKit          3D

 19 20  0  0  0  0  0  0  0  0999 V2000
   -0.7809   -1.7669   -1.0260 O   0  0  0  0  0  0  0  0  0  0  0  0
   -1.1850   -0.8451   -0.0991 C   0  0  0  0  0  0  0  0  0  0  0  0
   -1.2149    0.5919   -0.5529 C   0  0  0  0  0  0  0  0  0  0  0  0
   -2.3123    1.3029   -0.0695 O   0  0  0  0  0  0  0  0  0  0  0  0
   -0.0098    0.8608    0.2981 C   0  0  0  0  0  0  0  0  0  0  0  0
    1.2803    0.7443   -0.5011 C   0  0  0  0  0  0  0  0  0  0  0  0
    1.9169   -0.4380    0.1194 C   0  0  0  0  0  0  0  0  0  0  0  0
    1.1122   -1.0933    0.9156 C   0  0  0  0  0  0  0  0  0  0  0  0
   -0.2090   -0.4584    0.9652 C   0  0  0  0  0  0  0  0  0  0  0  0
   -0.0555   -1.4904   -1.6024 H   0  0  0  0  0  0  0  0  0  0  0  0
   -2.1729   -1.1344    0.3411 H   0  0  0  0  0  0  0  0  0  0  0  0
   -1.0291    0.7520   -1.6249 H   0  0  0  0  0  0  0  0  0  0  0  0
   -1.9997    2.0855    0.4338 H   0  0  0  0  0  0  0  0  0  0  0  0
   -0.0456    1.7547    0.9305 H   0  0  0  0  0  0  0  0  0  0  0  0
    1.0876    0.6207   -1.5873 H   0  0  0  0  0  0  0  0  0  0  0  0
    1.9341    1.6220   -0.3061 H   0  0  0  0  0  0  0  0  0  0  0  0
    2.9629   -0.7180   -0.0837 H   0  0  0  0  0  0  0  0  0  0  0  0
    1.3786   -1.9901    1.4708 H   0  0  0  0  0  0  0  0  0  0  0  0
   -0.6580   -0.4001    1.9784 H   0  0  0  0  0  0  0  0  0  0  0  0
  1  2  1  0
  2  3  1  0
  3  4  1  0
  3  5  1  0
  5  6  1  0
  6  7  1  0
  7  8  2  0
  8  9  1  0
  9  2  1  0
  9  5  1  0
  1 10  1  0
  2 11  1  0
  3 12  1  0
  4 13  1  0
  5 14  1  0
  6 15  1  0
  6 16  1  0
  7 17  1  0
  8 18  1  0
  9 19  1  0
M  END
