
     RDKit          3D

 19 20  0  0  0  0  0  0  0  0999 V2000
    2.8319    0.4587   -0.3111 O   0  0  0  0  0  0  0  0  0  0  0  0
    1.5691    0.7445    0.2570 C   0  0  0  0  0  0  0  0  0  0  0  0
    1.2759   -0.3205    1.2488 C   0  0  0  0  0  0  0  0  0  0  0  0
    0.0644   -0.8138    1.0766 C   0  0  0  0  0  0  0  0  0  0  0  0
   -0.5669   -0.1363   -0.0337 C   0  0  0  0  0  0  0  0  0  0  0  0
   -1.5249   -0.9012   -0.8906 C   0  0  0  0  0  0  0  0  0  0  0  0
   -2.6014   -0.4256   -0.1420 O   0  0  0  0  0  0  0  0  0  0  0  0
   -1.8033    0.6664    0.2689 C   0  0  0  0  0  0  0  0  0  0  0  0
    0.5022    0.5205   -0.8060 C   0  0  0  0  0  0  0  0  0  0  0  0
    2.9272   -0.5333   -0.3961 H   0  0  0  0  0  0  0  0  0  0  0  0
    1.5402    1.7557    0.6630 H   0  0  0  0  0  0  0  0  0  0  0  0
    2.0070   -0.6197    2.0051 H   0  0  0  0  0  0  0  0  0  0  0  0
   -0.4148   -1.6129    1.6680 H   0  0  0  0  0  0  0  0  0  0  0  0
   -1.4665   -1.9959   -0.8484 H   0  0  0  0  0  0  0  0  0  0  0  0
   -1.5538   -0.4653   -1.9089 H   0  0  0  0  0  0  0  0  0  0  0  0
   -1.9527    0.8065    1.3507 H   0  0  0  0  0  0  0  0  0  0  0  0
   -1.9546    1.5835   -0.3063 H   0  0  0  0  0  0  0  0  0  0  0  0
    0.2265    1.4599   -1.3153 H   0  0  0  0  0  0  0  0  0  0  0  0
    0.8944   -0.1713   -1.5797 H   0  0  0  0  0  0  0  0  0  0  0  0
  1  2  1  0
  2  3  1  0
  3  4  2  0
  4  5  1  0
  5  6  1  0
  6  7  1  0
  7  8  1  0
  5  9  1  0
  9  2  1  0
  8  5  1  0
  1 10  1  0
  2 11  1  0
  3 12  1  0
  4 13  1  0
  6 14  1  0
  6 15  1  0
  8 16  1  0
  8 17  1  0
  9 18  1  0
  9 19  1  0
M  END
