
     RDKit          3D

 19 20  0  0  0  0  0  0  0  0999 V2000
    2.0185   -0.1753   -0.9517 O   0  0  0  0  0  0  0  0  0  0  0  0
    1.4344   -0.1453    0.3414 C   0  0  0  0  0  0  0  0  0  0  0  0
    0.7151   -1.4269    0.5391 C   0  0  0  0  0  0  0  0  0  0  0  0
   -0.6360   -1.3041    0.8126 O   0  0  0  0  0  0  0  0  0  0  0  0
   -1.2344   -0.9075   -0.4062 C   0  0  0  0  0  0  0  0  0  0  0  0
   -1.6273    0.5127   -0.1735 C   0  0  0  0  0  0  0  0  0  0  0  0
   -0.5790    1.3883    0.3583 C   0  0  0  0  0  0  0  0  0  0  0  0
    0.3154    1.7661   -0.7989 O   0  0  0  0  0  0  0  0  0  0  0  0
    0.7361    1.1147    0.4991 C   0  0  0  0  0  0  0  0  0  0  0  0
    1.4640    0.3105   -1.5976 H   0  0  0  0  0  0  0  0  0  0  0  0
    2.3417   -0.1942    1.0203 H   0  0  0  0  0  0  0  0  0  0  0  0
    1.1363   -2.0507    1.3844 H   0  0  0  0  0  0  0  0  0  0  0  0
    0.7913   -2.0909   -0.3493 H   0  0  0  0  0  0  0  0  0  0  0  0
   -2.1107   -1.5301   -0.6390 H   0  0  0  0  0  0  0  0  0  0  0  0
   -0.5491   -0.9490   -1.2505 H   0  0  0  0  0  0  0  0  0  0  0  0
   -2.4875    0.4891    0.5596 H   0  0  0  0  0  0  0  0  0  0  0  0
   -2.1008    0.9376   -1.1075 H   0  0  0  0  0  0  0  0  0  0  0  0
   -1.0202    2.3320    0.8008 H   0  0  0  0  0  0  0  0  0  0  0  0
    1.3921    1.9229    0.9587 H   0  0  0  0  0  0  0  0  0  0  0  0
  1  2  1  0
  2  3  1  0
  3  4  1  0
  4  5  1  0
  5  6  1  0
  6  7  1  0
  7  8  1  0
  8  9  1  0
  9  2  1  0
  9  7  1  0
  1 10  1  0
  2 11  1  0
  3 12  1  0
  3 13  1  0
  5 14  1  0
  5 15  1  0
  6 16  1  0
  6 17  1  0
  7 18  1  0
  9 19  1  0
M  END
