
     RDKit          3D

 16 17  0  0  0  0  0  0  0  0999 V2000
   -0.8420   -0.6305   -1.6335 O   0  0  0  0  0  0  0  0  0  0  0  0
   -1.3329    0.0074   -0.5113 C   0  0  0  0  0  0  0  0  0  0  0  0
   -0.7719    1.4005   -0.4678 C   0  0  0  0  0  0  0  0  0  0  0  0
    0.3677    1.4102    0.2104 C   0  0  0  0  0  0  0  0  0  0  0  0
    0.6737    0.0618    0.6749 C   0  0  0  0  0  0  0  0  0  0  0  0
    1.8786   -0.5873    0.2295 C   0  0  0  0  0  0  0  0  0  0  0  0
    1.6796   -0.2024    1.5660 O   0  0  0  0  0  0  0  0  0  0  0  0
   -0.6311   -0.6427    0.6925 C   0  0  0  0  0  0  0  0  0  0  0  0
   -0.9965   -1.5997   -1.6021 H   0  0  0  0  0  0  0  0  0  0  0  0
   -2.4214   -0.0136   -0.4110 H   0  0  0  0  0  0  0  0  0  0  0  0
   -1.2444    2.2609   -0.9298 H   0  0  0  0  0  0  0  0  0  0  0  0
    0.9507    2.3075    0.3709 H   0  0  0  0  0  0  0  0  0  0  0  0
    1.8315   -1.6715   -0.0213 H   0  0  0  0  0  0  0  0  0  0  0  0
    2.5999   -0.0067   -0.3861 H   0  0  0  0  0  0  0  0  0  0  0  0
   -0.5738   -1.7275    0.5953 H   0  0  0  0  0  0  0  0  0  0  0  0
   -1.1677   -0.3664    1.6233 H   0  0  0  0  0  0  0  0  0  0  0  0
  1  2  1  0
  2  3  1  0
  3  4  2  0
  4  5  1  0
  5  6  1  0
  6  7  1  0
  5  8  1  0
  8  2  1  0
  7  5  1  0
  1  9  1  0
  2 10  1  0
  3 11  1  0
  4 12  1  0
  6 13  1  0
  6 14  1  0
  8 15  1  0
  8 16  1  0
M  END
