
     RDKit          3D

 19 21  0  0  0  0  0  0  0  0999 V2000
   -3.0503    0.1518   -0.4702 O   0  0  0  0  0  0  0  0  0  0  0  0
   -1.8344   -0.4107   -0.7774 C   0  0  0  0  0  0  0  0  0  0  0  0
   -0.9081    0.6773   -1.2025 C   0  0  0  0  0  0  0  0  0  0  0  0
    0.2744    0.6183   -0.6836 C   0  0  0  0  0  0  0  0  0  0  0  0
    0.2446   -0.6265    0.2050 C   0  0  0  0  0  0  0  0  0  0  0  0
   -1.1718   -0.7416    0.5969 C   0  0  0  0  0  0  0  0  0  0  0  0
    1.2904    0.0674    0.9762 C   0  0  0  0  0  0  0  0  0  0  0  0
    2.6092   -0.0372    0.2983 C   0  0  0  0  0  0  0  0  0  0  0  0
    1.6943    0.9090   -0.2971 C   0  0  0  0  0  0  0  0  0  0  0  0
   -3.0324    0.5732    0.4387 H   0  0  0  0  0  0  0  0  0  0  0  0
   -1.8484   -1.2758   -1.4273 H   0  0  0  0  0  0  0  0  0  0  0  0
   -1.2293    1.4619   -1.9069 H   0  0  0  0  0  0  0  0  0  0  0  0
    0.5922   -1.5218   -0.3660 H   0  0  0  0  0  0  0  0  0  0  0  0
   -1.5180   -0.0640    1.3752 H   0  0  0  0  0  0  0  0  0  0  0  0
   -1.4657   -1.7859    0.8151 H   0  0  0  0  0  0  0  0  0  0  0  0
    1.1022    0.6990    1.8335 H   0  0  0  0  0  0  0  0  0  0  0  0
    2.8522   -1.0146   -0.1939 H   0  0  0  0  0  0  0  0  0  0  0  0
    3.4637    0.3296    0.8853 H   0  0  0  0  0  0  0  0  0  0  0  0
    1.9352    1.9907   -0.0994 H   0  0  0  0  0  0  0  0  0  0  0  0
  1  2  1  0
  2  3  1  0
  3  4  2  0
  4  5  1  0
  5  6  1  0
  5  7  1  0
  7  8  1  0
  8  9  1  0
  6  2  1  0
  9  7  1  0
  9  4  1  0
  1 10  1  0
  2 11  1  0
  3 12  1  0
  5 13  1  0
  6 14  1  0
  6 15  1  0
  7 16  1  0
  8 17  1  0
  8 18  1  0
  9 19  1  0
M  END
