
     RDKit          3D

 19 21  0  0  0  0  0  0  0  0999 V2000
    2.5988   -0.4480   -0.6178 O   0  0  0  0  0  0  0  0  0  0  0  0
    1.4720   -0.1492    0.1780 C   0  0  0  0  0  0  0  0  0  0  0  0
    0.3864   -1.1225   -0.2801 C   0  0  0  0  0  0  0  0  0  0  0  0
   -0.8940   -0.8767    0.4631 C   0  0  0  0  0  0  0  0  0  0  0  0
   -2.1193   -0.3983   -0.2515 C   0  0  0  0  0  0  0  0  0  0  0  0
   -1.3033    0.5194    0.5728 C   0  0  0  0  0  0  0  0  0  0  0  0
   -0.3858    1.5285   -0.0430 C   0  0  0  0  0  0  0  0  0  0  0  0
    0.1857    1.3120   -1.2711 O   0  0  0  0  0  0  0  0  0  0  0  0
    1.0030    1.2263   -0.1346 C   0  0  0  0  0  0  0  0  0  0  0  0
    3.2113   -1.0676   -0.1844 H   0  0  0  0  0  0  0  0  0  0  0  0
    1.7470   -0.3018    1.2214 H   0  0  0  0  0  0  0  0  0  0  0  0
    0.7782   -2.1263   -0.1300 H   0  0  0  0  0  0  0  0  0  0  0  0
    0.2152   -0.8911   -1.3632 H   0  0  0  0  0  0  0  0  0  0  0  0
   -1.0239   -1.5225    1.3742 H   0  0  0  0  0  0  0  0  0  0  0  0
   -3.0656   -0.7887    0.1537 H   0  0  0  0  0  0  0  0  0  0  0  0
   -2.1188   -0.3460   -1.3658 H   0  0  0  0  0  0  0  0  0  0  0  0
   -1.7753    0.8429    1.5260 H   0  0  0  0  0  0  0  0  0  0  0  0
   -0.6876    2.5888    0.1307 H   0  0  0  0  0  0  0  0  0  0  0  0
    1.7759    2.0206    0.0214 H   0  0  0  0  0  0  0  0  0  0  0  0
  1  2  1  0
  2  3  1  0
  3  4  1  0
  4  5  1  0
  5  6  1  0
  6  7  1  0
  7  8  1  0
  8  9  1  0
  9  2  1  0
  6  4  1  0
  9  7  1  0
  1 10  1  0
  2 11  1  0
  3 12  1  0
  3 13  1  0
  4 14  1  0
  5 15  1  0
  5 16  1  0
  6 17  1  0
  7 18  1  0
  9 19  1  0
M  END
