
     RDKit          3D

 19 20  0  0  0  0  0  0  0  0999 V2000
    2.9311   -0.9548    0.3479 O   0  0  0  0  0  0  0  0  0  0  0  0
    1.8436   -0.2102   -0.1026 C   0  0  0  0  0  0  0  0  0  0  0  0
    0.6025   -1.0195   -0.1741 C   0  0  0  0  0  0  0  0  0  0  0  0
   -0.4381   -0.2421    0.0864 C   0  0  0  0  0  0  0  0  0  0  0  0
   -1.8492   -0.7081    0.1045 C   0  0  0  0  0  0  0  0  0  0  0  0
   -2.7698   -0.0820   -0.8191 C   0  0  0  0  0  0  0  0  0  0  0  0
   -2.7956    0.1998    0.6549 O   0  0  0  0  0  0  0  0  0  0  0  0
    0.0299    1.1662    0.3606 C   0  0  0  0  0  0  0  0  0  0  0  0
    1.4451    0.8686    0.8804 C   0  0  0  0  0  0  0  0  0  0  0  0
    3.3942   -1.2813   -0.4772 H   0  0  0  0  0  0  0  0  0  0  0  0
    2.0819    0.2743   -1.0901 H   0  0  0  0  0  0  0  0  0  0  0  0
    0.5831   -2.0796   -0.4058 H   0  0  0  0  0  0  0  0  0  0  0  0
   -1.9997   -1.7894    0.3479 H   0  0  0  0  0  0  0  0  0  0  0  0
   -3.6766   -0.5803   -1.1663 H   0  0  0  0  0  0  0  0  0  0  0  0
   -2.4145    0.8187   -1.3803 H   0  0  0  0  0  0  0  0  0  0  0  0
   -0.5847    1.6465    1.1189 H   0  0  0  0  0  0  0  0  0  0  0  0
    0.1230    1.7523   -0.5552 H   0  0  0  0  0  0  0  0  0  0  0  0
    1.4039    0.4586    1.9034 H   0  0  0  0  0  0  0  0  0  0  0  0
    2.0900    1.7624    0.7894 H   0  0  0  0  0  0  0  0  0  0  0  0
  1  2  1  0
  2  3  1  0
  3  4  2  0
  4  5  1  0
  5  6  1  0
  6  7  1  0
  4  8  1  0
  8  9  1  0
  9  2  1  0
  7  5  1  0
  1 10  1  0
  2 11  1  0
  3 12  1  0
  5 13  1  0
  6 14  1  0
  6 15  1  0
  8 16  1  0
  8 17  1  0
  9 18  1  0
  9 19  1  0
M  END
