
     RDKit          3D

 19 21  0  0  0  0  0  0  0  0999 V2000
    2.5494   -0.5011   -1.0007 O   0  0  0  0  0  0  0  0  0  0  0  0
    1.2150   -0.7727   -0.7439 C   0  0  0  0  0  0  0  0  0  0  0  0
    0.6490   -0.1053    0.4559 C   0  0  0  0  0  0  0  0  0  0  0  0
   -0.5502   -0.6420    1.1685 C   0  0  0  0  0  0  0  0  0  0  0  0
   -1.7370   -0.0677    0.4232 C   0  0  0  0  0  0  0  0  0  0  0  0
   -1.2256    0.0876   -0.9786 C   0  0  0  0  0  0  0  0  0  0  0  0
    0.2479    0.3533   -0.8922 C   0  0  0  0  0  0  0  0  0  0  0  0
    0.7192    1.6258   -0.6732 O   0  0  0  0  0  0  0  0  0  0  0  0
    0.9549    1.3545    0.6673 C   0  0  0  0  0  0  0  0  0  0  0  0
    2.9870   -1.1418   -1.5942 H   0  0  0  0  0  0  0  0  0  0  0  0
    0.8126   -1.7665   -1.0070 H   0  0  0  0  0  0  0  0  0  0  0  0
   -0.5812   -1.7456    1.2268 H   0  0  0  0  0  0  0  0  0  0  0  0
   -0.5317   -0.2711    2.2274 H   0  0  0  0  0  0  0  0  0  0  0  0
   -2.6352   -0.6981    0.5079 H   0  0  0  0  0  0  0  0  0  0  0  0
   -1.9614    0.9088    0.8757 H   0  0  0  0  0  0  0  0  0  0  0  0
   -1.4326   -0.8528   -1.5261 H   0  0  0  0  0  0  0  0  0  0  0  0
   -1.7565    0.9242   -1.4938 H   0  0  0  0  0  0  0  0  0  0  0  0
    2.0225    1.4681    0.9819 H   0  0  0  0  0  0  0  0  0  0  0  0
    0.2540    1.8425    1.3750 H   0  0  0  0  0  0  0  0  0  0  0  0
  1  2  1  0
  2  3  1  0
  3  4  1  0
  4  5  1  0
  5  6  1  0
  6  7  1  0
  7  8  1  0
  8  9  1  0
  7  2  1  0
  7  3  1  0
  9  3  1  0
  1 10  1  0
  2 11  1  0
  4 12  1  0
  4 13  1  0
  5 14  1  0
  5 15  1  0
  6 16  1  0
  6 17  1  0
  9 18  1  0
  9 19  1  0
M  END
