
     RDKit          3D

 17 19  0  0  0  0  0  0  0  0999 V2000
    2.1933   -0.4055   -0.8057 O   0  0  0  0  0  0  0  0  0  0  0  0
    0.9894    0.2656   -0.7382 C   0  0  0  0  0  0  0  0  0  0  0  0
    0.4620    0.4634    0.6948 C   0  0  0  0  0  0  0  0  0  0  0  0
    0.6412   -0.9073    1.2212 C   0  0  0  0  0  0  0  0  0  0  0  0
    0.1806   -1.6755    0.2298 C   0  0  0  0  0  0  0  0  0  0  0  0
   -0.2337   -0.6685   -0.7932 C   0  0  0  0  0  0  0  0  0  0  0  0
   -0.9009    0.3519    0.0663 C   0  0  0  0  0  0  0  0  0  0  0  0
   -1.8754    1.2514   -0.1389 C   0  0  0  0  0  0  0  0  0  0  0  0
   -2.0260    0.0918    0.8032 O   0  0  0  0  0  0  0  0  0  0  0  0
    2.9083    0.1987   -0.4919 H   0  0  0  0  0  0  0  0  0  0  0  0
    0.8975    1.1713   -1.3319 H   0  0  0  0  0  0  0  0  0  0  0  0
    0.7575    1.3120    1.2281 H   0  0  0  0  0  0  0  0  0  0  0  0
    1.0527   -1.1638    2.1862 H   0  0  0  0  0  0  0  0  0  0  0  0
    0.1047   -2.7488    0.1397 H   0  0  0  0  0  0  0  0  0  0  0  0
   -0.6014   -0.9640   -1.7247 H   0  0  0  0  0  0  0  0  0  0  0  0
   -1.9343    2.2284    0.4259 H   0  0  0  0  0  0  0  0  0  0  0  0
   -2.6156    1.1990   -0.9706 H   0  0  0  0  0  0  0  0  0  0  0  0
  1  2  1  0
  2  3  1  0
  3  4  1  0
  4  5  2  0
  5  6  1  0
  6  7  1  0
  7  8  1  0
  8  9  1  0
  6  2  1  0
  9  7  1  0
  7  3  1  0
  1 10  1  0
  2 11  1  0
  3 12  1  0
  4 13  1  0
  5 14  1  0
  6 15  1  0
  8 16  1  0
  8 17  1  0
M  END
