
     RDKit          3D

 17 19  0  0  0  0  0  0  0  0999 V2000
    0.4519    2.1136    0.2651 O   0  0  0  0  0  0  0  0  0  0  0  0
    0.0060    1.0637   -0.5529 C   0  0  0  0  0  0  0  0  0  0  0  0
   -1.3649    0.7048   -0.1535 C   0  0  0  0  0  0  0  0  0  0  0  0
   -2.3585    0.0575   -0.7160 O   0  0  0  0  0  0  0  0  0  0  0  0
   -1.3007   -0.6953   -0.8280 C   0  0  0  0  0  0  0  0  0  0  0  0
   -0.3116   -1.2825    0.0735 C   0  0  0  0  0  0  0  0  0  0  0  0
    0.3974   -0.7468    1.1987 C   0  0  0  0  0  0  0  0  0  0  0  0
    0.7900   -0.1698   -0.0949 C   0  0  0  0  0  0  0  0  0  0  0  0
    1.9264   -0.5317   -0.7705 O   0  0  0  0  0  0  0  0  0  0  0  0
    0.1047    1.9372    1.1835 H   0  0  0  0  0  0  0  0  0  0  0  0
    0.1679    1.2908   -1.6071 H   0  0  0  0  0  0  0  0  0  0  0  0
   -1.4896    0.7252    0.9624 H   0  0  0  0  0  0  0  0  0  0  0  0
   -0.9157   -0.6768   -1.9011 H   0  0  0  0  0  0  0  0  0  0  0  0
    0.0329   -2.3025   -0.2956 H   0  0  0  0  0  0  0  0  0  0  0  0
   -0.0233   -0.1321    2.0361 H   0  0  0  0  0  0  0  0  0  0  0  0
    1.2095   -1.3969    1.6529 H   0  0  0  0  0  0  0  0  0  0  0  0
    2.6778    0.0413   -0.4526 H   0  0  0  0  0  0  0  0  0  0  0  0
  1  2  1  0
  2  3  1  0
  3  4  1  0
  4  5  1  0
  5  6  1  0
  6  7  1  0
  7  8  1  0
  8  9  1  0
  8  2  1  0
  5  3  1  0
  8  6  1  0
  1 10  1  0
  2 11  1  0
  3 12  1  0
  5 13  1  0
  6 14  1  0
  7 15  1  0
  7 16  1  0
  9 17  1  0
M  END
