
     RDKit          3D

 19 20  0  0  0  0  0  0  0  0999 V2000
    2.2934   -0.2675    1.0944 O   0  0  0  0  0  0  0  0  0  0  0  0
    0.9681   -0.1209    0.7836 C   0  0  0  0  0  0  0  0  0  0  0  0
    0.2768   -1.4137    0.4185 C   0  0  0  0  0  0  0  0  0  0  0  0
   -0.6246   -0.9383   -0.7322 C   0  0  0  0  0  0  0  0  0  0  0  0
   -1.7553   -0.1042   -0.2228 C   0  0  0  0  0  0  0  0  0  0  0  0
   -1.5743    1.2387   -0.2898 O   0  0  0  0  0  0  0  0  0  0  0  0
   -0.3071    1.7091   -0.1779 C   0  0  0  0  0  0  0  0  0  0  0  0
    0.7736    0.6997   -0.4711 C   0  0  0  0  0  0  0  0  0  0  0  0
    0.2943   -0.1554   -1.4495 O   0  0  0  0  0  0  0  0  0  0  0  0
    2.8998   -0.1806    0.3150 H   0  0  0  0  0  0  0  0  0  0  0  0
    0.4149    0.3070    1.6581 H   0  0  0  0  0  0  0  0  0  0  0  0
    0.9604   -2.1909    0.0534 H   0  0  0  0  0  0  0  0  0  0  0  0
   -0.3871   -1.7844    1.2243 H   0  0  0  0  0  0  0  0  0  0  0  0
   -0.9673   -1.8156   -1.2966 H   0  0  0  0  0  0  0  0  0  0  0  0
   -2.6547   -0.3589   -0.8581 H   0  0  0  0  0  0  0  0  0  0  0  0
   -2.0328   -0.4425    0.8081 H   0  0  0  0  0  0  0  0  0  0  0  0
   -0.1468    2.1085    0.8480 H   0  0  0  0  0  0  0  0  0  0  0  0
   -0.1416    2.5634   -0.8767 H   0  0  0  0  0  0  0  0  0  0  0  0
    1.7104    1.1467   -0.8289 H   0  0  0  0  0  0  0  0  0  0  0  0
  1  2  1  0
  2  3  1  0
  3  4  1  0
  4  5  1  0
  5  6  1  0
  6  7  1  0
  7  8  1  0
  8  9  1  0
  8  2  1  0
  9  4  1  0
  1 10  1  0
  2 11  1  0
  3 12  1  0
  3 13  1  0
  4 14  1  0
  5 15  1  0
  5 16  1  0
  7 17  1  0
  7 18  1  0
  8 19  1  0
M  END
