
     RDKit          3D

 18 18  0  0  0  0  0  0  0  0999 V2000
   -1.6128   -0.3266    1.3863 O   0  0  0  0  0  0  0  0  0  0  0  0
   -1.4973    0.1099    0.0452 C   0  0  0  0  0  0  0  0  0  0  0  0
   -0.8902   -0.9180   -0.8088 C   0  0  0  0  0  0  0  0  0  0  0  0
    0.3453   -1.3693   -0.8187 C   0  0  0  0  0  0  0  0  0  0  0  0
    1.4524   -0.9531    0.0369 C   0  0  0  0  0  0  0  0  0  0  0  0
    1.5513    0.4772    0.3225 C   0  0  0  0  0  0  0  0  0  0  0  0
    0.6181    1.4132    0.2900 C   0  0  0  0  0  0  0  0  0  0  0  0
   -0.8112    1.4381   -0.0197 C   0  0  0  0  0  0  0  0  0  0  0  0
   -0.8942   -0.9646    1.6154 H   0  0  0  0  0  0  0  0  0  0  0  0
   -2.5500    0.2524   -0.2795 H   0  0  0  0  0  0  0  0  0  0  0  0
   -1.5243   -1.3897   -1.5442 H   0  0  0  0  0  0  0  0  0  0  0  0
    0.6020   -2.1573   -1.5494 H   0  0  0  0  0  0  0  0  0  0  0  0
    2.4099   -1.2393   -0.4934 H   0  0  0  0  0  0  0  0  0  0  0  0
    1.5075   -1.5652    0.9833 H   0  0  0  0  0  0  0  0  0  0  0  0
    2.5729    0.7908    0.6062 H   0  0  0  0  0  0  0  0  0  0  0  0
    1.0520    2.3936    0.5669 H   0  0  0  0  0  0  0  0  0  0  0  0
   -0.9608    1.8881   -1.0232 H   0  0  0  0  0  0  0  0  0  0  0  0
   -1.3705    2.1199    0.6843 H   0  0  0  0  0  0  0  0  0  0  0  0
  1  2  1  0
  2  3  1  0
  3  4  2  0
  4  5  1  0
  5  6  1  0
  6  7  2  0
  7  8  1  0
  8  2  1  0
  1  9  1  0
  2 10  1  0
  3 11  1  0
  4 12  1  0
  5 13  1  0
  5 14  1  0
  6 15  1  0
  7 16  1  0
  8 17  1  0
  8 18  1  0
M  END
