
     RDKit          3D

 18 19  0  0  0  0  0  0  0  0999 V2000
   -2.6621   -1.0126    0.2041 O   0  0  0  0  0  0  0  0  0  0  0  0
   -1.4201   -0.4961    0.4393 C   0  0  0  0  0  0  0  0  0  0  0  0
   -1.0876    0.7836   -0.3485 C   0  0  0  0  0  0  0  0  0  0  0  0
    0.2881    0.2520   -0.4121 C   0  0  0  0  0  0  0  0  0  0  0  0
    1.2685    0.6274    0.6177 C   0  0  0  0  0  0  0  0  0  0  0  0
    2.2048    0.2399   -0.5391 C   0  0  0  0  0  0  0  0  0  0  0  0
    1.1327    0.5898   -1.3954 O   0  0  0  0  0  0  0  0  0  0  0  0
   -0.2838   -1.1337   -0.3787 C   0  0  0  0  0  0  0  0  0  0  0  0
   -3.3082   -0.4143   -0.1990 H   0  0  0  0  0  0  0  0  0  0  0  0
   -1.0987   -0.3900    1.4834 H   0  0  0  0  0  0  0  0  0  0  0  0
   -1.2101    1.6902    0.2810 H   0  0  0  0  0  0  0  0  0  0  0  0
   -1.6231    0.8442   -1.3166 H   0  0  0  0  0  0  0  0  0  0  0  0
    1.3363    1.7231    0.7608 H   0  0  0  0  0  0  0  0  0  0  0  0
    1.3506   -0.0037    1.5027 H   0  0  0  0  0  0  0  0  0  0  0  0
    3.0929    0.8691   -0.6339 H   0  0  0  0  0  0  0  0  0  0  0  0
    2.4228   -0.8536   -0.5382 H   0  0  0  0  0  0  0  0  0  0  0  0
    0.2751   -1.9067    0.1317 H   0  0  0  0  0  0  0  0  0  0  0  0
   -0.6781   -1.4086   -1.3812 H   0  0  0  0  0  0  0  0  0  0  0  0
  1  2  1  0
  2  3  1  0
  3  4  1  0
  4  5  1  0
  5  6  1  0
  6  7  1  0
  4  8  1  0
  8  2  1  0
  7  4  1  0
  1  9  1  0
  2 10  1  0
  3 11  1  0
  3 12  1  0
  5 13  1  0
  5 14  1  0
  6 15  1  0
  6 16  1  0
  8 17  1  0
  8 18  1  0
M  END
