
     RDKit          3D

 19 21  0  0  0  0  0  0  0  0999 V2000
    2.4493   -0.1890    0.8643 O   0  0  0  0  0  0  0  0  0  0  0  0
    1.5874   -0.3189   -0.2038 C   0  0  0  0  0  0  0  0  0  0  0  0
    0.3325   -1.1044    0.0602 C   0  0  0  0  0  0  0  0  0  0  0  0
   -0.0920    0.0326    0.9377 C   0  0  0  0  0  0  0  0  0  0  0  0
   -1.5797    0.0543    0.8235 C   0  0  0  0  0  0  0  0  0  0  0  0
   -1.7258   -0.0681   -0.7061 C   0  0  0  0  0  0  0  0  0  0  0  0
   -0.2829   -0.3020   -1.0553 C   0  0  0  0  0  0  0  0  0  0  0  0
    0.4847    0.7125   -0.2759 C   0  0  0  0  0  0  0  0  0  0  0  0
    0.6077    1.9438   -0.4833 O   0  0  0  0  0  0  0  0  0  0  0  0
    3.3800   -0.4367    0.5791 H   0  0  0  0  0  0  0  0  0  0  0  0
    2.0243   -0.4788   -1.1938 H   0  0  0  0  0  0  0  0  0  0  0  0
    0.2453   -2.0842    0.2253 H   0  0  0  0  0  0  0  0  0  0  0  0
    0.3795    0.1750    1.8867 H   0  0  0  0  0  0  0  0  0  0  0  0
   -2.0466   -0.8597    1.2446 H   0  0  0  0  0  0  0  0  0  0  0  0
   -2.0577    0.9730    1.1648 H   0  0  0  0  0  0  0  0  0  0  0  0
   -2.3338   -0.9251   -0.9906 H   0  0  0  0  0  0  0  0  0  0  0  0
   -2.0500    0.8902   -1.1230 H   0  0  0  0  0  0  0  0  0  0  0  0
   -0.0138   -0.5227   -2.0658 H   0  0  0  0  0  0  0  0  0  0  0  0
    0.6914    2.5082    0.3115 H   0  0  0  0  0  0  0  0  0  0  0  0
  1  2  1  0
  2  3  1  0
  3  4  1  0
  4  5  1  0
  5  6  1  0
  6  7  1  0
  7  8  1  0
  8  9  1  0
  8  2  1  0
  7  3  1  0
  8  4  1  0
  1 10  1  0
  2 11  1  0
  3 12  1  0
  4 13  1  0
  5 14  1  0
  5 15  1  0
  6 16  1  0
  6 17  1  0
  7 18  1  0
  9 19  1  0
M  END
