
     RDKit          3D

 21 21  0  0  0  0  0  0  0  0999 V2000
   -0.6268   -2.3095    0.7158 O   0  0  0  0  0  0  0  0  0  0  0  0
   -0.3447   -0.9228    0.6476 C   0  0  0  0  0  0  0  0  0  0  0  0
   -1.5767   -0.2377    0.2062 C   0  0  0  0  0  0  0  0  0  0  0  0
   -1.4267    1.0595   -0.4701 C   0  0  0  0  0  0  0  0  0  0  0  0
   -0.1780    1.3853   -0.9175 O   0  0  0  0  0  0  0  0  0  0  0  0
    0.7454    1.6196    0.0731 C   0  0  0  0  0  0  0  0  0  0  0  0
    1.6949    0.4181    0.0749 C   0  0  0  0  0  0  0  0  0  0  0  0
    0.8343   -0.7855   -0.2487 C   0  0  0  0  0  0  0  0  0  0  0  0
    1.6548   -1.9095   -0.2541 O   0  0  0  0  0  0  0  0  0  0  0  0
   -1.4055   -2.5408    0.1515 H   0  0  0  0  0  0  0  0  0  0  0  0
   -0.1159   -0.6414    1.7181 H   0  0  0  0  0  0  0  0  0  0  0  0
   -2.2276   -0.0839    1.1183 H   0  0  0  0  0  0  0  0  0  0  0  0
   -2.1880   -0.9416   -0.4311 H   0  0  0  0  0  0  0  0  0  0  0  0
   -2.1193    1.1102   -1.3623 H   0  0  0  0  0  0  0  0  0  0  0  0
   -1.7780    1.9152    0.1784 H   0  0  0  0  0  0  0  0  0  0  0  0
    0.3034    1.7973    1.0643 H   0  0  0  0  0  0  0  0  0  0  0  0
    1.3127    2.5444   -0.2149 H   0  0  0  0  0  0  0  0  0  0  0  0
    2.2514    0.3275    1.0046 H   0  0  0  0  0  0  0  0  0  0  0  0
    2.3726    0.5871   -0.7988 H   0  0  0  0  0  0  0  0  0  0  0  0
    0.4684   -0.6604   -1.2933 H   0  0  0  0  0  0  0  0  0  0  0  0
    2.3494   -1.7310   -0.9620 H   0  0  0  0  0  0  0  0  0  0  0  0
  1  2  1  0
  2  3  1  0
  3  4  1  0
  4  5  1  0
  5  6  1  0
  6  7  1  0
  7  8  1  0
  8  9  1  0
  8  2  1  0
  1 10  1  0
  2 11  1  0
  3 12  1  0
  3 13  1  0
  4 14  1  0
  4 15  1  0
  6 16  1  0
  6 17  1  0
  7 18  1  0
  7 19  1  0
  8 20  1  0
  9 21  1  0
M  END
