
     RDKit          3D

 19 21  0  0  0  0  0  0  0  0999 V2000
    0.4517   -0.3733   -2.0677 O   0  0  0  0  0  0  0  0  0  0  0  0
    0.8933   -0.3797   -0.8072 C   0  0  0  0  0  0  0  0  0  0  0  0
    0.5846    0.8852    0.0112 C   0  0  0  0  0  0  0  0  0  0  0  0
    1.1849    0.3324    1.3190 C   0  0  0  0  0  0  0  0  0  0  0  0
    0.8955   -1.0306    1.3265 O   0  0  0  0  0  0  0  0  0  0  0  0
    0.1228   -1.2821    0.1654 C   0  0  0  0  0  0  0  0  0  0  0  0
   -1.1846   -0.6198    0.3698 C   0  0  0  0  0  0  0  0  0  0  0  0
   -1.8785    0.2215   -0.5780 C   0  0  0  0  0  0  0  0  0  0  0  0
   -0.8764    0.9098    0.2267 C   0  0  0  0  0  0  0  0  0  0  0  0
    1.2015   -0.1543   -2.6803 H   0  0  0  0  0  0  0  0  0  0  0  0
    1.9747   -0.5844   -0.6576 H   0  0  0  0  0  0  0  0  0  0  0  0
    1.0702    1.7652   -0.3474 H   0  0  0  0  0  0  0  0  0  0  0  0
    0.7939    0.8600    2.1941 H   0  0  0  0  0  0  0  0  0  0  0  0
    2.2853    0.5029    1.2178 H   0  0  0  0  0  0  0  0  0  0  0  0
    0.1068   -2.3127   -0.1238 H   0  0  0  0  0  0  0  0  0  0  0  0
   -1.6979   -0.9066    1.3253 H   0  0  0  0  0  0  0  0  0  0  0  0
   -2.9499    0.4721   -0.3137 H   0  0  0  0  0  0  0  0  0  0  0  0
   -1.7748    0.1725   -1.6791 H   0  0  0  0  0  0  0  0  0  0  0  0
   -1.2032    1.5218    1.0991 H   0  0  0  0  0  0  0  0  0  0  0  0
  1  2  1  0
  2  3  1  0
  3  4  1  0
  4  5  1  0
  5  6  1  0
  6  7  1  0
  7  8  1  0
  8  9  1  0
  6  2  1  0
  9  7  1  0
  9  3  1  0
  1 10  1  0
  2 11  1  0
  3 12  1  0
  4 13  1  0
  4 14  1  0
  6 15  1  0
  7 16  1  0
  8 17  1  0
  8 18  1  0
  9 19  1  0
M  END
