
     RDKit          3D

 19 21  0  0  0  0  0  0  0  0999 V2000
    2.9846    0.2914   -0.8557 O   0  0  0  0  0  0  0  0  0  0  0  0
    2.2070   -0.0369    0.2357 C   0  0  0  0  0  0  0  0  0  0  0  0
    1.1431   -1.0694   -0.1649 C   0  0  0  0  0  0  0  0  0  0  0  0
    0.1189    0.0171    0.1034 C   0  0  0  0  0  0  0  0  0  0  0  0
   -1.1986   -0.3882    0.6913 C   0  0  0  0  0  0  0  0  0  0  0  0
   -2.2687    0.5431    0.9991 C   0  0  0  0  0  0  0  0  0  0  0  0
   -2.3841   -0.2136   -0.2909 C   0  0  0  0  0  0  0  0  0  0  0  0
    0.2524    1.1335   -0.6776 O   0  0  0  0  0  0  0  0  0  0  0  0
    1.0565    0.9117    0.5048 C   0  0  0  0  0  0  0  0  0  0  0  0
    3.6397    0.9855   -0.6558 H   0  0  0  0  0  0  0  0  0  0  0  0
    2.7264   -0.3659    1.1340 H   0  0  0  0  0  0  0  0  0  0  0  0
    1.2123   -1.3890   -1.2254 H   0  0  0  0  0  0  0  0  0  0  0  0
    1.0289   -1.8930    0.5705 H   0  0  0  0  0  0  0  0  0  0  0  0
   -1.1789   -1.3560    1.2249 H   0  0  0  0  0  0  0  0  0  0  0  0
   -2.2063    1.6364    0.8869 H   0  0  0  0  0  0  0  0  0  0  0  0
   -3.0131    0.2329    1.7712 H   0  0  0  0  0  0  0  0  0  0  0  0
   -2.2003    0.3211   -1.2239 H   0  0  0  0  0  0  0  0  0  0  0  0
   -3.0609   -1.0839   -0.3782 H   0  0  0  0  0  0  0  0  0  0  0  0
    1.1413    1.7234    1.2115 H   0  0  0  0  0  0  0  0  0  0  0  0
  1  2  1  0
  2  3  1  0
  3  4  1  0
  4  5  1  0
  5  6  1  0
  6  7  1  0
  4  8  1  0
  8  9  1  0
  9  2  1  0
  9  4  1  0
  7  5  1  0
  1 10  1  0
  2 11  1  0
  3 12  1  0
  3 13  1  0
  5 14  1  0
  6 15  1  0
  6 16  1  0
  7 17  1  0
  7 18  1  0
  9 19  1  0
M  END
