
     RDKit          3D

 20 20  0  0  0  0  0  0  0  0999 V2000
    2.1276   -1.5584    0.1626 O   0  0  0  0  0  0  0  0  0  0  0  0
    1.0005   -0.7852    0.4346 C   0  0  0  0  0  0  0  0  0  0  0  0
    1.1826    0.5620   -0.2427 C   0  0  0  0  0  0  0  0  0  0  0  0
    0.1310    1.5022    0.2446 C   0  0  0  0  0  0  0  0  0  0  0  0
   -1.1632    1.4192   -0.4868 C   0  0  0  0  0  0  0  0  0  0  0  0
   -1.7329    0.1993   -0.5934 O   0  0  0  0  0  0  0  0  0  0  0  0
   -1.4307   -0.7281    0.3525 C   0  0  0  0  0  0  0  0  0  0  0  0
   -0.2023   -1.5012   -0.1066 C   0  0  0  0  0  0  0  0  0  0  0  0
    1.9737   -1.9712   -0.7278 H   0  0  0  0  0  0  0  0  0  0  0  0
    0.8814   -0.5845    1.5104 H   0  0  0  0  0  0  0  0  0  0  0  0
    2.1808    0.9416    0.1213 H   0  0  0  0  0  0  0  0  0  0  0  0
    1.2054    0.4857   -1.3434 H   0  0  0  0  0  0  0  0  0  0  0  0
    0.5351    2.5420    0.0548 H   0  0  0  0  0  0  0  0  0  0  0  0
    0.0446    1.4281    1.3435 H   0  0  0  0  0  0  0  0  0  0  0  0
   -0.9769    1.8094   -1.5310 H   0  0  0  0  0  0  0  0  0  0  0  0
   -1.8727    2.1237   -0.0149 H   0  0  0  0  0  0  0  0  0  0  0  0
   -1.3159   -0.3529    1.3714 H   0  0  0  0  0  0  0  0  0  0  0  0
   -2.2588   -1.4927    0.3714 H   0  0  0  0  0  0  0  0  0  0  0  0
   -0.1262   -1.5063   -1.2191 H   0  0  0  0  0  0  0  0  0  0  0  0
   -0.1831   -2.5328    0.2986 H   0  0  0  0  0  0  0  0  0  0  0  0
  1  2  1  0
  2  3  1  0
  3  4  1  0
  4  5  1  0
  5  6  1  0
  6  7  1  0
  7  8  1  0
  8  2  1  0
  1  9  1  0
  2 10  1  0
  3 11  1  0
  3 12  1  0
  4 13  1  0
  4 14  1  0
  5 15  1  0
  5 16  1  0
  7 17  1  0
  7 18  1  0
  8 19  1  0
  8 20  1  0
M  END
