
     RDKit          3D

 19 19  0  0  0  0  0  0  0  0999 V2000
    2.3376    0.6110   -0.8826 O   0  0  0  0  0  0  0  0  0  0  0  0
    1.6392    0.0654    0.2174 C   0  0  0  0  0  0  0  0  0  0  0  0
    0.7266    1.0598    0.7712 C   0  0  0  0  0  0  0  0  0  0  0  0
   -0.5776    1.1414    0.7186 C   0  0  0  0  0  0  0  0  0  0  0  0
   -1.5970    0.2999    0.1069 C   0  0  0  0  0  0  0  0  0  0  0  0
   -2.1817    0.8937   -1.0298 O   0  0  0  0  0  0  0  0  0  0  0  0
   -1.1785   -1.0734   -0.2547 C   0  0  0  0  0  0  0  0  0  0  0  0
   -0.0116   -1.0539   -0.9978 O   0  0  0  0  0  0  0  0  0  0  0  0
    1.0378   -1.2545   -0.1029 C   0  0  0  0  0  0  0  0  0  0  0  0
    1.9689    0.3257   -1.7352 H   0  0  0  0  0  0  0  0  0  0  0  0
    2.4449   -0.1149    0.9894 H   0  0  0  0  0  0  0  0  0  0  0  0
    1.2277    1.8711    1.3225 H   0  0  0  0  0  0  0  0  0  0  0  0
   -0.9814    2.0220    1.2413 H   0  0  0  0  0  0  0  0  0  0  0  0
   -2.4489    0.2124    0.8430 H   0  0  0  0  0  0  0  0  0  0  0  0
   -1.8316    1.8112   -1.1723 H   0  0  0  0  0  0  0  0  0  0  0  0
   -1.1012   -1.7026    0.6541 H   0  0  0  0  0  0  0  0  0  0  0  0
   -1.9696   -1.5246   -0.9017 H   0  0  0  0  0  0  0  0  0  0  0  0
    0.7028   -1.7239    0.8427 H   0  0  0  0  0  0  0  0  0  0  0  0
    1.7934   -1.8659   -0.6301 H   0  0  0  0  0  0  0  0  0  0  0  0
  1  2  1  0
  2  3  1  0
  3  4  2  0
  4  5  1  0
  5  6  1  0
  5  7  1  0
  7  8  1  0
  8  9  1  0
  9  2  1  0
  1 10  1  0
  2 11  1  0
  3 12  1  0
  4 13  1  0
  5 14  1  0
  6 15  1  0
  7 16  1  0
  7 17  1  0
  9 18  1  0
  9 19  1  0
M  END
