
     RDKit          3D

 19 20  0  0  0  0  0  0  0  0999 V2000
   -0.0291    1.2956    1.1145 O   0  0  0  0  0  0  0  0  0  0  0  0
   -0.3221    0.8197   -0.1569 C   0  0  0  0  0  0  0  0  0  0  0  0
   -1.8148    0.5030   -0.2251 C   0  0  0  0  0  0  0  0  0  0  0  0
   -1.8711   -0.8191    0.5046 C   0  0  0  0  0  0  0  0  0  0  0  0
   -0.5817   -1.3178    0.6252 O   0  0  0  0  0  0  0  0  0  0  0  0
    0.2120   -0.5976   -0.2654 C   0  0  0  0  0  0  0  0  0  0  0  0
    1.6617   -0.7567   -0.0553 C   0  0  0  0  0  0  0  0  0  0  0  0
    2.5594    0.3089    0.4016 C   0  0  0  0  0  0  0  0  0  0  0  0
    2.4349   -0.0210   -1.0152 O   0  0  0  0  0  0  0  0  0  0  0  0
   -0.6134    0.8705    1.7691 H   0  0  0  0  0  0  0  0  0  0  0  0
    0.0432    1.4519   -0.9499 H   0  0  0  0  0  0  0  0  0  0  0  0
   -2.1954    0.4652   -1.2502 H   0  0  0  0  0  0  0  0  0  0  0  0
   -2.3322    1.3216    0.3151 H   0  0  0  0  0  0  0  0  0  0  0  0
   -2.3429   -0.6200    1.4894 H   0  0  0  0  0  0  0  0  0  0  0  0
   -2.4851   -1.5011   -0.1332 H   0  0  0  0  0  0  0  0  0  0  0  0
   -0.1296   -0.9453   -1.2868 H   0  0  0  0  0  0  0  0  0  0  0  0
    2.0238   -1.7935    0.1438 H   0  0  0  0  0  0  0  0  0  0  0  0
    2.1870    1.2976    0.6620 H   0  0  0  0  0  0  0  0  0  0  0  0
    3.5955    0.0382    0.7110 H   0  0  0  0  0  0  0  0  0  0  0  0
  1  2  1  0
  2  3  1  0
  3  4  1  0
  4  5  1  0
  5  6  1  0
  6  7  1  0
  7  8  1  0
  8  9  1  0
  6  2  1  0
  9  7  1  0
  1 10  1  0
  2 11  1  0
  3 12  1  0
  3 13  1  0
  4 14  1  0
  4 15  1  0
  6 16  1  0
  7 17  1  0
  8 18  1  0
  8 19  1  0
M  END
