
     RDKit          3D

 19 20  0  0  0  0  0  0  0  0999 V2000
   -1.8983    1.4603   -0.2415 O   0  0  0  0  0  0  0  0  0  0  0  0
   -0.6106    1.0033   -0.2451 C   0  0  0  0  0  0  0  0  0  0  0  0
    0.0558    1.1402    1.1060 C   0  0  0  0  0  0  0  0  0  0  0  0
    1.2487    0.5461    1.1709 C   0  0  0  0  0  0  0  0  0  0  0  0
    1.8219   -0.1662    0.0025 C   0  0  0  0  0  0  0  0  0  0  0  0
    0.8118   -0.8672   -0.8677 C   0  0  0  0  0  0  0  0  0  0  0  0
   -0.5649   -0.5047   -0.4858 C   0  0  0  0  0  0  0  0  0  0  0  0
   -1.7232   -1.2505   -0.4510 C   0  0  0  0  0  0  0  0  0  0  0  0
   -0.9662   -1.2498    0.7388 O   0  0  0  0  0  0  0  0  0  0  0  0
   -2.0947    2.1686    0.4191 H   0  0  0  0  0  0  0  0  0  0  0  0
    0.0611    1.4886   -0.9709 H   0  0  0  0  0  0  0  0  0  0  0  0
   -0.3790    1.6615    1.9369 H   0  0  0  0  0  0  0  0  0  0  0  0
    1.8307    0.5803    2.1130 H   0  0  0  0  0  0  0  0  0  0  0  0
    2.5753   -0.9173    0.3896 H   0  0  0  0  0  0  0  0  0  0  0  0
    2.4509    0.5335   -0.6258 H   0  0  0  0  0  0  0  0  0  0  0  0
    0.9683   -0.5982   -1.9522 H   0  0  0  0  0  0  0  0  0  0  0  0
    0.9554   -1.9689   -0.8451 H   0  0  0  0  0  0  0  0  0  0  0  0
   -2.7165   -0.7660   -0.3422 H   0  0  0  0  0  0  0  0  0  0  0  0
   -1.8264   -2.2937   -0.8496 H   0  0  0  0  0  0  0  0  0  0  0  0
  1  2  1  0
  2  3  1  0
  3  4  2  0
  4  5  1  0
  5  6  1  0
  6  7  1  0
  7  8  1  0
  8  9  1  0
  7  2  1  0
  9  7  1  0
  1 10  1  0
  2 11  1  0
  3 12  1  0
  4 13  1  0
  5 14  1  0
  5 15  1  0
  6 16  1  0
  6 17  1  0
  8 18  1  0
  8 19  1  0
M  END
