
     RDKit          3D

 19 21  0  0  0  0  0  0  0  0999 V2000
    2.7603   -0.4060    0.8318 O   0  0  0  0  0  0  0  0  0  0  0  0
    1.3685   -0.2646    0.6787 C   0  0  0  0  0  0  0  0  0  0  0  0
    0.8305   -0.7561   -0.5963 C   0  0  0  0  0  0  0  0  0  0  0  0
   -0.6085   -0.8558   -0.9184 C   0  0  0  0  0  0  0  0  0  0  0  0
   -1.5151   -0.7473    0.2997 C   0  0  0  0  0  0  0  0  0  0  0  0
   -1.3259    0.6905    0.6962 C   0  0  0  0  0  0  0  0  0  0  0  0
   -0.4585    1.2195   -0.4304 C   0  0  0  0  0  0  0  0  0  0  0  0
   -0.8689    0.4034   -1.5131 O   0  0  0  0  0  0  0  0  0  0  0  0
    0.9631    0.7695   -0.2881 C   0  0  0  0  0  0  0  0  0  0  0  0
    3.2355   -0.0753    0.0049 H   0  0  0  0  0  0  0  0  0  0  0  0
    0.8342   -0.4392    1.6329 H   0  0  0  0  0  0  0  0  0  0  0  0
    1.5243   -1.1518   -1.3603 H   0  0  0  0  0  0  0  0  0  0  0  0
   -0.8973   -1.6520   -1.6009 H   0  0  0  0  0  0  0  0  0  0  0  0
   -2.5617   -0.8515   -0.1018 H   0  0  0  0  0  0  0  0  0  0  0  0
   -1.2765   -1.4702    1.0797 H   0  0  0  0  0  0  0  0  0  0  0  0
   -2.2664    1.2594    0.7745 H   0  0  0  0  0  0  0  0  0  0  0  0
   -0.8290    0.7410    1.6778 H   0  0  0  0  0  0  0  0  0  0  0  0
   -0.5947    2.2761   -0.6308 H   0  0  0  0  0  0  0  0  0  0  0  0
    1.6860    1.3106   -0.8914 H   0  0  0  0  0  0  0  0  0  0  0  0
  1  2  1  0
  2  3  1  0
  3  4  1  0
  4  5  1  0
  5  6  1  0
  6  7  1  0
  7  8  1  0
  7  9  1  0
  9  2  1  0
  9  3  1  0
  8  4  1  0
  1 10  1  0
  2 11  1  0
  3 12  1  0
  4 13  1  0
  5 14  1  0
  5 15  1  0
  6 16  1  0
  6 17  1  0
  7 18  1  0
  9 19  1  0
M  END
