
     RDKit          3D

 19 20  0  0  0  0  0  0  0  0999 V2000
   -0.1815    1.8440   -0.3810 O   0  0  0  0  0  0  0  0  0  0  0  0
   -0.6121    0.5638   -0.7151 C   0  0  0  0  0  0  0  0  0  0  0  0
   -1.8109    0.2249    0.1201 C   0  0  0  0  0  0  0  0  0  0  0  0
   -1.3205   -0.8447    1.0466 C   0  0  0  0  0  0  0  0  0  0  0  0
   -0.1219   -1.3194    0.5703 O   0  0  0  0  0  0  0  0  0  0  0  0
    0.4153   -0.4152   -0.2942 C   0  0  0  0  0  0  0  0  0  0  0  0
    1.5069   -0.8351   -1.1845 C   0  0  0  0  0  0  0  0  0  0  0  0
    1.8155    0.1210   -0.1063 C   0  0  0  0  0  0  0  0  0  0  0  0
    2.4035   -0.2940    1.0868 O   0  0  0  0  0  0  0  0  0  0  0  0
   -0.8326    2.3335    0.1689 H   0  0  0  0  0  0  0  0  0  0  0  0
   -0.7923    0.4991   -1.8026 H   0  0  0  0  0  0  0  0  0  0  0  0
   -2.6909   -0.0920   -0.4927 H   0  0  0  0  0  0  0  0  0  0  0  0
   -2.1559    1.1163    0.7009 H   0  0  0  0  0  0  0  0  0  0  0  0
   -2.0575   -1.6792    1.1569 H   0  0  0  0  0  0  0  0  0  0  0  0
   -1.1204   -0.4340    2.0763 H   0  0  0  0  0  0  0  0  0  0  0  0
    1.9884   -1.8363   -1.0863 H   0  0  0  0  0  0  0  0  0  0  0  0
    1.4849   -0.4790   -2.2247 H   0  0  0  0  0  0  0  0  0  0  0  0
    2.0082    1.1714   -0.4245 H   0  0  0  0  0  0  0  0  0  0  0  0
    2.0739    0.3548    1.7849 H   0  0  0  0  0  0  0  0  0  0  0  0
  1  2  1  0
  2  3  1  0
  3  4  1  0
  4  5  1  0
  5  6  1  0
  6  7  1  0
  7  8  1  0
  8  9  1  0
  6  2  1  0
  8  6  1  0
  1 10  1  0
  2 11  1  0
  3 12  1  0
  3 13  1  0
  4 14  1  0
  4 15  1  0
  7 16  1  0
  7 17  1  0
  8 18  1  0
  9 19  1  0
M  END
