
     RDKit          3D

 21 22  0  0  0  0  0  0  0  0999 V2000
   -2.1702   -1.0976   -1.4205 O   0  0  0  0  0  0  0  0  0  0  0  0
   -1.7650    0.1447   -0.9364 C   0  0  0  0  0  0  0  0  0  0  0  0
   -1.9308    0.3280    0.5290 C   0  0  0  0  0  0  0  0  0  0  0  0
   -0.5437    0.2218   -0.0987 C   0  0  0  0  0  0  0  0  0  0  0  0
    0.2064   -1.0398    0.1641 C   0  0  0  0  0  0  0  0  0  0  0  0
    1.6787   -0.9237   -0.0844 C   0  0  0  0  0  0  0  0  0  0  0  0
    2.2081    0.4183    0.3856 C   0  0  0  0  0  0  0  0  0  0  0  0
    1.5574    1.3741   -0.4075 O   0  0  0  0  0  0  0  0  0  0  0  0
    0.2670    1.4683    0.0225 C   0  0  0  0  0  0  0  0  0  0  0  0
   -2.2033   -1.7810   -0.6981 H   0  0  0  0  0  0  0  0  0  0  0  0
   -1.9388    0.9950   -1.6084 H   0  0  0  0  0  0  0  0  0  0  0  0
   -2.2118   -0.4785    1.2043 H   0  0  0  0  0  0  0  0  0  0  0  0
   -2.2955    1.3364    0.8292 H   0  0  0  0  0  0  0  0  0  0  0  0
   -0.1716   -1.8515   -0.5241 H   0  0  0  0  0  0  0  0  0  0  0  0
   -0.0170   -1.4310    1.1970 H   0  0  0  0  0  0  0  0  0  0  0  0
    1.8192   -0.9636   -1.2023 H   0  0  0  0  0  0  0  0  0  0  0  0
    2.2149   -1.7750    0.3280 H   0  0  0  0  0  0  0  0  0  0  0  0
    3.2823    0.4723    0.1900 H   0  0  0  0  0  0  0  0  0  0  0  0
    2.0211    0.5561    1.4565 H   0  0  0  0  0  0  0  0  0  0  0  0
    0.2997    1.7313    1.1199 H   0  0  0  0  0  0  0  0  0  0  0  0
   -0.3074    2.2953   -0.4457 H   0  0  0  0  0  0  0  0  0  0  0  0
  1  2  1  0
  2  3  1  0
  3  4  1  0
  4  5  1  0
  5  6  1  0
  6  7  1  0
  7  8  1  0
  8  9  1  0
  4  2  1  0
  9  4  1  0
  1 10  1  0
  2 11  1  0
  3 12  1  0
  3 13  1  0
  5 14  1  0
  5 15  1  0
  6 16  1  0
  6 17  1  0
  7 18  1  0
  7 19  1  0
  9 20  1  0
  9 21  1  0
M  END
