
     RDKit          3D

 17 19  0  0  0  0  0  0  0  0999 V2000
    1.9233    0.5229    1.0109 O   0  0  0  0  0  0  0  0  0  0  0  0
    1.2511    0.2432   -0.1389 C   0  0  0  0  0  0  0  0  0  0  0  0
    0.6147   -1.1458   -0.1401 C   0  0  0  0  0  0  0  0  0  0  0  0
   -0.7338   -0.8314   -0.7447 C   0  0  0  0  0  0  0  0  0  0  0  0
   -0.5613    0.3848   -1.4457 O   0  0  0  0  0  0  0  0  0  0  0  0
    0.0507    1.1153   -0.3948 C   0  0  0  0  0  0  0  0  0  0  0  0
   -0.9976    1.0199    0.6700 C   0  0  0  0  0  0  0  0  0  0  0  0
   -1.0220    0.0022    1.5785 O   0  0  0  0  0  0  0  0  0  0  0  0
   -1.6233   -0.3538    0.3895 C   0  0  0  0  0  0  0  0  0  0  0  0
    2.8229    0.0973    0.9556 H   0  0  0  0  0  0  0  0  0  0  0  0
    1.9009    0.2890   -1.0189 H   0  0  0  0  0  0  0  0  0  0  0  0
    1.1925   -1.8812   -0.6862 H   0  0  0  0  0  0  0  0  0  0  0  0
    0.4867   -1.3993    0.9526 H   0  0  0  0  0  0  0  0  0  0  0  0
   -1.1590   -1.6164   -1.3451 H   0  0  0  0  0  0  0  0  0  0  0  0
    0.2914    2.1369   -0.6971 H   0  0  0  0  0  0  0  0  0  0  0  0
   -1.7248    1.8425    0.7173 H   0  0  0  0  0  0  0  0  0  0  0  0
   -2.7124   -0.4260    0.2901 H   0  0  0  0  0  0  0  0  0  0  0  0
  1  2  1  0
  2  3  1  0
  3  4  1  0
  4  5  1  0
  5  6  1  0
  6  7  1  0
  7  8  1  0
  8  9  1  0
  6  2  1  0
  9  7  1  0
  9  4  1  0
  1 10  1  0
  2 11  1  0
  3 12  1  0
  3 13  1  0
  4 14  1  0
  6 15  1  0
  7 16  1  0
  9 17  1  0
M  END
