
     RDKit          3D

 21 22  0  0  0  0  0  0  0  0999 V2000
    2.2434   -1.3890    0.1923 O   0  0  0  0  0  0  0  0  0  0  0  0
    1.0747   -0.7494    0.6503 C   0  0  0  0  0  0  0  0  0  0  0  0
    1.2686    0.7284    0.4325 C   0  0  0  0  0  0  0  0  0  0  0  0
   -0.0135    1.4897    0.3091 C   0  0  0  0  0  0  0  0  0  0  0  0
   -1.0711    0.7573   -0.4810 C   0  0  0  0  0  0  0  0  0  0  0  0
   -1.8476   -0.0977    0.4928 C   0  0  0  0  0  0  0  0  0  0  0  0
   -1.2670   -1.3326    0.5384 O   0  0  0  0  0  0  0  0  0  0  0  0
   -0.0782   -1.3158   -0.1349 C   0  0  0  0  0  0  0  0  0  0  0  0
   -0.3539   -0.3375   -1.2850 C   0  0  0  0  0  0  0  0  0  0  0  0
    2.1892   -1.4560   -0.8016 H   0  0  0  0  0  0  0  0  0  0  0  0
    1.0210   -0.9732    1.7339 H   0  0  0  0  0  0  0  0  0  0  0  0
    1.9358    0.8645   -0.4591 H   0  0  0  0  0  0  0  0  0  0  0  0
    1.8084    1.1369    1.3339 H   0  0  0  0  0  0  0  0  0  0  0  0
    0.1910    2.4451   -0.2065 H   0  0  0  0  0  0  0  0  0  0  0  0
   -0.4119    1.6595    1.3361 H   0  0  0  0  0  0  0  0  0  0  0  0
   -1.6884    1.3966   -1.1070 H   0  0  0  0  0  0  0  0  0  0  0  0
   -2.9158   -0.1085    0.1886 H   0  0  0  0  0  0  0  0  0  0  0  0
   -1.7897    0.3507    1.5103 H   0  0  0  0  0  0  0  0  0  0  0  0
    0.1687   -2.3176   -0.4950 H   0  0  0  0  0  0  0  0  0  0  0  0
   -1.0232   -0.8054   -2.0204 H   0  0  0  0  0  0  0  0  0  0  0  0
    0.5595    0.0540   -1.7275 H   0  0  0  0  0  0  0  0  0  0  0  0
  1  2  1  0
  2  3  1  0
  3  4  1  0
  4  5  1  0
  5  6  1  0
  6  7  1  0
  7  8  1  0
  8  9  1  0
  8  2  1  0
  9  5  1  0
  1 10  1  0
  2 11  1  0
  3 12  1  0
  3 13  1  0
  4 14  1  0
  4 15  1  0
  5 16  1  0
  6 17  1  0
  6 18  1  0
  8 19  1  0
  9 20  1  0
  9 21  1  0
M  END
