
     RDKit          3D

 19 21  0  0  0  0  0  0  0  0999 V2000
    2.5139   -0.9961    0.0377 O   0  0  0  0  0  0  0  0  0  0  0  0
    1.7295    0.1235   -0.0444 C   0  0  0  0  0  0  0  0  0  0  0  0
    0.5105    0.0369   -0.9257 C   0  0  0  0  0  0  0  0  0  0  0  0
   -0.0714    1.0872   -0.0276 C   0  0  0  0  0  0  0  0  0  0  0  0
   -1.5562    1.1582   -0.0391 C   0  0  0  0  0  0  0  0  0  0  0  0
   -2.0304   -0.0224   -0.6498 O   0  0  0  0  0  0  0  0  0  0  0  0
   -1.4826   -1.0699    0.1230 C   0  0  0  0  0  0  0  0  0  0  0  0
    0.0052   -0.9711    0.0719 C   0  0  0  0  0  0  0  0  0  0  0  0
    0.5706    0.1313    0.9241 C   0  0  0  0  0  0  0  0  0  0  0  0
    3.0222   -1.1636   -0.8052 H   0  0  0  0  0  0  0  0  0  0  0  0
    2.2195    1.1001   -0.1016 H   0  0  0  0  0  0  0  0  0  0  0  0
    0.4804   -0.0176   -1.9197 H   0  0  0  0  0  0  0  0  0  0  0  0
    0.4811    2.0269   -0.1187 H   0  0  0  0  0  0  0  0  0  0  0  0
   -1.9058    1.1923    1.0214 H   0  0  0  0  0  0  0  0  0  0  0  0
   -1.9009    2.0621   -0.5503 H   0  0  0  0  0  0  0  0  0  0  0  0
   -1.8798   -2.0386   -0.1795 H   0  0  0  0  0  0  0  0  0  0  0  0
   -1.8479   -0.8748    1.1630 H   0  0  0  0  0  0  0  0  0  0  0  0
    0.5226   -1.9369    0.1009 H   0  0  0  0  0  0  0  0  0  0  0  0
    0.6195    0.1726    1.9197 H   0  0  0  0  0  0  0  0  0  0  0  0
  1  2  1  0
  2  3  1  0
  3  4  1  0
  4  5  1  0
  5  6  1  0
  6  7  1  0
  7  8  1  0
  8  9  1  0
  9  2  1  0
  8  3  1  0
  9  4  1  0
  1 10  1  0
  2 11  1  0
  3 12  1  0
  4 13  1  0
  5 14  1  0
  5 15  1  0
  7 16  1  0
  7 17  1  0
  8 18  1  0
  9 19  1  0
M  END
