
     RDKit          3D

 21 22  0  0  0  0  0  0  0  0999 V2000
    2.4934   -0.3886    0.9944 O   0  0  0  0  0  0  0  0  0  0  0  0
    1.7501   -0.3605   -0.2061 C   0  0  0  0  0  0  0  0  0  0  0  0
    1.5838    1.0627   -0.6364 C   0  0  0  0  0  0  0  0  0  0  0  0
    0.5128    1.5808   -0.0507 C   0  0  0  0  0  0  0  0  0  0  0  0
   -0.1401    0.5747    0.8195 C   0  0  0  0  0  0  0  0  0  0  0  0
   -1.6239    0.5095    0.6575 C   0  0  0  0  0  0  0  0  0  0  0  0
   -1.9176   -0.6377   -0.2906 C   0  0  0  0  0  0  0  0  0  0  0  0
   -0.5928   -0.7900   -1.0080 C   0  0  0  0  0  0  0  0  0  0  0  0
    0.3380   -0.7121    0.1781 C   0  0  0  0  0  0  0  0  0  0  0  0
    2.4779   -1.3241    1.3047 H   0  0  0  0  0  0  0  0  0  0  0  0
    2.1823   -0.9962   -0.9777 H   0  0  0  0  0  0  0  0  0  0  0  0
    2.2298    1.5869   -1.3143 H   0  0  0  0  0  0  0  0  0  0  0  0
    0.1791    2.5946   -0.1992 H   0  0  0  0  0  0  0  0  0  0  0  0
    0.1893    0.6642    1.8716 H   0  0  0  0  0  0  0  0  0  0  0  0
   -2.1474    0.3584    1.6361 H   0  0  0  0  0  0  0  0  0  0  0  0
   -2.0171    1.4294    0.2192 H   0  0  0  0  0  0  0  0  0  0  0  0
   -2.0742   -1.5392    0.3405 H   0  0  0  0  0  0  0  0  0  0  0  0
   -2.7536   -0.4270   -0.9601 H   0  0  0  0  0  0  0  0  0  0  0  0
   -0.5063   -1.7113   -1.5770 H   0  0  0  0  0  0  0  0  0  0  0  0
   -0.4223    0.0793   -1.6584 H   0  0  0  0  0  0  0  0  0  0  0  0
    0.2590   -1.5539    0.8570 H   0  0  0  0  0  0  0  0  0  0  0  0
  1  2  1  0
  2  3  1  0
  3  4  2  0
  4  5  1  0
  5  6  1  0
  6  7  1  0
  7  8  1  0
  8  9  1  0
  9  2  1  0
  9  5  1  0
  1 10  1  0
  2 11  1  0
  3 12  1  0
  4 13  1  0
  5 14  1  0
  6 15  1  0
  6 16  1  0
  7 17  1  0
  7 18  1  0
  8 19  1  0
  8 20  1  0
  9 21  1  0
M  END
