
     RDKit          3D

 21 21  0  0  0  0  0  0  0  0999 V2000
    2.5760   -0.8277    0.7692 O   0  0  0  0  0  0  0  0  0  0  0  0
    1.7397   -0.1672   -0.1378 C   0  0  0  0  0  0  0  0  0  0  0  0
    0.8403   -1.1836   -0.7461 C   0  0  0  0  0  0  0  0  0  0  0  0
   -0.4178   -1.5612   -0.6033 C   0  0  0  0  0  0  0  0  0  0  0  0
   -1.5706   -1.1790    0.2206 C   0  0  0  0  0  0  0  0  0  0  0  0
   -2.0263    0.2162   -0.0368 C   0  0  0  0  0  0  0  0  0  0  0  0
   -1.3260    1.3322   -0.2003 C   0  0  0  0  0  0  0  0  0  0  0  0
    0.1055    1.7269   -0.2112 C   0  0  0  0  0  0  0  0  0  0  0  0
    0.9741    0.8726    0.6470 C   0  0  0  0  0  0  0  0  0  0  0  0
    2.0612   -1.2655    1.4964 H   0  0  0  0  0  0  0  0  0  0  0  0
    2.3995    0.3241   -0.8809 H   0  0  0  0  0  0  0  0  0  0  0  0
    1.3934   -1.7514   -1.5072 H   0  0  0  0  0  0  0  0  0  0  0  0
   -0.6511   -2.3696   -1.2795 H   0  0  0  0  0  0  0  0  0  0  0  0
   -1.3524   -1.2276    1.3193 H   0  0  0  0  0  0  0  0  0  0  0  0
   -2.4425   -1.8679    0.0801 H   0  0  0  0  0  0  0  0  0  0  0  0
   -3.0929    0.3161   -0.0963 H   0  0  0  0  0  0  0  0  0  0  0  0
   -1.9966    2.1675   -0.3703 H   0  0  0  0  0  0  0  0  0  0  0  0
    0.4821    1.7934   -1.2595 H   0  0  0  0  0  0  0  0  0  0  0  0
    0.1330    2.7665    0.1979 H   0  0  0  0  0  0  0  0  0  0  0  0
    0.4343    0.3670    1.4697 H   0  0  0  0  0  0  0  0  0  0  0  0
    1.7369    1.5182    1.1286 H   0  0  0  0  0  0  0  0  0  0  0  0
  1  2  1  0
  2  3  1  0
  3  4  2  3
  4  5  1  0
  5  6  1  0
  6  7  2  3
  7  8  1  0
  8  9  1  0
  9  2  1  0
  1 10  1  0
  2 11  1  0
  3 12  1  0
  4 13  1  0
  5 14  1  0
  5 15  1  0
  6 16  1  0
  7 17  1  0
  8 18  1  0
  8 19  1  0
  9 20  1  0
  9 21  1  0
M  END
