
     RDKit          3D

 19 21  0  0  0  0  0  0  0  0999 V2000
    1.4127    1.5053    0.9993 O   0  0  0  0  0  0  0  0  0  0  0  0
    1.4258    0.7146   -0.1230 C   0  0  0  0  0  0  0  0  0  0  0  0
    2.1954   -0.5878   -0.0090 C   0  0  0  0  0  0  0  0  0  0  0  0
    0.8965   -1.3003   -0.3968 C   0  0  0  0  0  0  0  0  0  0  0  0
    0.1933   -0.8750   -1.4904 O   0  0  0  0  0  0  0  0  0  0  0  0
    0.1878   -0.1386   -0.3436 C   0  0  0  0  0  0  0  0  0  0  0  0
   -1.0372    0.1607    0.4325 C   0  0  0  0  0  0  0  0  0  0  0  0
   -2.2485   -0.6442    0.2424 C   0  0  0  0  0  0  0  0  0  0  0  0
   -2.1686    0.7770   -0.2701 C   0  0  0  0  0  0  0  0  0  0  0  0
    2.0564    2.2423    0.8609 H   0  0  0  0  0  0  0  0  0  0  0  0
    1.7080    1.2576   -1.0677 H   0  0  0  0  0  0  0  0  0  0  0  0
    2.4658   -0.8500    1.0447 H   0  0  0  0  0  0  0  0  0  0  0  0
    3.0013   -0.6737   -0.7428 H   0  0  0  0  0  0  0  0  0  0  0  0
    0.7374   -2.3324   -0.0948 H   0  0  0  0  0  0  0  0  0  0  0  0
   -0.8445    0.5064    1.4832 H   0  0  0  0  0  0  0  0  0  0  0  0
   -2.9441   -0.7688    1.0950 H   0  0  0  0  0  0  0  0  0  0  0  0
   -2.1884   -1.4811   -0.4665 H   0  0  0  0  0  0  0  0  0  0  0  0
   -2.7291    1.5736    0.2290 H   0  0  0  0  0  0  0  0  0  0  0  0
   -2.1200    0.9144   -1.3822 H   0  0  0  0  0  0  0  0  0  0  0  0
  1  2  1  0
  2  3  1  0
  3  4  1  0
  4  5  1  0
  5  6  1  0
  6  7  1  0
  7  8  1  0
  8  9  1  0
  6  2  1  0
  9  7  1  0
  6  4  1  0
  1 10  1  0
  2 11  1  0
  3 12  1  0
  3 13  1  0
  4 14  1  0
  7 15  1  0
  8 16  1  0
  8 17  1  0
  9 18  1  0
  9 19  1  0
M  END
