
     RDKit          3D

 18 19  0  0  0  0  0  0  0  0999 V2000
   -2.0694    1.1158    0.3929 O   0  0  0  0  0  0  0  0  0  0  0  0
   -1.3329    0.2306   -0.3931 C   0  0  0  0  0  0  0  0  0  0  0  0
   -0.0902    0.8739   -0.9420 C   0  0  0  0  0  0  0  0  0  0  0  0
    1.0170   -0.1227   -0.7810 C   0  0  0  0  0  0  0  0  0  0  0  0
    1.9844    0.3082    0.2822 C   0  0  0  0  0  0  0  0  0  0  0  0
    1.4693   -0.7316    1.0879 O   0  0  0  0  0  0  0  0  0  0  0  0
    0.5394   -1.1823    0.1782 C   0  0  0  0  0  0  0  0  0  0  0  0
   -0.8967   -0.9175    0.4753 C   0  0  0  0  0  0  0  0  0  0  0  0
   -2.8815    1.4513   -0.0667 H   0  0  0  0  0  0  0  0  0  0  0  0
   -1.9570   -0.1048   -1.2597 H   0  0  0  0  0  0  0  0  0  0  0  0
   -0.1984    1.0734   -2.0373 H   0  0  0  0  0  0  0  0  0  0  0  0
    0.1074    1.8488   -0.4721 H   0  0  0  0  0  0  0  0  0  0  0  0
    1.4536   -0.5381   -1.6995 H   0  0  0  0  0  0  0  0  0  0  0  0
    3.0456    0.1697    0.0005 H   0  0  0  0  0  0  0  0  0  0  0  0
    1.7559    1.2929    0.7594 H   0  0  0  0  0  0  0  0  0  0  0  0
    0.7044   -2.2069   -0.2300 H   0  0  0  0  0  0  0  0  0  0  0  0
   -1.1248   -0.7601    1.5431 H   0  0  0  0  0  0  0  0  0  0  0  0
   -1.5260   -1.8008    0.1661 H   0  0  0  0  0  0  0  0  0  0  0  0
  1  2  1  0
  2  3  1  0
  3  4  1  0
  4  5  1  0
  5  6  1  0
  6  7  1  0
  7  8  1  0
  8  2  1  0
  7  4  1  0
  1  9  1  0
  2 10  1  0
  3 11  1  0
  3 12  1  0
  4 13  1  0
  5 14  1  0
  5 15  1  0
  7 16  1  0
  8 17  1  0
  8 18  1  0
M  END
