
     RDKit          3D

 21 22  0  0  0  0  0  0  0  0999 V2000
   -0.8775    1.5485   -1.2655 O   0  0  0  0  0  0  0  0  0  0  0  0
   -1.1309    0.6685   -0.2471 C   0  0  0  0  0  0  0  0  0  0  0  0
   -1.9714   -0.5173   -0.6551 C   0  0  0  0  0  0  0  0  0  0  0  0
   -1.5874   -1.5952    0.0903 O   0  0  0  0  0  0  0  0  0  0  0  0
   -0.5151   -1.2588    0.8773 C   0  0  0  0  0  0  0  0  0  0  0  0
    0.1261   -0.0782    0.2115 C   0  0  0  0  0  0  0  0  0  0  0  0
    1.1069    0.7060    0.9755 C   0  0  0  0  0  0  0  0  0  0  0  0
    2.2052    0.1768    0.0476 C   0  0  0  0  0  0  0  0  0  0  0  0
    1.1145   -0.3693   -0.8634 C   0  0  0  0  0  0  0  0  0  0  0  0
   -1.4053    2.3740   -1.1012 H   0  0  0  0  0  0  0  0  0  0  0  0
   -1.6109    1.1253    0.6407 H   0  0  0  0  0  0  0  0  0  0  0  0
   -3.0415   -0.3026   -0.6528 H   0  0  0  0  0  0  0  0  0  0  0  0
   -1.6865   -0.7377   -1.7256 H   0  0  0  0  0  0  0  0  0  0  0  0
    0.1616   -2.1032    1.0555 H   0  0  0  0  0  0  0  0  0  0  0  0
   -0.9114   -0.8912    1.8654 H   0  0  0  0  0  0  0  0  0  0  0  0
    1.3485    0.4235    2.0035 H   0  0  0  0  0  0  0  0  0  0  0  0
    0.9996    1.8035    0.7882 H   0  0  0  0  0  0  0  0  0  0  0  0
    2.7781   -0.6581    0.4894 H   0  0  0  0  0  0  0  0  0  0  0  0
    2.7717    0.9420   -0.4837 H   0  0  0  0  0  0  0  0  0  0  0  0
    1.1842   -1.4586   -1.0480 H   0  0  0  0  0  0  0  0  0  0  0  0
    0.9416    0.2022   -1.7850 H   0  0  0  0  0  0  0  0  0  0  0  0
  1  2  1  0
  2  3  1  0
  3  4  1  0
  4  5  1  0
  5  6  1  0
  6  7  1  0
  7  8  1  0
  8  9  1  0
  6  2  1  0
  9  6  1  0
  1 10  1  0
  2 11  1  0
  3 12  1  0
  3 13  1  0
  5 14  1  0
  5 15  1  0
  7 16  1  0
  7 17  1  0
  8 18  1  0
  8 19  1  0
  9 20  1  0
  9 21  1  0
M  END
