
     RDKit          3D

 19 20  0  0  0  0  0  0  0  0999 V2000
    1.3700   -1.6071   -2.0873 O   0  0  0  0  0  0  0  0  0  0  0  0
    1.2677   -1.1858   -0.7790 C   0  0  0  0  0  0  0  0  0  0  0  0
    1.3561    0.3207   -0.8042 C   0  0  0  0  0  0  0  0  0  0  0  0
    0.4809    0.8685   -0.0005 C   0  0  0  0  0  0  0  0  0  0  0  0
   -0.1063    2.1077    0.5668 C   0  0  0  0  0  0  0  0  0  0  0  0
   -1.2960    1.8529    1.0715 C   0  0  0  0  0  0  0  0  0  0  0  0
   -1.5948    0.4103    0.8767 C   0  0  0  0  0  0  0  0  0  0  0  0
   -0.2493   -0.2409    0.6650 C   0  0  0  0  0  0  0  0  0  0  0  0
   -0.2117   -1.3323   -0.3422 C   0  0  0  0  0  0  0  0  0  0  0  0
    1.8917   -2.4318   -2.1542 H   0  0  0  0  0  0  0  0  0  0  0  0
    1.9521   -1.6421   -0.0708 H   0  0  0  0  0  0  0  0  0  0  0  0
    2.0587    0.8678   -1.4136 H   0  0  0  0  0  0  0  0  0  0  0  0
    0.3688    3.0743    0.5663 H   0  0  0  0  0  0  0  0  0  0  0  0
   -1.9686    2.5781    1.5597 H   0  0  0  0  0  0  0  0  0  0  0  0
   -2.2963    0.2314    0.0415 H   0  0  0  0  0  0  0  0  0  0  0  0
   -1.9899    0.0090    1.8343 H   0  0  0  0  0  0  0  0  0  0  0  0
    0.2129   -0.5108    1.6363 H   0  0  0  0  0  0  0  0  0  0  0  0
   -0.8415   -1.0367   -1.2056 H   0  0  0  0  0  0  0  0  0  0  0  0
   -0.4045   -2.3333    0.0395 H   0  0  0  0  0  0  0  0  0  0  0  0
  1  2  1  0
  2  3  1  0
  3  4  2  0
  4  5  1  0
  5  6  2  0
  6  7  1  0
  7  8  1  0
  8  9  1  0
  9  2  1  0
  8  4  1  0
  1 10  1  0
  2 11  1  0
  3 12  1  0
  5 13  1  0
  6 14  1  0
  7 15  1  0
  7 16  1  0
  8 17  1  0
  9 18  1  0
  9 19  1  0
M  END
