
     RDKit          3D

 16 16  0  0  0  0  0  0  0  0999 V2000
   -1.5912    0.5158    1.2224 O   0  0  0  0  0  0  0  0  0  0  0  0
   -1.3586    0.3687   -0.1647 C   0  0  0  0  0  0  0  0  0  0  0  0
   -0.8929   -0.9901   -0.4271 C   0  0  0  0  0  0  0  0  0  0  0  0
    0.2658   -1.6161   -0.1991 C   0  0  0  0  0  0  0  0  0  0  0  0
    1.4185   -0.9786    0.4292 C   0  0  0  0  0  0  0  0  0  0  0  0
    1.7026    0.3356    0.3785 C   0  0  0  0  0  0  0  0  0  0  0  0
    0.9386    1.3819   -0.2991 C   0  0  0  0  0  0  0  0  0  0  0  0
   -0.3592    1.3927   -0.5283 C   0  0  0  0  0  0  0  0  0  0  0  0
   -2.0434   -0.2774    1.5623 H   0  0  0  0  0  0  0  0  0  0  0  0
   -2.2949    0.5630   -0.7310 H   0  0  0  0  0  0  0  0  0  0  0  0
   -1.6202   -1.6515   -0.9067 H   0  0  0  0  0  0  0  0  0  0  0  0
    0.3572   -2.6533   -0.4912 H   0  0  0  0  0  0  0  0  0  0  0  0
    2.0954   -1.6024    0.9731 H   0  0  0  0  0  0  0  0  0  0  0  0
    2.5956    0.6791    0.8890 H   0  0  0  0  0  0  0  0  0  0  0  0
    1.5300    2.2424   -0.6432 H   0  0  0  0  0  0  0  0  0  0  0  0
   -0.7432    2.2901   -1.0640 H   0  0  0  0  0  0  0  0  0  0  0  0
  1  2  1  0
  2  3  1  0
  3  4  2  0
  4  5  1  0
  5  6  2  0
  6  7  1  0
  7  8  2  0
  8  2  1  0
  1  9  1  0
  2 10  1  0
  3 11  1  0
  4 12  1  0
  5 13  1  0
  6 14  1  0
  7 15  1  0
  8 16  1  0
M  END
