
     RDKit          3D

 17 18  0  0  0  0  0  0  0  0999 V2000
   -2.3059    0.1554    0.6100 O   0  0  0  0  0  0  0  0  0  0  0  0
   -1.3813   -0.4513   -0.2290 C   0  0  0  0  0  0  0  0  0  0  0  0
   -0.2521   -1.0811    0.5611 C   0  0  0  0  0  0  0  0  0  0  0  0
    0.3119   -2.1868   -0.0932 O   0  0  0  0  0  0  0  0  0  0  0  0
    0.5665    0.1394    0.2924 C   0  0  0  0  0  0  0  0  0  0  0  0
    1.9317    0.2056    0.3922 C   0  0  0  0  0  0  0  0  0  0  0  0
    1.0557    0.9356    1.2724 O   0  0  0  0  0  0  0  0  0  0  0  0
   -0.3810    0.5767   -0.7529 C   0  0  0  0  0  0  0  0  0  0  0  0
   -0.8194    1.8805   -0.7359 O   0  0  0  0  0  0  0  0  0  0  0  0
   -2.2124    1.1365    0.6112 H   0  0  0  0  0  0  0  0  0  0  0  0
   -1.8113   -1.1088   -1.0200 H   0  0  0  0  0  0  0  0  0  0  0  0
   -0.5188   -1.2899    1.6051 H   0  0  0  0  0  0  0  0  0  0  0  0
    0.8095   -1.8779   -0.9046 H   0  0  0  0  0  0  0  0  0  0  0  0
    2.5453   -0.5926    0.8892 H   0  0  0  0  0  0  0  0  0  0  0  0
    2.5868    0.8501   -0.2531 H   0  0  0  0  0  0  0  0  0  0  0  0
   -0.0273    0.2188   -1.7649 H   0  0  0  0  0  0  0  0  0  0  0  0
   -0.0979    2.4898   -0.4800 H   0  0  0  0  0  0  0  0  0  0  0  0
  1  2  1  0
  2  3  1  0
  3  4  1  0
  3  5  1  0
  5  6  1  0
  6  7  1  0
  5  8  1  0
  8  9  1  0
  8  2  1  0
  7  5  1  0
  1 10  1  0
  2 11  1  0
  3 12  1  0
  4 13  1  0
  6 14  1  0
  6 15  1  0
  8 16  1  0
  9 17  1  0
M  END
