
     RDKit          3D

 19 21  0  0  0  0  0  0  0  0999 V2000
   -2.4417   -1.2290   -0.3434 O   0  0  0  0  0  0  0  0  0  0  0  0
   -1.6067   -0.1583   -0.4748 C   0  0  0  0  0  0  0  0  0  0  0  0
   -0.9385    0.3202    0.8192 C   0  0  0  0  0  0  0  0  0  0  0  0
   -0.2560    1.4326    0.3589 O   0  0  0  0  0  0  0  0  0  0  0  0
    0.4241    0.9422   -0.7845 C   0  0  0  0  0  0  0  0  0  0  0  0
    1.8157    0.5998   -0.3083 C   0  0  0  0  0  0  0  0  0  0  0  0
    1.4538   -0.3261    0.8667 C   0  0  0  0  0  0  0  0  0  0  0  0
    0.0526   -0.7981    0.6043 C   0  0  0  0  0  0  0  0  0  0  0  0
   -0.1882   -0.4301   -0.8683 C   0  0  0  0  0  0  0  0  0  0  0  0
   -3.2901   -0.9127    0.0599 H   0  0  0  0  0  0  0  0  0  0  0  0
   -2.0290    0.7276   -0.9843 H   0  0  0  0  0  0  0  0  0  0  0  0
   -1.5180    0.3561    1.6973 H   0  0  0  0  0  0  0  0  0  0  0  0
    0.3512    1.5596   -1.6472 H   0  0  0  0  0  0  0  0  0  0  0  0
    2.3244    1.5117    0.0404 H   0  0  0  0  0  0  0  0  0  0  0  0
    2.4154    0.0706   -1.0635 H   0  0  0  0  0  0  0  0  0  0  0  0
    2.1854   -1.1249    0.9942 H   0  0  0  0  0  0  0  0  0  0  0  0
    1.3993    0.3624    1.7497 H   0  0  0  0  0  0  0  0  0  0  0  0
   -0.2267   -1.7902    0.8958 H   0  0  0  0  0  0  0  0  0  0  0  0
    0.0729   -1.1136   -1.6120 H   0  0  0  0  0  0  0  0  0  0  0  0
  1  2  1  0
  2  3  1  0
  3  4  1  0
  4  5  1  0
  5  6  1  0
  6  7  1  0
  7  8  1  0
  8  9  1  0
  9  2  1  0
  8  3  1  0
  9  5  1  0
  1 10  1  0
  2 11  1  0
  3 12  1  0
  5 13  1  0
  6 14  1  0
  6 15  1  0
  7 16  1  0
  7 17  1  0
  8 18  1  0
  9 19  1  0
M  END
