
     RDKit          3D

 19 20  0  0  0  0  0  0  0  0999 V2000
   -2.1456   -1.3590    0.3871 O   0  0  0  0  0  0  0  0  0  0  0  0
   -1.1371   -0.5054   -0.1009 C   0  0  0  0  0  0  0  0  0  0  0  0
   -1.1653    0.7639    0.6813 C   0  0  0  0  0  0  0  0  0  0  0  0
   -0.2336    1.7155    0.0172 C   0  0  0  0  0  0  0  0  0  0  0  0
    0.9101    1.4134   -0.5801 C   0  0  0  0  0  0  0  0  0  0  0  0
    1.6329    0.0885   -0.6311 C   0  0  0  0  0  0  0  0  0  0  0  0
    1.2778   -0.7176    0.6098 C   0  0  0  0  0  0  0  0  0  0  0  0
    0.1528   -1.2029   -0.1990 C   0  0  0  0  0  0  0  0  0  0  0  0
    0.8823   -0.8420   -1.3561 O   0  0  0  0  0  0  0  0  0  0  0  0
   -2.2640   -2.0733   -0.2737 H   0  0  0  0  0  0  0  0  0  0  0  0
   -1.4765   -0.2468   -1.1477 H   0  0  0  0  0  0  0  0  0  0  0  0
   -2.2222    1.1463    0.6398 H   0  0  0  0  0  0  0  0  0  0  0  0
   -0.9142    0.6381    1.7456 H   0  0  0  0  0  0  0  0  0  0  0  0
   -0.5461    2.7453    0.0399 H   0  0  0  0  0  0  0  0  0  0  0  0
    1.3765    2.2443   -1.0985 H   0  0  0  0  0  0  0  0  0  0  0  0
    2.6849    0.1764   -0.8710 H   0  0  0  0  0  0  0  0  0  0  0  0
    1.1051   -0.1544    1.5157 H   0  0  0  0  0  0  0  0  0  0  0  0
    2.0637   -1.5198    0.7277 H   0  0  0  0  0  0  0  0  0  0  0  0
    0.0185   -2.3106   -0.1059 H   0  0  0  0  0  0  0  0  0  0  0  0
  1  2  1  0
  2  3  1  0
  3  4  1  0
  4  5  2  0
  5  6  1  0
  6  7  1  0
  7  8  1  0
  8  9  1  0
  8  2  1  0
  9  6  1  0
  1 10  1  0
  2 11  1  0
  3 12  1  0
  3 13  1  0
  4 14  1  0
  5 15  1  0
  6 16  1  0
  7 17  1  0
  7 18  1  0
  8 19  1  0
M  END
