
     RDKit          3D

 21 21  0  0  0  0  0  0  0  0999 V2000
   -2.8229   -0.9821   -0.2666 O   0  0  0  0  0  0  0  0  0  0  0  0
   -1.5330   -0.4744   -0.4276 C   0  0  0  0  0  0  0  0  0  0  0  0
   -0.6132   -1.1459    0.5271 C   0  0  0  0  0  0  0  0  0  0  0  0
    0.7021   -1.2600    0.7245 C   0  0  0  0  0  0  0  0  0  0  0  0
    1.9028   -0.7366    0.0386 C   0  0  0  0  0  0  0  0  0  0  0  0
    1.8471    0.7951    0.1385 C   0  0  0  0  0  0  0  0  0  0  0  0
    0.6547    1.2333   -0.6948 C   0  0  0  0  0  0  0  0  0  0  0  0
   -0.3666    1.5770    0.1247 O   0  0  0  0  0  0  0  0  0  0  0  0
   -1.5755    0.9799   -0.0792 C   0  0  0  0  0  0  0  0  0  0  0  0
   -3.0389   -1.1736    0.6770 H   0  0  0  0  0  0  0  0  0  0  0  0
   -1.2578   -0.6660   -1.4848 H   0  0  0  0  0  0  0  0  0  0  0  0
   -1.1654   -1.7008    1.2771 H   0  0  0  0  0  0  0  0  0  0  0  0
    0.9616   -1.8732    1.5786 H   0  0  0  0  0  0  0  0  0  0  0  0
    1.9041   -0.9662   -1.0388 H   0  0  0  0  0  0  0  0  0  0  0  0
    2.8169   -1.1005    0.5129 H   0  0  0  0  0  0  0  0  0  0  0  0
    2.7840    1.2492   -0.1833 H   0  0  0  0  0  0  0  0  0  0  0  0
    1.6728    0.9999    1.2322 H   0  0  0  0  0  0  0  0  0  0  0  0
    0.4270    0.4841   -1.4713 H   0  0  0  0  0  0  0  0  0  0  0  0
    1.0145    2.1426   -1.2627 H   0  0  0  0  0  0  0  0  0  0  0  0
   -2.1686    1.5622   -0.8121 H   0  0  0  0  0  0  0  0  0  0  0  0
   -2.1459    1.0559    0.8898 H   0  0  0  0  0  0  0  0  0  0  0  0
  1  2  1  0
  2  3  1  0
  3  4  2  3
  4  5  1  0
  5  6  1  0
  6  7  1  0
  7  8  1  0
  8  9  1  0
  9  2  1  0
  1 10  1  0
  2 11  1  0
  3 12  1  0
  4 13  1  0
  5 14  1  0
  5 15  1  0
  6 16  1  0
  6 17  1  0
  7 18  1  0
  7 19  1  0
  9 20  1  0
  9 21  1  0
M  END
