
     RDKit          3D

 19 20  0  0  0  0  0  0  0  0999 V2000
   -1.6974    1.6689   -1.0993 O   0  0  0  0  0  0  0  0  0  0  0  0
   -0.9608    0.8443   -0.2481 C   0  0  0  0  0  0  0  0  0  0  0  0
   -1.7287   -0.4900   -0.2081 C   0  0  0  0  0  0  0  0  0  0  0  0
   -0.9767   -1.3116    0.7808 C   0  0  0  0  0  0  0  0  0  0  0  0
    0.3437   -1.3270    0.8587 C   0  0  0  0  0  0  0  0  0  0  0  0
    1.1258   -0.4917   -0.0779 C   0  0  0  0  0  0  0  0  0  0  0  0
    2.0522   -1.2461   -0.8369 O   0  0  0  0  0  0  0  0  0  0  0  0
    1.5738    0.8552    0.3434 C   0  0  0  0  0  0  0  0  0  0  0  0
    0.4438    0.6493   -0.6879 C   0  0  0  0  0  0  0  0  0  0  0  0
   -1.4942    2.6264   -0.9550 H   0  0  0  0  0  0  0  0  0  0  0  0
   -0.9718    1.2500    0.8042 H   0  0  0  0  0  0  0  0  0  0  0  0
   -2.7392   -0.2621    0.1723 H   0  0  0  0  0  0  0  0  0  0  0  0
   -1.7210   -0.9264   -1.2170 H   0  0  0  0  0  0  0  0  0  0  0  0
   -1.5375   -1.9253    1.4684 H   0  0  0  0  0  0  0  0  0  0  0  0
    0.8598   -1.9585    1.6187 H   0  0  0  0  0  0  0  0  0  0  0  0
    2.8727   -1.3999   -0.2929 H   0  0  0  0  0  0  0  0  0  0  0  0
    1.2782    1.2663    1.3289 H   0  0  0  0  0  0  0  0  0  0  0  0
    2.5509    1.1866   -0.0379 H   0  0  0  0  0  0  0  0  0  0  0  0
    0.7263    0.9916   -1.7146 H   0  0  0  0  0  0  0  0  0  0  0  0
  1  2  1  0
  2  3  1  0
  3  4  1  0
  4  5  2  0
  5  6  1  0
  6  7  1  0
  6  8  1  0
  8  9  1  0
  9  2  1  0
  9  6  1  0
  1 10  1  0
  2 11  1  0
  3 12  1  0
  3 13  1  0
  4 14  1  0
  5 15  1  0
  7 16  1  0
  8 17  1  0
  8 18  1  0
  9 19  1  0
M  END
