
     RDKit          3D

 19 21  0  0  0  0  0  0  0  0999 V2000
   -2.8613   -0.1435    0.0805 O   0  0  0  0  0  0  0  0  0  0  0  0
   -1.5639    0.2737    0.3637 C   0  0  0  0  0  0  0  0  0  0  0  0
   -0.9336    1.1576   -0.6834 C   0  0  0  0  0  0  0  0  0  0  0  0
    0.0458    0.0760   -1.0040 C   0  0  0  0  0  0  0  0  0  0  0  0
    1.4515    0.2638   -0.5605 C   0  0  0  0  0  0  0  0  0  0  0  0
    1.8219    0.8394    0.7330 C   0  0  0  0  0  0  0  0  0  0  0  0
    1.6049   -0.6540    0.5891 C   0  0  0  0  0  0  0  0  0  0  0  0
    0.3710   -1.0979    0.9855 O   0  0  0  0  0  0  0  0  0  0  0  0
   -0.5562   -0.8076    0.0318 C   0  0  0  0  0  0  0  0  0  0  0  0
   -3.4354   -0.1534    0.8748 H   0  0  0  0  0  0  0  0  0  0  0  0
   -1.5131    0.6687    1.3969 H   0  0  0  0  0  0  0  0  0  0  0  0
   -1.6562    1.3140   -1.5272 H   0  0  0  0  0  0  0  0  0  0  0  0
   -0.5302    2.1181   -0.3345 H   0  0  0  0  0  0  0  0  0  0  0  0
   -0.0172   -0.2948   -2.0533 H   0  0  0  0  0  0  0  0  0  0  0  0
    2.2468    0.1601   -1.3421 H   0  0  0  0  0  0  0  0  0  0  0  0
    1.1510    1.4283    1.3692 H   0  0  0  0  0  0  0  0  0  0  0  0
    2.8928    1.1105    0.8626 H   0  0  0  0  0  0  0  0  0  0  0  0
    2.4811   -1.3345    0.6726 H   0  0  0  0  0  0  0  0  0  0  0  0
   -0.9999   -1.7171   -0.4548 H   0  0  0  0  0  0  0  0  0  0  0  0
  1  2  1  0
  2  3  1  0
  3  4  1  0
  4  5  1  0
  5  6  1  0
  6  7  1  0
  7  8  1  0
  8  9  1  0
  9  2  1  0
  9  4  1  0
  7  5  1  0
  1 10  1  0
  2 11  1  0
  3 12  1  0
  3 13  1  0
  4 14  1  0
  5 15  1  0
  6 16  1  0
  6 17  1  0
  7 18  1  0
  9 19  1  0
M  END
