
     RDKit          3D

 21 22  0  0  0  0  0  0  0  0999 V2000
    2.7068    0.9422    0.1348 O   0  0  0  0  0  0  0  0  0  0  0  0
    1.5154    0.3081   -0.1988 C   0  0  0  0  0  0  0  0  0  0  0  0
    1.4978   -1.1444    0.2023 C   0  0  0  0  0  0  0  0  0  0  0  0
    0.3686   -1.7374   -0.3383 O   0  0  0  0  0  0  0  0  0  0  0  0
   -0.7804   -1.5060    0.4112 C   0  0  0  0  0  0  0  0  0  0  0  0
   -1.5409   -0.4014   -0.2668 C   0  0  0  0  0  0  0  0  0  0  0  0
   -2.1258    0.7278    0.4474 C   0  0  0  0  0  0  0  0  0  0  0  0
   -0.8465    0.8829   -0.3150 C   0  0  0  0  0  0  0  0  0  0  0  0
    0.3864    0.9927    0.5430 C   0  0  0  0  0  0  0  0  0  0  0  0
    2.6164    1.8818   -0.1674 H   0  0  0  0  0  0  0  0  0  0  0  0
    1.4002    0.4131   -1.3022 H   0  0  0  0  0  0  0  0  0  0  0  0
    1.5371   -1.2160    1.3026 H   0  0  0  0  0  0  0  0  0  0  0  0
    2.3783   -1.6206   -0.2948 H   0  0  0  0  0  0  0  0  0  0  0  0
   -1.3905   -2.4510    0.3278 H   0  0  0  0  0  0  0  0  0  0  0  0
   -0.6010   -1.3526    1.4729 H   0  0  0  0  0  0  0  0  0  0  0  0
   -2.0774   -0.7526   -1.1953 H   0  0  0  0  0  0  0  0  0  0  0  0
   -2.9997    1.2362   -0.0091 H   0  0  0  0  0  0  0  0  0  0  0  0
   -2.1137    0.8306    1.5552 H   0  0  0  0  0  0  0  0  0  0  0  0
   -0.8092    1.4045   -1.2799 H   0  0  0  0  0  0  0  0  0  0  0  0
    0.6221    2.0615    0.7626 H   0  0  0  0  0  0  0  0  0  0  0  0
    0.2560    0.5007    1.5176 H   0  0  0  0  0  0  0  0  0  0  0  0
  1  2  1  0
  2  3  1  0
  3  4  1  0
  4  5  1  0
  5  6  1  0
  6  7  1  0
  7  8  1  0
  8  9  1  0
  9  2  1  0
  8  6  1  0
  1 10  1  0
  2 11  1  0
  3 12  1  0
  3 13  1  0
  5 14  1  0
  5 15  1  0
  6 16  1  0
  7 17  1  0
  7 18  1  0
  8 19  1  0
  9 20  1  0
  9 21  1  0
M  END
