
     RDKit          3D

 19 21  0  0  0  0  0  0  0  0999 V2000
    3.1282    0.8280   -0.9684 O   0  0  0  0  0  0  0  0  0  0  0  0
    2.3014   -0.1870   -0.4288 C   0  0  0  0  0  0  0  0  0  0  0  0
    1.7226    0.0450    0.8421 C   0  0  0  0  0  0  0  0  0  0  0  0
    0.6015    0.8012    1.1862 O   0  0  0  0  0  0  0  0  0  0  0  0
   -0.0789   -0.3568    0.7188 C   0  0  0  0  0  0  0  0  0  0  0  0
   -1.5200   -0.1725    0.4282 C   0  0  0  0  0  0  0  0  0  0  0  0
   -2.0909    0.7595   -0.5403 C   0  0  0  0  0  0  0  0  0  0  0  0
   -2.1267   -0.6985   -0.8493 C   0  0  0  0  0  0  0  0  0  0  0  0
    0.8568   -0.1292   -0.4712 C   0  0  0  0  0  0  0  0  0  0  0  0
    3.2720    1.5600   -0.3473 H   0  0  0  0  0  0  0  0  0  0  0  0
    2.7438   -1.1914   -0.6975 H   0  0  0  0  0  0  0  0  0  0  0  0
    1.7207   -0.8628    1.5238 H   0  0  0  0  0  0  0  0  0  0  0  0
    0.1342   -1.2799    1.2795 H   0  0  0  0  0  0  0  0  0  0  0  0
   -2.1796   -0.3881    1.3213 H   0  0  0  0  0  0  0  0  0  0  0  0
   -1.4166    1.4427   -1.0933 H   0  0  0  0  0  0  0  0  0  0  0  0
   -3.0612    1.2881   -0.3003 H   0  0  0  0  0  0  0  0  0  0  0  0
   -1.4236   -1.0765   -1.6290 H   0  0  0  0  0  0  0  0  0  0  0  0
   -3.0965   -1.2365   -0.8263 H   0  0  0  0  0  0  0  0  0  0  0  0
    0.5127    0.8547   -0.9252 H   0  0  0  0  0  0  0  0  0  0  0  0
  1  2  1  0
  2  3  1  0
  3  4  1  0
  4  5  1  0
  5  6  1  0
  6  7  1  0
  7  8  1  0
  5  9  1  0
  9  2  1  0
  9  3  1  0
  8  6  1  0
  1 10  1  0
  2 11  1  0
  3 12  1  0
  5 13  1  0
  6 14  1  0
  7 15  1  0
  7 16  1  0
  8 17  1  0
  8 18  1  0
  9 19  1  0
M  END
