
     RDKit          3D

 16 17  0  0  0  0  0  0  0  0999 V2000
   -1.4631   -1.6181    0.7051 O   0  0  0  0  0  0  0  0  0  0  0  0
   -0.8112   -0.8869   -0.2614 C   0  0  0  0  0  0  0  0  0  0  0  0
   -1.2641    0.5470   -0.2834 C   0  0  0  0  0  0  0  0  0  0  0  0
   -0.3218    1.4300   -0.5670 C   0  0  0  0  0  0  0  0  0  0  0  0
    1.0799    0.9473   -0.5809 C   0  0  0  0  0  0  0  0  0  0  0  0
    1.2561    0.1742    0.7270 C   0  0  0  0  0  0  0  0  0  0  0  0
    0.6750   -0.8980   -0.1380 C   0  0  0  0  0  0  0  0  0  0  0  0
    1.2132   -0.2577   -1.2624 O   0  0  0  0  0  0  0  0  0  0  0  0
   -2.4229   -1.6550    0.4534 H   0  0  0  0  0  0  0  0  0  0  0  0
   -1.0646   -1.3615   -1.2499 H   0  0  0  0  0  0  0  0  0  0  0  0
   -2.3044    0.8218   -0.0768 H   0  0  0  0  0  0  0  0  0  0  0  0
   -0.5250    2.4613   -0.7834 H   0  0  0  0  0  0  0  0  0  0  0  0
    1.8587    1.6921   -0.7308 H   0  0  0  0  0  0  0  0  0  0  0  0
    0.6435    0.5318    1.5627 H   0  0  0  0  0  0  0  0  0  0  0  0
    2.3197   -0.0259    0.9306 H   0  0  0  0  0  0  0  0  0  0  0  0
    1.1310   -1.9024    0.0209 H   0  0  0  0  0  0  0  0  0  0  0  0
  1  2  1  0
  2  3  1  0
  3  4  2  0
  4  5  1  0
  5  6  1  0
  6  7  1  0
  7  8  1  0
  7  2  1  0
  8  5  1  0
  1  9  1  0
  2 10  1  0
  3 11  1  0
  4 12  1  0
  5 13  1  0
  6 14  1  0
  6 15  1  0
  7 16  1  0
M  END
