
     RDKit          3D

 21 23  0  0  0  0  0  0  0  0999 V2000
   -1.1228    1.3175   -1.4225 O   0  0  0  0  0  0  0  0  0  0  0  0
   -1.4842    0.3825   -0.4537 C   0  0  0  0  0  0  0  0  0  0  0  0
   -1.0209   -1.0273   -0.8705 C   0  0  0  0  0  0  0  0  0  0  0  0
    0.0299   -1.2608    0.1838 C   0  0  0  0  0  0  0  0  0  0  0  0
   -0.7031   -0.7557    1.4363 C   0  0  0  0  0  0  0  0  0  0  0  0
   -0.5427    0.5947    0.7210 C   0  0  0  0  0  0  0  0  0  0  0  0
    0.7283    0.0466    0.1950 C   0  0  0  0  0  0  0  0  0  0  0  0
    2.0571    0.3597    0.5591 C   0  0  0  0  0  0  0  0  0  0  0  0
    1.5111    0.6011   -0.8900 C   0  0  0  0  0  0  0  0  0  0  0  0
   -1.0199    2.1864   -0.9169 H   0  0  0  0  0  0  0  0  0  0  0  0
   -2.5349    0.4041   -0.1807 H   0  0  0  0  0  0  0  0  0  0  0  0
   -0.5356   -0.9541   -1.8813 H   0  0  0  0  0  0  0  0  0  0  0  0
   -1.8401   -1.7419   -0.8501 H   0  0  0  0  0  0  0  0  0  0  0  0
    0.5381   -2.1807    0.2444 H   0  0  0  0  0  0  0  0  0  0  0  0
   -1.7478   -1.0819    1.5089 H   0  0  0  0  0  0  0  0  0  0  0  0
   -0.1273   -0.8427    2.3645 H   0  0  0  0  0  0  0  0  0  0  0  0
   -0.6024    1.4742    1.2924 H   0  0  0  0  0  0  0  0  0  0  0  0
    2.2636    1.3042    1.1330 H   0  0  0  0  0  0  0  0  0  0  0  0
    2.8806   -0.3661    0.6437 H   0  0  0  0  0  0  0  0  0  0  0  0
    1.9300   -0.1065   -1.6406 H   0  0  0  0  0  0  0  0  0  0  0  0
    1.3432    1.6468   -1.1758 H   0  0  0  0  0  0  0  0  0  0  0  0
  1  2  1  0
  2  3  1  0
  3  4  1  0
  4  5  1  0
  5  6  1  0
  6  7  1  0
  7  8  1  0
  8  9  1  0
  6  2  1  0
  9  7  1  0
  7  4  1  0
  1 10  1  0
  2 11  1  0
  3 12  1  0
  3 13  1  0
  4 14  1  0
  5 15  1  0
  5 16  1  0
  6 17  1  0
  8 18  1  0
  8 19  1  0
  9 20  1  0
  9 21  1  0
M  END
