
     RDKit          3D

 17 19  0  0  0  0  0  0  0  0999 V2000
   -1.0247    1.2926   -1.0361 O   0  0  0  0  0  0  0  0  0  0  0  0
   -0.9119   -0.0713   -0.9808 C   0  0  0  0  0  0  0  0  0  0  0  0
   -1.6917   -0.6533    0.2335 C   0  0  0  0  0  0  0  0  0  0  0  0
   -0.7541   -0.2041    1.3218 C   0  0  0  0  0  0  0  0  0  0  0  0
    0.4808   -0.0852    0.8912 C   0  0  0  0  0  0  0  0  0  0  0  0
    1.9191    0.1585    0.7983 C   0  0  0  0  0  0  0  0  0  0  0  0
    2.7426   -0.3034   -0.1800 O   0  0  0  0  0  0  0  0  0  0  0  0
    1.6375    0.3292   -0.7143 C   0  0  0  0  0  0  0  0  0  0  0  0
    0.4393   -0.5306   -0.5732 C   0  0  0  0  0  0  0  0  0  0  0  0
   -0.5897    1.7229   -0.2448 H   0  0  0  0  0  0  0  0  0  0  0  0
   -1.3329   -0.5401   -1.8672 H   0  0  0  0  0  0  0  0  0  0  0  0
   -2.6494   -0.1389    0.2505 H   0  0  0  0  0  0  0  0  0  0  0  0
   -1.7281   -1.7358    0.1183 H   0  0  0  0  0  0  0  0  0  0  0  0
   -1.1629   -0.0234    2.3323 H   0  0  0  0  0  0  0  0  0  0  0  0
    2.3658    1.0395    1.3358 H   0  0  0  0  0  0  0  0  0  0  0  0
    1.6241    1.3615   -1.0137 H   0  0  0  0  0  0  0  0  0  0  0  0
    0.6361   -1.6182   -0.6718 H   0  0  0  0  0  0  0  0  0  0  0  0
  1  2  1  0
  2  3  1  0
  3  4  1  0
  4  5  2  0
  5  6  1  0
  6  7  1  0
  7  8  1  0
  8  9  1  0
  9  2  1  0
  9  5  1  0
  8  6  1  0
  1 10  1  0
  2 11  1  0
  3 12  1  0
  3 13  1  0
  4 14  1  0
  6 15  1  0
  8 16  1  0
  9 17  1  0
M  END
