
     RDKit          3D

 19 21  0  0  0  0  0  0  0  0999 V2000
   -2.7250   -0.6581   -0.3379 O   0  0  0  0  0  0  0  0  0  0  0  0
   -1.4049   -0.2701   -0.4729 C   0  0  0  0  0  0  0  0  0  0  0  0
   -1.0509    0.8370    0.4539 C   0  0  0  0  0  0  0  0  0  0  0  0
    0.2748    1.4885    0.1589 C   0  0  0  0  0  0  0  0  0  0  0  0
    1.2961    0.5089   -0.3419 C   0  0  0  0  0  0  0  0  0  0  0  0
    1.9933   -0.3081    0.7018 C   0  0  0  0  0  0  0  0  0  0  0  0
    0.9007   -0.9024   -0.0643 C   0  0  0  0  0  0  0  0  0  0  0  0
   -0.5060   -1.0188    0.4744 C   0  0  0  0  0  0  0  0  0  0  0  0
   -0.8064   -0.1129    1.4510 O   0  0  0  0  0  0  0  0  0  0  0  0
   -2.9722   -1.4590   -0.8322 H   0  0  0  0  0  0  0  0  0  0  0  0
   -1.0063   -0.2237   -1.4938 H   0  0  0  0  0  0  0  0  0  0  0  0
   -1.8538    1.5439    0.6394 H   0  0  0  0  0  0  0  0  0  0  0  0
    0.1963    2.3848   -0.4744 H   0  0  0  0  0  0  0  0  0  0  0  0
    0.6610    1.8629    1.1542 H   0  0  0  0  0  0  0  0  0  0  0  0
    1.8485    0.7539   -1.2949 H   0  0  0  0  0  0  0  0  0  0  0  0
    1.8167   -0.0625    1.7551 H   0  0  0  0  0  0  0  0  0  0  0  0
    3.0113   -0.7120    0.5119 H   0  0  0  0  0  0  0  0  0  0  0  0
    1.0754   -1.5930   -0.9350 H   0  0  0  0  0  0  0  0  0  0  0  0
   -0.7486   -2.0593    0.6778 H   0  0  0  0  0  0  0  0  0  0  0  0
  1  2  1  0
  2  3  1  0
  3  4  1  0
  4  5  1  0
  5  6  1  0
  6  7  1  0
  7  8  1  0
  8  9  1  0
  8  2  1  0
  9  3  1  0
  7  5  1  0
  1 10  1  0
  2 11  1  0
  3 12  1  0
  4 13  1  0
  4 14  1  0
  5 15  1  0
  6 16  1  0
  6 17  1  0
  7 18  1  0
  8 19  1  0
M  END
