
     RDKit          3D

 18 19  0  0  0  0  0  0  0  0999 V2000
    2.6600   -0.6774    0.5059 O   0  0  0  0  0  0  0  0  0  0  0  0
    1.4364   -0.4299   -0.1186 C   0  0  0  0  0  0  0  0  0  0  0  0
    1.0206    1.0124   -0.1056 C   0  0  0  0  0  0  0  0  0  0  0  0
   -0.1944    0.6373    0.6678 C   0  0  0  0  0  0  0  0  0  0  0  0
   -1.5030    0.6521   -0.0737 C   0  0  0  0  0  0  0  0  0  0  0  0
   -1.8856   -0.8087   -0.0567 C   0  0  0  0  0  0  0  0  0  0  0  0
   -0.7400   -1.5453    0.0518 O   0  0  0  0  0  0  0  0  0  0  0  0
    0.2254   -0.8134    0.6829 C   0  0  0  0  0  0  0  0  0  0  0  0
    3.3674   -0.4185   -0.1400 H   0  0  0  0  0  0  0  0  0  0  0  0
    1.4800   -0.8373   -1.1560 H   0  0  0  0  0  0  0  0  0  0  0  0
    0.8599    1.4463   -1.1148 H   0  0  0  0  0  0  0  0  0  0  0  0
    1.6941    1.7022    0.4649 H   0  0  0  0  0  0  0  0  0  0  0  0
   -0.2398    1.0253    1.6971 H   0  0  0  0  0  0  0  0  0  0  0  0
   -1.4470    1.0637   -1.0833 H   0  0  0  0  0  0  0  0  0  0  0  0
   -2.2225    1.2582    0.5328 H   0  0  0  0  0  0  0  0  0  0  0  0
   -2.3962   -1.0901   -1.0072 H   0  0  0  0  0  0  0  0  0  0  0  0
   -2.6130   -0.9610    0.7571 H   0  0  0  0  0  0  0  0  0  0  0  0
    0.4978   -1.2161    1.6803 H   0  0  0  0  0  0  0  0  0  0  0  0
  1  2  1  0
  2  3  1  0
  3  4  1  0
  4  5  1  0
  5  6  1  0
  6  7  1  0
  7  8  1  0
  8  2  1  0
  8  4  1  0
  1  9  1  0
  2 10  1  0
  3 11  1  0
  3 12  1  0
  4 13  1  0
  5 14  1  0
  5 15  1  0
  6 16  1  0
  6 17  1  0
  8 18  1  0
M  END
