
     RDKit          3D

 19 20  0  0  0  0  0  0  0  0999 V2000
   -1.4882    1.3549   -1.0879 O   0  0  0  0  0  0  0  0  0  0  0  0
   -0.7430    0.8648   -0.0166 C   0  0  0  0  0  0  0  0  0  0  0  0
    0.7079    0.9357   -0.4115 C   0  0  0  0  0  0  0  0  0  0  0  0
    1.6146    0.3902    0.6806 C   0  0  0  0  0  0  0  0  0  0  0  0
    1.1834   -0.9195    0.8532 O   0  0  0  0  0  0  0  0  0  0  0  0
    0.3359   -1.2542   -0.1726 C   0  0  0  0  0  0  0  0  0  0  0  0
    0.7799   -0.3170   -1.3102 C   0  0  0  0  0  0  0  0  0  0  0  0
   -1.0216   -0.6390    0.1364 C   0  0  0  0  0  0  0  0  0  0  0  0
   -1.4746   -0.9520    1.3980 O   0  0  0  0  0  0  0  0  0  0  0  0
   -2.3908    1.5444   -0.7728 H   0  0  0  0  0  0  0  0  0  0  0  0
   -0.9857    1.4149    0.8966 H   0  0  0  0  0  0  0  0  0  0  0  0
    1.0389    1.8308   -0.8898 H   0  0  0  0  0  0  0  0  0  0  0  0
    2.6402    0.3556    0.2051 H   0  0  0  0  0  0  0  0  0  0  0  0
    1.6133    0.9903    1.5869 H   0  0  0  0  0  0  0  0  0  0  0  0
    0.3036   -2.2855   -0.4622 H   0  0  0  0  0  0  0  0  0  0  0  0
    0.0259   -0.2198   -2.0809 H   0  0  0  0  0  0  0  0  0  0  0  0
    1.7976   -0.5208   -1.6362 H   0  0  0  0  0  0  0  0  0  0  0  0
   -1.7264   -0.9623   -0.6749 H   0  0  0  0  0  0  0  0  0  0  0  0
   -2.2110   -1.6114    1.3466 H   0  0  0  0  0  0  0  0  0  0  0  0
  1  2  1  0
  2  3  1  0
  3  4  1  0
  4  5  1  0
  5  6  1  0
  6  7  1  0
  6  8  1  0
  8  9  1  0
  8  2  1  0
  7  3  1  0
  1 10  1  0
  2 11  1  0
  3 12  1  0
  4 13  1  0
  4 14  1  0
  6 15  1  0
  7 16  1  0
  7 17  1  0
  8 18  1  0
  9 19  1  0
M  END
