
     RDKit          3D

 19 21  0  0  0  0  0  0  0  0999 V2000
   -2.1836    0.7205   -0.3786 O   0  0  0  0  0  0  0  0  0  0  0  0
   -1.2385    0.4224    0.6209 C   0  0  0  0  0  0  0  0  0  0  0  0
   -0.8113   -1.0353    0.3820 C   0  0  0  0  0  0  0  0  0  0  0  0
    0.1899   -0.9254   -0.7166 C   0  0  0  0  0  0  0  0  0  0  0  0
    1.5497   -0.5114   -0.2017 C   0  0  0  0  0  0  0  0  0  0  0  0
    1.2339    0.4592    0.9301 C   0  0  0  0  0  0  0  0  0  0  0  0
    0.0254    1.1338    0.2582 C   0  0  0  0  0  0  0  0  0  0  0  0
    0.2643    0.5304   -1.1331 C   0  0  0  0  0  0  0  0  0  0  0  0
    1.6131    0.3649   -1.2789 O   0  0  0  0  0  0  0  0  0  0  0  0
   -2.2212    0.0272   -1.0698 H   0  0  0  0  0  0  0  0  0  0  0  0
   -1.6036    0.5905    1.6259 H   0  0  0  0  0  0  0  0  0  0  0  0
   -1.6508   -1.6591    0.0658 H   0  0  0  0  0  0  0  0  0  0  0  0
   -0.3478   -1.4681    1.2920 H   0  0  0  0  0  0  0  0  0  0  0  0
    0.1699   -1.6406   -1.5201 H   0  0  0  0  0  0  0  0  0  0  0  0
    2.3047   -1.2399   -0.0585 H   0  0  0  0  0  0  0  0  0  0  0  0
    2.0432    1.1887    0.9560 H   0  0  0  0  0  0  0  0  0  0  0  0
    0.9773   -0.0254    1.8611 H   0  0  0  0  0  0  0  0  0  0  0  0
    0.0332    2.1952    0.2916 H   0  0  0  0  0  0  0  0  0  0  0  0
   -0.3479    0.8724   -1.9263 H   0  0  0  0  0  0  0  0  0  0  0  0
  1  2  1  0
  2  3  1  0
  3  4  1  0
  4  5  1  0
  5  6  1  0
  6  7  1  0
  7  8  1  0
  8  9  1  0
  7  2  1  0
  8  4  1  0
  9  5  1  0
  1 10  1  0
  2 11  1  0
  3 12  1  0
  3 13  1  0
  4 14  1  0
  5 15  1  0
  6 16  1  0
  6 17  1  0
  7 18  1  0
  8 19  1  0
M  END
