
     RDKit          3D

 19 21  0  0  0  0  0  0  0  0999 V2000
    2.0154    1.1542   -0.7366 O   0  0  0  0  0  0  0  0  0  0  0  0
    1.8291    0.2350    0.2919 C   0  0  0  0  0  0  0  0  0  0  0  0
    1.2883   -1.0765   -0.1146 C   0  0  0  0  0  0  0  0  0  0  0  0
    0.5008   -1.0926   -1.4028 C   0  0  0  0  0  0  0  0  0  0  0  0
   -0.7826   -0.7936   -1.0262 O   0  0  0  0  0  0  0  0  0  0  0  0
   -0.7559    0.0645    0.0423 C   0  0  0  0  0  0  0  0  0  0  0  0
   -1.6649    1.1969    0.1086 C   0  0  0  0  0  0  0  0  0  0  0  0
   -2.0504    0.0222    0.9025 C   0  0  0  0  0  0  0  0  0  0  0  0
    0.4959   -0.1007    0.7981 C   0  0  0  0  0  0  0  0  0  0  0  0
    1.4899    1.9645   -0.6283 H   0  0  0  0  0  0  0  0  0  0  0  0
    2.6492    0.2886    1.0539 H   0  0  0  0  0  0  0  0  0  0  0  0
    1.6032   -2.0233    0.3530 H   0  0  0  0  0  0  0  0  0  0  0  0
    0.8839   -0.2701   -2.0583 H   0  0  0  0  0  0  0  0  0  0  0  0
    0.5836   -2.0449   -1.9361 H   0  0  0  0  0  0  0  0  0  0  0  0
   -1.4844    2.1303    0.6578 H   0  0  0  0  0  0  0  0  0  0  0  0
   -2.2966    1.3745   -0.8118 H   0  0  0  0  0  0  0  0  0  0  0  0
   -2.8251   -0.6891    0.6164 H   0  0  0  0  0  0  0  0  0  0  0  0
   -1.8953    0.0861    2.0123 H   0  0  0  0  0  0  0  0  0  0  0  0
    0.4158   -0.4260    1.8776 H   0  0  0  0  0  0  0  0  0  0  0  0
  1  2  1  0
  2  3  1  0
  3  4  1  0
  4  5  1  0
  5  6  1  0
  6  7  1  0
  7  8  1  0
  6  9  1  0
  9  2  1  0
  9  3  1  0
  8  6  1  0
  1 10  1  0
  2 11  1  0
  3 12  1  0
  4 13  1  0
  4 14  1  0
  7 15  1  0
  7 16  1  0
  8 17  1  0
  8 18  1  0
  9 19  1  0
M  END
