
     RDKit          3D

 19 20  0  0  0  0  0  0  0  0999 V2000
   -2.1969   -0.9003   -0.5868 O   0  0  0  0  0  0  0  0  0  0  0  0
   -1.3035   -0.5430    0.4436 C   0  0  0  0  0  0  0  0  0  0  0  0
   -1.1894    0.9353    0.4000 C   0  0  0  0  0  0  0  0  0  0  0  0
   -0.0354    1.5456    0.1329 C   0  0  0  0  0  0  0  0  0  0  0  0
    1.0816    0.8169   -0.5388 C   0  0  0  0  0  0  0  0  0  0  0  0
    1.8744    0.1737    0.5451 C   0  0  0  0  0  0  0  0  0  0  0  0
    1.0931   -0.7720    1.0503 C   0  0  0  0  0  0  0  0  0  0  0  0
    0.0274   -1.1521    0.0824 C   0  0  0  0  0  0  0  0  0  0  0  0
    0.4817   -0.4313   -1.1969 C   0  0  0  0  0  0  0  0  0  0  0  0
   -2.8460   -0.1955   -0.7665 H   0  0  0  0  0  0  0  0  0  0  0  0
   -1.7020   -0.8856    1.3973 H   0  0  0  0  0  0  0  0  0  0  0  0
   -2.0825    1.5459    0.5936 H   0  0  0  0  0  0  0  0  0  0  0  0
    0.1009    2.5746    0.4011 H   0  0  0  0  0  0  0  0  0  0  0  0
    1.6597    1.4208   -1.2221 H   0  0  0  0  0  0  0  0  0  0  0  0
    2.8824    0.4759    0.8078 H   0  0  0  0  0  0  0  0  0  0  0  0
    1.2410   -1.1937    2.0484 H   0  0  0  0  0  0  0  0  0  0  0  0
   -0.0057   -2.2297   -0.0770 H   0  0  0  0  0  0  0  0  0  0  0  0
    1.2832   -1.0029   -1.6780 H   0  0  0  0  0  0  0  0  0  0  0  0
   -0.3639   -0.1827   -1.8363 H   0  0  0  0  0  0  0  0  0  0  0  0
  1  2  1  0
  2  3  1  0
  3  4  2  0
  4  5  1  0
  5  6  1  0
  6  7  2  0
  7  8  1  0
  8  9  1  0
  8  2  1  0
  9  5  1  0
  1 10  1  0
  2 11  1  0
  3 12  1  0
  4 13  1  0
  5 14  1  0
  6 15  1  0
  7 16  1  0
  8 17  1  0
  9 18  1  0
  9 19  1  0
M  END
