
     RDKit          3D

 19 20  0  0  0  0  0  0  0  0999 V2000
   -2.2679    1.0358   -0.5049 O   0  0  0  0  0  0  0  0  0  0  0  0
   -1.5958    0.1546    0.3019 C   0  0  0  0  0  0  0  0  0  0  0  0
   -1.0581   -1.0733   -0.4426 C   0  0  0  0  0  0  0  0  0  0  0  0
    0.1644   -0.9657    0.4835 C   0  0  0  0  0  0  0  0  0  0  0  0
    1.2887   -1.2110   -0.2235 O   0  0  0  0  0  0  0  0  0  0  0  0
    2.2806   -0.3003   -0.1984 C   0  0  0  0  0  0  0  0  0  0  0  0
    1.9520    1.0066   -0.0729 O   0  0  0  0  0  0  0  0  0  0  0  0
    0.6019    1.2911   -0.3168 C   0  0  0  0  0  0  0  0  0  0  0  0
   -0.1909    0.4772    0.6690 C   0  0  0  0  0  0  0  0  0  0  0  0
   -3.2298    0.7435   -0.5178 H   0  0  0  0  0  0  0  0  0  0  0  0
   -2.1571   -0.1980    1.2047 H   0  0  0  0  0  0  0  0  0  0  0  0
   -0.7895   -0.7795   -1.4785 H   0  0  0  0  0  0  0  0  0  0  0  0
   -1.6515   -1.9764   -0.3160 H   0  0  0  0  0  0  0  0  0  0  0  0
   -0.0346   -1.5508    1.3977 H   0  0  0  0  0  0  0  0  0  0  0  0
    2.9992   -0.5656    0.6223 H   0  0  0  0  0  0  0  0  0  0  0  0
    2.8891   -0.4142   -1.1437 H   0  0  0  0  0  0  0  0  0  0  0  0
    0.3263    1.1338   -1.3603 H   0  0  0  0  0  0  0  0  0  0  0  0
    0.4810    2.3776   -0.0741 H   0  0  0  0  0  0  0  0  0  0  0  0
   -0.0082    0.8149    1.6983 H   0  0  0  0  0  0  0  0  0  0  0  0
  1  2  1  0
  2  3  1  0
  3  4  1  0
  4  5  1  0
  5  6  1  0
  6  7  1  0
  7  8  1  0
  8  9  1  0
  9  2  1  0
  9  4  1  0
  1 10  1  0
  2 11  1  0
  3 12  1  0
  3 13  1  0
  4 14  1  0
  6 15  1  0
  6 16  1  0
  8 17  1  0
  8 18  1  0
  9 19  1  0
M  END
