
     RDKit          3D

 17 19  0  0  0  0  0  0  0  0999 V2000
   -1.7689   -0.0492    1.1163 O   0  0  0  0  0  0  0  0  0  0  0  0
   -1.2093   -0.2681   -0.1188 C   0  0  0  0  0  0  0  0  0  0  0  0
   -0.1288   -1.3509   -0.1527 C   0  0  0  0  0  0  0  0  0  0  0  0
    1.2514   -0.9811    0.2743 C   0  0  0  0  0  0  0  0  0  0  0  0
    1.4345    0.2421    1.1022 C   0  0  0  0  0  0  0  0  0  0  0  0
    0.6448    1.2005    0.6408 C   0  0  0  0  0  0  0  0  0  0  0  0
   -0.1366    0.7135   -0.5325 C   0  0  0  0  0  0  0  0  0  0  0  0
   -0.4736    1.6377   -1.4733 O   0  0  0  0  0  0  0  0  0  0  0  0
    0.6813   -0.4590   -0.9737 C   0  0  0  0  0  0  0  0  0  0  0  0
   -2.6778   -0.4413    1.1499 H   0  0  0  0  0  0  0  0  0  0  0  0
   -1.9575   -0.3611   -0.9301 H   0  0  0  0  0  0  0  0  0  0  0  0
   -0.3717   -2.3839   -0.3712 H   0  0  0  0  0  0  0  0  0  0  0  0
    1.9798   -1.7844    0.3041 H   0  0  0  0  0  0  0  0  0  0  0  0
    2.1093    0.3089    1.9384 H   0  0  0  0  0  0  0  0  0  0  0  0
    0.5386    2.2148    1.0208 H   0  0  0  0  0  0  0  0  0  0  0  0
   -0.9525    2.3792   -1.0265 H   0  0  0  0  0  0  0  0  0  0  0  0
    1.0370   -0.6177   -1.9682 H   0  0  0  0  0  0  0  0  0  0  0  0
  1  2  1  0
  2  3  1  0
  3  4  1  0
  4  5  1  0
  5  6  2  0
  6  7  1  0
  7  8  1  0
  7  9  1  0
  7  2  1  0
  9  3  1  0
  9  4  1  0
  1 10  1  0
  2 11  1  0
  3 12  1  0
  4 13  1  0
  5 14  1  0
  6 15  1  0
  8 16  1  0
  9 17  1  0
M  END
