
     RDKit          3D

 19 20  0  0  0  0  0  0  0  0999 V2000
   -1.9800    0.3939   -1.1045 O   0  0  0  0  0  0  0  0  0  0  0  0
   -1.3505   -0.5611   -0.3634 C   0  0  0  0  0  0  0  0  0  0  0  0
   -1.0339   -0.2797    1.0547 C   0  0  0  0  0  0  0  0  0  0  0  0
   -0.9398    1.0006    1.4847 O   0  0  0  0  0  0  0  0  0  0  0  0
    0.3208   -0.9442    0.8517 C   0  0  0  0  0  0  0  0  0  0  0  0
    1.4120   -0.2179    1.2059 O   0  0  0  0  0  0  0  0  0  0  0  0
    1.7550    0.6473    0.2121 C   0  0  0  0  0  0  0  0  0  0  0  0
    0.9430    0.3482   -1.0075 C   0  0  0  0  0  0  0  0  0  0  0  0
    0.1029   -0.8093   -0.6314 C   0  0  0  0  0  0  0  0  0  0  0  0
   -1.6146    1.2866   -1.0767 H   0  0  0  0  0  0  0  0  0  0  0  0
   -1.9099   -1.5379   -0.4725 H   0  0  0  0  0  0  0  0  0  0  0  0
   -1.6648   -0.8867    1.7670 H   0  0  0  0  0  0  0  0  0  0  0  0
   -1.1590    1.7079    0.8669 H   0  0  0  0  0  0  0  0  0  0  0  0
    0.3286   -2.0132    1.1361 H   0  0  0  0  0  0  0  0  0  0  0  0
    1.6121    1.7115    0.5352 H   0  0  0  0  0  0  0  0  0  0  0  0
    2.8422    0.5785   -0.0509 H   0  0  0  0  0  0  0  0  0  0  0  0
    1.5939    0.0605   -1.8855 H   0  0  0  0  0  0  0  0  0  0  0  0
    0.4105    1.2521   -1.3202 H   0  0  0  0  0  0  0  0  0  0  0  0
    0.3317   -1.7371   -1.2016 H   0  0  0  0  0  0  0  0  0  0  0  0
  1  2  1  0
  2  3  1  0
  3  4  1  0
  3  5  1  0
  5  6  1  0
  6  7  1  0
  7  8  1  0
  8  9  1  0
  9  2  1  0
  9  5  1  0
  1 10  1  0
  2 11  1  0
  3 12  1  0
  4 13  1  0
  5 14  1  0
  7 15  1  0
  7 16  1  0
  8 17  1  0
  8 18  1  0
  9 19  1  0
M  END
