
     RDKit          3D

 16 17  0  0  0  0  0  0  0  0999 V2000
    2.1072   -0.4283    0.8994 O   0  0  0  0  0  0  0  0  0  0  0  0
    1.0527   -0.4165    0.0316 C   0  0  0  0  0  0  0  0  0  0  0  0
    0.8653    0.8754   -0.6797 C   0  0  0  0  0  0  0  0  0  0  0  0
   -0.2525    1.4686   -0.3107 C   0  0  0  0  0  0  0  0  0  0  0  0
   -0.9855    0.6649    0.7046 C   0  0  0  0  0  0  0  0  0  0  0  0
   -2.1519    0.0545    0.2379 O   0  0  0  0  0  0  0  0  0  0  0  0
   -1.3367   -0.8549   -0.4213 C   0  0  0  0  0  0  0  0  0  0  0  0
   -0.2863   -0.6435    0.6543 C   0  0  0  0  0  0  0  0  0  0  0  0
    2.9359   -0.6599    0.3703 H   0  0  0  0  0  0  0  0  0  0  0  0
    1.1868   -1.2238   -0.7458 H   0  0  0  0  0  0  0  0  0  0  0  0
    1.5827    1.2433   -1.4019 H   0  0  0  0  0  0  0  0  0  0  0  0
   -0.5814    2.4208   -0.7063 H   0  0  0  0  0  0  0  0  0  0  0  0
   -1.0856    1.1331    1.6982 H   0  0  0  0  0  0  0  0  0  0  0  0
   -1.6766   -1.8991   -0.4389 H   0  0  0  0  0  0  0  0  0  0  0  0
   -1.0264   -0.4271   -1.4028 H   0  0  0  0  0  0  0  0  0  0  0  0
   -0.3477   -1.3074    1.5112 H   0  0  0  0  0  0  0  0  0  0  0  0
  1  2  1  0
  2  3  1  0
  3  4  2  0
  4  5  1  0
  5  6  1  0
  6  7  1  0
  7  8  1  0
  8  2  1  0
  8  5  1  0
  1  9  1  0
  2 10  1  0
  3 11  1  0
  4 12  1  0
  5 13  1  0
  7 14  1  0
  7 15  1  0
  8 16  1  0
M  END
