
     RDKit          3D

 19 20  0  0  0  0  0  0  0  0999 V2000
    2.0355    2.5947   -2.2654 O   0  0  0  0  0  0  0  0  0  0  0  0
    2.2519    2.4939   -0.8882 C   0  0  0  0  0  0  0  0  0  0  0  0
    1.3701    1.3083   -0.4449 C   0  0  0  0  0  0  0  0  0  0  0  0
    0.6381    0.3573   -0.0945 C   0  0  0  0  0  0  0  0  0  0  0  0
   -0.1724   -0.6619    0.2736 C   0  0  0  0  0  0  0  0  0  0  0  0
   -1.3718   -1.0493   -0.6338 C   0  0  0  0  0  0  0  0  0  0  0  0
   -2.2333   -1.1187    0.5917 C   0  0  0  0  0  0  0  0  0  0  0  0
   -1.0413   -0.7197    1.4288 C   0  0  0  0  0  0  0  0  0  0  0  0
    0.1240   -1.6443    1.3812 C   0  0  0  0  0  0  0  0  0  0  0  0
    1.8906    1.6541   -2.6042 H   0  0  0  0  0  0  0  0  0  0  0  0
    1.8283    3.3777   -0.3913 H   0  0  0  0  0  0  0  0  0  0  0  0
    3.2678    2.2270   -0.6091 H   0  0  0  0  0  0  0  0  0  0  0  0
   -1.6097   -0.1780   -1.2830 H   0  0  0  0  0  0  0  0  0  0  0  0
   -1.1896   -1.9976   -1.1270 H   0  0  0  0  0  0  0  0  0  0  0  0
   -2.5866   -2.1715    0.7797 H   0  0  0  0  0  0  0  0  0  0  0  0
   -3.0740   -0.3953    0.6072 H   0  0  0  0  0  0  0  0  0  0  0  0
   -1.1035    0.0484    2.2079 H   0  0  0  0  0  0  0  0  0  0  0  0
    1.0179   -1.4219    1.9757 H   0  0  0  0  0  0  0  0  0  0  0  0
   -0.0420   -2.7031    1.0955 H   0  0  0  0  0  0  0  0  0  0  0  0
  1  2  1  0
  2  3  1  0
  3  4  3  0
  4  5  1  0
  5  6  1  0
  6  7  1  0
  7  8  1  0
  8  9  1  0
  8  5  1  0
  9  5  1  0
  1 10  1  0
  2 11  1  0
  2 12  1  0
  6 13  1  0
  6 14  1  0
  7 15  1  0
  7 16  1  0
  8 17  1  0
  9 18  1  0
  9 19  1  0
M  END
