
     RDKit          3D

 16 16  0  0  0  0  0  0  0  0999 V2000
   -2.6165   -2.4048    1.2108 O   0  0  0  0  0  0  0  0  0  0  0  0
   -2.4988   -1.0267    1.3378 C   0  0  0  0  0  0  0  0  0  0  0  0
   -1.4563   -0.4842    0.4775 C   0  0  0  0  0  0  0  0  0  0  0  0
   -0.6124   -0.0229   -0.2344 C   0  0  0  0  0  0  0  0  0  0  0  0
    0.4250    0.5730   -1.1273 C   0  0  0  0  0  0  0  0  0  0  0  0
    1.6643    0.7337   -0.2933 C   0  0  0  0  0  0  0  0  0  0  0  0
    2.8461    1.2828   -0.8714 C   0  0  0  0  0  0  0  0  0  0  0  0
    2.7776   -0.1059   -0.7775 O   0  0  0  0  0  0  0  0  0  0  0  0
   -3.4774   -2.6253    0.7779 H   0  0  0  0  0  0  0  0  0  0  0  0
   -3.4838   -0.5791    1.0878 H   0  0  0  0  0  0  0  0  0  0  0  0
   -2.2486   -0.8577    2.4147 H   0  0  0  0  0  0  0  0  0  0  0  0
    0.6313   -0.1423   -1.9483 H   0  0  0  0  0  0  0  0  0  0  0  0
    0.0886    1.5630   -1.5055 H   0  0  0  0  0  0  0  0  0  0  0  0
    1.5491    0.5865    0.7950 H   0  0  0  0  0  0  0  0  0  0  0  0
    3.5696    1.8394   -0.2066 H   0  0  0  0  0  0  0  0  0  0  0  0
    2.8422    1.6705   -1.8951 H   0  0  0  0  0  0  0  0  0  0  0  0
  1  2  1  0
  2  3  1  0
  3  4  3  0
  4  5  1  0
  5  6  1  0
  6  7  1  0
  7  8  1  0
  8  6  1  0
  1  9  1  0
  2 10  1  0
  2 11  1  0
  5 12  1  0
  5 13  1  0
  6 14  1  0
  7 15  1  0
  7 16  1  0
M  END
