
     RDKit          3D

 17 17  0  0  0  0  0  0  0  0999 V2000
    4.0284   -0.6653   -2.7058 O   0  0  0  0  0  0  0  0  0  0  0  0
    2.5756   -1.0337   -2.2972 C   0  0  0  0  0  0  0  0  0  0  0  0
    1.8900   -0.7911   -1.5338 C   0  0  0  0  0  0  0  0  0  0  0  0
    1.2035   -0.5420   -0.7711 C   0  0  0  0  0  0  0  0  0  0  0  0
    0.1474   -0.1790    0.4265 C   0  0  0  0  0  0  0  0  0  0  0  0
   -0.3925    0.0043    1.0495 C   0  0  0  0  0  0  0  0  0  0  0  0
   -1.4259    0.3812    2.2427 C   0  0  0  0  0  0  0  0  0  0  0  0
   -2.4349    1.4333    1.6796 C   0  0  0  0  0  0  0  0  0  0  0  0
   -2.7886    0.1016    2.1557 C   0  0  0  0  0  0  0  0  0  0  0  0
    4.1947    0.2547   -2.2685 H   0  0  0  0  0  0  0  0  0  0  0  0
    2.2848   -0.7139   -3.5219 H   0  0  0  0  0  0  0  0  0  0  0  0
    2.6417   -2.2147   -2.5782 H   0  0  0  0  0  0  0  0  0  0  0  0
   -0.7777    0.6850    3.1046 H   0  0  0  0  0  0  0  0  0  0  0  0
   -2.2576    1.5773    0.5120 H   0  0  0  0  0  0  0  0  0  0  0  0
   -2.3938    2.4086    2.2340 H   0  0  0  0  0  0  0  0  0  0  0  0
   -3.0912   -0.7081    1.3871 H   0  0  0  0  0  0  0  0  0  0  0  0
   -3.4036    0.0018    3.0971 H   0  0  0  0  0  0  0  0  0  0  0  0
  1  2  1  0
  2  3  1  0
  3  4  3  0
  4  5  1  0
  5  6  3  0
  6  7  1  0
  7  8  1  0
  8  9  1  0
  9  7  1  0
  1 10  1  0
  2 11  1  0
  2 12  1  0
  7 13  1  0
  8 14  1  0
  8 15  1  0
  9 16  1  0
  9 17  1  0
M  END
