
     RDKit          3D

 17 18  0  0  0  0  0  0  0  0999 V2000
    3.6893   -0.1362    0.4683 O   0  0  0  0  0  0  0  0  0  0  0  0
    2.8037   -0.8347    1.3066 C   0  0  0  0  0  0  0  0  0  0  0  0
    1.4719   -0.6811    0.6834 C   0  0  0  0  0  0  0  0  0  0  0  0
    0.3890   -0.5745    0.1690 C   0  0  0  0  0  0  0  0  0  0  0  0
   -0.9270   -0.4438   -0.4285 C   0  0  0  0  0  0  0  0  0  0  0  0
   -1.0771    0.8450   -1.1698 C   0  0  0  0  0  0  0  0  0  0  0  0
   -2.5405    0.7827   -0.8884 C   0  0  0  0  0  0  0  0  0  0  0  0
   -1.8203    0.4457    0.3745 C   0  0  0  0  0  0  0  0  0  0  0  0
   -0.9431    1.4756    0.0602 O   0  0  0  0  0  0  0  0  0  0  0  0
    3.4084   -0.3733   -0.4666 H   0  0  0  0  0  0  0  0  0  0  0  0
    3.0670   -1.8975    1.3865 H   0  0  0  0  0  0  0  0  0  0  0  0
    2.8104   -0.4134    2.3451 H   0  0  0  0  0  0  0  0  0  0  0  0
   -1.3575   -1.3361   -0.8782 H   0  0  0  0  0  0  0  0  0  0  0  0
   -0.6267    1.1101   -2.0316 H   0  0  0  0  0  0  0  0  0  0  0  0
   -3.0017    1.7751   -0.8349 H   0  0  0  0  0  0  0  0  0  0  0  0
   -3.1248    0.0023   -1.3742 H   0  0  0  0  0  0  0  0  0  0  0  0
   -2.2210    0.2540    1.2784 H   0  0  0  0  0  0  0  0  0  0  0  0
  1  2  1  0
  2  3  1  0
  3  4  3  0
  4  5  1  0
  5  6  1  0
  6  7  1  0
  7  8  1  0
  8  9  1  0
  8  5  1  0
  9  6  1  0
  1 10  1  0
  2 11  1  0
  2 12  1  0
  5 13  1  0
  6 14  1  0
  7 15  1  0
  7 16  1  0
  8 17  1  0
M  END
