
     RDKit          3D

 21 21  0  0  0  0  0  0  0  0999 V2000
    3.4690   -0.7629   -1.6995 O   0  0  0  0  0  0  0  0  0  0  0  0
    2.7199    0.3811   -1.4040 C   0  0  0  0  0  0  0  0  0  0  0  0
    1.8421    0.1496   -0.2376 C   0  0  0  0  0  0  0  0  0  0  0  0
    1.1122   -0.0294    0.7014 C   0  0  0  0  0  0  0  0  0  0  0  0
    0.2085   -0.2490    1.8272 C   0  0  0  0  0  0  0  0  0  0  0  0
   -1.2100   -0.2447    1.3333 C   0  0  0  0  0  0  0  0  0  0  0  0
   -1.6678    1.0237    0.6652 C   0  0  0  0  0  0  0  0  0  0  0  0
   -2.4144    0.1306   -0.3368 C   0  0  0  0  0  0  0  0  0  0  0  0
   -1.3485   -0.9306   -0.0285 C   0  0  0  0  0  0  0  0  0  0  0  0
    4.3000   -0.8105   -1.1727 H   0  0  0  0  0  0  0  0  0  0  0  0
    2.0346    0.6108   -2.2469 H   0  0  0  0  0  0  0  0  0  0  0  0
    3.3544    1.2591   -1.2225 H   0  0  0  0  0  0  0  0  0  0  0  0
    0.3587    0.5316    2.6091 H   0  0  0  0  0  0  0  0  0  0  0  0
    0.3806   -1.2244    2.3272 H   0  0  0  0  0  0  0  0  0  0  0  0
   -1.9699   -0.6681    2.0178 H   0  0  0  0  0  0  0  0  0  0  0  0
   -0.8460    1.5318    0.1424 H   0  0  0  0  0  0  0  0  0  0  0  0
   -2.3452    1.6638    1.2654 H   0  0  0  0  0  0  0  0  0  0  0  0
   -2.4024    0.5098   -1.3574 H   0  0  0  0  0  0  0  0  0  0  0  0
   -3.3972   -0.2009    0.0693 H   0  0  0  0  0  0  0  0  0  0  0  0
   -1.7139   -1.9544    0.0083 H   0  0  0  0  0  0  0  0  0  0  0  0
   -0.4649   -0.7170   -0.6562 H   0  0  0  0  0  0  0  0  0  0  0  0
  1  2  1  0
  2  3  1  0
  3  4  3  0
  4  5  1  0
  5  6  1  0
  6  7  1  0
  7  8  1  0
  8  9  1  0
  9  6  1  0
  1 10  1  0
  2 11  1  0
  2 12  1  0
  5 13  1  0
  5 14  1  0
  6 15  1  0
  7 16  1  0
  7 17  1  0
  8 18  1  0
  8 19  1  0
  9 20  1  0
  9 21  1  0
M  END
