
     RDKit          3D

 19 20  0  0  0  0  0  0  0  0999 V2000
    3.9150   -0.5382   -0.6210 O   0  0  0  0  0  0  0  0  0  0  0  0
    3.1137   -1.0132    0.4421 C   0  0  0  0  0  0  0  0  0  0  0  0
    1.6991   -0.6081    0.2031 C   0  0  0  0  0  0  0  0  0  0  0  0
    0.5716   -0.2684   -0.0016 C   0  0  0  0  0  0  0  0  0  0  0  0
   -0.6819    0.1154   -0.2092 C   0  0  0  0  0  0  0  0  0  0  0  0
   -1.4385    1.1944    0.4659 C   0  0  0  0  0  0  0  0  0  0  0  0
   -2.4222    0.6204   -0.5218 C   0  0  0  0  0  0  0  0  0  0  0  0
   -1.2676    0.6124   -1.4990 C   0  0  0  0  0  0  0  0  0  0  0  0
   -1.9118   -0.7327   -0.0865 C   0  0  0  0  0  0  0  0  0  0  0  0
    4.4467    0.2400   -0.3455 H   0  0  0  0  0  0  0  0  0  0  0  0
    3.4596   -0.6170    1.4002 H   0  0  0  0  0  0  0  0  0  0  0  0
    3.1481   -2.1203    0.3726 H   0  0  0  0  0  0  0  0  0  0  0  0
   -1.6794    1.0745    1.5243 H   0  0  0  0  0  0  0  0  0  0  0  0
   -1.0863    2.1942    0.1506 H   0  0  0  0  0  0  0  0  0  0  0  0
   -3.3618    0.8968   -0.6906 H   0  0  0  0  0  0  0  0  0  0  0  0
   -1.3530   -0.1392   -2.3093 H   0  0  0  0  0  0  0  0  0  0  0  0
   -0.9219    1.6033   -1.8405 H   0  0  0  0  0  0  0  0  0  0  0  0
   -2.0382   -1.4581   -0.9096 H   0  0  0  0  0  0  0  0  0  0  0  0
   -2.1912   -1.0562    0.9141 H   0  0  0  0  0  0  0  0  0  0  0  0
  1  2  1  0
  2  3  1  0
  3  4  3  0
  4  5  1  0
  5  6  1  0
  6  7  1  0
  7  8  1  0
  7  9  1  0
  8  5  1  0
  9  5  1  0
  1 10  1  0
  2 11  1  0
  2 12  1  0
  6 13  1  0
  6 14  1  0
  7 15  1  0
  8 16  1  0
  8 17  1  0
  9 18  1  0
  9 19  1  0
M  END
