
     RDKit          3D

 19 19  0  0  0  0  0  0  0  0999 V2000
    3.3429   -1.0553   -1.1118 O   0  0  0  0  0  0  0  0  0  0  0  0
    3.2553   -0.2342    0.0160 C   0  0  0  0  0  0  0  0  0  0  0  0
    1.8567   -0.0838    0.4358 C   0  0  0  0  0  0  0  0  0  0  0  0
    0.6973    0.0322    0.7635 C   0  0  0  0  0  0  0  0  0  0  0  0
   -0.7049    0.1607    1.1361 C   0  0  0  0  0  0  0  0  0  0  0  0
   -1.5415   -0.4888    0.0701 C   0  0  0  0  0  0  0  0  0  0  0  0
   -1.3819    0.1130   -1.3107 C   0  0  0  0  0  0  0  0  0  0  0  0
   -2.4977    0.9846   -0.8240 C   0  0  0  0  0  0  0  0  0  0  0  0
   -2.8436    0.0307    0.1194 O   0  0  0  0  0  0  0  0  0  0  0  0
    3.2572   -2.0167   -0.8824 H   0  0  0  0  0  0  0  0  0  0  0  0
    3.6642    0.7677   -0.2665 H   0  0  0  0  0  0  0  0  0  0  0  0
    3.8718   -0.7293    0.8013 H   0  0  0  0  0  0  0  0  0  0  0  0
   -0.9802    1.2535    1.1409 H   0  0  0  0  0  0  0  0  0  0  0  0
   -0.9450   -0.2661    2.1069 H   0  0  0  0  0  0  0  0  0  0  0  0
   -1.4815   -1.5917    0.1089 H   0  0  0  0  0  0  0  0  0  0  0  0
   -1.6604   -0.5352   -2.1436 H   0  0  0  0  0  0  0  0  0  0  0  0
   -0.4186    0.6211   -1.4854 H   0  0  0  0  0  0  0  0  0  0  0  0
   -3.3264    1.0869   -1.5606 H   0  0  0  0  0  0  0  0  0  0  0  0
   -2.1638    1.9505   -0.3770 H   0  0  0  0  0  0  0  0  0  0  0  0
  1  2  1  0
  2  3  1  0
  3  4  3  0
  4  5  1  0
  5  6  1  0
  6  7  1  0
  7  8  1  0
  8  9  1  0
  9  6  1  0
  1 10  1  0
  2 11  1  0
  2 12  1  0
  5 13  1  0
  5 14  1  0
  6 15  1  0
  7 16  1  0
  7 17  1  0
  8 18  1  0
  8 19  1  0
M  END
