
     RDKit          3D

 17 18  0  0  0  0  0  0  0  0999 V2000
    3.6302   -0.0836    0.5836 O   0  0  0  0  0  0  0  0  0  0  0  0
    2.7943    0.9121    0.1266 C   0  0  0  0  0  0  0  0  0  0  0  0
    1.4279    0.4230   -0.0982 C   0  0  0  0  0  0  0  0  0  0  0  0
    0.2985    0.0273   -0.2640 C   0  0  0  0  0  0  0  0  0  0  0  0
   -1.0923   -0.4344   -0.4763 C   0  0  0  0  0  0  0  0  0  0  0  0
   -2.0502    0.6363   -0.8874 C   0  0  0  0  0  0  0  0  0  0  0  0
   -2.9760    0.2709    0.1002 O   0  0  0  0  0  0  0  0  0  0  0  0
   -1.9339   -0.3644    0.7601 C   0  0  0  0  0  0  0  0  0  0  0  0
   -1.5278   -1.6735    0.2009 C   0  0  0  0  0  0  0  0  0  0  0  0
    4.0559   -0.5176   -0.1979 H   0  0  0  0  0  0  0  0  0  0  0  0
    3.2462    1.3172   -0.8116 H   0  0  0  0  0  0  0  0  0  0  0  0
    2.7778    1.7599    0.8390 H   0  0  0  0  0  0  0  0  0  0  0  0
   -2.4321    0.5187   -1.9214 H   0  0  0  0  0  0  0  0  0  0  0  0
   -1.6441    1.6780   -0.7422 H   0  0  0  0  0  0  0  0  0  0  0  0
   -1.5496    0.0437    1.6912 H   0  0  0  0  0  0  0  0  0  0  0  0
   -0.7439   -2.2405    0.7469 H   0  0  0  0  0  0  0  0  0  0  0  0
   -2.2809   -2.2731   -0.3224 H   0  0  0  0  0  0  0  0  0  0  0  0
  1  2  1  0
  2  3  1  0
  3  4  3  0
  4  5  1  0
  5  6  1  0
  6  7  1  0
  7  8  1  0
  8  9  1  0
  8  5  1  0
  9  5  1  0
  1 10  1  0
  2 11  1  0
  2 12  1  0
  6 13  1  0
  6 14  1  0
  8 15  1  0
  9 16  1  0
  9 17  1  0
M  END
