
     RDKit          3D

 13 13  0  0  0  0  0  0  0  0999 V2000
    2.7571   -0.9717    0.9722 O   0  0  0  0  0  0  0  0  0  0  0  0
    2.1989   -1.1183   -0.2868 C   0  0  0  0  0  0  0  0  0  0  0  0
    0.8094   -0.6528   -0.2556 C   0  0  0  0  0  0  0  0  0  0  0  0
   -0.3395   -0.2735   -0.2474 C   0  0  0  0  0  0  0  0  0  0  0  0
   -1.7488    0.1749   -0.2424 C   0  0  0  0  0  0  0  0  0  0  0  0
   -2.0678    1.4024    0.3713 C   0  0  0  0  0  0  0  0  0  0  0  0
   -1.8695    1.3499   -1.1032 O   0  0  0  0  0  0  0  0  0  0  0  0
    2.2406   -0.2772    1.4490 H   0  0  0  0  0  0  0  0  0  0  0  0
    2.7520   -0.5871   -1.0819 H   0  0  0  0  0  0  0  0  0  0  0  0
    2.2464   -2.2179   -0.5350 H   0  0  0  0  0  0  0  0  0  0  0  0
   -2.5304   -0.5917   -0.4309 H   0  0  0  0  0  0  0  0  0  0  0  0
   -1.3235    2.0605    0.8622 H   0  0  0  0  0  0  0  0  0  0  0  0
   -3.1247    1.7025    0.5285 H   0  0  0  0  0  0  0  0  0  0  0  0
  1  2  1  0
  2  3  1  0
  3  4  3  0
  4  5  1  0
  5  6  1  0
  6  7  1  0
  7  5  1  0
  1  8  1  0
  2  9  1  0
  2 10  1  0
  5 11  1  0
  6 12  1  0
  6 13  1  0
M  END
