
     RDKit          3D

 19 18  0  0  0  0  0  0  0  0999 V2000
    3.1517   -0.8360   -3.2263 O   0  0  0  0  0  0  0  0  0  0  0  0
    1.8803   -1.3472   -2.8852 C   0  0  0  0  0  0  0  0  0  0  0  0
    1.3073   -0.6113   -1.7598 C   0  0  0  0  0  0  0  0  0  0  0  0
    0.8422    0.0156   -0.7996 C   0  0  0  0  0  0  0  0  0  0  0  0
    0.2974    0.7701    0.3185 C   0  0  0  0  0  0  0  0  0  0  0  0
   -1.0435    0.1244    0.6205 C   0  0  0  0  0  0  0  0  0  0  0  0
   -0.8989   -1.2144    0.9560 O   0  0  0  0  0  0  0  0  0  0  0  0
   -1.6715    0.9286    1.7349 C   0  0  0  0  0  0  0  0  0  0  0  0
   -2.9374    0.4627    2.0696 O   0  0  0  0  0  0  0  0  0  0  0  0
    3.3092   -0.0275   -2.6723 H   0  0  0  0  0  0  0  0  0  0  0  0
    2.0018   -2.4233   -2.6650 H   0  0  0  0  0  0  0  0  0  0  0  0
    1.2540   -1.1656   -3.7559 H   0  0  0  0  0  0  0  0  0  0  0  0
    0.9995    0.6609    1.1865 H   0  0  0  0  0  0  0  0  0  0  0  0
    0.1982    1.8314    0.1350 H   0  0  0  0  0  0  0  0  0  0  0  0
   -1.7107    0.1871   -0.2546 H   0  0  0  0  0  0  0  0  0  0  0  0
   -0.6889   -1.2385    1.9227 H   0  0  0  0  0  0  0  0  0  0  0  0
   -0.9800    0.8913    2.6206 H   0  0  0  0  0  0  0  0  0  0  0  0
   -1.7239    1.9966    1.4500 H   0  0  0  0  0  0  0  0  0  0  0  0
   -3.5868    0.9951    1.5740 H   0  0  0  0  0  0  0  0  0  0  0  0
  1  2  1  0
  2  3  1  0
  3  4  3  0
  4  5  1  0
  5  6  1  0
  6  7  1  0
  6  8  1  0
  8  9  1  0
  1 10  1  0
  2 11  1  0
  2 12  1  0
  5 13  1  0
  5 14  1  0
  6 15  1  0
  7 16  1  0
  8 17  1  0
  8 18  1  0
  9 19  1  0
M  END
