
     RDKit          3D

 17 17  0  0  0  0  0  0  0  0999 V2000
   -3.3141   -0.2195   -0.1833 O   0  0  0  0  0  0  0  0  0  0  0  0
   -2.8403   -0.9820    0.8712 C   0  0  0  0  0  0  0  0  0  0  0  0
   -1.3803   -0.8249    0.8930 C   0  0  0  0  0  0  0  0  0  0  0  0
   -0.1818   -0.6862    0.9274 C   0  0  0  0  0  0  0  0  0  0  0  0
    1.2608   -0.5317    0.9909 C   0  0  0  0  0  0  0  0  0  0  0  0
    1.8450   -1.1195   -0.2426 O   0  0  0  0  0  0  0  0  0  0  0  0
    1.9398    0.3030    0.0611 C   0  0  0  0  0  0  0  0  0  0  0  0
    1.2761    1.1584   -0.9671 C   0  0  0  0  0  0  0  0  0  0  0  0
    1.9052    0.9183   -2.1934 O   0  0  0  0  0  0  0  0  0  0  0  0
   -2.7160   -0.4298   -0.9686 H   0  0  0  0  0  0  0  0  0  0  0  0
   -3.1437   -2.0484    0.7386 H   0  0  0  0  0  0  0  0  0  0  0  0
   -3.2798   -0.6697    1.8471 H   0  0  0  0  0  0  0  0  0  0  0  0
    1.8053   -0.8718    1.9079 H   0  0  0  0  0  0  0  0  0  0  0  0
    3.0235    0.5342    0.2094 H   0  0  0  0  0  0  0  0  0  0  0  0
    0.1844    0.9607   -1.0363 H   0  0  0  0  0  0  0  0  0  0  0  0
    1.3907    2.2135   -0.6704 H   0  0  0  0  0  0  0  0  0  0  0  0
    2.2251   -0.0157   -2.1849 H   0  0  0  0  0  0  0  0  0  0  0  0
  1  2  1  0
  2  3  1  0
  3  4  3  0
  4  5  1  0
  5  6  1  0
  6  7  1  0
  7  8  1  0
  8  9  1  0
  7  5  1  0
  1 10  1  0
  2 11  1  0
  2 12  1  0
  5 13  1  0
  7 14  1  0
  8 15  1  0
  8 16  1  0
  9 17  1  0
M  END
