
     RDKit          3D

 17 17  0  0  0  0  0  0  0  0999 V2000
    3.7061   -0.4978   -0.0104 O   0  0  0  0  0  0  0  0  0  0  0  0
    2.9405    0.6032    0.3670 C   0  0  0  0  0  0  0  0  0  0  0  0
    1.5636    0.3782   -0.0190 C   0  0  0  0  0  0  0  0  0  0  0  0
    0.4053    0.2021   -0.3312 C   0  0  0  0  0  0  0  0  0  0  0  0
   -0.9930    0.0035   -0.6855 C   0  0  0  0  0  0  0  0  0  0  0  0
   -1.2559   -0.4419   -1.9855 O   0  0  0  0  0  0  0  0  0  0  0  0
   -1.9388    1.0144   -0.0770 C   0  0  0  0  0  0  0  0  0  0  0  0
   -1.9772   -0.4065    0.3661 C   0  0  0  0  0  0  0  0  0  0  0  0
   -3.0049   -1.2495   -0.0365 O   0  0  0  0  0  0  0  0  0  0  0  0
    3.4376   -1.2511    0.5605 H   0  0  0  0  0  0  0  0  0  0  0  0
    3.3210    1.4809   -0.2124 H   0  0  0  0  0  0  0  0  0  0  0  0
    2.9687    0.7780    1.4499 H   0  0  0  0  0  0  0  0  0  0  0  0
   -0.7275   -1.2456   -2.1728 H   0  0  0  0  0  0  0  0  0  0  0  0
   -1.5435    1.7810    0.6157 H   0  0  0  0  0  0  0  0  0  0  0  0
   -2.6797    1.4181   -0.7939 H   0  0  0  0  0  0  0  0  0  0  0  0
   -1.5430   -0.6074    1.3539 H   0  0  0  0  0  0  0  0  0  0  0  0
   -2.6792   -1.9595   -0.6729 H   0  0  0  0  0  0  0  0  0  0  0  0
  1  2  1  0
  2  3  1  0
  3  4  3  0
  4  5  1  0
  5  6  1  0
  5  7  1  0
  7  8  1  0
  8  9  1  0
  8  5  1  0
  1 10  1  0
  2 11  1  0
  2 12  1  0
  6 13  1  0
  7 14  1  0
  7 15  1  0
  8 16  1  0
  9 17  1  0
M  END
