
     RDKit          3D

 19 19  0  0  0  0  0  0  0  0999 V2000
    3.2219    0.9960    0.1249 O   0  0  0  0  0  0  0  0  0  0  0  0
    3.2122   -0.2342   -0.5102 C   0  0  0  0  0  0  0  0  0  0  0  0
    1.8686   -0.8179   -0.3382 C   0  0  0  0  0  0  0  0  0  0  0  0
    0.7629   -1.2911   -0.2089 C   0  0  0  0  0  0  0  0  0  0  0  0
   -0.5835   -1.8487   -0.0695 C   0  0  0  0  0  0  0  0  0  0  0  0
   -1.5560   -0.8922   -0.2278 O   0  0  0  0  0  0  0  0  0  0  0  0
   -1.4431    0.1159    0.7041 C   0  0  0  0  0  0  0  0  0  0  0  0
   -1.7113    1.5189    0.1242 C   0  0  0  0  0  0  0  0  0  0  0  0
   -2.6166    0.9035    1.1630 C   0  0  0  0  0  0  0  0  0  0  0  0
    2.8274    1.6795   -0.4660 H   0  0  0  0  0  0  0  0  0  0  0  0
    3.4825   -0.1369   -1.5829 H   0  0  0  0  0  0  0  0  0  0  0  0
    3.9319   -0.9483   -0.0466 H   0  0  0  0  0  0  0  0  0  0  0  0
   -0.6531   -2.2215    0.9843 H   0  0  0  0  0  0  0  0  0  0  0  0
   -0.7835   -2.6597   -0.7992 H   0  0  0  0  0  0  0  0  0  0  0  0
   -0.6135    0.0241    1.4304 H   0  0  0  0  0  0  0  0  0  0  0  0
   -2.1541    1.5752   -0.8892 H   0  0  0  0  0  0  0  0  0  0  0  0
   -0.9875    2.2822    0.4594 H   0  0  0  0  0  0  0  0  0  0  0  0
   -3.6273    0.5729    0.8662 H   0  0  0  0  0  0  0  0  0  0  0  0
   -2.5782    1.3823    2.1514 H   0  0  0  0  0  0  0  0  0  0  0  0
  1  2  1  0
  2  3  1  0
  3  4  3  0
  4  5  1  0
  5  6  1  0
  6  7  1  0
  7  8  1  0
  8  9  1  0
  9  7  1  0
  1 10  1  0
  2 11  1  0
  2 12  1  0
  5 13  1  0
  5 14  1  0
  7 15  1  0
  8 16  1  0
  8 17  1  0
  9 18  1  0
  9 19  1  0
M  END
