
     RDKit          3D

 15 15  0  0  0  0  0  0  0  0999 V2000
   -4.0441    0.5437    1.7041 O   0  0  0  0  0  0  0  0  0  0  0  0
   -3.7688    0.1516    0.3781 C   0  0  0  0  0  0  0  0  0  0  0  0
   -2.3373    0.1927    0.1202 C   0  0  0  0  0  0  0  0  0  0  0  0
   -1.1430    0.2261   -0.1071 C   0  0  0  0  0  0  0  0  0  0  0  0
    0.2494    0.2645   -0.3470 C   0  0  0  0  0  0  0  0  0  0  0  0
    1.4583    0.2798   -0.5434 C   0  0  0  0  0  0  0  0  0  0  0  0
    2.8989    0.2951   -0.8024 C   0  0  0  0  0  0  0  0  0  0  0  0
    3.7036   -0.7579   -0.2782 C   0  0  0  0  0  0  0  0  0  0  0  0
    3.6043    0.5613    0.4441 O   0  0  0  0  0  0  0  0  0  0  0  0
   -3.6390   -0.0981    2.3325 H   0  0  0  0  0  0  0  0  0  0  0  0
   -4.1204   -0.8934    0.2440 H   0  0  0  0  0  0  0  0  0  0  0  0
   -4.2879    0.7905   -0.3463 H   0  0  0  0  0  0  0  0  0  0  0  0
    3.2759    0.8874   -1.6666 H   0  0  0  0  0  0  0  0  0  0  0  0
    3.3805   -1.5886    0.3453 H   0  0  0  0  0  0  0  0  0  0  0  0
    4.7695   -0.8546   -0.6350 H   0  0  0  0  0  0  0  0  0  0  0  0
  1  2  1  0
  2  3  1  0
  3  4  3  0
  4  5  1  0
  5  6  3  0
  6  7  1  0
  7  8  1  0
  8  9  1  0
  9  7  1  0
  1 10  1  0
  2 11  1  0
  2 12  1  0
  7 13  1  0
  8 14  1  0
  8 15  1  0
M  END
