
     RDKit          3D

 19 19  0  0  0  0  0  0  0  0999 V2000
    3.8077    0.8082   -0.9667 O   0  0  0  0  0  0  0  0  0  0  0  0
    3.4614   -0.2276   -0.0831 C   0  0  0  0  0  0  0  0  0  0  0  0
    2.0059   -0.1811    0.1639 C   0  0  0  0  0  0  0  0  0  0  0  0
    0.8279   -0.1242    0.3720 C   0  0  0  0  0  0  0  0  0  0  0  0
   -0.5989   -0.0600    0.6490 C   0  0  0  0  0  0  0  0  0  0  0  0
   -1.2787    1.0837   -0.0720 C   0  0  0  0  0  0  0  0  0  0  0  0
   -2.6977    0.6409   -0.0838 C   0  0  0  0  0  0  0  0  0  0  0  0
   -2.7412   -0.6830   -0.0230 C   0  0  0  0  0  0  0  0  0  0  0  0
   -1.3416   -1.2407    0.0351 C   0  0  0  0  0  0  0  0  0  0  0  0
    3.1668    1.5424   -0.8774 H   0  0  0  0  0  0  0  0  0  0  0  0
    3.9861   -0.1040    0.8846 H   0  0  0  0  0  0  0  0  0  0  0  0
    3.7531   -1.1803   -0.5647 H   0  0  0  0  0  0  0  0  0  0  0  0
   -0.8392    0.0110    1.7238 H   0  0  0  0  0  0  0  0  0  0  0  0
   -1.1364    2.0339    0.4750 H   0  0  0  0  0  0  0  0  0  0  0  0
   -0.9445    1.1260   -1.1252 H   0  0  0  0  0  0  0  0  0  0  0  0
   -3.5418    1.3286   -0.1351 H   0  0  0  0  0  0  0  0  0  0  0  0
   -3.6733   -1.2348   -0.0186 H   0  0  0  0  0  0  0  0  0  0  0  0
   -0.9388   -1.3941   -0.9899 H   0  0  0  0  0  0  0  0  0  0  0  0
   -1.2769   -2.1448    0.6360 H   0  0  0  0  0  0  0  0  0  0  0  0
  1  2  1  0
  2  3  1  0
  3  4  3  0
  4  5  1  0
  5  6  1  0
  6  7  1  0
  7  8  2  0
  8  9  1  0
  9  5  1  0
  1 10  1  0
  2 11  1  0
  2 12  1  0
  5 13  1  0
  6 14  1  0
  6 15  1  0
  7 16  1  0
  8 17  1  0
  9 18  1  0
  9 19  1  0
M  END
