
     RDKit          3D

 17 16  0  0  0  0  0  0  0  0999 V2000
   -3.5494    0.5786    2.2223 O   0  0  0  0  0  0  0  0  0  0  0  0
   -2.0853    0.1518    2.2709 C   0  0  0  0  0  0  0  0  0  0  0  0
   -1.7083   -0.1143    1.0808 C   0  0  0  0  0  0  0  0  0  0  0  0
   -1.3285   -0.3971   -0.1923 C   0  0  0  0  0  0  0  0  0  0  0  0
   -0.8602   -0.7444   -1.6787 C   0  0  0  0  0  0  0  0  0  0  0  0
    0.5743   -0.5389   -1.3759 C   0  0  0  0  0  0  0  0  0  0  0  0
    1.8298   -0.3657   -1.1199 C   0  0  0  0  0  0  0  0  0  0  0  0
    3.2275   -0.1915   -0.8464 C   0  0  0  0  0  0  0  0  0  0  0  0
    3.4878    1.0820   -0.3590 O   0  0  0  0  0  0  0  0  0  0  0  0
   -3.7851    0.4150    1.2572 H   0  0  0  0  0  0  0  0  0  0  0  0
   -2.2625   -0.7394    2.9962 H   0  0  0  0  0  0  0  0  0  0  0  0
   -1.6645    0.9947    2.8326 H   0  0  0  0  0  0  0  0  0  0  0  0
   -1.3218   -0.0324   -2.2918 H   0  0  0  0  0  0  0  0  0  0  0  0
   -1.1609   -1.7588   -1.7969 H   0  0  0  0  0  0  0  0  0  0  0  0
    3.8171   -0.3262   -1.8344 H   0  0  0  0  0  0  0  0  0  0  0  0
    3.6397   -0.9696   -0.2032 H   0  0  0  0  0  0  0  0  0  0  0  0
    3.1505    1.7731   -0.9615 H   0  0  0  0  0  0  0  0  0  0  0  0
  1  2  1  0
  2  3  1  0
  3  4  3  0
  4  5  1  0
  5  6  1  0
  6  7  3  0
  7  8  1  0
  8  9  1  0
  1 10  1  0
  2 11  1  0
  2 12  1  0
  5 13  1  0
  5 14  1  0
  8 15  1  0
  8 16  1  0
  9 17  1  0
M  END
