
     RDKit          3D

 19 18  0  0  0  0  0  0  0  0999 V2000
    0.2670   -1.0687    3.3476 O   0  0  0  0  0  0  0  0  0  0  0  0
    1.0137   -1.8504    2.4890 C   0  0  0  0  0  0  0  0  0  0  0  0
    0.6858   -1.0991    1.0669 C   0  0  0  0  0  0  0  0  0  0  0  0
    0.4023   -0.4498   -0.1293 C   0  0  0  0  0  0  0  0  0  0  0  0
    0.1328    0.1142   -1.1737 C   0  0  0  0  0  0  0  0  0  0  0  0
    0.5130    1.6460   -0.8846 C   0  0  0  0  0  0  0  0  0  0  0  0
    0.4736    2.5513   -1.8336 O   0  0  0  0  0  0  0  0  0  0  0  0
   -1.5046    0.1753   -1.1465 C   0  0  0  0  0  0  0  0  0  0  0  0
   -1.8986   -1.1773   -1.2345 O   0  0  0  0  0  0  0  0  0  0  0  0
    0.2358   -0.1109    3.0305 H   0  0  0  0  0  0  0  0  0  0  0  0
    0.5749   -2.7961    2.2260 H   0  0  0  0  0  0  0  0  0  0  0  0
    2.0944   -1.7705    2.4775 H   0  0  0  0  0  0  0  0  0  0  0  0
    0.4171   -0.1350   -2.1962 H   0  0  0  0  0  0  0  0  0  0  0  0
    1.5474    1.5389   -0.4584 H   0  0  0  0  0  0  0  0  0  0  0  0
   -0.1298    1.8769    0.0406 H   0  0  0  0  0  0  0  0  0  0  0  0
    1.4003    2.7904   -2.2222 H   0  0  0  0  0  0  0  0  0  0  0  0
   -1.7083    0.4621   -0.0436 H   0  0  0  0  0  0  0  0  0  0  0  0
   -1.9096    0.7050   -1.8631 H   0  0  0  0  0  0  0  0  0  0  0  0
   -2.6072   -1.4024   -0.5713 H   0  0  0  0  0  0  0  0  0  0  0  0
  1  2  1  0
  2  3  1  0
  3  4  3  0
  4  5  1  0
  5  6  1  0
  6  7  1  0
  5  8  1  0
  8  9  1  0
  1 10  1  0
  2 11  1  0
  2 12  1  0
  5 13  1  0
  6 14  1  0
  6 15  1  0
  7 16  1  0
  8 17  1  0
  8 18  1  0
  9 19  1  0
M  END
