
     RDKit          3D

 19 19  0  0  0  0  0  0  0  0999 V2000
    4.1279   -0.4267    0.2598 O   0  0  0  0  0  0  0  0  0  0  0  0
    3.3103    0.6799    0.2106 C   0  0  0  0  0  0  0  0  0  0  0  0
    1.8975    0.3025   -0.0239 C   0  0  0  0  0  0  0  0  0  0  0  0
    0.7659   -0.0004   -0.1914 C   0  0  0  0  0  0  0  0  0  0  0  0
   -0.6141   -0.3627   -0.4198 C   0  0  0  0  0  0  0  0  0  0  0  0
   -1.4433   -0.2226    0.8605 C   0  0  0  0  0  0  0  0  0  0  0  0
   -2.8240   -0.0720    0.2558 C   0  0  0  0  0  0  0  0  0  0  0  0
   -2.6828    0.4977   -0.9815 O   0  0  0  0  0  0  0  0  0  0  0  0
   -1.3586    0.6363   -1.2831 C   0  0  0  0  0  0  0  0  0  0  0  0
    3.8882   -1.0119    1.0159 H   0  0  0  0  0  0  0  0  0  0  0  0
    3.3980    1.2570    1.1776 H   0  0  0  0  0  0  0  0  0  0  0  0
    3.6669    1.3218   -0.6197 H   0  0  0  0  0  0  0  0  0  0  0  0
   -0.7391   -1.3970   -0.8234 H   0  0  0  0  0  0  0  0  0  0  0  0
   -1.3465   -1.1018    1.5097 H   0  0  0  0  0  0  0  0  0  0  0  0
   -1.1882    0.7329    1.3291 H   0  0  0  0  0  0  0  0  0  0  0  0
   -3.1868   -1.1275    0.0771 H   0  0  0  0  0  0  0  0  0  0  0  0
   -3.5157    0.4754    0.9289 H   0  0  0  0  0  0  0  0  0  0  0  0
   -1.1159    0.5142   -2.3551 H   0  0  0  0  0  0  0  0  0  0  0  0
   -1.0396    1.6569   -0.9272 H   0  0  0  0  0  0  0  0  0  0  0  0
  1  2  1  0
  2  3  1  0
  3  4  3  0
  4  5  1  0
  5  6  1  0
  6  7  1  0
  7  8  1  0
  8  9  1  0
  9  5  1  0
  1 10  1  0
  2 11  1  0
  2 12  1  0
  5 13  1  0
  6 14  1  0
  6 15  1  0
  7 16  1  0
  7 17  1  0
  9 18  1  0
  9 19  1  0
M  END
