
     RDKit          3D

 19 19  0  0  0  0  0  0  0  0999 V2000
    3.7321    0.1708   -0.2161 O   0  0  0  0  0  0  0  0  0  0  0  0
    3.2688   -0.9513    0.4720 C   0  0  0  0  0  0  0  0  0  0  0  0
    1.7943   -0.8636    0.4544 C   0  0  0  0  0  0  0  0  0  0  0  0
    0.5857   -0.8057    0.4534 C   0  0  0  0  0  0  0  0  0  0  0  0
   -0.8744   -0.7352    0.4476 C   0  0  0  0  0  0  0  0  0  0  0  0
   -1.3247    0.2155   -0.6316 C   0  0  0  0  0  0  0  0  0  0  0  0
   -2.8210    0.3617   -0.7233 C   0  0  0  0  0  0  0  0  0  0  0  0
   -2.6624    1.7232   -0.8256 O   0  0  0  0  0  0  0  0  0  0  0  0
   -1.4666    1.6428   -0.1552 C   0  0  0  0  0  0  0  0  0  0  0  0
    4.7169    0.1245   -0.1986 H   0  0  0  0  0  0  0  0  0  0  0  0
    3.6605   -0.8646    1.5136 H   0  0  0  0  0  0  0  0  0  0  0  0
    3.6005   -1.9003    0.0422 H   0  0  0  0  0  0  0  0  0  0  0  0
   -1.2974   -0.4029    1.4082 H   0  0  0  0  0  0  0  0  0  0  0  0
   -1.2696   -1.7531    0.2211 H   0  0  0  0  0  0  0  0  0  0  0  0
   -0.8764    0.0908   -1.6146 H   0  0  0  0  0  0  0  0  0  0  0  0
   -3.2562   -0.0566   -1.6512 H   0  0  0  0  0  0  0  0  0  0  0  0
   -3.2974   -0.0023    0.2200 H   0  0  0  0  0  0  0  0  0  0  0  0
   -0.6371    2.2526   -0.5729 H   0  0  0  0  0  0  0  0  0  0  0  0
   -1.5758    1.7536    0.9429 H   0  0  0  0  0  0  0  0  0  0  0  0
  1  2  1  0
  2  3  1  0
  3  4  3  0
  4  5  1  0
  5  6  1  0
  6  7  1  0
  7  8  1  0
  8  9  1  0
  9  6  1  0
  1 10  1  0
  2 11  1  0
  2 12  1  0
  5 13  1  0
  5 14  1  0
  6 15  1  0
  7 16  1  0
  7 17  1  0
  9 18  1  0
  9 19  1  0
M  END
