
     RDKit          3D

 17 18  0  0  0  0  0  0  0  0999 V2000
    3.7516   -0.4689   -0.4413 O   0  0  0  0  0  0  0  0  0  0  0  0
    3.1138    0.6715    0.0316 C   0  0  0  0  0  0  0  0  0  0  0  0
    1.6451    0.4306    0.1015 C   0  0  0  0  0  0  0  0  0  0  0  0
    0.4662    0.2377    0.1701 C   0  0  0  0  0  0  0  0  0  0  0  0
   -0.8612    0.0189    0.2239 C   0  0  0  0  0  0  0  0  0  0  0  0
   -1.5744   -1.2170   -0.1139 C   0  0  0  0  0  0  0  0  0  0  0  0
   -2.5813   -0.2324    0.4010 C   0  0  0  0  0  0  0  0  0  0  0  0
   -1.9161    0.8019   -0.4479 C   0  0  0  0  0  0  0  0  0  0  0  0
   -1.6279    0.0850    1.3809 O   0  0  0  0  0  0  0  0  0  0  0  0
    3.4664   -1.2920    0.0128 H   0  0  0  0  0  0  0  0  0  0  0  0
    3.2952    1.4709   -0.7169 H   0  0  0  0  0  0  0  0  0  0  0  0
    3.5245    0.9025    1.0238 H   0  0  0  0  0  0  0  0  0  0  0  0
   -1.3539   -2.0598    0.5641 H   0  0  0  0  0  0  0  0  0  0  0  0
   -1.7126   -1.4932   -1.1620 H   0  0  0  0  0  0  0  0  0  0  0  0
   -3.5626   -0.3774    0.5574 H   0  0  0  0  0  0  0  0  0  0  0  0
   -2.0511    1.8317   -0.0466 H   0  0  0  0  0  0  0  0  0  0  0  0
   -2.0218    0.6898   -1.5386 H   0  0  0  0  0  0  0  0  0  0  0  0
  1  2  1  0
  2  3  1  0
  3  4  3  0
  4  5  1  0
  5  6  1  0
  6  7  1  0
  7  8  1  0
  7  9  1  0
  8  5  1  0
  9  5  1  0
  1 10  1  0
  2 11  1  0
  2 12  1  0
  6 13  1  0
  6 14  1  0
  7 15  1  0
  8 16  1  0
  8 17  1  0
M  END
