
     RDKit          3D

 17 18  0  0  0  0  0  0  0  0999 V2000
    3.9822   -0.0424    0.8196 O   0  0  0  0  0  0  0  0  0  0  0  0
    3.1950   -0.7569   -0.0650 C   0  0  0  0  0  0  0  0  0  0  0  0
    1.8144   -0.2517   -0.0394 C   0  0  0  0  0  0  0  0  0  0  0  0
    0.6948    0.1801   -0.0210 C   0  0  0  0  0  0  0  0  0  0  0  0
   -0.6579    0.6837    0.0174 C   0  0  0  0  0  0  0  0  0  0  0  0
   -1.2135    0.9645   -1.2613 O   0  0  0  0  0  0  0  0  0  0  0  0
   -2.4029    0.8833   -0.5405 C   0  0  0  0  0  0  0  0  0  0  0  0
   -3.1312   -0.2607   -0.1279 C   0  0  0  0  0  0  0  0  0  0  0  0
   -1.6907   -0.4519   -0.0746 C   0  0  0  0  0  0  0  0  0  0  0  0
    4.6044    0.5883    0.3875 H   0  0  0  0  0  0  0  0  0  0  0  0
    3.6093   -0.6949   -1.0942 H   0  0  0  0  0  0  0  0  0  0  0  0
    3.1746   -1.8136    0.3048 H   0  0  0  0  0  0  0  0  0  0  0  0
   -0.8303    1.4242    0.7891 H   0  0  0  0  0  0  0  0  0  0  0  0
   -2.3739    1.7163    0.2297 H   0  0  0  0  0  0  0  0  0  0  0  0
   -3.6503   -0.2984    0.8717 H   0  0  0  0  0  0  0  0  0  0  0  0
   -3.7893   -0.7670   -0.8963 H   0  0  0  0  0  0  0  0  0  0  0  0
   -1.3349   -1.1029   -0.9376 H   0  0  0  0  0  0  0  0  0  0  0  0
  1  2  1  0
  2  3  1  0
  3  4  3  0
  4  5  1  0
  5  6  1  0
  6  7  1  0
  7  8  1  0
  8  9  1  0
  9  5  1  0
  9  7  1  0
  1 10  1  0
  2 11  1  0
  2 12  1  0
  5 13  1  0
  7 14  1  0
  8 15  1  0
  8 16  1  0
  9 17  1  0
M  END
