
     RDKit          3D

 19 18  0  0  0  0  0  0  0  0999 V2000
    3.9556   -0.8752    0.2683 O   0  0  0  0  0  0  0  0  0  0  0  0
    3.4267    0.2788    0.8484 C   0  0  0  0  0  0  0  0  0  0  0  0
    2.0082    0.4569    0.5254 C   0  0  0  0  0  0  0  0  0  0  0  0
    0.8394    0.6123    0.2719 C   0  0  0  0  0  0  0  0  0  0  0  0
   -0.6008    0.7827   -0.0243 C   0  0  0  0  0  0  0  0  0  0  0  0
   -1.2486    1.3251    1.0718 O   0  0  0  0  0  0  0  0  0  0  0  0
   -1.1653   -0.5750   -0.3611 C   0  0  0  0  0  0  0  0  0  0  0  0
   -2.6482   -0.3779   -0.6629 C   0  0  0  0  0  0  0  0  0  0  0  0
   -3.2028   -1.6365   -0.9823 O   0  0  0  0  0  0  0  0  0  0  0  0
    3.2218   -1.2542   -0.3078 H   0  0  0  0  0  0  0  0  0  0  0  0
    4.0415    1.1286    0.4903 H   0  0  0  0  0  0  0  0  0  0  0  0
    3.5031    0.2784    1.9499 H   0  0  0  0  0  0  0  0  0  0  0  0
   -0.7532    1.4583   -0.8914 H   0  0  0  0  0  0  0  0  0  0  0  0
   -0.9968    2.2678    1.1965 H   0  0  0  0  0  0  0  0  0  0  0  0
   -1.1099   -1.2052    0.5425 H   0  0  0  0  0  0  0  0  0  0  0  0
   -0.6293   -1.0834   -1.1594 H   0  0  0  0  0  0  0  0  0  0  0  0
   -3.1079    0.0395    0.2340 H   0  0  0  0  0  0  0  0  0  0  0  0
   -2.7238    0.3254   -1.5134 H   0  0  0  0  0  0  0  0  0  0  0  0
   -2.8098   -1.9462   -1.8374 H   0  0  0  0  0  0  0  0  0  0  0  0
  1  2  1  0
  2  3  1  0
  3  4  3  0
  4  5  1  0
  5  6  1  0
  5  7  1  0
  7  8  1  0
  8  9  1  0
  1 10  1  0
  2 11  1  0
  2 12  1  0
  5 13  1  0
  6 14  1  0
  7 15  1  0
  7 16  1  0
  8 17  1  0
  8 18  1  0
  9 19  1  0
M  END
