
     RDKit          3D

 17 16  0  0  0  0  0  0  0  0999 V2000
    4.6871   -0.6348    0.1997 O   0  0  0  0  0  0  0  0  0  0  0  0
    3.9010   -1.0117   -0.9000 C   0  0  0  0  0  0  0  0  0  0  0  0
    2.5317   -0.5949   -0.5932 C   0  0  0  0  0  0  0  0  0  0  0  0
    1.3909   -0.2301   -0.3427 C   0  0  0  0  0  0  0  0  0  0  0  0
    0.0792    0.2133   -0.0612 C   0  0  0  0  0  0  0  0  0  0  0  0
   -1.0398    0.6133    0.1759 C   0  0  0  0  0  0  0  0  0  0  0  0
   -2.4059    1.0887    0.4486 C   0  0  0  0  0  0  0  0  0  0  0  0
   -3.2963    0.5949   -0.6688 C   0  0  0  0  0  0  0  0  0  0  0  0
   -3.2996   -0.7952   -0.7461 O   0  0  0  0  0  0  0  0  0  0  0  0
    4.1529   -0.3909    0.9749 H   0  0  0  0  0  0  0  0  0  0  0  0
    3.9602   -2.0892   -1.1148 H   0  0  0  0  0  0  0  0  0  0  0  0
    4.2303   -0.3901   -1.7738 H   0  0  0  0  0  0  0  0  0  0  0  0
   -2.7027    0.6453    1.4246 H   0  0  0  0  0  0  0  0  0  0  0  0
   -2.4169    2.1859    0.4530 H   0  0  0  0  0  0  0  0  0  0  0  0
   -2.8228    0.9516   -1.6253 H   0  0  0  0  0  0  0  0  0  0  0  0
   -4.2980    1.0349   -0.6448 H   0  0  0  0  0  0  0  0  0  0  0  0
   -2.6513   -1.1912   -0.1216 H   0  0  0  0  0  0  0  0  0  0  0  0
  1  2  1  0
  2  3  1  0
  3  4  3  0
  4  5  1  0
  5  6  3  0
  6  7  1  0
  7  8  1  0
  8  9  1  0
  1 10  1  0
  2 11  1  0
  2 12  1  0
  7 13  1  0
  7 14  1  0
  8 15  1  0
  8 16  1  0
  9 17  1  0
M  END
