
     RDKit          3D

 16 16  0  0  0  0  0  0  0  0999 V2000
    3.3691   -0.3954    1.2851 O   0  0  0  0  0  0  0  0  0  0  0  0
    2.7768    0.8459    1.0992 C   0  0  0  0  0  0  0  0  0  0  0  0
    1.3775    0.5941    0.7102 C   0  0  0  0  0  0  0  0  0  0  0  0
    0.2187    0.4024    0.4025 C   0  0  0  0  0  0  0  0  0  0  0  0
   -1.1754    0.1862    0.0348 C   0  0  0  0  0  0  0  0  0  0  0  0
   -1.3812   -0.1840   -1.4381 C   0  0  0  0  0  0  0  0  0  0  0  0
   -2.4785   -0.9877   -0.7735 C   0  0  0  0  0  0  0  0  0  0  0  0
   -1.6283   -1.0770    0.3540 O   0  0  0  0  0  0  0  0  0  0  0  0
    2.9185   -0.8216    2.0478 H   0  0  0  0  0  0  0  0  0  0  0  0
    2.8081    1.4592    2.0223 H   0  0  0  0  0  0  0  0  0  0  0  0
    3.3376    1.3787    0.3179 H   0  0  0  0  0  0  0  0  0  0  0  0
   -1.8746    1.0112    0.3550 H   0  0  0  0  0  0  0  0  0  0  0  0
   -0.5099   -0.7559   -1.7817 H   0  0  0  0  0  0  0  0  0  0  0  0
   -1.7010    0.6768   -2.0233 H   0  0  0  0  0  0  0  0  0  0  0  0
   -2.6843   -1.9704   -1.2422 H   0  0  0  0  0  0  0  0  0  0  0  0
   -3.3731   -0.3626   -0.6079 H   0  0  0  0  0  0  0  0  0  0  0  0
  1  2  1  0
  2  3  1  0
  3  4  3  0
  4  5  1  0
  5  6  1  0
  6  7  1  0
  7  8  1  0
  8  5  1  0
  1  9  1  0
  2 10  1  0
  2 11  1  0
  5 12  1  0
  6 13  1  0
  6 14  1  0
  7 15  1  0
  7 16  1  0
M  END
