
     RDKit          3D

 19 20  0  0  0  0  0  0  0  0999 V2000
    3.7680    1.3959   -0.6815 O   0  0  0  0  0  0  0  0  0  0  0  0
    3.0342    0.7763    0.3285 C   0  0  0  0  0  0  0  0  0  0  0  0
    1.6611    0.5403   -0.1509 C   0  0  0  0  0  0  0  0  0  0  0  0
    0.5396    0.3597   -0.5298 C   0  0  0  0  0  0  0  0  0  0  0  0
   -0.7986    0.1489   -0.9723 C   0  0  0  0  0  0  0  0  0  0  0  0
   -1.9238    0.7568   -0.1104 C   0  0  0  0  0  0  0  0  0  0  0  0
   -1.4680   -0.3263    0.8397 C   0  0  0  0  0  0  0  0  0  0  0  0
   -1.5673   -1.7449    0.7151 C   0  0  0  0  0  0  0  0  0  0  0  0
   -1.5124   -1.1030   -0.5443 C   0  0  0  0  0  0  0  0  0  0  0  0
    3.4217    1.0597   -1.5466 H   0  0  0  0  0  0  0  0  0  0  0  0
    3.0282    1.3879    1.2614 H   0  0  0  0  0  0  0  0  0  0  0  0
    3.5451   -0.1809    0.5942 H   0  0  0  0  0  0  0  0  0  0  0  0
   -0.8949    0.3683   -2.0487 H   0  0  0  0  0  0  0  0  0  0  0  0
   -2.8869    0.5337   -0.5840 H   0  0  0  0  0  0  0  0  0  0  0  0
   -1.7451    1.7623    0.2433 H   0  0  0  0  0  0  0  0  0  0  0  0
   -0.4310   -0.0202    1.1818 H   0  0  0  0  0  0  0  0  0  0  0  0
   -2.5147   -2.2069    1.1306 H   0  0  0  0  0  0  0  0  0  0  0  0
   -0.7163   -2.4557    0.9508 H   0  0  0  0  0  0  0  0  0  0  0  0
   -2.5390   -1.0518   -1.0445 H   0  0  0  0  0  0  0  0  0  0  0  0
  1  2  1  0
  2  3  1  0
  3  4  3  0
  4  5  1  0
  5  6  1  0
  6  7  1  0
  7  8  1  0
  8  9  1  0
  9  5  1  0
  9  7  1  0
  1 10  1  0
  2 11  1  0
  2 12  1  0
  5 13  1  0
  6 14  1  0
  6 15  1  0
  7 16  1  0
  8 17  1  0
  8 18  1  0
  9 19  1  0
M  END
