
     RDKit          3D

 17 17  0  0  0  0  0  0  0  0999 V2000
    2.8540    1.0381    2.2618 O   0  0  0  0  0  0  0  0  0  0  0  0
    1.4910    1.3382    2.2853 C   0  0  0  0  0  0  0  0  0  0  0  0
    0.9135    0.8885    1.0181 C   0  0  0  0  0  0  0  0  0  0  0  0
    0.4360    0.5154   -0.0455 C   0  0  0  0  0  0  0  0  0  0  0  0
   -0.1566    0.0699   -1.3085 C   0  0  0  0  0  0  0  0  0  0  0  0
   -1.4317    0.5683   -1.4353 O   0  0  0  0  0  0  0  0  0  0  0  0
   -1.9383   -0.5431   -0.7894 C   0  0  0  0  0  0  0  0  0  0  0  0
   -0.7199   -1.3246   -1.2121 C   0  0  0  0  0  0  0  0  0  0  0  0
   -0.8784   -1.9582   -2.4361 O   0  0  0  0  0  0  0  0  0  0  0  0
    3.3860    1.8463    2.0049 H   0  0  0  0  0  0  0  0  0  0  0  0
    1.0394    0.8173    3.1572 H   0  0  0  0  0  0  0  0  0  0  0  0
    1.3097    2.4186    2.4536 H   0  0  0  0  0  0  0  0  0  0  0  0
    0.5020    0.2517   -2.1813 H   0  0  0  0  0  0  0  0  0  0  0  0
   -2.0401   -0.4291    0.3060 H   0  0  0  0  0  0  0  0  0  0  0  0
   -2.8348   -0.9531   -1.2985 H   0  0  0  0  0  0  0  0  0  0  0  0
   -0.2807   -1.9426   -0.4014 H   0  0  0  0  0  0  0  0  0  0  0  0
   -1.6513   -2.6017   -2.3786 H   0  0  0  0  0  0  0  0  0  0  0  0
  1  2  1  0
  2  3  1  0
  3  4  3  0
  4  5  1  0
  5  6  1  0
  6  7  1  0
  7  8  1  0
  8  9  1  0
  8  5  1  0
  1 10  1  0
  2 11  1  0
  2 12  1  0
  5 13  1  0
  7 14  1  0
  7 15  1  0
  8 16  1  0
  9 17  1  0
M  END
