
     RDKit          3D

 17 17  0  0  0  0  0  0  0  0999 V2000
    3.5621   -1.4310   -0.2724 O   0  0  0  0  0  0  0  0  0  0  0  0
    2.5583   -1.3531   -1.1805 C   0  0  0  0  0  0  0  0  0  0  0  0
    1.3951   -0.6483   -0.5282 C   0  0  0  0  0  0  0  0  0  0  0  0
    0.3783   -0.0578    0.0282 C   0  0  0  0  0  0  0  0  0  0  0  0
   -0.6794    0.5368    0.6208 C   0  0  0  0  0  0  0  0  0  0  0  0
   -1.7752    1.1628   -0.3704 C   0  0  0  0  0  0  0  0  0  0  0  0
   -1.6303    2.5301   -0.3127 O   0  0  0  0  0  0  0  0  0  0  0  0
   -1.4237   -0.2948    1.6802 C   0  0  0  0  0  0  0  0  0  0  0  0
   -0.7745    1.0520    1.9461 O   0  0  0  0  0  0  0  0  0  0  0  0
    3.2012   -1.6799    0.6405 H   0  0  0  0  0  0  0  0  0  0  0  0
    2.1167   -2.3191   -1.5353 H   0  0  0  0  0  0  0  0  0  0  0  0
    2.7980   -0.7877   -2.1140 H   0  0  0  0  0  0  0  0  0  0  0  0
   -1.3513    0.8771   -1.4038 H   0  0  0  0  0  0  0  0  0  0  0  0
   -2.7209    0.7035   -0.2469 H   0  0  0  0  0  0  0  0  0  0  0  0
   -2.2745    2.9334   -0.9981 H   0  0  0  0  0  0  0  0  0  0  0  0
   -2.4927   -0.1079    1.8861 H   0  0  0  0  0  0  0  0  0  0  0  0
   -0.8871   -1.1160    2.1603 H   0  0  0  0  0  0  0  0  0  0  0  0
  1  2  1  0
  2  3  1  0
  3  4  3  0
  4  5  1  0
  5  6  1  0
  6  7  1  0
  5  8  1  0
  8  9  1  0
  9  5  1  0
  1 10  1  0
  2 11  1  0
  2 12  1  0
  6 13  1  0
  6 14  1  0
  7 15  1  0
  8 16  1  0
  8 17  1  0
M  END
