
     RDKit          3D

 16 16  0  0  0  0  0  0  0  0999 V2000
    3.3847   -0.0120    1.2276 O   0  0  0  0  0  0  0  0  0  0  0  0
    2.8090    0.0702   -0.0341 C   0  0  0  0  0  0  0  0  0  0  0  0
    1.3660   -0.1231    0.1337 C   0  0  0  0  0  0  0  0  0  0  0  0
    0.1904   -0.2798    0.2825 C   0  0  0  0  0  0  0  0  0  0  0  0
   -1.2410   -0.4474    0.4573 C   0  0  0  0  0  0  0  0  0  0  0  0
   -2.0165    0.8505    0.6169 C   0  0  0  0  0  0  0  0  0  0  0  0
   -2.9956    0.2721   -0.2107 O   0  0  0  0  0  0  0  0  0  0  0  0
   -1.9419   -0.3662   -0.8757 C   0  0  0  0  0  0  0  0  0  0  0  0
    3.2828   -0.9625    1.5285 H   0  0  0  0  0  0  0  0  0  0  0  0
    3.2482   -0.7007   -0.7222 H   0  0  0  0  0  0  0  0  0  0  0  0
    3.0692    1.0471   -0.4623 H   0  0  0  0  0  0  0  0  0  0  0  0
   -1.5811   -1.2110    1.1514 H   0  0  0  0  0  0  0  0  0  0  0  0
   -1.5719    1.7217    0.0967 H   0  0  0  0  0  0  0  0  0  0  0  0
   -2.4001    1.0514    1.6216 H   0  0  0  0  0  0  0  0  0  0  0  0
   -2.1815   -1.3064   -1.3691 H   0  0  0  0  0  0  0  0  0  0  0  0
   -1.4206    0.3963   -1.5141 H   0  0  0  0  0  0  0  0  0  0  0  0
  1  2  1  0
  2  3  1  0
  3  4  3  0
  4  5  1  0
  5  6  1  0
  6  7  1  0
  7  8  1  0
  8  5  1  0
  1  9  1  0
  2 10  1  0
  2 11  1  0
  5 12  1  0
  6 13  1  0
  6 14  1  0
  8 15  1  0
  8 16  1  0
M  END
