
     RDKit          3D

 19 20  0  0  0  0  0  0  0  0999 V2000
    3.5091    0.8467    1.9173 O   0  0  0  0  0  0  0  0  0  0  0  0
    3.3503   -0.4935    1.4357 C   0  0  0  0  0  0  0  0  0  0  0  0
    1.9935   -0.5784    0.9663 C   0  0  0  0  0  0  0  0  0  0  0  0
    0.5553   -0.6950    0.4635 C   0  0  0  0  0  0  0  0  0  0  0  0
   -0.5825   -0.7724    0.0816 C   0  0  0  0  0  0  0  0  0  0  0  0
   -1.5524    0.2588   -0.0487 C   0  0  0  0  0  0  0  0  0  0  0  0
   -1.8168    1.3036   -1.1880 C   0  0  0  0  0  0  0  0  0  0  0  0
   -2.3479   -0.0465   -1.7614 C   0  0  0  0  0  0  0  0  0  0  0  0
   -0.9510   -0.3755   -1.3500 C   0  0  0  0  0  0  0  0  0  0  0  0
    3.2877    0.9337    2.8853 H   0  0  0  0  0  0  0  0  0  0  0  0
    4.1311   -0.7688    0.9252 H   0  0  0  0  0  0  0  0  0  0  0  0
    3.2958   -1.0885    2.5063 H   0  0  0  0  0  0  0  0  0  0  0  0
   -0.9165   -1.9643   -0.0732 H   0  0  0  0  0  0  0  0  0  0  0  0
   -2.5457    0.0707    0.3484 H   0  0  0  0  0  0  0  0  0  0  0  0
   -0.9581    1.6079   -1.7447 H   0  0  0  0  0  0  0  0  0  0  0  0
   -2.5991    1.9947   -0.9328 H   0  0  0  0  0  0  0  0  0  0  0  0
   -2.5199   -0.0913   -2.8229 H   0  0  0  0  0  0  0  0  0  0  0  0
   -3.1606   -0.3955   -1.1020 H   0  0  0  0  0  0  0  0  0  0  0  0
   -0.1725    0.2537   -1.7995 H   0  0  0  0  0  0  0  0  0  0  0  0
  1  2  1  0
  2  3  1  0
  3  4  3  0
  4  5  1  0
  5  6  1  0
  6  7  1  0
  7  8  1  0
  8  9  1  0
  9  5  1  0
  9  6  1  0
  1 10  1  0
  2 11  1  0
  2 12  1  0
  5 13  1  0
  6 14  1  0
  7 15  1  0
  7 16  1  0
  8 17  1  0
  8 18  1  0
  9 19  1  0
M  END
