
     RDKit          3D

 21 21  0  0  0  0  0  0  0  0999 V2000
   -1.1892   -1.9688   -0.2047 O   0  0  0  0  0  0  0  0  0  0  0  0
   -1.4179   -1.0665    0.8089 C   0  0  0  0  0  0  0  0  0  0  0  0
   -0.5913    0.1945    0.5241 C   0  0  0  0  0  0  0  0  0  0  0  0
   -1.0528    0.7208   -0.7838 C   0  0  0  0  0  0  0  0  0  0  0  0
   -0.4381    1.8607   -1.2337 O   0  0  0  0  0  0  0  0  0  0  0  0
    0.8209   -0.1661    0.6534 C   0  0  0  0  0  0  0  0  0  0  0  0
    1.8843    0.8650    0.4330 C   0  0  0  0  0  0  0  0  0  0  0  0
    2.7168   -0.2089    0.0332 O   0  0  0  0  0  0  0  0  0  0  0  0
    1.5349   -0.7584   -0.5268 C   0  0  0  0  0  0  0  0  0  0  0  0
   -1.8396   -1.8667   -0.9600 H   0  0  0  0  0  0  0  0  0  0  0  0
   -2.4932   -0.7362    0.8015 H   0  0  0  0  0  0  0  0  0  0  0  0
   -1.1112   -1.4655    1.7954 H   0  0  0  0  0  0  0  0  0  0  0  0
   -0.8640    0.9215    1.3247 H   0  0  0  0  0  0  0  0  0  0  0  0
   -1.0233   -0.0261   -1.5999 H   0  0  0  0  0  0  0  0  0  0  0  0
   -2.1490    0.9723   -0.6674 H   0  0  0  0  0  0  0  0  0  0  0  0
   -0.6586    2.6793   -0.7576 H   0  0  0  0  0  0  0  0  0  0  0  0
    1.0159   -0.7764    1.5549 H   0  0  0  0  0  0  0  0  0  0  0  0
    1.7270    1.4989   -0.4616 H   0  0  0  0  0  0  0  0  0  0  0  0
    2.2463    1.3906    1.3356 H   0  0  0  0  0  0  0  0  0  0  0  0
    1.3544   -0.2114   -1.4824 H   0  0  0  0  0  0  0  0  0  0  0  0
    1.5275   -1.8525   -0.5867 H   0  0  0  0  0  0  0  0  0  0  0  0
  1  2  1  0
  2  3  1  0
  3  4  1  0
  4  5  1  0
  3  6  1  0
  6  7  1  0
  7  8  1  0
  8  9  1  0
  9  6  1  0
  1 10  1  0
  2 11  1  0
  2 12  1  0
  3 13  1  0
  4 14  1  0
  4 15  1  0
  5 16  1  0
  6 17  1  0
  7 18  1  0
  7 19  1  0
  9 20  1  0
  9 21  1  0
M  END
