
     RDKit          3D

 23 23  0  0  0  0  0  0  0  0999 V2000
    4.0923    0.3054   -0.5388 O   0  0  0  0  0  0  0  0  0  0  0  0
    2.8577    0.7352   -0.0342 C   0  0  0  0  0  0  0  0  0  0  0  0
    1.7597   -0.2755   -0.3894 C   0  0  0  0  0  0  0  0  0  0  0  0
    2.1468   -1.4798    0.1986 O   0  0  0  0  0  0  0  0  0  0  0  0
    0.4801    0.2654    0.1718 C   0  0  0  0  0  0  0  0  0  0  0  0
   -0.7087   -0.6079   -0.0874 C   0  0  0  0  0  0  0  0  0  0  0  0
   -1.9186    0.0794    0.5429 C   0  0  0  0  0  0  0  0  0  0  0  0
   -3.2521   -0.5442    0.4542 C   0  0  0  0  0  0  0  0  0  0  0  0
   -2.9521    0.6685   -0.3900 C   0  0  0  0  0  0  0  0  0  0  0  0
    3.9759   -0.1570   -1.4165 H   0  0  0  0  0  0  0  0  0  0  0  0
    2.6546    1.7264   -0.4905 H   0  0  0  0  0  0  0  0  0  0  0  0
    2.9345    0.8761    1.0500 H   0  0  0  0  0  0  0  0  0  0  0  0
    1.7354   -0.4178   -1.4690 H   0  0  0  0  0  0  0  0  0  0  0  0
    2.2168   -1.2951    1.1821 H   0  0  0  0  0  0  0  0  0  0  0  0
    0.5830    0.3840    1.2630 H   0  0  0  0  0  0  0  0  0  0  0  0
    0.2969    1.2506   -0.2600 H   0  0  0  0  0  0  0  0  0  0  0  0
   -0.5841   -1.6293    0.3244 H   0  0  0  0  0  0  0  0  0  0  0  0
   -0.9250   -0.7399   -1.1701 H   0  0  0  0  0  0  0  0  0  0  0  0
   -1.7405    0.7149    1.4400 H   0  0  0  0  0  0  0  0  0  0  0  0
   -3.9567   -0.4363    1.3250 H   0  0  0  0  0  0  0  0  0  0  0  0
   -3.3933   -1.5219   -0.0673 H   0  0  0  0  0  0  0  0  0  0  0  0
   -2.8770    0.4642   -1.4839 H   0  0  0  0  0  0  0  0  0  0  0  0
   -3.4255    1.6346   -0.1551 H   0  0  0  0  0  0  0  0  0  0  0  0
  1  2  1  0
  2  3  1  0
  3  4  1  0
  3  5  1  0
  5  6  1  0
  6  7  1  0
  7  8  1  0
  8  9  1  0
  9  7  1  0
  1 10  1  0
  2 11  1  0
  2 12  1  0
  3 13  1  0
  4 14  1  0
  5 15  1  0
  5 16  1  0
  6 17  1  0
  6 18  1  0
  7 19  1  0
  8 20  1  0
  8 21  1  0
  9 22  1  0
  9 23  1  0
M  END
