
     RDKit          3D

 19 20  0  0  0  0  0  0  0  0999 V2000
    2.8885    0.9374   -0.4279 O   0  0  0  0  0  0  0  0  0  0  0  0
    1.5371    0.8323   -0.0833 C   0  0  0  0  0  0  0  0  0  0  0  0
    1.2585   -0.6217    0.2736 C   0  0  0  0  0  0  0  0  0  0  0  0
    1.5681   -1.3647   -0.8813 O   0  0  0  0  0  0  0  0  0  0  0  0
   -0.2012   -0.7864    0.6429 C   0  0  0  0  0  0  0  0  0  0  0  0
   -1.1969   -0.4416   -0.3769 C   0  0  0  0  0  0  0  0  0  0  0  0
   -2.6269   -0.1356   -0.0600 C   0  0  0  0  0  0  0  0  0  0  0  0
   -2.3476    0.1356    1.2781 O   0  0  0  0  0  0  0  0  0  0  0  0
   -1.0430    0.4030    0.9105 C   0  0  0  0  0  0  0  0  0  0  0  0
    3.0882    1.9263   -0.3911 H   0  0  0  0  0  0  0  0  0  0  0  0
    1.3462    1.4124    0.8477 H   0  0  0  0  0  0  0  0  0  0  0  0
    0.9482    1.1738   -0.9451 H   0  0  0  0  0  0  0  0  0  0  0  0
    1.9362   -0.8902    1.0950 H   0  0  0  0  0  0  0  0  0  0  0  0
    1.0523   -2.2222   -0.8419 H   0  0  0  0  0  0  0  0  0  0  0  0
   -0.3692   -1.6394    1.3495 H   0  0  0  0  0  0  0  0  0  0  0  0
   -0.8253    0.0201   -1.3145 H   0  0  0  0  0  0  0  0  0  0  0  0
   -2.9748    0.8117   -0.5423 H   0  0  0  0  0  0  0  0  0  0  0  0
   -3.3423   -0.9802   -0.2106 H   0  0  0  0  0  0  0  0  0  0  0  0
   -0.6962    1.4295    0.7415 H   0  0  0  0  0  0  0  0  0  0  0  0
  1  2  1  0
  2  3  1  0
  3  4  1  0
  3  5  1  0
  5  6  1  0
  6  7  1  0
  7  8  1  0
  8  9  1  0
  9  5  1  0
  9  6  1  0
  1 10  1  0
  2 11  1  0
  2 12  1  0
  3 13  1  0
  4 14  1  0
  5 15  1  0
  6 16  1  0
  7 17  1  0
  7 18  1  0
  9 19  1  0
M  END
