
     RDKit          3D

 18 18  0  0  0  0  0  0  0  0999 V2000
   -2.5781    1.0014   -0.3535 O   0  0  0  0  0  0  0  0  0  0  0  0
   -1.4343    0.6603    0.4014 C   0  0  0  0  0  0  0  0  0  0  0  0
   -0.7417   -0.4398   -0.3434 C   0  0  0  0  0  0  0  0  0  0  0  0
   -1.6876   -1.4942   -0.4271 O   0  0  0  0  0  0  0  0  0  0  0  0
    0.4438   -1.0243    0.3416 C   0  0  0  0  0  0  0  0  0  0  0  0
    1.5769   -0.1167    0.6430 C   0  0  0  0  0  0  0  0  0  0  0  0
    2.3133    0.6069   -0.3817 C   0  0  0  0  0  0  0  0  0  0  0  0
    1.3808    1.2367    0.5833 O   0  0  0  0  0  0  0  0  0  0  0  0
   -2.6266    1.9444   -0.5708 H   0  0  0  0  0  0  0  0  0  0  0  0
   -1.8141    0.2254    1.3694 H   0  0  0  0  0  0  0  0  0  0  0  0
   -0.8787    1.5842    0.5277 H   0  0  0  0  0  0  0  0  0  0  0  0
   -0.5077   -0.1472   -1.3863 H   0  0  0  0  0  0  0  0  0  0  0  0
   -1.7195   -1.8621   -1.3279 H   0  0  0  0  0  0  0  0  0  0  0  0
    0.7547   -1.9118   -0.2863 H   0  0  0  0  0  0  0  0  0  0  0  0
    0.0503   -1.5126    1.2828 H   0  0  0  0  0  0  0  0  0  0  0  0
    2.2057   -0.4833    1.5106 H   0  0  0  0  0  0  0  0  0  0  0  0
    3.3209    0.9633   -0.1783 H   0  0  0  0  0  0  0  0  0  0  0  0
    1.9420    0.7694   -1.4044 H   0  0  0  0  0  0  0  0  0  0  0  0
  1  2  1  0
  2  3  1  0
  3  4  1  0
  3  5  1  0
  5  6  1  0
  6  7  1  0
  7  8  1  0
  8  6  1  0
  1  9  1  0
  2 10  1  0
  2 11  1  0
  3 12  1  0
  4 13  1  0
  5 14  1  0
  5 15  1  0
  6 16  1  0
  7 17  1  0
  7 18  1  0
M  END
