
     RDKit          3D

 19 20  0  0  0  0  0  0  0  0999 V2000
    1.9706   -1.2976   -0.1944 O   0  0  0  0  0  0  0  0  0  0  0  0
    1.8739    0.0855   -0.0471 C   0  0  0  0  0  0  0  0  0  0  0  0
    0.5065    0.5632   -0.5336 C   0  0  0  0  0  0  0  0  0  0  0  0
    0.4596    1.9436   -0.3665 O   0  0  0  0  0  0  0  0  0  0  0  0
   -0.5987   -0.0424    0.2654 C   0  0  0  0  0  0  0  0  0  0  0  0
   -0.7322   -1.5269    0.2827 C   0  0  0  0  0  0  0  0  0  0  0  0
   -2.0833   -1.4086   -0.0461 O   0  0  0  0  0  0  0  0  0  0  0  0
   -1.9810   -0.0680   -0.3334 C   0  0  0  0  0  0  0  0  0  0  0  0
   -1.6952    0.8340    0.8018 C   0  0  0  0  0  0  0  0  0  0  0  0
    2.6446   -1.5937    0.4911 H   0  0  0  0  0  0  0  0  0  0  0  0
    2.6168    0.6208   -0.7037 H   0  0  0  0  0  0  0  0  0  0  0  0
    1.9918    0.3861    1.0238 H   0  0  0  0  0  0  0  0  0  0  0  0
    0.4497    0.2942   -1.6254 H   0  0  0  0  0  0  0  0  0  0  0  0
    1.1677    2.4211   -0.8229 H   0  0  0  0  0  0  0  0  0  0  0  0
   -0.2147   -2.0353   -0.5783 H   0  0  0  0  0  0  0  0  0  0  0  0
   -0.5289   -1.9481    1.2726 H   0  0  0  0  0  0  0  0  0  0  0  0
   -2.1593    0.2887   -1.3567 H   0  0  0  0  0  0  0  0  0  0  0  0
   -2.1779    0.5738    1.7826 H   0  0  0  0  0  0  0  0  0  0  0  0
   -1.5098    1.9096    0.6883 H   0  0  0  0  0  0  0  0  0  0  0  0
  1  2  1  0
  2  3  1  0
  3  4  1  0
  3  5  1  0
  5  6  1  0
  6  7  1  0
  7  8  1  0
  8  9  1  0
  8  5  1  0
  9  5  1  0
  1 10  1  0
  2 11  1  0
  2 12  1  0
  3 13  1  0
  4 14  1  0
  6 15  1  0
  6 16  1  0
  8 17  1  0
  9 18  1  0
  9 19  1  0
M  END
