
     RDKit          3D

 19 19  0  0  0  0  0  0  0  0999 V2000
    2.5834    0.0317   -0.9529 O   0  0  0  0  0  0  0  0  0  0  0  0
    2.0209    0.2969    0.2687 C   0  0  0  0  0  0  0  0  0  0  0  0
    0.5182    0.4220    0.2314 C   0  0  0  0  0  0  0  0  0  0  0  0
    0.1091    1.4509   -0.6125 O   0  0  0  0  0  0  0  0  0  0  0  0
   -0.1710   -0.8669   -0.0450 C   0  0  0  0  0  0  0  0  0  0  0  0
    0.0927   -1.2401   -1.3713 O   0  0  0  0  0  0  0  0  0  0  0  0
   -1.6459   -0.7952    0.1417 C   0  0  0  0  0  0  0  0  0  0  0  0
   -2.4087    0.4341    0.3667 C   0  0  0  0  0  0  0  0  0  0  0  0
   -2.1213   -0.4356    1.4501 O   0  0  0  0  0  0  0  0  0  0  0  0
    3.3796   -0.5640   -0.7991 H   0  0  0  0  0  0  0  0  0  0  0  0
    2.4085    1.3020    0.5981 H   0  0  0  0  0  0  0  0  0  0  0  0
    2.3128   -0.4674    1.0113 H   0  0  0  0  0  0  0  0  0  0  0  0
    0.2066    0.7447    1.2686 H   0  0  0  0  0  0  0  0  0  0  0  0
    0.7616    2.1890   -0.4836 H   0  0  0  0  0  0  0  0  0  0  0  0
    0.3057   -1.6393    0.6307 H   0  0  0  0  0  0  0  0  0  0  0  0
   -0.6828   -1.0648   -1.9604 H   0  0  0  0  0  0  0  0  0  0  0  0
   -2.2350   -1.6617   -0.2702 H   0  0  0  0  0  0  0  0  0  0  0  0
   -3.4981    0.4346    0.0702 H   0  0  0  0  0  0  0  0  0  0  0  0
   -1.9364    1.4292    0.4574 H   0  0  0  0  0  0  0  0  0  0  0  0
  1  2  1  0
  2  3  1  0
  3  4  1  0
  3  5  1  0
  5  6  1  0
  5  7  1  0
  7  8  1  0
  8  9  1  0
  9  7  1  0
  1 10  1  0
  2 11  1  0
  2 12  1  0
  3 13  1  0
  4 14  1  0
  5 15  1  0
  6 16  1  0
  7 17  1  0
  8 18  1  0
  8 19  1  0
M  END
