
     RDKit          3D

 21 21  0  0  0  0  0  0  0  0999 V2000
    2.3020    0.6701   -0.4356 O   0  0  0  0  0  0  0  0  0  0  0  0
    2.1331    0.0290    0.7788 C   0  0  0  0  0  0  0  0  0  0  0  0
    0.8329   -0.7348    0.8519 C   0  0  0  0  0  0  0  0  0  0  0  0
    0.8805   -1.6871   -0.1899 O   0  0  0  0  0  0  0  0  0  0  0  0
   -0.3720    0.1361    0.7191 C   0  0  0  0  0  0  0  0  0  0  0  0
   -0.4153    0.8971   -0.6108 C   0  0  0  0  0  0  0  0  0  0  0  0
   -1.8723    0.5205   -0.7375 C   0  0  0  0  0  0  0  0  0  0  0  0
   -2.2209   -0.0131   -1.9807 O   0  0  0  0  0  0  0  0  0  0  0  0
   -1.6274   -0.5708    0.2743 C   0  0  0  0  0  0  0  0  0  0  0  0
    2.6833    1.5755   -0.3617 H   0  0  0  0  0  0  0  0  0  0  0  0
    2.1121    0.7703    1.6304 H   0  0  0  0  0  0  0  0  0  0  0  0
    3.0091   -0.6101    0.9535 H   0  0  0  0  0  0  0  0  0  0  0  0
    0.7597   -1.3115    1.7800 H   0  0  0  0  0  0  0  0  0  0  0  0
    1.2634   -1.2085   -0.9686 H   0  0  0  0  0  0  0  0  0  0  0  0
   -0.4914    0.7958    1.5908 H   0  0  0  0  0  0  0  0  0  0  0  0
   -0.2828    1.9775   -0.4285 H   0  0  0  0  0  0  0  0  0  0  0  0
    0.1790    0.4609   -1.4143 H   0  0  0  0  0  0  0  0  0  0  0  0
   -2.5372    1.3316   -0.4093 H   0  0  0  0  0  0  0  0  0  0  0  0
   -2.4621   -0.9683   -1.9289 H   0  0  0  0  0  0  0  0  0  0  0  0
   -1.4838   -1.5516   -0.1897 H   0  0  0  0  0  0  0  0  0  0  0  0
   -2.3900   -0.5087    1.0767 H   0  0  0  0  0  0  0  0  0  0  0  0
  1  2  1  0
  2  3  1  0
  3  4  1  0
  3  5  1  0
  5  6  1  0
  6  7  1  0
  7  8  1  0
  7  9  1  0
  9  5  1  0
  1 10  1  0
  2 11  1  0
  2 12  1  0
  3 13  1  0
  4 14  1  0
  5 15  1  0
  6 16  1  0
  6 17  1  0
  7 18  1  0
  8 19  1  0
  9 20  1  0
  9 21  1  0
M  END
