
     RDKit          3D

 18 18  0  0  0  0  0  0  0  0999 V2000
   -1.7050   -1.5961   -0.2882 O   0  0  0  0  0  0  0  0  0  0  0  0
   -0.5075   -1.1457    0.2566 C   0  0  0  0  0  0  0  0  0  0  0  0
   -0.0348    0.1296   -0.4040 C   0  0  0  0  0  0  0  0  0  0  0  0
   -1.0889    1.1949   -0.2069 C   0  0  0  0  0  0  0  0  0  0  0  0
   -2.2762    0.7713   -0.7852 O   0  0  0  0  0  0  0  0  0  0  0  0
    1.2612    0.6317    0.1071 C   0  0  0  0  0  0  0  0  0  0  0  0
    2.5081   -0.0570    0.0751 C   0  0  0  0  0  0  0  0  0  0  0  0
    1.7322   -0.1995    1.2424 O   0  0  0  0  0  0  0  0  0  0  0  0
   -1.8164   -2.5712   -0.1838 H   0  0  0  0  0  0  0  0  0  0  0  0
   -0.6840   -0.9535    1.3337 H   0  0  0  0  0  0  0  0  0  0  0  0
    0.2210   -1.9602    0.1842 H   0  0  0  0  0  0  0  0  0  0  0  0
    0.0559   -0.0447   -1.5073 H   0  0  0  0  0  0  0  0  0  0  0  0
   -1.2762    1.2834    0.8943 H   0  0  0  0  0  0  0  0  0  0  0  0
   -0.7451    2.1602   -0.6424 H   0  0  0  0  0  0  0  0  0  0  0  0
   -3.0216    1.1242   -0.2720 H   0  0  0  0  0  0  0  0  0  0  0  0
    1.2569    1.6845    0.4785 H   0  0  0  0  0  0  0  0  0  0  0  0
    3.4380    0.5277    0.2300 H   0  0  0  0  0  0  0  0  0  0  0  0
    2.6824   -0.9797   -0.5122 H   0  0  0  0  0  0  0  0  0  0  0  0
  1  2  1  0
  2  3  1  0
  3  4  1  0
  4  5  1  0
  3  6  1  0
  6  7  1  0
  7  8  1  0
  8  6  1  0
  1  9  1  0
  2 10  1  0
  2 11  1  0
  3 12  1  0
  4 13  1  0
  4 14  1  0
  5 15  1  0
  6 16  1  0
  7 17  1  0
  7 18  1  0
M  END
