
     RDKit          3D

 19 19  0  0  0  0  0  0  0  0999 V2000
   -0.1060   -1.6160    1.3885 O   0  0  0  0  0  0  0  0  0  0  0  0
   -0.4011   -0.2396    1.2529 C   0  0  0  0  0  0  0  0  0  0  0  0
   -0.4001    0.0406   -0.2340 C   0  0  0  0  0  0  0  0  0  0  0  0
   -1.3883   -0.7767   -0.7945 O   0  0  0  0  0  0  0  0  0  0  0  0
   -0.7767    1.4734   -0.5035 C   0  0  0  0  0  0  0  0  0  0  0  0
   -2.0043    1.8066    0.0515 O   0  0  0  0  0  0  0  0  0  0  0  0
    0.9388   -0.2954   -0.8377 C   0  0  0  0  0  0  0  0  0  0  0  0
    2.0991   -0.6534   -0.0656 C   0  0  0  0  0  0  0  0  0  0  0  0
    1.3090   -1.7106   -0.5905 O   0  0  0  0  0  0  0  0  0  0  0  0
   -0.5971   -2.1501    0.7051 H   0  0  0  0  0  0  0  0  0  0  0  0
   -1.3860   -0.0278    1.6836 H   0  0  0  0  0  0  0  0  0  0  0  0
    0.4083    0.3217    1.7830 H   0  0  0  0  0  0  0  0  0  0  0  0
   -1.2443   -0.8658   -1.7720 H   0  0  0  0  0  0  0  0  0  0  0  0
    0.0089    2.1382   -0.0644 H   0  0  0  0  0  0  0  0  0  0  0  0
   -0.8103    1.7041   -1.5818 H   0  0  0  0  0  0  0  0  0  0  0  0
   -1.9159    2.0812    1.0171 H   0  0  0  0  0  0  0  0  0  0  0  0
    1.0400   -0.0900   -1.9215 H   0  0  0  0  0  0  0  0  0  0  0  0
    2.1366   -0.5399    1.0329 H   0  0  0  0  0  0  0  0  0  0  0  0
    3.0896   -0.6006   -0.5491 H   0  0  0  0  0  0  0  0  0  0  0  0
  1  2  1  0
  2  3  1  0
  3  4  1  0
  3  5  1  0
  5  6  1  0
  3  7  1  0
  7  8  1  0
  8  9  1  0
  9  7  1  0
  1 10  1  0
  2 11  1  0
  2 12  1  0
  4 13  1  0
  5 14  1  0
  5 15  1  0
  6 16  1  0
  7 17  1  0
  8 18  1  0
  8 19  1  0
M  END
