
     RDKit          3D

 19 20  0  0  0  0  0  0  0  0999 V2000
   -1.6059    1.4248   -0.0392 O   0  0  0  0  0  0  0  0  0  0  0  0
   -1.5625    0.1916   -0.6459 C   0  0  0  0  0  0  0  0  0  0  0  0
   -0.8047   -0.8619    0.0783 C   0  0  0  0  0  0  0  0  0  0  0  0
   -0.8970   -2.0338   -0.7139 O   0  0  0  0  0  0  0  0  0  0  0  0
    0.6046   -0.5655    0.4148 C   0  0  0  0  0  0  0  0  0  0  0  0
    1.5095   -0.2809   -0.7708 C   0  0  0  0  0  0  0  0  0  0  0  0
    2.0850    0.9120   -0.0353 C   0  0  0  0  0  0  0  0  0  0  0  0
    2.3693    0.7994    1.3137 O   0  0  0  0  0  0  0  0  0  0  0  0
    1.0052    0.7196    1.0077 C   0  0  0  0  0  0  0  0  0  0  0  0
   -2.4538    1.8686   -0.2211 H   0  0  0  0  0  0  0  0  0  0  0  0
   -2.6343   -0.1673   -0.6959 H   0  0  0  0  0  0  0  0  0  0  0  0
   -1.2494    0.2672   -1.7286 H   0  0  0  0  0  0  0  0  0  0  0  0
   -1.3733   -1.1120    1.0044 H   0  0  0  0  0  0  0  0  0  0  0  0
   -1.8335   -2.1689   -0.9619 H   0  0  0  0  0  0  0  0  0  0  0  0
    1.0615   -1.4136    1.0081 H   0  0  0  0  0  0  0  0  0  0  0  0
    0.9407    0.0323   -1.6861 H   0  0  0  0  0  0  0  0  0  0  0  0
    2.2639   -1.0685   -0.9705 H   0  0  0  0  0  0  0  0  0  0  0  0
    2.2104    1.8753   -0.5272 H   0  0  0  0  0  0  0  0  0  0  0  0
    0.3645    1.5817    1.1614 H   0  0  0  0  0  0  0  0  0  0  0  0
  1  2  1  0
  2  3  1  0
  3  4  1  0
  3  5  1  0
  5  6  1  0
  6  7  1  0
  7  8  1  0
  8  9  1  0
  9  5  1  0
  9  7  1  0
  1 10  1  0
  2 11  1  0
  2 12  1  0
  3 13  1  0
  4 14  1  0
  5 15  1  0
  6 16  1  0
  6 17  1  0
  7 18  1  0
  9 19  1  0
M  END
