
     RDKit          3D

 19 19  0  0  0  0  0  0  0  0999 V2000
    2.7722   -0.6334   -0.1232 O   0  0  0  0  0  0  0  0  0  0  0  0
    1.3779   -0.6293   -0.1562 C   0  0  0  0  0  0  0  0  0  0  0  0
    0.8096    0.5814    0.5382 C   0  0  0  0  0  0  0  0  0  0  0  0
    1.2590    1.7458   -0.0837 O   0  0  0  0  0  0  0  0  0  0  0  0
   -0.6496    0.5610    0.7354 C   0  0  0  0  0  0  0  0  0  0  0  0
   -1.0871   -0.6043    1.3561 O   0  0  0  0  0  0  0  0  0  0  0  0
   -1.7914   -1.0613    0.2380 C   0  0  0  0  0  0  0  0  0  0  0  0
   -1.5586    0.3005   -0.3937 C   0  0  0  0  0  0  0  0  0  0  0  0
   -1.0846    0.2588   -1.6660 O   0  0  0  0  0  0  0  0  0  0  0  0
    3.1052   -0.5865    0.8101 H   0  0  0  0  0  0  0  0  0  0  0  0
    1.1072   -0.5891   -1.2500 H   0  0  0  0  0  0  0  0  0  0  0  0
    1.0239   -1.5790    0.2194 H   0  0  0  0  0  0  0  0  0  0  0  0
    1.2963    0.6064    1.5533 H   0  0  0  0  0  0  0  0  0  0  0  0
    1.6090    1.4918   -0.9718 H   0  0  0  0  0  0  0  0  0  0  0  0
   -0.9805    1.4372    1.3321 H   0  0  0  0  0  0  0  0  0  0  0  0
   -2.8471   -1.2972    0.4671 H   0  0  0  0  0  0  0  0  0  0  0  0
   -1.3080   -1.9074   -0.3034 H   0  0  0  0  0  0  0  0  0  0  0  0
   -2.5180    0.8862   -0.3510 H   0  0  0  0  0  0  0  0  0  0  0  0
   -0.5354    1.0184   -1.9507 H   0  0  0  0  0  0  0  0  0  0  0  0
  1  2  1  0
  2  3  1  0
  3  4  1  0
  3  5  1  0
  5  6  1  0
  6  7  1  0
  7  8  1  0
  8  9  1  0
  8  5  1  0
  1 10  1  0
  2 11  1  0
  2 12  1  0
  3 13  1  0
  4 14  1  0
  5 15  1  0
  7 16  1  0
  7 17  1  0
  8 18  1  0
  9 19  1  0
M  END
