
     RDKit          3D

 19 20  0  0  0  0  0  0  0  0999 V2000
   -1.9423    1.2121    1.0231 O   0  0  0  0  0  0  0  0  0  0  0  0
   -0.6552    1.3513    0.5746 C   0  0  0  0  0  0  0  0  0  0  0  0
    0.1437    0.0661    0.5832 C   0  0  0  0  0  0  0  0  0  0  0  0
   -0.5437   -0.9209   -0.3077 C   0  0  0  0  0  0  0  0  0  0  0  0
   -1.9496   -1.2820    0.1026 C   0  0  0  0  0  0  0  0  0  0  0  0
   -0.8921   -2.1841    0.0786 O   0  0  0  0  0  0  0  0  0  0  0  0
    1.5472    0.3607    0.1990 C   0  0  0  0  0  0  0  0  0  0  0  0
    2.6111   -0.5875    0.0907 C   0  0  0  0  0  0  0  0  0  0  0  0
    2.4720    0.0196    1.3116 O   0  0  0  0  0  0  0  0  0  0  0  0
   -2.2979    2.0816    1.3066 H   0  0  0  0  0  0  0  0  0  0  0  0
   -0.6849    1.7923   -0.4411 H   0  0  0  0  0  0  0  0  0  0  0  0
   -0.1108    2.0828    1.2388 H   0  0  0  0  0  0  0  0  0  0  0  0
    0.0871   -0.2765    1.6634 H   0  0  0  0  0  0  0  0  0  0  0  0
   -0.3810   -0.8013   -1.4174 H   0  0  0  0  0  0  0  0  0  0  0  0
   -2.7209   -1.3101   -0.6868 H   0  0  0  0  0  0  0  0  0  0  0  0
   -2.3487   -1.0349    1.1045 H   0  0  0  0  0  0  0  0  0  0  0  0
    1.7552    1.4103   -0.0964 H   0  0  0  0  0  0  0  0  0  0  0  0
    3.5124   -0.3101   -0.4867 H   0  0  0  0  0  0  0  0  0  0  0  0
    2.3984   -1.6694    0.0647 H   0  0  0  0  0  0  0  0  0  0  0  0
  1  2  1  0
  2  3  1  0
  3  4  1  0
  4  5  1  0
  5  6  1  0
  3  7  1  0
  7  8  1  0
  8  9  1  0
  6  4  1  0
  9  7  1  0
  1 10  1  0
  2 11  1  0
  2 12  1  0
  3 13  1  0
  4 14  1  0
  5 15  1  0
  5 16  1  0
  7 17  1  0
  8 18  1  0
  8 19  1  0
M  END
