
     RDKit          3D

 19 19  0  0  0  0  0  0  0  0999 V2000
    1.9693   -0.9519   -0.9680 O   0  0  0  0  0  0  0  0  0  0  0  0
    2.0295   -0.2775    0.2392 C   0  0  0  0  0  0  0  0  0  0  0  0
    1.0406    0.8428    0.3069 C   0  0  0  0  0  0  0  0  0  0  0  0
    1.2492    1.7857   -0.6865 O   0  0  0  0  0  0  0  0  0  0  0  0
   -0.3775    0.3567    0.2375 C   0  0  0  0  0  0  0  0  0  0  0  0
   -0.6952   -0.2314   -0.9744 O   0  0  0  0  0  0  0  0  0  0  0  0
   -2.0075   -0.6791   -0.7005 C   0  0  0  0  0  0  0  0  0  0  0  0
   -1.9221   -1.0407    0.7625 C   0  0  0  0  0  0  0  0  0  0  0  0
   -0.6158   -0.7031    1.1232 O   0  0  0  0  0  0  0  0  0  0  0  0
    2.8943   -1.2263   -1.1951 H   0  0  0  0  0  0  0  0  0  0  0  0
    1.8451   -0.9741    1.0786 H   0  0  0  0  0  0  0  0  0  0  0  0
    3.0438    0.1720    0.4138 H   0  0  0  0  0  0  0  0  0  0  0  0
    1.1680    1.3756    1.2786 H   0  0  0  0  0  0  0  0  0  0  0  0
    1.1832    1.3326   -1.5744 H   0  0  0  0  0  0  0  0  0  0  0  0
   -1.1207    1.1319    0.4789 H   0  0  0  0  0  0  0  0  0  0  0  0
   -2.6443    0.2422   -0.8039 H   0  0  0  0  0  0  0  0  0  0  0  0
   -2.3083   -1.4955   -1.3493 H   0  0  0  0  0  0  0  0  0  0  0  0
   -2.1461   -2.1060    0.9576 H   0  0  0  0  0  0  0  0  0  0  0  0
   -2.5856   -0.3770    1.3753 H   0  0  0  0  0  0  0  0  0  0  0  0
  1  2  1  0
  2  3  1  0
  3  4  1  0
  3  5  1  0
  5  6  1  0
  6  7  1  0
  7  8  1  0
  8  9  1  0
  9  5  1  0
  1 10  1  0
  2 11  1  0
  2 12  1  0
  3 13  1  0
  4 14  1  0
  5 15  1  0
  7 16  1  0
  7 17  1  0
  8 18  1  0
  8 19  1  0
M  END
