
     RDKit          3D

 21 21  0  0  0  0  0  0  0  0999 V2000
   -0.8953   -2.0766   -0.6009 O   0  0  0  0  0  0  0  0  0  0  0  0
   -1.3348   -0.7832   -0.5966 C   0  0  0  0  0  0  0  0  0  0  0  0
   -0.7101    0.1167    0.4301 C   0  0  0  0  0  0  0  0  0  0  0  0
   -1.3866    1.4842    0.2140 C   0  0  0  0  0  0  0  0  0  0  0  0
   -2.7304    1.2931    0.4144 O   0  0  0  0  0  0  0  0  0  0  0  0
    0.7448    0.3674    0.2698 C   0  0  0  0  0  0  0  0  0  0  0  0
    1.6387   -0.8188    0.3253 C   0  0  0  0  0  0  0  0  0  0  0  0
    3.1145   -0.4709    0.1546 C   0  0  0  0  0  0  0  0  0  0  0  0
    2.5559   -0.9597    1.3585 O   0  0  0  0  0  0  0  0  0  0  0  0
   -1.5387   -2.6311   -0.0875 H   0  0  0  0  0  0  0  0  0  0  0  0
   -2.4420   -0.7614   -0.3845 H   0  0  0  0  0  0  0  0  0  0  0  0
   -1.2253   -0.2665   -1.5781 H   0  0  0  0  0  0  0  0  0  0  0  0
   -0.9626   -0.1894    1.4744 H   0  0  0  0  0  0  0  0  0  0  0  0
   -0.9072    2.2098    0.8641 H   0  0  0  0  0  0  0  0  0  0  0  0
   -1.2361    1.6938   -0.8773 H   0  0  0  0  0  0  0  0  0  0  0  0
   -3.1198    2.0876    0.8311 H   0  0  0  0  0  0  0  0  0  0  0  0
    1.0353    1.1580    1.0045 H   0  0  0  0  0  0  0  0  0  0  0  0
    0.9083    0.8535   -0.7288 H   0  0  0  0  0  0  0  0  0  0  0  0
    1.3310   -1.7557   -0.1590 H   0  0  0  0  0  0  0  0  0  0  0  0
    3.7329   -1.1342   -0.4538 H   0  0  0  0  0  0  0  0  0  0  0  0
    3.4273    0.5835    0.2546 H   0  0  0  0  0  0  0  0  0  0  0  0
  1  2  1  0
  2  3  1  0
  3  4  1  0
  4  5  1  0
  3  6  1  0
  6  7  1  0
  7  8  1  0
  8  9  1  0
  9  7  1  0
  1 10  1  0
  2 11  1  0
  2 12  1  0
  3 13  1  0
  4 14  1  0
  4 15  1  0
  5 16  1  0
  6 17  1  0
  6 18  1  0
  7 19  1  0
  8 20  1  0
  8 21  1  0
M  END
