
     RDKit          3D

 21 22  0  0  0  0  0  0  0  0999 V2000
    2.5394    0.6072    0.4944 O   0  0  0  0  0  0  0  0  0  0  0  0
    1.9279   -0.6488    0.5437 C   0  0  0  0  0  0  0  0  0  0  0  0
    0.8415   -0.6757   -0.5301 C   0  0  0  0  0  0  0  0  0  0  0  0
    1.5034   -0.4564   -1.7618 O   0  0  0  0  0  0  0  0  0  0  0  0
   -0.1105    0.4202   -0.2496 C   0  0  0  0  0  0  0  0  0  0  0  0
   -0.8474    0.4578    1.0293 C   0  0  0  0  0  0  0  0  0  0  0  0
   -1.7117   -0.6435    0.4889 C   0  0  0  0  0  0  0  0  0  0  0  0
   -1.5397    0.2718   -0.6777 C   0  0  0  0  0  0  0  0  0  0  0  0
   -1.8121    1.3828    0.3144 C   0  0  0  0  0  0  0  0  0  0  0  0
    3.1046    0.7739    1.2898 H   0  0  0  0  0  0  0  0  0  0  0  0
    1.4682   -0.8286    1.5473 H   0  0  0  0  0  0  0  0  0  0  0  0
    2.7084   -1.3951    0.3524 H   0  0  0  0  0  0  0  0  0  0  0  0
    0.4314   -1.6791   -0.5944 H   0  0  0  0  0  0  0  0  0  0  0  0
    1.9069   -1.3231   -2.0433 H   0  0  0  0  0  0  0  0  0  0  0  0
    0.2423    1.4475   -0.5561 H   0  0  0  0  0  0  0  0  0  0  0  0
   -0.5141    0.5708    1.9637 H   0  0  0  0  0  0  0  0  0  0  0  0
   -1.3080   -1.6517    0.4373 H   0  0  0  0  0  0  0  0  0  0  0  0
   -2.7691   -0.5981    0.8746 H   0  0  0  0  0  0  0  0  0  0  0  0
   -1.9063    0.1948   -1.6009 H   0  0  0  0  0  0  0  0  0  0  0  0
   -2.8218    1.4384    0.7177 H   0  0  0  0  0  0  0  0  0  0  0  0
   -1.3334    2.3348    0.0229 H   0  0  0  0  0  0  0  0  0  0  0  0
  1  2  1  0
  2  3  1  0
  3  4  1  0
  3  5  1  0
  5  6  1  0
  6  7  1  0
  7  8  1  0
  8  9  1  0
  8  5  1  0
  9  6  1  0
  1 10  1  0
  2 11  1  0
  2 12  1  0
  3 13  1  0
  4 14  1  0
  5 15  1  0
  6 16  1  0
  7 17  1  0
  7 18  1  0
  8 19  1  0
  9 20  1  0
  9 21  1  0
M  END
