
     RDKit          3D

 19 20  0  0  0  0  0  0  0  0999 V2000
   -2.2447    1.0844   -1.1799 O   0  0  0  0  0  0  0  0  0  0  0  0
   -2.2037   -0.0871   -0.4387 C   0  0  0  0  0  0  0  0  0  0  0  0
   -1.1552    0.0679    0.6367 C   0  0  0  0  0  0  0  0  0  0  0  0
   -1.0428   -1.0629    1.4333 O   0  0  0  0  0  0  0  0  0  0  0  0
    0.1776    0.4744    0.0937 C   0  0  0  0  0  0  0  0  0  0  0  0
    1.0432    0.7558    1.1883 O   0  0  0  0  0  0  0  0  0  0  0  0
    2.0080    0.6291    0.1920 C   0  0  0  0  0  0  0  0  0  0  0  0
    2.5771   -0.5503   -0.3554 C   0  0  0  0  0  0  0  0  0  0  0  0
    1.1704   -0.6882   -0.0676 C   0  0  0  0  0  0  0  0  0  0  0  0
   -1.9275    1.8781   -0.6880 H   0  0  0  0  0  0  0  0  0  0  0  0
   -1.9732   -0.9783   -1.0449 H   0  0  0  0  0  0  0  0  0  0  0  0
   -3.1822   -0.1753    0.0759 H   0  0  0  0  0  0  0  0  0  0  0  0
   -1.5398    0.8819    1.3198 H   0  0  0  0  0  0  0  0  0  0  0  0
   -0.9557   -1.9023    0.9010 H   0  0  0  0  0  0  0  0  0  0  0  0
    0.1705    1.2055   -0.7064 H   0  0  0  0  0  0  0  0  0  0  0  0
    1.8132    1.4532   -0.5644 H   0  0  0  0  0  0  0  0  0  0  0  0
    2.8543   -0.6029   -1.4506 H   0  0  0  0  0  0  0  0  0  0  0  0
    3.3966   -1.0569    0.2402 H   0  0  0  0  0  0  0  0  0  0  0  0
    1.0138   -1.3264    0.8607 H   0  0  0  0  0  0  0  0  0  0  0  0
  1  2  1  0
  2  3  1  0
  3  4  1  0
  3  5  1  0
  5  6  1  0
  6  7  1  0
  7  8  1  0
  8  9  1  0
  9  5  1  0
  9  7  1  0
  1 10  1  0
  2 11  1  0
  2 12  1  0
  3 13  1  0
  4 14  1  0
  5 15  1  0
  7 16  1  0
  8 17  1  0
  8 18  1  0
  9 19  1  0
M  END
