
     RDKit          3D

 19 19  0  0  0  0  0  0  0  0999 V2000
   -2.1435   -1.0395    0.1436 O   0  0  0  0  0  0  0  0  0  0  0  0
   -2.0486    0.0222   -0.7839 C   0  0  0  0  0  0  0  0  0  0  0  0
   -0.7613    0.7483   -0.4468 C   0  0  0  0  0  0  0  0  0  0  0  0
   -0.9234    1.1872    0.8868 O   0  0  0  0  0  0  0  0  0  0  0  0
    0.3680   -0.2109   -0.5875 C   0  0  0  0  0  0  0  0  0  0  0  0
    1.7764    0.1646   -0.3322 C   0  0  0  0  0  0  0  0  0  0  0  0
    2.7450   -0.5984   -0.9843 O   0  0  0  0  0  0  0  0  0  0  0  0
    1.0323   -0.5833    0.7495 C   0  0  0  0  0  0  0  0  0  0  0  0
    0.7415    0.1944    1.8599 O   0  0  0  0  0  0  0  0  0  0  0  0
   -2.2326   -0.6330    1.0634 H   0  0  0  0  0  0  0  0  0  0  0  0
   -1.9748   -0.4679   -1.7824 H   0  0  0  0  0  0  0  0  0  0  0  0
   -2.9245    0.6572   -0.6697 H   0  0  0  0  0  0  0  0  0  0  0  0
   -0.6298    1.6452   -1.1177 H   0  0  0  0  0  0  0  0  0  0  0  0
   -0.4386    2.0457    1.0134 H   0  0  0  0  0  0  0  0  0  0  0  0
    0.1654   -1.0842   -1.2564 H   0  0  0  0  0  0  0  0  0  0  0  0
    2.0719    1.2122   -0.1678 H   0  0  0  0  0  0  0  0  0  0  0  0
    2.5020   -1.5563   -1.0389 H   0  0  0  0  0  0  0  0  0  0  0  0
    1.2638   -1.6709    0.9003 H   0  0  0  0  0  0  0  0  0  0  0  0
    1.4109   -0.0326    2.5505 H   0  0  0  0  0  0  0  0  0  0  0  0
  1  2  1  0
  2  3  1  0
  3  4  1  0
  3  5  1  0
  5  6  1  0
  6  7  1  0
  6  8  1  0
  8  9  1  0
  8  5  1  0
  1 10  1  0
  2 11  1  0
  2 12  1  0
  3 13  1  0
  4 14  1  0
  5 15  1  0
  6 16  1  0
  7 17  1  0
  8 18  1  0
  9 19  1  0
M  END
