
     RDKit          3D

 21 20  0  0  0  0  0  0  0  0999 V2000
    2.5089   -0.2884   -1.0758 O   0  0  0  0  0  0  0  0  0  0  0  0
    1.7681    0.7803   -0.5803 C   0  0  0  0  0  0  0  0  0  0  0  0
    0.9199    0.3652    0.6073 C   0  0  0  0  0  0  0  0  0  0  0  0
    1.8071   -0.0994    1.5903 O   0  0  0  0  0  0  0  0  0  0  0  0
    0.0242   -0.7763    0.2443 C   0  0  0  0  0  0  0  0  0  0  0  0
   -0.9299   -0.4749   -0.8729 C   0  0  0  0  0  0  0  0  0  0  0  0
   -1.6902   -1.6355   -1.0883 O   0  0  0  0  0  0  0  0  0  0  0  0
   -1.8820    0.6345   -0.5902 C   0  0  0  0  0  0  0  0  0  0  0  0
   -2.6593    0.3746    0.5365 O   0  0  0  0  0  0  0  0  0  0  0  0
    3.3519   -0.3516   -0.5350 H   0  0  0  0  0  0  0  0  0  0  0  0
    2.4848    1.5715   -0.2851 H   0  0  0  0  0  0  0  0  0  0  0  0
    1.0712    1.0951   -1.3812 H   0  0  0  0  0  0  0  0  0  0  0  0
    0.4094    1.2295    1.0224 H   0  0  0  0  0  0  0  0  0  0  0  0
    1.7985   -1.0701    1.6873 H   0  0  0  0  0  0  0  0  0  0  0  0
    0.6872   -1.6068   -0.1198 H   0  0  0  0  0  0  0  0  0  0  0  0
   -0.4902   -1.1871    1.1354 H   0  0  0  0  0  0  0  0  0  0  0  0
   -0.4075   -0.2796   -1.8303 H   0  0  0  0  0  0  0  0  0  0  0  0
   -2.2825   -1.7026   -0.2786 H   0  0  0  0  0  0  0  0  0  0  0  0
   -1.3953    1.6355   -0.5272 H   0  0  0  0  0  0  0  0  0  0  0  0
   -2.5866    0.6996   -1.4457 H   0  0  0  0  0  0  0  0  0  0  0  0
   -2.5077    1.0864    1.2064 H   0  0  0  0  0  0  0  0  0  0  0  0
  1  2  1  0
  2  3  1  0
  3  4  1  0
  3  5  1  0
  5  6  1  0
  6  7  1  0
  6  8  1  0
  8  9  1  0
  1 10  1  0
  2 11  1  0
  2 12  1  0
  3 13  1  0
  4 14  1  0
  5 15  1  0
  5 16  1  0
  6 17  1  0
  7 18  1  0
  8 19  1  0
  8 20  1  0
  9 21  1  0
M  END
