
     RDKit          3D

 21 21  0  0  0  0  0  0  0  0999 V2000
    2.6432   -0.9993   -0.1178 O   0  0  0  0  0  0  0  0  0  0  0  0
    1.2862   -1.2250   -0.3579 C   0  0  0  0  0  0  0  0  0  0  0  0
    0.5492   -0.3313    0.6597 C   0  0  0  0  0  0  0  0  0  0  0  0
    0.9801    1.0542    0.3514 C   0  0  0  0  0  0  0  0  0  0  0  0
    0.4637    2.0539    1.1312 O   0  0  0  0  0  0  0  0  0  0  0  0
   -0.8807   -0.6707    0.5293 C   0  0  0  0  0  0  0  0  0  0  0  0
   -1.5287   -0.4628   -0.8091 C   0  0  0  0  0  0  0  0  0  0  0  0
   -2.0091    0.2392    0.4604 C   0  0  0  0  0  0  0  0  0  0  0  0
   -1.9764    1.6004    0.3476 O   0  0  0  0  0  0  0  0  0  0  0  0
    3.2113   -1.7436   -0.3752 H   0  0  0  0  0  0  0  0  0  0  0  0
    1.0333   -0.8267   -1.3668 H   0  0  0  0  0  0  0  0  0  0  0  0
    0.9903   -2.2654   -0.2647 H   0  0  0  0  0  0  0  0  0  0  0  0
    0.9372   -0.6575    1.6450 H   0  0  0  0  0  0  0  0  0  0  0  0
    0.8850    1.2668   -0.7435 H   0  0  0  0  0  0  0  0  0  0  0  0
    2.1001    1.0735    0.5216 H   0  0  0  0  0  0  0  0  0  0  0  0
    1.0475    2.8399    1.1510 H   0  0  0  0  0  0  0  0  0  0  0  0
   -1.1099   -1.6736    1.0120 H   0  0  0  0  0  0  0  0  0  0  0  0
   -2.1391   -1.2925   -1.2069 H   0  0  0  0  0  0  0  0  0  0  0  0
   -1.0215    0.1182   -1.5909 H   0  0  0  0  0  0  0  0  0  0  0  0
   -3.0194   -0.1210    0.8196 H   0  0  0  0  0  0  0  0  0  0  0  0
   -2.4424    2.0232    1.1132 H   0  0  0  0  0  0  0  0  0  0  0  0
  1  2  1  0
  2  3  1  0
  3  4  1  0
  4  5  1  0
  3  6  1  0
  6  7  1  0
  7  8  1  0
  8  9  1  0
  8  6  1  0
  1 10  1  0
  2 11  1  0
  2 12  1  0
  3 13  1  0
  4 14  1  0
  4 15  1  0
  5 16  1  0
  6 17  1  0
  7 18  1  0
  7 19  1  0
  8 20  1  0
  9 21  1  0
M  END
