
     RDKit          3D

 21 22  0  0  0  0  0  0  0  0999 V2000
    3.5500   -0.0552   -0.3871 O   0  0  0  0  0  0  0  0  0  0  0  0
    2.3597   -0.1564    0.3328 C   0  0  0  0  0  0  0  0  0  0  0  0
    1.1819    0.3455   -0.4751 C   0  0  0  0  0  0  0  0  0  0  0  0
    1.4380    1.6849   -0.7810 O   0  0  0  0  0  0  0  0  0  0  0  0
   -0.0355    0.2864    0.4523 C   0  0  0  0  0  0  0  0  0  0  0  0
   -1.3441    0.6861    0.0324 C   0  0  0  0  0  0  0  0  0  0  0  0
   -2.6788   -0.0298    0.2716 C   0  0  0  0  0  0  0  0  0  0  0  0
   -2.0262   -0.9641   -0.7716 C   0  0  0  0  0  0  0  0  0  0  0  0
   -0.8908   -0.8254    0.2420 C   0  0  0  0  0  0  0  0  0  0  0  0
    4.2726   -0.3366    0.2222 H   0  0  0  0  0  0  0  0  0  0  0  0
    2.4469    0.5390    1.2135 H   0  0  0  0  0  0  0  0  0  0  0  0
    2.1922   -1.2034    0.6949 H   0  0  0  0  0  0  0  0  0  0  0  0
    1.0256   -0.2300   -1.3929 H   0  0  0  0  0  0  0  0  0  0  0  0
    1.4600    2.2205    0.0502 H   0  0  0  0  0  0  0  0  0  0  0  0
    0.2571    0.6285    1.4902 H   0  0  0  0  0  0  0  0  0  0  0  0
   -1.3561    0.9982   -1.0617 H   0  0  0  0  0  0  0  0  0  0  0  0
   -2.7244   -0.4321    1.2797 H   0  0  0  0  0  0  0  0  0  0  0  0
   -3.5176    0.5492   -0.1007 H   0  0  0  0  0  0  0  0  0  0  0  0
   -1.8798   -0.4517   -1.7205 H   0  0  0  0  0  0  0  0  0  0  0  0
   -2.4450   -1.9697   -0.7967 H   0  0  0  0  0  0  0  0  0  0  0  0
   -1.2855   -1.2838    1.2055 H   0  0  0  0  0  0  0  0  0  0  0  0
  1  2  1  0
  2  3  1  0
  3  4  1  0
  3  5  1  0
  5  6  1  0
  6  7  1  0
  7  8  1  0
  8  9  1  0
  9  5  1  0
  9  6  1  0
  1 10  1  0
  2 11  1  0
  2 12  1  0
  3 13  1  0
  4 14  1  0
  5 15  1  0
  6 16  1  0
  7 17  1  0
  7 18  1  0
  8 19  1  0
  8 20  1  0
  9 21  1  0
M  END
