
     RDKit          3D

 18 18  0  0  0  0  0  0  0  0999 V2000
    2.9557    0.2616   -0.7283 O   0  0  0  0  0  0  0  0  0  0  0  0
    1.8721    0.4886    0.1537 C   0  0  0  0  0  0  0  0  0  0  0  0
    0.6795   -0.1860   -0.4745 C   0  0  0  0  0  0  0  0  0  0  0  0
    0.8956   -1.5535   -0.6356 O   0  0  0  0  0  0  0  0  0  0  0  0
   -0.5791   -0.0179    0.3338 C   0  0  0  0  0  0  0  0  0  0  0  0
   -1.7865   -0.7165   -0.3284 C   0  0  0  0  0  0  0  0  0  0  0  0
   -1.7204    0.7684   -0.1087 C   0  0  0  0  0  0  0  0  0  0  0  0
   -2.6085    1.2044    0.8842 O   0  0  0  0  0  0  0  0  0  0  0  0
    3.6974   -0.1847   -0.2742 H   0  0  0  0  0  0  0  0  0  0  0  0
    1.7445    1.5902    0.1682 H   0  0  0  0  0  0  0  0  0  0  0  0
    2.0870    0.1616    1.1684 H   0  0  0  0  0  0  0  0  0  0  0  0
    0.5308    0.2526   -1.4820 H   0  0  0  0  0  0  0  0  0  0  0  0
    0.6013   -2.0758    0.1556 H   0  0  0  0  0  0  0  0  0  0  0  0
   -0.4579   -0.2245    1.4155 H   0  0  0  0  0  0  0  0  0  0  0  0
   -2.4059   -1.3544    0.3417 H   0  0  0  0  0  0  0  0  0  0  0  0
   -1.6882   -1.1089   -1.3372 H   0  0  0  0  0  0  0  0  0  0  0  0
   -1.7057    1.4511   -0.9825 H   0  0  0  0  0  0  0  0  0  0  0  0
   -2.1117    1.2438    1.7303 H   0  0  0  0  0  0  0  0  0  0  0  0
  1  2  1  0
  2  3  1  0
  3  4  1  0
  3  5  1  0
  5  6  1  0
  6  7  1  0
  7  8  1  0
  7  5  1  0
  1  9  1  0
  2 10  1  0
  2 11  1  0
  3 12  1  0
  4 13  1  0
  5 14  1  0
  6 15  1  0
  6 16  1  0
  7 17  1  0
  8 18  1  0
M  END
