
     RDKit          3D

 21 21  0  0  0  0  0  0  0  0999 V2000
    1.7300    1.3252   -0.7654 O   0  0  0  0  0  0  0  0  0  0  0  0
    2.0356    0.1944   -0.0289 C   0  0  0  0  0  0  0  0  0  0  0  0
    0.8800   -0.8079   -0.1673 C   0  0  0  0  0  0  0  0  0  0  0  0
    1.1969   -1.9419    0.5771 O   0  0  0  0  0  0  0  0  0  0  0  0
   -0.3394   -0.1205    0.3871 C   0  0  0  0  0  0  0  0  0  0  0  0
   -0.2141    0.3078    1.6945 O   0  0  0  0  0  0  0  0  0  0  0  0
   -1.6523   -0.8529    0.0906 C   0  0  0  0  0  0  0  0  0  0  0  0
   -2.2711    0.5512    0.0189 C   0  0  0  0  0  0  0  0  0  0  0  0
   -0.8855    0.9959   -0.4785 C   0  0  0  0  0  0  0  0  0  0  0  0
    2.1619    2.1434   -0.3823 H   0  0  0  0  0  0  0  0  0  0  0  0
    2.0628    0.4897    1.0571 H   0  0  0  0  0  0  0  0  0  0  0  0
    2.9982   -0.2676   -0.3032 H   0  0  0  0  0  0  0  0  0  0  0  0
    0.7371   -1.0154   -1.2295 H   0  0  0  0  0  0  0  0  0  0  0  0
    2.1791   -2.0693    0.6239 H   0  0  0  0  0  0  0  0  0  0  0  0
   -0.0231   -0.4744    2.2844 H   0  0  0  0  0  0  0  0  0  0  0  0
   -2.0162   -1.4695    0.9138 H   0  0  0  0  0  0  0  0  0  0  0  0
   -1.5647   -1.3406   -0.9020 H   0  0  0  0  0  0  0  0  0  0  0  0
   -3.0737    0.6586   -0.7143 H   0  0  0  0  0  0  0  0  0  0  0  0
   -2.4814    0.8753    1.0548 H   0  0  0  0  0  0  0  0  0  0  0  0
   -0.6447    2.0143   -0.1518 H   0  0  0  0  0  0  0  0  0  0  0  0
   -0.8155    0.8040   -1.5739 H   0  0  0  0  0  0  0  0  0  0  0  0
  1  2  1  0
  2  3  1  0
  3  4  1  0
  3  5  1  0
  5  6  1  0
  5  7  1  0
  7  8  1  0
  8  9  1  0
  9  5  1  0
  1 10  1  0
  2 11  1  0
  2 12  1  0
  3 13  1  0
  4 14  1  0
  6 15  1  0
  7 16  1  0
  7 17  1  0
  8 18  1  0
  8 19  1  0
  9 20  1  0
  9 21  1  0
M  END
