
     RDKit          3D

 18 17  0  0  0  0  0  0  0  0999 V2000
    1.1642   -1.6389    0.6673 O   0  0  0  0  0  0  0  0  0  0  0  0
    0.4067   -1.3169   -0.4651 C   0  0  0  0  0  0  0  0  0  0  0  0
   -0.1750    0.0575   -0.2175 C   0  0  0  0  0  0  0  0  0  0  0  0
   -0.9604    0.4848   -1.2989 O   0  0  0  0  0  0  0  0  0  0  0  0
    0.9547    1.0148   -0.0717 C   0  0  0  0  0  0  0  0  0  0  0  0
    0.5418    2.3240    0.1730 O   0  0  0  0  0  0  0  0  0  0  0  0
   -1.0903    0.0346    0.9898 C   0  0  0  0  0  0  0  0  0  0  0  0
   -2.1622   -0.8354    0.8046 O   0  0  0  0  0  0  0  0  0  0  0  0
    2.1205   -1.4080    0.5595 H   0  0  0  0  0  0  0  0  0  0  0  0
   -0.3907   -2.0575   -0.6515 H   0  0  0  0  0  0  0  0  0  0  0  0
    1.0970   -1.2097   -1.3353 H   0  0  0  0  0  0  0  0  0  0  0  0
   -1.2171   -0.2713   -1.8622 H   0  0  0  0  0  0  0  0  0  0  0  0
    1.5117    1.0392   -1.0312 H   0  0  0  0  0  0  0  0  0  0  0  0
    1.6861    0.7091    0.7018 H   0  0  0  0  0  0  0  0  0  0  0  0
    1.3065    2.9067   -0.0918 H   0  0  0  0  0  0  0  0  0  0  0  0
   -1.4919    1.0271    1.1895 H   0  0  0  0  0  0  0  0  0  0  0  0
   -0.5616   -0.3225    1.9075 H   0  0  0  0  0  0  0  0  0  0  0  0
   -2.7399   -0.5378    0.0323 H   0  0  0  0  0  0  0  0  0  0  0  0
  1  2  1  0
  2  3  1  0
  3  4  1  0
  3  5  1  0
  5  6  1  0
  3  7  1  0
  7  8  1  0
  1  9  1  0
  2 10  1  0
  2 11  1  0
  4 12  1  0
  5 13  1  0
  5 14  1  0
  6 15  1  0
  7 16  1  0
  7 17  1  0
  8 18  1  0
M  END
