
     RDKit          3D

 21 21  0  0  0  0  0  0  0  0999 V2000
    2.0608   -0.4948    1.2877 O   0  0  0  0  0  0  0  0  0  0  0  0
    1.8730   -0.7311   -0.0746 C   0  0  0  0  0  0  0  0  0  0  0  0
    0.8791    0.2589   -0.6027 C   0  0  0  0  0  0  0  0  0  0  0  0
    0.6766    0.0372   -1.9710 O   0  0  0  0  0  0  0  0  0  0  0  0
   -0.4448    0.2071    0.1097 C   0  0  0  0  0  0  0  0  0  0  0  0
   -1.2617   -1.0349    0.1217 C   0  0  0  0  0  0  0  0  0  0  0  0
   -1.6268   -1.4583   -1.1572 O   0  0  0  0  0  0  0  0  0  0  0  0
   -0.6116    1.1278    1.2828 C   0  0  0  0  0  0  0  0  0  0  0  0
   -1.2362    1.5094   -0.0114 C   0  0  0  0  0  0  0  0  0  0  0  0
    2.8234   -1.0457    1.6453 H   0  0  0  0  0  0  0  0  0  0  0  0
    2.8515   -0.5031   -0.5607 H   0  0  0  0  0  0  0  0  0  0  0  0
    1.6093   -1.7725   -0.2981 H   0  0  0  0  0  0  0  0  0  0  0  0
    1.3022    1.2784   -0.5110 H   0  0  0  0  0  0  0  0  0  0  0  0
    0.8893    0.8325   -2.5188 H   0  0  0  0  0  0  0  0  0  0  0  0
   -0.7850   -1.8826    0.6761 H   0  0  0  0  0  0  0  0  0  0  0  0
   -2.2022   -0.8170    0.6807 H   0  0  0  0  0  0  0  0  0  0  0  0
   -2.5578   -1.8460   -1.1637 H   0  0  0  0  0  0  0  0  0  0  0  0
   -1.2669    0.8355    2.1297 H   0  0  0  0  0  0  0  0  0  0  0  0
    0.2401    1.7642    1.6104 H   0  0  0  0  0  0  0  0  0  0  0  0
   -2.3573    1.4210   -0.0339 H   0  0  0  0  0  0  0  0  0  0  0  0
   -0.8548    2.3139   -0.6409 H   0  0  0  0  0  0  0  0  0  0  0  0
  1  2  1  0
  2  3  1  0
  3  4  1  0
  3  5  1  0
  5  6  1  0
  6  7  1  0
  5  8  1  0
  8  9  1  0
  9  5  1  0
  1 10  1  0
  2 11  1  0
  2 12  1  0
  3 13  1  0
  4 14  1  0
  6 15  1  0
  6 16  1  0
  7 17  1  0
  8 18  1  0
  8 19  1  0
  9 20  1  0
  9 21  1  0
M  END
