
     RDKit          3D

 19 19  0  0  0  0  0  0  0  0999 V2000
   -3.7877   -0.1462   -0.8244 O   0  0  0  0  0  0  0  0  0  0  0  0
   -2.3943   -0.3216   -0.7788 C   0  0  0  0  0  0  0  0  0  0  0  0
   -1.9294   -0.0288    0.6154 C   0  0  0  0  0  0  0  0  0  0  0  0
   -2.2497    1.2887    0.9705 O   0  0  0  0  0  0  0  0  0  0  0  0
   -0.4746   -0.1817    0.6873 C   0  0  0  0  0  0  0  0  0  0  0  0
    0.7429   -0.2971    0.7361 C   0  0  0  0  0  0  0  0  0  0  0  0
    2.2009   -0.4097    0.7936 C   0  0  0  0  0  0  0  0  0  0  0  0
    2.8991   -0.6573   -0.4658 C   0  0  0  0  0  0  0  0  0  0  0  0
    3.0411    0.6928    0.2104 C   0  0  0  0  0  0  0  0  0  0  0  0
   -4.0394    0.7847   -0.9894 H   0  0  0  0  0  0  0  0  0  0  0  0
   -2.1775   -1.3735   -1.0284 H   0  0  0  0  0  0  0  0  0  0  0  0
   -1.8750    0.4008   -1.4581 H   0  0  0  0  0  0  0  0  0  0  0  0
   -2.4342   -0.7578    1.2905 H   0  0  0  0  0  0  0  0  0  0  0  0
   -2.9259    1.3223    1.6856 H   0  0  0  0  0  0  0  0  0  0  0  0
    2.6442   -0.8851    1.7076 H   0  0  0  0  0  0  0  0  0  0  0  0
    2.3678   -0.7088   -1.4505 H   0  0  0  0  0  0  0  0  0  0  0  0
    3.8573   -1.2441   -0.4360 H   0  0  0  0  0  0  0  0  0  0  0  0
    2.5392    1.5516   -0.2991 H   0  0  0  0  0  0  0  0  0  0  0  0
    3.9952    0.9708    0.6851 H   0  0  0  0  0  0  0  0  0  0  0  0
  1  2  1  0
  2  3  1  0
  3  4  1  0
  3  5  1  0
  5  6  3  0
  6  7  1  0
  7  8  1  0
  8  9  1  0
  9  7  1  0
  1 10  1  0
  2 11  1  0
  2 12  1  0
  3 13  1  0
  4 14  1  0
  7 15  1  0
  8 16  1  0
  8 17  1  0
  9 18  1  0
  9 19  1  0
M  END
