
     RDKit          3D

 21 21  0  0  0  0  0  0  0  0999 V2000
   -1.5088    1.1926   -0.9072 O   0  0  0  0  0  0  0  0  0  0  0  0
   -2.2846    0.2750   -0.2018 C   0  0  0  0  0  0  0  0  0  0  0  0
   -1.4021   -0.4361    0.8293 C   0  0  0  0  0  0  0  0  0  0  0  0
   -0.9116    0.5370    1.6586 O   0  0  0  0  0  0  0  0  0  0  0  0
   -0.4390   -1.3643    0.2051 C   0  0  0  0  0  0  0  0  0  0  0  0
    0.5260   -0.8639   -0.6063 O   0  0  0  0  0  0  0  0  0  0  0  0
    1.3979   -0.0180    0.0193 C   0  0  0  0  0  0  0  0  0  0  0  0
    2.8557   -0.2421   -0.4222 C   0  0  0  0  0  0  0  0  0  0  0  0
    2.1301    1.0453   -0.7054 C   0  0  0  0  0  0  0  0  0  0  0  0
   -1.9578    1.4132   -1.7720 H   0  0  0  0  0  0  0  0  0  0  0  0
   -3.0905    0.7726    0.3518 H   0  0  0  0  0  0  0  0  0  0  0  0
   -2.7140   -0.4672   -0.9077 H   0  0  0  0  0  0  0  0  0  0  0  0
   -2.0946   -1.0625    1.4705 H   0  0  0  0  0  0  0  0  0  0  0  0
   -1.6860    1.0571    1.9920 H   0  0  0  0  0  0  0  0  0  0  0  0
    0.0355   -1.9641    1.0382 H   0  0  0  0  0  0  0  0  0  0  0  0
   -1.0518   -2.0738   -0.4343 H   0  0  0  0  0  0  0  0  0  0  0  0
    1.2370    0.1381    1.0982 H   0  0  0  0  0  0  0  0  0  0  0  0
    3.0374   -0.8465   -1.3391 H   0  0  0  0  0  0  0  0  0  0  0  0
    3.5742   -0.3031    0.4006 H   0  0  0  0  0  0  0  0  0  0  0  0
    2.4932    1.9015   -0.1131 H   0  0  0  0  0  0  0  0  0  0  0  0
    1.8539    1.3090   -1.7446 H   0  0  0  0  0  0  0  0  0  0  0  0
  1  2  1  0
  2  3  1  0
  3  4  1  0
  3  5  1  0
  5  6  1  0
  6  7  1  0
  7  8  1  0
  8  9  1  0
  9  7  1  0
  1 10  1  0
  2 11  1  0
  2 12  1  0
  3 13  1  0
  4 14  1  0
  5 15  1  0
  5 16  1  0
  7 17  1  0
  8 18  1  0
  8 19  1  0
  9 20  1  0
  9 21  1  0
M  END
