
     RDKit          3D

 21 21  0  0  0  0  0  0  0  0999 V2000
   -3.5288   -0.4503   -0.0284 O   0  0  0  0  0  0  0  0  0  0  0  0
   -2.1783   -0.8541   -0.0569 C   0  0  0  0  0  0  0  0  0  0  0  0
   -1.3631    0.3892   -0.2697 C   0  0  0  0  0  0  0  0  0  0  0  0
   -1.6447    1.2427    0.8229 O   0  0  0  0  0  0  0  0  0  0  0  0
    0.1014    0.1074   -0.2096 C   0  0  0  0  0  0  0  0  0  0  0  0
    0.7165   -1.0527   -0.0012 C   0  0  0  0  0  0  0  0  0  0  0  0
    2.1867   -0.8476   -0.0266 C   0  0  0  0  0  0  0  0  0  0  0  0
    2.2900    0.6014    0.4042 C   0  0  0  0  0  0  0  0  0  0  0  0
    1.1203    1.1909   -0.3927 C   0  0  0  0  0  0  0  0  0  0  0  0
   -3.6790    0.2935   -0.6939 H   0  0  0  0  0  0  0  0  0  0  0  0
   -1.9588   -1.3105    0.9323 H   0  0  0  0  0  0  0  0  0  0  0  0
   -2.0289   -1.6177   -0.8382 H   0  0  0  0  0  0  0  0  0  0  0  0
   -1.6575    0.8793   -1.2066 H   0  0  0  0  0  0  0  0  0  0  0  0
   -1.4777    0.6622    1.6324 H   0  0  0  0  0  0  0  0  0  0  0  0
    0.2417   -2.0120    0.1641 H   0  0  0  0  0  0  0  0  0  0  0  0
    2.5796   -0.8972   -1.0609 H   0  0  0  0  0  0  0  0  0  0  0  0
    2.7347   -1.5262    0.6510 H   0  0  0  0  0  0  0  0  0  0  0  0
    2.0706    0.7385    1.4839 H   0  0  0  0  0  0  0  0  0  0  0  0
    3.2431    1.0722    0.1006 H   0  0  0  0  0  0  0  0  0  0  0  0
    1.4204    1.2491   -1.4550 H   0  0  0  0  0  0  0  0  0  0  0  0
    0.8119    2.1418    0.0482 H   0  0  0  0  0  0  0  0  0  0  0  0
  1  2  1  0
  2  3  1  0
  3  4  1  0
  3  5  1  0
  5  6  2  0
  6  7  1  0
  7  8  1  0
  8  9  1  0
  9  5  1  0
  1 10  1  0
  2 11  1  0
  2 12  1  0
  3 13  1  0
  4 14  1  0
  6 15  1  0
  7 16  1  0
  7 17  1  0
  8 18  1  0
  8 19  1  0
  9 20  1  0
  9 21  1  0
M  END
