
     RDKit          3D

 19 19  0  0  0  0  0  0  0  0999 V2000
    3.2564   -0.7106    0.2107 O   0  0  0  0  0  0  0  0  0  0  0  0
    1.9006   -0.9856    0.0571 C   0  0  0  0  0  0  0  0  0  0  0  0
    1.0802    0.2724   -0.0709 C   0  0  0  0  0  0  0  0  0  0  0  0
    1.2428    1.0440    1.0767 O   0  0  0  0  0  0  0  0  0  0  0  0
   -0.3737   -0.0300   -0.3292 C   0  0  0  0  0  0  0  0  0  0  0  0
   -1.2059    1.2023   -0.3557 C   0  0  0  0  0  0  0  0  0  0  0  0
   -2.4097    0.8279    0.0611 C   0  0  0  0  0  0  0  0  0  0  0  0
   -2.3244   -0.6476    0.3485 C   0  0  0  0  0  0  0  0  0  0  0  0
   -0.9622   -0.7343    0.7230 O   0  0  0  0  0  0  0  0  0  0  0  0
    3.7260   -0.8114   -0.6429 H   0  0  0  0  0  0  0  0  0  0  0  0
    1.7965   -1.6249   -0.8420 H   0  0  0  0  0  0  0  0  0  0  0  0
    1.5507   -1.5449    0.9601 H   0  0  0  0  0  0  0  0  0  0  0  0
    1.4390    0.8829   -0.9254 H   0  0  0  0  0  0  0  0  0  0  0  0
    1.3998    1.9905    0.8727 H   0  0  0  0  0  0  0  0  0  0  0  0
   -0.5239   -0.6374   -1.2389 H   0  0  0  0  0  0  0  0  0  0  0  0
   -0.9243    2.2059   -0.6465 H   0  0  0  0  0  0  0  0  0  0  0  0
   -3.2614    1.4910    0.1602 H   0  0  0  0  0  0  0  0  0  0  0  0
   -2.9847   -0.9535    1.1603 H   0  0  0  0  0  0  0  0  0  0  0  0
   -2.4219   -1.2366   -0.5787 H   0  0  0  0  0  0  0  0  0  0  0  0
  1  2  1  0
  2  3  1  0
  3  4  1  0
  3  5  1  0
  5  6  1  0
  6  7  2  0
  7  8  1  0
  8  9  1  0
  9  5  1  0
  1 10  1  0
  2 11  1  0
  2 12  1  0
  3 13  1  0
  4 14  1  0
  5 15  1  0
  6 16  1  0
  7 17  1  0
  8 18  1  0
  8 19  1  0
M  END
