
     RDKit          3D

 23 23  0  0  0  0  0  0  0  0999 V2000
    2.7107   -0.8251    0.8189 O   0  0  0  0  0  0  0  0  0  0  0  0
    2.1674   -0.9084   -0.4522 C   0  0  0  0  0  0  0  0  0  0  0  0
    1.1658    0.1938   -0.7142 C   0  0  0  0  0  0  0  0  0  0  0  0
    1.8463    1.4058   -0.5769 O   0  0  0  0  0  0  0  0  0  0  0  0
    0.0322    0.1949    0.2663 C   0  0  0  0  0  0  0  0  0  0  0  0
   -0.7522   -1.0963    0.2465 C   0  0  0  0  0  0  0  0  0  0  0  0
   -2.1005   -0.7282   -0.3431 C   0  0  0  0  0  0  0  0  0  0  0  0
   -2.2666    0.6940    0.1986 C   0  0  0  0  0  0  0  0  0  0  0  0
   -0.9275    1.2929   -0.1382 C   0  0  0  0  0  0  0  0  0  0  0  0
    3.1244    0.0635    0.9800 H   0  0  0  0  0  0  0  0  0  0  0  0
    3.0127   -0.7366   -1.1721 H   0  0  0  0  0  0  0  0  0  0  0  0
    1.7654   -1.9091   -0.6182 H   0  0  0  0  0  0  0  0  0  0  0  0
    0.7575    0.1670   -1.7265 H   0  0  0  0  0  0  0  0  0  0  0  0
    2.2916    1.6695   -1.4295 H   0  0  0  0  0  0  0  0  0  0  0  0
    0.3638    0.4092    1.3004 H   0  0  0  0  0  0  0  0  0  0  0  0
   -0.9678   -1.4439    1.2934 H   0  0  0  0  0  0  0  0  0  0  0  0
   -0.2558   -1.9000   -0.2997 H   0  0  0  0  0  0  0  0  0  0  0  0
   -2.9080   -1.3961    0.0024 H   0  0  0  0  0  0  0  0  0  0  0  0
   -2.0730   -0.6821   -1.4376 H   0  0  0  0  0  0  0  0  0  0  0  0
   -3.1119    1.2032   -0.2663 H   0  0  0  0  0  0  0  0  0  0  0  0
   -2.3269    0.6474    1.3118 H   0  0  0  0  0  0  0  0  0  0  0  0
   -0.7301    2.2059    0.4492 H   0  0  0  0  0  0  0  0  0  0  0  0
   -0.8174    1.4787   -1.2355 H   0  0  0  0  0  0  0  0  0  0  0  0
  1  2  1  0
  2  3  1  0
  3  4  1  0
  3  5  1  0
  5  6  1  0
  6  7  1  0
  7  8  1  0
  8  9  1  0
  9  5  1  0
  1 10  1  0
  2 11  1  0
  2 12  1  0
  3 13  1  0
  4 14  1  0
  5 15  1  0
  6 16  1  0
  6 17  1  0
  7 18  1  0
  7 19  1  0
  8 20  1  0
  8 21  1  0
  9 22  1  0
  9 23  1  0
M  END
