
     RDKit          3D

 19 19  0  0  0  0  0  0  0  0999 V2000
    2.9583    0.2513   -0.8168 O   0  0  0  0  0  0  0  0  0  0  0  0
    1.6778   -0.2480   -0.9712 C   0  0  0  0  0  0  0  0  0  0  0  0
    0.8049    0.0792    0.2470 C   0  0  0  0  0  0  0  0  0  0  0  0
    0.6995    1.4408    0.4426 O   0  0  0  0  0  0  0  0  0  0  0  0
   -0.5281   -0.5834    0.0987 C   0  0  0  0  0  0  0  0  0  0  0  0
   -0.4474   -1.9702   -0.1016 O   0  0  0  0  0  0  0  0  0  0  0  0
   -1.5549   -0.1036    1.1351 C   0  0  0  0  0  0  0  0  0  0  0  0
   -1.7310    0.1254   -0.3238 C   0  0  0  0  0  0  0  0  0  0  0  0
   -1.6952    1.4252   -0.8413 O   0  0  0  0  0  0  0  0  0  0  0  0
    3.2335    0.0527    0.1192 H   0  0  0  0  0  0  0  0  0  0  0  0
    1.1606    0.1509   -1.8539 H   0  0  0  0  0  0  0  0  0  0  0  0
    1.7630   -1.3536   -1.0240 H   0  0  0  0  0  0  0  0  0  0  0  0
    1.3299   -0.3947    1.1186 H   0  0  0  0  0  0  0  0  0  0  0  0
    1.4700    1.8250    0.9411 H   0  0  0  0  0  0  0  0  0  0  0  0
   -1.2471   -2.2344   -0.6099 H   0  0  0  0  0  0  0  0  0  0  0  0
   -2.1294   -0.8709    1.6748 H   0  0  0  0  0  0  0  0  0  0  0  0
   -1.3257    0.7864    1.7308 H   0  0  0  0  0  0  0  0  0  0  0  0
   -2.5454   -0.4820   -0.8074 H   0  0  0  0  0  0  0  0  0  0  0  0
   -1.8933    2.1039   -0.1579 H   0  0  0  0  0  0  0  0  0  0  0  0
  1  2  1  0
  2  3  1  0
  3  4  1  0
  3  5  1  0
  5  6  1  0
  5  7  1  0
  7  8  1  0
  8  9  1  0
  8  5  1  0
  1 10  1  0
  2 11  1  0
  2 12  1  0
  3 13  1  0
  4 14  1  0
  6 15  1  0
  7 16  1  0
  7 17  1  0
  8 18  1  0
  9 19  1  0
M  END
