
     RDKit          3D

 19 19  0  0  0  0  0  0  0  0999 V2000
   -1.6710    1.5954   -0.6063 O   0  0  0  0  0  0  0  0  0  0  0  0
   -2.0190    0.3329   -0.1434 C   0  0  0  0  0  0  0  0  0  0  0  0
   -0.9489   -0.6772   -0.5280 C   0  0  0  0  0  0  0  0  0  0  0  0
   -1.3256   -1.9408   -0.0482 O   0  0  0  0  0  0  0  0  0  0  0  0
    0.3858   -0.2787   -0.0695 C   0  0  0  0  0  0  0  0  0  0  0  0
    1.4248   -0.0683   -0.8842 C   0  0  0  0  0  0  0  0  0  0  0  0
    2.5820    0.3150   -0.0424 C   0  0  0  0  0  0  0  0  0  0  0  0
    1.9552    0.9036    1.0562 O   0  0  0  0  0  0  0  0  0  0  0  0
    0.9161   -0.0201    1.2892 C   0  0  0  0  0  0  0  0  0  0  0  0
   -2.2923    2.2563   -0.1976 H   0  0  0  0  0  0  0  0  0  0  0  0
   -3.0038    0.0618   -0.5622 H   0  0  0  0  0  0  0  0  0  0  0  0
   -2.0924    0.3654    0.9508 H   0  0  0  0  0  0  0  0  0  0  0  0
   -0.9934   -0.7589   -1.6330 H   0  0  0  0  0  0  0  0  0  0  0  0
   -2.3110   -1.9236    0.0452 H   0  0  0  0  0  0  0  0  0  0  0  0
    1.4513   -0.1526   -1.9545 H   0  0  0  0  0  0  0  0  0  0  0  0
    3.1868    1.0354   -0.6082 H   0  0  0  0  0  0  0  0  0  0  0  0
    3.1341   -0.6008    0.2416 H   0  0  0  0  0  0  0  0  0  0  0  0
    0.2035    0.4640    1.9617 H   0  0  0  0  0  0  0  0  0  0  0  0
    1.4177   -0.9088    1.7327 H   0  0  0  0  0  0  0  0  0  0  0  0
  1  2  1  0
  2  3  1  0
  3  4  1  0
  3  5  1  0
  5  6  2  0
  6  7  1  0
  7  8  1  0
  8  9  1  0
  9  5  1  0
  1 10  1  0
  2 11  1  0
  2 12  1  0
  3 13  1  0
  4 14  1  0
  6 15  1  0
  7 16  1  0
  7 17  1  0
  9 18  1  0
  9 19  1  0
M  END
