
     RDKit          3D

 21 21  0  0  0  0  0  0  0  0999 V2000
    1.5566    1.7393   -0.3401 O   0  0  0  0  0  0  0  0  0  0  0  0
    2.0846    0.5152   -0.0525 C   0  0  0  0  0  0  0  0  0  0  0  0
    1.1939   -0.4571    0.6606 C   0  0  0  0  0  0  0  0  0  0  0  0
    2.0461   -1.5948    0.8653 O   0  0  0  0  0  0  0  0  0  0  0  0
    0.0067   -0.9247   -0.0781 C   0  0  0  0  0  0  0  0  0  0  0  0
   -1.0069    0.0568   -0.5239 C   0  0  0  0  0  0  0  0  0  0  0  0
   -0.6046    1.0496   -1.4048 O   0  0  0  0  0  0  0  0  0  0  0  0
   -2.1129    0.4742    0.4216 C   0  0  0  0  0  0  0  0  0  0  0  0
   -2.4284   -0.4286   -0.7892 C   0  0  0  0  0  0  0  0  0  0  0  0
    2.0748    2.1083   -1.1255 H   0  0  0  0  0  0  0  0  0  0  0  0
    2.5594    0.0314   -0.9579 H   0  0  0  0  0  0  0  0  0  0  0  0
    2.9633    0.6672    0.6505 H   0  0  0  0  0  0  0  0  0  0  0  0
    0.9784   -0.0357    1.6686 H   0  0  0  0  0  0  0  0  0  0  0  0
    2.1981   -1.9287   -0.0606 H   0  0  0  0  0  0  0  0  0  0  0  0
   -0.5432   -1.6807    0.5682 H   0  0  0  0  0  0  0  0  0  0  0  0
    0.3658   -1.5233   -0.9663 H   0  0  0  0  0  0  0  0  0  0  0  0
   -1.0569    1.8837   -1.1708 H   0  0  0  0  0  0  0  0  0  0  0  0
   -2.0647   -0.0028    1.4111 H   0  0  0  0  0  0  0  0  0  0  0  0
   -2.5263    1.5171    0.3286 H   0  0  0  0  0  0  0  0  0  0  0  0
   -2.6916   -1.4705   -0.5222 H   0  0  0  0  0  0  0  0  0  0  0  0
   -2.9918    0.0039   -1.6231 H   0  0  0  0  0  0  0  0  0  0  0  0
  1  2  1  0
  2  3  1  0
  3  4  1  0
  3  5  1  0
  5  6  1  0
  6  7  1  0
  6  8  1  0
  8  9  1  0
  9  6  1  0
  1 10  1  0
  2 11  1  0
  2 12  1  0
  3 13  1  0
  4 14  1  0
  5 15  1  0
  5 16  1  0
  7 17  1  0
  8 18  1  0
  8 19  1  0
  9 20  1  0
  9 21  1  0
M  END
