
     RDKit          3D

 21 22  0  0  0  0  0  0  0  0999 V2000
   -2.1182   -1.5982    0.0936 O   0  0  0  0  0  0  0  0  0  0  0  0
   -0.8592   -1.5506   -0.4781 C   0  0  0  0  0  0  0  0  0  0  0  0
   -0.0381   -0.4677    0.2373 C   0  0  0  0  0  0  0  0  0  0  0  0
    1.3406   -0.3693   -0.3407 C   0  0  0  0  0  0  0  0  0  0  0  0
    2.2634    0.6359    0.2484 C   0  0  0  0  0  0  0  0  0  0  0  0
    1.7504    0.7505   -1.1688 C   0  0  0  0  0  0  0  0  0  0  0  0
   -0.8046    0.8034    0.1873 C   0  0  0  0  0  0  0  0  0  0  0  0
   -2.1192    0.9776    0.7653 C   0  0  0  0  0  0  0  0  0  0  0  0
   -0.9170    1.5201    1.4516 O   0  0  0  0  0  0  0  0  0  0  0  0
   -2.0993   -2.0689    0.9688 H   0  0  0  0  0  0  0  0  0  0  0  0
   -0.3973   -2.5551   -0.3217 H   0  0  0  0  0  0  0  0  0  0  0  0
   -0.9508   -1.3601   -1.5469 H   0  0  0  0  0  0  0  0  0  0  0  0
    0.0941   -0.8624    1.2737 H   0  0  0  0  0  0  0  0  0  0  0  0
    1.7924   -1.3644   -0.6039 H   0  0  0  0  0  0  0  0  0  0  0  0
    1.8491    1.2944    1.0253 H   0  0  0  0  0  0  0  0  0  0  0  0
    3.3420    0.4563    0.3389 H   0  0  0  0  0  0  0  0  0  0  0  0
    1.2489    1.6937   -1.3543 H   0  0  0  0  0  0  0  0  0  0  0  0
    2.4978    0.5338   -1.9967 H   0  0  0  0  0  0  0  0  0  0  0  0
   -0.5789    1.4447   -0.6937 H   0  0  0  0  0  0  0  0  0  0  0  0
   -2.5734    0.2475    1.4564 H   0  0  0  0  0  0  0  0  0  0  0  0
   -2.7225    1.8387    0.4584 H   0  0  0  0  0  0  0  0  0  0  0  0
  1  2  1  0
  2  3  1  0
  3  4  1  0
  4  5  1  0
  5  6  1  0
  3  7  1  0
  7  8  1  0
  8  9  1  0
  6  4  1  0
  9  7  1  0
  1 10  1  0
  2 11  1  0
  2 12  1  0
  3 13  1  0
  4 14  1  0
  5 15  1  0
  5 16  1  0
  6 17  1  0
  6 18  1  0
  7 19  1  0
  8 20  1  0
  8 21  1  0
M  END
