
     RDKit          3D

 21 20  0  0  0  0  0  0  0  0999 V2000
   -3.1822   -0.3343   -0.3175 O   0  0  0  0  0  0  0  0  0  0  0  0
   -1.9450    0.1412   -0.7462 C   0  0  0  0  0  0  0  0  0  0  0  0
   -0.8570   -0.4634    0.1055 C   0  0  0  0  0  0  0  0  0  0  0  0
   -1.0546   -0.1087    1.4413 O   0  0  0  0  0  0  0  0  0  0  0  0
    0.5144   -0.1441   -0.3770 C   0  0  0  0  0  0  0  0  0  0  0  0
    1.5177   -0.7933    0.5404 C   0  0  0  0  0  0  0  0  0  0  0  0
    2.8271   -0.5283    0.1371 O   0  0  0  0  0  0  0  0  0  0  0  0
    0.7675    1.3282   -0.5596 C   0  0  0  0  0  0  0  0  0  0  0  0
    0.6230    2.0694    0.5855 O   0  0  0  0  0  0  0  0  0  0  0  0
   -3.0536   -1.0267    0.3679 H   0  0  0  0  0  0  0  0  0  0  0  0
   -1.7998   -0.2765   -1.7794 H   0  0  0  0  0  0  0  0  0  0  0  0
   -1.9545    1.2366   -0.7336 H   0  0  0  0  0  0  0  0  0  0  0  0
   -0.9832   -1.5659    0.0540 H   0  0  0  0  0  0  0  0  0  0  0  0
   -1.6365   -0.7760    1.8856 H   0  0  0  0  0  0  0  0  0  0  0  0
    0.6435   -0.6183   -1.3774 H   0  0  0  0  0  0  0  0  0  0  0  0
    1.3425   -1.8753    0.5536 H   0  0  0  0  0  0  0  0  0  0  0  0
    1.4357   -0.4363    1.5858 H   0  0  0  0  0  0  0  0  0  0  0  0
    3.2976   -1.3744   -0.0170 H   0  0  0  0  0  0  0  0  0  0  0  0
    1.8472    1.4222   -0.8728 H   0  0  0  0  0  0  0  0  0  0  0  0
    0.1727    1.6929   -1.4216 H   0  0  0  0  0  0  0  0  0  0  0  0
    1.4775    2.4310    0.9453 H   0  0  0  0  0  0  0  0  0  0  0  0
  1  2  1  0
  2  3  1  0
  3  4  1  0
  3  5  1  0
  5  6  1  0
  6  7  1  0
  5  8  1  0
  8  9  1  0
  1 10  1  0
  2 11  1  0
  2 12  1  0
  3 13  1  0
  4 14  1  0
  5 15  1  0
  6 16  1  0
  6 17  1  0
  7 18  1  0
  8 19  1  0
  8 20  1  0
  9 21  1  0
M  END
