
     RDKit          3D

 21 22  0  0  0  0  0  0  0  0999 V2000
    2.7389    0.4515    0.2746 O   0  0  0  0  0  0  0  0  0  0  0  0
    1.9276   -0.5840   -0.2446 C   0  0  0  0  0  0  0  0  0  0  0  0
    0.5391   -0.2366   -0.0425 C   0  0  0  0  0  0  0  0  0  0  0  0
   -0.0534    0.9924   -0.6298 C   0  0  0  0  0  0  0  0  0  0  0  0
   -1.4814    0.8856   -0.0529 C   0  0  0  0  0  0  0  0  0  0  0  0
   -2.4358    0.9735   -1.0266 O   0  0  0  0  0  0  0  0  0  0  0  0
   -1.3672   -0.4611    0.5937 C   0  0  0  0  0  0  0  0  0  0  0  0
   -0.5247   -1.2828   -0.3923 C   0  0  0  0  0  0  0  0  0  0  0  0
   -0.0425   -0.2987    1.3567 C   0  0  0  0  0  0  0  0  0  0  0  0
    3.6501    0.4235   -0.1086 H   0  0  0  0  0  0  0  0  0  0  0  0
    2.2511   -1.4918    0.3064 H   0  0  0  0  0  0  0  0  0  0  0  0
    2.2190   -0.7248   -1.2833 H   0  0  0  0  0  0  0  0  0  0  0  0
    0.4240    1.9365   -0.3249 H   0  0  0  0  0  0  0  0  0  0  0  0
   -0.1367    0.9318   -1.7482 H   0  0  0  0  0  0  0  0  0  0  0  0
   -1.5769    1.6479    0.7450 H   0  0  0  0  0  0  0  0  0  0  0  0
   -2.9720    1.8044   -0.9637 H   0  0  0  0  0  0  0  0  0  0  0  0
   -2.1764   -0.9256    1.0813 H   0  0  0  0  0  0  0  0  0  0  0  0
   -0.8737   -1.2632   -1.4242 H   0  0  0  0  0  0  0  0  0  0  0  0
   -0.3484   -2.2768    0.0477 H   0  0  0  0  0  0  0  0  0  0  0  0
    0.0064    0.6773    1.8844 H   0  0  0  0  0  0  0  0  0  0  0  0
    0.2330   -1.1791    1.9516 H   0  0  0  0  0  0  0  0  0  0  0  0
  1  2  1  0
  2  3  1  0
  3  4  1  0
  4  5  1  0
  5  6  1  0
  5  7  1  0
  7  8  1  0
  7  9  1  0
  8  3  1  0
  9  3  1  0
  1 10  1  0
  2 11  1  0
  2 12  1  0
  4 13  1  0
  4 14  1  0
  5 15  1  0
  6 16  1  0
  7 17  1  0
  8 18  1  0
  8 19  1  0
  9 20  1  0
  9 21  1  0
M  END
