
     RDKit          3D

 21 21  0  0  0  0  0  0  0  0999 V2000
    2.8623    1.4824    0.3330 O   0  0  0  0  0  0  0  0  0  0  0  0
    2.4879    0.2463   -0.2216 C   0  0  0  0  0  0  0  0  0  0  0  0
    1.1054   -0.0604    0.3312 C   0  0  0  0  0  0  0  0  0  0  0  0
    0.5669   -1.3724   -0.1459 C   0  0  0  0  0  0  0  0  0  0  0  0
   -0.8215   -0.9696   -0.6494 C   0  0  0  0  0  0  0  0  0  0  0  0
   -1.0187    0.2821    0.1917 C   0  0  0  0  0  0  0  0  0  0  0  0
   -2.2095    1.0782   -0.2414 C   0  0  0  0  0  0  0  0  0  0  0  0
   -3.3484    0.2987    0.0373 O   0  0  0  0  0  0  0  0  0  0  0  0
    0.1861    0.9237   -0.0206 O   0  0  0  0  0  0  0  0  0  0  0  0
    3.2796    1.2515    1.2229 H   0  0  0  0  0  0  0  0  0  0  0  0
    2.4992    0.3147   -1.3137 H   0  0  0  0  0  0  0  0  0  0  0  0
    3.1782   -0.5339    0.1051 H   0  0  0  0  0  0  0  0  0  0  0  0
    1.1530   -0.0831    1.4291 H   0  0  0  0  0  0  0  0  0  0  0  0
    0.3763   -2.0960    0.6863 H   0  0  0  0  0  0  0  0  0  0  0  0
    1.1604   -1.8590   -0.9223 H   0  0  0  0  0  0  0  0  0  0  0  0
   -1.5820   -1.7155   -0.4176 H   0  0  0  0  0  0  0  0  0  0  0  0
   -0.7420   -0.7280   -1.7295 H   0  0  0  0  0  0  0  0  0  0  0  0
   -1.0980   -0.0560    1.2413 H   0  0  0  0  0  0  0  0  0  0  0  0
   -2.1984    1.2731   -1.3065 H   0  0  0  0  0  0  0  0  0  0  0  0
   -2.2738    1.9763    0.3695 H   0  0  0  0  0  0  0  0  0  0  0  0
   -3.5629    0.3468    1.0210 H   0  0  0  0  0  0  0  0  0  0  0  0
  1  2  1  0
  2  3  1  0
  3  4  1  0
  4  5  1  0
  5  6  1  0
  6  7  1  0
  7  8  1  0
  6  9  1  0
  9  3  1  0
  1 10  1  0
  2 11  1  0
  2 12  1  0
  3 13  1  0
  4 14  1  0
  4 15  1  0
  5 16  1  0
  5 17  1  0
  6 18  1  0
  7 19  1  0
  7 20  1  0
  8 21  1  0
M  END
