
     RDKit          3D

 19 20  0  0  0  0  0  0  0  0999 V2000
    2.7597    0.1182   -0.1368 O   0  0  0  0  0  0  0  0  0  0  0  0
    1.9183   -0.1822    0.9493 C   0  0  0  0  0  0  0  0  0  0  0  0
    0.5421   -0.3215    0.3977 C   0  0  0  0  0  0  0  0  0  0  0  0
   -0.0876   -1.4686    0.5438 C   0  0  0  0  0  0  0  0  0  0  0  0
   -1.4794   -1.5428   -0.0374 C   0  0  0  0  0  0  0  0  0  0  0  0
   -2.1004   -0.3754    0.4508 O   0  0  0  0  0  0  0  0  0  0  0  0
   -1.5977    0.6636   -0.2827 C   0  0  0  0  0  0  0  0  0  0  0  0
   -0.9329    1.7912    0.4276 C   0  0  0  0  0  0  0  0  0  0  0  0
   -0.1030    0.7960   -0.3048 C   0  0  0  0  0  0  0  0  0  0  0  0
    3.4935    0.7239    0.1271 H   0  0  0  0  0  0  0  0  0  0  0  0
    2.2836   -1.1386    1.3767 H   0  0  0  0  0  0  0  0  0  0  0  0
    1.9905    0.5702    1.7503 H   0  0  0  0  0  0  0  0  0  0  0  0
    0.3492   -2.3209    1.0480 H   0  0  0  0  0  0  0  0  0  0  0  0
   -1.9606   -2.4517    0.3234 H   0  0  0  0  0  0  0  0  0  0  0  0
   -1.4035   -1.4424   -1.1223 H   0  0  0  0  0  0  0  0  0  0  0  0
   -2.0991    0.8645   -1.2549 H   0  0  0  0  0  0  0  0  0  0  0  0
   -0.9403    1.8319    1.5222 H   0  0  0  0  0  0  0  0  0  0  0  0
   -1.0068    2.7833   -0.0759 H   0  0  0  0  0  0  0  0  0  0  0  0
    0.3744    1.1015   -1.2791 H   0  0  0  0  0  0  0  0  0  0  0  0
  1  2  1  0
  2  3  1  0
  3  4  2  0
  4  5  1  0
  5  6  1  0
  6  7  1  0
  7  8  1  0
  8  9  1  0
  9  3  1  0
  9  7  1  0
  1 10  1  0
  2 11  1  0
  2 12  1  0
  4 13  1  0
  5 14  1  0
  5 15  1  0
  7 16  1  0
  8 17  1  0
  8 18  1  0
  9 19  1  0
M  END
