
     RDKit          3D

 19 20  0  0  0  0  0  0  0  0999 V2000
    2.5023   -0.1920   -1.2423 O   0  0  0  0  0  0  0  0  0  0  0  0
    1.7403   -0.5664   -0.1476 C   0  0  0  0  0  0  0  0  0  0  0  0
    0.3568   -0.0989   -0.1712 C   0  0  0  0  0  0  0  0  0  0  0  0
    0.1360    1.3752    0.0363 C   0  0  0  0  0  0  0  0  0  0  0  0
   -1.1911    1.4816    0.4914 O   0  0  0  0  0  0  0  0  0  0  0  0
   -1.7049    0.1929    0.5636 C   0  0  0  0  0  0  0  0  0  0  0  0
   -1.7642   -0.3590   -0.8275 C   0  0  0  0  0  0  0  0  0  0  0  0
   -0.4170   -0.5097   -1.2187 O   0  0  0  0  0  0  0  0  0  0  0  0
   -0.4598   -0.5754    1.0477 C   0  0  0  0  0  0  0  0  0  0  0  0
    3.3032    0.3502   -0.9606 H   0  0  0  0  0  0  0  0  0  0  0  0
    2.3101   -0.3171    0.7684 H   0  0  0  0  0  0  0  0  0  0  0  0
    1.7166   -1.6952   -0.1659 H   0  0  0  0  0  0  0  0  0  0  0  0
    0.3235    1.9890   -0.8462 H   0  0  0  0  0  0  0  0  0  0  0  0
    0.7638    1.7375    0.9027 H   0  0  0  0  0  0  0  0  0  0  0  0
   -2.5579    0.0707    1.1848 H   0  0  0  0  0  0  0  0  0  0  0  0
   -2.1778   -1.4071   -0.8369 H   0  0  0  0  0  0  0  0  0  0  0  0
   -2.2513    0.2976   -1.5548 H   0  0  0  0  0  0  0  0  0  0  0  0
   -0.6113   -1.6457    1.0482 H   0  0  0  0  0  0  0  0  0  0  0  0
   -0.0172   -0.1282    1.9285 H   0  0  0  0  0  0  0  0  0  0  0  0
  1  2  1  0
  2  3  1  0
  3  4  1  0
  4  5  1  0
  5  6  1  0
  6  7  1  0
  7  8  1  0
  6  9  1  0
  8  3  1  0
  9  3  1  0
  1 10  1  0
  2 11  1  0
  2 12  1  0
  4 13  1  0
  4 14  1  0
  6 15  1  0
  7 16  1  0
  7 17  1  0
  9 18  1  0
  9 19  1  0
M  END
