
     RDKit          3D

 21 22  0  0  0  0  0  0  0  0999 V2000
    2.9106   -0.1501    0.7485 O   0  0  0  0  0  0  0  0  0  0  0  0
    2.0327   -0.6000   -0.2528 C   0  0  0  0  0  0  0  0  0  0  0  0
    0.8778    0.3554   -0.2843 C   0  0  0  0  0  0  0  0  0  0  0  0
   -0.1211   -0.0942   -1.3717 C   0  0  0  0  0  0  0  0  0  0  0  0
   -1.3662   -0.1388   -0.5313 C   0  0  0  0  0  0  0  0  0  0  0  0
   -2.5462   -0.3978   -1.0708 O   0  0  0  0  0  0  0  0  0  0  0  0
   -1.2348    1.0737    0.4008 C   0  0  0  0  0  0  0  0  0  0  0  0
   -0.0125    0.2905    0.9046 C   0  0  0  0  0  0  0  0  0  0  0  0
   -0.8985   -0.9415    0.6725 C   0  0  0  0  0  0  0  0  0  0  0  0
    2.8759    0.8454    0.8283 H   0  0  0  0  0  0  0  0  0  0  0  0
    2.5192   -0.5696   -1.2535 H   0  0  0  0  0  0  0  0  0  0  0  0
    1.6629   -1.6075   -0.0592 H   0  0  0  0  0  0  0  0  0  0  0  0
    1.1824    1.4057   -0.4424 H   0  0  0  0  0  0  0  0  0  0  0  0
    0.1305   -1.1338   -1.6511 H   0  0  0  0  0  0  0  0  0  0  0  0
   -0.1558    0.6059   -2.2038 H   0  0  0  0  0  0  0  0  0  0  0  0
   -3.1951    0.3449   -0.8770 H   0  0  0  0  0  0  0  0  0  0  0  0
   -2.0625    1.1112    1.1163 H   0  0  0  0  0  0  0  0  0  0  0  0
   -0.9515    2.0032   -0.0860 H   0  0  0  0  0  0  0  0  0  0  0  0
    0.3297    0.4821    1.8837 H   0  0  0  0  0  0  0  0  0  0  0  0
   -0.3306   -1.8322    0.3846 H   0  0  0  0  0  0  0  0  0  0  0  0
   -1.6470   -1.0524    1.4687 H   0  0  0  0  0  0  0  0  0  0  0  0
  1  2  1  0
  2  3  1  0
  3  4  1  0
  4  5  1  0
  5  6  1  0
  5  7  1  0
  7  8  1  0
  8  9  1  0
  8  3  1  0
  9  5  1  0
  1 10  1  0
  2 11  1  0
  2 12  1  0
  3 13  1  0
  4 14  1  0
  4 15  1  0
  6 16  1  0
  7 17  1  0
  7 18  1  0
  8 19  1  0
  9 20  1  0
  9 21  1  0
M  END
