
     RDKit          3D

 18 19  0  0  0  0  0  0  0  0999 V2000
    2.6379    0.1721   -0.4331 O   0  0  0  0  0  0  0  0  0  0  0  0
    1.7792   -0.1851    0.6341 C   0  0  0  0  0  0  0  0  0  0  0  0
    0.4089   -0.1484    0.1601 C   0  0  0  0  0  0  0  0  0  0  0  0
   -0.1866    1.1884   -0.2477 C   0  0  0  0  0  0  0  0  0  0  0  0
   -1.5373    0.6457   -0.7657 C   0  0  0  0  0  0  0  0  0  0  0  0
   -1.2892   -0.8046   -0.4257 C   0  0  0  0  0  0  0  0  0  0  0  0
   -0.6956   -0.7574    0.9637 C   0  0  0  0  0  0  0  0  0  0  0  0
    0.0342   -0.9706   -0.8897 O   0  0  0  0  0  0  0  0  0  0  0  0
    2.4636   -0.4055   -1.2299 H   0  0  0  0  0  0  0  0  0  0  0  0
    2.0527   -1.2026    0.9694 H   0  0  0  0  0  0  0  0  0  0  0  0
    1.9821    0.5197    1.4331 H   0  0  0  0  0  0  0  0  0  0  0  0
   -0.3491    1.8251    0.6511 H   0  0  0  0  0  0  0  0  0  0  0  0
    0.3740    1.6832   -1.0466 H   0  0  0  0  0  0  0  0  0  0  0  0
   -1.5838    0.7259   -1.8696 H   0  0  0  0  0  0  0  0  0  0  0  0
   -2.3777    1.0905   -0.2381 H   0  0  0  0  0  0  0  0  0  0  0  0
   -2.0087   -1.5444   -0.6711 H   0  0  0  0  0  0  0  0  0  0  0  0
   -1.1637   -0.0648    1.6619 H   0  0  0  0  0  0  0  0  0  0  0  0
   -0.5409   -1.7672    1.3437 H   0  0  0  0  0  0  0  0  0  0  0  0
  1  2  1  0
  2  3  1  0
  3  4  1  0
  4  5  1  0
  5  6  1  0
  6  7  1  0
  6  8  1  0
  7  3  1  0
  8  3  1  0
  1  9  1  0
  2 10  1  0
  2 11  1  0
  4 12  1  0
  4 13  1  0
  5 14  1  0
  5 15  1  0
  6 16  1  0
  7 17  1  0
  7 18  1  0
M  END
