
     RDKit          3D

 21 22  0  0  0  0  0  0  0  0999 V2000
    1.9424   -1.6831    0.4419 O   0  0  0  0  0  0  0  0  0  0  0  0
    1.8610   -0.2984    0.3026 C   0  0  0  0  0  0  0  0  0  0  0  0
    0.6760    0.0704   -0.5582 C   0  0  0  0  0  0  0  0  0  0  0  0
    0.6142    1.5461   -0.6891 C   0  0  0  0  0  0  0  0  0  0  0  0
   -0.2389    2.0431    0.1984 C   0  0  0  0  0  0  0  0  0  0  0  0
   -0.8249    0.9074    1.0084 C   0  0  0  0  0  0  0  0  0  0  0  0
   -0.6334   -0.2354    0.0719 C   0  0  0  0  0  0  0  0  0  0  0  0
   -1.2070   -1.5530    0.2077 C   0  0  0  0  0  0  0  0  0  0  0  0
   -1.7918   -0.5891   -0.7876 C   0  0  0  0  0  0  0  0  0  0  0  0
    2.3867   -2.0212   -0.3786 H   0  0  0  0  0  0  0  0  0  0  0  0
    1.8144    0.1929    1.2999 H   0  0  0  0  0  0  0  0  0  0  0  0
    2.7891    0.0523   -0.1925 H   0  0  0  0  0  0  0  0  0  0  0  0
    0.7656   -0.4542   -1.5149 H   0  0  0  0  0  0  0  0  0  0  0  0
    1.1874    2.1124   -1.4076 H   0  0  0  0  0  0  0  0  0  0  0  0
   -0.5194    3.0571    0.3749 H   0  0  0  0  0  0  0  0  0  0  0  0
   -0.1713    0.8386    1.9090 H   0  0  0  0  0  0  0  0  0  0  0  0
   -1.8450    1.1029    1.3191 H   0  0  0  0  0  0  0  0  0  0  0  0
   -1.8380   -1.8537    1.0415 H   0  0  0  0  0  0  0  0  0  0  0  0
   -0.6122   -2.4092   -0.2196 H   0  0  0  0  0  0  0  0  0  0  0  0
   -1.5724   -0.6870   -1.8627 H   0  0  0  0  0  0  0  0  0  0  0  0
   -2.7824   -0.1388   -0.5644 H   0  0  0  0  0  0  0  0  0  0  0  0
  1  2  1  0
  2  3  1  0
  3  4  1  0
  4  5  2  0
  5  6  1  0
  6  7  1  0
  7  8  1  0
  8  9  1  0
  7  3  1  0
  9  7  1  0
  1 10  1  0
  2 11  1  0
  2 12  1  0
  3 13  1  0
  4 14  1  0
  5 15  1  0
  6 16  1  0
  6 17  1  0
  8 18  1  0
  8 19  1  0
  9 20  1  0
  9 21  1  0
M  END
