
     RDKit          3D

 21 22  0  0  0  0  0  0  0  0999 V2000
   -2.2929    1.2172   -0.1900 O   0  0  0  0  0  0  0  0  0  0  0  0
   -2.5008   -0.1695   -0.3105 C   0  0  0  0  0  0  0  0  0  0  0  0
   -1.1552   -0.8812   -0.5264 C   0  0  0  0  0  0  0  0  0  0  0  0
   -0.1147   -0.8023    0.4203 C   0  0  0  0  0  0  0  0  0  0  0  0
    0.4197    0.2611    1.2538 C   0  0  0  0  0  0  0  0  0  0  0  0
    1.5718    0.7956    0.7803 C   0  0  0  0  0  0  0  0  0  0  0  0
    2.2217    0.3409   -0.4632 C   0  0  0  0  0  0  0  0  0  0  0  0
    1.3064   -0.4149   -1.4138 C   0  0  0  0  0  0  0  0  0  0  0  0
   -0.0640   -0.1157   -0.9867 C   0  0  0  0  0  0  0  0  0  0  0  0
   -3.0795    1.6011    0.2721 H   0  0  0  0  0  0  0  0  0  0  0  0
   -3.1650   -0.3028   -1.1909 H   0  0  0  0  0  0  0  0  0  0  0  0
   -3.0017   -0.5960    0.5724 H   0  0  0  0  0  0  0  0  0  0  0  0
   -1.3553   -1.8753   -1.0205 H   0  0  0  0  0  0  0  0  0  0  0  0
    0.5219   -1.7301    0.5508 H   0  0  0  0  0  0  0  0  0  0  0  0
    0.0335    0.6655    2.1663 H   0  0  0  0  0  0  0  0  0  0  0  0
    2.0739    1.6027    1.3148 H   0  0  0  0  0  0  0  0  0  0  0  0
    2.5129    1.2778   -1.0251 H   0  0  0  0  0  0  0  0  0  0  0  0
    3.1746   -0.1976   -0.2929 H   0  0  0  0  0  0  0  0  0  0  0  0
    1.5542   -0.1783   -2.4543 H   0  0  0  0  0  0  0  0  0  0  0  0
    1.5654   -1.5037   -1.2644 H   0  0  0  0  0  0  0  0  0  0  0  0
   -0.2269    1.0057   -1.0085 H   0  0  0  0  0  0  0  0  0  0  0  0
  1  2  1  0
  2  3  1  0
  3  4  1  0
  4  5  1  0
  5  6  2  0
  6  7  1  0
  7  8  1  0
  8  9  1  0
  9  3  1  0
  9  4  1  0
  1 10  1  0
  2 11  1  0
  2 12  1  0
  3 13  1  0
  4 14  1  0
  5 15  1  0
  6 16  1  0
  7 17  1  0
  7 18  1  0
  8 19  1  0
  8 20  1  0
  9 21  1  0
M  END
