
     RDKit          3D

 21 23  0  0  0  0  0  0  0  0999 V2000
    2.9524   -0.6752    0.8840 O   0  0  0  0  0  0  0  0  0  0  0  0
    1.6375   -0.6610    1.3567 C   0  0  0  0  0  0  0  0  0  0  0  0
    0.8775    0.3741    0.5769 C   0  0  0  0  0  0  0  0  0  0  0  0
    0.8891    0.0297   -0.9241 C   0  0  0  0  0  0  0  0  0  0  0  0
   -0.5897    0.0507   -1.1943 C   0  0  0  0  0  0  0  0  0  0  0  0
   -1.1946   -0.7168   -0.0664 C   0  0  0  0  0  0  0  0  0  0  0  0
   -2.3755    0.2060   -0.1795 C   0  0  0  0  0  0  0  0  0  0  0  0
   -1.1857    1.1182   -0.3276 C   0  0  0  0  0  0  0  0  0  0  0  0
   -0.5976    0.3500    0.8144 C   0  0  0  0  0  0  0  0  0  0  0  0
    2.9309   -0.4604   -0.0821 H   0  0  0  0  0  0  0  0  0  0  0  0
    1.6834   -0.3225    2.4037 H   0  0  0  0  0  0  0  0  0  0  0  0
    1.1746   -1.6624    1.2497 H   0  0  0  0  0  0  0  0  0  0  0  0
    1.3269    1.3677    0.7601 H   0  0  0  0  0  0  0  0  0  0  0  0
    1.4224    0.7763   -1.5112 H   0  0  0  0  0  0  0  0  0  0  0  0
    1.2451   -0.9967   -1.0979 H   0  0  0  0  0  0  0  0  0  0  0  0
   -0.9464   -0.0851   -2.1924 H   0  0  0  0  0  0  0  0  0  0  0  0
   -1.1996   -1.7017    0.0941 H   0  0  0  0  0  0  0  0  0  0  0  0
   -2.8665    0.3159    0.7990 H   0  0  0  0  0  0  0  0  0  0  0  0
   -3.0070    0.1031   -1.0611 H   0  0  0  0  0  0  0  0  0  0  0  0
   -1.1917    2.1054   -0.4757 H   0  0  0  0  0  0  0  0  0  0  0  0
   -0.9855    0.4847    1.8014 H   0  0  0  0  0  0  0  0  0  0  0  0
  1  2  1  0
  2  3  1  0
  3  4  1  0
  4  5  1  0
  5  6  1  0
  6  7  1  0
  7  8  1  0
  8  9  1  0
  9  3  1  0
  8  5  1  0
  9  6  1  0
  1 10  1  0
  2 11  1  0
  2 12  1  0
  3 13  1  0
  4 14  1  0
  4 15  1  0
  5 16  1  0
  6 17  1  0
  7 18  1  0
  7 19  1  0
  8 20  1  0
  9 21  1  0
M  END
