
     RDKit          3D

 19 21  0  0  0  0  0  0  0  0999 V2000
    2.2532    0.7965   -0.9090 O   0  0  0  0  0  0  0  0  0  0  0  0
    2.1056   -0.3109   -0.1314 C   0  0  0  0  0  0  0  0  0  0  0  0
    0.7768   -0.6155    0.4243 C   0  0  0  0  0  0  0  0  0  0  0  0
   -0.3856   -0.8632   -0.4524 C   0  0  0  0  0  0  0  0  0  0  0  0
   -0.4846    0.5925   -0.6703 C   0  0  0  0  0  0  0  0  0  0  0  0
   -1.9569    0.8585   -0.6894 C   0  0  0  0  0  0  0  0  0  0  0  0
   -2.4149    0.0558    0.2718 C   0  0  0  0  0  0  0  0  0  0  0  0
   -1.2107   -0.5774    0.7886 C   0  0  0  0  0  0  0  0  0  0  0  0
   -0.1583    0.5114    0.7665 C   0  0  0  0  0  0  0  0  0  0  0  0
    2.9768    1.4180   -0.5837 H   0  0  0  0  0  0  0  0  0  0  0  0
    2.5442   -1.1904   -0.6851 H   0  0  0  0  0  0  0  0  0  0  0  0
    2.8117   -0.1960    0.7497 H   0  0  0  0  0  0  0  0  0  0  0  0
    0.8003   -1.3597    1.2872 H   0  0  0  0  0  0  0  0  0  0  0  0
   -0.5551   -1.6180   -1.0933 H   0  0  0  0  0  0  0  0  0  0  0  0
    0.1092    1.1196   -1.3820 H   0  0  0  0  0  0  0  0  0  0  0  0
   -2.5254    1.5393   -1.3281 H   0  0  0  0  0  0  0  0  0  0  0  0
   -3.4349   -0.1036    0.6058 H   0  0  0  0  0  0  0  0  0  0  0  0
   -1.2203   -1.2814    1.5788 H   0  0  0  0  0  0  0  0  0  0  0  0
   -0.0311    1.2245    1.4521 H   0  0  0  0  0  0  0  0  0  0  0  0
  1  2  1  0
  2  3  1  0
  3  4  1  0
  4  5  1  0
  5  6  1  0
  6  7  2  0
  7  8  1  0
  8  9  1  0
  9  3  1  0
  8  4  1  0
  9  5  1  0
  1 10  1  0
  2 11  1  0
  2 12  1  0
  3 13  1  0
  4 14  1  0
  5 15  1  0
  6 16  1  0
  7 17  1  0
  8 18  1  0
  9 19  1  0
M  END
