
     RDKit          3D

 17 18  0  0  0  0  0  0  0  0999 V2000
    2.3503   -0.1136    1.4237 O   0  0  0  0  0  0  0  0  0  0  0  0
    2.1261   -0.0543    0.0607 C   0  0  0  0  0  0  0  0  0  0  0  0
    0.6863   -0.0590   -0.2920 C   0  0  0  0  0  0  0  0  0  0  0  0
   -0.0010   -0.9514   -1.0494 C   0  0  0  0  0  0  0  0  0  0  0  0
   -1.3681   -0.3306   -1.0088 C   0  0  0  0  0  0  0  0  0  0  0  0
   -1.0337    1.0326   -1.1873 O   0  0  0  0  0  0  0  0  0  0  0  0
   -0.4018    0.8864    0.0690 C   0  0  0  0  0  0  0  0  0  0  0  0
   -1.5806    0.0197    0.4298 C   0  0  0  0  0  0  0  0  0  0  0  0
   -2.7421    0.7793    0.5697 O   0  0  0  0  0  0  0  0  0  0  0  0
    2.6678   -0.9968    1.7303 H   0  0  0  0  0  0  0  0  0  0  0  0
    2.6053    0.8897   -0.3228 H   0  0  0  0  0  0  0  0  0  0  0  0
    2.6838   -0.8769   -0.4256 H   0  0  0  0  0  0  0  0  0  0  0  0
    0.3481   -1.8472   -1.5358 H   0  0  0  0  0  0  0  0  0  0  0  0
   -2.1383   -0.7420   -1.5988 H   0  0  0  0  0  0  0  0  0  0  0  0
   -0.1876    1.7560    0.6266 H   0  0  0  0  0  0  0  0  0  0  0  0
   -1.4188   -0.7621    1.1674 H   0  0  0  0  0  0  0  0  0  0  0  0
   -2.5957    1.3705    1.3432 H   0  0  0  0  0  0  0  0  0  0  0  0
  1  2  1  0
  2  3  1  0
  3  4  2  0
  4  5  1  0
  5  6  1  0
  6  7  1  0
  7  8  1  0
  8  9  1  0
  7  3  1  0
  8  5  1  0
  1 10  1  0
  2 11  1  0
  2 12  1  0
  4 13  1  0
  5 14  1  0
  7 15  1  0
  8 16  1  0
  9 17  1  0
M  END
