
     RDKit          3D

 19 20  0  0  0  0  0  0  0  0999 V2000
    2.1176    0.8486    0.3627 O   0  0  0  0  0  0  0  0  0  0  0  0
    1.8281   -0.0506   -0.6604 C   0  0  0  0  0  0  0  0  0  0  0  0
    0.3891   -0.4684   -0.5205 C   0  0  0  0  0  0  0  0  0  0  0  0
   -0.5488    0.7244   -0.6222 C   0  0  0  0  0  0  0  0  0  0  0  0
   -0.0845    1.6821    0.2682 O   0  0  0  0  0  0  0  0  0  0  0  0
   -1.8464    0.1160   -0.1602 C   0  0  0  0  0  0  0  0  0  0  0  0
   -1.4043   -0.6725    1.0527 C   0  0  0  0  0  0  0  0  0  0  0  0
   -0.3920   -0.1939    1.8451 O   0  0  0  0  0  0  0  0  0  0  0  0
    0.0618   -1.0073    0.8321 C   0  0  0  0  0  0  0  0  0  0  0  0
    3.0606    0.7929    0.6075 H   0  0  0  0  0  0  0  0  0  0  0  0
    2.4470   -0.9555   -0.4619 H   0  0  0  0  0  0  0  0  0  0  0  0
    1.9867    0.3733   -1.6621 H   0  0  0  0  0  0  0  0  0  0  0  0
    0.0718   -1.1758   -1.3129 H   0  0  0  0  0  0  0  0  0  0  0  0
   -0.5471    1.0523   -1.6608 H   0  0  0  0  0  0  0  0  0  0  0  0
   -0.8047    2.3240    0.5245 H   0  0  0  0  0  0  0  0  0  0  0  0
   -2.6349    0.8340    0.0357 H   0  0  0  0  0  0  0  0  0  0  0  0
   -2.1269   -0.6536   -0.9350 H   0  0  0  0  0  0  0  0  0  0  0  0
   -2.0043   -1.5568    1.3500 H   0  0  0  0  0  0  0  0  0  0  0  0
    0.4312   -2.0132    1.1176 H   0  0  0  0  0  0  0  0  0  0  0  0
  1  2  1  0
  2  3  1  0
  3  4  1  0
  4  5  1  0
  4  6  1  0
  6  7  1  0
  7  8  1  0
  8  9  1  0
  9  3  1  0
  9  7  1  0
  1 10  1  0
  2 11  1  0
  2 12  1  0
  3 13  1  0
  4 14  1  0
  5 15  1  0
  6 16  1  0
  6 17  1  0
  7 18  1  0
  9 19  1  0
M  END
