
     RDKit          3D

 21 22  0  0  0  0  0  0  0  0999 V2000
    3.0603    0.2834   -1.0511 O   0  0  0  0  0  0  0  0  0  0  0  0
    1.7239    0.7417   -1.0533 C   0  0  0  0  0  0  0  0  0  0  0  0
    0.8563   -0.4153   -0.6973 C   0  0  0  0  0  0  0  0  0  0  0  0
    1.1506   -1.0127    0.6686 C   0  0  0  0  0  0  0  0  0  0  0  0
   -0.1389   -0.4139    0.3842 C   0  0  0  0  0  0  0  0  0  0  0  0
   -1.3664   -1.2669    0.2629 C   0  0  0  0  0  0  0  0  0  0  0  0
   -2.4221   -0.4798    0.1788 C   0  0  0  0  0  0  0  0  0  0  0  0
   -1.9958    0.9362    0.2348 C   0  0  0  0  0  0  0  0  0  0  0  0
   -0.6560    0.8740    0.9329 C   0  0  0  0  0  0  0  0  0  0  0  0
    3.1094   -0.4262   -0.3639 H   0  0  0  0  0  0  0  0  0  0  0  0
    1.4879    1.1966   -2.0359 H   0  0  0  0  0  0  0  0  0  0  0  0
    1.7083    1.5450   -0.2960 H   0  0  0  0  0  0  0  0  0  0  0  0
    0.6355   -1.1101   -1.5399 H   0  0  0  0  0  0  0  0  0  0  0  0
    1.9297   -0.5591    1.2881 H   0  0  0  0  0  0  0  0  0  0  0  0
    1.1750   -2.1404    0.7212 H   0  0  0  0  0  0  0  0  0  0  0  0
   -1.3782   -2.3521    0.2475 H   0  0  0  0  0  0  0  0  0  0  0  0
   -3.4673   -0.8375    0.0810 H   0  0  0  0  0  0  0  0  0  0  0  0
   -1.7979    1.2588   -0.8039 H   0  0  0  0  0  0  0  0  0  0  0  0
   -2.7188    1.5809    0.7609 H   0  0  0  0  0  0  0  0  0  0  0  0
   -0.0507    1.7677    0.6795 H   0  0  0  0  0  0  0  0  0  0  0  0
   -0.8449    0.8297    2.0324 H   0  0  0  0  0  0  0  0  0  0  0  0
  1  2  1  0
  2  3  1  0
  3  4  1  0
  4  5  1  0
  5  6  1  0
  6  7  2  0
  7  8  1  0
  8  9  1  0
  5  3  1  0
  9  5  1  0
  1 10  1  0
  2 11  1  0
  2 12  1  0
  3 13  1  0
  4 14  1  0
  4 15  1  0
  6 16  1  0
  7 17  1  0
  8 18  1  0
  8 19  1  0
  9 20  1  0
  9 21  1  0
M  END
