
     RDKit          3D

 17 18  0  0  0  0  0  0  0  0999 V2000
    2.2338   -0.9003   -0.2573 O   0  0  0  0  0  0  0  0  0  0  0  0
    1.5861    0.2282    0.2006 C   0  0  0  0  0  0  0  0  0  0  0  0
    0.1372   -0.0044    0.5188 C   0  0  0  0  0  0  0  0  0  0  0  0
   -0.1228   -0.9346    1.4723 O   0  0  0  0  0  0  0  0  0  0  0  0
   -0.7805   -0.0163   -0.7199 C   0  0  0  0  0  0  0  0  0  0  0  0
   -0.9989   -1.2537   -1.2570 O   0  0  0  0  0  0  0  0  0  0  0  0
   -1.7985    0.3573    0.3349 C   0  0  0  0  0  0  0  0  0  0  0  0
   -1.8834    1.4687    1.0412 O   0  0  0  0  0  0  0  0  0  0  0  0
   -0.6134    1.2930    0.7309 C   0  0  0  0  0  0  0  0  0  0  0  0
    3.0251   -0.6069   -0.7745 H   0  0  0  0  0  0  0  0  0  0  0  0
    2.0786    0.4997    1.1774 H   0  0  0  0  0  0  0  0  0  0  0  0
    1.7513    1.0400   -0.5055 H   0  0  0  0  0  0  0  0  0  0  0  0
    0.0982   -1.8523    1.2622 H   0  0  0  0  0  0  0  0  0  0  0  0
   -0.5446    0.8127   -1.3807 H   0  0  0  0  0  0  0  0  0  0  0  0
   -1.9324   -1.5723   -1.1458 H   0  0  0  0  0  0  0  0  0  0  0  0
   -1.9412   -0.5554    0.9958 H   0  0  0  0  0  0  0  0  0  0  0  0
   -0.2945    1.9966   -0.1042 H   0  0  0  0  0  0  0  0  0  0  0  0
  1  2  1  0
  2  3  1  0
  3  4  1  0
  3  5  1  0
  5  6  1  0
  5  7  1  0
  7  8  1  0
  8  9  1  0
  9  3  1  0
  9  7  1  0
  1 10  1  0
  2 11  1  0
  2 12  1  0
  4 13  1  0
  5 14  1  0
  6 15  1  0
  7 16  1  0
  9 17  1  0
M  END
