
     RDKit          3D

 17 17  0  0  0  0  0  0  0  0999 V2000
    1.9251   -1.2713   -0.3948 O   0  0  0  0  0  0  0  0  0  0  0  0
    1.3025   -0.1104   -0.7984 C   0  0  0  0  0  0  0  0  0  0  0  0
    0.0162    0.1048   -0.0142 C   0  0  0  0  0  0  0  0  0  0  0  0
   -0.9682   -1.0336   -0.2067 C   0  0  0  0  0  0  0  0  0  0  0  0
   -2.1381   -0.8506    0.4988 O   0  0  0  0  0  0  0  0  0  0  0  0
   -0.4874    1.5082   -0.0377 C   0  0  0  0  0  0  0  0  0  0  0  0
    0.0247    0.9076    1.2146 C   0  0  0  0  0  0  0  0  0  0  0  0
    2.7480   -1.1315    0.1345 H   0  0  0  0  0  0  0  0  0  0  0  0
    1.0044   -0.1510   -1.8692 H   0  0  0  0  0  0  0  0  0  0  0  0
    1.9299    0.8054   -0.6373 H   0  0  0  0  0  0  0  0  0  0  0  0
   -0.4968   -1.9963    0.0082 H   0  0  0  0  0  0  0  0  0  0  0  0
   -1.2328   -1.0365   -1.2942 H   0  0  0  0  0  0  0  0  0  0  0  0
   -2.3541   -1.7097    0.9812 H   0  0  0  0  0  0  0  0  0  0  0  0
    0.1096    2.2919   -0.5676 H   0  0  0  0  0  0  0  0  0  0  0  0
   -1.5810    1.7113   -0.0910 H   0  0  0  0  0  0  0  0  0  0  0  0
   -0.7408    0.6414    1.9920 H   0  0  0  0  0  0  0  0  0  0  0  0
    0.9388    1.3202    1.6570 H   0  0  0  0  0  0  0  0  0  0  0  0
  1  2  1  0
  2  3  1  0
  3  4  1  0
  4  5  1  0
  3  6  1  0
  6  7  1  0
  7  3  1  0
  1  8  1  0
  2  9  1  0
  2 10  1  0
  4 11  1  0
  4 12  1  0
  5 13  1  0
  6 14  1  0
  6 15  1  0
  7 16  1  0
  7 17  1  0
M  END
