
     RDKit          3D

 21 22  0  0  0  0  0  0  0  0999 V2000
    3.0868   -0.0545    0.7928 O   0  0  0  0  0  0  0  0  0  0  0  0
    2.1861    0.4323   -0.1470 C   0  0  0  0  0  0  0  0  0  0  0  0
    0.7580    0.1633    0.2391 C   0  0  0  0  0  0  0  0  0  0  0  0
    0.3804   -1.2760    0.4057 C   0  0  0  0  0  0  0  0  0  0  0  0
   -0.8650   -0.9860   -0.4387 C   0  0  0  0  0  0  0  0  0  0  0  0
   -1.9878   -0.3737    0.3331 C   0  0  0  0  0  0  0  0  0  0  0  0
   -1.9668    1.0680   -0.0237 C   0  0  0  0  0  0  0  0  0  0  0  0
   -0.9837    1.2824   -0.9598 O   0  0  0  0  0  0  0  0  0  0  0  0
   -0.1397    0.2150   -0.9879 C   0  0  0  0  0  0  0  0  0  0  0  0
    3.6853    0.6914    1.0911 H   0  0  0  0  0  0  0  0  0  0  0  0
    2.2925    1.5446   -0.2253 H   0  0  0  0  0  0  0  0  0  0  0  0
    2.3985    0.0294   -1.1695 H   0  0  0  0  0  0  0  0  0  0  0  0
    0.4175    0.8047    1.0741 H   0  0  0  0  0  0  0  0  0  0  0  0
    1.0101   -2.0173   -0.1029 H   0  0  0  0  0  0  0  0  0  0  0  0
    0.0746   -1.5788    1.4150 H   0  0  0  0  0  0  0  0  0  0  0  0
   -1.1035   -1.7370   -1.1891 H   0  0  0  0  0  0  0  0  0  0  0  0
   -1.8570   -0.4974    1.4386 H   0  0  0  0  0  0  0  0  0  0  0  0
   -2.9425   -0.8256    0.0119 H   0  0  0  0  0  0  0  0  0  0  0  0
   -1.8745    1.7214    0.8798 H   0  0  0  0  0  0  0  0  0  0  0  0
   -2.9404    1.3718   -0.4939 H   0  0  0  0  0  0  0  0  0  0  0  0
    0.3712    0.0222   -1.9435 H   0  0  0  0  0  0  0  0  0  0  0  0
  1  2  1  0
  2  3  1  0
  3  4  1  0
  4  5  1  0
  5  6  1  0
  6  7  1  0
  7  8  1  0
  8  9  1  0
  9  3  1  0
  9  5  1  0
  1 10  1  0
  2 11  1  0
  2 12  1  0
  3 13  1  0
  4 14  1  0
  4 15  1  0
  5 16  1  0
  6 17  1  0
  6 18  1  0
  7 19  1  0
  7 20  1  0
  9 21  1  0
M  END
