
     RDKit          3D

 20 21  0  0  0  0  0  0  0  0999 V2000
    2.9949   -0.2586   -0.2867 O   0  0  0  0  0  0  0  0  0  0  0  0
    1.7890   -0.3453   -0.9760 C   0  0  0  0  0  0  0  0  0  0  0  0
    0.6151   -0.4515   -0.0521 C   0  0  0  0  0  0  0  0  0  0  0  0
   -0.7289   -0.5505   -0.6806 C   0  0  0  0  0  0  0  0  0  0  0  0
   -1.6325   -0.6784    0.5208 C   0  0  0  0  0  0  0  0  0  0  0  0
   -0.9823    0.3853    1.4293 C   0  0  0  0  0  0  0  0  0  0  0  0
    0.0918    0.8662    0.5077 C   0  0  0  0  0  0  0  0  0  0  0  0
   -0.6713    0.9788   -0.8069 C   0  0  0  0  0  0  0  0  0  0  0  0
    2.7666   -0.0751    0.6586 H   0  0  0  0  0  0  0  0  0  0  0  0
    1.6808    0.4551   -1.7183 H   0  0  0  0  0  0  0  0  0  0  0  0
    1.8360   -1.3077   -1.5520 H   0  0  0  0  0  0  0  0  0  0  0  0
    0.7276   -1.1637    0.7865 H   0  0  0  0  0  0  0  0  0  0  0  0
   -0.9065   -1.1155   -1.5500 H   0  0  0  0  0  0  0  0  0  0  0  0
   -2.6762   -0.4146    0.3138 H   0  0  0  0  0  0  0  0  0  0  0  0
   -1.4905   -1.6877    0.9417 H   0  0  0  0  0  0  0  0  0  0  0  0
   -0.6140   -0.1360    2.3255 H   0  0  0  0  0  0  0  0  0  0  0  0
   -1.7217    1.1535    1.6950 H   0  0  0  0  0  0  0  0  0  0  0  0
    0.7721    1.6207    0.7790 H   0  0  0  0  0  0  0  0  0  0  0  0
   -0.1323    1.3676   -1.6619 H   0  0  0  0  0  0  0  0  0  0  0  0
   -1.7178    1.3575   -0.6733 H   0  0  0  0  0  0  0  0  0  0  0  0
  1  2  1  0
  2  3  1  0
  3  4  1  0
  4  5  1  0
  5  6  1  0
  6  7  1  0
  7  8  1  0
  7  3  1  0
  8  4  1  0
  1  9  1  0
  2 10  1  0
  2 11  1  0
  3 12  1  0
  4 13  1  0
  5 14  1  0
  5 15  1  0
  6 16  1  0
  6 17  1  0
  7 18  1  0
  8 19  1  0
  8 20  1  0
M  END
