
     RDKit          3D

 21 21  0  0  0  0  0  0  0  0999 V2000
   -2.9877   -0.7307   -0.7125 O   0  0  0  0  0  0  0  0  0  0  0  0
   -2.3075    0.4198   -0.3993 C   0  0  0  0  0  0  0  0  0  0  0  0
   -0.8217    0.3347   -0.7714 C   0  0  0  0  0  0  0  0  0  0  0  0
   -0.1999   -0.8731   -0.1432 C   0  0  0  0  0  0  0  0  0  0  0  0
    1.2818   -0.7885    0.0219 C   0  0  0  0  0  0  0  0  0  0  0  0
    1.7246   -1.8119    0.8405 O   0  0  0  0  0  0  0  0  0  0  0  0
    1.6360    0.5746    0.5644 C   0  0  0  0  0  0  0  0  0  0  0  0
    1.0985    1.5898   -0.4478 C   0  0  0  0  0  0  0  0  0  0  0  0
   -0.2620    1.5260   -0.4143 O   0  0  0  0  0  0  0  0  0  0  0  0
   -2.4294   -1.5284   -0.6167 H   0  0  0  0  0  0  0  0  0  0  0  0
   -2.4270    0.5983    0.6898 H   0  0  0  0  0  0  0  0  0  0  0  0
   -2.7302    1.3220   -0.9192 H   0  0  0  0  0  0  0  0  0  0  0  0
   -0.7735    0.2018   -1.8739 H   0  0  0  0  0  0  0  0  0  0  0  0
   -0.4064   -1.7703   -0.7912 H   0  0  0  0  0  0  0  0  0  0  0  0
   -0.6519   -1.0870    0.8403 H   0  0  0  0  0  0  0  0  0  0  0  0
    1.7877   -0.8714   -0.9727 H   0  0  0  0  0  0  0  0  0  0  0  0
    1.6384   -2.6534    0.3279 H   0  0  0  0  0  0  0  0  0  0  0  0
    1.1593    0.7955    1.5345 H   0  0  0  0  0  0  0  0  0  0  0  0
    2.7167    0.7048    0.6522 H   0  0  0  0  0  0  0  0  0  0  0  0
    1.5572    1.4589   -1.4346 H   0  0  0  0  0  0  0  0  0  0  0  0
    1.3970    2.5887   -0.0346 H   0  0  0  0  0  0  0  0  0  0  0  0
  1  2  1  0
  2  3  1  0
  3  4  1  0
  4  5  1  0
  5  6  1  0
  5  7  1  0
  7  8  1  0
  8  9  1  0
  9  3  1  0
  1 10  1  0
  2 11  1  0
  2 12  1  0
  3 13  1  0
  4 14  1  0
  4 15  1  0
  5 16  1  0
  6 17  1  0
  7 18  1  0
  7 19  1  0
  8 20  1  0
  8 21  1  0
M  END
