
     RDKit          3D

 17 19  0  0  0  0  0  0  0  0999 V2000
    2.7750   -0.1901   -0.8281 O   0  0  0  0  0  0  0  0  0  0  0  0
    2.0187   -0.5344    0.2899 C   0  0  0  0  0  0  0  0  0  0  0  0
    0.9638    0.5115    0.5862 C   0  0  0  0  0  0  0  0  0  0  0  0
    0.1918    0.0943    1.7820 O   0  0  0  0  0  0  0  0  0  0  0  0
   -0.3614    0.2689    0.4487 C   0  0  0  0  0  0  0  0  0  0  0  0
   -1.1619   -0.8603   -0.0390 C   0  0  0  0  0  0  0  0  0  0  0  0
   -2.4056    0.0233    0.0556 C   0  0  0  0  0  0  0  0  0  0  0  0
   -2.3981    1.2159   -0.6278 O   0  0  0  0  0  0  0  0  0  0  0  0
   -1.5514    1.1427    0.4506 C   0  0  0  0  0  0  0  0  0  0  0  0
    3.5962    0.3307   -0.5642 H   0  0  0  0  0  0  0  0  0  0  0  0
    2.7544   -0.6069    1.1420 H   0  0  0  0  0  0  0  0  0  0  0  0
    1.5169   -1.5149    0.1140 H   0  0  0  0  0  0  0  0  0  0  0  0
    1.3801    1.5356    0.6786 H   0  0  0  0  0  0  0  0  0  0  0  0
   -1.2785   -1.7507    0.6044 H   0  0  0  0  0  0  0  0  0  0  0  0
   -1.0049   -1.1572   -1.1154 H   0  0  0  0  0  0  0  0  0  0  0  0
   -3.2689   -0.3283    0.6202 H   0  0  0  0  0  0  0  0  0  0  0  0
   -1.7662    1.8199    1.2931 H   0  0  0  0  0  0  0  0  0  0  0  0
  1  2  1  0
  2  3  1  0
  3  4  1  0
  4  5  1  0
  5  6  1  0
  6  7  1  0
  7  8  1  0
  8  9  1  0
  5  3  1  0
  9  7  1  0
  9  5  1  0
  1 10  1  0
  2 11  1  0
  2 12  1  0
  3 13  1  0
  6 14  1  0
  6 15  1  0
  7 16  1  0
  9 17  1  0
M  END
