
     RDKit          3D

 19 20  0  0  0  0  0  0  0  0999 V2000
   -0.5931    1.5483    1.4033 O   0  0  0  0  0  0  0  0  0  0  0  0
    0.3192    1.2841    0.3822 C   0  0  0  0  0  0  0  0  0  0  0  0
    0.1671   -0.0698   -0.2280 C   0  0  0  0  0  0  0  0  0  0  0  0
   -1.1847   -0.3325   -0.8589 C   0  0  0  0  0  0  0  0  0  0  0  0
   -2.3344   -0.2359    0.0863 C   0  0  0  0  0  0  0  0  0  0  0  0
   -1.9087   -1.4488   -0.5090 O   0  0  0  0  0  0  0  0  0  0  0  0
    0.8534   -1.2583    0.3189 C   0  0  0  0  0  0  0  0  0  0  0  0
    1.3995   -0.6196   -0.8843 C   0  0  0  0  0  0  0  0  0  0  0  0
    2.5937    0.0937   -0.7169 O   0  0  0  0  0  0  0  0  0  0  0  0
   -0.1400    2.2010    2.0063 H   0  0  0  0  0  0  0  0  0  0  0  0
    0.1733    2.1105   -0.3687 H   0  0  0  0  0  0  0  0  0  0  0  0
    1.3764    1.4299    0.7407 H   0  0  0  0  0  0  0  0  0  0  0  0
   -1.3840    0.1570   -1.8564 H   0  0  0  0  0  0  0  0  0  0  0  0
   -3.3406    0.0604   -0.2820 H   0  0  0  0  0  0  0  0  0  0  0  0
   -2.2133   -0.1156    1.1645 H   0  0  0  0  0  0  0  0  0  0  0  0
    0.3732   -2.2503    0.1979 H   0  0  0  0  0  0  0  0  0  0  0  0
    1.4310   -1.1968    1.2778 H   0  0  0  0  0  0  0  0  0  0  0  0
    1.2744   -1.0370   -1.8961 H   0  0  0  0  0  0  0  0  0  0  0  0
    3.1376   -0.3202    0.0227 H   0  0  0  0  0  0  0  0  0  0  0  0
  1  2  1  0
  2  3  1  0
  3  4  1  0
  4  5  1  0
  5  6  1  0
  3  7  1  0
  7  8  1  0
  8  9  1  0
  8  3  1  0
  6  4  1  0
  1 10  1  0
  2 11  1  0
  2 12  1  0
  4 13  1  0
  5 14  1  0
  5 15  1  0
  7 16  1  0
  7 17  1  0
  8 18  1  0
  9 19  1  0
M  END
