
     RDKit          3D

 19 20  0  0  0  0  0  0  0  0999 V2000
    3.3359   -0.2656    0.4755 O   0  0  0  0  0  0  0  0  0  0  0  0
    2.2379   -0.4925   -0.3857 C   0  0  0  0  0  0  0  0  0  0  0  0
    1.4050    0.7257   -0.5566 C   0  0  0  0  0  0  0  0  0  0  0  0
    0.8636    1.1770    0.7638 O   0  0  0  0  0  0  0  0  0  0  0  0
    0.0010    0.8662   -0.3002 C   0  0  0  0  0  0  0  0  0  0  0  0
   -1.0028   -0.2241   -0.1210 C   0  0  0  0  0  0  0  0  0  0  0  0
   -0.5596   -1.5039    0.1674 O   0  0  0  0  0  0  0  0  0  0  0  0
   -2.1459   -0.2273   -1.1614 C   0  0  0  0  0  0  0  0  0  0  0  0
   -2.4148    0.0991    0.2447 C   0  0  0  0  0  0  0  0  0  0  0  0
    2.9230    0.1887    1.2761 H   0  0  0  0  0  0  0  0  0  0  0  0
    2.7242   -0.7094   -1.3825 H   0  0  0  0  0  0  0  0  0  0  0  0
    1.7172   -1.4015   -0.1029 H   0  0  0  0  0  0  0  0  0  0  0  0
    1.9224    1.5999   -1.0602 H   0  0  0  0  0  0  0  0  0  0  0  0
   -0.4835    1.8230   -0.6719 H   0  0  0  0  0  0  0  0  0  0  0  0
   -0.3553   -1.6536    1.1072 H   0  0  0  0  0  0  0  0  0  0  0  0
   -2.1485    0.6340   -1.8936 H   0  0  0  0  0  0  0  0  0  0  0  0
   -2.4257   -1.1651   -1.6372 H   0  0  0  0  0  0  0  0  0  0  0  0
   -2.6917    1.1491    0.4763 H   0  0  0  0  0  0  0  0  0  0  0  0
   -2.9024   -0.6196    0.9345 H   0  0  0  0  0  0  0  0  0  0  0  0
  1  2  1  0
  2  3  1  0
  3  4  1  0
  4  5  1  0
  5  6  1  0
  6  7  1  0
  6  8  1  0
  8  9  1  0
  5  3  1  0
  9  6  1  0
  1 10  1  0
  2 11  1  0
  2 12  1  0
  3 13  1  0
  5 14  1  0
  7 15  1  0
  8 16  1  0
  8 17  1  0
  9 18  1  0
  9 19  1  0
M  END
