
     RDKit          3D

 21 21  0  0  0  0  0  0  0  0999 V2000
    3.2743   -0.2244    0.5504 O   0  0  0  0  0  0  0  0  0  0  0  0
    2.4028    0.2284   -0.4356 C   0  0  0  0  0  0  0  0  0  0  0  0
    0.9494    0.1881    0.0533 C   0  0  0  0  0  0  0  0  0  0  0  0
    0.6899   -1.1456    0.3611 O   0  0  0  0  0  0  0  0  0  0  0  0
   -0.5792   -1.3348    0.8719 C   0  0  0  0  0  0  0  0  0  0  0  0
   -1.6775   -0.9245   -0.0600 C   0  0  0  0  0  0  0  0  0  0  0  0
   -1.9415    0.5593    0.1026 C   0  0  0  0  0  0  0  0  0  0  0  0
   -0.9077    1.3628   -0.6678 C   0  0  0  0  0  0  0  0  0  0  0  0
    0.1703    0.5612   -1.0360 O   0  0  0  0  0  0  0  0  0  0  0  0
    4.0524   -0.6959    0.1760 H   0  0  0  0  0  0  0  0  0  0  0  0
    2.5210   -0.4536   -1.2991 H   0  0  0  0  0  0  0  0  0  0  0  0
    2.6411    1.2389   -0.7864 H   0  0  0  0  0  0  0  0  0  0  0  0
    0.8016    0.8317    0.9248 H   0  0  0  0  0  0  0  0  0  0  0  0
   -0.6871   -2.4213    1.0809 H   0  0  0  0  0  0  0  0  0  0  0  0
   -0.7426   -0.7835    1.8375 H   0  0  0  0  0  0  0  0  0  0  0  0
   -2.6074   -1.4515    0.2328 H   0  0  0  0  0  0  0  0  0  0  0  0
   -1.4516   -1.1252   -1.1266 H   0  0  0  0  0  0  0  0  0  0  0  0
   -1.9546    0.8267    1.1792 H   0  0  0  0  0  0  0  0  0  0  0  0
   -2.9571    0.7925   -0.2815 H   0  0  0  0  0  0  0  0  0  0  0  0
   -0.6345    2.2289   -0.0643 H   0  0  0  0  0  0  0  0  0  0  0  0
   -1.3623    1.7419   -1.6130 H   0  0  0  0  0  0  0  0  0  0  0  0
  1  2  1  0
  2  3  1  0
  3  4  1  0
  4  5  1  0
  5  6  1  0
  6  7  1  0
  7  8  1  0
  8  9  1  0
  9  3  1  0
  1 10  1  0
  2 11  1  0
  2 12  1  0
  3 13  1  0
  5 14  1  0
  5 15  1  0
  6 16  1  0
  6 17  1  0
  7 18  1  0
  7 19  1  0
  8 20  1  0
  8 21  1  0
M  END
