
     RDKit          3D

 21 23  0  0  0  0  0  0  0  0999 V2000
    2.8294   -0.8441   -0.3561 O   0  0  0  0  0  0  0  0  0  0  0  0
    2.1365    0.2015    0.1980 C   0  0  0  0  0  0  0  0  0  0  0  0
    0.6396    0.0417    0.0936 C   0  0  0  0  0  0  0  0  0  0  0  0
    0.0243   -1.1691    0.7547 C   0  0  0  0  0  0  0  0  0  0  0  0
   -1.4387   -1.0898    0.3770 C   0  0  0  0  0  0  0  0  0  0  0  0
   -1.5409   -0.0751   -0.7428 C   0  0  0  0  0  0  0  0  0  0  0  0
   -1.6233    1.3190   -0.1414 C   0  0  0  0  0  0  0  0  0  0  0  0
   -0.1406    1.2924    0.0270 C   0  0  0  0  0  0  0  0  0  0  0  0
   -0.1233    0.2439   -1.1083 C   0  0  0  0  0  0  0  0  0  0  0  0
    3.4773   -1.1818    0.2990 H   0  0  0  0  0  0  0  0  0  0  0  0
    2.3547    0.2766    1.3048 H   0  0  0  0  0  0  0  0  0  0  0  0
    2.4955    1.1485   -0.2304 H   0  0  0  0  0  0  0  0  0  0  0  0
    0.1858   -1.0883    1.8304 H   0  0  0  0  0  0  0  0  0  0  0  0
    0.4111   -2.1189    0.3413 H   0  0  0  0  0  0  0  0  0  0  0  0
   -2.0552   -0.7617    1.2579 H   0  0  0  0  0  0  0  0  0  0  0  0
   -1.8383   -2.0357    0.0083 H   0  0  0  0  0  0  0  0  0  0  0  0
   -2.2393   -0.2970   -1.5418 H   0  0  0  0  0  0  0  0  0  0  0  0
   -2.2253    1.3413    0.7811 H   0  0  0  0  0  0  0  0  0  0  0  0
   -1.9157    2.0340   -0.9256 H   0  0  0  0  0  0  0  0  0  0  0  0
    0.3908    2.2366   -0.1383 H   0  0  0  0  0  0  0  0  0  0  0  0
    0.1955    0.5259   -2.0886 H   0  0  0  0  0  0  0  0  0  0  0  0
  1  2  1  0
  2  3  1  0
  3  4  1  0
  4  5  1  0
  5  6  1  0
  6  7  1  0
  7  8  1  0
  8  9  1  0
  8  3  1  0
  9  3  1  0
  9  6  1  0
  1 10  1  0
  2 11  1  0
  2 12  1  0
  4 13  1  0
  4 14  1  0
  5 15  1  0
  5 16  1  0
  6 17  1  0
  7 18  1  0
  7 19  1  0
  8 20  1  0
  9 21  1  0
M  END
