
     RDKit          3D

 21 21  0  0  0  0  0  0  0  0999 V2000
   -0.8012   -2.3815    0.3854 O   0  0  0  0  0  0  0  0  0  0  0  0
   -1.2026   -1.1468   -0.0822 C   0  0  0  0  0  0  0  0  0  0  0  0
   -0.6644   -0.0394    0.7646 C   0  0  0  0  0  0  0  0  0  0  0  0
   -1.1106    1.3150    0.2443 C   0  0  0  0  0  0  0  0  0  0  0  0
    0.1765    2.1064    0.3559 C   0  0  0  0  0  0  0  0  0  0  0  0
    1.0284    1.3722    1.1785 O   0  0  0  0  0  0  0  0  0  0  0  0
    0.8297    0.0337    0.8188 C   0  0  0  0  0  0  0  0  0  0  0  0
    1.4970   -0.2352   -0.5090 C   0  0  0  0  0  0  0  0  0  0  0  0
    1.3322   -1.5549   -0.9167 O   0  0  0  0  0  0  0  0  0  0  0  0
   -0.9299   -3.0330   -0.3594 H   0  0  0  0  0  0  0  0  0  0  0  0
   -2.3107   -1.0685   -0.0646 H   0  0  0  0  0  0  0  0  0  0  0  0
   -0.9221   -0.9908   -1.1622 H   0  0  0  0  0  0  0  0  0  0  0  0
   -1.0547   -0.1490    1.7916 H   0  0  0  0  0  0  0  0  0  0  0  0
   -1.4765    1.2144   -0.7754 H   0  0  0  0  0  0  0  0  0  0  0  0
   -1.9112    1.7529    0.8790 H   0  0  0  0  0  0  0  0  0  0  0  0
   -0.0244    3.0617    0.8960 H   0  0  0  0  0  0  0  0  0  0  0  0
    0.6794    2.2619   -0.6015 H   0  0  0  0  0  0  0  0  0  0  0  0
    1.2121   -0.6572    1.5710 H   0  0  0  0  0  0  0  0  0  0  0  0
    1.1386    0.4063   -1.3132 H   0  0  0  0  0  0  0  0  0  0  0  0
    2.5856   -0.0806   -0.3642 H   0  0  0  0  0  0  0  0  0  0  0  0
    1.9289   -2.1874   -0.4407 H   0  0  0  0  0  0  0  0  0  0  0  0
  1  2  1  0
  2  3  1  0
  3  4  1  0
  4  5  1  0
  5  6  1  0
  6  7  1  0
  7  8  1  0
  8  9  1  0
  7  3  1  0
  1 10  1  0
  2 11  1  0
  2 12  1  0
  3 13  1  0
  4 14  1  0
  4 15  1  0
  5 16  1  0
  5 17  1  0
  7 18  1  0
  8 19  1  0
  8 20  1  0
  9 21  1  0
M  END
