
     RDKit          3D

 19 21  0  0  0  0  0  0  0  0999 V2000
    3.0735    0.9194    0.5405 O   0  0  0  0  0  0  0  0  0  0  0  0
    2.3822   -0.2225    0.1090 C   0  0  0  0  0  0  0  0  0  0  0  0
    0.8871   -0.0829    0.3575 C   0  0  0  0  0  0  0  0  0  0  0  0
    0.1348    1.0124   -0.2689 C   0  0  0  0  0  0  0  0  0  0  0  0
   -1.0584    1.4084    0.2915 O   0  0  0  0  0  0  0  0  0  0  0  0
   -2.0423    0.5384   -0.0729 C   0  0  0  0  0  0  0  0  0  0  0  0
   -2.1225   -0.8264    0.6304 C   0  0  0  0  0  0  0  0  0  0  0  0
   -1.4333   -0.6870   -0.6634 C   0  0  0  0  0  0  0  0  0  0  0  0
    0.0129   -0.3643   -0.7783 C   0  0  0  0  0  0  0  0  0  0  0  0
    2.7394    1.2084    1.4053 H   0  0  0  0  0  0  0  0  0  0  0  0
    2.5692   -0.2749   -0.9956 H   0  0  0  0  0  0  0  0  0  0  0  0
    2.7871   -1.1335    0.5391 H   0  0  0  0  0  0  0  0  0  0  0  0
    0.5640   -0.3519    1.3999 H   0  0  0  0  0  0  0  0  0  0  0  0
    0.6551    1.7419   -0.9114 H   0  0  0  0  0  0  0  0  0  0  0  0
   -2.9961    0.9408   -0.4699 H   0  0  0  0  0  0  0  0  0  0  0  0
   -1.5906   -0.8387    1.5902 H   0  0  0  0  0  0  0  0  0  0  0  0
   -3.1194   -1.3060    0.6208 H   0  0  0  0  0  0  0  0  0  0  0  0
   -1.9368   -1.0807   -1.5550 H   0  0  0  0  0  0  0  0  0  0  0  0
    0.4941   -0.6008   -1.7688 H   0  0  0  0  0  0  0  0  0  0  0  0
  1  2  1  0
  2  3  1  0
  3  4  1  0
  4  5  1  0
  5  6  1  0
  6  7  1  0
  7  8  1  0
  8  9  1  0
  9  3  1  0
  9  4  1  0
  8  6  1  0
  1 10  1  0
  2 11  1  0
  2 12  1  0
  3 13  1  0
  4 14  1  0
  6 15  1  0
  7 16  1  0
  7 17  1  0
  8 18  1  0
  9 19  1  0
M  END
