
     RDKit          3D

 21 22  0  0  0  0  0  0  0  0999 V2000
   -2.8452   -1.4969    0.7376 O   0  0  0  0  0  0  0  0  0  0  0  0
   -2.4984   -0.2189    0.4237 C   0  0  0  0  0  0  0  0  0  0  0  0
   -1.2746   -0.0795   -0.4245 C   0  0  0  0  0  0  0  0  0  0  0  0
   -0.9315    1.3797   -0.7467 C   0  0  0  0  0  0  0  0  0  0  0  0
   -0.0301    0.4901    0.1365 C   0  0  0  0  0  0  0  0  0  0  0  0
    1.3085    0.2432   -0.4546 C   0  0  0  0  0  0  0  0  0  0  0  0
    1.7970   -1.1530   -0.5445 C   0  0  0  0  0  0  0  0  0  0  0  0
    2.8969   -0.8976    0.2940 O   0  0  0  0  0  0  0  0  0  0  0  0
    2.4599    0.4195    0.5275 C   0  0  0  0  0  0  0  0  0  0  0  0
   -2.1058   -2.1298    0.8443 H   0  0  0  0  0  0  0  0  0  0  0  0
   -2.3924    0.4581    1.3108 H   0  0  0  0  0  0  0  0  0  0  0  0
   -3.3523    0.2263   -0.1668 H   0  0  0  0  0  0  0  0  0  0  0  0
   -1.1592   -0.8371   -1.2028 H   0  0  0  0  0  0  0  0  0  0  0  0
   -1.4392    2.1737   -0.1937 H   0  0  0  0  0  0  0  0  0  0  0  0
   -0.6403    1.5216   -1.7947 H   0  0  0  0  0  0  0  0  0  0  0  0
   -0.0358    0.6881    1.2225 H   0  0  0  0  0  0  0  0  0  0  0  0
    1.5472    0.8236   -1.3836 H   0  0  0  0  0  0  0  0  0  0  0  0
    2.2161   -1.4178   -1.5591 H   0  0  0  0  0  0  0  0  0  0  0  0
    1.1553   -1.9586   -0.1582 H   0  0  0  0  0  0  0  0  0  0  0  0
    2.1339    0.5695    1.5875 H   0  0  0  0  0  0  0  0  0  0  0  0
    3.1898    1.1959    0.2508 H   0  0  0  0  0  0  0  0  0  0  0  0
  1  2  1  0
  2  3  1  0
  3  4  1  0
  4  5  1  0
  5  6  1  0
  6  7  1  0
  7  8  1  0
  8  9  1  0
  5  3  1  0
  9  6  1  0
  1 10  1  0
  2 11  1  0
  2 12  1  0
  3 13  1  0
  4 14  1  0
  4 15  1  0
  5 16  1  0
  6 17  1  0
  7 18  1  0
  7 19  1  0
  9 20  1  0
  9 21  1  0
M  END
