
     RDKit          3D

 19 20  0  0  0  0  0  0  0  0999 V2000
    2.5341   -0.8999   -0.2756 O   0  0  0  0  0  0  0  0  0  0  0  0
    1.1127   -1.0118   -0.3161 C   0  0  0  0  0  0  0  0  0  0  0  0
    0.4817    0.2458   -0.0078 C   0  0  0  0  0  0  0  0  0  0  0  0
    0.8594    0.6821    1.3132 C   0  0  0  0  0  0  0  0  0  0  0  0
   -0.5256    0.5421    1.1614 C   0  0  0  0  0  0  0  0  0  0  0  0
   -1.4347   -0.2689    0.3396 C   0  0  0  0  0  0  0  0  0  0  0  0
   -1.3671   -1.6212    0.3236 O   0  0  0  0  0  0  0  0  0  0  0  0
   -0.7714    0.5005   -0.7799 C   0  0  0  0  0  0  0  0  0  0  0  0
   -1.1194    1.8267   -0.7651 O   0  0  0  0  0  0  0  0  0  0  0  0
    2.8152   -0.1735   -0.8880 H   0  0  0  0  0  0  0  0  0  0  0  0
    0.9085   -1.3133   -1.3644 H   0  0  0  0  0  0  0  0  0  0  0  0
    0.9280   -1.8917    0.3124 H   0  0  0  0  0  0  0  0  0  0  0  0
    1.4819    1.6316    1.2897 H   0  0  0  0  0  0  0  0  0  0  0  0
    1.3271    0.0214    2.1091 H   0  0  0  0  0  0  0  0  0  0  0  0
   -0.9532    1.6065    1.1359 H   0  0  0  0  0  0  0  0  0  0  0  0
   -2.5115    0.0098    0.3724 H   0  0  0  0  0  0  0  0  0  0  0  0
   -1.6356   -2.0259   -0.5267 H   0  0  0  0  0  0  0  0  0  0  0  0
   -0.8199    0.0018   -1.7341 H   0  0  0  0  0  0  0  0  0  0  0  0
   -1.3102    2.1378   -1.6995 H   0  0  0  0  0  0  0  0  0  0  0  0
  1  2  1  0
  2  3  1  0
  3  4  1  0
  4  5  1  0
  5  6  1  0
  6  7  1  0
  6  8  1  0
  8  9  1  0
  5  3  1  0
  8  3  1  0
  1 10  1  0
  2 11  1  0
  2 12  1  0
  4 13  1  0
  4 14  1  0
  5 15  1  0
  6 16  1  0
  7 17  1  0
  8 18  1  0
  9 19  1  0
M  END
