
     RDKit          3D

 21 22  0  0  0  0  0  0  0  0999 V2000
    3.1634    0.8634    0.1028 O   0  0  0  0  0  0  0  0  0  0  0  0
    2.1981    0.1437   -0.6003 C   0  0  0  0  0  0  0  0  0  0  0  0
    1.2766   -0.6238    0.3272 C   0  0  0  0  0  0  0  0  0  0  0  0
    0.2160   -1.4172   -0.3925 C   0  0  0  0  0  0  0  0  0  0  0  0
   -0.1114   -0.1989    0.4119 C   0  0  0  0  0  0  0  0  0  0  0  0
   -0.6623    1.0256   -0.2402 C   0  0  0  0  0  0  0  0  0  0  0  0
   -2.0842    1.0691    0.3285 C   0  0  0  0  0  0  0  0  0  0  0  0
   -2.2013   -0.3303    0.8958 C   0  0  0  0  0  0  0  0  0  0  0  0
   -0.9315   -0.4637    1.5085 O   0  0  0  0  0  0  0  0  0  0  0  0
    3.8090    0.1788    0.4493 H   0  0  0  0  0  0  0  0  0  0  0  0
    2.7738   -0.5540   -1.2695 H   0  0  0  0  0  0  0  0  0  0  0  0
    1.5843    0.7690   -1.2615 H   0  0  0  0  0  0  0  0  0  0  0  0
    1.8216   -1.0908    1.1746 H   0  0  0  0  0  0  0  0  0  0  0  0
    0.0474   -2.4229    0.0436 H   0  0  0  0  0  0  0  0  0  0  0  0
    0.0717   -1.2998   -1.4792 H   0  0  0  0  0  0  0  0  0  0  0  0
   -0.6731    0.8758   -1.3241 H   0  0  0  0  0  0  0  0  0  0  0  0
   -0.0879    1.9325    0.0315 H   0  0  0  0  0  0  0  0  0  0  0  0
   -2.1372    1.7884    1.1545 H   0  0  0  0  0  0  0  0  0  0  0  0
   -2.8233    1.2551   -0.4783 H   0  0  0  0  0  0  0  0  0  0  0  0
   -2.2312   -1.0466    0.0451 H   0  0  0  0  0  0  0  0  0  0  0  0
   -3.0184   -0.4533    1.6039 H   0  0  0  0  0  0  0  0  0  0  0  0
  1  2  1  0
  2  3  1  0
  3  4  1  0
  4  5  1  0
  5  6  1  0
  6  7  1  0
  7  8  1  0
  8  9  1  0
  5  3  1  0
  9  5  1  0
  1 10  1  0
  2 11  1  0
  2 12  1  0
  3 13  1  0
  4 14  1  0
  4 15  1  0
  6 16  1  0
  6 17  1  0
  7 18  1  0
  7 19  1  0
  8 20  1  0
  8 21  1  0
M  END
