
     RDKit          3D

 14 14  0  0  0  0  0  0  0  0999 V2000
    2.3289   -0.5698   -0.4028 O   0  0  0  0  0  0  0  0  0  0  0  0
    1.2668   -0.4041    0.4799 C   0  0  0  0  0  0  0  0  0  0  0  0
    0.2143    0.5347   -0.1065 C   0  0  0  0  0  0  0  0  0  0  0  0
   -1.1247    0.4624    0.5339 C   0  0  0  0  0  0  0  0  0  0  0  0
   -1.4514   -0.4284   -0.6399 C   0  0  0  0  0  0  0  0  0  0  0  0
   -0.3276    0.0727   -1.3082 O   0  0  0  0  0  0  0  0  0  0  0  0
    2.5055    0.2548   -0.9354 H   0  0  0  0  0  0  0  0  0  0  0  0
    0.8359   -1.3852    0.7452 H   0  0  0  0  0  0  0  0  0  0  0  0
    1.6811    0.1231    1.3649 H   0  0  0  0  0  0  0  0  0  0  0  0
    0.6812    1.5537   -0.1772 H   0  0  0  0  0  0  0  0  0  0  0  0
   -1.2050   -0.0327    1.5114 H   0  0  0  0  0  0  0  0  0  0  0  0
   -1.6330    1.4596    0.4908 H   0  0  0  0  0  0  0  0  0  0  0  0
   -2.3924   -0.1346   -1.1335 H   0  0  0  0  0  0  0  0  0  0  0  0
   -1.3796   -1.5063   -0.4225 H   0  0  0  0  0  0  0  0  0  0  0  0
  1  2  1  0
  2  3  1  0
  3  4  1  0
  4  5  1  0
  5  6  1  0
  6  3  1  0
  1  7  1  0
  2  8  1  0
  2  9  1  0
  3 10  1  0
  4 11  1  0
  4 12  1  0
  5 13  1  0
  5 14  1  0
M  END
