
     RDKit          3D

 19 20  0  0  0  0  0  0  0  0999 V2000
    2.3356   -1.4772   -0.2181 O   0  0  0  0  0  0  0  0  0  0  0  0
    1.7684   -0.2853   -0.7251 C   0  0  0  0  0  0  0  0  0  0  0  0
    1.1405    0.5174    0.3869 C   0  0  0  0  0  0  0  0  0  0  0  0
    0.0144   -0.1339    1.1838 C   0  0  0  0  0  0  0  0  0  0  0  0
   -0.5001   -1.2568    0.5780 O   0  0  0  0  0  0  0  0  0  0  0  0
   -1.4604   -0.8787   -0.3223 C   0  0  0  0  0  0  0  0  0  0  0  0
   -1.2483    0.5769   -0.6549 C   0  0  0  0  0  0  0  0  0  0  0  0
   -2.4575    1.2307   -0.3858 O   0  0  0  0  0  0  0  0  0  0  0  0
   -0.2217    1.0424    0.3107 C   0  0  0  0  0  0  0  0  0  0  0  0
    3.2286   -1.2789    0.1692 H   0  0  0  0  0  0  0  0  0  0  0  0
    1.0237   -0.5924   -1.5030 H   0  0  0  0  0  0  0  0  0  0  0  0
    2.5473    0.3561   -1.1885 H   0  0  0  0  0  0  0  0  0  0  0  0
    1.8601    1.0596    1.0069 H   0  0  0  0  0  0  0  0  0  0  0  0
   -0.0236   -0.0025    2.2711 H   0  0  0  0  0  0  0  0  0  0  0  0
   -2.4623   -1.0816    0.1108 H   0  0  0  0  0  0  0  0  0  0  0  0
   -1.3749   -1.5009   -1.2326 H   0  0  0  0  0  0  0  0  0  0  0  0
   -1.0174    0.7595   -1.7110 H   0  0  0  0  0  0  0  0  0  0  0  0
   -2.7397    0.9023    0.5131 H   0  0  0  0  0  0  0  0  0  0  0  0
   -0.4127    2.0433    0.7880 H   0  0  0  0  0  0  0  0  0  0  0  0
  1  2  1  0
  2  3  1  0
  3  4  1  0
  4  5  1  0
  5  6  1  0
  6  7  1  0
  7  8  1  0
  7  9  1  0
  9  3  1  0
  9  4  1  0
  1 10  1  0
  2 11  1  0
  2 12  1  0
  3 13  1  0
  4 14  1  0
  6 15  1  0
  6 16  1  0
  7 17  1  0
  8 18  1  0
  9 19  1  0
M  END
