
     RDKit          3D

 19 20  0  0  0  0  0  0  0  0999 V2000
    2.7981   -0.8362   -0.6801 O   0  0  0  0  0  0  0  0  0  0  0  0
    2.3224    0.3835   -0.1754 C   0  0  0  0  0  0  0  0  0  0  0  0
    0.8673    0.3201    0.1129 C   0  0  0  0  0  0  0  0  0  0  0  0
    0.2782    0.5070    1.2859 C   0  0  0  0  0  0  0  0  0  0  0  0
   -1.1992    0.3654    1.1956 C   0  0  0  0  0  0  0  0  0  0  0  0
   -1.5004    0.3906   -0.2544 C   0  0  0  0  0  0  0  0  0  0  0  0
   -1.9600   -0.9443   -0.7828 C   0  0  0  0  0  0  0  0  0  0  0  0
   -0.6026   -1.3003   -0.9433 O   0  0  0  0  0  0  0  0  0  0  0  0
   -0.1752    0.0338   -0.8809 C   0  0  0  0  0  0  0  0  0  0  0  0
    3.1543   -1.4217    0.0164 H   0  0  0  0  0  0  0  0  0  0  0  0
    2.5702    1.1444   -0.9405 H   0  0  0  0  0  0  0  0  0  0  0  0
    2.8475    0.6810    0.7467 H   0  0  0  0  0  0  0  0  0  0  0  0
    0.7871    0.7367    2.2159 H   0  0  0  0  0  0  0  0  0  0  0  0
   -1.7343    1.1744    1.7391 H   0  0  0  0  0  0  0  0  0  0  0  0
   -1.4429   -0.6196    1.6730 H   0  0  0  0  0  0  0  0  0  0  0  0
   -1.9784    1.2722   -0.6780 H   0  0  0  0  0  0  0  0  0  0  0  0
   -2.4842   -0.8103   -1.7421 H   0  0  0  0  0  0  0  0  0  0  0  0
   -2.4733   -1.5620   -0.0357 H   0  0  0  0  0  0  0  0  0  0  0  0
   -0.0747    0.4853   -1.8724 H   0  0  0  0  0  0  0  0  0  0  0  0
  1  2  1  0
  2  3  1  0
  3  4  2  0
  4  5  1  0
  5  6  1  0
  6  7  1  0
  7  8  1  0
  8  9  1  0
  9  3  1  0
  9  6  1  0
  1 10  1  0
  2 11  1  0
  2 12  1  0
  4 13  1  0
  5 14  1  0
  5 15  1  0
  6 16  1  0
  7 17  1  0
  7 18  1  0
  9 19  1  0
M  END
