
     RDKit          3D

 18 18  0  0  0  0  0  0  0  0999 V2000
    1.8190    1.3254   -0.1415 O   0  0  0  0  0  0  0  0  0  0  0  0
    1.7635   -0.0536    0.0312 C   0  0  0  0  0  0  0  0  0  0  0  0
    0.3644   -0.5759    0.1222 C   0  0  0  0  0  0  0  0  0  0  0  0
    0.3760   -1.9583    0.2942 O   0  0  0  0  0  0  0  0  0  0  0  0
   -0.6063   -0.1087   -0.9047 C   0  0  0  0  0  0  0  0  0  0  0  0
   -1.3481    0.6941    0.1461 C   0  0  0  0  0  0  0  0  0  0  0  0
   -2.6598    0.3012    0.3602 O   0  0  0  0  0  0  0  0  0  0  0  0
   -0.4016    0.1724    1.2034 C   0  0  0  0  0  0  0  0  0  0  0  0
    2.0121    1.5673   -1.0949 H   0  0  0  0  0  0  0  0  0  0  0  0
    2.3760   -0.6106   -0.6967 H   0  0  0  0  0  0  0  0  0  0  0  0
    2.2468   -0.2495    1.0333 H   0  0  0  0  0  0  0  0  0  0  0  0
    0.6435   -2.3641   -0.5658 H   0  0  0  0  0  0  0  0  0  0  0  0
   -1.2858   -0.9090   -1.2932 H   0  0  0  0  0  0  0  0  0  0  0  0
   -0.2461    0.5257   -1.7141 H   0  0  0  0  0  0  0  0  0  0  0  0
   -1.2233    1.7903    0.0131 H   0  0  0  0  0  0  0  0  0  0  0  0
   -3.1359    0.0262   -0.4478 H   0  0  0  0  0  0  0  0  0  0  0  0
    0.1845    0.9544    1.7287 H   0  0  0  0  0  0  0  0  0  0  0  0
   -0.8788   -0.5273    1.9264 H   0  0  0  0  0  0  0  0  0  0  0  0
  1  2  1  0
  2  3  1  0
  3  4  1  0
  3  5  1  0
  5  6  1  0
  6  7  1  0
  6  8  1  0
  8  3  1  0
  1  9  1  0
  2 10  1  0
  2 11  1  0
  4 12  1  0
  5 13  1  0
  5 14  1  0
  6 15  1  0
  7 16  1  0
  8 17  1  0
  8 18  1  0
M  END
