
     RDKit          3D

 19 20  0  0  0  0  0  0  0  0999 V2000
    2.9323    0.5562    0.0870 O   0  0  0  0  0  0  0  0  0  0  0  0
    2.0154   -0.4806   -0.1362 C   0  0  0  0  0  0  0  0  0  0  0  0
    0.6354   -0.0179    0.2605 C   0  0  0  0  0  0  0  0  0  0  0  0
    0.1919    1.1627   -0.5135 C   0  0  0  0  0  0  0  0  0  0  0  0
   -1.1015    1.4180   -0.5580 C   0  0  0  0  0  0  0  0  0  0  0  0
   -2.0535    0.5576    0.1367 C   0  0  0  0  0  0  0  0  0  0  0  0
   -2.5986   -0.4413   -0.6815 O   0  0  0  0  0  0  0  0  0  0  0  0
   -1.7275   -0.8247    0.3060 C   0  0  0  0  0  0  0  0  0  0  0  0
   -0.3000   -1.2099    0.0128 C   0  0  0  0  0  0  0  0  0  0  0  0
    2.6923    1.0724    0.8995 H   0  0  0  0  0  0  0  0  0  0  0  0
    2.2930   -1.3613    0.4560 H   0  0  0  0  0  0  0  0  0  0  0  0
    1.9668   -0.7605   -1.2025 H   0  0  0  0  0  0  0  0  0  0  0  0
    0.6377    0.1848    1.3557 H   0  0  0  0  0  0  0  0  0  0  0  0
    0.9315    1.8011   -1.0328 H   0  0  0  0  0  0  0  0  0  0  0  0
   -1.4434    2.2794   -1.1205 H   0  0  0  0  0  0  0  0  0  0  0  0
   -2.7317    1.0625    0.8582 H   0  0  0  0  0  0  0  0  0  0  0  0
   -2.2093   -1.3825    1.1354 H   0  0  0  0  0  0  0  0  0  0  0  0
    0.0231   -1.9829    0.7368 H   0  0  0  0  0  0  0  0  0  0  0  0
   -0.1540   -1.6331   -0.9997 H   0  0  0  0  0  0  0  0  0  0  0  0
  1  2  1  0
  2  3  1  0
  3  4  1  0
  4  5  2  0
  5  6  1  0
  6  7  1  0
  7  8  1  0
  8  9  1  0
  9  3  1  0
  8  6  1  0
  1 10  1  0
  2 11  1  0
  2 12  1  0
  3 13  1  0
  4 14  1  0
  5 15  1  0
  6 16  1  0
  8 17  1  0
  9 18  1  0
  9 19  1  0
M  END
