
     RDKit          3D

 16 17  0  0  0  0  0  0  0  0999 V2000
    2.6719   -0.4365   -0.2951 O   0  0  0  0  0  0  0  0  0  0  0  0
    1.6543    0.4770   -0.2269 C   0  0  0  0  0  0  0  0  0  0  0  0
    0.2918   -0.0929   -0.3955 C   0  0  0  0  0  0  0  0  0  0  0  0
   -0.7049    1.0603   -0.2912 C   0  0  0  0  0  0  0  0  0  0  0  0
   -1.8530    0.5025    0.0827 C   0  0  0  0  0  0  0  0  0  0  0  0
   -1.6338   -0.9104    0.2086 C   0  0  0  0  0  0  0  0  0  0  0  0
   -1.0991   -1.7467    1.0396 O   0  0  0  0  0  0  0  0  0  0  0  0
   -0.2247   -0.8174    0.8259 C   0  0  0  0  0  0  0  0  0  0  0  0
    2.3723   -1.3621   -0.0262 H   0  0  0  0  0  0  0  0  0  0  0  0
    1.6917    1.0374    0.7380 H   0  0  0  0  0  0  0  0  0  0  0  0
    1.7764    1.2792   -1.0145 H   0  0  0  0  0  0  0  0  0  0  0  0
    0.1347   -0.6972   -1.2804 H   0  0  0  0  0  0  0  0  0  0  0  0
   -0.4667    2.0993   -0.4932 H   0  0  0  0  0  0  0  0  0  0  0  0
   -2.7895    1.0944    0.2518 H   0  0  0  0  0  0  0  0  0  0  0  0
   -1.6893   -1.3767   -0.8352 H   0  0  0  0  0  0  0  0  0  0  0  0
   -0.1320   -0.1101    1.7115 H   0  0  0  0  0  0  0  0  0  0  0  0
  1  2  1  0
  2  3  1  0
  3  4  1  0
  4  5  2  0
  5  6  1  0
  6  7  1  0
  7  8  1  0
  8  3  1  0
  8  6  1  0
  1  9  1  0
  2 10  1  0
  2 11  1  0
  3 12  1  0
  4 13  1  0
  5 14  1  0
  6 15  1  0
  8 16  1  0
M  END
