
     RDKit          3D

 21 22  0  0  0  0  0  0  0  0999 V2000
    2.7887   -0.1218   -0.5487 O   0  0  0  0  0  0  0  0  0  0  0  0
    1.6639    0.6599   -0.4979 C   0  0  0  0  0  0  0  0  0  0  0  0
    0.4420   -0.1256   -0.0020 C   0  0  0  0  0  0  0  0  0  0  0  0
   -0.8413    0.6390    0.0903 C   0  0  0  0  0  0  0  0  0  0  0  0
   -0.7822    1.7417    0.9649 O   0  0  0  0  0  0  0  0  0  0  0  0
   -2.1571   -0.0596    0.1099 C   0  0  0  0  0  0  0  0  0  0  0  0
   -1.7412    0.8044   -1.0715 C   0  0  0  0  0  0  0  0  0  0  0  0
    0.7735   -1.1940    1.0043 C   0  0  0  0  0  0  0  0  0  0  0  0
    0.4477   -1.5539   -0.4292 C   0  0  0  0  0  0  0  0  0  0  0  0
    3.2363   -0.2306    0.3310 H   0  0  0  0  0  0  0  0  0  0  0  0
    1.8209    1.4937    0.2068 H   0  0  0  0  0  0  0  0  0  0  0  0
    1.4294    1.0646   -1.5031 H   0  0  0  0  0  0  0  0  0  0  0  0
   -0.6011    2.5405    0.4460 H   0  0  0  0  0  0  0  0  0  0  0  0
   -2.2466   -1.1385   -0.1133 H   0  0  0  0  0  0  0  0  0  0  0  0
   -2.9867    0.3175    0.7457 H   0  0  0  0  0  0  0  0  0  0  0  0
   -2.3094    1.7616   -1.2120 H   0  0  0  0  0  0  0  0  0  0  0  0
   -1.5684    0.2885   -2.0360 H   0  0  0  0  0  0  0  0  0  0  0  0
    1.8171   -1.3138    1.3650 H   0  0  0  0  0  0  0  0  0  0  0  0
    0.0081   -1.5185    1.7387 H   0  0  0  0  0  0  0  0  0  0  0  0
   -0.4980   -2.0901   -0.6332 H   0  0  0  0  0  0  0  0  0  0  0  0
    1.3045   -1.9651   -0.9937 H   0  0  0  0  0  0  0  0  0  0  0  0
  1  2  1  0
  2  3  1  0
  3  4  1  0
  4  5  1  0
  4  6  1  0
  6  7  1  0
  3  8  1  0
  8  9  1  0
  9  3  1  0
  7  4  1  0
  1 10  1  0
  2 11  1  0
  2 12  1  0
  5 13  1  0
  6 14  1  0
  6 15  1  0
  7 16  1  0
  7 17  1  0
  8 18  1  0
  8 19  1  0
  9 20  1  0
  9 21  1  0
M  END
