
     RDKit          3D

 19 20  0  0  0  0  0  0  0  0999 V2000
   -2.6891    0.9433    0.6990 O   0  0  0  0  0  0  0  0  0  0  0  0
   -2.1963   -0.3270    0.3990 C   0  0  0  0  0  0  0  0  0  0  0  0
   -1.2862   -0.2134   -0.7722 C   0  0  0  0  0  0  0  0  0  0  0  0
   -0.0992    0.6824   -0.5862 C   0  0  0  0  0  0  0  0  0  0  0  0
    0.3604    0.9773    0.6943 O   0  0  0  0  0  0  0  0  0  0  0  0
    1.7242    0.6626    0.7083 C   0  0  0  0  0  0  0  0  0  0  0  0
    1.9417   -0.7983    0.3398 C   0  0  0  0  0  0  0  0  0  0  0  0
    0.6825   -1.4006    0.2263 O   0  0  0  0  0  0  0  0  0  0  0  0
    0.0486   -0.8007   -0.8408 C   0  0  0  0  0  0  0  0  0  0  0  0
   -1.9980    1.5964    0.4248 H   0  0  0  0  0  0  0  0  0  0  0  0
   -1.7189   -0.8026    1.2907 H   0  0  0  0  0  0  0  0  0  0  0  0
   -3.1016   -0.9568    0.1770 H   0  0  0  0  0  0  0  0  0  0  0  0
   -1.8138   -0.0755   -1.7477 H   0  0  0  0  0  0  0  0  0  0  0  0
    0.1922    1.4091   -1.3522 H   0  0  0  0  0  0  0  0  0  0  0  0
    2.1865    0.9138    1.6901 H   0  0  0  0  0  0  0  0  0  0  0  0
    2.2013    1.3356   -0.0384 H   0  0  0  0  0  0  0  0  0  0  0  0
    2.5147   -0.8325   -0.6031 H   0  0  0  0  0  0  0  0  0  0  0  0
    2.5697   -1.2755    1.1118 H   0  0  0  0  0  0  0  0  0  0  0  0
    0.4810   -1.0374   -1.8204 H   0  0  0  0  0  0  0  0  0  0  0  0
  1  2  1  0
  2  3  1  0
  3  4  1  0
  4  5  1  0
  5  6  1  0
  6  7  1  0
  7  8  1  0
  8  9  1  0
  9  3  1  0
  9  4  1  0
  1 10  1  0
  2 11  1  0
  2 12  1  0
  3 13  1  0
  4 14  1  0
  6 15  1  0
  6 16  1  0
  7 17  1  0
  7 18  1  0
  9 19  1  0
M  END
