
     RDKit          3D

 16 17  0  0  0  0  0  0  0  0999 V2000
    2.1734    0.3466    0.8132 O   0  0  0  0  0  0  0  0  0  0  0  0
    1.3121   -0.4829    0.0605 C   0  0  0  0  0  0  0  0  0  0  0  0
    0.1417    0.4000   -0.3363 C   0  0  0  0  0  0  0  0  0  0  0  0
    0.4674    1.4968   -1.0894 O   0  0  0  0  0  0  0  0  0  0  0  0
   -0.8005    0.6786    0.8350 C   0  0  0  0  0  0  0  0  0  0  0  0
   -1.7095   -0.3938    0.2442 C   0  0  0  0  0  0  0  0  0  0  0  0
   -1.1765   -1.6074   -0.1135 O   0  0  0  0  0  0  0  0  0  0  0  0
   -0.9695   -0.4796   -0.8975 C   0  0  0  0  0  0  0  0  0  0  0  0
    2.6606   -0.2162    1.4700 H   0  0  0  0  0  0  0  0  0  0  0  0
    1.7989   -0.8736   -0.8397 H   0  0  0  0  0  0  0  0  0  0  0  0
    0.9967   -1.2807    0.7637 H   0  0  0  0  0  0  0  0  0  0  0  0
    0.7640    1.1796   -1.9925 H   0  0  0  0  0  0  0  0  0  0  0  0
   -1.3056    1.6822    0.7513 H   0  0  0  0  0  0  0  0  0  0  0  0
   -0.4068    0.4254    1.8169 H   0  0  0  0  0  0  0  0  0  0  0  0
   -2.7704   -0.3958    0.4793 H   0  0  0  0  0  0  0  0  0  0  0  0
   -1.1759   -0.4794   -1.9654 H   0  0  0  0  0  0  0  0  0  0  0  0
  1  2  1  0
  2  3  1  0
  3  4  1  0
  3  5  1  0
  5  6  1  0
  6  7  1  0
  7  8  1  0
  8  3  1  0
  8  6  1  0
  1  9  1  0
  2 10  1  0
  2 11  1  0
  4 12  1  0
  5 13  1  0
  5 14  1  0
  6 15  1  0
  8 16  1  0
M  END
