
     RDKit          3D

 23 23  0  0  0  0  0  0  0  0999 V2000
   -2.7975   -1.2846   -0.5838 O   0  0  0  0  0  0  0  0  0  0  0  0
   -2.3802   -0.1516    0.0714 C   0  0  0  0  0  0  0  0  0  0  0  0
   -0.9160    0.0631   -0.1488 C   0  0  0  0  0  0  0  0  0  0  0  0
   -0.4564    1.3300    0.5856 C   0  0  0  0  0  0  0  0  0  0  0  0
    0.7139    1.8300   -0.1613 C   0  0  0  0  0  0  0  0  0  0  0  0
    1.8547    1.2302   -0.4109 C   0  0  0  0  0  0  0  0  0  0  0  0
    2.2638   -0.1463    0.0109 C   0  0  0  0  0  0  0  0  0  0  0  0
    1.2497   -1.1768   -0.4352 C   0  0  0  0  0  0  0  0  0  0  0  0
   -0.0567   -1.0664    0.2899 C   0  0  0  0  0  0  0  0  0  0  0  0
   -2.9192   -2.0085    0.0787 H   0  0  0  0  0  0  0  0  0  0  0  0
   -2.9087    0.7289   -0.3932 H   0  0  0  0  0  0  0  0  0  0  0  0
   -2.6148   -0.1973    1.1464 H   0  0  0  0  0  0  0  0  0  0  0  0
   -0.7586    0.1966   -1.2564 H   0  0  0  0  0  0  0  0  0  0  0  0
   -1.2595    2.0542    0.6960 H   0  0  0  0  0  0  0  0  0  0  0  0
   -0.0676    0.9816    1.5852 H   0  0  0  0  0  0  0  0  0  0  0  0
    0.6138    2.8218   -0.5529 H   0  0  0  0  0  0  0  0  0  0  0  0
    2.6057    1.7901   -0.9954 H   0  0  0  0  0  0  0  0  0  0  0  0
    2.2619   -0.1501    1.1205 H   0  0  0  0  0  0  0  0  0  0  0  0
    3.2339   -0.4378   -0.4271 H   0  0  0  0  0  0  0  0  0  0  0  0
    1.1095   -1.1739   -1.5333 H   0  0  0  0  0  0  0  0  0  0  0  0
    1.6855   -2.1726   -0.1598 H   0  0  0  0  0  0  0  0  0  0  0  0
   -0.6186   -2.0207    0.0843 H   0  0  0  0  0  0  0  0  0  0  0  0
    0.1614   -1.0399    1.3891 H   0  0  0  0  0  0  0  0  0  0  0  0
  1  2  1  0
  2  3  1  0
  3  4  1  0
  4  5  1  0
  5  6  2  0
  6  7  1  0
  7  8  1  0
  8  9  1  0
  9  3  1  0
  1 10  1  0
  2 11  1  0
  2 12  1  0
  3 13  1  0
  4 14  1  0
  4 15  1  0
  5 16  1  0
  6 17  1  0
  7 18  1  0
  7 19  1  0
  8 20  1  0
  8 21  1  0
  9 22  1  0
  9 23  1  0
M  END
