
     RDKit          3D

 19 20  0  0  0  0  0  0  0  0999 V2000
    2.5274    0.2864    1.0036 O   0  0  0  0  0  0  0  0  0  0  0  0
    1.8269   -0.4522    0.0659 C   0  0  0  0  0  0  0  0  0  0  0  0
    0.4284   -0.0729    0.0788 C   0  0  0  0  0  0  0  0  0  0  0  0
    0.0886    1.3190   -0.2174 C   0  0  0  0  0  0  0  0  0  0  0  0
   -1.2265    1.3252   -0.5219 C   0  0  0  0  0  0  0  0  0  0  0  0
   -1.7112   -0.0814   -0.4851 C   0  0  0  0  0  0  0  0  0  0  0  0
   -1.6459   -0.5093    0.9452 C   0  0  0  0  0  0  0  0  0  0  0  0
   -0.3557   -0.4736    1.2796 C   0  0  0  0  0  0  0  0  0  0  0  0
   -0.4316   -0.7792   -0.9925 C   0  0  0  0  0  0  0  0  0  0  0  0
    3.1461    0.9256    0.5625 H   0  0  0  0  0  0  0  0  0  0  0  0
    1.9239   -1.5409    0.2515 H   0  0  0  0  0  0  0  0  0  0  0  0
    2.2620   -0.2768   -0.9393 H   0  0  0  0  0  0  0  0  0  0  0  0
    0.6533    2.2421   -0.2317 H   0  0  0  0  0  0  0  0  0  0  0  0
   -1.8552    2.1789   -0.7574 H   0  0  0  0  0  0  0  0  0  0  0  0
   -2.5911   -0.3137   -1.0216 H   0  0  0  0  0  0  0  0  0  0  0  0
   -2.4885   -0.7882    1.5673 H   0  0  0  0  0  0  0  0  0  0  0  0
    0.0901   -0.6896    2.2413 H   0  0  0  0  0  0  0  0  0  0  0  0
   -0.1717   -0.4434   -1.9946 H   0  0  0  0  0  0  0  0  0  0  0  0
   -0.4693   -1.8559   -0.8345 H   0  0  0  0  0  0  0  0  0  0  0  0
  1  2  1  0
  2  3  1  0
  3  4  1  0
  4  5  2  0
  5  6  1  0
  6  7  1  0
  7  8  2  0
  6  9  1  0
  8  3  1  0
  9  3  1  0
  1 10  1  0
  2 11  1  0
  2 12  1  0
  4 13  1  0
  5 14  1  0
  6 15  1  0
  7 16  1  0
  8 17  1  0
  9 18  1  0
  9 19  1  0
M  END
