
     RDKit          3D

 21 22  0  0  0  0  0  0  0  0999 V2000
    2.7826    0.7171    0.2768 O   0  0  0  0  0  0  0  0  0  0  0  0
    1.7767    0.1813    1.1164 C   0  0  0  0  0  0  0  0  0  0  0  0
    0.8926   -0.6365    0.2487 C   0  0  0  0  0  0  0  0  0  0  0  0
   -0.1597   -1.2482    0.8871 O   0  0  0  0  0  0  0  0  0  0  0  0
   -1.3233   -1.0198    0.1721 C   0  0  0  0  0  0  0  0  0  0  0  0
   -1.7783    0.3893    0.4959 C   0  0  0  0  0  0  0  0  0  0  0  0
   -0.6783    1.2333   -0.1567 C   0  0  0  0  0  0  0  0  0  0  0  0
    0.2483    0.2250   -0.8013 C   0  0  0  0  0  0  0  0  0  0  0  0
   -0.8163   -0.7933   -1.2629 C   0  0  0  0  0  0  0  0  0  0  0  0
    2.9779    0.0245   -0.4128 H   0  0  0  0  0  0  0  0  0  0  0  0
    2.3300   -0.4294    1.8640 H   0  0  0  0  0  0  0  0  0  0  0  0
    1.2511    0.9625    1.6801 H   0  0  0  0  0  0  0  0  0  0  0  0
    1.5450   -1.3858   -0.2838 H   0  0  0  0  0  0  0  0  0  0  0  0
   -2.0811   -1.7722    0.2432 H   0  0  0  0  0  0  0  0  0  0  0  0
   -1.8687    0.5769    1.5650 H   0  0  0  0  0  0  0  0  0  0  0  0
   -2.7618    0.5932   -0.0082 H   0  0  0  0  0  0  0  0  0  0  0  0
   -1.0983    1.8846   -0.9524 H   0  0  0  0  0  0  0  0  0  0  0  0
   -0.2038    1.8729    0.5802 H   0  0  0  0  0  0  0  0  0  0  0  0
    0.8703    0.5859   -1.5868 H   0  0  0  0  0  0  0  0  0  0  0  0
   -1.5450   -0.2759   -1.8755 H   0  0  0  0  0  0  0  0  0  0  0  0
   -0.3600   -1.6856   -1.6820 H   0  0  0  0  0  0  0  0  0  0  0  0
  1  2  1  0
  2  3  1  0
  3  4  1  0
  4  5  1  0
  5  6  1  0
  6  7  1  0
  7  8  1  0
  8  9  1  0
  8  3  1  0
  9  5  1  0
  1 10  1  0
  2 11  1  0
  2 12  1  0
  3 13  1  0
  5 14  1  0
  6 15  1  0
  6 16  1  0
  7 17  1  0
  7 18  1  0
  8 19  1  0
  9 20  1  0
  9 21  1  0
M  END
