
     RDKit          3D

 21 21  0  0  0  0  0  0  0  0999 V2000
   -2.7852    0.5331   -0.2728 O   0  0  0  0  0  0  0  0  0  0  0  0
   -2.0364   -0.5294    0.2576 C   0  0  0  0  0  0  0  0  0  0  0  0
   -0.6046   -0.2940   -0.1480 C   0  0  0  0  0  0  0  0  0  0  0  0
   -0.1347    1.0278    0.4122 C   0  0  0  0  0  0  0  0  0  0  0  0
    0.9971    1.5250   -0.4562 C   0  0  0  0  0  0  0  0  0  0  0  0
    1.5934    0.4149   -1.0715 O   0  0  0  0  0  0  0  0  0  0  0  0
    2.2802   -0.3508   -0.1542 C   0  0  0  0  0  0  0  0  0  0  0  0
    1.5144   -0.9581    0.7923 O   0  0  0  0  0  0  0  0  0  0  0  0
    0.2914   -1.4231    0.3567 C   0  0  0  0  0  0  0  0  0  0  0  0
   -3.4955    0.1750   -0.8561 H   0  0  0  0  0  0  0  0  0  0  0  0
   -2.1266   -0.5196    1.3582 H   0  0  0  0  0  0  0  0  0  0  0  0
   -2.3988   -1.4902   -0.1877 H   0  0  0  0  0  0  0  0  0  0  0  0
   -0.5092   -0.2574   -1.2390 H   0  0  0  0  0  0  0  0  0  0  0  0
    0.1566    0.9246    1.4806 H   0  0  0  0  0  0  0  0  0  0  0  0
   -1.0016    1.7309    0.3546 H   0  0  0  0  0  0  0  0  0  0  0  0
    0.5109    2.1042   -1.2913 H   0  0  0  0  0  0  0  0  0  0  0  0
    1.7124    2.1510    0.0840 H   0  0  0  0  0  0  0  0  0  0  0  0
    2.9852    0.3518    0.3789 H   0  0  0  0  0  0  0  0  0  0  0  0
    2.9456   -1.0368   -0.7213 H   0  0  0  0  0  0  0  0  0  0  0  0
    0.3442   -2.2611   -0.3495 H   0  0  0  0  0  0  0  0  0  0  0  0
   -0.2387   -1.8179    1.2724 H   0  0  0  0  0  0  0  0  0  0  0  0
  1  2  1  0
  2  3  1  0
  3  4  1  0
  4  5  1  0
  5  6  1  0
  6  7  1  0
  7  8  1  0
  8  9  1  0
  9  3  1  0
  1 10  1  0
  2 11  1  0
  2 12  1  0
  3 13  1  0
  4 14  1  0
  4 15  1  0
  5 16  1  0
  5 17  1  0
  7 18  1  0
  7 19  1  0
  9 20  1  0
  9 21  1  0
M  END
