
     RDKit          3D

 19 20  0  0  0  0  0  0  0  0999 V2000
    2.4279    0.6852   -0.7781 O   0  0  0  0  0  0  0  0  0  0  0  0
    1.8013    0.4889    0.4766 C   0  0  0  0  0  0  0  0  0  0  0  0
    0.5150    0.0534    0.3495 C   0  0  0  0  0  0  0  0  0  0  0  0
    0.0273   -1.2040   -0.3153 C   0  0  0  0  0  0  0  0  0  0  0  0
   -1.2407   -0.5234    0.1437 C   0  0  0  0  0  0  0  0  0  0  0  0
   -2.4215   -0.9175    0.0068 O   0  0  0  0  0  0  0  0  0  0  0  0
   -0.4898   -0.2403    1.4192 C   0  0  0  0  0  0  0  0  0  0  0  0
   -0.6146    0.7483   -0.3738 C   0  0  0  0  0  0  0  0  0  0  0  0
   -0.4946    0.8658   -1.7315 O   0  0  0  0  0  0  0  0  0  0  0  0
    1.9722    0.0900   -1.4223 H   0  0  0  0  0  0  0  0  0  0  0  0
    1.9139    1.4583    0.9989 H   0  0  0  0  0  0  0  0  0  0  0  0
    2.4742   -0.2164    1.0110 H   0  0  0  0  0  0  0  0  0  0  0  0
    0.1641   -1.2716   -1.4037 H   0  0  0  0  0  0  0  0  0  0  0  0
    0.2047   -2.1094    0.2771 H   0  0  0  0  0  0  0  0  0  0  0  0
   -2.9270   -0.5614   -0.7425 H   0  0  0  0  0  0  0  0  0  0  0  0
   -0.3462   -1.1594    1.9954 H   0  0  0  0  0  0  0  0  0  0  0  0
   -0.7704    0.6670    1.9571 H   0  0  0  0  0  0  0  0  0  0  0  0
   -1.0367    1.6137    0.1732 H   0  0  0  0  0  0  0  0  0  0  0  0
   -1.1589    1.5328   -2.0414 H   0  0  0  0  0  0  0  0  0  0  0  0
  1  2  1  0
  2  3  1  0
  3  4  1  0
  4  5  1  0
  5  6  1  0
  5  7  1  0
  5  8  1  0
  8  9  1  0
  7  3  1  0
  8  3  1  0
  1 10  1  0
  2 11  1  0
  2 12  1  0
  4 13  1  0
  4 14  1  0
  6 15  1  0
  7 16  1  0
  7 17  1  0
  8 18  1  0
  9 19  1  0
M  END
