
     RDKit          3D

 19 20  0  0  0  0  0  0  0  0999 V2000
    2.9518   -0.4214    0.3084 O   0  0  0  0  0  0  0  0  0  0  0  0
    1.9718    0.1450   -0.5023 C   0  0  0  0  0  0  0  0  0  0  0  0
    0.5722   -0.2013   -0.0049 C   0  0  0  0  0  0  0  0  0  0  0  0
    0.0365    0.7215    1.0385 C   0  0  0  0  0  0  0  0  0  0  0  0
   -1.4776    0.8261    1.0230 C   0  0  0  0  0  0  0  0  0  0  0  0
   -1.9591   -0.4520    0.7310 O   0  0  0  0  0  0  0  0  0  0  0  0
   -1.8189   -0.6182   -0.6541 C   0  0  0  0  0  0  0  0  0  0  0  0
   -0.3676   -0.7297   -0.9650 C   0  0  0  0  0  0  0  0  0  0  0  0
    0.3166   -1.5497    0.0244 O   0  0  0  0  0  0  0  0  0  0  0  0
    3.0699   -1.3895    0.1630 H   0  0  0  0  0  0  0  0  0  0  0  0
    2.1313    1.2513   -0.4679 H   0  0  0  0  0  0  0  0  0  0  0  0
    2.0946   -0.2667   -1.5255 H   0  0  0  0  0  0  0  0  0  0  0  0
    0.4091    1.7555    0.7825 H   0  0  0  0  0  0  0  0  0  0  0  0
    0.3583    0.5063    2.0610 H   0  0  0  0  0  0  0  0  0  0  0  0
   -1.7652    1.4835    0.1533 H   0  0  0  0  0  0  0  0  0  0  0  0
   -1.8450    1.2197    1.9767 H   0  0  0  0  0  0  0  0  0  0  0  0
   -2.3359    0.1844   -1.1882 H   0  0  0  0  0  0  0  0  0  0  0  0
   -2.3135   -1.5905   -0.9470 H   0  0  0  0  0  0  0  0  0  0  0  0
   -0.0293   -0.8745   -2.0069 H   0  0  0  0  0  0  0  0  0  0  0  0
  1  2  1  0
  2  3  1  0
  3  4  1  0
  4  5  1  0
  5  6  1  0
  6  7  1  0
  7  8  1  0
  8  9  1  0
  8  3  1  0
  9  3  1  0
  1 10  1  0
  2 11  1  0
  2 12  1  0
  4 13  1  0
  4 14  1  0
  5 15  1  0
  5 16  1  0
  7 17  1  0
  7 18  1  0
  8 19  1  0
M  END
