
     RDKit          3D

 19 20  0  0  0  0  0  0  0  0999 V2000
    2.5407    0.1416   -0.9405 O   0  0  0  0  0  0  0  0  0  0  0  0
    1.1806   -0.1563   -0.9487 C   0  0  0  0  0  0  0  0  0  0  0  0
    0.5582    0.3592    0.2850 C   0  0  0  0  0  0  0  0  0  0  0  0
    1.0373   -0.1376    1.6429 C   0  0  0  0  0  0  0  0  0  0  0  0
   -0.2643   -0.6050    1.8219 O   0  0  0  0  0  0  0  0  0  0  0  0
   -0.7943    0.0389    0.7317 C   0  0  0  0  0  0  0  0  0  0  0  0
   -1.8110   -0.6584   -0.1334 C   0  0  0  0  0  0  0  0  0  0  0  0
   -2.2410    0.1396   -1.1930 O   0  0  0  0  0  0  0  0  0  0  0  0
   -0.4494    1.4146    0.3550 C   0  0  0  0  0  0  0  0  0  0  0  0
    3.0775   -0.4460   -1.5118 H   0  0  0  0  0  0  0  0  0  0  0  0
    1.1169   -1.2827   -0.9426 H   0  0  0  0  0  0  0  0  0  0  0  0
    0.6606    0.2054   -1.8261 H   0  0  0  0  0  0  0  0  0  0  0  0
    1.2242    0.6768    2.3768 H   0  0  0  0  0  0  0  0  0  0  0  0
    1.8177   -0.8878    1.5282 H   0  0  0  0  0  0  0  0  0  0  0  0
   -1.5209   -1.6705   -0.4386 H   0  0  0  0  0  0  0  0  0  0  0  0
   -2.7332   -0.7639    0.5130 H   0  0  0  0  0  0  0  0  0  0  0  0
   -2.0913   -0.3554   -2.0184 H   0  0  0  0  0  0  0  0  0  0  0  0
   -0.9210    1.8466   -0.5196 H   0  0  0  0  0  0  0  0  0  0  0  0
   -0.3874    2.1410    1.2183 H   0  0  0  0  0  0  0  0  0  0  0  0
  1  2  1  0
  2  3  1  0
  3  4  1  0
  4  5  1  0
  5  6  1  0
  6  7  1  0
  7  8  1  0
  6  9  1  0
  6  3  1  0
  9  3  1  0
  1 10  1  0
  2 11  1  0
  2 12  1  0
  4 13  1  0
  4 14  1  0
  7 15  1  0
  7 16  1  0
  8 17  1  0
  9 18  1  0
  9 19  1  0
M  END
