
     RDKit          3D

 21 22  0  0  0  0  0  0  0  0999 V2000
    2.0707    0.7934    1.3882 O   0  0  0  0  0  0  0  0  0  0  0  0
    2.1509    0.1063    0.1536 C   0  0  0  0  0  0  0  0  0  0  0  0
    0.6888   -0.1329   -0.2511 C   0  0  0  0  0  0  0  0  0  0  0  0
   -0.0856    1.1250   -0.4118 C   0  0  0  0  0  0  0  0  0  0  0  0
   -1.5512    0.9286   -0.2746 C   0  0  0  0  0  0  0  0  0  0  0  0
   -1.9677   -0.1393    0.6591 C   0  0  0  0  0  0  0  0  0  0  0  0
   -1.2204   -1.2352    0.7592 O   0  0  0  0  0  0  0  0  0  0  0  0
    0.0377   -1.2863    0.2998 C   0  0  0  0  0  0  0  0  0  0  0  0
    0.3613   -1.2414   -1.1758 C   0  0  0  0  0  0  0  0  0  0  0  0
    1.6231    0.2162    2.0592 H   0  0  0  0  0  0  0  0  0  0  0  0
    2.6891   -0.8467    0.3029 H   0  0  0  0  0  0  0  0  0  0  0  0
    2.6419    0.7802   -0.5758 H   0  0  0  0  0  0  0  0  0  0  0  0
    0.1035    1.5120   -1.4572 H   0  0  0  0  0  0  0  0  0  0  0  0
    0.2953    1.9158    0.2654 H   0  0  0  0  0  0  0  0  0  0  0  0
   -2.0213    0.7578   -1.2738 H   0  0  0  0  0  0  0  0  0  0  0  0
   -1.9897    1.9081    0.0738 H   0  0  0  0  0  0  0  0  0  0  0  0
   -3.0266   -0.4332    0.3893 H   0  0  0  0  0  0  0  0  0  0  0  0
   -2.0848    0.3282    1.6818 H   0  0  0  0  0  0  0  0  0  0  0  0
    0.6897   -2.0387    0.8403 H   0  0  0  0  0  0  0  0  0  0  0  0
   -0.5232   -1.1075   -1.8480 H   0  0  0  0  0  0  0  0  0  0  0  0
    1.1183   -1.9106   -1.6045 H   0  0  0  0  0  0  0  0  0  0  0  0
  1  2  1  0
  2  3  1  0
  3  4  1  0
  4  5  1  0
  5  6  1  0
  6  7  1  0
  7  8  1  0
  8  9  1  0
  8  3  1  0
  9  3  1  0
  1 10  1  0
  2 11  1  0
  2 12  1  0
  4 13  1  0
  4 14  1  0
  5 15  1  0
  5 16  1  0
  6 17  1  0
  6 18  1  0
  8 19  1  0
  9 20  1  0
  9 21  1  0
M  END
