
     RDKit          3D

 18 19  0  0  0  0  0  0  0  0999 V2000
    1.6848   -1.6111   -0.0805 O   0  0  0  0  0  0  0  0  0  0  0  0
    1.7816   -0.3802   -0.7294 C   0  0  0  0  0  0  0  0  0  0  0  0
    0.5249    0.4415   -0.5553 C   0  0  0  0  0  0  0  0  0  0  0  0
    0.1673    0.7699    0.8577 C   0  0  0  0  0  0  0  0  0  0  0  0
   -1.2660    0.3612    0.5293 C   0  0  0  0  0  0  0  0  0  0  0  0
   -2.2360    1.3131    0.4047 O   0  0  0  0  0  0  0  0  0  0  0  0
   -1.4550   -1.0604    0.2123 C   0  0  0  0  0  0  0  0  0  0  0  0
   -0.7607   -0.2656   -0.8081 C   0  0  0  0  0  0  0  0  0  0  0  0
    1.9503   -1.4841    0.8725 H   0  0  0  0  0  0  0  0  0  0  0  0
    2.0617   -0.5161   -1.7780 H   0  0  0  0  0  0  0  0  0  0  0  0
    2.6334    0.1562   -0.2420 H   0  0  0  0  0  0  0  0  0  0  0  0
    0.5903    1.3651   -1.1656 H   0  0  0  0  0  0  0  0  0  0  0  0
    0.2784    1.8291    1.1468 H   0  0  0  0  0  0  0  0  0  0  0  0
    0.5671    0.0379    1.5980 H   0  0  0  0  0  0  0  0  0  0  0  0
   -1.8101    2.2041    0.5761 H   0  0  0  0  0  0  0  0  0  0  0  0
   -0.8928   -1.7759    0.8774 H   0  0  0  0  0  0  0  0  0  0  0  0
   -2.4680   -1.3992    0.0008 H   0  0  0  0  0  0  0  0  0  0  0  0
   -1.3514    0.0144   -1.7168 H   0  0  0  0  0  0  0  0  0  0  0  0
  1  2  1  0
  2  3  1  0
  3  4  1  0
  4  5  1  0
  5  6  1  0
  5  7  1  0
  7  8  1  0
  8  3  1  0
  8  5  1  0
  1  9  1  0
  2 10  1  0
  2 11  1  0
  3 12  1  0
  4 13  1  0
  4 14  1  0
  6 15  1  0
  7 16  1  0
  7 17  1  0
  8 18  1  0
M  END
