
     RDKit          3D

 19 20  0  0  0  0  0  0  0  0999 V2000
   -1.0225    2.0518    0.7918 O   0  0  0  0  0  0  0  0  0  0  0  0
   -1.3996    0.8130    0.3020 C   0  0  0  0  0  0  0  0  0  0  0  0
   -0.2457   -0.0144   -0.1703 C   0  0  0  0  0  0  0  0  0  0  0  0
   -0.7366   -1.4195   -0.5246 C   0  0  0  0  0  0  0  0  0  0  0  0
   -1.4470   -1.8849    0.5822 O   0  0  0  0  0  0  0  0  0  0  0  0
    0.4926    0.5776   -1.2083 O   0  0  0  0  0  0  0  0  0  0  0  0
    1.6326    0.0588   -0.6115 C   0  0  0  0  0  0  0  0  0  0  0  0
    2.1244    0.7459    0.5971 C   0  0  0  0  0  0  0  0  0  0  0  0
    0.9412   -0.1053    0.7240 C   0  0  0  0  0  0  0  0  0  0  0  0
   -1.0355    2.6911    0.0223 H   0  0  0  0  0  0  0  0  0  0  0  0
   -2.1299    0.9031   -0.5176 H   0  0  0  0  0  0  0  0  0  0  0  0
   -1.8883    0.2694    1.1340 H   0  0  0  0  0  0  0  0  0  0  0  0
   -1.4050   -1.3793   -1.4158 H   0  0  0  0  0  0  0  0  0  0  0  0
    0.1332   -2.0851   -0.6645 H   0  0  0  0  0  0  0  0  0  0  0  0
   -2.3950   -1.6141    0.4860 H   0  0  0  0  0  0  0  0  0  0  0  0
    2.1377   -0.7852   -1.0858 H   0  0  0  0  0  0  0  0  0  0  0  0
    3.0931    0.3786    0.9951 H   0  0  0  0  0  0  0  0  0  0  0  0
    2.0566    1.8690    0.6702 H   0  0  0  0  0  0  0  0  0  0  0  0
    1.0938   -1.0705    1.2885 H   0  0  0  0  0  0  0  0  0  0  0  0
  1  2  1  0
  2  3  1  0
  3  4  1  0
  4  5  1  0
  3  6  1  0
  6  7  1  0
  7  8  1  0
  8  9  1  0
  9  3  1  0
  9  7  1  0
  1 10  1  0
  2 11  1  0
  2 12  1  0
  4 13  1  0
  4 14  1  0
  5 15  1  0
  7 16  1  0
  8 17  1  0
  8 18  1  0
  9 19  1  0
M  END
