
     RDKit          3D

 19 21  0  0  0  0  0  0  0  0999 V2000
    2.2471   -1.1446   -1.5729 O   0  0  0  0  0  0  0  0  0  0  0  0
    1.6787   -1.1044   -0.2952 C   0  0  0  0  0  0  0  0  0  0  0  0
    0.6648    0.0076   -0.1613 C   0  0  0  0  0  0  0  0  0  0  0  0
    1.1719    1.3393   -0.3839 O   0  0  0  0  0  0  0  0  0  0  0  0
    0.5840    0.9445    0.8298 C   0  0  0  0  0  0  0  0  0  0  0  0
   -0.8759    1.2861    1.0609 C   0  0  0  0  0  0  0  0  0  0  0  0
   -1.6779    0.5502    0.0429 C   0  0  0  0  0  0  0  0  0  0  0  0
   -1.7292   -0.9145   -0.0415 C   0  0  0  0  0  0  0  0  0  0  0  0
   -0.6751   -0.1914   -0.7898 C   0  0  0  0  0  0  0  0  0  0  0  0
    2.9571   -0.4662   -1.6347 H   0  0  0  0  0  0  0  0  0  0  0  0
    2.5040   -0.9937    0.4491 H   0  0  0  0  0  0  0  0  0  0  0  0
    1.1765   -2.0551   -0.0837 H   0  0  0  0  0  0  0  0  0  0  0  0
    1.2257    1.1762    1.6972 H   0  0  0  0  0  0  0  0  0  0  0  0
   -1.0030    2.3686    0.9294 H   0  0  0  0  0  0  0  0  0  0  0  0
   -1.1115    1.0278    2.1044 H   0  0  0  0  0  0  0  0  0  0  0  0
   -2.4787    1.1359   -0.4914 H   0  0  0  0  0  0  0  0  0  0  0  0
   -1.3903   -1.5617    0.8096 H   0  0  0  0  0  0  0  0  0  0  0  0
   -2.5362   -1.3684   -0.6200 H   0  0  0  0  0  0  0  0  0  0  0  0
   -0.7320   -0.0363   -1.8713 H   0  0  0  0  0  0  0  0  0  0  0  0
  1  2  1  0
  2  3  1  0
  3  4  1  0
  4  5  1  0
  5  6  1  0
  6  7  1  0
  7  8  1  0
  8  9  1  0
  5  3  1  0
  9  7  1  0
  9  3  1  0
  1 10  1  0
  2 11  1  0
  2 12  1  0
  5 13  1  0
  6 14  1  0
  6 15  1  0
  7 16  1  0
  8 17  1  0
  8 18  1  0
  9 19  1  0
M  END
