
     RDKit          3D

 21 21  0  0  0  0  0  0  0  0999 V2000
    2.6836    0.1556   -0.9363 O   0  0  0  0  0  0  0  0  0  0  0  0
    2.2659   -0.1806    0.3461 C   0  0  0  0  0  0  0  0  0  0  0  0
    0.7530   -0.1633    0.4677 C   0  0  0  0  0  0  0  0  0  0  0  0
    0.2338    1.1710    0.1614 C   0  0  0  0  0  0  0  0  0  0  0  0
   -1.0356    1.4554   -0.1474 C   0  0  0  0  0  0  0  0  0  0  0  0
   -2.2558    0.6874   -0.2903 C   0  0  0  0  0  0  0  0  0  0  0  0
   -2.1297   -0.6195   -0.6787 O   0  0  0  0  0  0  0  0  0  0  0  0
   -1.3141   -1.3785    0.1255 C   0  0  0  0  0  0  0  0  0  0  0  0
    0.1046   -1.1869   -0.3977 C   0  0  0  0  0  0  0  0  0  0  0  0
    3.1289    1.0492   -0.9740 H   0  0  0  0  0  0  0  0  0  0  0  0
    2.7022   -1.1237    0.6811 H   0  0  0  0  0  0  0  0  0  0  0  0
    2.6444    0.6155    1.0245 H   0  0  0  0  0  0  0  0  0  0  0  0
    0.5424   -0.4589    1.5385 H   0  0  0  0  0  0  0  0  0  0  0  0
    0.9508    1.9791    0.1926 H   0  0  0  0  0  0  0  0  0  0  0  0
   -1.1909    2.5351   -0.3387 H   0  0  0  0  0  0  0  0  0  0  0  0
   -2.7787    0.6794    0.7117 H   0  0  0  0  0  0  0  0  0  0  0  0
   -2.9681    1.1943   -0.9725 H   0  0  0  0  0  0  0  0  0  0  0  0
   -1.6021   -2.4451    0.1673 H   0  0  0  0  0  0  0  0  0  0  0  0
   -1.4193   -0.9816    1.1640 H   0  0  0  0  0  0  0  0  0  0  0  0
    0.1056   -0.8179   -1.4463 H   0  0  0  0  0  0  0  0  0  0  0  0
    0.5791   -2.1662   -0.3986 H   0  0  0  0  0  0  0  0  0  0  0  0
  1  2  1  0
  2  3  1  0
  3  4  1  0
  4  5  2  0
  5  6  1  0
  6  7  1  0
  7  8  1  0
  8  9  1  0
  9  3  1  0
  1 10  1  0
  2 11  1  0
  2 12  1  0
  3 13  1  0
  4 14  1  0
  5 15  1  0
  6 16  1  0
  6 17  1  0
  8 18  1  0
  8 19  1  0
  9 20  1  0
  9 21  1  0
M  END
