
     RDKit          3D

 21 21  0  0  0  0  0  0  0  0999 V2000
    2.9282    0.5002    0.3479 O   0  0  0  0  0  0  0  0  0  0  0  0
    1.8516   -0.1250   -0.2768 C   0  0  0  0  0  0  0  0  0  0  0  0
    0.7803   -0.4375    0.7274 C   0  0  0  0  0  0  0  0  0  0  0  0
    0.1084    0.5996    1.5304 C   0  0  0  0  0  0  0  0  0  0  0  0
   -0.6457    0.0026    0.4096 C   0  0  0  0  0  0  0  0  0  0  0  0
   -1.6715   -1.0714    0.6279 C   0  0  0  0  0  0  0  0  0  0  0  0
   -1.3240   -2.1427   -0.2238 O   0  0  0  0  0  0  0  0  0  0  0  0
   -0.8946    0.8504   -0.8164 C   0  0  0  0  0  0  0  0  0  0  0  0
   -0.2086    2.0467   -0.7618 O   0  0  0  0  0  0  0  0  0  0  0  0
    3.7472    0.4826   -0.1983 H   0  0  0  0  0  0  0  0  0  0  0  0
    1.4234    0.4405   -1.1151 H   0  0  0  0  0  0  0  0  0  0  0  0
    2.2562   -1.0789   -0.7179 H   0  0  0  0  0  0  0  0  0  0  0  0
    0.9239   -1.4179    1.2236 H   0  0  0  0  0  0  0  0  0  0  0  0
    0.4682    1.6404    1.3629 H   0  0  0  0  0  0  0  0  0  0  0  0
   -0.1155    0.3869    2.5826 H   0  0  0  0  0  0  0  0  0  0  0  0
   -2.6901   -0.7636    0.3909 H   0  0  0  0  0  0  0  0  0  0  0  0
   -1.5961   -1.4882    1.6742 H   0  0  0  0  0  0  0  0  0  0  0  0
   -2.1158   -2.5492   -0.6414 H   0  0  0  0  0  0  0  0  0  0  0  0
   -0.6062    0.2305   -1.6919 H   0  0  0  0  0  0  0  0  0  0  0  0
   -1.9779    1.0945   -0.8124 H   0  0  0  0  0  0  0  0  0  0  0  0
   -0.6414    2.7994   -1.1916 H   0  0  0  0  0  0  0  0  0  0  0  0
  1  2  1  0
  2  3  1  0
  3  4  1  0
  4  5  1  0
  5  6  1  0
  6  7  1  0
  5  8  1  0
  8  9  1  0
  5  3  1  0
  1 10  1  0
  2 11  1  0
  2 12  1  0
  3 13  1  0
  4 14  1  0
  4 15  1  0
  6 16  1  0
  6 17  1  0
  7 18  1  0
  8 19  1  0
  8 20  1  0
  9 21  1  0
M  END
