
     RDKit          3D

 19 21  0  0  0  0  0  0  0  0999 V2000
    2.5745   -0.5072   -0.6081 O   0  0  0  0  0  0  0  0  0  0  0  0
    1.6712   -0.3303    0.4626 C   0  0  0  0  0  0  0  0  0  0  0  0
    0.4362    0.1230    0.0985 C   0  0  0  0  0  0  0  0  0  0  0  0
    0.1551    1.4468   -0.6176 C   0  0  0  0  0  0  0  0  0  0  0  0
   -1.2009    0.8258   -0.4383 C   0  0  0  0  0  0  0  0  0  0  0  0
   -0.5536   -0.4682   -0.8466 C   0  0  0  0  0  0  0  0  0  0  0  0
   -1.2863   -1.4639   -0.0554 C   0  0  0  0  0  0  0  0  0  0  0  0
   -1.3857   -0.8722    1.1618 C   0  0  0  0  0  0  0  0  0  0  0  0
   -0.7418    0.4454    0.9365 C   0  0  0  0  0  0  0  0  0  0  0  0
    2.1988   -0.0830   -1.4238 H   0  0  0  0  0  0  0  0  0  0  0  0
    2.2155    0.3747    1.1562 H   0  0  0  0  0  0  0  0  0  0  0  0
    1.6742   -1.3007    1.0019 H   0  0  0  0  0  0  0  0  0  0  0  0
    0.3172    2.3410    0.0036 H   0  0  0  0  0  0  0  0  0  0  0  0
    0.5199    1.4883   -1.6542 H   0  0  0  0  0  0  0  0  0  0  0  0
   -2.0897    1.1856   -0.7214 H   0  0  0  0  0  0  0  0  0  0  0  0
   -0.3079   -0.6431   -1.8625 H   0  0  0  0  0  0  0  0  0  0  0  0
   -1.6568   -2.4337   -0.3675 H   0  0  0  0  0  0  0  0  0  0  0  0
   -1.8339   -1.2904    2.0606 H   0  0  0  0  0  0  0  0  0  0  0  0
   -0.7060    1.1620    1.7137 H   0  0  0  0  0  0  0  0  0  0  0  0
  1  2  1  0
  2  3  1  0
  3  4  1  0
  4  5  1  0
  5  6  1  0
  6  7  1  0
  7  8  2  0
  8  9  1  0
  6  3  1  0
  9  3  1  0
  9  5  1  0
  1 10  1  0
  2 11  1  0
  2 12  1  0
  4 13  1  0
  4 14  1  0
  5 15  1  0
  6 16  1  0
  7 17  1  0
  8 18  1  0
  9 19  1  0
M  END
