
     RDKit          3D

 19 19  0  0  0  0  0  0  0  0999 V2000
    2.3592   -1.1995    0.1827 O   0  0  0  0  0  0  0  0  0  0  0  0
    1.9576   -0.0993   -0.5740 C   0  0  0  0  0  0  0  0  0  0  0  0
    0.5816    0.2875   -0.0997 C   0  0  0  0  0  0  0  0  0  0  0  0
    0.0775    1.3927   -0.7996 O   0  0  0  0  0  0  0  0  0  0  0  0
   -1.0285    1.8126   -0.0233 C   0  0  0  0  0  0  0  0  0  0  0  0
   -2.0637    0.9412   -0.1041 O   0  0  0  0  0  0  0  0  0  0  0  0
   -1.7943   -0.3775    0.0341 C   0  0  0  0  0  0  0  0  0  0  0  0
   -0.4147   -0.8218   -0.2775 C   0  0  0  0  0  0  0  0  0  0  0  0
   -0.0738   -1.9334    0.5067 O   0  0  0  0  0  0  0  0  0  0  0  0
    2.6284   -0.9041    1.1106 H   0  0  0  0  0  0  0  0  0  0  0  0
    1.9238   -0.4274   -1.6251 H   0  0  0  0  0  0  0  0  0  0  0  0
    2.6152    0.7818   -0.4050 H   0  0  0  0  0  0  0  0  0  0  0  0
    0.6211    0.5251    0.9860 H   0  0  0  0  0  0  0  0  0  0  0  0
   -1.3694    2.8119   -0.3840 H   0  0  0  0  0  0  0  0  0  0  0  0
   -0.6088    1.9495    1.0065 H   0  0  0  0  0  0  0  0  0  0  0  0
   -2.4933   -0.9461   -0.6471 H   0  0  0  0  0  0  0  0  0  0  0  0
   -2.0911   -0.7323    1.0652 H   0  0  0  0  0  0  0  0  0  0  0  0
   -0.3346   -1.1654   -1.3470 H   0  0  0  0  0  0  0  0  0  0  0  0
   -0.4924   -1.8954    1.3944 H   0  0  0  0  0  0  0  0  0  0  0  0
  1  2  1  0
  2  3  1  0
  3  4  1  0
  4  5  1  0
  5  6  1  0
  6  7  1  0
  7  8  1  0
  8  9  1  0
  8  3  1  0
  1 10  1  0
  2 11  1  0
  2 12  1  0
  3 13  1  0
  5 14  1  0
  5 15  1  0
  7 16  1  0
  7 17  1  0
  8 18  1  0
  9 19  1  0
M  END
