
     RDKit          3D

 20 21  0  0  0  0  0  0  0  0999 V2000
    2.6463    0.2965    0.2973 O   0  0  0  0  0  0  0  0  0  0  0  0
    1.5346    1.1674    0.2481 C   0  0  0  0  0  0  0  0  0  0  0  0
    0.3316    0.3795    0.1144 C   0  0  0  0  0  0  0  0  0  0  0  0
   -0.0497   -0.6279    1.1494 C   0  0  0  0  0  0  0  0  0  0  0  0
   -1.2699   -1.2489    0.4312 C   0  0  0  0  0  0  0  0  0  0  0  0
   -1.3221   -0.3393   -0.7630 C   0  0  0  0  0  0  0  0  0  0  0  0
    0.1226   -0.3566   -1.2198 C   0  0  0  0  0  0  0  0  0  0  0  0
   -0.9844    1.0463   -0.1842 C   0  0  0  0  0  0  0  0  0  0  0  0
    2.4073   -0.5858   -0.1022 H   0  0  0  0  0  0  0  0  0  0  0  0
    1.6619    1.8148   -0.6481 H   0  0  0  0  0  0  0  0  0  0  0  0
    1.4992    1.7698    1.1707 H   0  0  0  0  0  0  0  0  0  0  0  0
    0.7251   -1.3738    1.3244 H   0  0  0  0  0  0  0  0  0  0  0  0
   -0.3878   -0.0928    2.0467 H   0  0  0  0  0  0  0  0  0  0  0  0
   -2.1621   -1.2137    1.0606 H   0  0  0  0  0  0  0  0  0  0  0  0
   -0.9674   -2.2719    0.1282 H   0  0  0  0  0  0  0  0  0  0  0  0
   -2.1007   -0.4042   -1.4714 H   0  0  0  0  0  0  0  0  0  0  0  0
    0.6025   -1.3392   -1.2370 H   0  0  0  0  0  0  0  0  0  0  0  0
    0.3081    0.3354   -2.0377 H   0  0  0  0  0  0  0  0  0  0  0  0
   -1.6202    1.2388    0.6808 H   0  0  0  0  0  0  0  0  0  0  0  0
   -0.9748    1.8053   -0.9884 H   0  0  0  0  0  0  0  0  0  0  0  0
  1  2  1  0
  2  3  1  0
  3  4  1  0
  4  5  1  0
  5  6  1  0
  6  7  1  0
  6  8  1  0
  7  3  1  0
  8  3  1  0
  1  9  1  0
  2 10  1  0
  2 11  1  0
  4 12  1  0
  4 13  1  0
  5 14  1  0
  5 15  1  0
  6 16  1  0
  7 17  1  0
  7 18  1  0
  8 19  1  0
  8 20  1  0
M  END
