
     RDKit          3D

 19 20  0  0  0  0  0  0  0  0999 V2000
    2.7990   -0.5203    0.8522 O   0  0  0  0  0  0  0  0  0  0  0  0
    2.2811    0.0058   -0.3285 C   0  0  0  0  0  0  0  0  0  0  0  0
    0.8094    0.0579   -0.2705 C   0  0  0  0  0  0  0  0  0  0  0  0
   -0.0506   -0.5432   -1.0730 C   0  0  0  0  0  0  0  0  0  0  0  0
   -1.3732   -0.1939   -0.6285 C   0  0  0  0  0  0  0  0  0  0  0  0
   -1.6116    1.1455   -1.0841 O   0  0  0  0  0  0  0  0  0  0  0  0
   -2.2743   -0.5994    0.3507 C   0  0  0  0  0  0  0  0  0  0  0  0
   -1.0287   -0.3062    0.9159 C   0  0  0  0  0  0  0  0  0  0  0  0
   -0.0160    0.7979    0.7767 C   0  0  0  0  0  0  0  0  0  0  0  0
    3.5652   -0.0051    1.1891 H   0  0  0  0  0  0  0  0  0  0  0  0
    2.6630   -0.6219   -1.1502 H   0  0  0  0  0  0  0  0  0  0  0  0
    2.7296    1.0201   -0.4883 H   0  0  0  0  0  0  0  0  0  0  0  0
    0.2154   -1.1719   -1.8982 H   0  0  0  0  0  0  0  0  0  0  0  0
   -2.5746    1.1079   -1.3807 H   0  0  0  0  0  0  0  0  0  0  0  0
   -3.1480    0.0508    0.6408 H   0  0  0  0  0  0  0  0  0  0  0  0
   -2.6546   -1.6582    0.3214 H   0  0  0  0  0  0  0  0  0  0  0  0
   -0.4392   -1.2313    1.2136 H   0  0  0  0  0  0  0  0  0  0  0  0
   -0.4366    1.7281    0.3420 H   0  0  0  0  0  0  0  0  0  0  0  0
    0.5446    0.9373    1.6998 H   0  0  0  0  0  0  0  0  0  0  0  0
  1  2  1  0
  2  3  1  0
  3  4  2  0
  4  5  1  0
  5  6  1  0
  5  7  1  0
  7  8  1  0
  8  9  1  0
  9  3  1  0
  8  5  1  0
  1 10  1  0
  2 11  1  0
  2 12  1  0
  4 13  1  0
  6 14  1  0
  7 15  1  0
  7 16  1  0
  8 17  1  0
  9 18  1  0
  9 19  1  0
M  END
