
     RDKit          3D

 21 22  0  0  0  0  0  0  0  0999 V2000
   -0.3443    2.1802    0.7154 O   0  0  0  0  0  0  0  0  0  0  0  0
    0.1863    1.5193   -0.4096 C   0  0  0  0  0  0  0  0  0  0  0  0
    0.3417    0.0620   -0.0578 C   0  0  0  0  0  0  0  0  0  0  0  0
   -0.9400   -0.4517    0.5498 C   0  0  0  0  0  0  0  0  0  0  0  0
   -2.2078   -0.4125   -0.2177 C   0  0  0  0  0  0  0  0  0  0  0  0
   -1.4868   -1.7011    0.0128 C   0  0  0  0  0  0  0  0  0  0  0  0
    1.5417   -0.2911    0.7701 C   0  0  0  0  0  0  0  0  0  0  0  0
    2.1436   -0.3761   -0.6112 C   0  0  0  0  0  0  0  0  0  0  0  0
    0.8580   -0.6998   -1.0889 O   0  0  0  0  0  0  0  0  0  0  0  0
   -0.1232    3.1315    0.6076 H   0  0  0  0  0  0  0  0  0  0  0  0
   -0.6245    1.5610   -1.1918 H   0  0  0  0  0  0  0  0  0  0  0  0
    1.0880    1.9890   -0.7912 H   0  0  0  0  0  0  0  0  0  0  0  0
   -0.9785   -0.2698    1.6578 H   0  0  0  0  0  0  0  0  0  0  0  0
   -2.1388    0.0661   -1.2381 H   0  0  0  0  0  0  0  0  0  0  0  0
   -3.1551   -0.2597    0.3372 H   0  0  0  0  0  0  0  0  0  0  0  0
   -1.9757   -2.4177    0.7119 H   0  0  0  0  0  0  0  0  0  0  0  0
   -0.9598   -2.2174   -0.8135 H   0  0  0  0  0  0  0  0  0  0  0  0
    1.3826   -1.2900    1.2441 H   0  0  0  0  0  0  0  0  0  0  0  0
    1.9473    0.4843    1.4261 H   0  0  0  0  0  0  0  0  0  0  0  0
    2.8949   -1.1807   -0.7558 H   0  0  0  0  0  0  0  0  0  0  0  0
    2.5503    0.5742   -0.9675 H   0  0  0  0  0  0  0  0  0  0  0  0
  1  2  1  0
  2  3  1  0
  3  4  1  0
  4  5  1  0
  5  6  1  0
  3  7  1  0
  7  8  1  0
  8  9  1  0
  9  3  1  0
  6  4  1  0
  1 10  1  0
  2 11  1  0
  2 12  1  0
  4 13  1  0
  5 14  1  0
  5 15  1  0
  6 16  1  0
  6 17  1  0
  7 18  1  0
  7 19  1  0
  8 20  1  0
  8 21  1  0
M  END
