
     RDKit          3D

 19 20  0  0  0  0  0  0  0  0999 V2000
    3.0146   -0.0409   -0.1164 O   0  0  0  0  0  0  0  0  0  0  0  0
    1.9866   -0.5213   -0.9286 C   0  0  0  0  0  0  0  0  0  0  0  0
    0.6672   -0.3485   -0.2721 C   0  0  0  0  0  0  0  0  0  0  0  0
   -0.1568   -1.3347    0.0235 C   0  0  0  0  0  0  0  0  0  0  0  0
   -1.3788   -0.8019    0.6703 C   0  0  0  0  0  0  0  0  0  0  0  0
   -2.2828   -0.0439   -0.2436 C   0  0  0  0  0  0  0  0  0  0  0  0
   -1.3033    0.7102    0.5285 C   0  0  0  0  0  0  0  0  0  0  0  0
    0.1048    0.9382    0.1358 C   0  0  0  0  0  0  0  0  0  0  0  0
    0.2763    1.9439   -0.8082 O   0  0  0  0  0  0  0  0  0  0  0  0
    3.1042   -0.5554    0.7085 H   0  0  0  0  0  0  0  0  0  0  0  0
    2.0424    0.0142   -1.8908 H   0  0  0  0  0  0  0  0  0  0  0  0
    2.1921   -1.5966   -1.0971 H   0  0  0  0  0  0  0  0  0  0  0  0
    0.0345   -2.3719   -0.1776 H   0  0  0  0  0  0  0  0  0  0  0  0
   -1.7260   -1.2023    1.6318 H   0  0  0  0  0  0  0  0  0  0  0  0
   -2.1436   -0.1871   -1.3536 H   0  0  0  0  0  0  0  0  0  0  0  0
   -3.3280   -0.0003    0.0493 H   0  0  0  0  0  0  0  0  0  0  0  0
   -1.6898    1.3342    1.3580 H   0  0  0  0  0  0  0  0  0  0  0  0
    0.6655    1.2862    1.0517 H   0  0  0  0  0  0  0  0  0  0  0  0
   -0.0789    2.7779   -0.4287 H   0  0  0  0  0  0  0  0  0  0  0  0
  1  2  1  0
  2  3  1  0
  3  4  2  0
  4  5  1  0
  5  6  1  0
  6  7  1  0
  7  8  1  0
  8  9  1  0
  8  3  1  0
  7  5  1  0
  1 10  1  0
  2 11  1  0
  2 12  1  0
  4 13  1  0
  5 14  1  0
  6 15  1  0
  6 16  1  0
  7 17  1  0
  8 18  1  0
  9 19  1  0
M  END
