
     RDKit          3D

 21 21  0  0  0  0  0  0  0  0999 V2000
    1.6685   -0.1234    1.1843 O   0  0  0  0  0  0  0  0  0  0  0  0
    1.6068    0.6272    0.0424 C   0  0  0  0  0  0  0  0  0  0  0  0
    0.3266    0.4947   -0.7188 C   0  0  0  0  0  0  0  0  0  0  0  0
    0.1198   -0.9307   -1.1329 C   0  0  0  0  0  0  0  0  0  0  0  0
   -0.2369   -1.8256    0.0215 C   0  0  0  0  0  0  0  0  0  0  0  0
   -0.7475   -1.1720    1.1087 O   0  0  0  0  0  0  0  0  0  0  0  0
   -1.5581   -0.1010    0.8244 C   0  0  0  0  0  0  0  0  0  0  0  0
   -0.8781    0.9753    0.0091 C   0  0  0  0  0  0  0  0  0  0  0  0
   -0.6324    2.1295    0.7603 O   0  0  0  0  0  0  0  0  0  0  0  0
    2.5660   -0.0189    1.5763 H   0  0  0  0  0  0  0  0  0  0  0  0
    2.4299    0.2926   -0.6390 H   0  0  0  0  0  0  0  0  0  0  0  0
    1.8412    1.6774    0.3031 H   0  0  0  0  0  0  0  0  0  0  0  0
    0.4533    1.0883   -1.6692 H   0  0  0  0  0  0  0  0  0  0  0  0
    1.0349   -1.3058   -1.6136 H   0  0  0  0  0  0  0  0  0  0  0  0
   -0.7537   -0.9288   -1.8500 H   0  0  0  0  0  0  0  0  0  0  0  0
   -0.9038   -2.6424   -0.3639 H   0  0  0  0  0  0  0  0  0  0  0  0
    0.6858   -2.3751    0.3722 H   0  0  0  0  0  0  0  0  0  0  0  0
   -2.5067   -0.4569    0.3499 H   0  0  0  0  0  0  0  0  0  0  0  0
   -1.8284    0.3750    1.8010 H   0  0  0  0  0  0  0  0  0  0  0  0
   -1.6316    1.2919   -0.7719 H   0  0  0  0  0  0  0  0  0  0  0  0
   -1.0555    2.9289    0.4058 H   0  0  0  0  0  0  0  0  0  0  0  0
  1  2  1  0
  2  3  1  0
  3  4  1  0
  4  5  1  0
  5  6  1  0
  6  7  1  0
  7  8  1  0
  8  9  1  0
  8  3  1  0
  1 10  1  0
  2 11  1  0
  2 12  1  0
  3 13  1  0
  4 14  1  0
  4 15  1  0
  5 16  1  0
  5 17  1  0
  7 18  1  0
  7 19  1  0
  8 20  1  0
  9 21  1  0
M  END
