
     RDKit          3D

 18 19  0  0  0  0  0  0  0  0999 V2000
    3.0239   -0.1784    0.6554 O   0  0  0  0  0  0  0  0  0  0  0  0
    2.1215   -0.6164   -0.3107 C   0  0  0  0  0  0  0  0  0  0  0  0
    1.0115    0.3960   -0.5220 C   0  0  0  0  0  0  0  0  0  0  0  0
    0.0371   -0.0533   -1.5504 O   0  0  0  0  0  0  0  0  0  0  0  0
   -0.3029    0.1816   -0.2460 C   0  0  0  0  0  0  0  0  0  0  0  0
   -1.0307   -0.8724    0.4795 C   0  0  0  0  0  0  0  0  0  0  0  0
   -2.3058   -0.0323    0.3195 C   0  0  0  0  0  0  0  0  0  0  0  0
   -1.3600    1.1639    0.1380 C   0  0  0  0  0  0  0  0  0  0  0  0
    3.5608    0.5391    0.2206 H   0  0  0  0  0  0  0  0  0  0  0  0
    2.7118   -0.7845   -1.2401 H   0  0  0  0  0  0  0  0  0  0  0  0
    1.6941   -1.5755    0.0878 H   0  0  0  0  0  0  0  0  0  0  0  0
    1.3861    1.3935   -0.8336 H   0  0  0  0  0  0  0  0  0  0  0  0
   -0.8159   -0.9852    1.5612 H   0  0  0  0  0  0  0  0  0  0  0  0
   -1.1708   -1.8330   -0.0222 H   0  0  0  0  0  0  0  0  0  0  0  0
   -2.8478   -0.2241   -0.6255 H   0  0  0  0  0  0  0  0  0  0  0  0
   -2.9376    0.0155    1.2053 H   0  0  0  0  0  0  0  0  0  0  0  0
   -1.1606    1.6438    1.1155 H   0  0  0  0  0  0  0  0  0  0  0  0
   -1.6147    1.8218   -0.6967 H   0  0  0  0  0  0  0  0  0  0  0  0
  1  2  1  0
  2  3  1  0
  3  4  1  0
  4  5  1  0
  5  6  1  0
  6  7  1  0
  7  8  1  0
  5  3  1  0
  8  5  1  0
  1  9  1  0
  2 10  1  0
  2 11  1  0
  3 12  1  0
  6 13  1  0
  6 14  1  0
  7 15  1  0
  7 16  1  0
  8 17  1  0
  8 18  1  0
M  END
