
     RDKit          3D

 19 20  0  0  0  0  0  0  0  0999 V2000
    2.6547    0.6063   -0.4231 O   0  0  0  0  0  0  0  0  0  0  0  0
    1.6592   -0.3711   -0.4130 C   0  0  0  0  0  0  0  0  0  0  0  0
    0.7575   -0.0668    0.7541 C   0  0  0  0  0  0  0  0  0  0  0  0
   -0.3774   -1.0773    0.8667 C   0  0  0  0  0  0  0  0  0  0  0  0
   -1.5837   -0.2046    0.8606 C   0  0  0  0  0  0  0  0  0  0  0  0
   -1.8220    0.3135   -0.5386 C   0  0  0  0  0  0  0  0  0  0  0  0
   -0.6429    1.0624   -0.7394 O   0  0  0  0  0  0  0  0  0  0  0  0
   -0.0486    1.2072    0.4882 C   0  0  0  0  0  0  0  0  0  0  0  0
   -1.0792    0.9899    1.4354 O   0  0  0  0  0  0  0  0  0  0  0  0
    3.2743    0.3600    0.3299 H   0  0  0  0  0  0  0  0  0  0  0  0
    1.0434   -0.2708   -1.3449 H   0  0  0  0  0  0  0  0  0  0  0  0
    2.0645   -1.3849   -0.3153 H   0  0  0  0  0  0  0  0  0  0  0  0
    1.2815    0.0839    1.7011 H   0  0  0  0  0  0  0  0  0  0  0  0
   -0.3480   -1.6791   -0.0693 H   0  0  0  0  0  0  0  0  0  0  0  0
   -0.2668   -1.7055    1.7648 H   0  0  0  0  0  0  0  0  0  0  0  0
   -2.4578   -0.5806    1.3631 H   0  0  0  0  0  0  0  0  0  0  0  0
   -2.6473    1.0642   -0.4917 H   0  0  0  0  0  0  0  0  0  0  0  0
   -1.9667   -0.4586   -1.2858 H   0  0  0  0  0  0  0  0  0  0  0  0
    0.5053    2.1119    0.6581 H   0  0  0  0  0  0  0  0  0  0  0  0
  1  2  1  0
  2  3  1  0
  3  4  1  0
  4  5  1  0
  5  6  1  0
  6  7  1  0
  7  8  1  0
  8  9  1  0
  8  3  1  0
  9  5  1  0
  1 10  1  0
  2 11  1  0
  2 12  1  0
  3 13  1  0
  4 14  1  0
  4 15  1  0
  5 16  1  0
  6 17  1  0
  6 18  1  0
  8 19  1  0
M  END
