
     RDKit          3D

 21 21  0  0  0  0  0  0  0  0999 V2000
    2.6221   -0.3009   -1.2744 O   0  0  0  0  0  0  0  0  0  0  0  0
    1.8984   -0.8739   -0.2299 C   0  0  0  0  0  0  0  0  0  0  0  0
    0.7523    0.0314    0.1250 C   0  0  0  0  0  0  0  0  0  0  0  0
   -0.1655    0.2269   -1.0654 C   0  0  0  0  0  0  0  0  0  0  0  0
   -1.4586    0.6454   -0.3493 C   0  0  0  0  0  0  0  0  0  0  0  0
   -2.5323    0.6916   -1.1990 O   0  0  0  0  0  0  0  0  0  0  0  0
   -1.5598   -0.4357    0.6935 C   0  0  0  0  0  0  0  0  0  0  0  0
   -0.1206   -0.5312    1.1979 C   0  0  0  0  0  0  0  0  0  0  0  0
   -0.0614    0.3397    2.3086 O   0  0  0  0  0  0  0  0  0  0  0  0
    2.9529    0.6068   -1.0165 H   0  0  0  0  0  0  0  0  0  0  0  0
    2.5496   -1.0231    0.6348 H   0  0  0  0  0  0  0  0  0  0  0  0
    1.5114   -1.8437   -0.6187 H   0  0  0  0  0  0  0  0  0  0  0  0
    1.2107    1.0152    0.4328 H   0  0  0  0  0  0  0  0  0  0  0  0
    0.1928    0.9896   -1.7540 H   0  0  0  0  0  0  0  0  0  0  0  0
   -0.3217   -0.7649   -1.5347 H   0  0  0  0  0  0  0  0  0  0  0  0
   -1.2487    1.5925    0.1805 H   0  0  0  0  0  0  0  0  0  0  0  0
   -2.5020    1.5163   -1.7106 H   0  0  0  0  0  0  0  0  0  0  0  0
   -1.8572   -1.3832    0.1726 H   0  0  0  0  0  0  0  0  0  0  0  0
   -2.2537   -0.1830    1.5201 H   0  0  0  0  0  0  0  0  0  0  0  0
    0.1488   -1.5516    1.4798 H   0  0  0  0  0  0  0  0  0  0  0  0
    0.2426    1.2359    2.0065 H   0  0  0  0  0  0  0  0  0  0  0  0
  1  2  1  0
  2  3  1  0
  3  4  1  0
  4  5  1  0
  5  6  1  0
  5  7  1  0
  7  8  1  0
  8  9  1  0
  8  3  1  0
  1 10  1  0
  2 11  1  0
  2 12  1  0
  3 13  1  0
  4 14  1  0
  4 15  1  0
  5 16  1  0
  6 17  1  0
  7 18  1  0
  7 19  1  0
  8 20  1  0
  9 21  1  0
M  END
