
     RDKit          3D

 18 18  0  0  0  0  0  0  0  0999 V2000
    2.6913    1.1017    1.0613 O   0  0  0  0  0  0  0  0  0  0  0  0
    2.3137    0.0566    0.2206 C   0  0  0  0  0  0  0  0  0  0  0  0
    0.9693    0.4169   -0.3505 C   0  0  0  0  0  0  0  0  0  0  0  0
    0.1521   -0.7493   -0.8656 C   0  0  0  0  0  0  0  0  0  0  0  0
   -0.9223    0.2341   -0.4131 C   0  0  0  0  0  0  0  0  0  0  0  0
   -2.2094   -0.3851    0.0249 C   0  0  0  0  0  0  0  0  0  0  0  0
   -2.9053    0.4986    0.8307 O   0  0  0  0  0  0  0  0  0  0  0  0
   -0.0391    0.6000    0.5991 O   0  0  0  0  0  0  0  0  0  0  0  0
    2.2172    1.0565    1.9322 H   0  0  0  0  0  0  0  0  0  0  0  0
    2.3489   -0.9268    0.6790 H   0  0  0  0  0  0  0  0  0  0  0  0
    3.0376    0.0557   -0.6290 H   0  0  0  0  0  0  0  0  0  0  0  0
    0.9632    1.2335   -1.0734 H   0  0  0  0  0  0  0  0  0  0  0  0
    0.1446   -0.8966   -1.9477 H   0  0  0  0  0  0  0  0  0  0  0  0
    0.1566   -1.6441   -0.2306 H   0  0  0  0  0  0  0  0  0  0  0  0
   -1.0040    1.0565   -1.1480 H   0  0  0  0  0  0  0  0  0  0  0  0
   -2.8350   -0.5015   -0.9094 H   0  0  0  0  0  0  0  0  0  0  0  0
   -2.0761   -1.3850    0.4526 H   0  0  0  0  0  0  0  0  0  0  0  0
   -3.0033    0.1784    1.7669 H   0  0  0  0  0  0  0  0  0  0  0  0
  1  2  1  0
  2  3  1  0
  3  4  1  0
  4  5  1  0
  5  6  1  0
  6  7  1  0
  5  8  1  0
  8  3  1  0
  1  9  1  0
  2 10  1  0
  2 11  1  0
  3 12  1  0
  4 13  1  0
  4 14  1  0
  5 15  1  0
  6 16  1  0
  6 17  1  0
  7 18  1  0
M  END
