
     RDKit          3D

 19 20  0  0  0  0  0  0  0  0999 V2000
   -3.3293    0.0292    0.8432 O   0  0  0  0  0  0  0  0  0  0  0  0
   -2.4194   -0.2235   -0.1491 C   0  0  0  0  0  0  0  0  0  0  0  0
   -1.0930    0.4546    0.0901 C   0  0  0  0  0  0  0  0  0  0  0  0
   -0.0522    0.2266   -0.9465 C   0  0  0  0  0  0  0  0  0  0  0  0
    0.0221   -1.0839   -0.4964 O   0  0  0  0  0  0  0  0  0  0  0  0
   -0.0226   -0.3885    0.7002 C   0  0  0  0  0  0  0  0  0  0  0  0
    0.9738    0.5516    0.0918 C   0  0  0  0  0  0  0  0  0  0  0  0
    2.3420    0.0062   -0.1636 C   0  0  0  0  0  0  0  0  0  0  0  0
    3.2122    0.3577    0.8441 O   0  0  0  0  0  0  0  0  0  0  0  0
   -3.2468   -0.6350    1.5757 H   0  0  0  0  0  0  0  0  0  0  0  0
   -2.8388    0.2044   -1.0993 H   0  0  0  0  0  0  0  0  0  0  0  0
   -2.2579   -1.2892   -0.3331 H   0  0  0  0  0  0  0  0  0  0  0  0
   -1.1442    1.4552    0.5359 H   0  0  0  0  0  0  0  0  0  0  0  0
   -0.0580    0.5294   -1.9077 H   0  0  0  0  0  0  0  0  0  0  0  0
    0.0003   -0.7760    1.6303 H   0  0  0  0  0  0  0  0  0  0  0  0
    0.9853    1.5791    0.4561 H   0  0  0  0  0  0  0  0  0  0  0  0
    2.7275    0.4652   -1.1054 H   0  0  0  0  0  0  0  0  0  0  0  0
    2.3636   -1.0822   -0.3225 H   0  0  0  0  0  0  0  0  0  0  0  0
    3.8356   -0.3809    1.0544 H   0  0  0  0  0  0  0  0  0  0  0  0
  1  2  1  0
  2  3  1  0
  3  4  1  0
  4  5  1  0
  5  6  1  0
  6  7  1  0
  7  8  1  0
  8  9  1  0
  6  3  1  0
  7  4  1  0
  1 10  1  0
  2 11  1  0
  2 12  1  0
  3 13  1  0
  4 14  1  0
  6 15  1  0
  7 16  1  0
  8 17  1  0
  8 18  1  0
  9 19  1  0
M  END
