
     RDKit          3D

 18 19  0  0  0  0  0  0  0  0999 V2000
   -2.1003    0.4054    0.9259 O   0  0  0  0  0  0  0  0  0  0  0  0
   -1.7583   -0.2012   -0.2903 C   0  0  0  0  0  0  0  0  0  0  0  0
   -0.2756   -0.4071   -0.3181 C   0  0  0  0  0  0  0  0  0  0  0  0
    0.3362   -1.2582    0.7376 C   0  0  0  0  0  0  0  0  0  0  0  0
    1.3708   -0.1763    0.9540 C   0  0  0  0  0  0  0  0  0  0  0  0
    0.7035    0.6463   -0.1338 C   0  0  0  0  0  0  0  0  0  0  0  0
    0.4263    1.9694    0.0645 O   0  0  0  0  0  0  0  0  0  0  0  0
    0.5645   -0.0148   -1.4617 C   0  0  0  0  0  0  0  0  0  0  0  0
   -1.5845    1.2274    0.9970 H   0  0  0  0  0  0  0  0  0  0  0  0
   -2.2346   -1.2193   -0.3323 H   0  0  0  0  0  0  0  0  0  0  0  0
   -2.1188    0.4257   -1.1171 H   0  0  0  0  0  0  0  0  0  0  0  0
    0.7251   -2.2014    0.3238 H   0  0  0  0  0  0  0  0  0  0  0  0
   -0.3507   -1.4406    1.5703 H   0  0  0  0  0  0  0  0  0  0  0  0
    1.3241    0.3411    1.9210 H   0  0  0  0  0  0  0  0  0  0  0  0
    2.3491   -0.5233    0.6039 H   0  0  0  0  0  0  0  0  0  0  0  0
    1.1232    2.5269   -0.3817 H   0  0  0  0  0  0  0  0  0  0  0  0
    0.0573    0.5232   -2.2785 H   0  0  0  0  0  0  0  0  0  0  0  0
    1.4426   -0.6233   -1.7845 H   0  0  0  0  0  0  0  0  0  0  0  0
  1  2  1  0
  2  3  1  0
  3  4  1  0
  4  5  1  0
  5  6  1  0
  6  7  1  0
  6  8  1  0
  6  3  1  0
  8  3  1  0
  1  9  1  0
  2 10  1  0
  2 11  1  0
  4 12  1  0
  4 13  1  0
  5 14  1  0
  5 15  1  0
  7 16  1  0
  8 17  1  0
  8 18  1  0
M  END
