
     RDKit          3D

 19 21  0  0  0  0  0  0  0  0999 V2000
    2.0522   -0.3611    1.1989 O   0  0  0  0  0  0  0  0  0  0  0  0
    1.4594   -0.8024    0.0238 C   0  0  0  0  0  0  0  0  0  0  0  0
    0.3502    0.1021   -0.4204 C   0  0  0  0  0  0  0  0  0  0  0  0
    0.7018    1.5011   -0.7020 C   0  0  0  0  0  0  0  0  0  0  0  0
   -0.0367    1.2686    0.5420 C   0  0  0  0  0  0  0  0  0  0  0  0
   -1.5092    0.8869    0.3313 C   0  0  0  0  0  0  0  0  0  0  0  0
   -1.0242   -0.3918   -0.1955 C   0  0  0  0  0  0  0  0  0  0  0  0
   -1.6011   -1.5549   -0.5816 C   0  0  0  0  0  0  0  0  0  0  0  0
   -1.1608   -1.4492    0.8451 O   0  0  0  0  0  0  0  0  0  0  0  0
    2.9321    0.0600    1.0335 H   0  0  0  0  0  0  0  0  0  0  0  0
    1.0815   -1.8359    0.1332 H   0  0  0  0  0  0  0  0  0  0  0  0
    2.2346   -0.7975   -0.7680 H   0  0  0  0  0  0  0  0  0  0  0  0
    1.7527    1.7925   -0.6158 H   0  0  0  0  0  0  0  0  0  0  0  0
    0.1544    2.1017   -1.4803 H   0  0  0  0  0  0  0  0  0  0  0  0
    0.4044    1.1606    1.5275 H   0  0  0  0  0  0  0  0  0  0  0  0
   -1.9721    1.5471   -0.4504 H   0  0  0  0  0  0  0  0  0  0  0  0
   -2.1082    0.8934    1.2534 H   0  0  0  0  0  0  0  0  0  0  0  0
   -1.0161   -2.3929   -1.0121 H   0  0  0  0  0  0  0  0  0  0  0  0
   -2.6951   -1.7282   -0.6624 H   0  0  0  0  0  0  0  0  0  0  0  0
  1  2  1  0
  2  3  1  0
  3  4  1  0
  4  5  1  0
  5  6  1  0
  6  7  1  0
  7  8  1  0
  8  9  1  0
  5  3  1  0
  9  7  1  0
  7  3  1  0
  1 10  1  0
  2 11  1  0
  2 12  1  0
  4 13  1  0
  4 14  1  0
  5 15  1  0
  6 16  1  0
  6 17  1  0
  8 18  1  0
  8 19  1  0
M  END
