
     RDKit          3D

 19 20  0  0  0  0  0  0  0  0999 V2000
    2.3854    0.0149    0.4579 O   0  0  0  0  0  0  0  0  0  0  0  0
    1.1880   -0.6152    0.8997 C   0  0  0  0  0  0  0  0  0  0  0  0
    0.2035   -0.5052   -0.2053 C   0  0  0  0  0  0  0  0  0  0  0  0
   -1.0916   -1.1565    0.1502 C   0  0  0  0  0  0  0  0  0  0  0  0
   -1.3318    0.1617    0.8637 C   0  0  0  0  0  0  0  0  0  0  0  0
   -0.7630    0.6950   -0.3957 C   0  0  0  0  0  0  0  0  0  0  0  0
   -1.8078    0.4883   -1.3717 O   0  0  0  0  0  0  0  0  0  0  0  0
    0.4854    0.6417   -1.0406 C   0  0  0  0  0  0  0  0  0  0  0  0
    1.4144    1.6497   -0.6721 O   0  0  0  0  0  0  0  0  0  0  0  0
    2.8222   -0.5334   -0.2495 H   0  0  0  0  0  0  0  0  0  0  0  0
    1.5366   -1.6599    1.0849 H   0  0  0  0  0  0  0  0  0  0  0  0
    0.9488   -0.1674    1.8581 H   0  0  0  0  0  0  0  0  0  0  0  0
   -0.9803   -2.0385    0.7688 H   0  0  0  0  0  0  0  0  0  0  0  0
   -1.8007   -1.3469   -0.6645 H   0  0  0  0  0  0  0  0  0  0  0  0
   -0.8638    0.3288    1.8163 H   0  0  0  0  0  0  0  0  0  0  0  0
   -2.4225    0.4010    0.9946 H   0  0  0  0  0  0  0  0  0  0  0  0
   -1.6305    0.9934   -2.1741 H   0  0  0  0  0  0  0  0  0  0  0  0
    0.6541    0.3944   -2.1200 H   0  0  0  0  0  0  0  0  0  0  0  0
    1.0536    2.2541   -0.0007 H   0  0  0  0  0  0  0  0  0  0  0  0
  1  2  1  0
  2  3  1  0
  3  4  1  0
  4  5  1  0
  5  6  1  0
  6  7  1  0
  6  8  1  0
  8  9  1  0
  6  3  1  0
  8  3  1  0
  1 10  1  0
  2 11  1  0
  2 12  1  0
  4 13  1  0
  4 14  1  0
  5 15  1  0
  5 16  1  0
  7 17  1  0
  8 18  1  0
  9 19  1  0
M  END
