
     RDKit          3D

 17 19  0  0  0  0  0  0  0  0999 V2000
   -3.0814    0.5318   -0.5050 O   0  0  0  0  0  0  0  0  0  0  0  0
   -2.1645    0.0052    0.4196 C   0  0  0  0  0  0  0  0  0  0  0  0
   -0.9743   -0.6209   -0.3014 C   0  0  0  0  0  0  0  0  0  0  0  0
   -0.3238    0.4408   -1.1039 O   0  0  0  0  0  0  0  0  0  0  0  0
    0.2852   -0.2498   -0.0971 C   0  0  0  0  0  0  0  0  0  0  0  0
    1.6253   -0.8288   -0.2901 C   0  0  0  0  0  0  0  0  0  0  0  0
    2.1837    0.5527   -0.1056 C   0  0  0  0  0  0  0  0  0  0  0  0
    1.1224    0.3130    0.9459 C   0  0  0  0  0  0  0  0  0  0  0  0
    1.7123   -0.9448    1.0919 O   0  0  0  0  0  0  0  0  0  0  0  0
   -2.5760    0.9588   -1.2553 H   0  0  0  0  0  0  0  0  0  0  0  0
   -2.7197   -0.7720    0.9819 H   0  0  0  0  0  0  0  0  0  0  0  0
   -1.7489    0.7996    1.0770 H   0  0  0  0  0  0  0  0  0  0  0  0
   -1.3076   -1.4553   -0.9749 H   0  0  0  0  0  0  0  0  0  0  0  0
    1.9377   -1.5126   -0.9648 H   0  0  0  0  0  0  0  0  0  0  0  0
    3.2191    0.5334    0.2318 H   0  0  0  0  0  0  0  0  0  0  0  0
    1.8968    1.3017   -0.8566 H   0  0  0  0  0  0  0  0  0  0  0  0
    0.9139    0.9471    1.7065 H   0  0  0  0  0  0  0  0  0  0  0  0
  1  2  1  0
  2  3  1  0
  3  4  1  0
  4  5  1  0
  5  6  1  0
  6  7  1  0
  7  8  1  0
  8  9  1  0
  5  3  1  0
  9  6  1  0
  8  5  1  0
  1 10  1  0
  2 11  1  0
  2 12  1  0
  3 13  1  0
  6 14  1  0
  7 15  1  0
  7 16  1  0
  8 17  1  0
M  END
