
     RDKit          3D

 19 20  0  0  0  0  0  0  0  0999 V2000
    2.5679    0.0106   -0.4987 O   0  0  0  0  0  0  0  0  0  0  0  0
    1.5541    0.2158    0.3999 C   0  0  0  0  0  0  0  0  0  0  0  0
    0.3305   -0.6095    0.1105 C   0  0  0  0  0  0  0  0  0  0  0  0
    0.5354   -1.9833    0.1239 O   0  0  0  0  0  0  0  0  0  0  0  0
   -0.8576   -0.1888    0.9608 C   0  0  0  0  0  0  0  0  0  0  0  0
   -0.9476    1.2609    0.6628 C   0  0  0  0  0  0  0  0  0  0  0  0
   -0.7736    1.3046   -0.6617 C   0  0  0  0  0  0  0  0  0  0  0  0
   -0.5481   -0.1192   -1.0125 C   0  0  0  0  0  0  0  0  0  0  0  0
   -1.6788   -0.7724   -0.1960 C   0  0  0  0  0  0  0  0  0  0  0  0
    3.1918    0.7760   -0.4526 H   0  0  0  0  0  0  0  0  0  0  0  0
    1.9101   -0.1058    1.4233 H   0  0  0  0  0  0  0  0  0  0  0  0
    1.3029    1.2905    0.4981 H   0  0  0  0  0  0  0  0  0  0  0  0
    1.0198   -2.2193   -0.7286 H   0  0  0  0  0  0  0  0  0  0  0  0
   -0.9851   -0.5691    1.9238 H   0  0  0  0  0  0  0  0  0  0  0  0
   -1.1111    2.1147    1.3090 H   0  0  0  0  0  0  0  0  0  0  0  0
   -0.7836    2.1350   -1.3534 H   0  0  0  0  0  0  0  0  0  0  0  0
   -0.3996   -0.4283   -2.0000 H   0  0  0  0  0  0  0  0  0  0  0  0
   -1.6924   -1.8614   -0.2459 H   0  0  0  0  0  0  0  0  0  0  0  0
   -2.6350   -0.2511   -0.2626 H   0  0  0  0  0  0  0  0  0  0  0  0
  1  2  1  0
  2  3  1  0
  3  4  1  0
  3  5  1  0
  5  6  1  0
  6  7  2  0
  7  8  1  0
  8  9  1  0
  8  3  1  0
  9  5  1  0
  1 10  1  0
  2 11  1  0
  2 12  1  0
  4 13  1  0
  5 14  1  0
  6 15  1  0
  7 16  1  0
  8 17  1  0
  9 18  1  0
  9 19  1  0
M  END
