
     RDKit          3D

 19 19  0  0  0  0  0  0  0  0999 V2000
   -2.7561   -1.0454   -0.1872 O   0  0  0  0  0  0  0  0  0  0  0  0
   -2.1821    0.2187   -0.2984 C   0  0  0  0  0  0  0  0  0  0  0  0
   -1.1059    0.3150    0.7523 C   0  0  0  0  0  0  0  0  0  0  0  0
   -0.3545    1.5926    0.6945 C   0  0  0  0  0  0  0  0  0  0  0  0
    0.8051    1.3436    0.1121 C   0  0  0  0  0  0  0  0  0  0  0  0
    0.8467   -0.0750   -0.2220 C   0  0  0  0  0  0  0  0  0  0  0  0
    2.1597   -0.7432    0.0936 C   0  0  0  0  0  0  0  0  0  0  0  0
    2.0326   -2.0915   -0.2438 O   0  0  0  0  0  0  0  0  0  0  0  0
   -0.1573   -0.6781    0.5264 O   0  0  0  0  0  0  0  0  0  0  0  0
   -2.0076   -1.6827   -0.0505 H   0  0  0  0  0  0  0  0  0  0  0  0
   -1.6961    0.2696   -1.3075 H   0  0  0  0  0  0  0  0  0  0  0  0
   -2.9081    1.0346   -0.2482 H   0  0  0  0  0  0  0  0  0  0  0  0
   -1.5277    0.2302    1.7638 H   0  0  0  0  0  0  0  0  0  0  0  0
   -0.7199    2.5597    1.0756 H   0  0  0  0  0  0  0  0  0  0  0  0
    1.5748    2.1259   -0.0633 H   0  0  0  0  0  0  0  0  0  0  0  0
    0.5860   -0.2630   -1.2994 H   0  0  0  0  0  0  0  0  0  0  0  0
    3.0052   -0.2523   -0.4245 H   0  0  0  0  0  0  0  0  0  0  0  0
    2.2904   -0.7166    1.2111 H   0  0  0  0  0  0  0  0  0  0  0  0
    2.1149   -2.1421   -1.2298 H   0  0  0  0  0  0  0  0  0  0  0  0
  1  2  1  0
  2  3  1  0
  3  4  1  0
  4  5  2  0
  5  6  1  0
  6  7  1  0
  7  8  1  0
  6  9  1  0
  9  3  1  0
  1 10  1  0
  2 11  1  0
  2 12  1  0
  3 13  1  0
  4 14  1  0
  5 15  1  0
  6 16  1  0
  7 17  1  0
  7 18  1  0
  8 19  1  0
M  END
