
     RDKit          3D

 19 20  0  0  0  0  0  0  0  0999 V2000
    2.0767   -1.2775    0.8778 O   0  0  0  0  0  0  0  0  0  0  0  0
    1.7123   -0.4072   -0.0999 C   0  0  0  0  0  0  0  0  0  0  0  0
    0.2763   -0.2902   -0.3977 C   0  0  0  0  0  0  0  0  0  0  0  0
   -0.0728    0.9500   -1.1969 C   0  0  0  0  0  0  0  0  0  0  0  0
   -0.9674    1.3933   -0.0564 C   0  0  0  0  0  0  0  0  0  0  0  0
   -0.7279    0.0464    0.5759 C   0  0  0  0  0  0  0  0  0  0  0  0
   -0.6491   -0.0677    1.8864 O   0  0  0  0  0  0  0  0  0  0  0  0
   -1.5534   -1.0164   -0.1316 C   0  0  0  0  0  0  0  0  0  0  0  0
   -0.3915   -1.4064   -0.8124 O   0  0  0  0  0  0  0  0  0  0  0  0
    2.6403   -0.9129    1.5889 H   0  0  0  0  0  0  0  0  0  0  0  0
    2.1312    0.5940    0.1356 H   0  0  0  0  0  0  0  0  0  0  0  0
    2.2388   -0.7271   -1.0460 H   0  0  0  0  0  0  0  0  0  0  0  0
   -0.6252    0.7268   -2.1285 H   0  0  0  0  0  0  0  0  0  0  0  0
    0.8109    1.6102   -1.3587 H   0  0  0  0  0  0  0  0  0  0  0  0
   -0.6239    2.2665    0.5078 H   0  0  0  0  0  0  0  0  0  0  0  0
   -2.0232    1.4953   -0.3883 H   0  0  0  0  0  0  0  0  0  0  0  0
    0.0644   -0.6001    2.2944 H   0  0  0  0  0  0  0  0  0  0  0  0
   -1.9693   -1.7821    0.5470 H   0  0  0  0  0  0  0  0  0  0  0  0
   -2.3473   -0.5949   -0.7975 H   0  0  0  0  0  0  0  0  0  0  0  0
  1  2  1  0
  2  3  1  0
  3  4  1  0
  4  5  1  0
  5  6  1  0
  6  7  1  0
  6  8  1  0
  8  9  1  0
  6  3  1  0
  9  3  1  0
  1 10  1  0
  2 11  1  0
  2 12  1  0
  4 13  1  0
  4 14  1  0
  5 15  1  0
  5 16  1  0
  7 17  1  0
  8 18  1  0
  8 19  1  0
M  END
