
     RDKit          3D

 21 22  0  0  0  0  0  0  0  0999 V2000
    2.4749   -0.7318    0.8319 O   0  0  0  0  0  0  0  0  0  0  0  0
    1.8957    0.1509   -0.0853 C   0  0  0  0  0  0  0  0  0  0  0  0
    0.4504   -0.1658   -0.2893 C   0  0  0  0  0  0  0  0  0  0  0  0
    0.1300   -1.5131   -0.8059 C   0  0  0  0  0  0  0  0  0  0  0  0
   -0.3028   -1.0958    0.5573 C   0  0  0  0  0  0  0  0  0  0  0  0
   -1.7529   -0.6027    0.6269 C   0  0  0  0  0  0  0  0  0  0  0  0
   -1.5355    0.9015    0.5228 C   0  0  0  0  0  0  0  0  0  0  0  0
   -0.4972    0.9680   -0.5804 C   0  0  0  0  0  0  0  0  0  0  0  0
    0.2017    2.1497   -0.5921 O   0  0  0  0  0  0  0  0  0  0  0  0
    3.4125   -0.4643    1.0077 H   0  0  0  0  0  0  0  0  0  0  0  0
    2.0545    1.1751    0.3367 H   0  0  0  0  0  0  0  0  0  0  0  0
    2.5026    0.0909   -1.0216 H   0  0  0  0  0  0  0  0  0  0  0  0
   -0.6489   -1.6414   -1.5941 H   0  0  0  0  0  0  0  0  0  0  0  0
    0.9447   -2.2504   -0.8789 H   0  0  0  0  0  0  0  0  0  0  0  0
    0.1530   -1.5108    1.4671 H   0  0  0  0  0  0  0  0  0  0  0  0
   -2.2279   -0.8580    1.5825 H   0  0  0  0  0  0  0  0  0  0  0  0
   -2.3204   -0.9249   -0.2537 H   0  0  0  0  0  0  0  0  0  0  0  0
   -2.4718    1.4181    0.2268 H   0  0  0  0  0  0  0  0  0  0  0  0
   -1.1494    1.2304    1.4971 H   0  0  0  0  0  0  0  0  0  0  0  0
   -1.0563    0.7763   -1.5411 H   0  0  0  0  0  0  0  0  0  0  0  0
   -0.2567    2.8983   -1.0144 H   0  0  0  0  0  0  0  0  0  0  0  0
  1  2  1  0
  2  3  1  0
  3  4  1  0
  4  5  1  0
  5  6  1  0
  6  7  1  0
  7  8  1  0
  8  9  1  0
  5  3  1  0
  8  3  1  0
  1 10  1  0
  2 11  1  0
  2 12  1  0
  4 13  1  0
  4 14  1  0
  5 15  1  0
  6 16  1  0
  6 17  1  0
  7 18  1  0
  7 19  1  0
  8 20  1  0
  9 21  1  0
M  END
