
     RDKit          3D

 17 18  0  0  0  0  0  0  0  0999 V2000
    2.3425   -0.6126   -1.1105 O   0  0  0  0  0  0  0  0  0  0  0  0
    1.7479   -0.4958    0.1399 C   0  0  0  0  0  0  0  0  0  0  0  0
    0.3297   -0.1170   -0.0786 C   0  0  0  0  0  0  0  0  0  0  0  0
   -0.3474    0.0959   -1.2029 C   0  0  0  0  0  0  0  0  0  0  0  0
   -1.6970    0.4439   -0.8396 C   0  0  0  0  0  0  0  0  0  0  0  0
   -2.7809   -0.1643   -0.4600 O   0  0  0  0  0  0  0  0  0  0  0  0
   -1.8237   -0.5804    0.3087 C   0  0  0  0  0  0  0  0  0  0  0  0
   -0.6823    0.0626    1.0510 C   0  0  0  0  0  0  0  0  0  0  0  0
   -0.8702    1.3822    1.3663 O   0  0  0  0  0  0  0  0  0  0  0  0
    3.2016   -0.1291   -1.1372 H   0  0  0  0  0  0  0  0  0  0  0  0
    1.7574   -1.4443    0.6884 H   0  0  0  0  0  0  0  0  0  0  0  0
    2.2849    0.3183    0.7022 H   0  0  0  0  0  0  0  0  0  0  0  0
    0.1582   -0.0101   -2.1689 H   0  0  0  0  0  0  0  0  0  0  0  0
   -1.7286    1.5420   -0.5241 H   0  0  0  0  0  0  0  0  0  0  0  0
   -1.5077   -1.6406    0.0405 H   0  0  0  0  0  0  0  0  0  0  0  0
   -0.3750   -0.5574    1.8885 H   0  0  0  0  0  0  0  0  0  0  0  0
   -0.0093    1.9069    1.3364 H   0  0  0  0  0  0  0  0  0  0  0  0
  1  2  1  0
  2  3  1  0
  3  4  2  0
  4  5  1  0
  5  6  1  0
  6  7  1  0
  7  8  1  0
  8  9  1  0
  8  3  1  0
  7  5  1  0
  1 10  1  0
  2 11  1  0
  2 12  1  0
  4 13  1  0
  5 14  1  0
  7 15  1  0
  8 16  1  0
  9 17  1  0
M  END
