
     RDKit          3D

 19 20  0  0  0  0  0  0  0  0999 V2000
   -2.7912    0.9390   -0.0197 O   0  0  0  0  0  0  0  0  0  0  0  0
   -2.0639    0.0570    0.7799 C   0  0  0  0  0  0  0  0  0  0  0  0
   -0.8017   -0.3845    0.0842 C   0  0  0  0  0  0  0  0  0  0  0  0
   -0.1210   -1.2623    0.9326 O   0  0  0  0  0  0  0  0  0  0  0  0
    1.1636   -1.2901    0.3606 C   0  0  0  0  0  0  0  0  0  0  0  0
    1.4676    0.1809    0.2432 C   0  0  0  0  0  0  0  0  0  0  0  0
    1.9708    0.5395   -1.1096 C   0  0  0  0  0  0  0  0  0  0  0  0
    0.6489    0.7236   -1.5326 O   0  0  0  0  0  0  0  0  0  0  0  0
    0.1337    0.7351   -0.2231 C   0  0  0  0  0  0  0  0  0  0  0  0
   -3.7321    0.8759    0.2856 H   0  0  0  0  0  0  0  0  0  0  0  0
   -1.8582    0.5951    1.7283 H   0  0  0  0  0  0  0  0  0  0  0  0
   -2.7025   -0.8396    0.9210 H   0  0  0  0  0  0  0  0  0  0  0  0
   -1.0745   -0.9352   -0.8184 H   0  0  0  0  0  0  0  0  0  0  0  0
    1.0504   -1.7361   -0.6392 H   0  0  0  0  0  0  0  0  0  0  0  0
    1.8961   -1.7771    1.0047 H   0  0  0  0  0  0  0  0  0  0  0  0
    1.9084    0.6692    1.1092 H   0  0  0  0  0  0  0  0  0  0  0  0
    2.5729    1.4834   -1.1647 H   0  0  0  0  0  0  0  0  0  0  0  0
    2.4452   -0.3064   -1.6682 H   0  0  0  0  0  0  0  0  0  0  0  0
   -0.1125    1.7326    0.1246 H   0  0  0  0  0  0  0  0  0  0  0  0
  1  2  1  0
  2  3  1  0
  3  4  1  0
  4  5  1  0
  5  6  1  0
  6  7  1  0
  7  8  1  0
  8  9  1  0
  9  3  1  0
  9  6  1  0
  1 10  1  0
  2 11  1  0
  2 12  1  0
  3 13  1  0
  5 14  1  0
  5 15  1  0
  6 16  1  0
  7 17  1  0
  7 18  1  0
  9 19  1  0
M  END
