
     RDKit          3D

 19 20  0  0  0  0  0  0  0  0999 V2000
   -3.8542    0.2293    0.0830 O   0  0  0  0  0  0  0  0  0  0  0  0
   -2.8967   -0.6876   -0.4082 C   0  0  0  0  0  0  0  0  0  0  0  0
   -1.5564   -0.3482    0.1780 C   0  0  0  0  0  0  0  0  0  0  0  0
   -1.2097    1.0422   -0.2371 O   0  0  0  0  0  0  0  0  0  0  0  0
   -0.3597   -0.1354   -0.5538 C   0  0  0  0  0  0  0  0  0  0  0  0
    0.9437   -0.0142    0.1667 C   0  0  0  0  0  0  0  0  0  0  0  0
    2.1116    0.2101   -0.7652 C   0  0  0  0  0  0  0  0  0  0  0  0
    3.4498    0.3386   -0.0813 C   0  0  0  0  0  0  0  0  0  0  0  0
    2.8103    1.4735   -0.5957 O   0  0  0  0  0  0  0  0  0  0  0  0
   -3.5181    1.1531    0.0647 H   0  0  0  0  0  0  0  0  0  0  0  0
   -2.9213   -0.6940   -1.4981 H   0  0  0  0  0  0  0  0  0  0  0  0
   -3.2371   -1.6797   -0.0456 H   0  0  0  0  0  0  0  0  0  0  0  0
   -1.5150   -0.4720    1.2833 H   0  0  0  0  0  0  0  0  0  0  0  0
   -0.3169   -0.2655   -1.6627 H   0  0  0  0  0  0  0  0  0  0  0  0
    0.9535    0.7733    0.9409 H   0  0  0  0  0  0  0  0  0  0  0  0
    1.1391   -0.9840    0.7143 H   0  0  0  0  0  0  0  0  0  0  0  0
    2.0960   -0.1909   -1.7862 H   0  0  0  0  0  0  0  0  0  0  0  0
    4.3636    0.0160   -0.6221 H   0  0  0  0  0  0  0  0  0  0  0  0
    3.5174    0.2355    1.0208 H   0  0  0  0  0  0  0  0  0  0  0  0
  1  2  1  0
  2  3  1  0
  3  4  1  0
  4  5  1  0
  5  6  1  0
  6  7  1  0
  7  8  1  0
  8  9  1  0
  5  3  1  0
  9  7  1  0
  1 10  1  0
  2 11  1  0
  2 12  1  0
  3 13  1  0
  5 14  1  0
  6 15  1  0
  6 16  1  0
  7 17  1  0
  8 18  1  0
  8 19  1  0
M  END
