
     RDKit          3D

 19 20  0  0  0  0  0  0  0  0999 V2000
    2.1414    1.1048    1.1425 O   0  0  0  0  0  0  0  0  0  0  0  0
    1.4852   -0.1060    0.9276 C   0  0  0  0  0  0  0  0  0  0  0  0
    0.6889    0.0366   -0.3368 C   0  0  0  0  0  0  0  0  0  0  0  0
   -0.0813   -1.2310   -0.6838 C   0  0  0  0  0  0  0  0  0  0  0  0
   -1.4070   -0.6156   -1.1542 C   0  0  0  0  0  0  0  0  0  0  0  0
   -2.2244   -0.3947   -0.0551 O   0  0  0  0  0  0  0  0  0  0  0  0
   -1.5130    0.5470    0.7048 C   0  0  0  0  0  0  0  0  0  0  0  0
   -0.4308    1.0204   -0.2544 C   0  0  0  0  0  0  0  0  0  0  0  0
   -1.0737    0.7224   -1.4853 O   0  0  0  0  0  0  0  0  0  0  0  0
    3.0287    1.1233    0.6641 H   0  0  0  0  0  0  0  0  0  0  0  0
    2.2969   -0.8509    0.7037 H   0  0  0  0  0  0  0  0  0  0  0  0
    0.8794   -0.4387    1.7803 H   0  0  0  0  0  0  0  0  0  0  0  0
    1.3464    0.2887   -1.1864 H   0  0  0  0  0  0  0  0  0  0  0  0
    0.4413   -1.7553   -1.4746 H   0  0  0  0  0  0  0  0  0  0  0  0
   -0.2771   -1.8120    0.2293 H   0  0  0  0  0  0  0  0  0  0  0  0
   -1.8594   -1.1540   -1.9688 H   0  0  0  0  0  0  0  0  0  0  0  0
   -1.0790    0.0984    1.6179 H   0  0  0  0  0  0  0  0  0  0  0  0
   -2.1993    1.3638    0.9811 H   0  0  0  0  0  0  0  0  0  0  0  0
   -0.1633    2.0527   -0.1520 H   0  0  0  0  0  0  0  0  0  0  0  0
  1  2  1  0
  2  3  1  0
  3  4  1  0
  4  5  1  0
  5  6  1  0
  6  7  1  0
  7  8  1  0
  8  9  1  0
  8  3  1  0
  9  5  1  0
  1 10  1  0
  2 11  1  0
  2 12  1  0
  3 13  1  0
  4 14  1  0
  4 15  1  0
  5 16  1  0
  7 17  1  0
  7 18  1  0
  8 19  1  0
M  END
