
     RDKit          3D

 21 22  0  0  0  0  0  0  0  0999 V2000
    2.3976   -0.8922   -0.0690 O   0  0  0  0  0  0  0  0  0  0  0  0
    1.7822    0.2223    0.4675 C   0  0  0  0  0  0  0  0  0  0  0  0
    0.3043    0.0445    0.3985 C   0  0  0  0  0  0  0  0  0  0  0  0
   -0.5321    1.1713    0.9432 C   0  0  0  0  0  0  0  0  0  0  0  0
   -1.1743    1.3327   -0.4187 C   0  0  0  0  0  0  0  0  0  0  0  0
   -0.3190    0.2175   -0.9581 C   0  0  0  0  0  0  0  0  0  0  0  0
   -1.0262   -1.1010   -1.1586 C   0  0  0  0  0  0  0  0  0  0  0  0
   -0.2525   -1.9940   -0.3811 O   0  0  0  0  0  0  0  0  0  0  0  0
   -0.2295   -1.2910    0.8359 C   0  0  0  0  0  0  0  0  0  0  0  0
    2.9418   -0.6722   -0.8908 H   0  0  0  0  0  0  0  0  0  0  0  0
    2.0614    1.1611   -0.0307 H   0  0  0  0  0  0  0  0  0  0  0  0
    2.0604    0.3564    1.5495 H   0  0  0  0  0  0  0  0  0  0  0  0
   -1.2205    0.8545    1.7404 H   0  0  0  0  0  0  0  0  0  0  0  0
    0.1147    2.0225    1.2607 H   0  0  0  0  0  0  0  0  0  0  0  0
   -2.2485    1.0844   -0.4624 H   0  0  0  0  0  0  0  0  0  0  0  0
   -0.9516    2.3206   -0.8938 H   0  0  0  0  0  0  0  0  0  0  0  0
    0.3277    0.5539   -1.7671 H   0  0  0  0  0  0  0  0  0  0  0  0
   -2.0382   -0.9855   -0.7165 H   0  0  0  0  0  0  0  0  0  0  0  0
   -1.0416   -1.4488   -2.1897 H   0  0  0  0  0  0  0  0  0  0  0  0
   -1.3083   -1.1773    1.1316 H   0  0  0  0  0  0  0  0  0  0  0  0
    0.3522   -1.7796    1.6091 H   0  0  0  0  0  0  0  0  0  0  0  0
  1  2  1  0
  2  3  1  0
  3  4  1  0
  4  5  1  0
  5  6  1  0
  6  7  1  0
  7  8  1  0
  8  9  1  0
  6  3  1  0
  9  3  1  0
  1 10  1  0
  2 11  1  0
  2 12  1  0
  4 13  1  0
  4 14  1  0
  5 15  1  0
  5 16  1  0
  6 17  1  0
  7 18  1  0
  7 19  1  0
  9 20  1  0
  9 21  1  0
M  END
