
     RDKit          3D

 23 24  0  0  0  0  0  0  0  0999 V2000
   -1.3064    2.0569    0.0319 O   0  0  0  0  0  0  0  0  0  0  0  0
   -1.6380    0.9043   -0.6655 C   0  0  0  0  0  0  0  0  0  0  0  0
   -0.7705   -0.2878   -0.2461 C   0  0  0  0  0  0  0  0  0  0  0  0
    0.6730   -0.0321   -0.4908 C   0  0  0  0  0  0  0  0  0  0  0  0
    1.2164    1.1700    0.2728 C   0  0  0  0  0  0  0  0  0  0  0  0
    2.4532    0.3426    0.5339 C   0  0  0  0  0  0  0  0  0  0  0  0
    1.6846   -0.9087    0.1399 C   0  0  0  0  0  0  0  0  0  0  0  0
   -1.2525   -1.0300    0.9278 C   0  0  0  0  0  0  0  0  0  0  0  0
   -1.4003   -1.6104   -0.4770 C   0  0  0  0  0  0  0  0  0  0  0  0
   -2.0707    2.6759   -0.0599 H   0  0  0  0  0  0  0  0  0  0  0  0
   -2.7045    0.6668   -0.6303 H   0  0  0  0  0  0  0  0  0  0  0  0
   -1.3976    1.1117   -1.7410 H   0  0  0  0  0  0  0  0  0  0  0  0
    0.8714    0.0498   -1.5993 H   0  0  0  0  0  0  0  0  0  0  0  0
    0.6291    1.4280    1.1734 H   0  0  0  0  0  0  0  0  0  0  0  0
    1.3670    2.0490   -0.3572 H   0  0  0  0  0  0  0  0  0  0  0  0
    2.7892    0.3014    1.5790 H   0  0  0  0  0  0  0  0  0  0  0  0
    3.3027    0.5946   -0.1342 H   0  0  0  0  0  0  0  0  0  0  0  0
    1.2972   -1.5038    0.9581 H   0  0  0  0  0  0  0  0  0  0  0  0
    2.3196   -1.4921   -0.5869 H   0  0  0  0  0  0  0  0  0  0  0  0
   -0.6381   -1.6406    1.5824 H   0  0  0  0  0  0  0  0  0  0  0  0
   -2.2080   -0.6920    1.4218 H   0  0  0  0  0  0  0  0  0  0  0  0
   -2.4256   -1.6558   -0.8848 H   0  0  0  0  0  0  0  0  0  0  0  0
   -0.7912   -2.4975   -0.7478 H   0  0  0  0  0  0  0  0  0  0  0  0
  1  2  1  0
  2  3  1  0
  3  4  1  0
  4  5  1  0
  5  6  1  0
  6  7  1  0
  3  8  1  0
  8  9  1  0
  9  3  1  0
  7  4  1  0
  1 10  1  0
  2 11  1  0
  2 12  1  0
  4 13  1  0
  5 14  1  0
  5 15  1  0
  6 16  1  0
  6 17  1  0
  7 18  1  0
  7 19  1  0
  8 20  1  0
  8 21  1  0
  9 22  1  0
  9 23  1  0
M  END
