
     RDKit          3D

 23 24  0  0  0  0  0  0  0  0999 V2000
    2.9021   -0.4296   -0.7706 O   0  0  0  0  0  0  0  0  0  0  0  0
    1.7349   -1.0814   -0.3856 C   0  0  0  0  0  0  0  0  0  0  0  0
    0.9657   -0.1687    0.5237 C   0  0  0  0  0  0  0  0  0  0  0  0
    0.5832    1.1326   -0.1187 C   0  0  0  0  0  0  0  0  0  0  0  0
   -0.8760    1.3070    0.2134 C   0  0  0  0  0  0  0  0  0  0  0  0
   -1.6405    0.3926   -0.7004 C   0  0  0  0  0  0  0  0  0  0  0  0
   -1.2894   -1.0074   -0.1715 C   0  0  0  0  0  0  0  0  0  0  0  0
   -0.3374   -0.7505    0.9877 C   0  0  0  0  0  0  0  0  0  0  0  0
   -0.9826    0.5355    1.5390 C   0  0  0  0  0  0  0  0  0  0  0  0
    3.1220    0.2622   -0.0927 H   0  0  0  0  0  0  0  0  0  0  0  0
    1.1808   -1.3256   -1.2982 H   0  0  0  0  0  0  0  0  0  0  0  0
    1.9678   -2.0070    0.1381 H   0  0  0  0  0  0  0  0  0  0  0  0
    1.5667    0.0599    1.4219 H   0  0  0  0  0  0  0  0  0  0  0  0
    0.7007    1.0115   -1.2219 H   0  0  0  0  0  0  0  0  0  0  0  0
    1.2059    1.9865    0.1815 H   0  0  0  0  0  0  0  0  0  0  0  0
   -1.2253    2.3170    0.2761 H   0  0  0  0  0  0  0  0  0  0  0  0
   -1.2003    0.4638   -1.6990 H   0  0  0  0  0  0  0  0  0  0  0  0
   -2.7274    0.5742   -0.6675 H   0  0  0  0  0  0  0  0  0  0  0  0
   -0.8237   -1.6291   -0.9495 H   0  0  0  0  0  0  0  0  0  0  0  0
   -2.2123   -1.4188    0.2571 H   0  0  0  0  0  0  0  0  0  0  0  0
   -0.2804   -1.5412    1.7089 H   0  0  0  0  0  0  0  0  0  0  0  0
   -0.3175    0.9424    2.3044 H   0  0  0  0  0  0  0  0  0  0  0  0
   -2.0171    0.3739    1.8383 H   0  0  0  0  0  0  0  0  0  0  0  0
  1  2  1  0
  2  3  1  0
  3  4  1  0
  4  5  1  0
  5  6  1  0
  6  7  1  0
  7  8  1  0
  8  9  1  0
  8  3  1  0
  9  5  1  0
  1 10  1  0
  2 11  1  0
  2 12  1  0
  3 13  1  0
  4 14  1  0
  4 15  1  0
  5 16  1  0
  6 17  1  0
  6 18  1  0
  7 19  1  0
  7 20  1  0
  8 21  1  0
  9 22  1  0
  9 23  1  0
M  END
