
     RDKit          3D

 17 19  0  0  0  0  0  0  0  0999 V2000
    2.6895    0.9787   -0.2151 O   0  0  0  0  0  0  0  0  0  0  0  0
    1.7654    0.0514   -0.7521 C   0  0  0  0  0  0  0  0  0  0  0  0
    0.5088    0.1788    0.0260 C   0  0  0  0  0  0  0  0  0  0  0  0
    0.5759   -0.0658    1.3689 O   0  0  0  0  0  0  0  0  0  0  0  0
   -0.0795   -1.0787    0.6990 C   0  0  0  0  0  0  0  0  0  0  0  0
   -1.5114   -0.8605    0.2643 C   0  0  0  0  0  0  0  0  0  0  0  0
   -1.7423    0.5880    0.5357 C   0  0  0  0  0  0  0  0  0  0  0  0
   -0.7669    0.6613   -0.6192 C   0  0  0  0  0  0  0  0  0  0  0  0
   -1.3377   -0.5124   -1.0899 O   0  0  0  0  0  0  0  0  0  0  0  0
    2.6468    0.8119    0.7797 H   0  0  0  0  0  0  0  0  0  0  0  0
    2.2058   -0.9636   -0.7282 H   0  0  0  0  0  0  0  0  0  0  0  0
    1.6424    0.3752   -1.8225 H   0  0  0  0  0  0  0  0  0  0  0  0
    0.4223   -2.0348    0.4849 H   0  0  0  0  0  0  0  0  0  0  0  0
   -2.2465   -1.5876    0.5053 H   0  0  0  0  0  0  0  0  0  0  0  0
   -1.2716    0.9738    1.4618 H   0  0  0  0  0  0  0  0  0  0  0  0
   -2.7486    0.9541    0.3328 H   0  0  0  0  0  0  0  0  0  0  0  0
   -0.7525    1.5302   -1.2315 H   0  0  0  0  0  0  0  0  0  0  0  0
  1  2  1  0
  2  3  1  0
  3  4  1  0
  4  5  1  0
  5  6  1  0
  6  7  1  0
  7  8  1  0
  8  9  1  0
  5  3  1  0
  9  6  1  0
  8  3  1  0
  1 10  1  0
  2 11  1  0
  2 12  1  0
  5 13  1  0
  6 14  1  0
  7 15  1  0
  7 16  1  0
  8 17  1  0
M  END
