
     RDKit          3D

 21 21  0  0  0  0  0  0  0  0999 V2000
    2.2874    0.8646    0.0917 O   0  0  0  0  0  0  0  0  0  0  0  0
    1.3684   -0.0861    0.4802 C   0  0  0  0  0  0  0  0  0  0  0  0
    0.3716   -0.3937   -0.6193 C   0  0  0  0  0  0  0  0  0  0  0  0
    1.0073   -0.8666   -1.7297 O   0  0  0  0  0  0  0  0  0  0  0  0
   -0.6310   -1.3746   -0.0331 C   0  0  0  0  0  0  0  0  0  0  0  0
   -1.4095   -0.4771    0.9118 C   0  0  0  0  0  0  0  0  0  0  0  0
   -1.2340    0.9321    0.4171 C   0  0  0  0  0  0  0  0  0  0  0  0
   -0.5338    0.7851   -0.8910 C   0  0  0  0  0  0  0  0  0  0  0  0
    0.1104    1.8961   -1.3436 O   0  0  0  0  0  0  0  0  0  0  0  0
    3.1460    0.8230    0.5493 H   0  0  0  0  0  0  0  0  0  0  0  0
    0.8974    0.1788    1.4304 H   0  0  0  0  0  0  0  0  0  0  0  0
    1.9313   -1.0507    0.6505 H   0  0  0  0  0  0  0  0  0  0  0  0
    1.3977   -1.7509   -1.5105 H   0  0  0  0  0  0  0  0  0  0  0  0
   -1.2887   -1.7450   -0.8682 H   0  0  0  0  0  0  0  0  0  0  0  0
   -0.1468   -2.2190    0.4768 H   0  0  0  0  0  0  0  0  0  0  0  0
   -2.4757   -0.7677    0.8252 H   0  0  0  0  0  0  0  0  0  0  0  0
   -1.1155   -0.6193    1.9643 H   0  0  0  0  0  0  0  0  0  0  0  0
   -2.2118    1.4426    0.3346 H   0  0  0  0  0  0  0  0  0  0  0  0
   -0.6502    1.4847    1.1812 H   0  0  0  0  0  0  0  0  0  0  0  0
   -1.2879    0.4395   -1.6395 H   0  0  0  0  0  0  0  0  0  0  0  0
    0.4675    2.5044   -0.6782 H   0  0  0  0  0  0  0  0  0  0  0  0
  1  2  1  0
  2  3  1  0
  3  4  1  0
  3  5  1  0
  5  6  1  0
  6  7  1  0
  7  8  1  0
  8  9  1  0
  8  3  1  0
  1 10  1  0
  2 11  1  0
  2 12  1  0
  4 13  1  0
  5 14  1  0
  5 15  1  0
  6 16  1  0
  6 17  1  0
  7 18  1  0
  7 19  1  0
  8 20  1  0
  9 21  1  0
M  END
