
     RDKit          3D

 19 20  0  0  0  0  0  0  0  0999 V2000
    2.6547   -1.2330   -0.1107 O   0  0  0  0  0  0  0  0  0  0  0  0
    2.0857    0.0363   -0.0331 C   0  0  0  0  0  0  0  0  0  0  0  0
    0.6644   -0.0650   -0.4674 C   0  0  0  0  0  0  0  0  0  0  0  0
   -0.1357    1.2072   -0.4567 C   0  0  0  0  0  0  0  0  0  0  0  0
   -1.2925    0.5661    0.2232 C   0  0  0  0  0  0  0  0  0  0  0  0
   -1.8923    1.3125    1.2279 O   0  0  0  0  0  0  0  0  0  0  0  0
   -1.6127   -0.8594    0.1640 C   0  0  0  0  0  0  0  0  0  0  0  0
   -1.6327   -1.5540   -1.0658 O   0  0  0  0  0  0  0  0  0  0  0  0
   -0.2787   -0.5183    0.6552 C   0  0  0  0  0  0  0  0  0  0  0  0
    3.6380   -1.1938   -0.1216 H   0  0  0  0  0  0  0  0  0  0  0  0
    2.1001    0.3513    1.0321 H   0  0  0  0  0  0  0  0  0  0  0  0
    2.6903    0.7628   -0.5895 H   0  0  0  0  0  0  0  0  0  0  0  0
    0.5153   -0.6913   -1.3888 H   0  0  0  0  0  0  0  0  0  0  0  0
    0.3685    1.9417    0.2266 H   0  0  0  0  0  0  0  0  0  0  0  0
   -0.3222    1.6875   -1.4232 H   0  0  0  0  0  0  0  0  0  0  0  0
   -2.6914    1.7446    0.8112 H   0  0  0  0  0  0  0  0  0  0  0  0
   -2.3363   -1.2502    0.8772 H   0  0  0  0  0  0  0  0  0  0  0  0
   -2.5477   -1.8262   -1.2477 H   0  0  0  0  0  0  0  0  0  0  0  0
    0.0252   -0.4188    1.6869 H   0  0  0  0  0  0  0  0  0  0  0  0
  1  2  1  0
  2  3  1  0
  3  4  1  0
  4  5  1  0
  5  6  1  0
  5  7  1  0
  7  8  1  0
  7  9  1  0
  9  3  1  0
  9  5  1  0
  1 10  1  0
  2 11  1  0
  2 12  1  0
  3 13  1  0
  4 14  1  0
  4 15  1  0
  6 16  1  0
  7 17  1  0
  8 18  1  0
  9 19  1  0
M  END
