
     RDKit          3D

 19 21  0  0  0  0  0  0  0  0999 V2000
    2.9880   -0.8560    0.1163 O   0  0  0  0  0  0  0  0  0  0  0  0
    2.0234    0.0437   -0.3641 C   0  0  0  0  0  0  0  0  0  0  0  0
    0.8179    0.0970    0.4941 C   0  0  0  0  0  0  0  0  0  0  0  0
   -0.2988    0.9958    0.1335 C   0  0  0  0  0  0  0  0  0  0  0  0
   -1.1340    0.1350    1.0326 C   0  0  0  0  0  0  0  0  0  0  0  0
   -2.4498    0.0926    0.3690 C   0  0  0  0  0  0  0  0  0  0  0  0
   -2.0697   -0.0592   -0.9847 O   0  0  0  0  0  0  0  0  0  0  0  0
   -0.6838   -0.0032   -0.9186 C   0  0  0  0  0  0  0  0  0  0  0  0
   -0.3072   -0.8533    0.2473 C   0  0  0  0  0  0  0  0  0  0  0  0
    3.5073   -1.1438   -0.6946 H   0  0  0  0  0  0  0  0  0  0  0  0
    1.8458   -0.0939   -1.4429 H   0  0  0  0  0  0  0  0  0  0  0  0
    2.5279    1.0543   -0.2871 H   0  0  0  0  0  0  0  0  0  0  0  0
    1.0976    0.0682    1.5795 H   0  0  0  0  0  0  0  0  0  0  0  0
   -0.3215    1.9930    0.0573 H   0  0  0  0  0  0  0  0  0  0  0  0
   -1.0229    0.1909    2.0849 H   0  0  0  0  0  0  0  0  0  0  0  0
   -3.0488    1.0211    0.4506 H   0  0  0  0  0  0  0  0  0  0  0  0
   -3.0164   -0.7837    0.7293 H   0  0  0  0  0  0  0  0  0  0  0  0
   -0.1352   -0.0509   -1.8372 H   0  0  0  0  0  0  0  0  0  0  0  0
   -0.3196   -1.8477    0.3330 H   0  0  0  0  0  0  0  0  0  0  0  0
  1  2  1  0
  2  3  1  0
  3  4  1  0
  4  5  1  0
  5  6  1  0
  6  7  1  0
  7  8  1  0
  8  9  1  0
  9  3  1  0
  8  4  1  0
  9  5  1  0
  1 10  1  0
  2 11  1  0
  2 12  1  0
  3 13  1  0
  4 14  1  0
  5 15  1  0
  6 16  1  0
  6 17  1  0
  8 18  1  0
  9 19  1  0
M  END
