
     RDKit          3D

 19 20  0  0  0  0  0  0  0  0999 V2000
    1.3524   -2.1988    0.7480 O   0  0  0  0  0  0  0  0  0  0  0  0
    1.4596   -0.9288    0.1828 C   0  0  0  0  0  0  0  0  0  0  0  0
    0.2464   -0.1277    0.5644 C   0  0  0  0  0  0  0  0  0  0  0  0
   -1.0178   -0.7852    0.0641 C   0  0  0  0  0  0  0  0  0  0  0  0
   -0.7645   -1.8284   -0.8415 O   0  0  0  0  0  0  0  0  0  0  0  0
   -1.3695    0.4985   -0.6921 C   0  0  0  0  0  0  0  0  0  0  0  0
   -0.0723    1.0658   -0.2405 C   0  0  0  0  0  0  0  0  0  0  0  0
    0.2848    2.3670    0.0223 C   0  0  0  0  0  0  0  0  0  0  0  0
    0.8109    1.6684   -1.0861 O   0  0  0  0  0  0  0  0  0  0  0  0
    1.4116   -2.1957    1.7209 H   0  0  0  0  0  0  0  0  0  0  0  0
    2.4094   -0.4216    0.4401 H   0  0  0  0  0  0  0  0  0  0  0  0
    1.4784   -1.0782   -0.9264 H   0  0  0  0  0  0  0  0  0  0  0  0
    0.2212    0.0679    1.6515 H   0  0  0  0  0  0  0  0  0  0  0  0
   -1.7559   -1.0338    0.8554 H   0  0  0  0  0  0  0  0  0  0  0  0
   -1.6162   -2.2946   -0.9731 H   0  0  0  0  0  0  0  0  0  0  0  0
   -2.2738    1.0077   -0.2923 H   0  0  0  0  0  0  0  0  0  0  0  0
   -1.4897    0.3412   -1.7681 H   0  0  0  0  0  0  0  0  0  0  0  0
   -0.3801    3.2390   -0.2043 H   0  0  0  0  0  0  0  0  0  0  0  0
    1.0651    2.6373    0.7749 H   0  0  0  0  0  0  0  0  0  0  0  0
  1  2  1  0
  2  3  1  0
  3  4  1  0
  4  5  1  0
  4  6  1  0
  6  7  1  0
  7  8  1  0
  8  9  1  0
  7  3  1  0
  9  7  1  0
  1 10  1  0
  2 11  1  0
  2 12  1  0
  3 13  1  0
  4 14  1  0
  5 15  1  0
  6 16  1  0
  6 17  1  0
  8 18  1  0
  8 19  1  0
M  END
