
     RDKit          3D

 21 22  0  0  0  0  0  0  0  0999 V2000
   -2.0047    1.6083    0.1708 O   0  0  0  0  0  0  0  0  0  0  0  0
   -1.3565    0.5502    0.8161 C   0  0  0  0  0  0  0  0  0  0  0  0
   -0.2303   -0.0001   -0.0456 C   0  0  0  0  0  0  0  0  0  0  0  0
   -0.8640   -0.4870   -1.3292 C   0  0  0  0  0  0  0  0  0  0  0  0
   -1.7874   -1.4802   -1.0188 O   0  0  0  0  0  0  0  0  0  0  0  0
    1.0003    0.7900   -0.1580 C   0  0  0  0  0  0  0  0  0  0  0  0
    1.3418    0.3772    1.2494 C   0  0  0  0  0  0  0  0  0  0  0  0
    0.7503   -0.8550    0.6364 C   0  0  0  0  0  0  0  0  0  0  0  0
    1.7087   -0.5002   -0.4892 C   0  0  0  0  0  0  0  0  0  0  0  0
   -1.7227    2.4889    0.4935 H   0  0  0  0  0  0  0  0  0  0  0  0
   -2.1722   -0.2276    0.9299 H   0  0  0  0  0  0  0  0  0  0  0  0
   -0.9982    0.7568    1.8084 H   0  0  0  0  0  0  0  0  0  0  0  0
   -1.5160    0.3869   -1.6521 H   0  0  0  0  0  0  0  0  0  0  0  0
   -0.2212   -0.6692   -2.1671 H   0  0  0  0  0  0  0  0  0  0  0  0
   -1.5175   -2.3285   -1.4786 H   0  0  0  0  0  0  0  0  0  0  0  0
    1.1745    1.6844   -0.5742 H   0  0  0  0  0  0  0  0  0  0  0  0
    2.4670    0.2388    1.2884 H   0  0  0  0  0  0  0  0  0  0  0  0
    0.9030    0.8571    2.0898 H   0  0  0  0  0  0  0  0  0  0  0  0
    0.6624   -1.7600    1.0522 H   0  0  0  0  0  0  0  0  0  0  0  0
    2.7951   -0.4672   -0.1806 H   0  0  0  0  0  0  0  0  0  0  0  0
    1.5876   -0.9636   -1.4415 H   0  0  0  0  0  0  0  0  0  0  0  0
  1  2  1  0
  2  3  1  0
  3  4  1  0
  4  5  1  0
  3  6  1  0
  6  7  1  0
  7  8  1  0
  8  9  1  0
  8  3  1  0
  9  6  1  0
  1 10  1  0
  2 11  1  0
  2 12  1  0
  4 13  1  0
  4 14  1  0
  5 15  1  0
  6 16  1  0
  7 17  1  0
  7 18  1  0
  8 19  1  0
  9 20  1  0
  9 21  1  0
M  END
