
     RDKit          3D

 20 20  0  0  0  0  0  0  0  0999 V2000
   -1.8557   -1.6158    0.7774 O   0  0  0  0  0  0  0  0  0  0  0  0
   -1.6595   -0.5975   -0.1529 C   0  0  0  0  0  0  0  0  0  0  0  0
   -0.8283    0.5244    0.4233 C   0  0  0  0  0  0  0  0  0  0  0  0
   -0.6000    1.6416   -0.5636 C   0  0  0  0  0  0  0  0  0  0  0  0
    0.7623    1.0350   -0.8661 C   0  0  0  0  0  0  0  0  0  0  0  0
    0.6417    0.3043    0.4763 C   0  0  0  0  0  0  0  0  0  0  0  0
    1.1466   -1.0871    0.3487 C   0  0  0  0  0  0  0  0  0  0  0  0
    2.5530   -1.0371    0.4282 O   0  0  0  0  0  0  0  0  0  0  0  0
   -1.5189   -1.3386    1.6618 H   0  0  0  0  0  0  0  0  0  0  0  0
   -2.6843   -0.1567   -0.3312 H   0  0  0  0  0  0  0  0  0  0  0  0
   -1.2750   -0.9355   -1.1131 H   0  0  0  0  0  0  0  0  0  0  0  0
   -1.2249    0.9006    1.3868 H   0  0  0  0  0  0  0  0  0  0  0  0
   -0.4844    2.6445   -0.1329 H   0  0  0  0  0  0  0  0  0  0  0  0
   -1.2249    1.5837   -1.4826 H   0  0  0  0  0  0  0  0  0  0  0  0
    0.7887    0.3611   -1.7284 H   0  0  0  0  0  0  0  0  0  0  0  0
    1.6097    1.7369   -0.8142 H   0  0  0  0  0  0  0  0  0  0  0  0
    1.1485    0.8363    1.3145 H   0  0  0  0  0  0  0  0  0  0  0  0
    0.9016   -1.5872   -0.5883 H   0  0  0  0  0  0  0  0  0  0  0  0
    0.8249   -1.6537    1.2537 H   0  0  0  0  0  0  0  0  0  0  0  0
    2.9789   -1.5592   -0.2972 H   0  0  0  0  0  0  0  0  0  0  0  0
  1  2  1  0
  2  3  1  0
  3  4  1  0
  4  5  1  0
  5  6  1  0
  6  7  1  0
  7  8  1  0
  6  3  1  0
  1  9  1  0
  2 10  1  0
  2 11  1  0
  3 12  1  0
  4 13  1  0
  4 14  1  0
  5 15  1  0
  5 16  1  0
  6 17  1  0
  7 18  1  0
  7 19  1  0
  8 20  1  0
M  END
