
     RDKit          3D

 19 20  0  0  0  0  0  0  0  0999 V2000
    2.7417    0.0939   -0.6948 O   0  0  0  0  0  0  0  0  0  0  0  0
    2.0631    0.4082    0.4939 C   0  0  0  0  0  0  0  0  0  0  0  0
    0.6510   -0.0646    0.3307 C   0  0  0  0  0  0  0  0  0  0  0  0
    0.0066   -0.9558    1.0717 C   0  0  0  0  0  0  0  0  0  0  0  0
   -1.4020   -1.1377    0.5580 C   0  0  0  0  0  0  0  0  0  0  0  0
   -1.2136   -0.7003   -0.9060 C   0  0  0  0  0  0  0  0  0  0  0  0
   -0.2541    0.4010   -0.6932 C   0  0  0  0  0  0  0  0  0  0  0  0
   -0.9096    1.7555   -0.3916 C   0  0  0  0  0  0  0  0  0  0  0  0
   -0.0976    1.4868   -1.4720 O   0  0  0  0  0  0  0  0  0  0  0  0
    2.4099   -0.8088   -0.9518 H   0  0  0  0  0  0  0  0  0  0  0  0
    2.1222    1.4973    0.6381 H   0  0  0  0  0  0  0  0  0  0  0  0
    2.5897   -0.1448    1.2991 H   0  0  0  0  0  0  0  0  0  0  0  0
    0.4605   -1.4614    1.9187 H   0  0  0  0  0  0  0  0  0  0  0  0
   -2.0827   -0.3796    0.9991 H   0  0  0  0  0  0  0  0  0  0  0  0
   -1.7475   -2.1652    0.6394 H   0  0  0  0  0  0  0  0  0  0  0  0
   -2.1580   -0.4477   -1.3812 H   0  0  0  0  0  0  0  0  0  0  0  0
   -0.6950   -1.5738   -1.3962 H   0  0  0  0  0  0  0  0  0  0  0  0
   -2.0066    1.8396   -0.5087 H   0  0  0  0  0  0  0  0  0  0  0  0
   -0.4781    2.3573    0.4467 H   0  0  0  0  0  0  0  0  0  0  0  0
  1  2  1  0
  2  3  1  0
  3  4  2  0
  4  5  1  0
  5  6  1  0
  6  7  1  0
  7  8  1  0
  8  9  1  0
  7  3  1  0
  9  7  1  0
  1 10  1  0
  2 11  1  0
  2 12  1  0
  4 13  1  0
  5 14  1  0
  5 15  1  0
  6 16  1  0
  6 17  1  0
  8 18  1  0
  8 19  1  0
M  END
