
     RDKit          3D

 23 23  0  0  0  0  0  0  0  0999 V2000
    2.5857    1.0336    0.2151 O   0  0  0  0  0  0  0  0  0  0  0  0
    1.6254    0.1437    0.6958 C   0  0  0  0  0  0  0  0  0  0  0  0
    0.8273   -0.4709   -0.4431 C   0  0  0  0  0  0  0  0  0  0  0  0
    0.1068    0.5503   -1.2516 C   0  0  0  0  0  0  0  0  0  0  0  0
   -0.5499    1.6333   -0.4496 C   0  0  0  0  0  0  0  0  0  0  0  0
   -1.3524    1.1025    0.6887 C   0  0  0  0  0  0  0  0  0  0  0  0
   -1.7334   -0.1310    0.9029 C   0  0  0  0  0  0  0  0  0  0  0  0
   -1.4749   -1.3330    0.0799 C   0  0  0  0  0  0  0  0  0  0  0  0
   -0.0178   -1.6190    0.0143 C   0  0  0  0  0  0  0  0  0  0  0  0
    3.4532    0.5800    0.0273 H   0  0  0  0  0  0  0  0  0  0  0  0
    0.9825    0.7341    1.3857 H   0  0  0  0  0  0  0  0  0  0  0  0
    2.1459   -0.6413    1.2772 H   0  0  0  0  0  0  0  0  0  0  0  0
    1.6103   -0.9251   -1.1240 H   0  0  0  0  0  0  0  0  0  0  0  0
   -0.5696    0.0471   -1.9505 H   0  0  0  0  0  0  0  0  0  0  0  0
    0.8798    1.0624   -1.8974 H   0  0  0  0  0  0  0  0  0  0  0  0
   -1.3003    2.1245   -1.1369 H   0  0  0  0  0  0  0  0  0  0  0  0
    0.1475    2.4351   -0.1468 H   0  0  0  0  0  0  0  0  0  0  0  0
   -1.6524    1.8278    1.4214 H   0  0  0  0  0  0  0  0  0  0  0  0
   -2.3133   -0.2819    1.8028 H   0  0  0  0  0  0  0  0  0  0  0  0
   -1.9910   -2.2331    0.4518 H   0  0  0  0  0  0  0  0  0  0  0  0
   -1.8677   -1.1802   -0.9669 H   0  0  0  0  0  0  0  0  0  0  0  0
    0.1123   -2.5365   -0.6314 H   0  0  0  0  0  0  0  0  0  0  0  0
    0.3460   -1.9226    1.0352 H   0  0  0  0  0  0  0  0  0  0  0  0
  1  2  1  0
  2  3  1  0
  3  4  1  0
  4  5  1  0
  5  6  1  0
  6  7  2  0
  7  8  1  0
  8  9  1  0
  9  3  1  0
  1 10  1  0
  2 11  1  0
  2 12  1  0
  3 13  1  0
  4 14  1  0
  4 15  1  0
  5 16  1  0
  5 17  1  0
  6 18  1  0
  7 19  1  0
  8 20  1  0
  8 21  1  0
  9 22  1  0
  9 23  1  0
M  END
