
     RDKit          3D

 18 18  0  0  0  0  0  0  0  0999 V2000
   -2.3196    0.2288   -1.3105 O   0  0  0  0  0  0  0  0  0  0  0  0
   -1.6648   -0.5752   -0.3859 C   0  0  0  0  0  0  0  0  0  0  0  0
   -0.4329    0.1022    0.1448 C   0  0  0  0  0  0  0  0  0  0  0  0
   -0.7111    1.3053    0.7828 O   0  0  0  0  0  0  0  0  0  0  0  0
    0.3107   -0.7431    1.1113 C   0  0  0  0  0  0  0  0  0  0  0  0
    1.6067   -0.5280    0.9345 C   0  0  0  0  0  0  0  0  0  0  0  0
    1.8309    0.4704   -0.1569 C   0  0  0  0  0  0  0  0  0  0  0  0
    0.5509    0.2403   -0.9713 C   0  0  0  0  0  0  0  0  0  0  0  0
   -2.2319    1.1801   -1.0528 H   0  0  0  0  0  0  0  0  0  0  0  0
   -2.3162   -0.8069    0.4935 H   0  0  0  0  0  0  0  0  0  0  0  0
   -1.3770   -1.5096   -0.8983 H   0  0  0  0  0  0  0  0  0  0  0  0
   -1.0922    1.0739    1.6618 H   0  0  0  0  0  0  0  0  0  0  0  0
   -0.1450   -1.4278    1.8449 H   0  0  0  0  0  0  0  0  0  0  0  0
    2.3994   -0.9911    1.4824 H   0  0  0  0  0  0  0  0  0  0  0  0
    2.6832    0.1990   -0.8056 H   0  0  0  0  0  0  0  0  0  0  0  0
    1.8762    1.4936    0.2316 H   0  0  0  0  0  0  0  0  0  0  0  0
    0.6769   -0.7574   -1.4353 H   0  0  0  0  0  0  0  0  0  0  0  0
    0.3559    1.0454   -1.6709 H   0  0  0  0  0  0  0  0  0  0  0  0
  1  2  1  0
  2  3  1  0
  3  4  1  0
  3  5  1  0
  5  6  2  0
  6  7  1  0
  7  8  1  0
  8  3  1  0
  1  9  1  0
  2 10  1  0
  2 11  1  0
  4 12  1  0
  5 13  1  0
  6 14  1  0
  7 15  1  0
  7 16  1  0
  8 17  1  0
  8 18  1  0
M  END
