
     RDKit          3D

 13 13  0  0  0  0  0  0  0  0999 V2000
    2.1837    0.3530   -0.5406 O   0  0  0  0  0  0  0  0  0  0  0  0
    1.1697    0.2942    0.3915 C   0  0  0  0  0  0  0  0  0  0  0  0
   -0.0576   -0.4215   -0.1412 C   0  0  0  0  0  0  0  0  0  0  0  0
   -1.2141   -0.5337    0.8060 C   0  0  0  0  0  0  0  0  0  0  0  0
   -1.3255    0.4560   -0.3167 C   0  0  0  0  0  0  0  0  0  0  0  0
    2.8655   -0.3543   -0.4355 H   0  0  0  0  0  0  0  0  0  0  0  0
    1.4590   -0.1539    1.3533 H   0  0  0  0  0  0  0  0  0  0  0  0
    0.8872    1.3564    0.6245 H   0  0  0  0  0  0  0  0  0  0  0  0
    0.1092   -1.1907   -0.9179 H   0  0  0  0  0  0  0  0  0  0  0  0
   -1.8859   -1.4331    0.7406 H   0  0  0  0  0  0  0  0  0  0  0  0
   -1.0832   -0.1613    1.8279 H   0  0  0  0  0  0  0  0  0  0  0  0
   -1.9237    0.2534   -1.2059 H   0  0  0  0  0  0  0  0  0  0  0  0
   -1.1843    1.5356   -0.0954 H   0  0  0  0  0  0  0  0  0  0  0  0
  1  2  1  0
  2  3  1  0
  3  4  1  0
  4  5  1  0
  5  3  1  0
  1  6  1  0
  2  7  1  0
  2  8  1  0
  3  9  1  0
  4 10  1  0
  4 11  1  0
  5 12  1  0
  5 13  1  0
M  END
