
     RDKit          3D

 18 19  0  0  0  0  0  0  0  0999 V2000
   -2.0289    1.6426   -0.2703 O   0  0  0  0  0  0  0  0  0  0  0  0
   -1.6350    0.3920    0.1879 C   0  0  0  0  0  0  0  0  0  0  0  0
   -0.5149   -0.1857   -0.6118 C   0  0  0  0  0  0  0  0  0  0  0  0
   -0.1339   -1.5556   -0.0554 C   0  0  0  0  0  0  0  0  0  0  0  0
    1.3146   -1.1543   -0.3306 C   0  0  0  0  0  0  0  0  0  0  0  0
    0.8612    0.2638   -0.3029 C   0  0  0  0  0  0  0  0  0  0  0  0
    1.3354    1.2957    0.4456 C   0  0  0  0  0  0  0  0  0  0  0  0
    1.4528    1.2451   -1.0382 O   0  0  0  0  0  0  0  0  0  0  0  0
   -2.0103    1.5897   -1.2755 H   0  0  0  0  0  0  0  0  0  0  0  0
   -2.4999   -0.3258    0.1129 H   0  0  0  0  0  0  0  0  0  0  0  0
   -1.3055    0.4460    1.2457 H   0  0  0  0  0  0  0  0  0  0  0  0
   -0.6981   -0.2224   -1.7056 H   0  0  0  0  0  0  0  0  0  0  0  0
   -0.3617   -1.6218    1.0342 H   0  0  0  0  0  0  0  0  0  0  0  0
   -0.4786   -2.4063   -0.6591 H   0  0  0  0  0  0  0  0  0  0  0  0
    1.9723   -1.4970    0.4655 H   0  0  0  0  0  0  0  0  0  0  0  0
    1.5983   -1.4470   -1.3757 H   0  0  0  0  0  0  0  0  0  0  0  0
    0.7557    2.2029    0.7136 H   0  0  0  0  0  0  0  0  0  0  0  0
    2.3764    1.3381    0.8272 H   0  0  0  0  0  0  0  0  0  0  0  0
  1  2  1  0
  2  3  1  0
  3  4  1  0
  4  5  1  0
  5  6  1  0
  6  7  1  0
  7  8  1  0
  6  3  1  0
  8  6  1  0
  1  9  1  0
  2 10  1  0
  2 11  1  0
  3 12  1  0
  4 13  1  0
  4 14  1  0
  5 15  1  0
  5 16  1  0
  7 17  1  0
  7 18  1  0
M  END
