
     RDKit          3D

 21 22  0  0  0  0  0  0  0  0999 V2000
   -0.8245    0.6485    1.9774 O   0  0  0  0  0  0  0  0  0  0  0  0
   -1.3820   -0.2679    1.1106 C   0  0  0  0  0  0  0  0  0  0  0  0
   -0.7619   -0.2419   -0.2662 C   0  0  0  0  0  0  0  0  0  0  0  0
    0.7116   -0.5332   -0.3485 C   0  0  0  0  0  0  0  0  0  0  0  0
    1.5314    0.4560    0.4462 C   0  0  0  0  0  0  0  0  0  0  0  0
    3.0226    0.1939    0.3867 C   0  0  0  0  0  0  0  0  0  0  0  0
    2.2666    0.0202    1.5321 O   0  0  0  0  0  0  0  0  0  0  0  0
   -1.6606   -0.7124   -1.3633 C   0  0  0  0  0  0  0  0  0  0  0  0
   -1.2897    0.7267   -1.2876 C   0  0  0  0  0  0  0  0  0  0  0  0
   -1.5472    1.0899    2.4708 H   0  0  0  0  0  0  0  0  0  0  0  0
   -2.4837   -0.1527    1.0673 H   0  0  0  0  0  0  0  0  0  0  0  0
   -1.2050   -1.2973    1.5132 H   0  0  0  0  0  0  0  0  0  0  0  0
    1.0519   -0.4498   -1.4039 H   0  0  0  0  0  0  0  0  0  0  0  0
    0.9546   -1.5800   -0.0346 H   0  0  0  0  0  0  0  0  0  0  0  0
    1.1812    1.4864    0.4032 H   0  0  0  0  0  0  0  0  0  0  0  0
    3.3878   -0.7363   -0.1051 H   0  0  0  0  0  0  0  0  0  0  0  0
    3.6372    1.0814    0.2360 H   0  0  0  0  0  0  0  0  0  0  0  0
   -2.7286   -0.9283   -1.1277 H   0  0  0  0  0  0  0  0  0  0  0  0
   -1.2447   -1.3771   -2.1295 H   0  0  0  0  0  0  0  0  0  0  0  0
   -2.0290    1.4954   -0.9997 H   0  0  0  0  0  0  0  0  0  0  0  0
   -0.5881    1.0785   -2.0773 H   0  0  0  0  0  0  0  0  0  0  0  0
  1  2  1  0
  2  3  1  0
  3  4  1  0
  4  5  1  0
  5  6  1  0
  6  7  1  0
  3  8  1  0
  8  9  1  0
  9  3  1  0
  7  5  1  0
  1 10  1  0
  2 11  1  0
  2 12  1  0
  4 13  1  0
  4 14  1  0
  5 15  1  0
  6 16  1  0
  6 17  1  0
  8 18  1  0
  8 19  1  0
  9 20  1  0
  9 21  1  0
M  END
