
     RDKit          3D

 19 20  0  0  0  0  0  0  0  0999 V2000
    1.3126   -1.9396    0.1481 O   0  0  0  0  0  0  0  0  0  0  0  0
    1.5101   -0.7706   -0.5581 C   0  0  0  0  0  0  0  0  0  0  0  0
    0.7530    0.3648    0.0949 C   0  0  0  0  0  0  0  0  0  0  0  0
    0.9661    1.5469   -0.6381 O   0  0  0  0  0  0  0  0  0  0  0  0
   -0.1386    2.3092   -0.2008 C   0  0  0  0  0  0  0  0  0  0  0  0
   -1.2031    1.4584   -0.3498 O   0  0  0  0  0  0  0  0  0  0  0  0
   -0.7300    0.2107   -0.0005 C   0  0  0  0  0  0  0  0  0  0  0  0
   -1.3912   -0.6863    0.9336 C   0  0  0  0  0  0  0  0  0  0  0  0
   -1.3987   -0.9766   -0.5245 C   0  0  0  0  0  0  0  0  0  0  0  0
    2.0035   -2.0190    0.8713 H   0  0  0  0  0  0  0  0  0  0  0  0
    2.5923   -0.5151   -0.5147 H   0  0  0  0  0  0  0  0  0  0  0  0
    1.1827   -0.8666   -1.6072 H   0  0  0  0  0  0  0  0  0  0  0  0
    1.0683    0.5079    1.1311 H   0  0  0  0  0  0  0  0  0  0  0  0
    0.0141    2.4625    0.9013 H   0  0  0  0  0  0  0  0  0  0  0  0
   -0.2246    3.2629   -0.7257 H   0  0  0  0  0  0  0  0  0  0  0  0
   -2.2894   -0.3123    1.4528 H   0  0  0  0  0  0  0  0  0  0  0  0
   -0.7851   -1.3926    1.5417 H   0  0  0  0  0  0  0  0  0  0  0  0
   -2.3954   -0.8181   -1.0176 H   0  0  0  0  0  0  0  0  0  0  0  0
   -0.8468   -1.8264   -0.9377 H   0  0  0  0  0  0  0  0  0  0  0  0
  1  2  1  0
  2  3  1  0
  3  4  1  0
  4  5  1  0
  5  6  1  0
  6  7  1  0
  7  8  1  0
  8  9  1  0
  7  3  1  0
  9  7  1  0
  1 10  1  0
  2 11  1  0
  2 12  1  0
  3 13  1  0
  5 14  1  0
  5 15  1  0
  8 16  1  0
  8 17  1  0
  9 18  1  0
  9 19  1  0
M  END
