
     RDKit          3D

 18 19  0  0  0  0  0  0  0  0999 V2000
    2.7559    0.4563   -0.6057 O   0  0  0  0  0  0  0  0  0  0  0  0
    2.0074   -0.4092    0.1802 C   0  0  0  0  0  0  0  0  0  0  0  0
    0.6674    0.1260    0.5613 C   0  0  0  0  0  0  0  0  0  0  0  0
   -0.3417    0.4926   -0.4435 C   0  0  0  0  0  0  0  0  0  0  0  0
   -1.5387    1.2874    0.0177 C   0  0  0  0  0  0  0  0  0  0  0  0
   -2.0311    0.6853    1.1503 O   0  0  0  0  0  0  0  0  0  0  0  0
   -1.6708   -0.6380    1.1485 C   0  0  0  0  0  0  0  0  0  0  0  0
   -0.4894   -0.7986    0.2432 C   0  0  0  0  0  0  0  0  0  0  0  0
    3.4789   -0.1112   -1.0230 H   0  0  0  0  0  0  0  0  0  0  0  0
    2.6015   -0.5923    1.1198 H   0  0  0  0  0  0  0  0  0  0  0  0
    1.9568   -1.4050   -0.3201 H   0  0  0  0  0  0  0  0  0  0  0  0
    0.6280    0.7081    1.5141 H   0  0  0  0  0  0  0  0  0  0  0  0
   -0.1523    0.5441   -1.5193 H   0  0  0  0  0  0  0  0  0  0  0  0
   -1.2945    2.3349    0.2502 H   0  0  0  0  0  0  0  0  0  0  0  0
   -2.3461    1.3107   -0.7446 H   0  0  0  0  0  0  0  0  0  0  0  0
   -1.4075   -0.9418    2.1972 H   0  0  0  0  0  0  0  0  0  0  0  0
   -2.5262   -1.2839    0.8661 H   0  0  0  0  0  0  0  0  0  0  0  0
   -0.2974   -1.7654   -0.2366 H   0  0  0  0  0  0  0  0  0  0  0  0
  1  2  1  0
  2  3  1  0
  3  4  1  0
  4  5  1  0
  5  6  1  0
  6  7  1  0
  7  8  1  0
  8  3  1  0
  8  4  1  0
  1  9  1  0
  2 10  1  0
  2 11  1  0
  3 12  1  0
  4 13  1  0
  5 14  1  0
  5 15  1  0
  7 16  1  0
  7 17  1  0
  8 18  1  0
M  END
