
     RDKit          3D

 16 17  0  0  0  0  0  0  0  0999 V2000
    2.4135    0.3998   -1.4410 O   0  0  0  0  0  0  0  0  0  0  0  0
    2.0970   -0.1787   -0.2404 C   0  0  0  0  0  0  0  0  0  0  0  0
    0.6335   -0.2378    0.0577 C   0  0  0  0  0  0  0  0  0  0  0  0
    0.0101    0.9806    0.1082 O   0  0  0  0  0  0  0  0  0  0  0  0
   -1.3285    0.6217    0.3085 C   0  0  0  0  0  0  0  0  0  0  0  0
   -2.2224    0.3822   -0.8399 C   0  0  0  0  0  0  0  0  0  0  0  0
   -1.3991   -0.7617   -0.4176 C   0  0  0  0  0  0  0  0  0  0  0  0
   -0.0926   -0.9142   -0.9208 O   0  0  0  0  0  0  0  0  0  0  0  0
    3.0971    1.1033   -1.2630 H   0  0  0  0  0  0  0  0  0  0  0  0
    2.4696   -1.2359   -0.2618 H   0  0  0  0  0  0  0  0  0  0  0  0
    2.5990    0.2905    0.6291 H   0  0  0  0  0  0  0  0  0  0  0  0
    0.5028   -0.7545    1.0298 H   0  0  0  0  0  0  0  0  0  0  0  0
   -1.6679    0.6344    1.3492 H   0  0  0  0  0  0  0  0  0  0  0  0
   -3.2942    0.3271   -0.6228 H   0  0  0  0  0  0  0  0  0  0  0  0
   -1.9937    0.9342   -1.7771 H   0  0  0  0  0  0  0  0  0  0  0  0
   -1.8245   -1.5910    0.1441 H   0  0  0  0  0  0  0  0  0  0  0  0
  1  2  1  0
  2  3  1  0
  3  4  1  0
  4  5  1  0
  5  6  1  0
  6  7  1  0
  7  8  1  0
  8  3  1  0
  7  5  1  0
  1  9  1  0
  2 10  1  0
  2 11  1  0
  3 12  1  0
  5 13  1  0
  6 14  1  0
  6 15  1  0
  7 16  1  0
M  END
