
     RDKit          3D

 19 19  0  0  0  0  0  0  0  0999 V2000
    2.7726   -0.0406   -1.2165 O   0  0  0  0  0  0  0  0  0  0  0  0
    2.1745   -0.8050   -0.2185 C   0  0  0  0  0  0  0  0  0  0  0  0
    0.7735   -0.3456   -0.0510 C   0  0  0  0  0  0  0  0  0  0  0  0
   -0.1947   -1.2106   -0.2532 C   0  0  0  0  0  0  0  0  0  0  0  0
   -1.6591   -1.1573   -0.1929 C   0  0  0  0  0  0  0  0  0  0  0  0
   -2.2349    0.1718   -0.3716 C   0  0  0  0  0  0  0  0  0  0  0  0
   -1.7753    1.3965   -0.1903 C   0  0  0  0  0  0  0  0  0  0  0  0
   -0.4756    1.7998    0.2707 C   0  0  0  0  0  0  0  0  0  0  0  0
    0.6169    1.0465    0.3284 C   0  0  0  0  0  0  0  0  0  0  0  0
    3.4883    0.5440   -0.8738 H   0  0  0  0  0  0  0  0  0  0  0  0
    2.2482   -1.8822   -0.3887 H   0  0  0  0  0  0  0  0  0  0  0  0
    2.7250   -0.5877    0.7286 H   0  0  0  0  0  0  0  0  0  0  0  0
    0.1901   -2.2025   -0.5321 H   0  0  0  0  0  0  0  0  0  0  0  0
   -2.0472   -1.8041   -1.0333 H   0  0  0  0  0  0  0  0  0  0  0  0
   -2.0424   -1.6669    0.7376 H   0  0  0  0  0  0  0  0  0  0  0  0
   -3.2729    0.1834   -0.7341 H   0  0  0  0  0  0  0  0  0  0  0  0
   -2.4558    2.2090   -0.4143 H   0  0  0  0  0  0  0  0  0  0  0  0
   -0.3518    2.8166    0.6099 H   0  0  0  0  0  0  0  0  0  0  0  0
    1.5204    1.5349    0.7116 H   0  0  0  0  0  0  0  0  0  0  0  0
  1  2  1  0
  2  3  1  0
  3  4  2  0
  4  5  1  0
  5  6  1  0
  6  7  2  0
  7  8  1  0
  8  9  2  0
  9  3  1  0
  1 10  1  0
  2 11  1  0
  2 12  1  0
  4 13  1  0
  5 14  1  0
  5 15  1  0
  6 16  1  0
  7 17  1  0
  8 18  1  0
  9 19  1  0
M  END
