
     RDKit          3D

 21 22  0  0  0  0  0  0  0  0999 V2000
   -3.1226   -0.0525    0.4773 O   0  0  0  0  0  0  0  0  0  0  0  0
   -2.1384   -0.4772   -0.4457 C   0  0  0  0  0  0  0  0  0  0  0  0
   -0.8385    0.1060    0.0186 C   0  0  0  0  0  0  0  0  0  0  0  0
   -0.5182   -0.3971    1.4178 C   0  0  0  0  0  0  0  0  0  0  0  0
    0.9172   -0.5427    0.9729 C   0  0  0  0  0  0  0  0  0  0  0  0
    1.5860    0.6605    1.1407 O   0  0  0  0  0  0  0  0  0  0  0  0
    2.2208    0.9438   -0.0450 C   0  0  0  0  0  0  0  0  0  0  0  0
    1.3659    0.3891   -1.1552 C   0  0  0  0  0  0  0  0  0  0  0  0
    0.4107   -0.5534   -0.4680 C   0  0  0  0  0  0  0  0  0  0  0  0
   -2.9942    0.9121    0.6735 H   0  0  0  0  0  0  0  0  0  0  0  0
   -2.4135   -0.2252   -1.4705 H   0  0  0  0  0  0  0  0  0  0  0  0
   -2.0491   -1.5950   -0.3440 H   0  0  0  0  0  0  0  0  0  0  0  0
   -0.7697    1.2123   -0.0676 H   0  0  0  0  0  0  0  0  0  0  0  0
   -1.0308   -1.3255    1.7039 H   0  0  0  0  0  0  0  0  0  0  0  0
   -0.7132    0.4160    2.1444 H   0  0  0  0  0  0  0  0  0  0  0  0
    1.4380   -1.4499    1.2731 H   0  0  0  0  0  0  0  0  0  0  0  0
    3.2075    0.4274   -0.0311 H   0  0  0  0  0  0  0  0  0  0  0  0
    2.3511    2.0404   -0.1255 H   0  0  0  0  0  0  0  0  0  0  0  0
    2.0214   -0.1184   -1.8947 H   0  0  0  0  0  0  0  0  0  0  0  0
    0.7503    1.1823   -1.6395 H   0  0  0  0  0  0  0  0  0  0  0  0
    0.3192   -1.5530   -0.9047 H   0  0  0  0  0  0  0  0  0  0  0  0
  1  2  1  0
  2  3  1  0
  3  4  1  0
  4  5  1  0
  5  6  1  0
  6  7  1  0
  7  8  1  0
  8  9  1  0
  9  3  1  0
  9  5  1  0
  1 10  1  0
  2 11  1  0
  2 12  1  0
  3 13  1  0
  4 14  1  0
  4 15  1  0
  5 16  1  0
  7 17  1  0
  7 18  1  0
  8 19  1  0
  8 20  1  0
  9 21  1  0
M  END
