
     RDKit          3D

 20 21  0  0  0  0  0  0  0  0999 V2000
    1.6652   -0.9901   -1.4315 O   0  0  0  0  0  0  0  0  0  0  0  0
    1.9226   -0.4147   -0.1686 C   0  0  0  0  0  0  0  0  0  0  0  0
    0.5465   -0.0058    0.3704 C   0  0  0  0  0  0  0  0  0  0  0  0
   -0.4344   -1.1136    0.5370 C   0  0  0  0  0  0  0  0  0  0  0  0
   -1.7774   -0.6223    0.0977 C   0  0  0  0  0  0  0  0  0  0  0  0
   -1.6041    0.7606   -0.4487 C   0  0  0  0  0  0  0  0  0  0  0  0
   -0.1337    1.0995   -0.3717 C   0  0  0  0  0  0  0  0  0  0  0  0
    0.4134    1.3084    0.9962 C   0  0  0  0  0  0  0  0  0  0  0  0
    2.5252   -1.2674   -1.7919 H   0  0  0  0  0  0  0  0  0  0  0  0
    2.4114   -1.1397    0.5158 H   0  0  0  0  0  0  0  0  0  0  0  0
    2.5374    0.4895   -0.2955 H   0  0  0  0  0  0  0  0  0  0  0  0
   -0.1296   -1.9633   -0.1134 H   0  0  0  0  0  0  0  0  0  0  0  0
   -0.5174   -1.4922    1.5780 H   0  0  0  0  0  0  0  0  0  0  0  0
   -2.5220   -0.6277    0.9429 H   0  0  0  0  0  0  0  0  0  0  0  0
   -2.2199   -1.3136   -0.6762 H   0  0  0  0  0  0  0  0  0  0  0  0
   -2.1318    1.4809    0.2085 H   0  0  0  0  0  0  0  0  0  0  0  0
   -1.9782    0.8378   -1.5121 H   0  0  0  0  0  0  0  0  0  0  0  0
    0.3685    1.4922   -1.2644 H   0  0  0  0  0  0  0  0  0  0  0  0
   -0.2968    1.5614    1.7834 H   0  0  0  0  0  0  0  0  0  0  0  0
    1.3551    1.9199    1.0438 H   0  0  0  0  0  0  0  0  0  0  0  0
  1  2  1  0
  2  3  1  0
  3  4  1  0
  4  5  1  0
  5  6  1  0
  6  7  1  0
  7  8  1  0
  7  3  1  0
  8  3  1  0
  1  9  1  0
  2 10  1  0
  2 11  1  0
  4 12  1  0
  4 13  1  0
  5 14  1  0
  5 15  1  0
  6 16  1  0
  6 17  1  0
  7 18  1  0
  8 19  1  0
  8 20  1  0
M  END
