
     RDKit          3D

 19 20  0  0  0  0  0  0  0  0999 V2000
    2.7853   -0.4025   -0.5549 O   0  0  0  0  0  0  0  0  0  0  0  0
    2.0027    0.6833   -0.1856 C   0  0  0  0  0  0  0  0  0  0  0  0
    0.6088    0.1950    0.0373 C   0  0  0  0  0  0  0  0  0  0  0  0
   -0.4040    1.3045    0.2351 C   0  0  0  0  0  0  0  0  0  0  0  0
   -1.6979    0.5226   -0.0334 C   0  0  0  0  0  0  0  0  0  0  0  0
   -1.1662   -0.7882   -0.5360 C   0  0  0  0  0  0  0  0  0  0  0  0
   -0.6449   -1.5529    0.6608 C   0  0  0  0  0  0  0  0  0  0  0  0
    0.4654   -0.7556    1.0109 O   0  0  0  0  0  0  0  0  0  0  0  0
    0.0670   -0.4054   -1.1189 O   0  0  0  0  0  0  0  0  0  0  0  0
    2.2110   -1.1098   -0.9352 H   0  0  0  0  0  0  0  0  0  0  0  0
    1.9917    1.4788   -0.9428 H   0  0  0  0  0  0  0  0  0  0  0  0
    2.4378    1.1173    0.7365 H   0  0  0  0  0  0  0  0  0  0  0  0
   -0.3704    1.7113    1.2472 H   0  0  0  0  0  0  0  0  0  0  0  0
   -0.2672    2.0859   -0.5566 H   0  0  0  0  0  0  0  0  0  0  0  0
   -2.3546    1.0466   -0.7210 H   0  0  0  0  0  0  0  0  0  0  0  0
   -2.1521    0.3543    0.9752 H   0  0  0  0  0  0  0  0  0  0  0  0
   -1.8039   -1.3405   -1.1938 H   0  0  0  0  0  0  0  0  0  0  0  0
   -0.3131   -2.5791    0.3886 H   0  0  0  0  0  0  0  0  0  0  0  0
   -1.3955   -1.5657    1.4868 H   0  0  0  0  0  0  0  0  0  0  0  0
  1  2  1  0
  2  3  1  0
  3  4  1  0
  4  5  1  0
  5  6  1  0
  6  7  1  0
  7  8  1  0
  6  9  1  0
  8  3  1  0
  9  3  1  0
  1 10  1  0
  2 11  1  0
  2 12  1  0
  4 13  1  0
  4 14  1  0
  5 15  1  0
  5 16  1  0
  6 17  1  0
  7 18  1  0
  7 19  1  0
M  END
