
     RDKit          3D

 20 21  0  0  0  0  0  0  0  0999 V2000
   -2.0163    0.5113   -1.2110 O   0  0  0  0  0  0  0  0  0  0  0  0
   -2.0919   -0.4872   -0.2546 C   0  0  0  0  0  0  0  0  0  0  0  0
   -0.8438   -0.6199    0.5786 C   0  0  0  0  0  0  0  0  0  0  0  0
   -0.4052    0.6051    1.3978 C   0  0  0  0  0  0  0  0  0  0  0  0
    0.4051    0.0468    0.3094 C   0  0  0  0  0  0  0  0  0  0  0  0
    0.8133    0.7588   -0.9035 C   0  0  0  0  0  0  0  0  0  0  0  0
    2.0920   -0.0840   -0.9050 C   0  0  0  0  0  0  0  0  0  0  0  0
    1.7615   -0.5332    0.5037 C   0  0  0  0  0  0  0  0  0  0  0  0
   -2.9589    0.6894   -1.5054 H   0  0  0  0  0  0  0  0  0  0  0  0
   -2.3918   -1.4125   -0.7411 H   0  0  0  0  0  0  0  0  0  0  0  0
   -2.9111   -0.1826    0.4516 H   0  0  0  0  0  0  0  0  0  0  0  0
   -0.7840   -1.6147    1.1018 H   0  0  0  0  0  0  0  0  0  0  0  0
   -1.0051    1.5104    1.3281 H   0  0  0  0  0  0  0  0  0  0  0  0
   -0.0006    0.3966    2.4306 H   0  0  0  0  0  0  0  0  0  0  0  0
    0.2320    0.6517   -1.8283 H   0  0  0  0  0  0  0  0  0  0  0  0
    1.1106    1.8336   -0.7693 H   0  0  0  0  0  0  0  0  0  0  0  0
    1.9537   -0.9269   -1.6202 H   0  0  0  0  0  0  0  0  0  0  0  0
    3.0208    0.4858   -1.0022 H   0  0  0  0  0  0  0  0  0  0  0  0
    2.3072    0.0042    1.3092 H   0  0  0  0  0  0  0  0  0  0  0  0
    1.7125   -1.6329    0.6155 H   0  0  0  0  0  0  0  0  0  0  0  0
  1  2  1  0
  2  3  1  0
  3  4  1  0
  4  5  1  0
  5  6  1  0
  6  7  1  0
  7  8  1  0
  5  3  1  0
  8  5  1  0
  1  9  1  0
  2 10  1  0
  2 11  1  0
  3 12  1  0
  4 13  1  0
  4 14  1  0
  6 15  1  0
  6 16  1  0
  7 17  1  0
  7 18  1  0
  8 19  1  0
  8 20  1  0
M  END
