
     RDKit          3D

 21 22  0  0  0  0  0  0  0  0999 V2000
    2.8077    0.0891   -0.8283 O   0  0  0  0  0  0  0  0  0  0  0  0
    1.9754   -0.6747    0.0153 C   0  0  0  0  0  0  0  0  0  0  0  0
    0.5602   -0.3337   -0.3325 C   0  0  0  0  0  0  0  0  0  0  0  0
    0.1581    1.1083   -0.1686 C   0  0  0  0  0  0  0  0  0  0  0  0
   -1.1222    1.2905   -0.8944 C   0  0  0  0  0  0  0  0  0  0  0  0
   -2.0145    0.3292   -0.7727 C   0  0  0  0  0  0  0  0  0  0  0  0
   -1.7582   -0.8955    0.0635 C   0  0  0  0  0  0  0  0  0  0  0  0
   -0.4309   -0.6758    0.7611 C   0  0  0  0  0  0  0  0  0  0  0  0
   -0.2522    0.7377    1.2593 C   0  0  0  0  0  0  0  0  0  0  0  0
    3.7275   -0.2477   -0.6818 H   0  0  0  0  0  0  0  0  0  0  0  0
    2.1802   -0.4461    1.0859 H   0  0  0  0  0  0  0  0  0  0  0  0
    2.1525   -1.7242   -0.2531 H   0  0  0  0  0  0  0  0  0  0  0  0
    0.2901   -0.6952   -1.3352 H   0  0  0  0  0  0  0  0  0  0  0  0
    0.9156    1.8665   -0.2679 H   0  0  0  0  0  0  0  0  0  0  0  0
   -1.3177    2.1539   -1.4870 H   0  0  0  0  0  0  0  0  0  0  0  0
   -2.9705    0.3775   -1.2681 H   0  0  0  0  0  0  0  0  0  0  0  0
   -2.5843   -1.0996    0.7630 H   0  0  0  0  0  0  0  0  0  0  0  0
   -1.6132   -1.7541   -0.6247 H   0  0  0  0  0  0  0  0  0  0  0  0
   -0.1074   -1.4733    1.4413 H   0  0  0  0  0  0  0  0  0  0  0  0
   -1.1846    1.2424    1.5837 H   0  0  0  0  0  0  0  0  0  0  0  0
    0.5882    0.8249    1.9415 H   0  0  0  0  0  0  0  0  0  0  0  0
  1  2  1  0
  2  3  1  0
  3  4  1  0
  4  5  1  0
  5  6  2  0
  6  7  1  0
  7  8  1  0
  8  9  1  0
  8  3  1  0
  9  4  1  0
  1 10  1  0
  2 11  1  0
  2 12  1  0
  3 13  1  0
  4 14  1  0
  5 15  1  0
  6 16  1  0
  7 17  1  0
  7 18  1  0
  8 19  1  0
  9 20  1  0
  9 21  1  0
M  END
