
     RDKit          3D

 19 19  0  0  0  0  0  0  0  0999 V2000
   -1.9516    0.4410    1.3533 O   0  0  0  0  0  0  0  0  0  0  0  0
   -1.9201    0.6449   -0.0057 C   0  0  0  0  0  0  0  0  0  0  0  0
   -0.8587   -0.1759   -0.6936 C   0  0  0  0  0  0  0  0  0  0  0  0
   -0.9865   -1.5570   -0.5500 O   0  0  0  0  0  0  0  0  0  0  0  0
    0.4191   -1.6120   -0.6273 C   0  0  0  0  0  0  0  0  0  0  0  0
    0.4318   -0.3098    0.1135 C   0  0  0  0  0  0  0  0  0  0  0  0
    0.2681   -0.4728    1.4616 O   0  0  0  0  0  0  0  0  0  0  0  0
    1.4492    0.6993   -0.3289 C   0  0  0  0  0  0  0  0  0  0  0  0
    2.7244    0.4389    0.1016 O   0  0  0  0  0  0  0  0  0  0  0  0
   -2.7849    0.8802    1.6956 H   0  0  0  0  0  0  0  0  0  0  0  0
   -2.9051    0.4414   -0.4712 H   0  0  0  0  0  0  0  0  0  0  0  0
   -1.6743    1.7096   -0.1962 H   0  0  0  0  0  0  0  0  0  0  0  0
   -0.5972    0.1560   -1.7159 H   0  0  0  0  0  0  0  0  0  0  0  0
    0.6957   -1.5301   -1.7160 H   0  0  0  0  0  0  0  0  0  0  0  0
    0.8753   -2.4737   -0.1249 H   0  0  0  0  0  0  0  0  0  0  0  0
    1.0089   -1.0532    1.8134 H   0  0  0  0  0  0  0  0  0  0  0  0
    1.1431    1.6819    0.1367 H   0  0  0  0  0  0  0  0  0  0  0  0
    1.3773    0.8680   -1.4205 H   0  0  0  0  0  0  0  0  0  0  0  0
    3.2853    1.2232   -0.1240 H   0  0  0  0  0  0  0  0  0  0  0  0
  1  2  1  0
  2  3  1  0
  3  4  1  0
  4  5  1  0
  5  6  1  0
  6  7  1  0
  6  8  1  0
  8  9  1  0
  6  3  1  0
  1 10  1  0
  2 11  1  0
  2 12  1  0
  3 13  1  0
  5 14  1  0
  5 15  1  0
  7 16  1  0
  8 17  1  0
  8 18  1  0
  9 19  1  0
M  END
