
     RDKit          3D

 19 20  0  0  0  0  0  0  0  0999 V2000
   -2.4244    0.5558   -1.1053 O   0  0  0  0  0  0  0  0  0  0  0  0
   -1.7718    0.7506    0.1245 C   0  0  0  0  0  0  0  0  0  0  0  0
   -0.5734   -0.1326    0.2335 C   0  0  0  0  0  0  0  0  0  0  0  0
   -0.8437   -1.5664   -0.2769 C   0  0  0  0  0  0  0  0  0  0  0  0
    0.1586   -0.6652   -0.9104 C   0  0  0  0  0  0  0  0  0  0  0  0
    1.4909   -0.9717   -0.5758 O   0  0  0  0  0  0  0  0  0  0  0  0
    2.0733    0.1419   -0.0277 C   0  0  0  0  0  0  0  0  0  0  0  0
    1.4143    0.4753    1.2623 C   0  0  0  0  0  0  0  0  0  0  0  0
    0.1406   -0.0147    1.4141 O   0  0  0  0  0  0  0  0  0  0  0  0
   -2.0168    1.1300   -1.8177 H   0  0  0  0  0  0  0  0  0  0  0  0
   -2.5106    0.3968    0.9027 H   0  0  0  0  0  0  0  0  0  0  0  0
   -1.5924    1.8014    0.3331 H   0  0  0  0  0  0  0  0  0  0  0  0
   -0.5096   -2.3685    0.4205 H   0  0  0  0  0  0  0  0  0  0  0  0
   -1.7460   -1.7545   -0.8506 H   0  0  0  0  0  0  0  0  0  0  0  0
    0.0293   -0.3078   -1.9455 H   0  0  0  0  0  0  0  0  0  0  0  0
    3.1727   -0.0553    0.1141 H   0  0  0  0  0  0  0  0  0  0  0  0
    2.0230    0.9629   -0.7786 H   0  0  0  0  0  0  0  0  0  0  0  0
    2.0442    0.0262    2.0855 H   0  0  0  0  0  0  0  0  0  0  0  0
    1.4417    1.5957    1.3981 H   0  0  0  0  0  0  0  0  0  0  0  0
  1  2  1  0
  2  3  1  0
  3  4  1  0
  4  5  1  0
  5  6  1  0
  6  7  1  0
  7  8  1  0
  8  9  1  0
  5  3  1  0
  9  3  1  0
  1 10  1  0
  2 11  1  0
  2 12  1  0
  4 13  1  0
  4 14  1  0
  5 15  1  0
  7 16  1  0
  7 17  1  0
  8 18  1  0
  8 19  1  0
M  END
