
     RDKit          3D

 18 19  0  0  0  0  0  0  0  0999 V2000
    2.6339   -0.7245    0.2479 O   0  0  0  0  0  0  0  0  0  0  0  0
    1.6321   -0.3930   -0.6795 C   0  0  0  0  0  0  0  0  0  0  0  0
    0.4284    0.0326    0.1205 C   0  0  0  0  0  0  0  0  0  0  0  0
    0.3207    1.4430    0.5531 C   0  0  0  0  0  0  0  0  0  0  0  0
   -0.6343    0.8708   -0.4223 C   0  0  0  0  0  0  0  0  0  0  0  0
   -1.9122    0.1928    0.0784 C   0  0  0  0  0  0  0  0  0  0  0  0
   -1.3880   -1.1414    0.5207 C   0  0  0  0  0  0  0  0  0  0  0  0
   -0.0854   -0.9118    0.9770 O   0  0  0  0  0  0  0  0  0  0  0  0
    3.4956   -0.8864   -0.1822 H   0  0  0  0  0  0  0  0  0  0  0  0
    1.3813   -1.3106   -1.2817 H   0  0  0  0  0  0  0  0  0  0  0  0
    1.9656    0.3764   -1.3984 H   0  0  0  0  0  0  0  0  0  0  0  0
    0.0385    1.6338    1.6052 H   0  0  0  0  0  0  0  0  0  0  0  0
    1.0168    2.2107    0.1481 H   0  0  0  0  0  0  0  0  0  0  0  0
   -0.5752    1.1887   -1.4671 H   0  0  0  0  0  0  0  0  0  0  0  0
   -2.5993    0.0536   -0.7741 H   0  0  0  0  0  0  0  0  0  0  0  0
   -2.3604    0.7766    0.9096 H   0  0  0  0  0  0  0  0  0  0  0  0
   -1.4150   -1.8409   -0.3320 H   0  0  0  0  0  0  0  0  0  0  0  0
   -1.9430   -1.5702    1.3768 H   0  0  0  0  0  0  0  0  0  0  0  0
  1  2  1  0
  2  3  1  0
  3  4  1  0
  4  5  1  0
  5  6  1  0
  6  7  1  0
  7  8  1  0
  5  3  1  0
  8  3  1  0
  1  9  1  0
  2 10  1  0
  2 11  1  0
  4 12  1  0
  4 13  1  0
  5 14  1  0
  6 15  1  0
  6 16  1  0
  7 17  1  0
  7 18  1  0
M  END
