
     RDKit          3D

 17 20  0  0  0  0  0  0  0  0999 V2000
    2.4127   -1.1831   -0.5893 O   0  0  0  0  0  0  0  0  0  0  0  0
    1.8770   -0.1862    0.2316 C   0  0  0  0  0  0  0  0  0  0  0  0
    0.4710   -0.1031    0.3346 C   0  0  0  0  0  0  0  0  0  0  0  0
   -0.3750   -1.1187    0.8054 O   0  0  0  0  0  0  0  0  0  0  0  0
   -1.7037   -0.8940    0.4220 C   0  0  0  0  0  0  0  0  0  0  0  0
   -1.2410   -0.3644   -0.6169 C   0  0  0  0  0  0  0  0  0  0  0  0
   -1.8624    0.5371   -0.3200 C   0  0  0  0  0  0  0  0  0  0  0  0
   -0.3134    0.9266   -0.6199 C   0  0  0  0  0  0  0  0  0  0  0  0
   -0.5122    0.6755    0.4788 C   0  0  0  0  0  0  0  0  0  0  0  0
    3.3307   -0.9115   -0.8452 H   0  0  0  0  0  0  0  0  0  0  0  0
    2.3241    0.7748   -0.0986 H   0  0  0  0  0  0  0  0  0  0  0  0
    2.3187   -0.3777    1.2498 H   0  0  0  0  0  0  0  0  0  0  0  0
   -2.5032   -1.0210    1.1577 H   0  0  0  0  0  0  0  0  0  0  0  0
   -0.7168   -0.7352   -1.4725 H   0  0  0  0  0  0  0  0  0  0  0  0
   -2.4250    1.2874    0.2387 H   0  0  0  0  0  0  0  0  0  0  0  0
   -0.0365    0.8777   -1.6804 H   0  0  0  0  0  0  0  0  0  0  0  0
   -1.0450    1.0581    1.3240 H   0  0  0  0  0  0  0  0  0  0  0  0
  1  2  1  0
  2  3  1  0
  3  4  1  0
  4  5  1  0
  5  6  1  0
  6  7  1  0
  7  8  1  0
  8  9  1  0
  8  3  1  0
  9  3  1  0
  7  5  1  0
  9  6  1  0
  1 10  1  0
  2 11  1  0
  2 12  1  0
  5 13  1  0
  6 14  1  0
  7 15  1  0
  8 16  1  0
  9 17  1  0
M  END
