
     RDKit          3D

 19 21  0  0  0  0  0  0  0  0999 V2000
    2.8728    0.4120   -0.0643 O   0  0  0  0  0  0  0  0  0  0  0  0
    1.8800   -0.3961    0.4852 C   0  0  0  0  0  0  0  0  0  0  0  0
    0.5841   -0.2051   -0.2667 C   0  0  0  0  0  0  0  0  0  0  0  0
    0.0849    1.2133   -0.2244 C   0  0  0  0  0  0  0  0  0  0  0  0
   -1.4339    1.0123   -0.1117 C   0  0  0  0  0  0  0  0  0  0  0  0
   -2.0305   -0.1814   -0.7532 C   0  0  0  0  0  0  0  0  0  0  0  0
   -1.3831   -1.3813   -0.8640 O   0  0  0  0  0  0  0  0  0  0  0  0
   -0.5036   -1.1061    0.2086 C   0  0  0  0  0  0  0  0  0  0  0  0
   -1.5471   -0.1590    0.7225 C   0  0  0  0  0  0  0  0  0  0  0  0
    3.6826   -0.1097   -0.2907 H   0  0  0  0  0  0  0  0  0  0  0  0
    2.1912   -1.4396    0.3478 H   0  0  0  0  0  0  0  0  0  0  0  0
    1.7939   -0.1007    1.5540 H   0  0  0  0  0  0  0  0  0  0  0  0
    0.8118   -0.4321   -1.3401 H   0  0  0  0  0  0  0  0  0  0  0  0
    0.3453    1.8103   -1.1012 H   0  0  0  0  0  0  0  0  0  0  0  0
    0.3728    1.7203    0.7432 H   0  0  0  0  0  0  0  0  0  0  0  0
   -2.0483    1.9090   -0.0769 H   0  0  0  0  0  0  0  0  0  0  0  0
   -3.1083   -0.1700   -0.9340 H   0  0  0  0  0  0  0  0  0  0  0  0
   -0.2434   -1.9575    0.8300 H   0  0  0  0  0  0  0  0  0  0  0  0
   -2.3214   -0.4389    1.4088 H   0  0  0  0  0  0  0  0  0  0  0  0
  1  2  1  0
  2  3  1  0
  3  4  1  0
  4  5  1  0
  5  6  1  0
  6  7  1  0
  7  8  1  0
  8  9  1  0
  8  3  1  0
  9  5  1  0
  9  6  1  0
  1 10  1  0
  2 11  1  0
  2 12  1  0
  3 13  1  0
  4 14  1  0
  4 15  1  0
  5 16  1  0
  6 17  1  0
  8 18  1  0
  9 19  1  0
M  END
