
     RDKit          3D

 19 19  0  0  0  0  0  0  0  0999 V2000
    3.1047    0.4283   -0.3803 O   0  0  0  0  0  0  0  0  0  0  0  0
    2.2425   -0.5683    0.0426 C   0  0  0  0  0  0  0  0  0  0  0  0
    0.8559    0.0142    0.2801 C   0  0  0  0  0  0  0  0  0  0  0  0
   -0.0813   -1.0747    0.6785 C   0  0  0  0  0  0  0  0  0  0  0  0
   -1.3743   -0.8051    0.5366 C   0  0  0  0  0  0  0  0  0  0  0  0
   -1.8369    0.5264    0.0037 C   0  0  0  0  0  0  0  0  0  0  0  0
   -3.0444    0.3934   -0.6802 O   0  0  0  0  0  0  0  0  0  0  0  0
   -0.7970    1.1939   -0.8292 C   0  0  0  0  0  0  0  0  0  0  0  0
    0.4057    0.5505   -0.8999 O   0  0  0  0  0  0  0  0  0  0  0  0
    3.9939    0.3375    0.0085 H   0  0  0  0  0  0  0  0  0  0  0  0
    2.2199   -1.3497   -0.7264 H   0  0  0  0  0  0  0  0  0  0  0  0
    2.6578   -1.0151    0.9683 H   0  0  0  0  0  0  0  0  0  0  0  0
    0.9577    0.7559    1.1056 H   0  0  0  0  0  0  0  0  0  0  0  0
    0.2383   -2.0368    1.0631 H   0  0  0  0  0  0  0  0  0  0  0  0
   -2.1076   -1.5450    0.8047 H   0  0  0  0  0  0  0  0  0  0  0  0
   -2.0705    1.1342    0.9202 H   0  0  0  0  0  0  0  0  0  0  0  0
   -3.4864   -0.4626   -0.5092 H   0  0  0  0  0  0  0  0  0  0  0  0
   -1.1992    1.2535   -1.8844 H   0  0  0  0  0  0  0  0  0  0  0  0
   -0.6789    2.2697   -0.5275 H   0  0  0  0  0  0  0  0  0  0  0  0
  1  2  1  0
  2  3  1  0
  3  4  1  0
  4  5  2  0
  5  6  1  0
  6  7  1  0
  6  8  1  0
  8  9  1  0
  9  3  1  0
  1 10  1  0
  2 11  1  0
  2 12  1  0
  3 13  1  0
  4 14  1  0
  5 15  1  0
  6 16  1  0
  7 17  1  0
  8 18  1  0
  8 19  1  0
M  END
