
     RDKit          3D

 19 20  0  0  0  0  0  0  0  0999 V2000
   -0.5616    2.3717   -0.0292 O   0  0  0  0  0  0  0  0  0  0  0  0
   -1.1346    1.1441   -0.3252 C   0  0  0  0  0  0  0  0  0  0  0  0
   -0.1129    0.0312   -0.1814 C   0  0  0  0  0  0  0  0  0  0  0  0
   -0.6535   -1.3332   -0.4848 C   0  0  0  0  0  0  0  0  0  0  0  0
   -1.7146   -1.6421    0.3920 O   0  0  0  0  0  0  0  0  0  0  0  0
    1.2390    0.3782   -0.6482 C   0  0  0  0  0  0  0  0  0  0  0  0
    1.8168   -0.5288    0.3850 C   0  0  0  0  0  0  0  0  0  0  0  0
    0.7175    0.2271    1.0217 C   0  0  0  0  0  0  0  0  0  0  0  0
    1.2482    1.3392    0.3601 O   0  0  0  0  0  0  0  0  0  0  0  0
   -1.0647    2.9069    0.6189 H   0  0  0  0  0  0  0  0  0  0  0  0
   -1.4725    1.1185   -1.3824 H   0  0  0  0  0  0  0  0  0  0  0  0
   -1.9795    0.9959    0.3821 H   0  0  0  0  0  0  0  0  0  0  0  0
   -1.1730   -1.2303   -1.4879 H   0  0  0  0  0  0  0  0  0  0  0  0
    0.0542   -2.1422   -0.5525 H   0  0  0  0  0  0  0  0  0  0  0  0
   -1.7915   -2.6371    0.4918 H   0  0  0  0  0  0  0  0  0  0  0  0
    1.5726    0.5177   -1.5905 H   0  0  0  0  0  0  0  0  0  0  0  0
    1.7689   -1.6010    0.2626 H   0  0  0  0  0  0  0  0  0  0  0  0
    2.8092   -0.1407    0.7768 H   0  0  0  0  0  0  0  0  0  0  0  0
    0.4319    0.2247    1.9913 H   0  0  0  0  0  0  0  0  0  0  0  0
  1  2  1  0
  2  3  1  0
  3  4  1  0
  4  5  1  0
  3  6  1  0
  6  7  1  0
  7  8  1  0
  8  9  1  0
  8  3  1  0
  9  6  1  0
  1 10  1  0
  2 11  1  0
  2 12  1  0
  4 13  1  0
  4 14  1  0
  5 15  1  0
  6 16  1  0
  7 17  1  0
  7 18  1  0
  8 19  1  0
M  END
