
     RDKit          3D

 21 22  0  0  0  0  0  0  0  0999 V2000
   -2.6153   -0.0459   -0.9329 O   0  0  0  0  0  0  0  0  0  0  0  0
   -1.6453    0.5976   -0.1527 C   0  0  0  0  0  0  0  0  0  0  0  0
   -0.4595   -0.3241    0.1049 C   0  0  0  0  0  0  0  0  0  0  0  0
    0.6118    0.2962    0.9297 C   0  0  0  0  0  0  0  0  0  0  0  0
    1.2140    1.5625    0.2881 C   0  0  0  0  0  0  0  0  0  0  0  0
    2.0218    0.3406    0.5869 C   0  0  0  0  0  0  0  0  0  0  0  0
    2.5651   -0.3309   -0.5028 O   0  0  0  0  0  0  0  0  0  0  0  0
   -0.7954   -1.7564    0.4573 C   0  0  0  0  0  0  0  0  0  0  0  0
   -0.2069   -1.3893   -0.8837 C   0  0  0  0  0  0  0  0  0  0  0  0
   -3.2662    0.6478   -1.2085 H   0  0  0  0  0  0  0  0  0  0  0  0
   -1.3400    1.4968   -0.7278 H   0  0  0  0  0  0  0  0  0  0  0  0
   -2.0893    0.9537    0.7928 H   0  0  0  0  0  0  0  0  0  0  0  0
    0.3326    0.3934    2.0185 H   0  0  0  0  0  0  0  0  0  0  0  0
    1.2464    2.4456    0.9526 H   0  0  0  0  0  0  0  0  0  0  0  0
    1.0034    1.7612   -0.7653 H   0  0  0  0  0  0  0  0  0  0  0  0
    2.7452    0.4707    1.4216 H   0  0  0  0  0  0  0  0  0  0  0  0
    2.7627    0.3617   -1.1928 H   0  0  0  0  0  0  0  0  0  0  0  0
   -1.8754   -2.0041    0.5016 H   0  0  0  0  0  0  0  0  0  0  0  0
   -0.1293   -2.2865    1.1895 H   0  0  0  0  0  0  0  0  0  0  0  0
    0.8137   -1.7511   -1.1197 H   0  0  0  0  0  0  0  0  0  0  0  0
   -0.8942   -1.4398   -1.7570 H   0  0  0  0  0  0  0  0  0  0  0  0
  1  2  1  0
  2  3  1  0
  3  4  1  0
  4  5  1  0
  5  6  1  0
  6  7  1  0
  3  8  1  0
  8  9  1  0
  9  3  1  0
  6  4  1  0
  1 10  1  0
  2 11  1  0
  2 12  1  0
  4 13  1  0
  5 14  1  0
  5 15  1  0
  6 16  1  0
  7 17  1  0
  8 18  1  0
  8 19  1  0
  9 20  1  0
  9 21  1  0
M  END
