
     RDKit          3D

 19 20  0  0  0  0  0  0  0  0999 V2000
    2.3434    0.4401    0.7850 O   0  0  0  0  0  0  0  0  0  0  0  0
    1.8629    0.1559   -0.4912 C   0  0  0  0  0  0  0  0  0  0  0  0
    0.4140   -0.2811   -0.4478 C   0  0  0  0  0  0  0  0  0  0  0  0
    0.2231   -1.4960    0.3698 C   0  0  0  0  0  0  0  0  0  0  0  0
   -0.9479   -1.4082    0.9755 C   0  0  0  0  0  0  0  0  0  0  0  0
   -1.6459   -0.1427    0.6294 C   0  0  0  0  0  0  0  0  0  0  0  0
   -2.1014   -0.0329   -0.6815 O   0  0  0  0  0  0  0  0  0  0  0  0
   -1.4996    1.2487   -0.7750 C   0  0  0  0  0  0  0  0  0  0  0  0
   -0.4776    0.7233    0.1976 C   0  0  0  0  0  0  0  0  0  0  0  0
    3.3316    0.2446    0.7902 H   0  0  0  0  0  0  0  0  0  0  0  0
    2.4308   -0.6830   -0.9549 H   0  0  0  0  0  0  0  0  0  0  0  0
    1.9004    1.0689   -1.1396 H   0  0  0  0  0  0  0  0  0  0  0  0
    0.0441   -0.5400   -1.4652 H   0  0  0  0  0  0  0  0  0  0  0  0
    0.9553   -2.3091    0.4345 H   0  0  0  0  0  0  0  0  0  0  0  0
   -1.3238   -2.1832    1.6380 H   0  0  0  0  0  0  0  0  0  0  0  0
   -2.2942    0.2817    1.4064 H   0  0  0  0  0  0  0  0  0  0  0  0
   -2.1296    2.0701   -0.4466 H   0  0  0  0  0  0  0  0  0  0  0  0
   -1.0150    1.4384   -1.7532 H   0  0  0  0  0  0  0  0  0  0  0  0
   -0.0706    1.4044    0.9284 H   0  0  0  0  0  0  0  0  0  0  0  0
  1  2  1  0
  2  3  1  0
  3  4  1  0
  4  5  2  0
  5  6  1  0
  6  7  1  0
  7  8  1  0
  8  9  1  0
  9  3  1  0
  9  6  1  0
  1 10  1  0
  2 11  1  0
  2 12  1  0
  3 13  1  0
  4 14  1  0
  5 15  1  0
  6 16  1  0
  8 17  1  0
  8 18  1  0
  9 19  1  0
M  END
