
     RDKit          3D

 16 17  0  0  0  0  0  0  0  0999 V2000
    2.6003    0.7919    0.0882 O   0  0  0  0  0  0  0  0  0  0  0  0
    1.8029   -0.3608    0.1083 C   0  0  0  0  0  0  0  0  0  0  0  0
    0.3762    0.0976   -0.1446 C   0  0  0  0  0  0  0  0  0  0  0  0
   -0.4050    0.5111    1.0285 C   0  0  0  0  0  0  0  0  0  0  0  0
   -1.6997    0.3599    0.7800 C   0  0  0  0  0  0  0  0  0  0  0  0
   -1.9072   -0.1767   -0.6030 C   0  0  0  0  0  0  0  0  0  0  0  0
   -0.5085   -0.4362   -1.0916 C   0  0  0  0  0  0  0  0  0  0  0  0
    0.2076    0.7420   -1.3599 O   0  0  0  0  0  0  0  0  0  0  0  0
    3.2118    0.7262    0.8694 H   0  0  0  0  0  0  0  0  0  0  0  0
    2.1195   -1.0478   -0.7037 H   0  0  0  0  0  0  0  0  0  0  0  0
    1.8192   -0.8326    1.0930 H   0  0  0  0  0  0  0  0  0  0  0  0
    0.0123    0.8826    1.9548 H   0  0  0  0  0  0  0  0  0  0  0  0
   -2.4637    0.6089    1.5200 H   0  0  0  0  0  0  0  0  0  0  0  0
   -2.3707    0.5781   -1.2697 H   0  0  0  0  0  0  0  0  0  0  0  0
   -2.5202   -1.0983   -0.5979 H   0  0  0  0  0  0  0  0  0  0  0  0
   -0.2749   -1.3458   -1.6718 H   0  0  0  0  0  0  0  0  0  0  0  0
  1  2  1  0
  2  3  1  0
  3  4  1  0
  4  5  2  0
  5  6  1  0
  6  7  1  0
  7  8  1  0
  7  3  1  0
  8  3  1  0
  1  9  1  0
  2 10  1  0
  2 11  1  0
  4 12  1  0
  5 13  1  0
  6 14  1  0
  6 15  1  0
  7 16  1  0
M  END
