
     RDKit          3D

 19 20  0  0  0  0  0  0  0  0999 V2000
    2.6054    0.5864   -0.6499 O   0  0  0  0  0  0  0  0  0  0  0  0
    1.8175   -0.5505   -0.5208 C   0  0  0  0  0  0  0  0  0  0  0  0
    0.4508   -0.1398   -0.1270 C   0  0  0  0  0  0  0  0  0  0  0  0
    0.3825    0.7292    1.0710 C   0  0  0  0  0  0  0  0  0  0  0  0
   -0.7365    1.4443    0.9350 C   0  0  0  0  0  0  0  0  0  0  0  0
   -1.3459    0.9566   -0.3526 C   0  0  0  0  0  0  0  0  0  0  0  0
   -1.8701   -0.4138   -0.0805 C   0  0  0  0  0  0  0  0  0  0  0  0
   -0.5675   -1.2308   -0.0652 C   0  0  0  0  0  0  0  0  0  0  0  0
   -0.1547    0.7146   -1.0816 O   0  0  0  0  0  0  0  0  0  0  0  0
    3.4799    0.4979   -0.2043 H   0  0  0  0  0  0  0  0  0  0  0  0
    2.2407   -1.3300    0.1082 H   0  0  0  0  0  0  0  0  0  0  0  0
    1.7524   -0.9874   -1.5579 H   0  0  0  0  0  0  0  0  0  0  0  0
    1.0719    0.8015    1.9044 H   0  0  0  0  0  0  0  0  0  0  0  0
   -1.1596    2.2071    1.5647 H   0  0  0  0  0  0  0  0  0  0  0  0
   -2.0091    1.6538   -0.8197 H   0  0  0  0  0  0  0  0  0  0  0  0
   -2.5850   -0.7959   -0.8061 H   0  0  0  0  0  0  0  0  0  0  0  0
   -2.3066   -0.4822    0.9580 H   0  0  0  0  0  0  0  0  0  0  0  0
   -0.5011   -1.8954    0.7846 H   0  0  0  0  0  0  0  0  0  0  0  0
   -0.5650   -1.7654   -1.0605 H   0  0  0  0  0  0  0  0  0  0  0  0
  1  2  1  0
  2  3  1  0
  3  4  1  0
  4  5  2  0
  5  6  1  0
  6  7  1  0
  7  8  1  0
  6  9  1  0
  8  3  1  0
  9  3  1  0
  1 10  1  0
  2 11  1  0
  2 12  1  0
  4 13  1  0
  5 14  1  0
  6 15  1  0
  7 16  1  0
  7 17  1  0
  8 18  1  0
  8 19  1  0
M  END
