
     RDKit          3D

 17 19  0  0  0  0  0  0  0  0999 V2000
    2.5510    0.7077   -0.2193 O   0  0  0  0  0  0  0  0  0  0  0  0
    1.8295   -0.4603   -0.1022 C   0  0  0  0  0  0  0  0  0  0  0  0
    0.3861   -0.1860   -0.3305 C   0  0  0  0  0  0  0  0  0  0  0  0
   -0.1626    0.8001    0.6602 C   0  0  0  0  0  0  0  0  0  0  0  0
   -0.2298   -0.2883    1.5631 O   0  0  0  0  0  0  0  0  0  0  0  0
   -0.5673   -1.0565    0.4223 C   0  0  0  0  0  0  0  0  0  0  0  0
   -1.9401   -0.5160    0.1219 C   0  0  0  0  0  0  0  0  0  0  0  0
   -2.5799    0.2699    1.0508 O   0  0  0  0  0  0  0  0  0  0  0  0
   -1.6253    0.9801    0.3370 C   0  0  0  0  0  0  0  0  0  0  0  0
    2.3931    1.3423    0.5308 H   0  0  0  0  0  0  0  0  0  0  0  0
    2.0140   -0.8664    0.9139 H   0  0  0  0  0  0  0  0  0  0  0  0
    2.2142   -1.1672   -0.8724 H   0  0  0  0  0  0  0  0  0  0  0  0
    0.1400    0.0221   -1.3865 H   0  0  0  0  0  0  0  0  0  0  0  0
    0.4193    1.6438    0.9517 H   0  0  0  0  0  0  0  0  0  0  0  0
   -0.4135   -2.1094    0.4781 H   0  0  0  0  0  0  0  0  0  0  0  0
   -2.4781   -0.7996   -0.7815 H   0  0  0  0  0  0  0  0  0  0  0  0
   -1.9505    1.6838   -0.4351 H   0  0  0  0  0  0  0  0  0  0  0  0
  1  2  1  0
  2  3  1  0
  3  4  1  0
  4  5  1  0
  5  6  1  0
  6  7  1  0
  7  8  1  0
  8  9  1  0
  6  3  1  0
  9  7  1  0
  9  4  1  0
  1 10  1  0
  2 11  1  0
  2 12  1  0
  3 13  1  0
  4 14  1  0
  6 15  1  0
  7 16  1  0
  9 17  1  0
M  END
