
     RDKit          3D

 21 22  0  0  0  0  0  0  0  0999 V2000
    3.2249   -0.3208   -0.1710 O   0  0  0  0  0  0  0  0  0  0  0  0
    2.1971    0.5761   -0.0112 C   0  0  0  0  0  0  0  0  0  0  0  0
    0.8596    0.0584   -0.4084 C   0  0  0  0  0  0  0  0  0  0  0  0
   -0.1455    1.2069   -0.1804 C   0  0  0  0  0  0  0  0  0  0  0  0
   -1.3450    0.5286    0.3388 C   0  0  0  0  0  0  0  0  0  0  0  0
   -2.5594    0.1050   -0.2310 C   0  0  0  0  0  0  0  0  0  0  0  0
   -1.4601   -0.6716   -0.6683 C   0  0  0  0  0  0  0  0  0  0  0  0
   -0.6278   -1.7013   -0.0399 C   0  0  0  0  0  0  0  0  0  0  0  0
    0.5663   -1.0555    0.3725 O   0  0  0  0  0  0  0  0  0  0  0  0
    3.9544   -0.0155   -0.7625 H   0  0  0  0  0  0  0  0  0  0  0  0
    2.4355    1.4589   -0.6738 H   0  0  0  0  0  0  0  0  0  0  0  0
    2.1738    1.0148    1.0222 H   0  0  0  0  0  0  0  0  0  0  0  0
    0.8919   -0.2567   -1.4498 H   0  0  0  0  0  0  0  0  0  0  0  0
   -0.3447    1.6149   -1.2124 H   0  0  0  0  0  0  0  0  0  0  0  0
    0.2837    1.9970    0.4350 H   0  0  0  0  0  0  0  0  0  0  0  0
   -1.1709    0.2458    1.4231 H   0  0  0  0  0  0  0  0  0  0  0  0
   -3.3270   -0.3804    0.4362 H   0  0  0  0  0  0  0  0  0  0  0  0
   -3.0890    0.7637   -0.9586 H   0  0  0  0  0  0  0  0  0  0  0  0
   -1.1148   -0.4764   -1.7271 H   0  0  0  0  0  0  0  0  0  0  0  0
   -0.3006   -2.4860   -0.7582 H   0  0  0  0  0  0  0  0  0  0  0  0
   -1.1023   -2.2060    0.8301 H   0  0  0  0  0  0  0  0  0  0  0  0
  1  2  1  0
  2  3  1  0
  3  4  1  0
  4  5  1  0
  5  6  1  0
  6  7  1  0
  7  8  1  0
  8  9  1  0
  9  3  1  0
  7  5  1  0
  1 10  1  0
  2 11  1  0
  2 12  1  0
  3 13  1  0
  4 14  1  0
  4 15  1  0
  5 16  1  0
  6 17  1  0
  6 18  1  0
  7 19  1  0
  8 20  1  0
  8 21  1  0
M  END
