
     RDKit          3D

 21 22  0  0  0  0  0  0  0  0999 V2000
    1.9877   -1.6133    0.5667 O   0  0  0  0  0  0  0  0  0  0  0  0
    1.3862   -0.5415    1.2097 C   0  0  0  0  0  0  0  0  0  0  0  0
    0.4590    0.1395    0.2022 C   0  0  0  0  0  0  0  0  0  0  0  0
   -0.6107   -0.7589   -0.3222 C   0  0  0  0  0  0  0  0  0  0  0  0
   -1.5689   -0.2025   -1.3074 C   0  0  0  0  0  0  0  0  0  0  0  0
   -2.5858   -0.9313   -0.6447 O   0  0  0  0  0  0  0  0  0  0  0  0
   -1.8592   -0.6425    0.5354 C   0  0  0  0  0  0  0  0  0  0  0  0
    1.1817    1.0353   -0.7941 C   0  0  0  0  0  0  0  0  0  0  0  0
    0.3217    1.5845    0.3372 C   0  0  0  0  0  0  0  0  0  0  0  0
    2.3612   -1.2610   -0.2808 H   0  0  0  0  0  0  0  0  0  0  0  0
    0.8520   -0.9154    2.0833 H   0  0  0  0  0  0  0  0  0  0  0  0
    2.1740    0.1439    1.5589 H   0  0  0  0  0  0  0  0  0  0  0  0
   -0.2745   -1.7989   -0.4665 H   0  0  0  0  0  0  0  0  0  0  0  0
   -1.4750   -0.5318   -2.3599 H   0  0  0  0  0  0  0  0  0  0  0  0
   -1.7555    0.8624   -1.1454 H   0  0  0  0  0  0  0  0  0  0  0  0
   -2.0021    0.4195    0.8354 H   0  0  0  0  0  0  0  0  0  0  0  0
   -1.9632   -1.3944    1.3254 H   0  0  0  0  0  0  0  0  0  0  0  0
    2.2941    1.1342   -0.7014 H   0  0  0  0  0  0  0  0  0  0  0  0
    0.8051    1.1002   -1.8274 H   0  0  0  0  0  0  0  0  0  0  0  0
   -0.5952    2.0756    0.0127 H   0  0  0  0  0  0  0  0  0  0  0  0
    0.8676    2.0964    1.1827 H   0  0  0  0  0  0  0  0  0  0  0  0
  1  2  1  0
  2  3  1  0
  3  4  1  0
  4  5  1  0
  5  6  1  0
  6  7  1  0
  3  8  1  0
  8  9  1  0
  9  3  1  0
  7  4  1  0
  1 10  1  0
  2 11  1  0
  2 12  1  0
  4 13  1  0
  5 14  1  0
  5 15  1  0
  7 16  1  0
  7 17  1  0
  8 18  1  0
  8 19  1  0
  9 20  1  0
  9 21  1  0
M  END
