
     RDKit          3D

 21 21  0  0  0  0  0  0  0  0999 V2000
    2.8570   -0.5536   -0.6698 O   0  0  0  0  0  0  0  0  0  0  0  0
    1.5697   -0.9027   -0.2954 C   0  0  0  0  0  0  0  0  0  0  0  0
    0.6476    0.2840   -0.2137 C   0  0  0  0  0  0  0  0  0  0  0  0
    1.1235    1.3121    0.7971 C   0  0  0  0  0  0  0  0  0  0  0  0
    0.0099    2.0458    1.0821 O   0  0  0  0  0  0  0  0  0  0  0  0
   -1.1147    1.2901    0.9060 C   0  0  0  0  0  0  0  0  0  0  0  0
   -0.6905   -0.0704    0.3941 C   0  0  0  0  0  0  0  0  0  0  0  0
   -1.6585   -0.6068   -0.6295 C   0  0  0  0  0  0  0  0  0  0  0  0
   -2.8503   -0.9038    0.0092 O   0  0  0  0  0  0  0  0  0  0  0  0
    3.5046   -1.2471   -0.3912 H   0  0  0  0  0  0  0  0  0  0  0  0
    1.5280   -1.5215    0.6128 H   0  0  0  0  0  0  0  0  0  0  0  0
    1.1700   -1.5481   -1.1217 H   0  0  0  0  0  0  0  0  0  0  0  0
    0.4790    0.7708   -1.1760 H   0  0  0  0  0  0  0  0  0  0  0  0
    1.9650    1.9100    0.3903 H   0  0  0  0  0  0  0  0  0  0  0  0
    1.4372    0.7274    1.7072 H   0  0  0  0  0  0  0  0  0  0  0  0
   -1.6918    1.2295    1.8495 H   0  0  0  0  0  0  0  0  0  0  0  0
   -1.7988    1.7093    0.1242 H   0  0  0  0  0  0  0  0  0  0  0  0
   -0.5711   -0.7246    1.2660 H   0  0  0  0  0  0  0  0  0  0  0  0
   -1.2375   -1.5557   -1.0197 H   0  0  0  0  0  0  0  0  0  0  0  0
   -1.7901    0.1678   -1.4095 H   0  0  0  0  0  0  0  0  0  0  0  0
   -2.8878   -1.8124    0.3733 H   0  0  0  0  0  0  0  0  0  0  0  0
  1  2  1  0
  2  3  1  0
  3  4  1  0
  4  5  1  0
  5  6  1  0
  6  7  1  0
  7  8  1  0
  8  9  1  0
  7  3  1  0
  1 10  1  0
  2 11  1  0
  2 12  1  0
  3 13  1  0
  4 14  1  0
  4 15  1  0
  6 16  1  0
  6 17  1  0
  7 18  1  0
  8 19  1  0
  8 20  1  0
  9 21  1  0
M  END
