
     RDKit          3D

 21 22  0  0  0  0  0  0  0  0999 V2000
   -2.3293    0.5643    1.0705 O   0  0  0  0  0  0  0  0  0  0  0  0
   -1.1088    0.9873    0.5897 C   0  0  0  0  0  0  0  0  0  0  0  0
   -0.4065   -0.0999   -0.2006 C   0  0  0  0  0  0  0  0  0  0  0  0
    0.8975    0.3837   -0.7021 C   0  0  0  0  0  0  0  0  0  0  0  0
    1.8639    0.8169    0.4263 C   0  0  0  0  0  0  0  0  0  0  0  0
    2.1770   -0.2746   -0.5100 C   0  0  0  0  0  0  0  0  0  0  0  0
   -0.4322   -1.4221    0.5081 C   0  0  0  0  0  0  0  0  0  0  0  0
   -1.7207   -1.6228   -0.0363 O   0  0  0  0  0  0  0  0  0  0  0  0
   -1.3109   -0.8193   -1.1264 C   0  0  0  0  0  0  0  0  0  0  0  0
   -2.7776    1.3705    1.4608 H   0  0  0  0  0  0  0  0  0  0  0  0
   -0.4030    1.2499    1.4297 H   0  0  0  0  0  0  0  0  0  0  0  0
   -1.1555    1.8731   -0.0504 H   0  0  0  0  0  0  0  0  0  0  0  0
    0.8188    1.0987   -1.5713 H   0  0  0  0  0  0  0  0  0  0  0  0
    1.6178    0.5393    1.4504 H   0  0  0  0  0  0  0  0  0  0  0  0
    2.2557    1.8432    0.3167 H   0  0  0  0  0  0  0  0  0  0  0  0
    2.9931   -0.0623   -1.2421 H   0  0  0  0  0  0  0  0  0  0  0  0
    2.2496   -1.3098   -0.1061 H   0  0  0  0  0  0  0  0  0  0  0  0
    0.2323   -2.1953    0.1325 H   0  0  0  0  0  0  0  0  0  0  0  0
   -0.4573   -1.2634    1.6031 H   0  0  0  0  0  0  0  0  0  0  0  0
   -0.8674   -1.4493   -1.8914 H   0  0  0  0  0  0  0  0  0  0  0  0
   -2.1365   -0.2083   -1.5510 H   0  0  0  0  0  0  0  0  0  0  0  0
  1  2  1  0
  2  3  1  0
  3  4  1  0
  4  5  1  0
  5  6  1  0
  3  7  1  0
  7  8  1  0
  8  9  1  0
  9  3  1  0
  6  4  1  0
  1 10  1  0
  2 11  1  0
  2 12  1  0
  4 13  1  0
  5 14  1  0
  5 15  1  0
  6 16  1  0
  6 17  1  0
  7 18  1  0
  7 19  1  0
  9 20  1  0
  9 21  1  0
M  END
