
     RDKit          3D

 19 21  0  0  0  0  0  0  0  0999 V2000
    2.2872   -0.8723    0.1370 O   0  0  0  0  0  0  0  0  0  0  0  0
    2.1700    0.3207    0.8282 C   0  0  0  0  0  0  0  0  0  0  0  0
    0.8425    1.0087    0.5610 C   0  0  0  0  0  0  0  0  0  0  0  0
    0.6368    1.3379   -0.8652 O   0  0  0  0  0  0  0  0  0  0  0  0
   -0.1542    0.4849   -0.1591 C   0  0  0  0  0  0  0  0  0  0  0  0
   -0.5565   -0.8593   -0.6056 C   0  0  0  0  0  0  0  0  0  0  0  0
   -1.5981   -0.1591   -1.4521 C   0  0  0  0  0  0  0  0  0  0  0  0
   -1.6378    0.5703   -0.1346 C   0  0  0  0  0  0  0  0  0  0  0  0
   -1.5891   -0.8072    0.4896 C   0  0  0  0  0  0  0  0  0  0  0  0
    3.0967   -1.3286    0.4975 H   0  0  0  0  0  0  0  0  0  0  0  0
    2.2264    0.2052    1.9292 H   0  0  0  0  0  0  0  0  0  0  0  0
    3.0315    0.9825    0.5307 H   0  0  0  0  0  0  0  0  0  0  0  0
    0.7593    1.9733    1.1279 H   0  0  0  0  0  0  0  0  0  0  0  0
   -0.0093   -1.6504   -0.8788 H   0  0  0  0  0  0  0  0  0  0  0  0
   -1.1997    0.5136   -2.2359 H   0  0  0  0  0  0  0  0  0  0  0  0
   -2.4828   -0.7416   -1.7164 H   0  0  0  0  0  0  0  0  0  0  0  0
   -2.2345    1.3261    0.1266 H   0  0  0  0  0  0  0  0  0  0  0  0
   -1.1105   -0.8797    1.4696 H   0  0  0  0  0  0  0  0  0  0  0  0
   -2.4778   -1.4250    0.3505 H   0  0  0  0  0  0  0  0  0  0  0  0
  1  2  1  0
  2  3  1  0
  3  4  1  0
  4  5  1  0
  5  6  1  0
  6  7  1  0
  7  8  1  0
  8  9  1  0
  5  3  1  0
  9  6  1  0
  8  5  1  0
  1 10  1  0
  2 11  1  0
  2 12  1  0
  3 13  1  0
  6 14  1  0
  7 15  1  0
  7 16  1  0
  8 17  1  0
  9 18  1  0
  9 19  1  0
M  END
