
     RDKit          3D

 17 19  0  0  0  0  0  0  0  0999 V2000
    2.2280   -0.9899    0.5195 O   0  0  0  0  0  0  0  0  0  0  0  0
    1.6940    0.1144   -0.1468 C   0  0  0  0  0  0  0  0  0  0  0  0
    0.2465    0.1711   -0.0880 C   0  0  0  0  0  0  0  0  0  0  0  0
   -0.5028    1.2505   -0.7252 C   0  0  0  0  0  0  0  0  0  0  0  0
   -1.7843    0.9093   -0.5311 C   0  0  0  0  0  0  0  0  0  0  0  0
   -1.6911   -0.2920    0.3297 C   0  0  0  0  0  0  0  0  0  0  0  0
   -0.5652   -1.0613   -0.2601 C   0  0  0  0  0  0  0  0  0  0  0  0
   -0.1988   -1.4071    1.0290 O   0  0  0  0  0  0  0  0  0  0  0  0
   -0.4829   -0.0605    1.1858 C   0  0  0  0  0  0  0  0  0  0  0  0
    3.1454   -1.1602    0.1336 H   0  0  0  0  0  0  0  0  0  0  0  0
    2.2421    0.9904    0.2217 H   0  0  0  0  0  0  0  0  0  0  0  0
    2.0165   -0.0108   -1.2221 H   0  0  0  0  0  0  0  0  0  0  0  0
   -0.0841    2.1110   -1.2284 H   0  0  0  0  0  0  0  0  0  0  0  0
   -2.6766    1.3935   -0.9109 H   0  0  0  0  0  0  0  0  0  0  0  0
   -2.5573   -0.7591    0.7162 H   0  0  0  0  0  0  0  0  0  0  0  0
   -0.5905   -1.6754   -1.0618 H   0  0  0  0  0  0  0  0  0  0  0  0
   -0.4389    0.4760    2.0387 H   0  0  0  0  0  0  0  0  0  0  0  0
  1  2  1  0
  2  3  1  0
  3  4  1  0
  4  5  2  0
  5  6  1  0
  6  7  1  0
  7  8  1  0
  8  9  1  0
  7  3  1  0
  9  3  1  0
  9  6  1  0
  1 10  1  0
  2 11  1  0
  2 12  1  0
  4 13  1  0
  5 14  1  0
  6 15  1  0
  7 16  1  0
  9 17  1  0
M  END
