
     RDKit          3D

 19 20  0  0  0  0  0  0  0  0999 V2000
    2.8145    0.3415    0.6480 O   0  0  0  0  0  0  0  0  0  0  0  0
    1.8279   -0.6320    0.4801 C   0  0  0  0  0  0  0  0  0  0  0  0
    0.6697   -0.0217   -0.2584 C   0  0  0  0  0  0  0  0  0  0  0  0
    0.0092    1.1504    0.4136 C   0  0  0  0  0  0  0  0  0  0  0  0
   -1.3127    0.5603   -0.0702 C   0  0  0  0  0  0  0  0  0  0  0  0
   -1.9369    1.0763   -1.1625 O   0  0  0  0  0  0  0  0  0  0  0  0
   -1.7054   -0.6736    0.6174 C   0  0  0  0  0  0  0  0  0  0  0  0
   -0.5887   -0.7860   -0.3217 C   0  0  0  0  0  0  0  0  0  0  0  0
   -0.8485   -1.4031   -1.5555 O   0  0  0  0  0  0  0  0  0  0  0  0
    2.4219    1.2569    0.6733 H   0  0  0  0  0  0  0  0  0  0  0  0
    2.2771   -1.3921   -0.2176 H   0  0  0  0  0  0  0  0  0  0  0  0
    1.5438   -1.1124    1.4252 H   0  0  0  0  0  0  0  0  0  0  0  0
    1.0217    0.3077   -1.2747 H   0  0  0  0  0  0  0  0  0  0  0  0
    0.0578    1.0377    1.5275 H   0  0  0  0  0  0  0  0  0  0  0  0
    0.2489    2.1411    0.0306 H   0  0  0  0  0  0  0  0  0  0  0  0
   -2.1673    2.0292   -1.0116 H   0  0  0  0  0  0  0  0  0  0  0  0
   -2.6656   -1.1242    0.3157 H   0  0  0  0  0  0  0  0  0  0  0  0
   -1.5599   -0.6785    1.7284 H   0  0  0  0  0  0  0  0  0  0  0  0
   -0.1074   -2.0774   -1.6687 H   0  0  0  0  0  0  0  0  0  0  0  0
  1  2  1  0
  2  3  1  0
  3  4  1  0
  4  5  1  0
  5  6  1  0
  5  7  1  0
  7  8  1  0
  8  9  1  0
  8  3  1  0
  8  5  1  0
  1 10  1  0
  2 11  1  0
  2 12  1  0
  3 13  1  0
  4 14  1  0
  4 15  1  0
  6 16  1  0
  7 17  1  0
  7 18  1  0
  9 19  1  0
M  END
