
     RDKit          3D

 21 22  0  0  0  0  0  0  0  0999 V2000
    2.3287   -0.6768   -1.3236 O   0  0  0  0  0  0  0  0  0  0  0  0
    1.7794   -0.5862   -0.0609 C   0  0  0  0  0  0  0  0  0  0  0  0
    0.3524   -0.1726   -0.0428 C   0  0  0  0  0  0  0  0  0  0  0  0
    0.0279    1.1550   -0.6376 C   0  0  0  0  0  0  0  0  0  0  0  0
   -1.3837    1.5629   -0.3071 C   0  0  0  0  0  0  0  0  0  0  0  0
   -2.1628    0.5840    0.2143 O   0  0  0  0  0  0  0  0  0  0  0  0
   -1.5413   -0.5260    0.6940 C   0  0  0  0  0  0  0  0  0  0  0  0
   -0.2174   -0.1777    1.3718 C   0  0  0  0  0  0  0  0  0  0  0  0
   -0.6822   -1.2079   -0.3820 C   0  0  0  0  0  0  0  0  0  0  0  0
    3.0645   -1.3387   -1.2728 H   0  0  0  0  0  0  0  0  0  0  0  0
    2.3599    0.2250    0.4705 H   0  0  0  0  0  0  0  0  0  0  0  0
    1.9851   -1.5058    0.5242 H   0  0  0  0  0  0  0  0  0  0  0  0
    0.2395    1.1900   -1.7288 H   0  0  0  0  0  0  0  0  0  0  0  0
    0.7407    1.9017   -0.1841 H   0  0  0  0  0  0  0  0  0  0  0  0
   -1.3763    2.4793    0.3467 H   0  0  0  0  0  0  0  0  0  0  0  0
   -1.8528    1.9054   -1.2611 H   0  0  0  0  0  0  0  0  0  0  0  0
   -2.1907   -1.2028    1.2359 H   0  0  0  0  0  0  0  0  0  0  0  0
    0.1685   -1.0374    1.9424 H   0  0  0  0  0  0  0  0  0  0  0  0
   -0.1817    0.8033    1.8526 H   0  0  0  0  0  0  0  0  0  0  0  0
   -1.1078   -1.1714   -1.3877 H   0  0  0  0  0  0  0  0  0  0  0  0
   -0.3500   -2.2034   -0.0638 H   0  0  0  0  0  0  0  0  0  0  0  0
  1  2  1  0
  2  3  1  0
  3  4  1  0
  4  5  1  0
  5  6  1  0
  6  7  1  0
  7  8  1  0
  7  9  1  0
  8  3  1  0
  9  3  1  0
  1 10  1  0
  2 11  1  0
  2 12  1  0
  4 13  1  0
  4 14  1  0
  5 15  1  0
  5 16  1  0
  7 17  1  0
  8 18  1  0
  8 19  1  0
  9 20  1  0
  9 21  1  0
M  END
