
     RDKit          3D

 15 15  0  0  0  0  0  0  0  0999 V2000
   -2.3148    0.6708    0.4066 O   0  0  0  0  0  0  0  0  0  0  0  0
   -1.3580    0.1755   -0.4640 C   0  0  0  0  0  0  0  0  0  0  0  0
   -0.3616   -0.6068    0.3227 C   0  0  0  0  0  0  0  0  0  0  0  0
    0.7955   -1.0787   -0.5215 C   0  0  0  0  0  0  0  0  0  0  0  0
    1.7345   -0.1534   -0.3811 C   0  0  0  0  0  0  0  0  0  0  0  0
    1.1918    0.8768    0.5235 C   0  0  0  0  0  0  0  0  0  0  0  0
    0.2569    0.1986    1.2807 O   0  0  0  0  0  0  0  0  0  0  0  0
   -2.4742    0.0792    1.1850 H   0  0  0  0  0  0  0  0  0  0  0  0
   -1.8862   -0.5165   -1.1808 H   0  0  0  0  0  0  0  0  0  0  0  0
   -0.9208    0.9617   -1.0765 H   0  0  0  0  0  0  0  0  0  0  0  0
   -0.8344   -1.5002    0.7384 H   0  0  0  0  0  0  0  0  0  0  0  0
    0.8104   -1.9792   -1.0968 H   0  0  0  0  0  0  0  0  0  0  0  0
    2.7344   -0.1756   -0.8662 H   0  0  0  0  0  0  0  0  0  0  0  0
    1.9711    1.3622    1.1447 H   0  0  0  0  0  0  0  0  0  0  0  0
    0.6554    1.6856   -0.0149 H   0  0  0  0  0  0  0  0  0  0  0  0
  1  2  1  0
  2  3  1  0
  3  4  1  0
  4  5  2  0
  5  6  1  0
  6  7  1  0
  7  3  1  0
  1  8  1  0
  2  9  1  0
  2 10  1  0
  3 11  1  0
  4 12  1  0
  5 13  1  0
  6 14  1  0
  6 15  1  0
M  END
