
     RDKit          3D

 19 20  0  0  0  0  0  0  0  0999 V2000
    2.7634    0.6064   -0.5012 O   0  0  0  0  0  0  0  0  0  0  0  0
    1.6927    0.9764    0.3491 C   0  0  0  0  0  0  0  0  0  0  0  0
    0.9400   -0.3034    0.6281 C   0  0  0  0  0  0  0  0  0  0  0  0
    0.3791   -0.9846   -0.6395 C   0  0  0  0  0  0  0  0  0  0  0  0
    0.4889   -2.3496   -0.7404 O   0  0  0  0  0  0  0  0  0  0  0  0
   -0.5249   -0.4038    0.4568 C   0  0  0  0  0  0  0  0  0  0  0  0
   -1.3799    0.7267   -0.0085 C   0  0  0  0  0  0  0  0  0  0  0  0
   -2.8130    0.6418   -0.1845 C   0  0  0  0  0  0  0  0  0  0  0  0
   -2.0271    0.3513   -1.2931 O   0  0  0  0  0  0  0  0  0  0  0  0
    3.2670   -0.1284   -0.0360 H   0  0  0  0  0  0  0  0  0  0  0  0
    2.1754    1.3791    1.2561 H   0  0  0  0  0  0  0  0  0  0  0  0
    1.0978    1.7310   -0.1806 H   0  0  0  0  0  0  0  0  0  0  0  0
    1.4370   -1.0036    1.3439 H   0  0  0  0  0  0  0  0  0  0  0  0
    0.4614   -0.4383   -1.5901 H   0  0  0  0  0  0  0  0  0  0  0  0
    0.7766   -2.8100    0.0641 H   0  0  0  0  0  0  0  0  0  0  0  0
   -1.0289   -1.1410    1.1293 H   0  0  0  0  0  0  0  0  0  0  0  0
   -0.9205    1.7374   -0.0791 H   0  0  0  0  0  0  0  0  0  0  0  0
   -3.4028   -0.1753    0.2984 H   0  0  0  0  0  0  0  0  0  0  0  0
   -3.3821    1.5880   -0.2728 H   0  0  0  0  0  0  0  0  0  0  0  0
  1  2  1  0
  2  3  1  0
  3  4  1  0
  4  5  1  0
  4  6  1  0
  6  7  1  0
  7  8  1  0
  8  9  1  0
  6  3  1  0
  9  7  1  0
  1 10  1  0
  2 11  1  0
  2 12  1  0
  3 13  1  0
  4 14  1  0
  5 15  1  0
  6 16  1  0
  7 17  1  0
  8 18  1  0
  8 19  1  0
M  END
