
     RDKit          3D

 19 19  0  0  0  0  0  0  0  0999 V2000
    2.5061   -0.4377   -0.8330 O   0  0  0  0  0  0  0  0  0  0  0  0
    1.3972    0.3968   -0.7601 C   0  0  0  0  0  0  0  0  0  0  0  0
    0.5589    0.0855    0.4640 C   0  0  0  0  0  0  0  0  0  0  0  0
   -0.6542    1.0420    0.4902 C   0  0  0  0  0  0  0  0  0  0  0  0
   -0.3030    2.2936    0.0596 O   0  0  0  0  0  0  0  0  0  0  0  0
   -1.5630    0.3962   -0.4976 C   0  0  0  0  0  0  0  0  0  0  0  0
   -1.2923   -0.8913   -0.5924 C   0  0  0  0  0  0  0  0  0  0  0  0
   -0.1837   -1.2097    0.3252 C   0  0  0  0  0  0  0  0  0  0  0  0
   -0.7442   -1.4843    1.5815 O   0  0  0  0  0  0  0  0  0  0  0  0
    2.7348   -0.8579    0.0401 H   0  0  0  0  0  0  0  0  0  0  0  0
    0.8388    0.2812   -1.6926 H   0  0  0  0  0  0  0  0  0  0  0  0
    1.7663    1.4421   -0.7308 H   0  0  0  0  0  0  0  0  0  0  0  0
    1.1560    0.1825    1.3761 H   0  0  0  0  0  0  0  0  0  0  0  0
   -1.1161    0.9988    1.4840 H   0  0  0  0  0  0  0  0  0  0  0  0
   -1.0954    2.7056   -0.3800 H   0  0  0  0  0  0  0  0  0  0  0  0
   -2.3265    0.9705   -1.0342 H   0  0  0  0  0  0  0  0  0  0  0  0
   -1.8278   -1.5983   -1.2624 H   0  0  0  0  0  0  0  0  0  0  0  0
    0.4551   -2.0408   -0.0285 H   0  0  0  0  0  0  0  0  0  0  0  0
   -0.3068   -2.2748    1.9909 H   0  0  0  0  0  0  0  0  0  0  0  0
  1  2  1  0
  2  3  1  0
  3  4  1  0
  4  5  1  0
  4  6  1  0
  6  7  2  0
  7  8  1  0
  8  9  1  0
  8  3  1  0
  1 10  1  0
  2 11  1  0
  2 12  1  0
  3 13  1  0
  4 14  1  0
  5 15  1  0
  6 16  1  0
  7 17  1  0
  8 18  1  0
  9 19  1  0
M  END
