
     RDKit          3D

 19 20  0  0  0  0  0  0  0  0999 V2000
    2.8413   -0.6711   -0.5111 O   0  0  0  0  0  0  0  0  0  0  0  0
    1.7171    0.0634   -0.9053 C   0  0  0  0  0  0  0  0  0  0  0  0
    0.4969   -0.6088   -0.4003 C   0  0  0  0  0  0  0  0  0  0  0  0
   -0.8275    0.0369   -0.7348 C   0  0  0  0  0  0  0  0  0  0  0  0
   -1.7308   -0.8603    0.0727 C   0  0  0  0  0  0  0  0  0  0  0  0
   -1.0296   -0.8610    1.3077 O   0  0  0  0  0  0  0  0  0  0  0  0
    0.1149   -0.1407    1.0032 C   0  0  0  0  0  0  0  0  0  0  0  0
   -0.4877    1.0641    0.3084 C   0  0  0  0  0  0  0  0  0  0  0  0
   -1.6012    1.5523    1.0114 O   0  0  0  0  0  0  0  0  0  0  0  0
    2.5886   -1.2604    0.2439 H   0  0  0  0  0  0  0  0  0  0  0  0
    1.7596    0.0814   -2.0315 H   0  0  0  0  0  0  0  0  0  0  0  0
    1.8807    1.0816   -0.5156 H   0  0  0  0  0  0  0  0  0  0  0  0
    0.4906   -1.7248   -0.4908 H   0  0  0  0  0  0  0  0  0  0  0  0
   -1.0623    0.3074   -1.7181 H   0  0  0  0  0  0  0  0  0  0  0  0
   -1.6275   -1.8831   -0.3415 H   0  0  0  0  0  0  0  0  0  0  0  0
   -2.7479   -0.5016    0.1730 H   0  0  0  0  0  0  0  0  0  0  0  0
    0.8811   -0.0034    1.7180 H   0  0  0  0  0  0  0  0  0  0  0  0
    0.1880    1.8754    0.0457 H   0  0  0  0  0  0  0  0  0  0  0  0
   -1.8442    2.4528    0.6283 H   0  0  0  0  0  0  0  0  0  0  0  0
  1  2  1  0
  2  3  1  0
  3  4  1  0
  4  5  1  0
  5  6  1  0
  6  7  1  0
  7  8  1  0
  8  9  1  0
  7  3  1  0
  8  4  1  0
  1 10  1  0
  2 11  1  0
  2 12  1  0
  3 13  1  0
  4 14  1  0
  5 15  1  0
  5 16  1  0
  7 17  1  0
  8 18  1  0
  9 19  1  0
M  END
