
     RDKit          3D

 19 20  0  0  0  0  0  0  0  0999 V2000
    2.4475   -0.5426   -1.0647 O   0  0  0  0  0  0  0  0  0  0  0  0
    1.7837   -0.0520    0.0450 C   0  0  0  0  0  0  0  0  0  0  0  0
    0.3250    0.1896   -0.1972 C   0  0  0  0  0  0  0  0  0  0  0  0
   -0.4677   -1.0005   -0.5938 C   0  0  0  0  0  0  0  0  0  0  0  0
   -1.5411   -1.1001    0.3938 C   0  0  0  0  0  0  0  0  0  0  0  0
   -1.4973   -0.0982    1.2589 C   0  0  0  0  0  0  0  0  0  0  0  0
   -0.3898    0.8305    0.9895 C   0  0  0  0  0  0  0  0  0  0  0  0
   -0.2453    1.5451   -0.2814 C   0  0  0  0  0  0  0  0  0  0  0  0
   -1.4047    1.7424   -1.0209 O   0  0  0  0  0  0  0  0  0  0  0  0
    2.9466   -1.3857   -0.8798 H   0  0  0  0  0  0  0  0  0  0  0  0
    1.8504   -0.8602    0.8305 H   0  0  0  0  0  0  0  0  0  0  0  0
    2.3085    0.8187    0.4958 H   0  0  0  0  0  0  0  0  0  0  0  0
   -0.9294   -0.9248   -1.5998 H   0  0  0  0  0  0  0  0  0  0  0  0
    0.1568   -1.9246   -0.6221 H   0  0  0  0  0  0  0  0  0  0  0  0
   -2.2719   -1.9325    0.3722 H   0  0  0  0  0  0  0  0  0  0  0  0
   -2.2057    0.0117    2.0699 H   0  0  0  0  0  0  0  0  0  0  0  0
    0.2273    1.1928    1.8460 H   0  0  0  0  0  0  0  0  0  0  0  0
    0.4447    2.4043   -0.3132 H   0  0  0  0  0  0  0  0  0  0  0  0
   -1.5376    1.0860   -1.7285 H   0  0  0  0  0  0  0  0  0  0  0  0
  1  2  1  0
  2  3  1  0
  3  4  1  0
  4  5  1  0
  5  6  2  0
  6  7  1  0
  7  8  1  0
  8  9  1  0
  7  3  1  0
  8  3  1  0
  1 10  1  0
  2 11  1  0
  2 12  1  0
  4 13  1  0
  4 14  1  0
  5 15  1  0
  6 16  1  0
  7 17  1  0
  8 18  1  0
  9 19  1  0
M  END
