
     RDKit          3D

 21 21  0  0  0  0  0  0  0  0999 V2000
    2.2773   -0.8048    1.1754 O   0  0  0  0  0  0  0  0  0  0  0  0
    1.4673    0.2016    0.6026 C   0  0  0  0  0  0  0  0  0  0  0  0
    0.8529   -0.2860   -0.6806 C   0  0  0  0  0  0  0  0  0  0  0  0
    0.0033   -1.4906   -0.4357 C   0  0  0  0  0  0  0  0  0  0  0  0
   -1.1611   -1.2673    0.4214 C   0  0  0  0  0  0  0  0  0  0  0  0
   -1.8292   -0.2023    0.7628 C   0  0  0  0  0  0  0  0  0  0  0  0
   -1.6193    1.1682    0.3820 C   0  0  0  0  0  0  0  0  0  0  0  0
   -0.7636    1.6028   -0.5369 C   0  0  0  0  0  0  0  0  0  0  0  0
    0.1632    0.8356   -1.3798 C   0  0  0  0  0  0  0  0  0  0  0  0
    2.4062   -0.5319    2.1140 H   0  0  0  0  0  0  0  0  0  0  0  0
    0.6422    0.3620    1.3284 H   0  0  0  0  0  0  0  0  0  0  0  0
    2.0784    1.1113    0.4311 H   0  0  0  0  0  0  0  0  0  0  0  0
    1.6962   -0.6205   -1.3330 H   0  0  0  0  0  0  0  0  0  0  0  0
   -0.2852   -1.9179   -1.4221 H   0  0  0  0  0  0  0  0  0  0  0  0
    0.6490   -2.2439    0.0674 H   0  0  0  0  0  0  0  0  0  0  0  0
   -1.5454   -2.1831    0.8629 H   0  0  0  0  0  0  0  0  0  0  0  0
   -2.6626   -0.3669    1.4282 H   0  0  0  0  0  0  0  0  0  0  0  0
   -2.2188    1.9066    0.8975 H   0  0  0  0  0  0  0  0  0  0  0  0
   -0.7952    2.6949   -0.6392 H   0  0  0  0  0  0  0  0  0  0  0  0
   -0.3146    0.4794   -2.3258 H   0  0  0  0  0  0  0  0  0  0  0  0
    0.9591    1.5527   -1.7209 H   0  0  0  0  0  0  0  0  0  0  0  0
  1  2  1  0
  2  3  1  0
  3  4  1  0
  4  5  1  0
  5  6  2  0
  6  7  1  0
  7  8  2  0
  8  9  1  0
  9  3  1  0
  1 10  1  0
  2 11  1  0
  2 12  1  0
  3 13  1  0
  4 14  1  0
  4 15  1  0
  5 16  1  0
  6 17  1  0
  7 18  1  0
  8 19  1  0
  9 20  1  0
  9 21  1  0
M  END
