
     RDKit          3D

 19 20  0  0  0  0  0  0  0  0999 V2000
    2.2839    1.3707    1.2239 O   0  0  0  0  0  0  0  0  0  0  0  0
    1.9958    0.3026    0.3796 C   0  0  0  0  0  0  0  0  0  0  0  0
    0.6558    0.5125   -0.2732 C   0  0  0  0  0  0  0  0  0  0  0  0
    0.2882   -0.6148   -1.2016 C   0  0  0  0  0  0  0  0  0  0  0  0
    0.5623   -1.8717   -0.7046 O   0  0  0  0  0  0  0  0  0  0  0  0
   -0.5814   -1.7502    0.0934 C   0  0  0  0  0  0  0  0  0  0  0  0
   -0.5334   -0.2569    0.0519 C   0  0  0  0  0  0  0  0  0  0  0  0
   -1.8747    0.4033   -0.1930 C   0  0  0  0  0  0  0  0  0  0  0  0
   -1.9258    1.5724    0.5930 O   0  0  0  0  0  0  0  0  0  0  0  0
    3.2712    1.5523    1.2032 H   0  0  0  0  0  0  0  0  0  0  0  0
    2.1228   -0.6754    0.8438 H   0  0  0  0  0  0  0  0  0  0  0  0
    2.7619    0.3602   -0.4475 H   0  0  0  0  0  0  0  0  0  0  0  0
    0.5131    1.5513   -0.6503 H   0  0  0  0  0  0  0  0  0  0  0  0
   -0.1426   -0.4447   -2.1769 H   0  0  0  0  0  0  0  0  0  0  0  0
   -0.5021   -2.2080    1.0938 H   0  0  0  0  0  0  0  0  0  0  0  0
   -1.4441   -2.1740   -0.4726 H   0  0  0  0  0  0  0  0  0  0  0  0
   -1.9069    0.7122   -1.2455 H   0  0  0  0  0  0  0  0  0  0  0  0
   -2.7207   -0.2661    0.0592 H   0  0  0  0  0  0  0  0  0  0  0  0
   -2.8235    1.9243    0.5026 H   0  0  0  0  0  0  0  0  0  0  0  0
  1  2  1  0
  2  3  1  0
  3  4  1  0
  4  5  1  0
  5  6  1  0
  6  7  1  0
  7  8  1  0
  8  9  1  0
  7  3  1  0
  7  4  1  0
  1 10  1  0
  2 11  1  0
  2 12  1  0
  3 13  1  0
  4 14  1  0
  6 15  1  0
  6 16  1  0
  8 17  1  0
  8 18  1  0
  9 19  1  0
M  END
