
     RDKit          3D

 19 19  0  0  0  0  0  0  0  0999 V2000
    2.6060   -0.1162    1.0548 O   0  0  0  0  0  0  0  0  0  0  0  0
    1.9235   -0.5772   -0.0721 C   0  0  0  0  0  0  0  0  0  0  0  0
    0.4786   -0.2866    0.1568 C   0  0  0  0  0  0  0  0  0  0  0  0
   -0.3818   -1.2967    0.1748 C   0  0  0  0  0  0  0  0  0  0  0  0
   -1.8501   -1.0967    0.3978 C   0  0  0  0  0  0  0  0  0  0  0  0
   -2.1261    0.1963    0.8297 O   0  0  0  0  0  0  0  0  0  0  0  0
   -1.4983    1.0541   -0.0852 C   0  0  0  0  0  0  0  0  0  0  0  0
   -0.0296    1.0812    0.3640 C   0  0  0  0  0  0  0  0  0  0  0  0
    0.6901    2.0582   -0.2710 O   0  0  0  0  0  0  0  0  0  0  0  0
    3.1679   -0.8190    1.4470 H   0  0  0  0  0  0  0  0  0  0  0  0
    2.0998   -1.6622   -0.1492 H   0  0  0  0  0  0  0  0  0  0  0  0
    2.3065   -0.0291   -0.9741 H   0  0  0  0  0  0  0  0  0  0  0  0
   -0.0631   -2.3238    0.0280 H   0  0  0  0  0  0  0  0  0  0  0  0
   -2.3210   -1.2151   -0.6018 H   0  0  0  0  0  0  0  0  0  0  0  0
   -2.2239   -1.8536    1.1338 H   0  0  0  0  0  0  0  0  0  0  0  0
   -1.9385    2.0526   -0.1135 H   0  0  0  0  0  0  0  0  0  0  0  0
   -1.4672    0.5594   -1.0941 H   0  0  0  0  0  0  0  0  0  0  0  0
   -0.0767    1.3570    1.4507 H   0  0  0  0  0  0  0  0  0  0  0  0
    0.7039    2.9173    0.2509 H   0  0  0  0  0  0  0  0  0  0  0  0
  1  2  1  0
  2  3  1  0
  3  4  2  0
  4  5  1  0
  5  6  1  0
  6  7  1  0
  7  8  1  0
  8  9  1  0
  8  3  1  0
  1 10  1  0
  2 11  1  0
  2 12  1  0
  4 13  1  0
  5 14  1  0
  5 15  1  0
  7 16  1  0
  7 17  1  0
  8 18  1  0
  9 19  1  0
M  END
