
     RDKit          3D

 21 23  0  0  0  0  0  0  0  0999 V2000
    2.6325   -0.5056   -0.0879 O   0  0  0  0  0  0  0  0  0  0  0  0
    1.5397   -0.5115   -0.8754 C   0  0  0  0  0  0  0  0  0  0  0  0
    0.3037    0.1054   -0.3693 C   0  0  0  0  0  0  0  0  0  0  0  0
    0.4241    1.5688   -0.0339 C   0  0  0  0  0  0  0  0  0  0  0  0
    0.0367    1.2642    1.3845 C   0  0  0  0  0  0  0  0  0  0  0  0
   -0.1817   -0.1617    0.9910 C   0  0  0  0  0  0  0  0  0  0  0  0
   -1.5597   -0.3903    0.4699 C   0  0  0  0  0  0  0  0  0  0  0  0
   -1.7486   -1.4928   -0.4930 C   0  0  0  0  0  0  0  0  0  0  0  0
   -0.9944   -0.2931   -0.9581 C   0  0  0  0  0  0  0  0  0  0  0  0
    2.6822   -1.1494    0.6377 H   0  0  0  0  0  0  0  0  0  0  0  0
    1.8076   -0.0016   -1.8475 H   0  0  0  0  0  0  0  0  0  0  0  0
    1.3147   -1.5669   -1.1794 H   0  0  0  0  0  0  0  0  0  0  0  0
    1.4661    1.9616   -0.1652 H   0  0  0  0  0  0  0  0  0  0  0  0
   -0.2676    2.1843   -0.6115 H   0  0  0  0  0  0  0  0  0  0  0  0
    0.8965    1.4511    2.0793 H   0  0  0  0  0  0  0  0  0  0  0  0
   -0.8920    1.8016    1.6608 H   0  0  0  0  0  0  0  0  0  0  0  0
    0.2665   -0.9382    1.5986 H   0  0  0  0  0  0  0  0  0  0  0  0
   -2.3760    0.2770    0.7513 H   0  0  0  0  0  0  0  0  0  0  0  0
   -2.7358   -1.6389   -0.9635 H   0  0  0  0  0  0  0  0  0  0  0  0
   -1.1539   -2.4160   -0.3565 H   0  0  0  0  0  0  0  0  0  0  0  0
   -1.4608    0.4520   -1.6321 H   0  0  0  0  0  0  0  0  0  0  0  0
  1  2  1  0
  2  3  1  0
  3  4  1  0
  4  5  1  0
  5  6  1  0
  6  7  1  0
  7  8  1  0
  8  9  1  0
  6  3  1  0
  9  7  1  0
  9  3  1  0
  1 10  1  0
  2 11  1  0
  2 12  1  0
  4 13  1  0
  4 14  1  0
  5 15  1  0
  5 16  1  0
  6 17  1  0
  7 18  1  0
  8 19  1  0
  8 20  1  0
  9 21  1  0
M  END
