
     RDKit          3D

 19 20  0  0  0  0  0  0  0  0999 V2000
   -1.9401    1.8156    0.7843 O   0  0  0  0  0  0  0  0  0  0  0  0
   -2.1668    0.4582    0.6114 C   0  0  0  0  0  0  0  0  0  0  0  0
   -1.1808   -0.1395   -0.3568 C   0  0  0  0  0  0  0  0  0  0  0  0
   -1.3406   -1.5046   -0.5865 O   0  0  0  0  0  0  0  0  0  0  0  0
    0.0422   -1.5539   -0.7875 C   0  0  0  0  0  0  0  0  0  0  0  0
    0.1728   -0.4821    0.2677 C   0  0  0  0  0  0  0  0  0  0  0  0
    1.2642    0.4767   -0.0626 C   0  0  0  0  0  0  0  0  0  0  0  0
    2.5918    0.3267    0.4305 C   0  0  0  0  0  0  0  0  0  0  0  0
    2.2621   -0.0748   -0.9119 O   0  0  0  0  0  0  0  0  0  0  0  0
   -1.3463    2.1917    0.1018 H   0  0  0  0  0  0  0  0  0  0  0  0
   -2.1155   -0.0657    1.5654 H   0  0  0  0  0  0  0  0  0  0  0  0
   -3.1783    0.3628    0.1426 H   0  0  0  0  0  0  0  0  0  0  0  0
   -1.0006    0.4527   -1.2777 H   0  0  0  0  0  0  0  0  0  0  0  0
    0.2721   -1.1033   -1.7844 H   0  0  0  0  0  0  0  0  0  0  0  0
    0.5262   -2.5120   -0.5721 H   0  0  0  0  0  0  0  0  0  0  0  0
    0.1141   -0.8468    1.3049 H   0  0  0  0  0  0  0  0  0  0  0  0
    0.8914    1.4859   -0.4024 H   0  0  0  0  0  0  0  0  0  0  0  0
    2.8470   -0.4992    1.1289 H   0  0  0  0  0  0  0  0  0  0  0  0
    3.2853    1.2117    0.4044 H   0  0  0  0  0  0  0  0  0  0  0  0
  1  2  1  0
  2  3  1  0
  3  4  1  0
  4  5  1  0
  5  6  1  0
  6  7  1  0
  7  8  1  0
  8  9  1  0
  6  3  1  0
  9  7  1  0
  1 10  1  0
  2 11  1  0
  2 12  1  0
  3 13  1  0
  5 14  1  0
  5 15  1  0
  6 16  1  0
  7 17  1  0
  8 18  1  0
  8 19  1  0
M  END
