
     RDKit          3D

 19 21  0  0  0  0  0  0  0  0999 V2000
    3.2757    0.7673   -0.3002 O   0  0  0  0  0  0  0  0  0  0  0  0
    2.3829   -0.1496    0.2568 C   0  0  0  0  0  0  0  0  0  0  0  0
    1.0005    0.4066    0.3944 C   0  0  0  0  0  0  0  0  0  0  0  0
    0.0177   -0.5827    1.0002 C   0  0  0  0  0  0  0  0  0  0  0  0
   -1.3789   -0.1233    1.2658 C   0  0  0  0  0  0  0  0  0  0  0  0
   -2.4432   -0.7021    0.4277 C   0  0  0  0  0  0  0  0  0  0  0  0
   -1.5067    0.3163   -0.1335 C   0  0  0  0  0  0  0  0  0  0  0  0
   -1.9454    1.5777   -0.4814 O   0  0  0  0  0  0  0  0  0  0  0  0
   -0.1126   -0.0796   -0.4469 C   0  0  0  0  0  0  0  0  0  0  0  0
    3.5294    0.5102   -1.2320 H   0  0  0  0  0  0  0  0  0  0  0  0
    2.4052   -1.1329   -0.2547 H   0  0  0  0  0  0  0  0  0  0  0  0
    2.7690   -0.3546    1.2983 H   0  0  0  0  0  0  0  0  0  0  0  0
    0.9316    1.4056    0.8290 H   0  0  0  0  0  0  0  0  0  0  0  0
    0.2906   -1.6435    1.0628 H   0  0  0  0  0  0  0  0  0  0  0  0
   -1.5968    0.5400    2.1167 H   0  0  0  0  0  0  0  0  0  0  0  0
   -2.2368   -1.7462    0.0513 H   0  0  0  0  0  0  0  0  0  0  0  0
   -3.4709   -0.4296    0.6609 H   0  0  0  0  0  0  0  0  0  0  0  0
   -1.9291    2.2154    0.2684 H   0  0  0  0  0  0  0  0  0  0  0  0
    0.0178   -0.7949   -1.2586 H   0  0  0  0  0  0  0  0  0  0  0  0
  1  2  1  0
  2  3  1  0
  3  4  1  0
  4  5  1  0
  5  6  1  0
  6  7  1  0
  7  8  1  0
  7  9  1  0
  9  3  1  0
  9  4  1  0
  7  5  1  0
  1 10  1  0
  2 11  1  0
  2 12  1  0
  3 13  1  0
  4 14  1  0
  5 15  1  0
  6 16  1  0
  6 17  1  0
  8 18  1  0
  9 19  1  0
M  END
