
     RDKit          3D

 19 21  0  0  0  0  0  0  0  0999 V2000
    2.9177    0.9579   -0.3160 O   0  0  0  0  0  0  0  0  0  0  0  0
    2.4093   -0.2398    0.1766 C   0  0  0  0  0  0  0  0  0  0  0  0
    0.9287   -0.1997    0.3135 C   0  0  0  0  0  0  0  0  0  0  0  0
    0.2061   -0.3602    1.4319 C   0  0  0  0  0  0  0  0  0  0  0  0
   -1.1692   -0.1301    0.9858 C   0  0  0  0  0  0  0  0  0  0  0  0
   -1.0788    0.9497   -0.0612 C   0  0  0  0  0  0  0  0  0  0  0  0
   -2.1601    0.2071   -0.7860 C   0  0  0  0  0  0  0  0  0  0  0  0
   -1.2365   -0.8806   -0.3062 C   0  0  0  0  0  0  0  0  0  0  0  0
   -0.1137    0.0222   -0.7209 C   0  0  0  0  0  0  0  0  0  0  0  0
    2.6755    1.0465   -1.2580 H   0  0  0  0  0  0  0  0  0  0  0  0
    2.8370   -0.3758    1.1939 H   0  0  0  0  0  0  0  0  0  0  0  0
    2.7239   -1.0534   -0.4838 H   0  0  0  0  0  0  0  0  0  0  0  0
    0.5115   -0.6007    2.4409 H   0  0  0  0  0  0  0  0  0  0  0  0
   -1.9844   -0.1418    1.6635 H   0  0  0  0  0  0  0  0  0  0  0  0
   -0.9990    1.9332    0.0912 H   0  0  0  0  0  0  0  0  0  0  0  0
   -2.1974    0.3637   -1.8682 H   0  0  0  0  0  0  0  0  0  0  0  0
   -3.0989    0.2369   -0.2325 H   0  0  0  0  0  0  0  0  0  0  0  0
   -1.3247   -1.8647   -0.4525 H   0  0  0  0  0  0  0  0  0  0  0  0
    0.1529    0.1296   -1.7383 H   0  0  0  0  0  0  0  0  0  0  0  0
  1  2  1  0
  2  3  1  0
  3  4  2  0
  4  5  1  0
  5  6  1  0
  6  7  1  0
  7  8  1  0
  8  9  1  0
  9  3  1  0
  8  5  1  0
  9  6  1  0
  1 10  1  0
  2 11  1  0
  2 12  1  0
  4 13  1  0
  5 14  1  0
  6 15  1  0
  7 16  1  0
  7 17  1  0
  8 18  1  0
  9 19  1  0
M  END
