
     RDKit          3D

 23 24  0  0  0  0  0  0  0  0999 V2000
    2.8828   -0.8811   -0.0104 O   0  0  0  0  0  0  0  0  0  0  0  0
    1.5470   -1.1810    0.2537 C   0  0  0  0  0  0  0  0  0  0  0  0
    0.6812   -0.0508   -0.2204 C   0  0  0  0  0  0  0  0  0  0  0  0
    0.9866    1.2586    0.4416 C   0  0  0  0  0  0  0  0  0  0  0  0
   -0.1939    2.1065    0.0114 C   0  0  0  0  0  0  0  0  0  0  0  0
   -1.3524    1.1379   -0.1052 C   0  0  0  0  0  0  0  0  0  0  0  0
   -0.7669   -0.2445    0.0109 C   0  0  0  0  0  0  0  0  0  0  0  0
   -1.3485   -1.1965    0.9424 C   0  0  0  0  0  0  0  0  0  0  0  0
   -1.4381   -1.4272   -0.5648 C   0  0  0  0  0  0  0  0  0  0  0  0
    3.0336   -0.7052   -0.9832 H   0  0  0  0  0  0  0  0  0  0  0  0
    1.2748   -2.1357   -0.2087 H   0  0  0  0  0  0  0  0  0  0  0  0
    1.4576   -1.2272    1.3718 H   0  0  0  0  0  0  0  0  0  0  0  0
    0.8480    0.0852   -1.3142 H   0  0  0  0  0  0  0  0  0  0  0  0
    1.9230    1.6469    0.0106 H   0  0  0  0  0  0  0  0  0  0  0  0
    1.0117    1.2024    1.5464 H   0  0  0  0  0  0  0  0  0  0  0  0
   -0.3986    2.9297    0.7166 H   0  0  0  0  0  0  0  0  0  0  0  0
    0.0348    2.4850   -1.0140 H   0  0  0  0  0  0  0  0  0  0  0  0
   -2.0386    1.3158    0.7436 H   0  0  0  0  0  0  0  0  0  0  0  0
   -1.8607    1.2005   -1.0868 H   0  0  0  0  0  0  0  0  0  0  0  0
   -2.3465   -0.9095    1.3841 H   0  0  0  0  0  0  0  0  0  0  0  0
   -0.7963   -1.9043    1.5637 H   0  0  0  0  0  0  0  0  0  0  0  0
   -2.3873   -1.2539   -1.0798 H   0  0  0  0  0  0  0  0  0  0  0  0
   -0.7534   -2.2514   -0.9114 H   0  0  0  0  0  0  0  0  0  0  0  0
  1  2  1  0
  2  3  1  0
  3  4  1  0
  4  5  1  0
  5  6  1  0
  6  7  1  0
  7  8  1  0
  8  9  1  0
  7  3  1  0
  9  7  1  0
  1 10  1  0
  2 11  1  0
  2 12  1  0
  3 13  1  0
  4 14  1  0
  4 15  1  0
  5 16  1  0
  5 17  1  0
  6 18  1  0
  6 19  1  0
  8 20  1  0
  8 21  1  0
  9 22  1  0
  9 23  1  0
M  END
