
     RDKit          3D

 16 17  0  0  0  0  0  0  0  0999 V2000
    2.3571   -0.9949    0.6929 O   0  0  0  0  0  0  0  0  0  0  0  0
    1.6427   -0.5297   -0.4293 C   0  0  0  0  0  0  0  0  0  0  0  0
    0.4325    0.1686    0.0602 C   0  0  0  0  0  0  0  0  0  0  0  0
    0.7076    1.2708    0.8918 O   0  0  0  0  0  0  0  0  0  0  0  0
   -0.1454    1.3558   -0.2055 C   0  0  0  0  0  0  0  0  0  0  0  0
   -1.5505    0.8311    0.1192 C   0  0  0  0  0  0  0  0  0  0  0  0
   -0.8841   -0.5463    0.2298 C   0  0  0  0  0  0  0  0  0  0  0  0
   -1.1814   -1.3650   -0.8285 O   0  0  0  0  0  0  0  0  0  0  0  0
    2.1335   -0.4142    1.4682 H   0  0  0  0  0  0  0  0  0  0  0  0
    2.2682    0.2218   -0.9951 H   0  0  0  0  0  0  0  0  0  0  0  0
    1.4652   -1.3701   -1.0993 H   0  0  0  0  0  0  0  0  0  0  0  0
   -0.0535    2.1497   -0.9385 H   0  0  0  0  0  0  0  0  0  0  0  0
   -1.9267    1.2266    1.0740 H   0  0  0  0  0  0  0  0  0  0  0  0
   -2.2794    0.9315   -0.6793 H   0  0  0  0  0  0  0  0  0  0  0  0
   -1.0180   -0.9819    1.2433 H   0  0  0  0  0  0  0  0  0  0  0  0
   -1.9678   -1.9537   -0.6038 H   0  0  0  0  0  0  0  0  0  0  0  0
  1  2  1  0
  2  3  1  0
  3  4  1  0
  4  5  1  0
  5  6  1  0
  6  7  1  0
  7  8  1  0
  5  3  1  0
  7  3  1  0
  1  9  1  0
  2 10  1  0
  2 11  1  0
  5 12  1  0
  6 13  1  0
  6 14  1  0
  7 15  1  0
  8 16  1  0
M  END
