
     RDKit          3D

 19 19  0  0  0  0  0  0  0  0999 V2000
   -3.0584   -0.5604    0.5280 O   0  0  0  0  0  0  0  0  0  0  0  0
   -2.4334   -0.2603   -0.6587 C   0  0  0  0  0  0  0  0  0  0  0  0
   -0.9854    0.0754   -0.4687 C   0  0  0  0  0  0  0  0  0  0  0  0
   -0.3124    0.1025    0.6725 C   0  0  0  0  0  0  0  0  0  0  0  0
    1.0712    0.4806    0.3850 C   0  0  0  0  0  0  0  0  0  0  0  0
    2.0946   -0.2508    1.2106 C   0  0  0  0  0  0  0  0  0  0  0  0
    3.3556    0.2356    0.8406 O   0  0  0  0  0  0  0  0  0  0  0  0
    1.2381    0.2954   -0.9749 O   0  0  0  0  0  0  0  0  0  0  0  0
   -0.0270    0.4434   -1.5427 C   0  0  0  0  0  0  0  0  0  0  0  0
   -3.4383    0.2328    0.9971 H   0  0  0  0  0  0  0  0  0  0  0  0
   -2.9784    0.5178   -1.1922 H   0  0  0  0  0  0  0  0  0  0  0  0
   -2.4510   -1.1803   -1.2876 H   0  0  0  0  0  0  0  0  0  0  0  0
   -0.7812   -0.1336    1.6497 H   0  0  0  0  0  0  0  0  0  0  0  0
    1.1925    1.5736    0.6253 H   0  0  0  0  0  0  0  0  0  0  0  0
    1.9411    0.0578    2.2662 H   0  0  0  0  0  0  0  0  0  0  0  0
    2.0878   -1.3327    1.0607 H   0  0  0  0  0  0  0  0  0  0  0  0
    3.7900   -0.3776    0.1752 H   0  0  0  0  0  0  0  0  0  0  0  0
   -0.1122   -0.2456   -2.4069 H   0  0  0  0  0  0  0  0  0  0  0  0
   -0.1932    1.4973   -1.8791 H   0  0  0  0  0  0  0  0  0  0  0  0
  1  2  1  0
  2  3  1  0
  3  4  2  0
  4  5  1  0
  5  6  1  0
  6  7  1  0
  5  8  1  0
  8  9  1  0
  9  3  1  0
  1 10  1  0
  2 11  1  0
  2 12  1  0
  4 13  1  0
  5 14  1  0
  6 15  1  0
  6 16  1  0
  7 17  1  0
  9 18  1  0
  9 19  1  0
M  END
