
     RDKit          3D

 21 22  0  0  0  0  0  0  0  0999 V2000
    3.0834   -0.2283   -0.5791 O   0  0  0  0  0  0  0  0  0  0  0  0
    1.8418   -0.8317   -0.6874 C   0  0  0  0  0  0  0  0  0  0  0  0
    0.7424    0.1583   -1.0199 C   0  0  0  0  0  0  0  0  0  0  0  0
    0.5173    1.2759   -0.0361 C   0  0  0  0  0  0  0  0  0  0  0  0
    1.4120    1.3574    1.0453 O   0  0  0  0  0  0  0  0  0  0  0  0
   -0.4242    0.1832   -0.1689 C   0  0  0  0  0  0  0  0  0  0  0  0
   -1.8298    0.2899   -0.6107 C   0  0  0  0  0  0  0  0  0  0  0  0
   -2.2513   -0.4289    0.6688 C   0  0  0  0  0  0  0  0  0  0  0  0
   -0.7825   -0.7959    0.8692 C   0  0  0  0  0  0  0  0  0  0  0  0
    3.3485   -0.0300    0.3575 H   0  0  0  0  0  0  0  0  0  0  0  0
    1.6273   -1.2795    0.3267 H   0  0  0  0  0  0  0  0  0  0  0  0
    1.8497   -1.6612   -1.4011 H   0  0  0  0  0  0  0  0  0  0  0  0
    0.6105    0.3352   -2.1017 H   0  0  0  0  0  0  0  0  0  0  0  0
    0.1937    2.2770   -0.3989 H   0  0  0  0  0  0  0  0  0  0  0  0
    0.9957    1.9949    1.6881 H   0  0  0  0  0  0  0  0  0  0  0  0
   -2.2688    1.2740   -0.7652 H   0  0  0  0  0  0  0  0  0  0  0  0
   -2.0108   -0.3573   -1.5106 H   0  0  0  0  0  0  0  0  0  0  0  0
   -2.6417    0.2376    1.4530 H   0  0  0  0  0  0  0  0  0  0  0  0
   -2.9193   -1.2797    0.4778 H   0  0  0  0  0  0  0  0  0  0  0  0
   -0.4553   -0.6434    1.8969 H   0  0  0  0  0  0  0  0  0  0  0  0
   -0.6385   -1.8475    0.4961 H   0  0  0  0  0  0  0  0  0  0  0  0
  1  2  1  0
  2  3  1  0
  3  4  1  0
  4  5  1  0
  4  6  1  0
  6  7  1  0
  7  8  1  0
  8  9  1  0
  6  3  1  0
  9  6  1  0
  1 10  1  0
  2 11  1  0
  2 12  1  0
  3 13  1  0
  4 14  1  0
  5 15  1  0
  7 16  1  0
  7 17  1  0
  8 18  1  0
  8 19  1  0
  9 20  1  0
  9 21  1  0
M  END
