
     RDKit          3D

 21 23  0  0  0  0  0  0  0  0999 V2000
    2.7514    0.0593    0.7740 O   0  0  0  0  0  0  0  0  0  0  0  0
    1.8870   -0.7392   -0.0086 C   0  0  0  0  0  0  0  0  0  0  0  0
    0.5209   -0.2186   -0.0956 C   0  0  0  0  0  0  0  0  0  0  0  0
   -0.3923    0.0082    1.0413 C   0  0  0  0  0  0  0  0  0  0  0  0
   -1.7681   -0.4894    0.5851 C   0  0  0  0  0  0  0  0  0  0  0  0
   -1.5917   -0.8237   -0.8577 C   0  0  0  0  0  0  0  0  0  0  0  0
   -0.3097   -0.1665   -1.2937 C   0  0  0  0  0  0  0  0  0  0  0  0
    0.1570    1.0923   -0.6633 C   0  0  0  0  0  0  0  0  0  0  0  0
   -0.3111    1.5017    0.7082 C   0  0  0  0  0  0  0  0  0  0  0  0
    3.1187    0.8016    0.2613 H   0  0  0  0  0  0  0  0  0  0  0  0
    2.3430   -0.7544   -1.0195 H   0  0  0  0  0  0  0  0  0  0  0  0
    1.8951   -1.7343    0.4666 H   0  0  0  0  0  0  0  0  0  0  0  0
   -0.0986   -0.2686    2.0440 H   0  0  0  0  0  0  0  0  0  0  0  0
   -2.5200    0.3331    0.6528 H   0  0  0  0  0  0  0  0  0  0  0  0
   -2.1216   -1.3340    1.2071 H   0  0  0  0  0  0  0  0  0  0  0  0
   -2.4512   -0.5977   -1.4902 H   0  0  0  0  0  0  0  0  0  0  0  0
   -1.4073   -1.9344   -0.9164 H   0  0  0  0  0  0  0  0  0  0  0  0
    0.1028   -0.4000   -2.2710 H   0  0  0  0  0  0  0  0  0  0  0  0
    0.8964    1.6998   -1.1752 H   0  0  0  0  0  0  0  0  0  0  0  0
    0.5501    1.9223    1.2869 H   0  0  0  0  0  0  0  0  0  0  0  0
   -1.2506    2.0427    0.7640 H   0  0  0  0  0  0  0  0  0  0  0  0
  1  2  1  0
  2  3  1  0
  3  4  1  0
  4  5  1  0
  5  6  1  0
  6  7  1  0
  7  8  1  0
  8  9  1  0
  7  3  1  0
  8  3  1  0
  9  4  1  0
  1 10  1  0
  2 11  1  0
  2 12  1  0
  4 13  1  0
  5 14  1  0
  5 15  1  0
  6 16  1  0
  6 17  1  0
  7 18  1  0
  8 19  1  0
  9 20  1  0
  9 21  1  0
M  END
