
     RDKit          3D

 21 21  0  0  0  0  0  0  0  0999 V2000
   -2.8065    1.0705   -0.7366 O   0  0  0  0  0  0  0  0  0  0  0  0
   -2.4655   -0.0815   -0.0688 C   0  0  0  0  0  0  0  0  0  0  0  0
   -1.0005   -0.3023    0.0095 C   0  0  0  0  0  0  0  0  0  0  0  0
   -0.3802   -0.3865    1.1875 C   0  0  0  0  0  0  0  0  0  0  0  0
    1.0943   -0.6098    1.1326 C   0  0  0  0  0  0  0  0  0  0  0  0
    1.6701    0.4960    0.2681 C   0  0  0  0  0  0  0  0  0  0  0  0
    3.0597    0.2736    0.2132 O   0  0  0  0  0  0  0  0  0  0  0  0
    1.0488    0.4790   -1.0895 C   0  0  0  0  0  0  0  0  0  0  0  0
   -0.1404   -0.4420   -1.1995 C   0  0  0  0  0  0  0  0  0  0  0  0
   -2.9309    1.7857   -0.0549 H   0  0  0  0  0  0  0  0  0  0  0  0
   -2.9480   -0.9890   -0.5381 H   0  0  0  0  0  0  0  0  0  0  0  0
   -2.8699   -0.0503    0.9636 H   0  0  0  0  0  0  0  0  0  0  0  0
   -0.9420   -0.2942    2.1016 H   0  0  0  0  0  0  0  0  0  0  0  0
    1.3354   -1.5694    0.5870 H   0  0  0  0  0  0  0  0  0  0  0  0
    1.5362   -0.6068    2.1370 H   0  0  0  0  0  0  0  0  0  0  0  0
    1.4639    1.4528    0.8322 H   0  0  0  0  0  0  0  0  0  0  0  0
    3.3539   -0.3953    0.8802 H   0  0  0  0  0  0  0  0  0  0  0  0
    0.6670    1.5212   -1.2862 H   0  0  0  0  0  0  0  0  0  0  0  0
    1.7840    0.2304   -1.8693 H   0  0  0  0  0  0  0  0  0  0  0  0
    0.1929   -1.4815   -1.3676 H   0  0  0  0  0  0  0  0  0  0  0  0
   -0.7221   -0.1006   -2.1018 H   0  0  0  0  0  0  0  0  0  0  0  0
  1  2  1  0
  2  3  1  0
  3  4  2  0
  4  5  1  0
  5  6  1  0
  6  7  1  0
  6  8  1  0
  8  9  1  0
  9  3  1  0
  1 10  1  0
  2 11  1  0
  2 12  1  0
  4 13  1  0
  5 14  1  0
  5 15  1  0
  6 16  1  0
  7 17  1  0
  8 18  1  0
  8 19  1  0
  9 20  1  0
  9 21  1  0
M  END
