
     RDKit          3D

 19 19  0  0  0  0  0  0  0  0999 V2000
    2.9138   -0.9938    0.1325 O   0  0  0  0  0  0  0  0  0  0  0  0
    2.1448    0.1413   -0.0861 C   0  0  0  0  0  0  0  0  0  0  0  0
    0.7192   -0.0953    0.2377 C   0  0  0  0  0  0  0  0  0  0  0  0
    0.2382   -1.2500    0.6819 C   0  0  0  0  0  0  0  0  0  0  0  0
   -1.2288   -1.1102    0.8960 C   0  0  0  0  0  0  0  0  0  0  0  0
   -1.5645   -0.0221   -0.1045 C   0  0  0  0  0  0  0  0  0  0  0  0
   -2.7592    0.5944    0.1714 O   0  0  0  0  0  0  0  0  0  0  0  0
   -0.3652    0.9115    0.1125 C   0  0  0  0  0  0  0  0  0  0  0  0
   -0.1935    1.7835   -0.9298 O   0  0  0  0  0  0  0  0  0  0  0  0
    3.8302   -0.7765    0.4470 H   0  0  0  0  0  0  0  0  0  0  0  0
    2.2389    0.3619   -1.1896 H   0  0  0  0  0  0  0  0  0  0  0  0
    2.5556    1.0390    0.4175 H   0  0  0  0  0  0  0  0  0  0  0  0
    0.7680   -2.1817    0.8791 H   0  0  0  0  0  0  0  0  0  0  0  0
   -1.7839   -2.0361    0.7256 H   0  0  0  0  0  0  0  0  0  0  0  0
   -1.3702   -0.7020    1.9293 H   0  0  0  0  0  0  0  0  0  0  0  0
   -1.5070   -0.4553   -1.1241 H   0  0  0  0  0  0  0  0  0  0  0  0
   -3.0750    1.0886   -0.6173 H   0  0  0  0  0  0  0  0  0  0  0  0
   -0.5131    1.4467    1.0758 H   0  0  0  0  0  0  0  0  0  0  0  0
   -1.0484    2.2559   -1.0820 H   0  0  0  0  0  0  0  0  0  0  0  0
  1  2  1  0
  2  3  1  0
  3  4  2  0
  4  5  1  0
  5  6  1  0
  6  7  1  0
  6  8  1  0
  8  9  1  0
  8  3  1  0
  1 10  1  0
  2 11  1  0
  2 12  1  0
  4 13  1  0
  5 14  1  0
  5 15  1  0
  6 16  1  0
  7 17  1  0
  8 18  1  0
  9 19  1  0
M  END
