
     RDKit          3D

 20 20  0  0  0  0  0  0  0  0999 V2000
    2.7035    0.2991   -0.2969 O   0  0  0  0  0  0  0  0  0  0  0  0
    1.6792   -0.5921   -0.6056 C   0  0  0  0  0  0  0  0  0  0  0  0
    0.5231   -0.3661    0.3382 C   0  0  0  0  0  0  0  0  0  0  0  0
    0.9561   -0.5778    1.6398 O   0  0  0  0  0  0  0  0  0  0  0  0
    0.1212    1.0902    0.2201 C   0  0  0  0  0  0  0  0  0  0  0  0
   -1.1522    1.1031   -0.6201 C   0  0  0  0  0  0  0  0  0  0  0  0
   -1.8437   -0.1447   -0.1187 C   0  0  0  0  0  0  0  0  0  0  0  0
   -0.6928   -1.1450   -0.0103 C   0  0  0  0  0  0  0  0  0  0  0  0
    2.5376    0.7926    0.5430 H   0  0  0  0  0  0  0  0  0  0  0  0
    1.3680   -0.3661   -1.6533 H   0  0  0  0  0  0  0  0  0  0  0  0
    2.0696   -1.6392   -0.5423 H   0  0  0  0  0  0  0  0  0  0  0  0
    0.1414   -0.7442    2.1976 H   0  0  0  0  0  0  0  0  0  0  0  0
   -0.1309    1.4962    1.2175 H   0  0  0  0  0  0  0  0  0  0  0  0
    0.8839    1.7052   -0.2601 H   0  0  0  0  0  0  0  0  0  0  0  0
   -0.9459    1.0913   -1.6912 H   0  0  0  0  0  0  0  0  0  0  0  0
   -1.7763    1.9628   -0.3077 H   0  0  0  0  0  0  0  0  0  0  0  0
   -2.6214   -0.4876   -0.8090 H   0  0  0  0  0  0  0  0  0  0  0  0
   -2.2400    0.0603    0.8820 H   0  0  0  0  0  0  0  0  0  0  0  0
   -0.9648   -1.8224    0.8316 H   0  0  0  0  0  0  0  0  0  0  0  0
   -0.6158   -1.7157   -0.9545 H   0  0  0  0  0  0  0  0  0  0  0  0
  1  2  1  0
  2  3  1  0
  3  4  1  0
  3  5  1  0
  5  6  1  0
  6  7  1  0
  7  8  1  0
  8  3  1  0
  1  9  1  0
  2 10  1  0
  2 11  1  0
  4 12  1  0
  5 13  1  0
  5 14  1  0
  6 15  1  0
  6 16  1  0
  7 17  1  0
  7 18  1  0
  8 19  1  0
  8 20  1  0
M  END
