
     RDKit          3D

 21 22  0  0  0  0  0  0  0  0999 V2000
    2.8001   -1.0690    0.7954 O   0  0  0  0  0  0  0  0  0  0  0  0
    1.6425   -1.0747   -0.0263 C   0  0  0  0  0  0  0  0  0  0  0  0
    1.1854    0.3179   -0.2039 C   0  0  0  0  0  0  0  0  0  0  0  0
    0.8350    1.0348    0.9331 O   0  0  0  0  0  0  0  0  0  0  0  0
    0.2392    1.9411    0.0158 C   0  0  0  0  0  0  0  0  0  0  0  0
   -0.0857    0.6756   -0.8065 C   0  0  0  0  0  0  0  0  0  0  0  0
   -1.4023    0.1826   -0.3976 C   0  0  0  0  0  0  0  0  0  0  0  0
   -1.8316   -1.2241   -0.3850 C   0  0  0  0  0  0  0  0  0  0  0  0
   -1.7072   -0.4607    0.8992 C   0  0  0  0  0  0  0  0  0  0  0  0
    2.9201   -0.1836    1.2156 H   0  0  0  0  0  0  0  0  0  0  0  0
    0.9484   -1.7610    0.4863 H   0  0  0  0  0  0  0  0  0  0  0  0
    1.9872   -1.5637   -0.9592 H   0  0  0  0  0  0  0  0  0  0  0  0
    2.0129    0.9072   -0.7099 H   0  0  0  0  0  0  0  0  0  0  0  0
    1.0095    2.5701   -0.4737 H   0  0  0  0  0  0  0  0  0  0  0  0
   -0.6351    2.4582    0.4078 H   0  0  0  0  0  0  0  0  0  0  0  0
   -0.0174    0.9126   -1.8853 H   0  0  0  0  0  0  0  0  0  0  0  0
   -2.2252    0.8964   -0.7331 H   0  0  0  0  0  0  0  0  0  0  0  0
   -1.1732   -2.0751   -0.5693 H   0  0  0  0  0  0  0  0  0  0  0  0
   -2.9016   -1.4761   -0.6511 H   0  0  0  0  0  0  0  0  0  0  0  0
   -0.9479   -0.8254    1.5932 H   0  0  0  0  0  0  0  0  0  0  0  0
   -2.6530   -0.1831    1.4545 H   0  0  0  0  0  0  0  0  0  0  0  0
  1  2  1  0
  2  3  1  0
  3  4  1  0
  4  5  1  0
  5  6  1  0
  6  7  1  0
  7  8  1  0
  8  9  1  0
  6  3  1  0
  9  7  1  0
  1 10  1  0
  2 11  1  0
  2 12  1  0
  3 13  1  0
  5 14  1  0
  5 15  1  0
  6 16  1  0
  7 17  1  0
  8 18  1  0
  8 19  1  0
  9 20  1  0
  9 21  1  0
M  END
