
     RDKit          3D

 21 22  0  0  0  0  0  0  0  0999 V2000
    2.9217   -0.6676   -0.3840 O   0  0  0  0  0  0  0  0  0  0  0  0
    1.9251   -0.7986    0.6030 C   0  0  0  0  0  0  0  0  0  0  0  0
    0.8706    0.2134    0.2984 C   0  0  0  0  0  0  0  0  0  0  0  0
    0.2855   -0.0281   -1.0617 C   0  0  0  0  0  0  0  0  0  0  0  0
   -1.1188    0.5146   -0.9852 C   0  0  0  0  0  0  0  0  0  0  0  0
   -2.1738   -0.4644   -0.5455 C   0  0  0  0  0  0  0  0  0  0  0  0
   -2.6006    0.4405    0.4369 O   0  0  0  0  0  0  0  0  0  0  0  0
   -1.3398    0.9827    0.4312 C   0  0  0  0  0  0  0  0  0  0  0  0
   -0.2940    0.1976    1.2319 C   0  0  0  0  0  0  0  0  0  0  0  0
    3.2779    0.2609   -0.3474 H   0  0  0  0  0  0  0  0  0  0  0  0
    2.3861   -0.6590    1.5878 H   0  0  0  0  0  0  0  0  0  0  0  0
    1.4656   -1.8073    0.4871 H   0  0  0  0  0  0  0  0  0  0  0  0
    1.2841    1.2556    0.3025 H   0  0  0  0  0  0  0  0  0  0  0  0
    0.8927    0.4597   -1.8618 H   0  0  0  0  0  0  0  0  0  0  0  0
    0.2084   -1.1241   -1.2171 H   0  0  0  0  0  0  0  0  0  0  0  0
   -1.3823    1.2069   -1.7835 H   0  0  0  0  0  0  0  0  0  0  0  0
   -2.8883   -0.6420   -1.3592 H   0  0  0  0  0  0  0  0  0  0  0  0
   -1.7888   -1.3818   -0.0933 H   0  0  0  0  0  0  0  0  0  0  0  0
   -1.2305    2.0499    0.6158 H   0  0  0  0  0  0  0  0  0  0  0  0
   -0.6625   -0.7916    1.5033 H   0  0  0  0  0  0  0  0  0  0  0  0
   -0.0382    0.7828    2.1408 H   0  0  0  0  0  0  0  0  0  0  0  0
  1  2  1  0
  2  3  1  0
  3  4  1  0
  4  5  1  0
  5  6  1  0
  6  7  1  0
  7  8  1  0
  8  9  1  0
  9  3  1  0
  8  5  1  0
  1 10  1  0
  2 11  1  0
  2 12  1  0
  3 13  1  0
  4 14  1  0
  4 15  1  0
  5 16  1  0
  6 17  1  0
  6 18  1  0
  8 19  1  0
  9 20  1  0
  9 21  1  0
M  END
