
     RDKit          3D

 19 21  0  0  0  0  0  0  0  0999 V2000
   -2.0941   -0.9161   -1.1715 O   0  0  0  0  0  0  0  0  0  0  0  0
   -1.5991   -1.0669    0.1112 C   0  0  0  0  0  0  0  0  0  0  0  0
   -0.4418   -0.1404    0.3832 C   0  0  0  0  0  0  0  0  0  0  0  0
   -0.7062    1.3167    0.2658 C   0  0  0  0  0  0  0  0  0  0  0  0
    0.0641    0.6224   -0.7662 C   0  0  0  0  0  0  0  0  0  0  0  0
    1.5416    0.4786   -0.7603 C   0  0  0  0  0  0  0  0  0  0  0  0
    1.9790   -0.0901    0.5414 C   0  0  0  0  0  0  0  0  0  0  0  0
    1.5092    0.4001    1.7426 O   0  0  0  0  0  0  0  0  0  0  0  0
    0.7189   -0.5989    1.1962 C   0  0  0  0  0  0  0  0  0  0  0  0
   -2.3773   -0.0154   -1.3871 H   0  0  0  0  0  0  0  0  0  0  0  0
   -1.3651   -2.1254    0.2958 H   0  0  0  0  0  0  0  0  0  0  0  0
   -2.4400   -0.7870    0.8057 H   0  0  0  0  0  0  0  0  0  0  0  0
   -0.2299    2.0262    0.9895 H   0  0  0  0  0  0  0  0  0  0  0  0
   -1.7332    1.6169    0.0159 H   0  0  0  0  0  0  0  0  0  0  0  0
   -0.4190    0.4677   -1.7548 H   0  0  0  0  0  0  0  0  0  0  0  0
    2.0828    1.4286   -1.0315 H   0  0  0  0  0  0  0  0  0  0  0  0
    1.8324   -0.2501   -1.5622 H   0  0  0  0  0  0  0  0  0  0  0  0
    2.8826   -0.7297    0.5344 H   0  0  0  0  0  0  0  0  0  0  0  0
    0.7951   -1.6372    1.5518 H   0  0  0  0  0  0  0  0  0  0  0  0
  1  2  1  0
  2  3  1  0
  3  4  1  0
  4  5  1  0
  5  6  1  0
  6  7  1  0
  7  8  1  0
  8  9  1  0
  5  3  1  0
  9  7  1  0
  9  3  1  0
  1 10  1  0
  2 11  1  0
  2 12  1  0
  4 13  1  0
  4 14  1  0
  5 15  1  0
  6 16  1  0
  6 17  1  0
  7 18  1  0
  9 19  1  0
M  END
