
     RDKit          3D

 18 18  0  0  0  0  0  0  0  0999 V2000
    2.7367    0.6452    0.0890 O   0  0  0  0  0  0  0  0  0  0  0  0
    2.0247   -0.4817   -0.3242 C   0  0  0  0  0  0  0  0  0  0  0  0
    0.5613   -0.2683   -0.2307 C   0  0  0  0  0  0  0  0  0  0  0  0
   -0.2366   -1.0125    0.5250 C   0  0  0  0  0  0  0  0  0  0  0  0
   -1.6785   -0.6431    0.4868 C   0  0  0  0  0  0  0  0  0  0  0  0
   -1.7991    0.8514    0.5954 C   0  0  0  0  0  0  0  0  0  0  0  0
   -0.8480    1.5526   -0.1045 O   0  0  0  0  0  0  0  0  0  0  0  0
   -0.1065    0.8150   -0.9947 C   0  0  0  0  0  0  0  0  0  0  0  0
    3.5824    0.3130    0.4865 H   0  0  0  0  0  0  0  0  0  0  0  0
    2.3542   -1.4047    0.1586 H   0  0  0  0  0  0  0  0  0  0  0  0
    2.2792   -0.6022   -1.4183 H   0  0  0  0  0  0  0  0  0  0  0  0
    0.1665   -1.8397    1.1286 H   0  0  0  0  0  0  0  0  0  0  0  0
   -2.2502   -1.0897    1.3348 H   0  0  0  0  0  0  0  0  0  0  0  0
   -2.1522   -0.9915   -0.4771 H   0  0  0  0  0  0  0  0  0  0  0  0
   -1.7740    1.0868    1.6999 H   0  0  0  0  0  0  0  0  0  0  0  0
   -2.8088    1.2180    0.2675 H   0  0  0  0  0  0  0  0  0  0  0  0
   -0.7249    0.3734   -1.8026 H   0  0  0  0  0  0  0  0  0  0  0  0
    0.6739    1.4779   -1.4199 H   0  0  0  0  0  0  0  0  0  0  0  0
  1  2  1  0
  2  3  1  0
  3  4  2  0
  4  5  1  0
  5  6  1  0
  6  7  1  0
  7  8  1  0
  8  3  1  0
  1  9  1  0
  2 10  1  0
  2 11  1  0
  4 12  1  0
  5 13  1  0
  5 14  1  0
  6 15  1  0
  6 16  1  0
  8 17  1  0
  8 18  1  0
M  END
