
     RDKit          3D

 19 20  0  0  0  0  0  0  0  0999 V2000
    2.1592   -0.3267   -1.2195 O   0  0  0  0  0  0  0  0  0  0  0  0
    2.3220   -0.5822    0.1302 C   0  0  0  0  0  0  0  0  0  0  0  0
    1.0461   -0.3664    0.9132 C   0  0  0  0  0  0  0  0  0  0  0  0
    0.6211    1.0484    0.7498 O   0  0  0  0  0  0  0  0  0  0  0  0
   -0.1406   -0.0182    0.3543 C   0  0  0  0  0  0  0  0  0  0  0  0
   -0.7149   -0.1451   -0.9976 C   0  0  0  0  0  0  0  0  0  0  0  0
   -2.0736    0.2554   -0.4032 C   0  0  0  0  0  0  0  0  0  0  0  0
   -2.2863    1.6253   -0.3997 O   0  0  0  0  0  0  0  0  0  0  0  0
   -1.5039   -0.1689    0.9472 C   0  0  0  0  0  0  0  0  0  0  0  0
    2.6995    0.4524   -1.5310 H   0  0  0  0  0  0  0  0  0  0  0  0
    3.1453    0.0767    0.5212 H   0  0  0  0  0  0  0  0  0  0  0  0
    2.6412   -1.6388    0.2365 H   0  0  0  0  0  0  0  0  0  0  0  0
    1.1554   -0.6112    1.9929 H   0  0  0  0  0  0  0  0  0  0  0  0
   -0.7834   -1.1815   -1.4064 H   0  0  0  0  0  0  0  0  0  0  0  0
   -0.3677    0.5275   -1.7891 H   0  0  0  0  0  0  0  0  0  0  0  0
   -2.8959   -0.3693   -0.7624 H   0  0  0  0  0  0  0  0  0  0  0  0
   -1.4929    2.1127   -0.6968 H   0  0  0  0  0  0  0  0  0  0  0  0
   -1.8303   -1.2008    1.1709 H   0  0  0  0  0  0  0  0  0  0  0  0
   -1.7002    0.5107    1.7718 H   0  0  0  0  0  0  0  0  0  0  0  0
  1  2  1  0
  2  3  1  0
  3  4  1  0
  4  5  1  0
  5  6  1  0
  6  7  1  0
  7  8  1  0
  7  9  1  0
  5  3  1  0
  9  5  1  0
  1 10  1  0
  2 11  1  0
  2 12  1  0
  3 13  1  0
  6 14  1  0
  6 15  1  0
  7 16  1  0
  8 17  1  0
  9 18  1  0
  9 19  1  0
M  END
