
     RDKit          3D

 21 22  0  0  0  0  0  0  0  0999 V2000
   -3.0095   -0.0109   -0.8918 O   0  0  0  0  0  0  0  0  0  0  0  0
   -2.0089   -0.6492   -0.1946 C   0  0  0  0  0  0  0  0  0  0  0  0
   -0.6279   -0.0625   -0.5164 C   0  0  0  0  0  0  0  0  0  0  0  0
   -0.6892    1.3965   -0.1191 C   0  0  0  0  0  0  0  0  0  0  0  0
    0.5481    1.7170    0.4154 O   0  0  0  0  0  0  0  0  0  0  0  0
    1.0661    0.6085    1.0197 C   0  0  0  0  0  0  0  0  0  0  0  0
    2.3660    0.1668    0.4135 C   0  0  0  0  0  0  0  0  0  0  0  0
    1.6885   -1.0561   -0.1389 C   0  0  0  0  0  0  0  0  0  0  0  0
    0.3831   -0.6083    0.4590 C   0  0  0  0  0  0  0  0  0  0  0  0
   -3.5326    0.6002   -0.3116 H   0  0  0  0  0  0  0  0  0  0  0  0
   -2.1911   -0.6359    0.8990 H   0  0  0  0  0  0  0  0  0  0  0  0
   -1.9309   -1.7283   -0.4715 H   0  0  0  0  0  0  0  0  0  0  0  0
   -0.3608   -0.2297   -1.5595 H   0  0  0  0  0  0  0  0  0  0  0  0
   -0.9959    2.0514   -0.9342 H   0  0  0  0  0  0  0  0  0  0  0  0
   -1.4281    1.5145    0.7270 H   0  0  0  0  0  0  0  0  0  0  0  0
    1.0241    0.5727    2.1355 H   0  0  0  0  0  0  0  0  0  0  0  0
    3.1719   -0.0218    1.1449 H   0  0  0  0  0  0  0  0  0  0  0  0
    2.7528    0.8183   -0.4080 H   0  0  0  0  0  0  0  0  0  0  0  0
    1.7090   -1.1536   -1.2407 H   0  0  0  0  0  0  0  0  0  0  0  0
    2.1049   -1.9716    0.3311 H   0  0  0  0  0  0  0  0  0  0  0  0
   -0.0397   -1.3181    1.1720 H   0  0  0  0  0  0  0  0  0  0  0  0
  1  2  1  0
  2  3  1  0
  3  4  1  0
  4  5  1  0
  5  6  1  0
  6  7  1  0
  7  8  1  0
  8  9  1  0
  9  3  1  0
  9  6  1  0
  1 10  1  0
  2 11  1  0
  2 12  1  0
  3 13  1  0
  4 14  1  0
  4 15  1  0
  6 16  1  0
  7 17  1  0
  7 18  1  0
  8 19  1  0
  8 20  1  0
  9 21  1  0
M  END
