
     RDKit          3D

 18 19  0  0  0  0  0  0  0  0999 V2000
    1.7153    0.1944   -1.4629 O   0  0  0  0  0  0  0  0  0  0  0  0
    1.8070   -0.5821   -0.3344 C   0  0  0  0  0  0  0  0  0  0  0  0
    0.6136   -0.3983    0.5854 C   0  0  0  0  0  0  0  0  0  0  0  0
    0.4644    0.9821    1.0452 C   0  0  0  0  0  0  0  0  0  0  0  0
   -0.7900    1.3453    0.9752 C   0  0  0  0  0  0  0  0  0  0  0  0
   -1.6355    0.2477    0.4571 C   0  0  0  0  0  0  0  0  0  0  0  0
   -1.4502   -0.0306   -0.9901 C   0  0  0  0  0  0  0  0  0  0  0  0
   -0.6637   -0.8118   -0.0160 C   0  0  0  0  0  0  0  0  0  0  0  0
    1.1105   -0.2297   -2.1280 H   0  0  0  0  0  0  0  0  0  0  0  0
    1.9768   -1.6501   -0.5653 H   0  0  0  0  0  0  0  0  0  0  0  0
    2.7047   -0.2336    0.2409 H   0  0  0  0  0  0  0  0  0  0  0  0
    0.7720   -1.0103    1.5272 H   0  0  0  0  0  0  0  0  0  0  0  0
    1.3322    1.5833    1.3920 H   0  0  0  0  0  0  0  0  0  0  0  0
   -1.1701    2.3179    1.2567 H   0  0  0  0  0  0  0  0  0  0  0  0
   -2.5503   -0.0486    0.9934 H   0  0  0  0  0  0  0  0  0  0  0  0
   -2.2893   -0.5546   -1.4774 H   0  0  0  0  0  0  0  0  0  0  0  0
   -1.0151    0.7617   -1.6195 H   0  0  0  0  0  0  0  0  0  0  0  0
   -0.9322   -1.8828    0.1205 H   0  0  0  0  0  0  0  0  0  0  0  0
  1  2  1  0
  2  3  1  0
  3  4  1  0
  4  5  2  0
  5  6  1  0
  6  7  1  0
  7  8  1  0
  8  3  1  0
  8  6  1  0
  1  9  1  0
  2 10  1  0
  2 11  1  0
  3 12  1  0
  4 13  1  0
  5 14  1  0
  6 15  1  0
  7 16  1  0
  7 17  1  0
  8 18  1  0
M  END
