
     RDKit          3D

 19 20  0  0  0  0  0  0  0  0999 V2000
    3.2180   -0.4311    0.5344 O   0  0  0  0  0  0  0  0  0  0  0  0
    2.3825    0.0671   -0.4347 C   0  0  0  0  0  0  0  0  0  0  0  0
    1.1534    0.7365    0.1316 C   0  0  0  0  0  0  0  0  0  0  0  0
    0.3432    1.2262   -1.0160 O   0  0  0  0  0  0  0  0  0  0  0  0
   -0.1804    0.3402   -0.1072 C   0  0  0  0  0  0  0  0  0  0  0  0
   -0.6761   -0.9976   -0.5167 C   0  0  0  0  0  0  0  0  0  0  0  0
   -2.1478   -0.9419   -0.3319 C   0  0  0  0  0  0  0  0  0  0  0  0
   -2.5083    0.1158    0.3869 C   0  0  0  0  0  0  0  0  0  0  0  0
   -1.2852    0.8808    0.7566 C   0  0  0  0  0  0  0  0  0  0  0  0
    2.8566   -1.2185    1.0007 H   0  0  0  0  0  0  0  0  0  0  0  0
    2.9583    0.8802   -0.9677 H   0  0  0  0  0  0  0  0  0  0  0  0
    2.1442   -0.6754   -1.2098 H   0  0  0  0  0  0  0  0  0  0  0  0
    1.3800    1.5561    0.8436 H   0  0  0  0  0  0  0  0  0  0  0  0
   -0.2791   -1.8151    0.1297 H   0  0  0  0  0  0  0  0  0  0  0  0
   -0.4130   -1.2623   -1.5558 H   0  0  0  0  0  0  0  0  0  0  0  0
   -2.8919   -1.6574   -0.7182 H   0  0  0  0  0  0  0  0  0  0  0  0
   -3.5097    0.4030    0.6735 H   0  0  0  0  0  0  0  0  0  0  0  0
   -1.0667    0.8195    1.8404 H   0  0  0  0  0  0  0  0  0  0  0  0
   -1.4782    1.9738    0.5606 H   0  0  0  0  0  0  0  0  0  0  0  0
  1  2  1  0
  2  3  1  0
  3  4  1  0
  4  5  1  0
  5  6  1  0
  6  7  1  0
  7  8  2  0
  8  9  1  0
  5  3  1  0
  9  5  1  0
  1 10  1  0
  2 11  1  0
  2 12  1  0
  3 13  1  0
  6 14  1  0
  6 15  1  0
  7 16  1  0
  8 17  1  0
  9 18  1  0
  9 19  1  0
M  END
