
     RDKit          3D

 19 20  0  0  0  0  0  0  0  0999 V2000
    3.1711    0.8029    0.4276 O   0  0  0  0  0  0  0  0  0  0  0  0
    2.4859    0.1293   -0.5699 C   0  0  0  0  0  0  0  0  0  0  0  0
    1.2801   -0.5088    0.0610 C   0  0  0  0  0  0  0  0  0  0  0  0
    0.4798   -1.2417   -0.8688 O   0  0  0  0  0  0  0  0  0  0  0  0
   -0.5345   -1.0359    0.0534 C   0  0  0  0  0  0  0  0  0  0  0  0
   -1.9128   -0.7189   -0.4588 C   0  0  0  0  0  0  0  0  0  0  0  0
   -2.2227    0.6058    0.2577 C   0  0  0  0  0  0  0  0  0  0  0  0
   -0.8599    1.2325    0.3443 C   0  0  0  0  0  0  0  0  0  0  0  0
    0.0951    0.3498    0.2018 C   0  0  0  0  0  0  0  0  0  0  0  0
    2.5688    1.1563    1.1312 H   0  0  0  0  0  0  0  0  0  0  0  0
    2.1407    0.7941   -1.3804 H   0  0  0  0  0  0  0  0  0  0  0  0
    3.1186   -0.6459   -1.0133 H   0  0  0  0  0  0  0  0  0  0  0  0
    1.4626   -1.1273    0.9446 H   0  0  0  0  0  0  0  0  0  0  0  0
   -0.4884   -1.6235    0.9766 H   0  0  0  0  0  0  0  0  0  0  0  0
   -2.0093   -0.6468   -1.5377 H   0  0  0  0  0  0  0  0  0  0  0  0
   -2.6096   -1.4753   -0.0450 H   0  0  0  0  0  0  0  0  0  0  0  0
   -2.5615    0.4463    1.2884 H   0  0  0  0  0  0  0  0  0  0  0  0
   -2.9241    1.2077   -0.3195 H   0  0  0  0  0  0  0  0  0  0  0  0
   -0.6800    2.2994    0.5068 H   0  0  0  0  0  0  0  0  0  0  0  0
  1  2  1  0
  2  3  1  0
  3  4  1  0
  4  5  1  0
  5  6  1  0
  6  7  1  0
  7  8  1  0
  8  9  2  0
  9  3  1  0
  9  5  1  0
  1 10  1  0
  2 11  1  0
  2 12  1  0
  3 13  1  0
  5 14  1  0
  6 15  1  0
  6 16  1  0
  7 17  1  0
  7 18  1  0
  8 19  1  0
M  END
