
     RDKit          3D

 19 19  0  0  0  0  0  0  0  0999 V2000
   -0.9440    1.9638    0.6684 O   0  0  0  0  0  0  0  0  0  0  0  0
   -1.3823    0.6720    0.5139 C   0  0  0  0  0  0  0  0  0  0  0  0
   -0.8073   -0.0333   -0.6838 C   0  0  0  0  0  0  0  0  0  0  0  0
   -1.3632   -1.3338   -0.6825 O   0  0  0  0  0  0  0  0  0  0  0  0
   -0.5057   -2.1338    0.0245 C   0  0  0  0  0  0  0  0  0  0  0  0
    0.6856   -1.4754    0.2043 O   0  0  0  0  0  0  0  0  0  0  0  0
    0.6468   -0.3272   -0.5812 C   0  0  0  0  0  0  0  0  0  0  0  0
    1.4730    0.7583    0.0152 C   0  0  0  0  0  0  0  0  0  0  0  0
    2.7950    0.2842    0.0979 O   0  0  0  0  0  0  0  0  0  0  0  0
   -1.6883    2.6331    0.6580 H   0  0  0  0  0  0  0  0  0  0  0  0
   -1.2637    0.0866    1.4524 H   0  0  0  0  0  0  0  0  0  0  0  0
   -2.4925    0.7189    0.3434 H   0  0  0  0  0  0  0  0  0  0  0  0
   -1.1028    0.5361   -1.5811 H   0  0  0  0  0  0  0  0  0  0  0  0
   -0.9129   -2.4128    1.0329 H   0  0  0  0  0  0  0  0  0  0  0  0
   -0.2981   -3.0527   -0.5881 H   0  0  0  0  0  0  0  0  0  0  0  0
    1.0383   -0.5433   -1.5957 H   0  0  0  0  0  0  0  0  0  0  0  0
    1.5107    1.6215   -0.7004 H   0  0  0  0  0  0  0  0  0  0  0  0
    1.1878    1.0711    1.0179 H   0  0  0  0  0  0  0  0  0  0  0  0
    3.4236    0.9667    0.3839 H   0  0  0  0  0  0  0  0  0  0  0  0
  1  2  1  0
  2  3  1  0
  3  4  1  0
  4  5  1  0
  5  6  1  0
  6  7  1  0
  7  8  1  0
  8  9  1  0
  7  3  1  0
  1 10  1  0
  2 11  1  0
  2 12  1  0
  3 13  1  0
  5 14  1  0
  5 15  1  0
  7 16  1  0
  8 17  1  0
  8 18  1  0
  9 19  1  0
M  END
