
     RDKit          3D

 17 19  0  0  0  0  0  0  0  0999 V2000
    2.2176   -0.1173   -1.0739 O   0  0  0  0  0  0  0  0  0  0  0  0
    1.8545   -0.2609    0.2796 C   0  0  0  0  0  0  0  0  0  0  0  0
    0.4262    0.1011    0.4023 C   0  0  0  0  0  0  0  0  0  0  0  0
    0.0061    1.3522   -0.3114 C   0  0  0  0  0  0  0  0  0  0  0  0
   -1.2683    1.2631   -0.6861 C   0  0  0  0  0  0  0  0  0  0  0  0
   -1.7938   -0.0578   -0.2488 C   0  0  0  0  0  0  0  0  0  0  0  0
   -1.3229   -0.4771    1.1156 C   0  0  0  0  0  0  0  0  0  0  0  0
   -0.1573    0.0358    1.6499 O   0  0  0  0  0  0  0  0  0  0  0  0
   -0.5956   -0.8720   -0.0806 C   0  0  0  0  0  0  0  0  0  0  0  0
    2.4906   -0.9804   -1.4663 H   0  0  0  0  0  0  0  0  0  0  0  0
    2.4574    0.4984    0.8308 H   0  0  0  0  0  0  0  0  0  0  0  0
    2.0298   -1.2664    0.6545 H   0  0  0  0  0  0  0  0  0  0  0  0
    0.6280    2.2246   -0.5106 H   0  0  0  0  0  0  0  0  0  0  0  0
   -1.8667    1.9978   -1.2199 H   0  0  0  0  0  0  0  0  0  0  0  0
   -2.7373   -0.4431   -0.5930 H   0  0  0  0  0  0  0  0  0  0  0  0
   -1.9721   -1.1477    1.7052 H   0  0  0  0  0  0  0  0  0  0  0  0
   -0.3961   -1.8503   -0.4474 H   0  0  0  0  0  0  0  0  0  0  0  0
  1  2  1  0
  2  3  1  0
  3  4  1  0
  4  5  2  0
  5  6  1  0
  6  7  1  0
  7  8  1  0
  7  9  1  0
  8  3  1  0
  9  3  1  0
  9  6  1  0
  1 10  1  0
  2 11  1  0
  2 12  1  0
  4 13  1  0
  5 14  1  0
  6 15  1  0
  7 16  1  0
  9 17  1  0
M  END
