
     RDKit          3D

 17 20  0  0  0  0  0  0  0  0999 V2000
    2.5449    0.2588    0.9661 O   0  0  0  0  0  0  0  0  0  0  0  0
    1.7111    0.2477   -0.1426 C   0  0  0  0  0  0  0  0  0  0  0  0
    0.3092    0.0715    0.2014 C   0  0  0  0  0  0  0  0  0  0  0  0
   -0.3211   -1.0336    0.8939 C   0  0  0  0  0  0  0  0  0  0  0  0
   -1.5627   -0.5799    1.3522 O   0  0  0  0  0  0  0  0  0  0  0  0
   -1.9895    0.3913    0.4536 C   0  0  0  0  0  0  0  0  0  0  0  0
   -1.5023   -0.0264   -0.8555 C   0  0  0  0  0  0  0  0  0  0  0  0
   -0.7881    1.0114   -0.1299 C   0  0  0  0  0  0  0  0  0  0  0  0
   -0.4489   -1.0257   -0.5580 C   0  0  0  0  0  0  0  0  0  0  0  0
    3.4800    0.2265    0.6420 H   0  0  0  0  0  0  0  0  0  0  0  0
    2.0578   -0.5792   -0.7938 H   0  0  0  0  0  0  0  0  0  0  0  0
    1.8407    1.2045   -0.7187 H   0  0  0  0  0  0  0  0  0  0  0  0
    0.1663   -1.7899    1.4949 H   0  0  0  0  0  0  0  0  0  0  0  0
   -2.9148    0.8975    0.6720 H   0  0  0  0  0  0  0  0  0  0  0  0
   -1.9646    0.1266   -1.8093 H   0  0  0  0  0  0  0  0  0  0  0  0
   -0.6685    2.0426   -0.3967 H   0  0  0  0  0  0  0  0  0  0  0  0
    0.0506   -1.6435   -1.2716 H   0  0  0  0  0  0  0  0  0  0  0  0
  1  2  1  0
  2  3  1  0
  3  4  1  0
  4  5  1  0
  5  6  1  0
  6  7  1  0
  7  8  1  0
  7  9  1  0
  8  3  1  0
  9  3  1  0
  9  4  1  0
  8  6  1  0
  1 10  1  0
  2 11  1  0
  2 12  1  0
  4 13  1  0
  6 14  1  0
  7 15  1  0
  8 16  1  0
  9 17  1  0
M  END
