
     RDKit          3D

 20 21  0  0  0  0  0  0  0  0999 V2000
    2.7846   -0.6418    0.2783 O   0  0  0  0  0  0  0  0  0  0  0  0
    1.8177    0.3230    0.5458 C   0  0  0  0  0  0  0  0  0  0  0  0
    0.6452    0.2672   -0.3759 C   0  0  0  0  0  0  0  0  0  0  0  0
   -0.3196    1.3447    0.0078 C   0  0  0  0  0  0  0  0  0  0  0  0
   -1.6858    0.7507   -0.1452 C   0  0  0  0  0  0  0  0  0  0  0  0
   -1.5228   -0.6812   -0.5379 C   0  0  0  0  0  0  0  0  0  0  0  0
   -0.9518   -1.5543    0.5897 C   0  0  0  0  0  0  0  0  0  0  0  0
   -0.0589   -1.0256   -0.4387 C   0  0  0  0  0  0  0  0  0  0  0  0
    3.4309   -0.3592   -0.4182 H   0  0  0  0  0  0  0  0  0  0  0  0
    1.5415    0.3515    1.6180 H   0  0  0  0  0  0  0  0  0  0  0  0
    2.3259    1.3144    0.3547 H   0  0  0  0  0  0  0  0  0  0  0  0
    1.0313    0.5087   -1.4089 H   0  0  0  0  0  0  0  0  0  0  0  0
   -0.2251    2.2255   -0.6619 H   0  0  0  0  0  0  0  0  0  0  0  0
   -0.1377    1.7095    1.0314 H   0  0  0  0  0  0  0  0  0  0  0  0
   -2.3177    1.3299   -0.8570 H   0  0  0  0  0  0  0  0  0  0  0  0
   -2.2317    0.7770    0.8393 H   0  0  0  0  0  0  0  0  0  0  0  0
   -2.1560   -1.1437   -1.2965 H   0  0  0  0  0  0  0  0  0  0  0  0
   -0.9842   -1.1603    1.6181 H   0  0  0  0  0  0  0  0  0  0  0  0
   -1.2615   -2.6025    0.5072 H   0  0  0  0  0  0  0  0  0  0  0  0
    0.2759   -1.7336   -1.2501 H   0  0  0  0  0  0  0  0  0  0  0  0
  1  2  1  0
  2  3  1  0
  3  4  1  0
  4  5  1  0
  5  6  1  0
  6  7  1  0
  7  8  1  0
  8  3  1  0
  8  6  1  0
  1  9  1  0
  2 10  1  0
  2 11  1  0
  3 12  1  0
  4 13  1  0
  4 14  1  0
  5 15  1  0
  5 16  1  0
  6 17  1  0
  7 18  1  0
  7 19  1  0
  8 20  1  0
M  END
