
     RDKit          3D

 20 20  0  0  0  0  0  0  0  0999 V2000
   -2.5318    1.1567   -0.2695 O   0  0  0  0  0  0  0  0  0  0  0  0
   -2.3483   -0.2063   -0.4147 C   0  0  0  0  0  0  0  0  0  0  0  0
   -0.9392   -0.6533   -0.1203 C   0  0  0  0  0  0  0  0  0  0  0  0
    0.1312   -0.0469   -0.9863 C   0  0  0  0  0  0  0  0  0  0  0  0
    0.8069    0.4587    0.2697 C   0  0  0  0  0  0  0  0  0  0  0  0
    2.1221   -0.2574    0.5370 C   0  0  0  0  0  0  0  0  0  0  0  0
    2.9959   -0.0604   -0.5285 O   0  0  0  0  0  0  0  0  0  0  0  0
   -0.3245   -0.0781    1.1126 C   0  0  0  0  0  0  0  0  0  0  0  0
   -1.8128    1.6958   -0.6610 H   0  0  0  0  0  0  0  0  0  0  0  0
   -2.6380   -0.5093   -1.4354 H   0  0  0  0  0  0  0  0  0  0  0  0
   -3.0147   -0.7452    0.2887 H   0  0  0  0  0  0  0  0  0  0  0  0
   -0.8873   -1.7533   -0.1058 H   0  0  0  0  0  0  0  0  0  0  0  0
   -0.1732    0.7292   -1.6839 H   0  0  0  0  0  0  0  0  0  0  0  0
    0.7424   -0.8183   -1.5149 H   0  0  0  0  0  0  0  0  0  0  0  0
    0.8932    1.5575    0.3458 H   0  0  0  0  0  0  0  0  0  0  0  0
    1.9374   -1.3340    0.7262 H   0  0  0  0  0  0  0  0  0  0  0  0
    2.5714    0.1568    1.4447 H   0  0  0  0  0  0  0  0  0  0  0  0
    3.4428    0.8047   -0.4853 H   0  0  0  0  0  0  0  0  0  0  0  0
   -0.9577    0.7116    1.5865 H   0  0  0  0  0  0  0  0  0  0  0  0
   -0.0158   -0.8084    1.8944 H   0  0  0  0  0  0  0  0  0  0  0  0
  1  2  1  0
  2  3  1  0
  3  4  1  0
  4  5  1  0
  5  6  1  0
  6  7  1  0
  5  8  1  0
  8  3  1  0
  1  9  1  0
  2 10  1  0
  2 11  1  0
  3 12  1  0
  4 13  1  0
  4 14  1  0
  5 15  1  0
  6 16  1  0
  6 17  1  0
  7 18  1  0
  8 19  1  0
  8 20  1  0
M  END
