
     RDKit          3D

 19 20  0  0  0  0  0  0  0  0999 V2000
    2.5918   -1.1542    0.4251 O   0  0  0  0  0  0  0  0  0  0  0  0
    1.7940   -0.5468   -0.5158 C   0  0  0  0  0  0  0  0  0  0  0  0
    0.7400    0.3426    0.1300 C   0  0  0  0  0  0  0  0  0  0  0  0
    1.2935    1.3467    0.8879 O   0  0  0  0  0  0  0  0  0  0  0  0
   -0.3138   -0.4444    0.9058 C   0  0  0  0  0  0  0  0  0  0  0  0
   -1.2937   -0.1118   -0.1578 C   0  0  0  0  0  0  0  0  0  0  0  0
   -2.6471    0.0284   -0.1314 C   0  0  0  0  0  0  0  0  0  0  0  0
   -1.9732   -1.0881   -0.8413 O   0  0  0  0  0  0  0  0  0  0  0  0
   -0.3210    0.7953   -0.8452 C   0  0  0  0  0  0  0  0  0  0  0  0
    3.3747   -0.5790    0.6091 H   0  0  0  0  0  0  0  0  0  0  0  0
    2.4311    0.1206   -1.1325 H   0  0  0  0  0  0  0  0  0  0  0  0
    1.2622   -1.3112   -1.1095 H   0  0  0  0  0  0  0  0  0  0  0  0
    0.7328    1.4920    1.6983 H   0  0  0  0  0  0  0  0  0  0  0  0
   -0.4889   -0.0196    1.9060 H   0  0  0  0  0  0  0  0  0  0  0  0
   -0.0050   -1.5058    0.9733 H   0  0  0  0  0  0  0  0  0  0  0  0
   -3.2103    0.6912   -0.8211 H   0  0  0  0  0  0  0  0  0  0  0  0
   -3.3141   -0.3687    0.6840 H   0  0  0  0  0  0  0  0  0  0  0  0
   -0.5444    1.8783   -0.7924 H   0  0  0  0  0  0  0  0  0  0  0  0
   -0.1086    0.4345   -1.8724 H   0  0  0  0  0  0  0  0  0  0  0  0
  1  2  1  0
  2  3  1  0
  3  4  1  0
  3  5  1  0
  5  6  1  0
  6  7  1  0
  7  8  1  0
  6  9  1  0
  9  3  1  0
  8  6  1  0
  1 10  1  0
  2 11  1  0
  2 12  1  0
  4 13  1  0
  5 14  1  0
  5 15  1  0
  7 16  1  0
  7 17  1  0
  9 18  1  0
  9 19  1  0
M  END
