
     RDKit          3D

 21 22  0  0  0  0  0  0  0  0999 V2000
    3.0515    0.3205    0.4328 O   0  0  0  0  0  0  0  0  0  0  0  0
    2.2291   -0.7701    0.1207 C   0  0  0  0  0  0  0  0  0  0  0  0
    0.7898   -0.2362    0.1939 C   0  0  0  0  0  0  0  0  0  0  0  0
    0.4250    0.6112   -0.9792 C   0  0  0  0  0  0  0  0  0  0  0  0
   -0.9950    0.9254   -1.1555 C   0  0  0  0  0  0  0  0  0  0  0  0
   -1.9630    0.4960   -0.1245 C   0  0  0  0  0  0  0  0  0  0  0  0
   -1.6001   -0.6493    0.7328 C   0  0  0  0  0  0  0  0  0  0  0  0
   -0.1516   -0.9378    0.8745 C   0  0  0  0  0  0  0  0  0  0  0  0
    0.5132    0.2514    1.4890 O   0  0  0  0  0  0  0  0  0  0  0  0
    2.6217    0.8006    1.1979 H   0  0  0  0  0  0  0  0  0  0  0  0
    2.3871   -1.0550   -0.9297 H   0  0  0  0  0  0  0  0  0  0  0  0
    2.3650   -1.6133    0.8233 H   0  0  0  0  0  0  0  0  0  0  0  0
    1.0717    1.5375   -0.8949 H   0  0  0  0  0  0  0  0  0  0  0  0
    0.8626    0.0906   -1.8853 H   0  0  0  0  0  0  0  0  0  0  0  0
   -1.3226    0.5502   -2.1726 H   0  0  0  0  0  0  0  0  0  0  0  0
   -1.0899    2.0396   -1.2711 H   0  0  0  0  0  0  0  0  0  0  0  0
   -2.2245    1.3633    0.5561 H   0  0  0  0  0  0  0  0  0  0  0  0
   -2.9327    0.2677   -0.6219 H   0  0  0  0  0  0  0  0  0  0  0  0
   -2.0042   -0.5215    1.7812 H   0  0  0  0  0  0  0  0  0  0  0  0
   -2.0986   -1.5992    0.3809 H   0  0  0  0  0  0  0  0  0  0  0  0
    0.0657   -1.8714    1.4514 H   0  0  0  0  0  0  0  0  0  0  0  0
  1  2  1  0
  2  3  1  0
  3  4  1  0
  4  5  1  0
  5  6  1  0
  6  7  1  0
  7  8  1  0
  8  9  1  0
  8  3  1  0
  9  3  1  0
  1 10  1  0
  2 11  1  0
  2 12  1  0
  4 13  1  0
  4 14  1  0
  5 15  1  0
  5 16  1  0
  6 17  1  0
  6 18  1  0
  7 19  1  0
  7 20  1  0
  8 21  1  0
M  END
