
     RDKit          3D

 19 20  0  0  0  0  0  0  0  0999 V2000
    2.4978    0.8951    0.7124 O   0  0  0  0  0  0  0  0  0  0  0  0
    2.1220   -0.3443    0.1718 C   0  0  0  0  0  0  0  0  0  0  0  0
    0.6966   -0.1878   -0.2972 C   0  0  0  0  0  0  0  0  0  0  0  0
    0.1945   -1.3620   -0.8627 O   0  0  0  0  0  0  0  0  0  0  0  0
   -1.1591   -0.9895   -1.0425 C   0  0  0  0  0  0  0  0  0  0  0  0
   -1.5862   -0.4699    0.2836 C   0  0  0  0  0  0  0  0  0  0  0  0
   -1.3503    0.9193    0.7143 C   0  0  0  0  0  0  0  0  0  0  0  0
   -1.1881    1.9572   -0.1820 O   0  0  0  0  0  0  0  0  0  0  0  0
   -0.2252   -0.0154    0.8936 C   0  0  0  0  0  0  0  0  0  0  0  0
    3.0587    1.3940    0.0701 H   0  0  0  0  0  0  0  0  0  0  0  0
    2.7788   -0.6537   -0.6540 H   0  0  0  0  0  0  0  0  0  0  0  0
    2.1536   -1.0620    1.0215 H   0  0  0  0  0  0  0  0  0  0  0  0
    0.5759    0.6312   -1.0039 H   0  0  0  0  0  0  0  0  0  0  0  0
   -1.7231   -1.8788   -1.3411 H   0  0  0  0  0  0  0  0  0  0  0  0
   -1.1451   -0.2080   -1.8435 H   0  0  0  0  0  0  0  0  0  0  0  0
   -2.2076   -1.1314    0.9006 H   0  0  0  0  0  0  0  0  0  0  0  0
   -1.8748    1.2152    1.6567 H   0  0  0  0  0  0  0  0  0  0  0  0
   -1.6302    1.8018   -1.0408 H   0  0  0  0  0  0  0  0  0  0  0  0
    0.0117   -0.5111    1.8432 H   0  0  0  0  0  0  0  0  0  0  0  0
  1  2  1  0
  2  3  1  0
  3  4  1  0
  4  5  1  0
  5  6  1  0
  6  7  1  0
  7  8  1  0
  7  9  1  0
  9  3  1  0
  9  6  1  0
  1 10  1  0
  2 11  1  0
  2 12  1  0
  3 13  1  0
  5 14  1  0
  5 15  1  0
  6 16  1  0
  7 17  1  0
  8 18  1  0
  9 19  1  0
M  END
