
     RDKit          3D

 18 19  0  0  0  0  0  0  0  0999 V2000
    2.5214    0.6589    0.3009 O   0  0  0  0  0  0  0  0  0  0  0  0
    1.9823   -0.5803    0.0544 C   0  0  0  0  0  0  0  0  0  0  0  0
    0.4892   -0.6047    0.2547 C   0  0  0  0  0  0  0  0  0  0  0  0
    0.0883   -0.2777    1.5233 O   0  0  0  0  0  0  0  0  0  0  0  0
   -1.2506    0.0844    1.3838 C   0  0  0  0  0  0  0  0  0  0  0  0
   -1.3549    0.8355    0.0745 C   0  0  0  0  0  0  0  0  0  0  0  0
   -1.4867    0.0724   -1.1931 C   0  0  0  0  0  0  0  0  0  0  0  0
   -0.1438    0.4156   -0.6603 C   0  0  0  0  0  0  0  0  0  0  0  0
    2.7548    0.7734    1.2573 H   0  0  0  0  0  0  0  0  0  0  0  0
    2.4106   -1.3538    0.7245 H   0  0  0  0  0  0  0  0  0  0  0  0
    2.1686   -0.9411   -0.9815 H   0  0  0  0  0  0  0  0  0  0  0  0
    0.0917   -1.5948   -0.0108 H   0  0  0  0  0  0  0  0  0  0  0  0
   -1.5848    0.6795    2.2497 H   0  0  0  0  0  0  0  0  0  0  0  0
   -1.9215   -0.7985    1.2951 H   0  0  0  0  0  0  0  0  0  0  0  0
   -1.6140    1.8961    0.1038 H   0  0  0  0  0  0  0  0  0  0  0  0
   -1.9336    0.6365   -2.0352 H   0  0  0  0  0  0  0  0  0  0  0  0
   -1.7352   -1.0048   -1.2028 H   0  0  0  0  0  0  0  0  0  0  0  0
    0.5182    1.1036   -1.1804 H   0  0  0  0  0  0  0  0  0  0  0  0
  1  2  1  0
  2  3  1  0
  3  4  1  0
  4  5  1  0
  5  6  1  0
  6  7  1  0
  7  8  1  0
  8  3  1  0
  8  6  1  0
  1  9  1  0
  2 10  1  0
  2 11  1  0
  3 12  1  0
  5 13  1  0
  5 14  1  0
  6 15  1  0
  7 16  1  0
  7 17  1  0
  8 18  1  0
M  END
