
     RDKit          3D

 21 22  0  0  0  0  0  0  0  0999 V2000
    3.0351    0.4019   -0.4481 O   0  0  0  0  0  0  0  0  0  0  0  0
    2.2754   -0.5531    0.2250 C   0  0  0  0  0  0  0  0  0  0  0  0
    0.8413   -0.3251   -0.1378 C   0  0  0  0  0  0  0  0  0  0  0  0
    0.4295    1.1035   -0.0242 C   0  0  0  0  0  0  0  0  0  0  0  0
   -1.0741    1.2411   -0.3260 C   0  0  0  0  0  0  0  0  0  0  0  0
   -1.7073    0.2522    0.5554 C   0  0  0  0  0  0  0  0  0  0  0  0
   -2.5406   -0.8666    0.3567 C   0  0  0  0  0  0  0  0  0  0  0  0
   -1.2262   -1.0942   -0.0983 C   0  0  0  0  0  0  0  0  0  0  0  0
   -0.0209   -1.2408    0.4909 O   0  0  0  0  0  0  0  0  0  0  0  0
    3.9913    0.1954   -0.4745 H   0  0  0  0  0  0  0  0  0  0  0  0
    2.4167   -0.4985    1.3228 H   0  0  0  0  0  0  0  0  0  0  0  0
    2.5752   -1.5396   -0.1935 H   0  0  0  0  0  0  0  0  0  0  0  0
    0.7583   -0.5827   -1.2374 H   0  0  0  0  0  0  0  0  0  0  0  0
    1.0258    1.6937   -0.7133 H   0  0  0  0  0  0  0  0  0  0  0  0
    0.5602    1.4097    1.0522 H   0  0  0  0  0  0  0  0  0  0  0  0
   -1.1675    0.9903   -1.4164 H   0  0  0  0  0  0  0  0  0  0  0  0
   -1.3928    2.2808   -0.1777 H   0  0  0  0  0  0  0  0  0  0  0  0
   -1.3752    0.4274    1.6250 H   0  0  0  0  0  0  0  0  0  0  0  0
   -2.9299   -1.4290    1.2405 H   0  0  0  0  0  0  0  0  0  0  0  0
   -3.3762   -0.7808   -0.3957 H   0  0  0  0  0  0  0  0  0  0  0  0
   -1.0984   -1.0856   -1.2254 H   0  0  0  0  0  0  0  0  0  0  0  0
  1  2  1  0
  2  3  1  0
  3  4  1  0
  4  5  1  0
  5  6  1  0
  6  7  1  0
  7  8  1  0
  8  9  1  0
  9  3  1  0
  8  6  1  0
  1 10  1  0
  2 11  1  0
  2 12  1  0
  3 13  1  0
  4 14  1  0
  4 15  1  0
  5 16  1  0
  5 17  1  0
  6 18  1  0
  7 19  1  0
  7 20  1  0
  8 21  1  0
M  END
