
     RDKit          3D

 21 22  0  0  0  0  0  0  0  0999 V2000
   -0.5137    2.0626   -0.6923 O   0  0  0  0  0  0  0  0  0  0  0  0
    0.2905    1.3814    0.2167 C   0  0  0  0  0  0  0  0  0  0  0  0
    0.0806   -0.0927    0.1943 C   0  0  0  0  0  0  0  0  0  0  0  0
   -1.2958   -0.5588    0.5127 C   0  0  0  0  0  0  0  0  0  0  0  0
   -2.4125   -0.1573   -0.2776 C   0  0  0  0  0  0  0  0  0  0  0  0
   -2.1182    0.5996    0.9446 O   0  0  0  0  0  0  0  0  0  0  0  0
    0.6320   -0.7900   -1.0580 C   0  0  0  0  0  0  0  0  0  0  0  0
    1.9690   -0.8306   -0.3483 C   0  0  0  0  0  0  0  0  0  0  0  0
    1.1833   -0.7897    0.9592 C   0  0  0  0  0  0  0  0  0  0  0  0
   -0.5121    3.0128   -0.4102 H   0  0  0  0  0  0  0  0  0  0  0  0
    0.0663    1.7382    1.2479 H   0  0  0  0  0  0  0  0  0  0  0  0
    1.3486    1.6371    0.0299 H   0  0  0  0  0  0  0  0  0  0  0  0
   -1.3982   -1.3949    1.2385 H   0  0  0  0  0  0  0  0  0  0  0  0
   -2.2853    0.5187   -1.1465 H   0  0  0  0  0  0  0  0  0  0  0  0
   -3.3953   -0.6557   -0.2121 H   0  0  0  0  0  0  0  0  0  0  0  0
    0.1900   -1.8034   -1.1483 H   0  0  0  0  0  0  0  0  0  0  0  0
    0.5850   -0.1595   -1.9585 H   0  0  0  0  0  0  0  0  0  0  0  0
    2.5339    0.0873   -0.5730 H   0  0  0  0  0  0  0  0  0  0  0  0
    2.5472   -1.7611   -0.4931 H   0  0  0  0  0  0  0  0  0  0  0  0
    0.8537   -1.8227    1.2089 H   0  0  0  0  0  0  0  0  0  0  0  0
    1.6511   -0.2215    1.7653 H   0  0  0  0  0  0  0  0  0  0  0  0
  1  2  1  0
  2  3  1  0
  3  4  1  0
  4  5  1  0
  5  6  1  0
  3  7  1  0
  7  8  1  0
  8  9  1  0
  9  3  1  0
  6  4  1  0
  1 10  1  0
  2 11  1  0
  2 12  1  0
  4 13  1  0
  5 14  1  0
  5 15  1  0
  7 16  1  0
  7 17  1  0
  8 18  1  0
  8 19  1  0
  9 20  1  0
  9 21  1  0
M  END
