
     RDKit          3D

 16 17  0  0  0  0  0  0  0  0999 V2000
    1.9711    0.5991    0.8694 O   0  0  0  0  0  0  0  0  0  0  0  0
    1.4218    0.3632   -0.3853 C   0  0  0  0  0  0  0  0  0  0  0  0
    0.1386   -0.1469   -0.3174 C   0  0  0  0  0  0  0  0  0  0  0  0
   -0.3262   -1.3849    0.3316 C   0  0  0  0  0  0  0  0  0  0  0  0
   -1.5154   -0.7550   -0.3384 C   0  0  0  0  0  0  0  0  0  0  0  0
   -0.6690   -0.4840   -1.3987 O   0  0  0  0  0  0  0  0  0  0  0  0
   -1.0626    0.5500    0.2461 C   0  0  0  0  0  0  0  0  0  0  0  0
   -1.4062    1.6761   -0.4689 O   0  0  0  0  0  0  0  0  0  0  0  0
    2.9202    0.2679    0.9301 H   0  0  0  0  0  0  0  0  0  0  0  0
    1.4482    1.3544   -0.9282 H   0  0  0  0  0  0  0  0  0  0  0  0
    2.1271   -0.2777   -0.9332 H   0  0  0  0  0  0  0  0  0  0  0  0
   -0.3966   -1.3985    1.4371 H   0  0  0  0  0  0  0  0  0  0  0  0
   -0.0085   -2.3530   -0.0551 H   0  0  0  0  0  0  0  0  0  0  0  0
   -2.4524   -1.1165   -0.3730 H   0  0  0  0  0  0  0  0  0  0  0  0
   -1.1100    0.6404    1.3490 H   0  0  0  0  0  0  0  0  0  0  0  0
   -1.0800    2.4652    0.0350 H   0  0  0  0  0  0  0  0  0  0  0  0
  1  2  1  0
  2  3  1  0
  3  4  1  0
  4  5  1  0
  5  6  1  0
  5  7  1  0
  7  8  1  0
  6  3  1  0
  7  3  1  0
  1  9  1  0
  2 10  1  0
  2 11  1  0
  4 12  1  0
  4 13  1  0
  5 14  1  0
  7 15  1  0
  8 16  1  0
M  END
