
     RDKit          3D

 16 19  0  0  0  0  0  0  0  0999 V2000
    2.3610    0.3145   -0.0204 O   0  0  0  0  0  0  0  0  0  0  0  0
    1.4466   -0.5980   -0.6040 C   0  0  0  0  0  0  0  0  0  0  0  0
    0.1351   -0.2550   -0.4205 C   0  0  0  0  0  0  0  0  0  0  0  0
   -0.7517    0.9572   -0.7939 C   0  0  0  0  0  0  0  0  0  0  0  0
   -1.4646    0.0277   -0.5792 C   0  0  0  0  0  0  0  0  0  0  0  0
   -1.8376    0.5410    0.3953 C   0  0  0  0  0  0  0  0  0  0  0  0
   -0.8614   -0.7011    0.7767 C   0  0  0  0  0  0  0  0  0  0  0  0
   -0.2924    0.2897    0.5974 C   0  0  0  0  0  0  0  0  0  0  0  0
    3.2439   -0.0892   -0.0481 H   0  0  0  0  0  0  0  0  0  0  0  0
    1.6692   -1.5580   -0.0455 H   0  0  0  0  0  0  0  0  0  0  0  0
    1.7238   -0.8289   -1.6458 H   0  0  0  0  0  0  0  0  0  0  0  0
   -0.3396    1.9590   -0.6188 H   0  0  0  0  0  0  0  0  0  0  0  0
   -1.5686   -0.9688   -1.0004 H   0  0  0  0  0  0  0  0  0  0  0  0
   -1.9384    1.3104    1.1540 H   0  0  0  0  0  0  0  0  0  0  0  0
   -1.3458   -1.6746    0.5822 H   0  0  0  0  0  0  0  0  0  0  0  0
   -0.1793    1.2742    1.0194 H   0  0  0  0  0  0  0  0  0  0  0  0
  1  2  1  0
  2  3  1  0
  3  4  1  0
  4  5  1  0
  5  6  1  0
  6  7  1  0
  7  8  1  0
  7  3  1  0
  8  3  1  0
  6  4  1  0
  8  5  1  0
  1  9  1  0
  2 10  1  0
  2 11  1  0
  4 12  1  0
  5 13  1  0
  6 14  1  0
  7 15  1  0
  8 16  1  0
M  END
