
     RDKit          3D

 21 22  0  0  0  0  0  0  0  0999 V2000
    2.7008   -0.3630    0.6345 O   0  0  0  0  0  0  0  0  0  0  0  0
    2.0066    0.5348   -0.2110 C   0  0  0  0  0  0  0  0  0  0  0  0
    0.5733    0.1678   -0.1603 C   0  0  0  0  0  0  0  0  0  0  0  0
    0.2270   -1.1865   -0.5947 C   0  0  0  0  0  0  0  0  0  0  0  0
   -1.0614   -1.5435   -0.4943 C   0  0  0  0  0  0  0  0  0  0  0  0
   -2.0008   -0.5887    0.1633 C   0  0  0  0  0  0  0  0  0  0  0  0
   -1.3540    0.7314    0.3800 C   0  0  0  0  0  0  0  0  0  0  0  0
   -0.4139    1.1304   -0.7616 C   0  0  0  0  0  0  0  0  0  0  0  0
   -0.0732    0.4991    1.1924 C   0  0  0  0  0  0  0  0  0  0  0  0
    3.1204   -1.0940    0.1193 H   0  0  0  0  0  0  0  0  0  0  0  0
    2.4167    0.4417   -1.2234 H   0  0  0  0  0  0  0  0  0  0  0  0
    2.2114    1.5306    0.1724 H   0  0  0  0  0  0  0  0  0  0  0  0
    0.9780   -1.8412   -0.9695 H   0  0  0  0  0  0  0  0  0  0  0  0
   -1.3814   -2.4964   -0.8851 H   0  0  0  0  0  0  0  0  0  0  0  0
   -2.9581   -0.5389   -0.3710 H   0  0  0  0  0  0  0  0  0  0  0  0
   -2.2211   -1.0256    1.1800 H   0  0  0  0  0  0  0  0  0  0  0  0
   -1.9881    1.5252    0.7560 H   0  0  0  0  0  0  0  0  0  0  0  0
   -0.1529    2.2015   -0.6518 H   0  0  0  0  0  0  0  0  0  0  0  0
   -0.8620    0.8484   -1.7206 H   0  0  0  0  0  0  0  0  0  0  0  0
   -0.1595   -0.3508    1.8701 H   0  0  0  0  0  0  0  0  0  0  0  0
    0.3922    1.4178    1.5752 H   0  0  0  0  0  0  0  0  0  0  0  0
  1  2  1  0
  2  3  1  0
  3  4  1  0
  4  5  2  0
  5  6  1  0
  6  7  1  0
  7  8  1  0
  7  9  1  0
  8  3  1  0
  9  3  1  0
  1 10  1  0
  2 11  1  0
  2 12  1  0
  4 13  1  0
  5 14  1  0
  6 15  1  0
  6 16  1  0
  7 17  1  0
  8 18  1  0
  8 19  1  0
  9 20  1  0
  9 21  1  0
M  END
