
     RDKit          3D

 21 22  0  0  0  0  0  0  0  0999 V2000
    2.3371   -0.2845   -1.4651 O   0  0  0  0  0  0  0  0  0  0  0  0
    2.0127    0.1092   -0.1548 C   0  0  0  0  0  0  0  0  0  0  0  0
    0.5281    0.0618    0.0973 C   0  0  0  0  0  0  0  0  0  0  0  0
   -0.3207    0.9280   -0.7709 C   0  0  0  0  0  0  0  0  0  0  0  0
   -1.6174    1.2052   -0.0398 C   0  0  0  0  0  0  0  0  0  0  0  0
   -2.2254    0.0367    0.3329 O   0  0  0  0  0  0  0  0  0  0  0  0
   -1.6156   -1.1074   -0.1335 C   0  0  0  0  0  0  0  0  0  0  0  0
   -0.1763   -1.2097    0.3658 C   0  0  0  0  0  0  0  0  0  0  0  0
    0.1340   -0.2500    1.5092 C   0  0  0  0  0  0  0  0  0  0  0  0
    3.3110   -0.4709   -1.4408 H   0  0  0  0  0  0  0  0  0  0  0  0
    2.3282    1.1791    0.0172 H   0  0  0  0  0  0  0  0  0  0  0  0
    2.5736   -0.5641    0.5258 H   0  0  0  0  0  0  0  0  0  0  0  0
    0.2019    1.8722   -0.9869 H   0  0  0  0  0  0  0  0  0  0  0  0
   -0.5465    0.4457   -1.7424 H   0  0  0  0  0  0  0  0  0  0  0  0
   -1.3259    1.8460    0.8419 H   0  0  0  0  0  0  0  0  0  0  0  0
   -2.3028    1.8545   -0.6429 H   0  0  0  0  0  0  0  0  0  0  0  0
   -1.6755   -1.2312   -1.2268 H   0  0  0  0  0  0  0  0  0  0  0  0
   -2.1568   -1.9743    0.3261 H   0  0  0  0  0  0  0  0  0  0  0  0
    0.3246   -2.1749    0.3784 H   0  0  0  0  0  0  0  0  0  0  0  0
    0.9246   -0.5438    2.2191 H   0  0  0  0  0  0  0  0  0  0  0  0
   -0.7129    0.2725    1.9902 H   0  0  0  0  0  0  0  0  0  0  0  0
  1  2  1  0
  2  3  1  0
  3  4  1  0
  4  5  1  0
  5  6  1  0
  6  7  1  0
  7  8  1  0
  8  9  1  0
  8  3  1  0
  9  3  1  0
  1 10  1  0
  2 11  1  0
  2 12  1  0
  4 13  1  0
  4 14  1  0
  5 15  1  0
  5 16  1  0
  7 17  1  0
  7 18  1  0
  8 19  1  0
  9 20  1  0
  9 21  1  0
M  END
