
     RDKit          3D

 21 22  0  0  0  0  0  0  0  0999 V2000
    2.5144    0.5664    0.8829 O   0  0  0  0  0  0  0  0  0  0  0  0
    1.6280   -0.4475    0.6461 C   0  0  0  0  0  0  0  0  0  0  0  0
    0.9574   -0.4111   -0.6766 C   0  0  0  0  0  0  0  0  0  0  0  0
    0.1352    0.7467   -1.0476 C   0  0  0  0  0  0  0  0  0  0  0  0
   -0.6550    1.3721    0.0422 C   0  0  0  0  0  0  0  0  0  0  0  0
   -1.5299    0.3913    0.7739 C   0  0  0  0  0  0  0  0  0  0  0  0
   -1.2962   -0.9979    0.2822 C   0  0  0  0  0  0  0  0  0  0  0  0
   -0.3357   -1.1125   -0.8463 C   0  0  0  0  0  0  0  0  0  0  0  0
   -0.6872   -0.1264   -1.7972 O   0  0  0  0  0  0  0  0  0  0  0  0
    2.7942    1.0652    0.0889 H   0  0  0  0  0  0  0  0  0  0  0  0
    0.8271   -0.4758    1.4331 H   0  0  0  0  0  0  0  0  0  0  0  0
    2.1813   -1.4035    0.7645 H   0  0  0  0  0  0  0  0  0  0  0  0
    1.6618   -0.6953   -1.4849 H   0  0  0  0  0  0  0  0  0  0  0  0
    0.5923    1.5189   -1.7059 H   0  0  0  0  0  0  0  0  0  0  0  0
    0.0459    1.9126    0.7304 H   0  0  0  0  0  0  0  0  0  0  0  0
   -1.2783    2.1872   -0.4142 H   0  0  0  0  0  0  0  0  0  0  0  0
   -2.6012    0.7119    0.6618 H   0  0  0  0  0  0  0  0  0  0  0  0
   -1.3508    0.4256    1.8846 H   0  0  0  0  0  0  0  0  0  0  0  0
   -1.0290   -1.7102    1.1120 H   0  0  0  0  0  0  0  0  0  0  0  0
   -2.2880   -1.3892   -0.0933 H   0  0  0  0  0  0  0  0  0  0  0  0
   -0.2864   -2.1286   -1.2367 H   0  0  0  0  0  0  0  0  0  0  0  0
  1  2  1  0
  2  3  1  0
  3  4  1  0
  4  5  1  0
  5  6  1  0
  6  7  1  0
  7  8  1  0
  8  9  1  0
  8  3  1  0
  9  4  1  0
  1 10  1  0
  2 11  1  0
  2 12  1  0
  3 13  1  0
  4 14  1  0
  5 15  1  0
  5 16  1  0
  6 17  1  0
  6 18  1  0
  7 19  1  0
  7 20  1  0
  8 21  1  0
M  END
