
     RDKit          3D

 21 22  0  0  0  0  0  0  0  0999 V2000
    2.4147   -1.1523    0.2462 O   0  0  0  0  0  0  0  0  0  0  0  0
    1.4135   -0.9191   -0.6866 C   0  0  0  0  0  0  0  0  0  0  0  0
    0.2961   -0.1037   -0.0728 C   0  0  0  0  0  0  0  0  0  0  0  0
    0.7789    1.2277    0.4185 C   0  0  0  0  0  0  0  0  0  0  0  0
    1.3115    1.9405   -0.6695 O   0  0  0  0  0  0  0  0  0  0  0  0
   -0.4858   -0.8270    1.0096 C   0  0  0  0  0  0  0  0  0  0  0  0
   -1.7805   -0.5815    0.3297 C   0  0  0  0  0  0  0  0  0  0  0  0
   -2.0945    0.6650   -0.3851 C   0  0  0  0  0  0  0  0  0  0  0  0
   -0.9428   -0.1081   -0.9045 C   0  0  0  0  0  0  0  0  0  0  0  0
    2.0583   -1.2897    1.1572 H   0  0  0  0  0  0  0  0  0  0  0  0
    1.0399   -1.8961   -1.0515 H   0  0  0  0  0  0  0  0  0  0  0  0
    1.7991   -0.3455   -1.5515 H   0  0  0  0  0  0  0  0  0  0  0  0
    1.6071    1.0135    1.1551 H   0  0  0  0  0  0  0  0  0  0  0  0
   -0.0463    1.7505    0.9054 H   0  0  0  0  0  0  0  0  0  0  0  0
    1.5947    2.8464   -0.3774 H   0  0  0  0  0  0  0  0  0  0  0  0
   -0.3380   -0.4001    2.0125 H   0  0  0  0  0  0  0  0  0  0  0  0
   -0.2162   -1.9097    0.9790 H   0  0  0  0  0  0  0  0  0  0  0  0
   -2.4417   -1.4480    0.1599 H   0  0  0  0  0  0  0  0  0  0  0  0
   -1.9375    1.6105    0.1534 H   0  0  0  0  0  0  0  0  0  0  0  0
   -2.9928    0.6671   -1.0254 H   0  0  0  0  0  0  0  0  0  0  0  0
   -1.0377   -0.7405   -1.8020 H   0  0  0  0  0  0  0  0  0  0  0  0
  1  2  1  0
  2  3  1  0
  3  4  1  0
  4  5  1  0
  3  6  1  0
  6  7  1  0
  7  8  1  0
  8  9  1  0
  9  3  1  0
  9  7  1  0
  1 10  1  0
  2 11  1  0
  2 12  1  0
  4 13  1  0
  4 14  1  0
  5 15  1  0
  6 16  1  0
  6 17  1  0
  7 18  1  0
  8 19  1  0
  8 20  1  0
  9 21  1  0
M  END
