
     RDKit          3D

 19 20  0  0  0  0  0  0  0  0999 V2000
    2.4718    0.6331    0.8995 O   0  0  0  0  0  0  0  0  0  0  0  0
    1.7060   -0.5321    0.8200 C   0  0  0  0  0  0  0  0  0  0  0  0
    0.3390   -0.1877    0.2882 C   0  0  0  0  0  0  0  0  0  0  0  0
   -0.5253   -1.3323   -0.1109 C   0  0  0  0  0  0  0  0  0  0  0  0
   -1.9343   -0.8177   -0.2862 C   0  0  0  0  0  0  0  0  0  0  0  0
   -2.0501    0.5008   -0.3177 C   0  0  0  0  0  0  0  0  0  0  0  0
   -0.8613    1.3274    0.0085 C   0  0  0  0  0  0  0  0  0  0  0  0
    0.3613    0.8871   -0.7581 C   0  0  0  0  0  0  0  0  0  0  0  0
   -0.2787    0.7216    1.1457 O   0  0  0  0  0  0  0  0  0  0  0  0
    2.9727    0.7922    0.0548 H   0  0  0  0  0  0  0  0  0  0  0  0
    2.2512   -1.2532    0.1787 H   0  0  0  0  0  0  0  0  0  0  0  0
    1.6372   -0.9247    1.8733 H   0  0  0  0  0  0  0  0  0  0  0  0
   -0.2121   -1.6664   -1.1257 H   0  0  0  0  0  0  0  0  0  0  0  0
   -0.4706   -2.1738    0.5749 H   0  0  0  0  0  0  0  0  0  0  0  0
   -2.7730   -1.5051   -0.3773 H   0  0  0  0  0  0  0  0  0  0  0  0
   -2.9850    0.9706   -0.5739 H   0  0  0  0  0  0  0  0  0  0  0  0
   -1.0211    2.4020    0.0991 H   0  0  0  0  0  0  0  0  0  0  0  0
    0.1871    0.5593   -1.7969 H   0  0  0  0  0  0  0  0  0  0  0  0
    1.1855    1.5988   -0.5961 H   0  0  0  0  0  0  0  0  0  0  0  0
  1  2  1  0
  2  3  1  0
  3  4  1  0
  4  5  1  0
  5  6  2  0
  6  7  1  0
  7  8  1  0
  7  9  1  0
  8  3  1  0
  9  3  1  0
  1 10  1  0
  2 11  1  0
  2 12  1  0
  4 13  1  0
  4 14  1  0
  5 15  1  0
  6 16  1  0
  7 17  1  0
  8 18  1  0
  8 19  1  0
M  END
