
     RDKit          3D

 21 22  0  0  0  0  0  0  0  0999 V2000
    2.3837   -1.9902   -0.7000 O   0  0  0  0  0  0  0  0  0  0  0  0
    2.2581   -0.7138   -0.1621 C   0  0  0  0  0  0  0  0  0  0  0  0
    1.0074   -0.0417   -0.6928 C   0  0  0  0  0  0  0  0  0  0  0  0
    0.7143    1.3756   -0.2010 C   0  0  0  0  0  0  0  0  0  0  0  0
    1.6826    1.9017    0.6231 O   0  0  0  0  0  0  0  0  0  0  0  0
   -0.1302    0.2311    0.2225 C   0  0  0  0  0  0  0  0  0  0  0  0
   -1.5013    0.0820   -0.3864 C   0  0  0  0  0  0  0  0  0  0  0  0
   -2.7132    0.3456    0.4946 C   0  0  0  0  0  0  0  0  0  0  0  0
   -2.3131   -1.0502    0.1743 C   0  0  0  0  0  0  0  0  0  0  0  0
    3.2989   -2.3398   -0.6385 H   0  0  0  0  0  0  0  0  0  0  0  0
    3.1423   -0.1053   -0.4878 H   0  0  0  0  0  0  0  0  0  0  0  0
    2.2460   -0.8096    0.9367 H   0  0  0  0  0  0  0  0  0  0  0  0
    0.8207   -0.1997   -1.7758 H   0  0  0  0  0  0  0  0  0  0  0  0
    0.3087    2.1069   -0.9491 H   0  0  0  0  0  0  0  0  0  0  0  0
    1.4088    2.7140    1.0989 H   0  0  0  0  0  0  0  0  0  0  0  0
   -0.0649   -0.0782    1.2767 H   0  0  0  0  0  0  0  0  0  0  0  0
   -1.6269    0.3076   -1.4766 H   0  0  0  0  0  0  0  0  0  0  0  0
   -3.5740    0.8253   -0.0192 H   0  0  0  0  0  0  0  0  0  0  0  0
   -2.4416    0.7192    1.5077 H   0  0  0  0  0  0  0  0  0  0  0  0
   -1.9294   -1.6795    0.9825 H   0  0  0  0  0  0  0  0  0  0  0  0
   -2.9768   -1.6009   -0.5462 H   0  0  0  0  0  0  0  0  0  0  0  0
  1  2  1  0
  2  3  1  0
  3  4  1  0
  4  5  1  0
  4  6  1  0
  6  7  1  0
  7  8  1  0
  8  9  1  0
  6  3  1  0
  9  7  1  0
  1 10  1  0
  2 11  1  0
  2 12  1  0
  3 13  1  0
  4 14  1  0
  5 15  1  0
  6 16  1  0
  7 17  1  0
  8 18  1  0
  8 19  1  0
  9 20  1  0
  9 21  1  0
M  END
