
     RDKit          3D

 21 22  0  0  0  0  0  0  0  0999 V2000
    3.4208    0.0426   -0.1073 O   0  0  0  0  0  0  0  0  0  0  0  0
    2.2802    0.7493    0.1861 C   0  0  0  0  0  0  0  0  0  0  0  0
    1.0707   -0.1521    0.4173 C   0  0  0  0  0  0  0  0  0  0  0  0
    0.7343   -0.9689   -0.7862 C   0  0  0  0  0  0  0  0  0  0  0  0
   -0.7781   -0.9556   -0.7818 C   0  0  0  0  0  0  0  0  0  0  0  0
   -1.1196    0.1854    0.1106 C   0  0  0  0  0  0  0  0  0  0  0  0
   -2.3454    0.1481    0.9747 C   0  0  0  0  0  0  0  0  0  0  0  0
   -2.2424    1.0711   -0.2638 C   0  0  0  0  0  0  0  0  0  0  0  0
    0.0089    0.6677    0.6981 O   0  0  0  0  0  0  0  0  0  0  0  0
    3.8447   -0.2202    0.7537 H   0  0  0  0  0  0  0  0  0  0  0  0
    2.4043    1.3271    1.1316 H   0  0  0  0  0  0  0  0  0  0  0  0
    2.0120    1.4622   -0.6163 H   0  0  0  0  0  0  0  0  0  0  0  0
    1.2358   -0.8135    1.3008 H   0  0  0  0  0  0  0  0  0  0  0  0
    1.0442   -2.0381   -0.6944 H   0  0  0  0  0  0  0  0  0  0  0  0
    1.1422   -0.6006   -1.7280 H   0  0  0  0  0  0  0  0  0  0  0  0
   -1.2052   -1.9122   -0.3969 H   0  0  0  0  0  0  0  0  0  0  0  0
   -1.1818   -0.8097   -1.8259 H   0  0  0  0  0  0  0  0  0  0  0  0
   -2.9560   -0.7667    0.8444 H   0  0  0  0  0  0  0  0  0  0  0  0
   -2.3353    0.6527    1.9612 H   0  0  0  0  0  0  0  0  0  0  0  0
   -2.9183    0.7938   -1.0925 H   0  0  0  0  0  0  0  0  0  0  0  0
   -2.1162    2.1378   -0.0852 H   0  0  0  0  0  0  0  0  0  0  0  0
  1  2  1  0
  2  3  1  0
  3  4  1  0
  4  5  1  0
  5  6  1  0
  6  7  1  0
  7  8  1  0
  6  9  1  0
  9  3  1  0
  8  6  1  0
  1 10  1  0
  2 11  1  0
  2 12  1  0
  3 13  1  0
  4 14  1  0
  4 15  1  0
  5 16  1  0
  5 17  1  0
  7 18  1  0
  7 19  1  0
  8 20  1  0
  8 21  1  0
M  END
