
     RDKit          3D

 19 20  0  0  0  0  0  0  0  0999 V2000
    2.4983    0.0056    0.9605 O   0  0  0  0  0  0  0  0  0  0  0  0
    2.0396    0.3477   -0.2826 C   0  0  0  0  0  0  0  0  0  0  0  0
    0.5668    0.1718   -0.4707 C   0  0  0  0  0  0  0  0  0  0  0  0
   -0.2824    0.9696    0.4499 C   0  0  0  0  0  0  0  0  0  0  0  0
   -1.6743    0.3778    0.1927 C   0  0  0  0  0  0  0  0  0  0  0  0
   -2.3521    0.4727    1.4077 O   0  0  0  0  0  0  0  0  0  0  0  0
   -1.3964   -1.0680   -0.0890 C   0  0  0  0  0  0  0  0  0  0  0  0
   -0.5345   -1.6698    0.8235 O   0  0  0  0  0  0  0  0  0  0  0  0
    0.0777   -1.2197   -0.3189 C   0  0  0  0  0  0  0  0  0  0  0  0
    3.3312   -0.5305    0.8705 H   0  0  0  0  0  0  0  0  0  0  0  0
    2.5523   -0.2187   -1.0878 H   0  0  0  0  0  0  0  0  0  0  0  0
    2.2753    1.4208   -0.4730 H   0  0  0  0  0  0  0  0  0  0  0  0
    0.3342    0.4998   -1.5230 H   0  0  0  0  0  0  0  0  0  0  0  0
   -0.0150    0.8720    1.5056 H   0  0  0  0  0  0  0  0  0  0  0  0
   -0.3190    2.0312    0.2004 H   0  0  0  0  0  0  0  0  0  0  0  0
   -2.1805    0.8902   -0.6267 H   0  0  0  0  0  0  0  0  0  0  0  0
   -3.3108    0.3315    1.3217 H   0  0  0  0  0  0  0  0  0  0  0  0
   -2.0446   -1.6589   -0.7319 H   0  0  0  0  0  0  0  0  0  0  0  0
    0.4340   -2.0252   -0.9924 H   0  0  0  0  0  0  0  0  0  0  0  0
  1  2  1  0
  2  3  1  0
  3  4  1  0
  4  5  1  0
  5  6  1  0
  5  7  1  0
  7  8  1  0
  8  9  1  0
  9  3  1  0
  9  7  1  0
  1 10  1  0
  2 11  1  0
  2 12  1  0
  3 13  1  0
  4 14  1  0
  4 15  1  0
  5 16  1  0
  6 17  1  0
  7 18  1  0
  9 19  1  0
M  END
