
     RDKit          3D

 17 17  0  0  0  0  0  0  0  0999 V2000
    1.6428    1.3352   -0.0480 O   0  0  0  0  0  0  0  0  0  0  0  0
    1.5786   -0.0200   -0.2713 C   0  0  0  0  0  0  0  0  0  0  0  0
    0.1624   -0.5234   -0.1624 C   0  0  0  0  0  0  0  0  0  0  0  0
    0.0360   -1.8776   -0.3769 O   0  0  0  0  0  0  0  0  0  0  0  0
   -0.7486    0.3225   -1.0259 C   0  0  0  0  0  0  0  0  0  0  0  0
   -1.7182    0.3766    0.1182 C   0  0  0  0  0  0  0  0  0  0  0  0
   -0.6069   -0.0605    1.0411 C   0  0  0  0  0  0  0  0  0  0  0  0
    2.1970    1.5848    0.7277 H   0  0  0  0  0  0  0  0  0  0  0  0
    1.9500   -0.2814   -1.2848 H   0  0  0  0  0  0  0  0  0  0  0  0
    2.2614   -0.5135    0.4447 H   0  0  0  0  0  0  0  0  0  0  0  0
    0.4723   -2.3778    0.3631 H   0  0  0  0  0  0  0  0  0  0  0  0
   -0.3280    1.3461   -1.2121 H   0  0  0  0  0  0  0  0  0  0  0  0
   -1.0723   -0.1964   -1.9335 H   0  0  0  0  0  0  0  0  0  0  0  0
   -2.5317   -0.3667   -0.0002 H   0  0  0  0  0  0  0  0  0  0  0  0
   -2.1426    1.3820    0.3493 H   0  0  0  0  0  0  0  0  0  0  0  0
   -0.9506   -0.9027    1.6621 H   0  0  0  0  0  0  0  0  0  0  0  0
   -0.2016    0.7730    1.6087 H   0  0  0  0  0  0  0  0  0  0  0  0
  1  2  1  0
  2  3  1  0
  3  4  1  0
  3  5  1  0
  5  6  1  0
  6  7  1  0
  7  3  1  0
  1  8  1  0
  2  9  1  0
  2 10  1  0
  4 11  1  0
  5 12  1  0
  5 13  1  0
  6 14  1  0
  6 15  1  0
  7 16  1  0
  7 17  1  0
M  END
