
     RDKit          3D

 20 21  0  0  0  0  0  0  0  0999 V2000
    3.2708    0.0608    0.8722 O   0  0  0  0  0  0  0  0  0  0  0  0
    2.3296   -0.3558   -0.0576 C   0  0  0  0  0  0  0  0  0  0  0  0
    0.9215   -0.2075    0.4165 C   0  0  0  0  0  0  0  0  0  0  0  0
   -0.1284   -0.6509   -0.5692 C   0  0  0  0  0  0  0  0  0  0  0  0
   -1.4391   -1.1098   -0.0108 C   0  0  0  0  0  0  0  0  0  0  0  0
   -2.2804    0.1693   -0.1221 C   0  0  0  0  0  0  0  0  0  0  0  0
   -1.2576    1.1964    0.3798 C   0  0  0  0  0  0  0  0  0  0  0  0
    0.0498    0.7926   -0.2172 C   0  0  0  0  0  0  0  0  0  0  0  0
    3.8112    0.8240    0.4934 H   0  0  0  0  0  0  0  0  0  0  0  0
    2.5200   -1.4554   -0.2177 H   0  0  0  0  0  0  0  0  0  0  0  0
    2.5114    0.1441   -1.0329 H   0  0  0  0  0  0  0  0  0  0  0  0
    0.7696   -0.4789    1.4898 H   0  0  0  0  0  0  0  0  0  0  0  0
    0.1575   -0.9050   -1.6088 H   0  0  0  0  0  0  0  0  0  0  0  0
   -1.3643   -1.4571    1.0234 H   0  0  0  0  0  0  0  0  0  0  0  0
   -1.8786   -1.8750   -0.7041 H   0  0  0  0  0  0  0  0  0  0  0  0
   -3.1720    0.1341    0.5069 H   0  0  0  0  0  0  0  0  0  0  0  0
   -2.4975    0.2948   -1.1856 H   0  0  0  0  0  0  0  0  0  0  0  0
   -1.5684    2.1788   -0.0095 H   0  0  0  0  0  0  0  0  0  0  0  0
   -1.2757    1.2111    1.4783 H   0  0  0  0  0  0  0  0  0  0  0  0
    0.5206    1.4894   -0.9246 H   0  0  0  0  0  0  0  0  0  0  0  0
  1  2  1  0
  2  3  1  0
  3  4  1  0
  4  5  1  0
  5  6  1  0
  6  7  1  0
  7  8  1  0
  8  3  1  0
  8  4  1  0
  1  9  1  0
  2 10  1  0
  2 11  1  0
  3 12  1  0
  4 13  1  0
  5 14  1  0
  5 15  1  0
  6 16  1  0
  6 17  1  0
  7 18  1  0
  7 19  1  0
  8 20  1  0
M  END
