
     RDKit          3D

 21 22  0  0  0  0  0  0  0  0999 V2000
   -2.6000    0.1494   -1.4980 O   0  0  0  0  0  0  0  0  0  0  0  0
   -1.6792    0.7943   -0.6785 C   0  0  0  0  0  0  0  0  0  0  0  0
   -1.0556   -0.1400    0.3158 C   0  0  0  0  0  0  0  0  0  0  0  0
   -1.9052   -0.7647    1.1941 O   0  0  0  0  0  0  0  0  0  0  0  0
   -0.0463   -1.0439   -0.3701 C   0  0  0  0  0  0  0  0  0  0  0  0
    1.0247   -0.1713    0.1508 C   0  0  0  0  0  0  0  0  0  0  0  0
    2.0789    0.4494   -0.6255 C   0  0  0  0  0  0  0  0  0  0  0  0
    2.3739   -0.5589    0.4725 C   0  0  0  0  0  0  0  0  0  0  0  0
    0.0924    0.5767    1.0397 C   0  0  0  0  0  0  0  0  0  0  0  0
   -2.9471   -0.6915   -1.0669 H   0  0  0  0  0  0  0  0  0  0  0  0
   -0.8457    1.1318   -1.3616 H   0  0  0  0  0  0  0  0  0  0  0  0
   -2.1674    1.6720   -0.2099 H   0  0  0  0  0  0  0  0  0  0  0  0
   -2.5009   -0.1003    1.5794 H   0  0  0  0  0  0  0  0  0  0  0  0
   -0.0076   -2.0672    0.0208 H   0  0  0  0  0  0  0  0  0  0  0  0
   -0.1697   -1.0855   -1.4784 H   0  0  0  0  0  0  0  0  0  0  0  0
    2.2945    1.5341   -0.4027 H   0  0  0  0  0  0  0  0  0  0  0  0
    2.2313    0.1913   -1.6703 H   0  0  0  0  0  0  0  0  0  0  0  0
    2.7360   -1.5577    0.1284 H   0  0  0  0  0  0  0  0  0  0  0  0
    2.8126   -0.2073    1.4240 H   0  0  0  0  0  0  0  0  0  0  0  0
    0.2106    0.2148    2.1034 H   0  0  0  0  0  0  0  0  0  0  0  0
    0.0700    1.6741    0.9329 H   0  0  0  0  0  0  0  0  0  0  0  0
  1  2  1  0
  2  3  1  0
  3  4  1  0
  3  5  1  0
  5  6  1  0
  6  7  1  0
  7  8  1  0
  6  9  1  0
  9  3  1  0
  8  6  1  0
  1 10  1  0
  2 11  1  0
  2 12  1  0
  4 13  1  0
  5 14  1  0
  5 15  1  0
  7 16  1  0
  7 17  1  0
  8 18  1  0
  8 19  1  0
  9 20  1  0
  9 21  1  0
M  END
