
     RDKit          3D

 21 21  0  0  0  0  0  0  0  0999 V2000
   -2.4522   -0.3510   -1.0240 O   0  0  0  0  0  0  0  0  0  0  0  0
   -1.5766   -1.0538   -0.1971 C   0  0  0  0  0  0  0  0  0  0  0  0
   -0.3091   -0.2395   -0.0230 C   0  0  0  0  0  0  0  0  0  0  0  0
   -0.7083    1.0887    0.6117 C   0  0  0  0  0  0  0  0  0  0  0  0
    0.3995    1.8963    0.8045 O   0  0  0  0  0  0  0  0  0  0  0  0
    0.3331    0.0841   -1.3052 C   0  0  0  0  0  0  0  0  0  0  0  0
    1.6383    0.0714   -1.1490 C   0  0  0  0  0  0  0  0  0  0  0  0
    2.0075   -0.2644    0.2591 C   0  0  0  0  0  0  0  0  0  0  0  0
    0.7303   -0.9387    0.7700 C   0  0  0  0  0  0  0  0  0  0  0  0
   -2.9465    0.2903   -0.4750 H   0  0  0  0  0  0  0  0  0  0  0  0
   -1.3546   -2.0399   -0.6540 H   0  0  0  0  0  0  0  0  0  0  0  0
   -2.0720   -1.1348    0.7919 H   0  0  0  0  0  0  0  0  0  0  0  0
   -1.4164    1.5836   -0.0798 H   0  0  0  0  0  0  0  0  0  0  0  0
   -1.1522    0.8577    1.5913 H   0  0  0  0  0  0  0  0  0  0  0  0
    0.0820    2.8479    0.7878 H   0  0  0  0  0  0  0  0  0  0  0  0
   -0.1890    0.2978   -2.2276 H   0  0  0  0  0  0  0  0  0  0  0  0
    2.4166    0.2689   -1.8970 H   0  0  0  0  0  0  0  0  0  0  0  0
    2.8276   -1.0006    0.2146 H   0  0  0  0  0  0  0  0  0  0  0  0
    2.3216    0.5841    0.8618 H   0  0  0  0  0  0  0  0  0  0  0  0
    0.7889   -1.9907    0.4780 H   0  0  0  0  0  0  0  0  0  0  0  0
    0.6318   -0.8574    1.8611 H   0  0  0  0  0  0  0  0  0  0  0  0
  1  2  1  0
  2  3  1  0
  3  4  1  0
  4  5  1  0
  3  6  1  0
  6  7  2  0
  7  8  1  0
  8  9  1  0
  9  3  1  0
  1 10  1  0
  2 11  1  0
  2 12  1  0
  4 13  1  0
  4 14  1  0
  5 15  1  0
  6 16  1  0
  7 17  1  0
  8 18  1  0
  8 19  1  0
  9 20  1  0
  9 21  1  0
M  END
