
     RDKit          3D

 21 22  0  0  0  0  0  0  0  0999 V2000
    2.9084   -0.3893    0.0718 O   0  0  0  0  0  0  0  0  0  0  0  0
    2.0483    0.5175   -0.5919 C   0  0  0  0  0  0  0  0  0  0  0  0
    0.8401    0.6605    0.3466 C   0  0  0  0  0  0  0  0  0  0  0  0
    0.3744   -0.7160    0.6709 C   0  0  0  0  0  0  0  0  0  0  0  0
   -1.0365   -0.9598    0.2028 C   0  0  0  0  0  0  0  0  0  0  0  0
   -1.8724    0.1779    0.8140 C   0  0  0  0  0  0  0  0  0  0  0  0
   -1.3394    1.0051   -0.3630 C   0  0  0  0  0  0  0  0  0  0  0  0
   -1.3227   -0.3190   -1.1322 C   0  0  0  0  0  0  0  0  0  0  0  0
   -0.0987    1.5090   -0.1441 O   0  0  0  0  0  0  0  0  0  0  0  0
    3.2635   -1.0667   -0.5239 H   0  0  0  0  0  0  0  0  0  0  0  0
    2.5896    1.4700   -0.6984 H   0  0  0  0  0  0  0  0  0  0  0  0
    1.7692    0.0411   -1.5428 H   0  0  0  0  0  0  0  0  0  0  0  0
    1.2830    1.1427    1.2690 H   0  0  0  0  0  0  0  0  0  0  0  0
    0.3424   -0.8376    1.7943 H   0  0  0  0  0  0  0  0  0  0  0  0
    1.0778   -1.5196    0.3336 H   0  0  0  0  0  0  0  0  0  0  0  0
   -1.4199   -1.9572    0.3731 H   0  0  0  0  0  0  0  0  0  0  0  0
   -2.9422   -0.0247    0.6849 H   0  0  0  0  0  0  0  0  0  0  0  0
   -1.5175    0.4923    1.7964 H   0  0  0  0  0  0  0  0  0  0  0  0
   -2.0356    1.7534   -0.7410 H   0  0  0  0  0  0  0  0  0  0  0  0
   -0.5618   -0.4054   -1.9002 H   0  0  0  0  0  0  0  0  0  0  0  0
   -2.3502   -0.5743   -1.4533 H   0  0  0  0  0  0  0  0  0  0  0  0
  1  2  1  0
  2  3  1  0
  3  4  1  0
  4  5  1  0
  5  6  1  0
  6  7  1  0
  7  8  1  0
  7  9  1  0
  9  3  1  0
  8  5  1  0
  1 10  1  0
  2 11  1  0
  2 12  1  0
  3 13  1  0
  4 14  1  0
  4 15  1  0
  5 16  1  0
  6 17  1  0
  6 18  1  0
  7 19  1  0
  8 20  1  0
  8 21  1  0
M  END
