
     RDKit          3D

 19 21  0  0  0  0  0  0  0  0999 V2000
   -2.9933    0.1233    0.1198 O   0  0  0  0  0  0  0  0  0  0  0  0
   -1.8236   -0.1307   -0.6071 C   0  0  0  0  0  0  0  0  0  0  0  0
   -0.6392    0.0100    0.3066 C   0  0  0  0  0  0  0  0  0  0  0  0
   -0.4632   -0.8098    1.4998 C   0  0  0  0  0  0  0  0  0  0  0  0
    0.4713   -0.9538    0.3178 C   0  0  0  0  0  0  0  0  0  0  0  0
    1.4317    0.1192   -0.0197 C   0  0  0  0  0  0  0  0  0  0  0  0
    2.5292    0.1291   -0.8524 C   0  0  0  0  0  0  0  0  0  0  0  0
    2.6189    0.3007    0.6329 O   0  0  0  0  0  0  0  0  0  0  0  0
    0.3328    1.1407    0.0382 C   0  0  0  0  0  0  0  0  0  0  0  0
   -3.5179    0.8514   -0.3020 H   0  0  0  0  0  0  0  0  0  0  0  0
   -1.9158   -1.1886   -0.9635 H   0  0  0  0  0  0  0  0  0  0  0  0
   -1.7759    0.5560   -1.4730 H   0  0  0  0  0  0  0  0  0  0  0  0
   -0.0490   -0.3054    2.4096 H   0  0  0  0  0  0  0  0  0  0  0  0
   -1.1609   -1.6283    1.6758 H   0  0  0  0  0  0  0  0  0  0  0  0
    0.4584   -1.9201   -0.1913 H   0  0  0  0  0  0  0  0  0  0  0  0
    3.0584   -0.7918   -1.1822 H   0  0  0  0  0  0  0  0  0  0  0  0
    2.8775    1.0329   -1.3913 H   0  0  0  0  0  0  0  0  0  0  0  0
    0.3949    1.8366    0.9062 H   0  0  0  0  0  0  0  0  0  0  0  0
    0.1657    1.6286   -0.9242 H   0  0  0  0  0  0  0  0  0  0  0  0
  1  2  1  0
  2  3  1  0
  3  4  1  0
  4  5  1  0
  5  6  1  0
  6  7  1  0
  7  8  1  0
  6  9  1  0
  5  3  1  0
  8  6  1  0
  9  3  1  0
  1 10  1  0
  2 11  1  0
  2 12  1  0
  4 13  1  0
  4 14  1  0
  5 15  1  0
  7 16  1  0
  7 17  1  0
  9 18  1  0
  9 19  1  0
M  END
