
     RDKit          3D

 15 16  0  0  0  0  0  0  0  0999 V2000
   -2.4434    0.6652   -0.1467 O   0  0  0  0  0  0  0  0  0  0  0  0
   -1.4985   -0.3296   -0.1447 C   0  0  0  0  0  0  0  0  0  0  0  0
   -0.2300    0.1335    0.5003 C   0  0  0  0  0  0  0  0  0  0  0  0
    0.8653   -0.8961    0.5471 C   0  0  0  0  0  0  0  0  0  0  0  0
    1.8279    0.0309   -0.1084 C   0  0  0  0  0  0  0  0  0  0  0  0
    1.8094    1.3824    0.0938 O   0  0  0  0  0  0  0  0  0  0  0  0
    0.6355    0.9318   -0.4506 C   0  0  0  0  0  0  0  0  0  0  0  0
   -2.0432    1.5568   -0.0145 H   0  0  0  0  0  0  0  0  0  0  0  0
   -1.2482   -0.6474   -1.1807 H   0  0  0  0  0  0  0  0  0  0  0  0
   -1.8893   -1.1912    0.4176 H   0  0  0  0  0  0  0  0  0  0  0  0
   -0.4121    0.6838    1.4320 H   0  0  0  0  0  0  0  0  0  0  0  0
    0.5730   -1.7731   -0.0899 H   0  0  0  0  0  0  0  0  0  0  0  0
    1.1538   -1.1947    1.5902 H   0  0  0  0  0  0  0  0  0  0  0  0
    2.4819   -0.3070   -0.9319 H   0  0  0  0  0  0  0  0  0  0  0  0
    0.4179    0.9547   -1.5136 H   0  0  0  0  0  0  0  0  0  0  0  0
  1  2  1  0
  2  3  1  0
  3  4  1  0
  4  5  1  0
  5  6  1  0
  6  7  1  0
  7  3  1  0
  7  5  1  0
  1  8  1  0
  2  9  1  0
  2 10  1  0
  3 11  1  0
  4 12  1  0
  4 13  1  0
  5 14  1  0
  7 15  1  0
M  END
