
     RDKit          3D

 19 21  0  0  0  0  0  0  0  0999 V2000
    3.1552    0.1035   -0.3905 O   0  0  0  0  0  0  0  0  0  0  0  0
    2.1053   -0.4784    0.3488 C   0  0  0  0  0  0  0  0  0  0  0  0
    1.0678    0.5791    0.5981 C   0  0  0  0  0  0  0  0  0  0  0  0
    0.4427    1.2060   -0.6841 C   0  0  0  0  0  0  0  0  0  0  0  0
   -0.3274    0.4480    0.3037 C   0  0  0  0  0  0  0  0  0  0  0  0
   -1.3817    0.9365    1.0171 O   0  0  0  0  0  0  0  0  0  0  0  0
   -2.1715   -0.1626    0.8029 C   0  0  0  0  0  0  0  0  0  0  0  0
   -2.4253   -0.6008   -0.5842 C   0  0  0  0  0  0  0  0  0  0  0  0
   -1.0743   -0.7935    0.0249 C   0  0  0  0  0  0  0  0  0  0  0  0
    2.7727    0.3419   -1.2593 H   0  0  0  0  0  0  0  0  0  0  0  0
    2.5288   -0.7868    1.3063 H   0  0  0  0  0  0  0  0  0  0  0  0
    1.7144   -1.3718   -0.1669 H   0  0  0  0  0  0  0  0  0  0  0  0
    1.4147    1.3502    1.3472 H   0  0  0  0  0  0  0  0  0  0  0  0
    0.6593    0.6964   -1.6355 H   0  0  0  0  0  0  0  0  0  0  0  0
    0.4308    2.3023   -0.7364 H   0  0  0  0  0  0  0  0  0  0  0  0
   -2.6971   -0.6729    1.6139 H   0  0  0  0  0  0  0  0  0  0  0  0
   -3.0067   -1.4902   -0.8137 H   0  0  0  0  0  0  0  0  0  0  0  0
   -2.5088    0.1895   -1.3827 H   0  0  0  0  0  0  0  0  0  0  0  0
   -0.6989   -1.7964    0.2904 H   0  0  0  0  0  0  0  0  0  0  0  0
  1  2  1  0
  2  3  1  0
  3  4  1  0
  4  5  1  0
  5  6  1  0
  6  7  1  0
  7  8  1  0
  8  9  1  0
  5  3  1  0
  9  7  1  0
  9  5  1  0
  1 10  1  0
  2 11  1  0
  2 12  1  0
  3 13  1  0
  4 14  1  0
  4 15  1  0
  7 16  1  0
  8 17  1  0
  8 18  1  0
  9 19  1  0
M  END
