
     RDKit          3D

 17 18  0  0  0  0  0  0  0  0999 V2000
    2.0335   -0.4551    1.2264 O   0  0  0  0  0  0  0  0  0  0  0  0
    1.6698   -0.7965   -0.0860 C   0  0  0  0  0  0  0  0  0  0  0  0
    0.1992   -0.7093   -0.3114 C   0  0  0  0  0  0  0  0  0  0  0  0
   -0.2506   -1.0231   -1.5588 O   0  0  0  0  0  0  0  0  0  0  0  0
   -0.3740    0.3172   -1.2688 C   0  0  0  0  0  0  0  0  0  0  0  0
   -1.4592    0.6358   -0.2899 C   0  0  0  0  0  0  0  0  0  0  0  0
   -1.7119    1.9499   -0.0210 O   0  0  0  0  0  0  0  0  0  0  0  0
   -0.6184   -0.0692    0.7428 C   0  0  0  0  0  0  0  0  0  0  0  0
   -1.2970   -0.8987    1.6150 O   0  0  0  0  0  0  0  0  0  0  0  0
    2.5998    0.3692    1.2210 H   0  0  0  0  0  0  0  0  0  0  0  0
    2.2834   -0.2116   -0.7846 H   0  0  0  0  0  0  0  0  0  0  0  0
    1.9472   -1.8851   -0.1863 H   0  0  0  0  0  0  0  0  0  0  0  0
    0.2556    1.0787   -1.7120 H   0  0  0  0  0  0  0  0  0  0  0  0
   -2.3972    0.0386   -0.4585 H   0  0  0  0  0  0  0  0  0  0  0  0
   -1.1696    2.6022   -0.5144 H   0  0  0  0  0  0  0  0  0  0  0  0
   -0.0135    0.6890    1.2961 H   0  0  0  0  0  0  0  0  0  0  0  0
   -1.6971   -1.6318    1.0904 H   0  0  0  0  0  0  0  0  0  0  0  0
  1  2  1  0
  2  3  1  0
  3  4  1  0
  4  5  1  0
  5  6  1  0
  6  7  1  0
  6  8  1  0
  8  9  1  0
  5  3  1  0
  8  3  1  0
  1 10  1  0
  2 11  1  0
  2 12  1  0
  5 13  1  0
  6 14  1  0
  7 15  1  0
  8 16  1  0
  9 17  1  0
M  END
