
     RDKit          3D

 21 22  0  0  0  0  0  0  0  0999 V2000
    3.2251    0.9549   -0.0573 O   0  0  0  0  0  0  0  0  0  0  0  0
    2.5995   -0.2658    0.2063 C   0  0  0  0  0  0  0  0  0  0  0  0
    1.2008   -0.3106   -0.3130 C   0  0  0  0  0  0  0  0  0  0  0  0
    0.2222    0.6672    0.1845 C   0  0  0  0  0  0  0  0  0  0  0  0
   -1.0133    1.0543   -0.5561 C   0  0  0  0  0  0  0  0  0  0  0  0
   -2.1630    0.3275    0.1600 C   0  0  0  0  0  0  0  0  0  0  0  0
   -1.9415   -1.1336   -0.1543 C   0  0  0  0  0  0  0  0  0  0  0  0
   -0.7503   -1.5556    0.3204 O   0  0  0  0  0  0  0  0  0  0  0  0
    0.1524   -0.6550    0.7364 C   0  0  0  0  0  0  0  0  0  0  0  0
    2.6939    1.4536   -0.7335 H   0  0  0  0  0  0  0  0  0  0  0  0
    2.6564   -0.5243    1.2867 H   0  0  0  0  0  0  0  0  0  0  0  0
    3.1917   -1.0377   -0.3281 H   0  0  0  0  0  0  0  0  0  0  0  0
    1.0793   -0.6736   -1.3374 H   0  0  0  0  0  0  0  0  0  0  0  0
    0.6410    1.4865    0.8151 H   0  0  0  0  0  0  0  0  0  0  0  0
   -1.2621    2.1438   -0.4575 H   0  0  0  0  0  0  0  0  0  0  0  0
   -1.0261    0.7538   -1.6131 H   0  0  0  0  0  0  0  0  0  0  0  0
   -3.1389    0.6706   -0.2219 H   0  0  0  0  0  0  0  0  0  0  0  0
   -2.0646    0.4377    1.2596 H   0  0  0  0  0  0  0  0  0  0  0  0
   -2.0590   -1.2229   -1.2650 H   0  0  0  0  0  0  0  0  0  0  0  0
   -2.7466   -1.7790    0.2693 H   0  0  0  0  0  0  0  0  0  0  0  0
    0.5030   -0.7917    1.7988 H   0  0  0  0  0  0  0  0  0  0  0  0
  1  2  1  0
  2  3  1  0
  3  4  1  0
  4  5  1  0
  5  6  1  0
  6  7  1  0
  7  8  1  0
  8  9  1  0
  9  3  1  0
  9  4  1  0
  1 10  1  0
  2 11  1  0
  2 12  1  0
  3 13  1  0
  4 14  1  0
  5 15  1  0
  5 16  1  0
  6 17  1  0
  6 18  1  0
  7 19  1  0
  7 20  1  0
  9 21  1  0
M  END
