
     RDKit          3D

 19 20  0  0  0  0  0  0  0  0999 V2000
    2.4920   -0.8991    0.5811 O   0  0  0  0  0  0  0  0  0  0  0  0
    1.4088   -0.0209    0.7970 C   0  0  0  0  0  0  0  0  0  0  0  0
    0.8815    0.3688   -0.5333 C   0  0  0  0  0  0  0  0  0  0  0  0
   -0.2857    1.3080   -0.5764 C   0  0  0  0  0  0  0  0  0  0  0  0
   -1.2137    1.1645    0.5484 C   0  0  0  0  0  0  0  0  0  0  0  0
   -1.6851   -0.0475    0.8155 C   0  0  0  0  0  0  0  0  0  0  0  0
   -1.0806   -1.1363   -0.0403 C   0  0  0  0  0  0  0  0  0  0  0  0
   -0.1493   -0.5649   -1.0484 C   0  0  0  0  0  0  0  0  0  0  0  0
   -0.7729    0.5345   -1.6595 O   0  0  0  0  0  0  0  0  0  0  0  0
    2.8395   -0.7968   -0.3427 H   0  0  0  0  0  0  0  0  0  0  0  0
    0.6519   -0.6225    1.3392 H   0  0  0  0  0  0  0  0  0  0  0  0
    1.7192    0.8347    1.4324 H   0  0  0  0  0  0  0  0  0  0  0  0
    1.6230    0.6361   -1.2908 H   0  0  0  0  0  0  0  0  0  0  0  0
   -0.0858    2.3288   -0.9198 H   0  0  0  0  0  0  0  0  0  0  0  0
   -1.5026    2.0185    1.1388 H   0  0  0  0  0  0  0  0  0  0  0  0
   -2.4242   -0.2656    1.5610 H   0  0  0  0  0  0  0  0  0  0  0  0
   -0.6757   -1.9556    0.5526 H   0  0  0  0  0  0  0  0  0  0  0  0
   -1.9629   -1.5587   -0.6058 H   0  0  0  0  0  0  0  0  0  0  0  0
    0.2228   -1.3258   -1.7491 H   0  0  0  0  0  0  0  0  0  0  0  0
  1  2  1  0
  2  3  1  0
  3  4  1  0
  4  5  1  0
  5  6  2  0
  6  7  1  0
  7  8  1  0
  8  9  1  0
  8  3  1  0
  9  4  1  0
  1 10  1  0
  2 11  1  0
  2 12  1  0
  3 13  1  0
  4 14  1  0
  5 15  1  0
  6 16  1  0
  7 17  1  0
  7 18  1  0
  8 19  1  0
M  END
