
     RDKit          3D

 17 19  0  0  0  0  0  0  0  0999 V2000
    2.3217    0.3604    0.6799 O   0  0  0  0  0  0  0  0  0  0  0  0
    1.7122    0.2745   -0.5803 C   0  0  0  0  0  0  0  0  0  0  0  0
    0.2713    0.0698   -0.3778 C   0  0  0  0  0  0  0  0  0  0  0  0
   -0.5664   -0.0497   -1.4433 O   0  0  0  0  0  0  0  0  0  0  0  0
   -1.8271   -0.2675   -0.8336 C   0  0  0  0  0  0  0  0  0  0  0  0
   -1.4833   -0.1746    0.6062 C   0  0  0  0  0  0  0  0  0  0  0  0
   -0.4354    0.8816    0.6577 C   0  0  0  0  0  0  0  0  0  0  0  0
    0.2171    0.1182    1.6101 O   0  0  0  0  0  0  0  0  0  0  0  0
   -0.1677   -0.8574    0.7097 C   0  0  0  0  0  0  0  0  0  0  0  0
    3.2815    0.1883    0.6477 H   0  0  0  0  0  0  0  0  0  0  0  0
    1.9781    1.1905   -1.1142 H   0  0  0  0  0  0  0  0  0  0  0  0
    2.1300   -0.6297   -1.1046 H   0  0  0  0  0  0  0  0  0  0  0  0
   -2.5731    0.4454   -1.1875 H   0  0  0  0  0  0  0  0  0  0  0  0
   -2.0902   -1.3228   -1.0748 H   0  0  0  0  0  0  0  0  0  0  0  0
   -2.2171   -0.2621    1.3684 H   0  0  0  0  0  0  0  0  0  0  0  0
   -0.5654    1.8825    0.6651 H   0  0  0  0  0  0  0  0  0  0  0  0
    0.0138   -1.8472    0.7714 H   0  0  0  0  0  0  0  0  0  0  0  0
  1  2  1  0
  2  3  1  0
  3  4  1  0
  4  5  1  0
  5  6  1  0
  6  7  1  0
  7  8  1  0
  8  9  1  0
  7  3  1  0
  9  3  1  0
  9  6  1  0
  1 10  1  0
  2 11  1  0
  2 12  1  0
  5 13  1  0
  5 14  1  0
  6 15  1  0
  7 16  1  0
  9 17  1  0
M  END
