
     RDKit          3D

 19 20  0  0  0  0  0  0  0  0999 V2000
    2.9215    0.2565   -0.5010 O   0  0  0  0  0  0  0  0  0  0  0  0
    1.6469    0.7128   -0.9092 C   0  0  0  0  0  0  0  0  0  0  0  0
    0.6108    0.3028    0.1332 C   0  0  0  0  0  0  0  0  0  0  0  0
    0.3120   -1.0409    0.5247 C   0  0  0  0  0  0  0  0  0  0  0  0
   -0.9378   -1.8444    0.5044 C   0  0  0  0  0  0  0  0  0  0  0  0
   -0.9737   -1.4554   -0.8318 O   0  0  0  0  0  0  0  0  0  0  0  0
   -0.6325   -0.2201   -0.3822 C   0  0  0  0  0  0  0  0  0  0  0  0
   -1.8031    0.5356    0.1134 C   0  0  0  0  0  0  0  0  0  0  0  0
   -1.3472    1.8233    0.5163 O   0  0  0  0  0  0  0  0  0  0  0  0
    3.4719    1.0121   -0.1579 H   0  0  0  0  0  0  0  0  0  0  0  0
    1.6661    1.8059   -1.0072 H   0  0  0  0  0  0  0  0  0  0  0  0
    1.4238    0.2062   -1.8577 H   0  0  0  0  0  0  0  0  0  0  0  0
    0.6513    1.0378    0.9940 H   0  0  0  0  0  0  0  0  0  0  0  0
    1.0890   -1.7038   -0.0057 H   0  0  0  0  0  0  0  0  0  0  0  0
   -1.7594   -1.6282    1.1607 H   0  0  0  0  0  0  0  0  0  0  0  0
   -0.7602   -2.9573    0.5718 H   0  0  0  0  0  0  0  0  0  0  0  0
   -2.3262    0.1628    0.9970 H   0  0  0  0  0  0  0  0  0  0  0  0
   -2.5308    0.8026   -0.7120 H   0  0  0  0  0  0  0  0  0  0  0  0
   -0.7224    2.1917   -0.1636 H   0  0  0  0  0  0  0  0  0  0  0  0
  1  2  1  0
  2  3  1  0
  3  4  1  0
  4  5  1  0
  5  6  1  0
  6  7  1  0
  7  8  1  0
  8  9  1  0
  7  3  1  0
  7  4  1  0
  1 10  1  0
  2 11  1  0
  2 12  1  0
  3 13  1  0
  4 14  1  0
  5 15  1  0
  5 16  1  0
  8 17  1  0
  8 18  1  0
  9 19  1  0
M  END
