
     RDKit          3D

 21 22  0  0  0  0  0  0  0  0999 V2000
    2.9802    0.6156    0.3006 O   0  0  0  0  0  0  0  0  0  0  0  0
    2.1271   -0.3603   -0.2298 C   0  0  0  0  0  0  0  0  0  0  0  0
    0.7520    0.2447   -0.4477 C   0  0  0  0  0  0  0  0  0  0  0  0
    0.2423    0.7213    0.8937 C   0  0  0  0  0  0  0  0  0  0  0  0
   -1.2545    0.5634    0.8393 C   0  0  0  0  0  0  0  0  0  0  0  0
   -1.9241    1.0594   -0.3676 C   0  0  0  0  0  0  0  0  0  0  0  0
   -1.5654   -0.3678   -0.3019 C   0  0  0  0  0  0  0  0  0  0  0  0
   -2.5732   -1.3131   -0.1456 O   0  0  0  0  0  0  0  0  0  0  0  0
   -0.2405   -0.8824   -0.7347 C   0  0  0  0  0  0  0  0  0  0  0  0
    3.5637    0.1175    0.9535 H   0  0  0  0  0  0  0  0  0  0  0  0
    2.0097   -1.2205    0.4630 H   0  0  0  0  0  0  0  0  0  0  0  0
    2.5923   -0.6622   -1.2027 H   0  0  0  0  0  0  0  0  0  0  0  0
    0.7410    1.0220   -1.2143 H   0  0  0  0  0  0  0  0  0  0  0  0
    0.4658    1.8096    0.9544 H   0  0  0  0  0  0  0  0  0  0  0  0
    0.7146    0.1299    1.6834 H   0  0  0  0  0  0  0  0  0  0  0  0
   -1.7929    0.3152    1.7774 H   0  0  0  0  0  0  0  0  0  0  0  0
   -3.0163    1.2860   -0.2570 H   0  0  0  0  0  0  0  0  0  0  0  0
   -1.3863    1.7869   -0.9887 H   0  0  0  0  0  0  0  0  0  0  0  0
   -2.2983   -1.9154    0.6157 H   0  0  0  0  0  0  0  0  0  0  0  0
   -0.1748   -1.2226   -1.7632 H   0  0  0  0  0  0  0  0  0  0  0  0
    0.0377   -1.7274   -0.0433 H   0  0  0  0  0  0  0  0  0  0  0  0
  1  2  1  0
  2  3  1  0
  3  4  1  0
  4  5  1  0
  5  6  1  0
  6  7  1  0
  7  8  1  0
  7  9  1  0
  9  3  1  0
  7  5  1  0
  1 10  1  0
  2 11  1  0
  2 12  1  0
  3 13  1  0
  4 14  1  0
  4 15  1  0
  5 16  1  0
  6 17  1  0
  6 18  1  0
  8 19  1  0
  9 20  1  0
  9 21  1  0
M  END
