
     RDKit          3D

 21 23  0  0  0  0  0  0  0  0999 V2000
    2.5249   -1.5505   -0.1843 O   0  0  0  0  0  0  0  0  0  0  0  0
    1.1704   -1.4855    0.0456 C   0  0  0  0  0  0  0  0  0  0  0  0
    0.5112   -0.3105   -0.6766 C   0  0  0  0  0  0  0  0  0  0  0  0
    1.1041    0.9828   -0.2214 C   0  0  0  0  0  0  0  0  0  0  0  0
    0.3860    2.2653   -0.3286 C   0  0  0  0  0  0  0  0  0  0  0  0
   -0.1799    1.2515    0.5946 C   0  0  0  0  0  0  0  0  0  0  0  0
   -0.7660    0.0469   -0.0192 C   0  0  0  0  0  0  0  0  0  0  0  0
   -1.6605   -0.8947    0.6453 C   0  0  0  0  0  0  0  0  0  0  0  0
   -2.0846   -0.0699   -0.5995 C   0  0  0  0  0  0  0  0  0  0  0  0
    3.0611   -1.3041    0.6203 H   0  0  0  0  0  0  0  0  0  0  0  0
    1.0035   -1.4081    1.1381 H   0  0  0  0  0  0  0  0  0  0  0  0
    0.6778   -2.4294   -0.2727 H   0  0  0  0  0  0  0  0  0  0  0  0
    0.4742   -0.4423   -1.7574 H   0  0  0  0  0  0  0  0  0  0  0  0
    2.0592    0.9688    0.3096 H   0  0  0  0  0  0  0  0  0  0  0  0
    0.8646    3.1464    0.0875 H   0  0  0  0  0  0  0  0  0  0  0  0
   -0.2783    2.4908   -1.2120 H   0  0  0  0  0  0  0  0  0  0  0  0
    0.0054    1.2790    1.6771 H   0  0  0  0  0  0  0  0  0  0  0  0
   -2.1242   -0.5618    1.5967 H   0  0  0  0  0  0  0  0  0  0  0  0
   -1.6034   -1.9905    0.4984 H   0  0  0  0  0  0  0  0  0  0  0  0
   -2.8620    0.6966   -0.4255 H   0  0  0  0  0  0  0  0  0  0  0  0
   -2.2836   -0.6809   -1.5160 H   0  0  0  0  0  0  0  0  0  0  0  0
  1  2  1  0
  2  3  1  0
  3  4  1  0
  4  5  1  0
  5  6  1  0
  6  7  1  0
  7  8  1  0
  8  9  1  0
  7  3  1  0
  6  4  1  0
  9  7  1  0
  1 10  1  0
  2 11  1  0
  2 12  1  0
  3 13  1  0
  4 14  1  0
  5 15  1  0
  5 16  1  0
  6 17  1  0
  8 18  1  0
  8 19  1  0
  9 20  1  0
  9 21  1  0
M  END
