
     RDKit          3D

 18 18  0  0  0  0  0  0  0  0999 V2000
    1.9411    0.6307   -0.9869 O   0  0  0  0  0  0  0  0  0  0  0  0
    1.5971   -0.4962   -0.2704 C   0  0  0  0  0  0  0  0  0  0  0  0
    0.1762   -0.4133    0.1942 C   0  0  0  0  0  0  0  0  0  0  0  0
   -0.1996   -1.5338    0.9186 O   0  0  0  0  0  0  0  0  0  0  0  0
   -0.8071   -0.2378   -0.9370 C   0  0  0  0  0  0  0  0  0  0  0  0
   -1.9479    0.4607   -0.2286 C   0  0  0  0  0  0  0  0  0  0  0  0
   -1.5145    0.8104    1.0234 O   0  0  0  0  0  0  0  0  0  0  0  0
   -0.1189    0.8153    1.0076 C   0  0  0  0  0  0  0  0  0  0  0  0
    2.4560    1.2165   -0.3496 H   0  0  0  0  0  0  0  0  0  0  0  0
    1.7031   -1.4290   -0.8592 H   0  0  0  0  0  0  0  0  0  0  0  0
    2.2334   -0.6253    0.6280 H   0  0  0  0  0  0  0  0  0  0  0  0
    0.5175   -1.9297    1.4459 H   0  0  0  0  0  0  0  0  0  0  0  0
   -0.4021    0.3926   -1.7528 H   0  0  0  0  0  0  0  0  0  0  0  0
   -1.0848   -1.2006   -1.3732 H   0  0  0  0  0  0  0  0  0  0  0  0
   -2.2876    1.3695   -0.7625 H   0  0  0  0  0  0  0  0  0  0  0  0
   -2.7792   -0.2970   -0.1735 H   0  0  0  0  0  0  0  0  0  0  0  0
    0.2411    1.6965    0.4416 H   0  0  0  0  0  0  0  0  0  0  0  0
    0.2760    0.7704    2.0342 H   0  0  0  0  0  0  0  0  0  0  0  0
  1  2  1  0
  2  3  1  0
  3  4  1  0
  3  5  1  0
  5  6  1  0
  6  7  1  0
  7  8  1  0
  8  3  1  0
  1  9  1  0
  2 10  1  0
  2 11  1  0
  4 12  1  0
  5 13  1  0
  5 14  1  0
  6 15  1  0
  6 16  1  0
  8 17  1  0
  8 18  1  0
M  END
