
     RDKit          3D

 17 19  0  0  0  0  0  0  0  0999 V2000
    2.6823    0.8098   -0.5687 O   0  0  0  0  0  0  0  0  0  0  0  0
    1.9759   -0.1929    0.1272 C   0  0  0  0  0  0  0  0  0  0  0  0
    0.5236    0.1026   -0.0087 C   0  0  0  0  0  0  0  0  0  0  0  0
    0.1000    1.3192    0.4903 O   0  0  0  0  0  0  0  0  0  0  0  0
   -1.1047    0.7963    0.9424 C   0  0  0  0  0  0  0  0  0  0  0  0
   -2.0583    0.6795   -0.1982 C   0  0  0  0  0  0  0  0  0  0  0  0
   -1.7125   -0.2951   -1.0145 C   0  0  0  0  0  0  0  0  0  0  0  0
   -0.4553   -0.9293   -0.4644 C   0  0  0  0  0  0  0  0  0  0  0  0
   -0.4717   -0.5609    0.9325 C   0  0  0  0  0  0  0  0  0  0  0  0
    2.6804    0.6375   -1.5425 H   0  0  0  0  0  0  0  0  0  0  0  0
    2.2184   -1.1689   -0.3869 H   0  0  0  0  0  0  0  0  0  0  0  0
    2.3162   -0.2274    1.1821 H   0  0  0  0  0  0  0  0  0  0  0  0
   -1.4991    1.1725    1.8757 H   0  0  0  0  0  0  0  0  0  0  0  0
   -2.9125    1.3351   -0.3004 H   0  0  0  0  0  0  0  0  0  0  0  0
   -2.2068   -0.6227   -1.9284 H   0  0  0  0  0  0  0  0  0  0  0  0
   -0.0563   -1.8218   -0.9168 H   0  0  0  0  0  0  0  0  0  0  0  0
   -0.0195   -1.0338    1.7792 H   0  0  0  0  0  0  0  0  0  0  0  0
  1  2  1  0
  2  3  1  0
  3  4  1  0
  4  5  1  0
  5  6  1  0
  6  7  2  0
  7  8  1  0
  8  9  1  0
  8  3  1  0
  9  3  1  0
  9  5  1  0
  1 10  1  0
  2 11  1  0
  2 12  1  0
  5 13  1  0
  6 14  1  0
  7 15  1  0
  8 16  1  0
  9 17  1  0
M  END
