
     RDKit          3D

 19 20  0  0  0  0  0  0  0  0999 V2000
    2.1659   -1.2283    0.3953 O   0  0  0  0  0  0  0  0  0  0  0  0
    1.6156   -0.3003   -0.4966 C   0  0  0  0  0  0  0  0  0  0  0  0
    0.3649    0.1826    0.0117 C   0  0  0  0  0  0  0  0  0  0  0  0
    0.2810    0.8921    1.3327 C   0  0  0  0  0  0  0  0  0  0  0  0
   -1.1226    1.1001    1.3914 O   0  0  0  0  0  0  0  0  0  0  0  0
   -1.5758    0.6050    0.1951 C   0  0  0  0  0  0  0  0  0  0  0  0
   -0.5283    1.0617   -0.8324 C   0  0  0  0  0  0  0  0  0  0  0  0
   -0.8280   -0.7361    0.1215 C   0  0  0  0  0  0  0  0  0  0  0  0
   -1.1072   -1.4834   -1.0005 O   0  0  0  0  0  0  0  0  0  0  0  0
    1.9664   -2.1612    0.1507 H   0  0  0  0  0  0  0  0  0  0  0  0
    1.4520   -0.8230   -1.4851 H   0  0  0  0  0  0  0  0  0  0  0  0
    2.4038    0.4444   -0.7082 H   0  0  0  0  0  0  0  0  0  0  0  0
    0.6298    0.2167    2.1123 H   0  0  0  0  0  0  0  0  0  0  0  0
    0.8260    1.8408    1.2548 H   0  0  0  0  0  0  0  0  0  0  0  0
   -2.5908    0.6255   -0.0826 H   0  0  0  0  0  0  0  0  0  0  0  0
   -0.3830    2.1600   -0.6869 H   0  0  0  0  0  0  0  0  0  0  0  0
   -0.7168    0.7456   -1.8512 H   0  0  0  0  0  0  0  0  0  0  0  0
   -0.8572   -1.2553    1.0897 H   0  0  0  0  0  0  0  0  0  0  0  0
   -1.9959   -1.8867   -0.9116 H   0  0  0  0  0  0  0  0  0  0  0  0
  1  2  1  0
  2  3  1  0
  3  4  1  0
  4  5  1  0
  5  6  1  0
  6  7  1  0
  6  8  1  0
  8  9  1  0
  7  3  1  0
  8  3  1  0
  1 10  1  0
  2 11  1  0
  2 12  1  0
  4 13  1  0
  4 14  1  0
  6 15  1  0
  7 16  1  0
  7 17  1  0
  8 18  1  0
  9 19  1  0
M  END
