
     RDKit          3D

 20 21  0  0  0  0  0  0  0  0999 V2000
    2.9977    0.7795    0.0344 O   0  0  0  0  0  0  0  0  0  0  0  0
    2.1470    0.2405   -0.9530 C   0  0  0  0  0  0  0  0  0  0  0  0
    1.0935   -0.5482   -0.2156 C   0  0  0  0  0  0  0  0  0  0  0  0
    0.2574    0.2650    0.7544 C   0  0  0  0  0  0  0  0  0  0  0  0
   -0.9295   -0.0914   -0.0376 C   0  0  0  0  0  0  0  0  0  0  0  0
   -2.0532    0.7884   -0.3365 C   0  0  0  0  0  0  0  0  0  0  0  0
   -2.2328   -0.4567    0.4983 C   0  0  0  0  0  0  0  0  0  0  0  0
   -0.1511   -0.8623   -1.0181 C   0  0  0  0  0  0  0  0  0  0  0  0
    2.5701    0.7775    0.9202 H   0  0  0  0  0  0  0  0  0  0  0  0
    1.6658    1.0703   -1.5088 H   0  0  0  0  0  0  0  0  0  0  0  0
    2.6998   -0.4618   -1.5939 H   0  0  0  0  0  0  0  0  0  0  0  0
    1.4622   -1.4583    0.2693 H   0  0  0  0  0  0  0  0  0  0  0  0
    0.3197   -0.0676    1.8003 H   0  0  0  0  0  0  0  0  0  0  0  0
    0.5045    1.3577    0.6583 H   0  0  0  0  0  0  0  0  0  0  0  0
   -2.0599    1.7824    0.1612 H   0  0  0  0  0  0  0  0  0  0  0  0
   -2.4209    0.7759   -1.3994 H   0  0  0  0  0  0  0  0  0  0  0  0
   -2.8568   -1.2882    0.1255 H   0  0  0  0  0  0  0  0  0  0  0  0
   -2.4482   -0.2314    1.5774 H   0  0  0  0  0  0  0  0  0  0  0  0
   -0.1333   -0.4362   -2.0563 H   0  0  0  0  0  0  0  0  0  0  0  0
   -0.4322   -1.9349   -1.0565 H   0  0  0  0  0  0  0  0  0  0  0  0
  1  2  1  0
  2  3  1  0
  3  4  1  0
  4  5  1  0
  5  6  1  0
  6  7  1  0
  5  8  1  0
  8  3  1  0
  7  5  1  0
  1  9  1  0
  2 10  1  0
  2 11  1  0
  3 12  1  0
  4 13  1  0
  4 14  1  0
  6 15  1  0
  6 16  1  0
  7 17  1  0
  7 18  1  0
  8 19  1  0
  8 20  1  0
M  END
