
     RDKit          3D

 19 21  0  0  0  0  0  0  0  0999 V2000
    1.6655   -0.7903   -1.3870 O   0  0  0  0  0  0  0  0  0  0  0  0
    1.5922   -0.1226   -0.1475 C   0  0  0  0  0  0  0  0  0  0  0  0
    0.3109    0.0287    0.4277 C   0  0  0  0  0  0  0  0  0  0  0  0
   -0.8549    0.8465   -0.4975 C   0  0  0  0  0  0  0  0  0  0  0  0
   -1.5694   -0.1902   -0.8681 C   0  0  0  0  0  0  0  0  0  0  0  0
   -1.0501   -1.4213   -0.2534 C   0  0  0  0  0  0  0  0  0  0  0  0
   -0.5858   -0.7503    1.0909 C   0  0  0  0  0  0  0  0  0  0  0  0
   -0.2916    0.7356    1.3873 C   0  0  0  0  0  0  0  0  0  0  0  0
    0.0491    1.7615    0.1762 C   0  0  0  0  0  0  0  0  0  0  0  0
    1.6296   -0.0922   -2.0807 H   0  0  0  0  0  0  0  0  0  0  0  0
    2.2821    0.7183   -0.2025 H   0  0  0  0  0  0  0  0  0  0  0  0
    2.1950   -0.8810    0.5279 H   0  0  0  0  0  0  0  0  0  0  0  0
   -2.4133   -0.1330   -1.5284 H   0  0  0  0  0  0  0  0  0  0  0  0
   -0.1765   -1.8288   -0.7034 H   0  0  0  0  0  0  0  0  0  0  0  0
   -1.8525   -2.1238    0.0369 H   0  0  0  0  0  0  0  0  0  0  0  0
   -0.3791   -1.3817    1.9379 H   0  0  0  0  0  0  0  0  0  0  0  0
   -1.2581    1.0823    1.7361 H   0  0  0  0  0  0  0  0  0  0  0  0
   -0.3434    2.7681    0.4294 H   0  0  0  0  0  0  0  0  0  0  0  0
    1.0504    1.7743   -0.0816 H   0  0  0  0  0  0  0  0  0  0  0  0
  1  2  1  0
  2  3  1  0
  3  4  1  0
  4  5  2  0
  5  6  1  0
  6  7  1  0
  7  8  1  0
  8  9  1  0
  7  3  1  0
  8  3  1  0
  9  4  1  0
  1 10  1  0
  2 11  1  0
  2 12  1  0
  5 13  1  0
  6 14  1  0
  6 15  1  0
  7 16  1  0
  8 17  1  0
  9 18  1  0
  9 19  1  0
M  END
