
     RDKit          3D

 19 20  0  0  0  0  0  0  0  0999 V2000
    2.7781    0.1063   -1.0490 O   0  0  0  0  0  0  0  0  0  0  0  0
    2.1021    0.4647    0.1412 C   0  0  0  0  0  0  0  0  0  0  0  0
    0.7561    0.1638    0.0757 C   0  0  0  0  0  0  0  0  0  0  0  0
   -0.2364    0.6321   -0.9189 C   0  0  0  0  0  0  0  0  0  0  0  0
   -0.9493   -0.2686    0.0333 C   0  0  0  0  0  0  0  0  0  0  0  0
   -2.3055   -0.4961    0.1113 C   0  0  0  0  0  0  0  0  0  0  0  0
   -3.0296    0.7147    0.2380 O   0  0  0  0  0  0  0  0  0  0  0  0
    0.1696   -1.2164   -0.0790 C   0  0  0  0  0  0  0  0  0  0  0  0
   -0.1993    0.3725    1.0421 O   0  0  0  0  0  0  0  0  0  0  0  0
    3.7349    0.3059   -0.9610 H   0  0  0  0  0  0  0  0  0  0  0  0
    2.6300   -0.0479    0.9754 H   0  0  0  0  0  0  0  0  0  0  0  0
    2.3116    1.5441    0.2753 H   0  0  0  0  0  0  0  0  0  0  0  0
   -0.1753    0.2179   -1.9454 H   0  0  0  0  0  0  0  0  0  0  0  0
   -0.5174    1.6921   -0.9237 H   0  0  0  0  0  0  0  0  0  0  0  0
   -2.5948   -1.0848    1.0163 H   0  0  0  0  0  0  0  0  0  0  0  0
   -2.7326   -1.0113   -0.7462 H   0  0  0  0  0  0  0  0  0  0  0  0
   -2.4113    1.4539    0.4887 H   0  0  0  0  0  0  0  0  0  0  0  0
    0.3932   -1.6570   -1.0638 H   0  0  0  0  0  0  0  0  0  0  0  0
    0.2760   -1.8861    0.7871 H   0  0  0  0  0  0  0  0  0  0  0  0
  1  2  1  0
  2  3  1  0
  3  4  1  0
  4  5  1  0
  5  6  1  0
  6  7  1  0
  5  8  1  0
  5  9  1  0
  8  3  1  0
  9  3  1  0
  1 10  1  0
  2 11  1  0
  2 12  1  0
  4 13  1  0
  4 14  1  0
  6 15  1  0
  6 16  1  0
  7 17  1  0
  8 18  1  0
  8 19  1  0
M  END
