
     RDKit          3D

 19 20  0  0  0  0  0  0  0  0999 V2000
    3.2375    0.3344   -0.4355 O   0  0  0  0  0  0  0  0  0  0  0  0
    2.1742    0.0979    0.4641 C   0  0  0  0  0  0  0  0  0  0  0  0
    0.9296   -0.3317   -0.2496 C   0  0  0  0  0  0  0  0  0  0  0  0
   -0.2494   -0.6067    0.6009 C   0  0  0  0  0  0  0  0  0  0  0  0
   -1.4832   -1.0773   -0.1356 C   0  0  0  0  0  0  0  0  0  0  0  0
   -1.5469    0.2653   -0.8048 C   0  0  0  0  0  0  0  0  0  0  0  0
   -2.6055    1.0091   -0.2464 O   0  0  0  0  0  0  0  0  0  0  0  0
   -0.1953    0.6099   -0.2710 C   0  0  0  0  0  0  0  0  0  0  0  0
    0.0222    1.8652    0.2829 O   0  0  0  0  0  0  0  0  0  0  0  0
    3.5136   -0.5914   -0.7286 H   0  0  0  0  0  0  0  0  0  0  0  0
    2.5221   -0.7226    1.1282 H   0  0  0  0  0  0  0  0  0  0  0  0
    2.0154    1.0367    1.0695 H   0  0  0  0  0  0  0  0  0  0  0  0
    1.1045   -1.0450   -1.0810 H   0  0  0  0  0  0  0  0  0  0  0  0
   -0.2794   -0.4114    1.6762 H   0  0  0  0  0  0  0  0  0  0  0  0
   -1.2195   -1.8567   -0.8851 H   0  0  0  0  0  0  0  0  0  0  0  0
   -2.3320   -1.3835    0.4688 H   0  0  0  0  0  0  0  0  0  0  0  0
   -1.6223    0.2617   -1.9079 H   0  0  0  0  0  0  0  0  0  0  0  0
   -3.2576    0.4044    0.2225 H   0  0  0  0  0  0  0  0  0  0  0  0
   -0.7278    2.1417    0.8325 H   0  0  0  0  0  0  0  0  0  0  0  0
  1  2  1  0
  2  3  1  0
  3  4  1  0
  4  5  1  0
  5  6  1  0
  6  7  1  0
  6  8  1  0
  8  9  1  0
  8  3  1  0
  8  4  1  0
  1 10  1  0
  2 11  1  0
  2 12  1  0
  3 13  1  0
  4 14  1  0
  5 15  1  0
  5 16  1  0
  6 17  1  0
  7 18  1  0
  9 19  1  0
M  END
