
     RDKit          3D

 16 17  0  0  0  0  0  0  0  0999 V2000
    1.7713   -0.5371   -1.2526 O   0  0  0  0  0  0  0  0  0  0  0  0
    1.5030   -0.3954    0.1012 C   0  0  0  0  0  0  0  0  0  0  0  0
    0.0549   -0.4134    0.4427 C   0  0  0  0  0  0  0  0  0  0  0  0
   -0.4697    0.6582    1.3781 C   0  0  0  0  0  0  0  0  0  0  0  0
   -0.9203    0.5596   -0.0338 C   0  0  0  0  0  0  0  0  0  0  0  0
   -0.6514    1.5316   -0.9607 O   0  0  0  0  0  0  0  0  0  0  0  0
   -1.7215   -0.6606   -0.4107 C   0  0  0  0  0  0  0  0  0  0  0  0
   -0.7425   -1.4962    0.1566 O   0  0  0  0  0  0  0  0  0  0  0  0
    2.6601   -0.1240   -1.4107 H   0  0  0  0  0  0  0  0  0  0  0  0
    1.9165    0.5925    0.4329 H   0  0  0  0  0  0  0  0  0  0  0  0
    2.0246   -1.1538    0.7132 H   0  0  0  0  0  0  0  0  0  0  0  0
   -1.0878    0.2329    2.2018 H   0  0  0  0  0  0  0  0  0  0  0  0
    0.2819    1.4296    1.6556 H   0  0  0  0  0  0  0  0  0  0  0  0
   -0.0442    1.2774   -1.6811 H   0  0  0  0  0  0  0  0  0  0  0  0
   -1.8883   -0.8230   -1.4723 H   0  0  0  0  0  0  0  0  0  0  0  0
   -2.6867   -0.6783    0.1397 H   0  0  0  0  0  0  0  0  0  0  0  0
  1  2  1  0
  2  3  1  0
  3  4  1  0
  4  5  1  0
  5  6  1  0
  5  7  1  0
  7  8  1  0
  5  3  1  0
  8  3  1  0
  1  9  1  0
  2 10  1  0
  2 11  1  0
  4 12  1  0
  4 13  1  0
  6 14  1  0
  7 15  1  0
  7 16  1  0
M  END
