
     RDKit          3D

 19 19  0  0  0  0  0  0  0  0999 V2000
    2.3108   -0.1501   -1.4140 O   0  0  0  0  0  0  0  0  0  0  0  0
    1.3077   -0.9259   -0.8140 C   0  0  0  0  0  0  0  0  0  0  0  0
    0.4391    0.0169   -0.0131 C   0  0  0  0  0  0  0  0  0  0  0  0
    1.1397    0.6837    0.9658 O   0  0  0  0  0  0  0  0  0  0  0  0
   -0.2332    1.0470   -0.9316 C   0  0  0  0  0  0  0  0  0  0  0  0
   -1.3610    1.4797   -0.0424 C   0  0  0  0  0  0  0  0  0  0  0  0
   -1.6830    0.4902    0.7837 C   0  0  0  0  0  0  0  0  0  0  0  0
   -0.8003   -0.6799    0.5152 C   0  0  0  0  0  0  0  0  0  0  0  0
   -0.5252   -1.4052    1.6737 O   0  0  0  0  0  0  0  0  0  0  0  0
    2.9065    0.1287   -0.6627 H   0  0  0  0  0  0  0  0  0  0  0  0
    1.8198   -1.5814   -0.0806 H   0  0  0  0  0  0  0  0  0  0  0  0
    0.7002   -1.4700   -1.5411 H   0  0  0  0  0  0  0  0  0  0  0  0
    0.5793    0.6600    1.8012 H   0  0  0  0  0  0  0  0  0  0  0  0
   -0.6107    0.4885   -1.8251 H   0  0  0  0  0  0  0  0  0  0  0  0
    0.4410    1.8628   -1.1937 H   0  0  0  0  0  0  0  0  0  0  0  0
   -1.8352    2.4524   -0.0752 H   0  0  0  0  0  0  0  0  0  0  0  0
   -2.4628    0.5217    1.5362 H   0  0  0  0  0  0  0  0  0  0  0  0
   -1.1745   -1.3124   -0.3094 H   0  0  0  0  0  0  0  0  0  0  0  0
   -0.9580   -2.3066    1.6271 H   0  0  0  0  0  0  0  0  0  0  0  0
  1  2  1  0
  2  3  1  0
  3  4  1  0
  3  5  1  0
  5  6  1  0
  6  7  2  0
  7  8  1  0
  8  9  1  0
  8  3  1  0
  1 10  1  0
  2 11  1  0
  2 12  1  0
  4 13  1  0
  5 14  1  0
  5 15  1  0
  6 16  1  0
  7 17  1  0
  8 18  1  0
  9 19  1  0
M  END
