
     RDKit          3D

 19 20  0  0  0  0  0  0  0  0999 V2000
   -2.7320    1.3876   -0.2621 O   0  0  0  0  0  0  0  0  0  0  0  0
   -2.3699    0.0306   -0.1438 C   0  0  0  0  0  0  0  0  0  0  0  0
   -0.9253   -0.0602    0.2733 C   0  0  0  0  0  0  0  0  0  0  0  0
   -0.4836   -1.4585   -0.0081 C   0  0  0  0  0  0  0  0  0  0  0  0
    0.7555   -1.3228   -0.4746 C   0  0  0  0  0  0  0  0  0  0  0  0
    1.1360    0.0245   -0.5090 C   0  0  0  0  0  0  0  0  0  0  0  0
    1.9073    1.1800   -0.2787 C   0  0  0  0  0  0  0  0  0  0  0  0
    2.2376    0.0519    0.4339 C   0  0  0  0  0  0  0  0  0  0  0  0
   -0.0890    0.5677   -0.6977 O   0  0  0  0  0  0  0  0  0  0  0  0
   -2.9154    1.7250    0.6397 H   0  0  0  0  0  0  0  0  0  0  0  0
   -3.0157   -0.3704    0.6637 H   0  0  0  0  0  0  0  0  0  0  0  0
   -2.5964   -0.5463   -1.0469 H   0  0  0  0  0  0  0  0  0  0  0  0
   -0.7289    0.2911    1.2758 H   0  0  0  0  0  0  0  0  0  0  0  0
   -1.0454   -2.3837    0.1346 H   0  0  0  0  0  0  0  0  0  0  0  0
    1.3808   -2.2115   -0.8001 H   0  0  0  0  0  0  0  0  0  0  0  0
    2.5358    1.5209   -1.1620 H   0  0  0  0  0  0  0  0  0  0  0  0
    1.6576    2.1042    0.3282 H   0  0  0  0  0  0  0  0  0  0  0  0
    2.1453    0.0034    1.5391 H   0  0  0  0  0  0  0  0  0  0  0  0
    3.1456   -0.5336    0.0946 H   0  0  0  0  0  0  0  0  0  0  0  0
  1  2  1  0
  2  3  1  0
  3  4  1  0
  4  5  2  0
  5  6  1  0
  6  7  1  0
  7  8  1  0
  6  9  1  0
  9  3  1  0
  8  6  1  0
  1 10  1  0
  2 11  1  0
  2 12  1  0
  3 13  1  0
  4 14  1  0
  5 15  1  0
  7 16  1  0
  7 17  1  0
  8 18  1  0
  8 19  1  0
M  END
