
     RDKit          3D

 19 20  0  0  0  0  0  0  0  0999 V2000
   -0.8703   -1.8549   -0.7332 O   0  0  0  0  0  0  0  0  0  0  0  0
   -1.6073   -0.6985   -0.5644 C   0  0  0  0  0  0  0  0  0  0  0  0
   -0.8392    0.3488    0.2362 C   0  0  0  0  0  0  0  0  0  0  0  0
   -1.5117    1.5327    0.4460 O   0  0  0  0  0  0  0  0  0  0  0  0
    0.0308   -0.1863    1.3976 C   0  0  0  0  0  0  0  0  0  0  0  0
    0.6143    0.2530    0.1638 C   0  0  0  0  0  0  0  0  0  0  0  0
    1.5489    1.3562   -0.0660 C   0  0  0  0  0  0  0  0  0  0  0  0
    2.3678    0.4763   -0.7749 O   0  0  0  0  0  0  0  0  0  0  0  0
    1.3869   -0.5166   -0.8110 C   0  0  0  0  0  0  0  0  0  0  0  0
   -1.4611   -2.6295   -0.4902 H   0  0  0  0  0  0  0  0  0  0  0  0
   -1.8249   -0.2589   -1.5756 H   0  0  0  0  0  0  0  0  0  0  0  0
   -2.6100   -0.8925   -0.1124 H   0  0  0  0  0  0  0  0  0  0  0  0
   -1.0195    2.1084    1.0902 H   0  0  0  0  0  0  0  0  0  0  0  0
    0.0220    0.3955    2.3371 H   0  0  0  0  0  0  0  0  0  0  0  0
   -0.0542   -1.2923    1.5811 H   0  0  0  0  0  0  0  0  0  0  0  0
    1.1366    2.1279   -0.7653 H   0  0  0  0  0  0  0  0  0  0  0  0
    2.0460    1.8230    0.8134 H   0  0  0  0  0  0  0  0  0  0  0  0
    0.8641   -0.6314   -1.7802 H   0  0  0  0  0  0  0  0  0  0  0  0
    1.7808   -1.4609   -0.3923 H   0  0  0  0  0  0  0  0  0  0  0  0
  1  2  1  0
  2  3  1  0
  3  4  1  0
  3  5  1  0
  5  6  1  0
  6  7  1  0
  7  8  1  0
  8  9  1  0
  6  3  1  0
  9  6  1  0
  1 10  1  0
  2 11  1  0
  2 12  1  0
  4 13  1  0
  5 14  1  0
  5 15  1  0
  7 16  1  0
  7 17  1  0
  9 18  1  0
  9 19  1  0
M  END
