
     RDKit          3D

 21 22  0  0  0  0  0  0  0  0999 V2000
    3.1998   -0.2245    0.5334 O   0  0  0  0  0  0  0  0  0  0  0  0
    1.8868    0.2073    0.7094 C   0  0  0  0  0  0  0  0  0  0  0  0
    1.0164   -0.2809   -0.4085 C   0  0  0  0  0  0  0  0  0  0  0  0
    0.9184   -1.6396   -0.5803 O   0  0  0  0  0  0  0  0  0  0  0  0
   -0.4009   -1.4248   -1.0482 C   0  0  0  0  0  0  0  0  0  0  0  0
   -0.4415   -0.1934   -0.2444 C   0  0  0  0  0  0  0  0  0  0  0  0
   -1.1630    0.9929   -0.7276 C   0  0  0  0  0  0  0  0  0  0  0  0
   -1.6949    1.1766    0.7035 C   0  0  0  0  0  0  0  0  0  0  0  0
   -1.0640   -0.1740    1.0747 C   0  0  0  0  0  0  0  0  0  0  0  0
    3.1396   -1.1410    0.1601 H   0  0  0  0  0  0  0  0  0  0  0  0
    1.8668    1.3317    0.6570 H   0  0  0  0  0  0  0  0  0  0  0  0
    1.5696   -0.1038    1.7048 H   0  0  0  0  0  0  0  0  0  0  0  0
    1.3682    0.1870   -1.3728 H   0  0  0  0  0  0  0  0  0  0  0  0
   -0.4534   -1.2017   -2.1378 H   0  0  0  0  0  0  0  0  0  0  0  0
   -1.0773   -2.2439   -0.7637 H   0  0  0  0  0  0  0  0  0  0  0  0
   -1.9395    0.8801   -1.4877 H   0  0  0  0  0  0  0  0  0  0  0  0
   -0.4577    1.8307   -0.9590 H   0  0  0  0  0  0  0  0  0  0  0  0
   -2.7842    1.1348    0.7368 H   0  0  0  0  0  0  0  0  0  0  0  0
   -1.2167    2.0065    1.2535 H   0  0  0  0  0  0  0  0  0  0  0  0
   -1.8213   -0.9909    1.1953 H   0  0  0  0  0  0  0  0  0  0  0  0
   -0.4512   -0.1289    1.9813 H   0  0  0  0  0  0  0  0  0  0  0  0
  1  2  1  0
  2  3  1  0
  3  4  1  0
  4  5  1  0
  5  6  1  0
  6  7  1  0
  7  8  1  0
  8  9  1  0
  6  3  1  0
  9  6  1  0
  1 10  1  0
  2 11  1  0
  2 12  1  0
  3 13  1  0
  5 14  1  0
  5 15  1  0
  7 16  1  0
  7 17  1  0
  8 18  1  0
  8 19  1  0
  9 20  1  0
  9 21  1  0
M  END
