
     RDKit          3D

 15 15  0  0  0  0  0  0  0  0999 V2000
   -2.2155    0.0206    0.3371 O   0  0  0  0  0  0  0  0  0  0  0  0
   -1.1587    0.1338   -0.5119 C   0  0  0  0  0  0  0  0  0  0  0  0
    0.1747    0.3087    0.1650 C   0  0  0  0  0  0  0  0  0  0  0  0
    0.2249    1.4341    0.9474 O   0  0  0  0  0  0  0  0  0  0  0  0
    0.7954   -0.9005    0.7609 C   0  0  0  0  0  0  0  0  0  0  0  0
    1.8932   -0.8645   -0.1002 O   0  0  0  0  0  0  0  0  0  0  0  0
    1.3269    0.1829   -0.8087 C   0  0  0  0  0  0  0  0  0  0  0  0
   -2.3236   -0.8298    0.7877 H   0  0  0  0  0  0  0  0  0  0  0  0
   -1.1245   -0.7627   -1.1700 H   0  0  0  0  0  0  0  0  0  0  0  0
   -1.3291    1.0028   -1.2009 H   0  0  0  0  0  0  0  0  0  0  0  0
   -0.6570    1.8591    0.9861 H   0  0  0  0  0  0  0  0  0  0  0  0
    0.2597   -1.8492    0.6463 H   0  0  0  0  0  0  0  0  0  0  0  0
    1.1474   -0.7234    1.7983 H   0  0  0  0  0  0  0  0  0  0  0  0
    1.9980    1.0661   -0.8113 H   0  0  0  0  0  0  0  0  0  0  0  0
    0.9881   -0.0780   -1.8257 H   0  0  0  0  0  0  0  0  0  0  0  0
  1  2  1  0
  2  3  1  0
  3  4  1  0
  3  5  1  0
  5  6  1  0
  6  7  1  0
  7  3  1  0
  1  8  1  0
  2  9  1  0
  2 10  1  0
  4 11  1  0
  5 12  1  0
  5 13  1  0
  7 14  1  0
  7 15  1  0
M  END
