
     RDKit          3D

 18 18  0  0  0  0  0  0  0  0999 V2000
    2.7762   -0.4123    0.3934 O   0  0  0  0  0  0  0  0  0  0  0  0
    1.5263   -0.9867    0.2011 C   0  0  0  0  0  0  0  0  0  0  0  0
    0.5529   -0.0842   -0.4920 C   0  0  0  0  0  0  0  0  0  0  0  0
    0.2500    1.2176    0.2162 C   0  0  0  0  0  0  0  0  0  0  0  0
   -1.1964    0.9961   -0.2516 C   0  0  0  0  0  0  0  0  0  0  0  0
   -2.1512    1.4269    0.6410 O   0  0  0  0  0  0  0  0  0  0  0  0
   -0.8718   -0.4968   -0.1639 C   0  0  0  0  0  0  0  0  0  0  0  0
   -1.4944   -1.2710   -1.1301 O   0  0  0  0  0  0  0  0  0  0  0  0
    2.9915    0.2712   -0.2786 H   0  0  0  0  0  0  0  0  0  0  0  0
    1.0636   -1.3425    1.1308 H   0  0  0  0  0  0  0  0  0  0  0  0
    1.6755   -1.8738   -0.4471 H   0  0  0  0  0  0  0  0  0  0  0  0
    0.6701    0.0550   -1.5676 H   0  0  0  0  0  0  0  0  0  0  0  0
    0.2737    1.1572    1.3213 H   0  0  0  0  0  0  0  0  0  0  0  0
    0.6906    2.1205   -0.2300 H   0  0  0  0  0  0  0  0  0  0  0  0
   -1.3084    1.3541   -1.2977 H   0  0  0  0  0  0  0  0  0  0  0  0
   -2.4176    0.6387    1.1895 H   0  0  0  0  0  0  0  0  0  0  0  0
   -0.9594   -0.8220    0.8720 H   0  0  0  0  0  0  0  0  0  0  0  0
   -2.0712   -1.9479   -0.6826 H   0  0  0  0  0  0  0  0  0  0  0  0
  1  2  1  0
  2  3  1  0
  3  4  1  0
  4  5  1  0
  5  6  1  0
  5  7  1  0
  7  8  1  0
  7  3  1  0
  1  9  1  0
  2 10  1  0
  2 11  1  0
  3 12  1  0
  4 13  1  0
  4 14  1  0
  5 15  1  0
  6 16  1  0
  7 17  1  0
  8 18  1  0
M  END
