
     RDKit          3D

 16 17  0  0  0  0  0  0  0  0999 V2000
    2.4050    0.5995   -0.7870 O   0  0  0  0  0  0  0  0  0  0  0  0
    1.8729    0.0525    0.3906 C   0  0  0  0  0  0  0  0  0  0  0  0
    0.3799   -0.0203    0.2320 C   0  0  0  0  0  0  0  0  0  0  0  0
   -0.4546    0.6099    1.0391 C   0  0  0  0  0  0  0  0  0  0  0  0
   -1.8515    0.3389    0.6195 C   0  0  0  0  0  0  0  0  0  0  0  0
   -2.0391    1.0411   -0.7031 O   0  0  0  0  0  0  0  0  0  0  0  0
   -1.8162   -0.4110   -0.5100 C   0  0  0  0  0  0  0  0  0  0  0  0
   -0.3813   -0.7641   -0.7904 C   0  0  0  0  0  0  0  0  0  0  0  0
    3.2647    0.1187   -0.9484 H   0  0  0  0  0  0  0  0  0  0  0  0
    2.2375   -0.9565    0.5903 H   0  0  0  0  0  0  0  0  0  0  0  0
    2.1647    0.7387    1.2034 H   0  0  0  0  0  0  0  0  0  0  0  0
   -0.1648    1.2510    1.9072 H   0  0  0  0  0  0  0  0  0  0  0  0
   -2.6634    0.6795    1.2876 H   0  0  0  0  0  0  0  0  0  0  0  0
   -2.6060   -0.9249   -1.0986 H   0  0  0  0  0  0  0  0  0  0  0  0
   -0.2582   -1.8588   -0.6045 H   0  0  0  0  0  0  0  0  0  0  0  0
   -0.0896   -0.4942   -1.8276 H   0  0  0  0  0  0  0  0  0  0  0  0
  1  2  1  0
  2  3  1  0
  3  4  2  0
  4  5  1  0
  5  6  1  0
  6  7  1  0
  7  8  1  0
  8  3  1  0
  7  5  1  0
  1  9  1  0
  2 10  1  0
  2 11  1  0
  4 12  1  0
  5 13  1  0
  7 14  1  0
  8 15  1  0
  8 16  1  0
M  END
