
     RDKit          3D

 21 22  0  0  0  0  0  0  0  0999 V2000
    2.8839   -0.9227   -0.2086 O   0  0  0  0  0  0  0  0  0  0  0  0
    2.0506    0.1497   -0.0213 C   0  0  0  0  0  0  0  0  0  0  0  0
    0.6690   -0.0419   -0.5816 C   0  0  0  0  0  0  0  0  0  0  0  0
   -0.1109    1.2481   -0.2798 C   0  0  0  0  0  0  0  0  0  0  0  0
   -1.3005    0.7260    0.4533 C   0  0  0  0  0  0  0  0  0  0  0  0
   -2.0471   -0.1943   -0.5228 C   0  0  0  0  0  0  0  0  0  0  0  0
   -1.2691   -1.3421   -0.6332 O   0  0  0  0  0  0  0  0  0  0  0  0
   -0.1032   -1.1307    0.0938 C   0  0  0  0  0  0  0  0  0  0  0  0
   -0.6715   -0.3710    1.3078 C   0  0  0  0  0  0  0  0  0  0  0  0
    2.7578   -1.3868   -1.0752 H   0  0  0  0  0  0  0  0  0  0  0  0
    1.9627    0.3391    1.0607 H   0  0  0  0  0  0  0  0  0  0  0  0
    2.4489    1.1006   -0.4672 H   0  0  0  0  0  0  0  0  0  0  0  0
    0.7026   -0.1666   -1.6689 H   0  0  0  0  0  0  0  0  0  0  0  0
    0.4679    1.9465    0.3282 H   0  0  0  0  0  0  0  0  0  0  0  0
   -0.4043    1.7512   -1.2149 H   0  0  0  0  0  0  0  0  0  0  0  0
   -1.9161    1.4170    0.9761 H   0  0  0  0  0  0  0  0  0  0  0  0
   -3.0665   -0.4175   -0.1476 H   0  0  0  0  0  0  0  0  0  0  0  0
   -2.1589    0.3163   -1.4946 H   0  0  0  0  0  0  0  0  0  0  0  0
    0.4279   -2.0189    0.3556 H   0  0  0  0  0  0  0  0  0  0  0  0
    0.1213   -0.0136    1.9535 H   0  0  0  0  0  0  0  0  0  0  0  0
   -1.4444   -0.9882    1.7867 H   0  0  0  0  0  0  0  0  0  0  0  0
  1  2  1  0
  2  3  1  0
  3  4  1  0
  4  5  1  0
  5  6  1  0
  6  7  1  0
  7  8  1  0
  8  9  1  0
  8  3  1  0
  9  5  1  0
  1 10  1  0
  2 11  1  0
  2 12  1  0
  3 13  1  0
  4 14  1  0
  4 15  1  0
  5 16  1  0
  6 17  1  0
  6 18  1  0
  8 19  1  0
  9 20  1  0
  9 21  1  0
M  END
