
     RDKit          3D

 19 21  0  0  0  0  0  0  0  0999 V2000
    1.1610    1.3860   -0.5884 O   0  0  0  0  0  0  0  0  0  0  0  0
    1.8317    0.2787   -0.1294 C   0  0  0  0  0  0  0  0  0  0  0  0
    1.0026   -0.9551   -0.0133 C   0  0  0  0  0  0  0  0  0  0  0  0
   -0.1895   -1.0095    0.8646 C   0  0  0  0  0  0  0  0  0  0  0  0
   -0.7274    0.3117    1.3170 C   0  0  0  0  0  0  0  0  0  0  0  0
   -1.5926    0.8013    0.1482 C   0  0  0  0  0  0  0  0  0  0  0  0
   -2.5308   -0.1227   -0.2732 O   0  0  0  0  0  0  0  0  0  0  0  0
   -1.2013    0.0634   -0.9645 C   0  0  0  0  0  0  0  0  0  0  0  0
   -0.3334   -1.0895   -0.6229 C   0  0  0  0  0  0  0  0  0  0  0  0
    1.6584    2.1922   -0.2358 H   0  0  0  0  0  0  0  0  0  0  0  0
    2.6494    0.0533   -0.8762 H   0  0  0  0  0  0  0  0  0  0  0  0
    2.3984    0.5020    0.8195 H   0  0  0  0  0  0  0  0  0  0  0  0
    1.6102   -1.9021   -0.0176 H   0  0  0  0  0  0  0  0  0  0  0  0
   -0.4947   -1.9051    1.4094 H   0  0  0  0  0  0  0  0  0  0  0  0
    0.0688    1.0705    1.4570 H   0  0  0  0  0  0  0  0  0  0  0  0
   -1.3351    0.2236    2.2340 H   0  0  0  0  0  0  0  0  0  0  0  0
   -1.8851    1.8602    0.1195 H   0  0  0  0  0  0  0  0  0  0  0  0
   -1.4646    0.2958   -2.0202 H   0  0  0  0  0  0  0  0  0  0  0  0
   -0.6259   -2.0547   -1.0945 H   0  0  0  0  0  0  0  0  0  0  0  0
  1  2  1  0
  2  3  1  0
  3  4  1  0
  4  5  1  0
  5  6  1  0
  6  7  1  0
  7  8  1  0
  8  9  1  0
  9  3  1  0
  9  4  1  0
  8  6  1  0
  1 10  1  0
  2 11  1  0
  2 12  1  0
  3 13  1  0
  4 14  1  0
  5 15  1  0
  5 16  1  0
  6 17  1  0
  8 18  1  0
  9 19  1  0
M  END
