
     RDKit          3D

 19 21  0  0  0  0  0  0  0  0999 V2000
    2.8988    0.1197   -0.3098 O   0  0  0  0  0  0  0  0  0  0  0  0
    1.9624    0.8110    0.4624 C   0  0  0  0  0  0  0  0  0  0  0  0
    0.6052    0.1363    0.4311 C   0  0  0  0  0  0  0  0  0  0  0  0
    0.5978   -1.3037    0.1377 C   0  0  0  0  0  0  0  0  0  0  0  0
    0.0384   -0.3709   -0.8369 C   0  0  0  0  0  0  0  0  0  0  0  0
   -1.4162   -0.0241   -0.7619 C   0  0  0  0  0  0  0  0  0  0  0  0
   -2.2867   -0.4584    0.3333 C   0  0  0  0  0  0  0  0  0  0  0  0
   -1.5214    0.8315    0.4370 C   0  0  0  0  0  0  0  0  0  0  0  0
   -0.3634    0.7575    1.1654 O   0  0  0  0  0  0  0  0  0  0  0  0
    2.6239    0.2064   -1.2555 H   0  0  0  0  0  0  0  0  0  0  0  0
    1.8867    1.8696    0.0974 H   0  0  0  0  0  0  0  0  0  0  0  0
    2.3047    0.7864    1.5163 H   0  0  0  0  0  0  0  0  0  0  0  0
    1.5699   -1.7803   -0.1397 H   0  0  0  0  0  0  0  0  0  0  0  0
   -0.1356   -1.9736    0.6742 H   0  0  0  0  0  0  0  0  0  0  0  0
    0.5624   -0.0455   -1.7566 H   0  0  0  0  0  0  0  0  0  0  0  0
   -1.9067    0.2689   -1.7223 H   0  0  0  0  0  0  0  0  0  0  0  0
   -2.0182   -1.2764    1.0399 H   0  0  0  0  0  0  0  0  0  0  0  0
   -3.3668   -0.3509    0.1928 H   0  0  0  0  0  0  0  0  0  0  0  0
   -2.0351    1.7967    0.2952 H   0  0  0  0  0  0  0  0  0  0  0  0
  1  2  1  0
  2  3  1  0
  3  4  1  0
  4  5  1  0
  5  6  1  0
  6  7  1  0
  7  8  1  0
  8  9  1  0
  5  3  1  0
  8  6  1  0
  9  3  1  0
  1 10  1  0
  2 11  1  0
  2 12  1  0
  4 13  1  0
  4 14  1  0
  5 15  1  0
  6 16  1  0
  7 17  1  0
  7 18  1  0
  8 19  1  0
M  END
