
     RDKit          3D

 21 22  0  0  0  0  0  0  0  0999 V2000
    2.7044    0.2772   -0.7460 O   0  0  0  0  0  0  0  0  0  0  0  0
    1.3723    0.6749   -0.8464 C   0  0  0  0  0  0  0  0  0  0  0  0
    0.6418    0.4177    0.4503 C   0  0  0  0  0  0  0  0  0  0  0  0
    0.6362   -1.0206    0.8493 C   0  0  0  0  0  0  0  0  0  0  0  0
   -0.3826   -1.6079   -0.1076 C   0  0  0  0  0  0  0  0  0  0  0  0
   -1.4962   -0.6086   -0.0312 C   0  0  0  0  0  0  0  0  0  0  0  0
   -1.5641    0.5566   -0.9403 C   0  0  0  0  0  0  0  0  0  0  0  0
   -0.8275    0.7335    0.3141 C   0  0  0  0  0  0  0  0  0  0  0  0
   -1.4017    1.4004    1.3911 O   0  0  0  0  0  0  0  0  0  0  0  0
    2.9957    0.1686    0.1771 H   0  0  0  0  0  0  0  0  0  0  0  0
    1.3792    1.7745   -0.9972 H   0  0  0  0  0  0  0  0  0  0  0  0
    0.8960    0.1740   -1.7080 H   0  0  0  0  0  0  0  0  0  0  0  0
    1.0909    1.0198    1.2453 H   0  0  0  0  0  0  0  0  0  0  0  0
    1.6140   -1.5141    0.7847 H   0  0  0  0  0  0  0  0  0  0  0  0
    0.2107   -1.0881    1.8701 H   0  0  0  0  0  0  0  0  0  0  0  0
   -0.6914   -2.5918    0.3202 H   0  0  0  0  0  0  0  0  0  0  0  0
    0.0274   -1.7695   -1.1030 H   0  0  0  0  0  0  0  0  0  0  0  0
   -2.3871   -0.8993    0.5482 H   0  0  0  0  0  0  0  0  0  0  0  0
   -2.5669    1.0637   -0.9672 H   0  0  0  0  0  0  0  0  0  0  0  0
   -1.1024    0.5026   -1.9254 H   0  0  0  0  0  0  0  0  0  0  0  0
   -1.1488    2.3366    1.4221 H   0  0  0  0  0  0  0  0  0  0  0  0
  1  2  1  0
  2  3  1  0
  3  4  1  0
  4  5  1  0
  5  6  1  0
  6  7  1  0
  7  8  1  0
  8  9  1  0
  8  3  1  0
  8  6  1  0
  1 10  1  0
  2 11  1  0
  2 12  1  0
  3 13  1  0
  4 14  1  0
  4 15  1  0
  5 16  1  0
  5 17  1  0
  6 18  1  0
  7 19  1  0
  7 20  1  0
  9 21  1  0
M  END
