
     RDKit          3D

 21 22  0  0  0  0  0  0  0  0999 V2000
   -2.3195    1.4737   -0.5484 O   0  0  0  0  0  0  0  0  0  0  0  0
   -1.3154    1.2110    0.3811 C   0  0  0  0  0  0  0  0  0  0  0  0
   -0.5472   -0.0325    0.0274 C   0  0  0  0  0  0  0  0  0  0  0  0
    0.5722   -0.5158    0.8691 C   0  0  0  0  0  0  0  0  0  0  0  0
    1.7394    0.3507    1.1035 C   0  0  0  0  0  0  0  0  0  0  0  0
    2.2661   -0.3874   -0.0813 C   0  0  0  0  0  0  0  0  0  0  0  0
    1.3942   -1.4182    0.1961 O   0  0  0  0  0  0  0  0  0  0  0  0
   -1.5028   -1.1885   -0.4138 C   0  0  0  0  0  0  0  0  0  0  0  0
   -0.5960   -0.5352   -1.3933 C   0  0  0  0  0  0  0  0  0  0  0  0
   -1.9421    2.1126   -1.2101 H   0  0  0  0  0  0  0  0  0  0  0  0
   -1.8061    1.0268    1.3790 H   0  0  0  0  0  0  0  0  0  0  0  0
   -0.7072    2.1042    0.4876 H   0  0  0  0  0  0  0  0  0  0  0  0
    0.1647   -1.0401    1.7865 H   0  0  0  0  0  0  0  0  0  0  0  0
    1.6550    1.4276    0.8984 H   0  0  0  0  0  0  0  0  0  0  0  0
    2.2689    0.1559    2.0386 H   0  0  0  0  0  0  0  0  0  0  0  0
    3.3470   -0.6232    0.0664 H   0  0  0  0  0  0  0  0  0  0  0  0
    2.0499    0.1101   -1.0436 H   0  0  0  0  0  0  0  0  0  0  0  0
   -1.3052   -2.1921   -0.0266 H   0  0  0  0  0  0  0  0  0  0  0  0
   -2.5643   -0.9610   -0.5328 H   0  0  0  0  0  0  0  0  0  0  0  0
   -1.0482    0.1109   -2.1870 H   0  0  0  0  0  0  0  0  0  0  0  0
    0.1965   -1.1894   -1.7968 H   0  0  0  0  0  0  0  0  0  0  0  0
  1  2  1  0
  2  3  1  0
  3  4  1  0
  4  5  1  0
  5  6  1  0
  6  7  1  0
  3  8  1  0
  8  9  1  0
  9  3  1  0
  7  4  1  0
  1 10  1  0
  2 11  1  0
  2 12  1  0
  4 13  1  0
  5 14  1  0
  5 15  1  0
  6 16  1  0
  6 17  1  0
  8 18  1  0
  8 19  1  0
  9 20  1  0
  9 21  1  0
M  END
