
     RDKit          3D

 19 21  0  0  0  0  0  0  0  0999 V2000
   -2.9497    0.5313   -0.7459 O   0  0  0  0  0  0  0  0  0  0  0  0
   -2.0866   -0.3470   -0.0446 C   0  0  0  0  0  0  0  0  0  0  0  0
   -0.7584    0.2562   -0.0347 C   0  0  0  0  0  0  0  0  0  0  0  0
    0.3856   -0.4374    0.6385 C   0  0  0  0  0  0  0  0  0  0  0  0
    0.4109   -1.3773   -0.5272 C   0  0  0  0  0  0  0  0  0  0  0  0
    0.2069   -0.0190   -1.1514 C   0  0  0  0  0  0  0  0  0  0  0  0
    1.2343    0.4621   -0.2016 C   0  0  0  0  0  0  0  0  0  0  0  0
    2.5347    0.7378   -0.2355 C   0  0  0  0  0  0  0  0  0  0  0  0
    1.4804    1.7658    0.0938 O   0  0  0  0  0  0  0  0  0  0  0  0
   -2.8857    1.3983   -0.2462 H   0  0  0  0  0  0  0  0  0  0  0  0
   -2.2238   -1.3197   -0.5054 H   0  0  0  0  0  0  0  0  0  0  0  0
   -2.4731   -0.4004    1.0147 H   0  0  0  0  0  0  0  0  0  0  0  0
   -0.7802    1.3330    0.2201 H   0  0  0  0  0  0  0  0  0  0  0  0
    0.4877   -0.6554    1.6093 H   0  0  0  0  0  0  0  0  0  0  0  0
   -0.3652   -2.1220   -0.6296 H   0  0  0  0  0  0  0  0  0  0  0  0
    1.4033   -1.8141   -0.7748 H   0  0  0  0  0  0  0  0  0  0  0  0
    0.0858    0.1813   -2.1249 H   0  0  0  0  0  0  0  0  0  0  0  0
    3.0850    1.1462   -1.1030 H   0  0  0  0  0  0  0  0  0  0  0  0
    3.2082    0.6803    0.6705 H   0  0  0  0  0  0  0  0  0  0  0  0
  1  2  1  0
  2  3  1  0
  3  4  1  0
  4  5  1  0
  5  6  1  0
  6  7  1  0
  7  8  1  0
  8  9  1  0
  6  3  1  0
  9  7  1  0
  7  4  1  0
  1 10  1  0
  2 11  1  0
  2 12  1  0
  3 13  1  0
  4 14  1  0
  5 15  1  0
  5 16  1  0
  6 17  1  0
  8 18  1  0
  8 19  1  0
M  END
