
     RDKit          3D

 19 20  0  0  0  0  0  0  0  0999 V2000
   -2.3651   -0.9099   -0.7526 O   0  0  0  0  0  0  0  0  0  0  0  0
   -1.5053    0.1712   -0.6831 C   0  0  0  0  0  0  0  0  0  0  0  0
   -0.6351    0.0642    0.5293 C   0  0  0  0  0  0  0  0  0  0  0  0
    0.2153   -1.1822    0.5417 C   0  0  0  0  0  0  0  0  0  0  0  0
    1.2248   -1.0152   -0.5368 C   0  0  0  0  0  0  0  0  0  0  0  0
    1.6450    0.0816    0.3870 C   0  0  0  0  0  0  0  0  0  0  0  0
    1.2443   -0.7854    1.4328 O   0  0  0  0  0  0  0  0  0  0  0  0
    0.5171    1.0839    0.4343 C   0  0  0  0  0  0  0  0  0  0  0  0
    0.4127    1.8610   -0.6810 O   0  0  0  0  0  0  0  0  0  0  0  0
   -2.7800   -1.0784    0.1249 H   0  0  0  0  0  0  0  0  0  0  0  0
   -0.9426    0.1932   -1.6366 H   0  0  0  0  0  0  0  0  0  0  0  0
   -2.0560    1.1321   -0.6162 H   0  0  0  0  0  0  0  0  0  0  0  0
   -1.2360    0.2081    1.4244 H   0  0  0  0  0  0  0  0  0  0  0  0
   -0.2455   -2.1265    0.7236 H   0  0  0  0  0  0  0  0  0  0  0  0
    0.8789   -0.7345   -1.5332 H   0  0  0  0  0  0  0  0  0  0  0  0
    1.9613   -1.8230   -0.5530 H   0  0  0  0  0  0  0  0  0  0  0  0
    2.6527    0.4264    0.3975 H   0  0  0  0  0  0  0  0  0  0  0  0
    0.5805    1.6158    1.3859 H   0  0  0  0  0  0  0  0  0  0  0  0
    0.4332    2.8179   -0.3889 H   0  0  0  0  0  0  0  0  0  0  0  0
  1  2  1  0
  2  3  1  0
  3  4  1  0
  4  5  1  0
  5  6  1  0
  6  7  1  0
  6  8  1  0
  8  9  1  0
  8  3  1  0
  7  4  1  0
  1 10  1  0
  2 11  1  0
  2 12  1  0
  3 13  1  0
  4 14  1  0
  5 15  1  0
  5 16  1  0
  6 17  1  0
  8 18  1  0
  9 19  1  0
M  END
