
     RDKit          3D

 23 23  0  0  0  0  0  0  0  0999 V2000
    2.7619   -0.1348    0.8980 O   0  0  0  0  0  0  0  0  0  0  0  0
    2.5241    0.3876   -0.3502 C   0  0  0  0  0  0  0  0  0  0  0  0
    1.0152    0.4429   -0.5767 C   0  0  0  0  0  0  0  0  0  0  0  0
    0.5160   -0.9779   -0.5126 C   0  0  0  0  0  0  0  0  0  0  0  0
   -0.9472   -1.1153   -0.7661 C   0  0  0  0  0  0  0  0  0  0  0  0
   -1.8103   -0.8386    0.4272 C   0  0  0  0  0  0  0  0  0  0  0  0
   -1.6092    0.4792    1.0604 C   0  0  0  0  0  0  0  0  0  0  0  0
   -0.8755    1.4860    0.2332 C   0  0  0  0  0  0  0  0  0  0  0  0
    0.4897    1.2504    0.4057 O   0  0  0  0  0  0  0  0  0  0  0  0
    2.0406    0.0859    1.5323 H   0  0  0  0  0  0  0  0  0  0  0  0
    2.9227    1.4260   -0.4627 H   0  0  0  0  0  0  0  0  0  0  0  0
    3.0306   -0.2074   -1.1411 H   0  0  0  0  0  0  0  0  0  0  0  0
    0.8399    0.8268   -1.5858 H   0  0  0  0  0  0  0  0  0  0  0  0
    0.8224   -1.4978    0.4178 H   0  0  0  0  0  0  0  0  0  0  0  0
    1.0461   -1.5251   -1.3482 H   0  0  0  0  0  0  0  0  0  0  0  0
   -1.1296   -2.1961   -1.0432 H   0  0  0  0  0  0  0  0  0  0  0  0
   -1.2425   -0.5342   -1.6476 H   0  0  0  0  0  0  0  0  0  0  0  0
   -2.8717   -0.9076    0.0833 H   0  0  0  0  0  0  0  0  0  0  0  0
   -1.6637   -1.6717    1.1572 H   0  0  0  0  0  0  0  0  0  0  0  0
   -2.5693    0.9171    1.4007 H   0  0  0  0  0  0  0  0  0  0  0  0
   -1.0111    0.3243    2.0046 H   0  0  0  0  0  0  0  0  0  0  0  0
   -1.1406    2.4988    0.6409 H   0  0  0  0  0  0  0  0  0  0  0  0
   -1.1384    1.4815   -0.8273 H   0  0  0  0  0  0  0  0  0  0  0  0
  1  2  1  0
  2  3  1  0
  3  4  1  0
  4  5  1  0
  5  6  1  0
  6  7  1  0
  7  8  1  0
  8  9  1  0
  9  3  1  0
  1 10  1  0
  2 11  1  0
  2 12  1  0
  3 13  1  0
  4 14  1  0
  4 15  1  0
  5 16  1  0
  5 17  1  0
  6 18  1  0
  6 19  1  0
  7 20  1  0
  7 21  1  0
  8 22  1  0
  8 23  1  0
M  END
