
     RDKit          3D

 19 20  0  0  0  0  0  0  0  0999 V2000
    2.3633    0.3715   -1.1479 O   0  0  0  0  0  0  0  0  0  0  0  0
    1.9405    0.1912    0.1893 C   0  0  0  0  0  0  0  0  0  0  0  0
    0.4826    0.5172    0.2290 C   0  0  0  0  0  0  0  0  0  0  0  0
   -0.1445    0.3825    1.5721 C   0  0  0  0  0  0  0  0  0  0  0  0
   -1.4878    0.1411    1.2708 O   0  0  0  0  0  0  0  0  0  0  0  0
   -1.5320   -0.6837    0.1784 C   0  0  0  0  0  0  0  0  0  0  0  0
   -2.1219   -0.1033   -1.0629 C   0  0  0  0  0  0  0  0  0  0  0  0
   -0.8792    0.0768   -1.6647 O   0  0  0  0  0  0  0  0  0  0  0  0
   -0.2484   -0.5082   -0.5956 C   0  0  0  0  0  0  0  0  0  0  0  0
    3.3200    0.2063   -1.2587 H   0  0  0  0  0  0  0  0  0  0  0  0
    2.1449   -0.8745    0.4433 H   0  0  0  0  0  0  0  0  0  0  0  0
    2.5650    0.8925    0.7974 H   0  0  0  0  0  0  0  0  0  0  0  0
    0.3553    1.5477   -0.1573 H   0  0  0  0  0  0  0  0  0  0  0  0
   -0.0932    1.3842    2.0698 H   0  0  0  0  0  0  0  0  0  0  0  0
    0.2832   -0.3853    2.2188 H   0  0  0  0  0  0  0  0  0  0  0  0
   -1.8352   -1.7358    0.3562 H   0  0  0  0  0  0  0  0  0  0  0  0
   -2.6691    0.8432   -0.9682 H   0  0  0  0  0  0  0  0  0  0  0  0
   -2.7202   -0.8109   -1.6980 H   0  0  0  0  0  0  0  0  0  0  0  0
    0.2769   -1.4527   -0.7721 H   0  0  0  0  0  0  0  0  0  0  0  0
  1  2  1  0
  2  3  1  0
  3  4  1  0
  4  5  1  0
  5  6  1  0
  6  7  1  0
  7  8  1  0
  8  9  1  0
  9  3  1  0
  9  6  1  0
  1 10  1  0
  2 11  1  0
  2 12  1  0
  3 13  1  0
  4 14  1  0
  4 15  1  0
  6 16  1  0
  7 17  1  0
  7 18  1  0
  9 19  1  0
M  END
