
     RDKit          3D

 19 20  0  0  0  0  0  0  0  0999 V2000
    3.0891    0.5115    0.5625 O   0  0  0  0  0  0  0  0  0  0  0  0
    2.1254   -0.4670    0.3608 C   0  0  0  0  0  0  0  0  0  0  0  0
    1.1239    0.0238   -0.6947 C   0  0  0  0  0  0  0  0  0  0  0  0
    0.4840    1.1920   -0.3058 O   0  0  0  0  0  0  0  0  0  0  0  0
   -0.1980   -0.1191   -0.4967 C   0  0  0  0  0  0  0  0  0  0  0  0
   -1.4159    0.1009   -1.3017 C   0  0  0  0  0  0  0  0  0  0  0  0
   -2.0887    0.5017    0.0132 C   0  0  0  0  0  0  0  0  0  0  0  0
   -1.0457   -0.4111    0.6787 C   0  0  0  0  0  0  0  0  0  0  0  0
   -0.6193    0.0377    1.9108 O   0  0  0  0  0  0  0  0  0  0  0  0
    3.0817    1.1032   -0.2280 H   0  0  0  0  0  0  0  0  0  0  0  0
    2.5364   -1.4502    0.1016 H   0  0  0  0  0  0  0  0  0  0  0  0
    1.6049   -0.5944    1.3442 H   0  0  0  0  0  0  0  0  0  0  0  0
    1.5883    0.0173   -1.7080 H   0  0  0  0  0  0  0  0  0  0  0  0
   -1.8760   -0.8752   -1.6306 H   0  0  0  0  0  0  0  0  0  0  0  0
   -1.4163    0.8903   -2.0630 H   0  0  0  0  0  0  0  0  0  0  0  0
   -3.1174    0.1642    0.1210 H   0  0  0  0  0  0  0  0  0  0  0  0
   -1.8948    1.5840    0.1941 H   0  0  0  0  0  0  0  0  0  0  0  0
   -1.4460   -1.4473    0.6413 H   0  0  0  0  0  0  0  0  0  0  0  0
   -0.5153   -0.7623    2.5003 H   0  0  0  0  0  0  0  0  0  0  0  0
  1  2  1  0
  2  3  1  0
  3  4  1  0
  4  5  1  0
  5  6  1  0
  6  7  1  0
  7  8  1  0
  8  9  1  0
  5  3  1  0
  8  5  1  0
  1 10  1  0
  2 11  1  0
  2 12  1  0
  3 13  1  0
  6 14  1  0
  6 15  1  0
  7 16  1  0
  7 17  1  0
  8 18  1  0
  9 19  1  0
M  END
