
     RDKit          3D

 21 21  0  0  0  0  0  0  0  0999 V2000
   -2.8627    0.6910    0.7402 O   0  0  0  0  0  0  0  0  0  0  0  0
   -2.3592   -0.3834   -0.0281 C   0  0  0  0  0  0  0  0  0  0  0  0
   -0.8617   -0.4052    0.2404 C   0  0  0  0  0  0  0  0  0  0  0  0
   -0.3342    0.9279   -0.2195 C   0  0  0  0  0  0  0  0  0  0  0  0
    1.1447    1.0481   -0.1350 C   0  0  0  0  0  0  0  0  0  0  0  0
    1.8914   -0.2339   -0.2494 C   0  0  0  0  0  0  0  0  0  0  0  0
    2.9303   -0.1988    0.7102 O   0  0  0  0  0  0  0  0  0  0  0  0
    1.0943   -1.4600    0.0079 C   0  0  0  0  0  0  0  0  0  0  0  0
   -0.2110   -1.4080   -0.4421 O   0  0  0  0  0  0  0  0  0  0  0  0
   -3.8215    0.8115    0.6095 H   0  0  0  0  0  0  0  0  0  0  0  0
   -2.8526   -1.3138    0.2725 H   0  0  0  0  0  0  0  0  0  0  0  0
   -2.4764   -0.1296   -1.0992 H   0  0  0  0  0  0  0  0  0  0  0  0
   -0.7461   -0.5416    1.3443 H   0  0  0  0  0  0  0  0  0  0  0  0
   -0.7388    1.0789   -1.2618 H   0  0  0  0  0  0  0  0  0  0  0  0
   -0.8726    1.7041    0.4001 H   0  0  0  0  0  0  0  0  0  0  0  0
    1.4660    1.7724   -0.9401 H   0  0  0  0  0  0  0  0  0  0  0  0
    1.3806    1.5985    0.8213 H   0  0  0  0  0  0  0  0  0  0  0  0
    2.3632   -0.2720   -1.2623 H   0  0  0  0  0  0  0  0  0  0  0  0
    3.1856    0.7285    0.8892 H   0  0  0  0  0  0  0  0  0  0  0  0
    1.5926   -2.3348   -0.4765 H   0  0  0  0  0  0  0  0  0  0  0  0
    1.0882   -1.6799    1.1086 H   0  0  0  0  0  0  0  0  0  0  0  0
  1  2  1  0
  2  3  1  0
  3  4  1  0
  4  5  1  0
  5  6  1  0
  6  7  1  0
  6  8  1  0
  8  9  1  0
  9  3  1  0
  1 10  1  0
  2 11  1  0
  2 12  1  0
  3 13  1  0
  4 14  1  0
  4 15  1  0
  5 16  1  0
  5 17  1  0
  6 18  1  0
  7 19  1  0
  8 20  1  0
  8 21  1  0
M  END
