
     RDKit          3D

 19 20  0  0  0  0  0  0  0  0999 V2000
    2.4880    0.9730   -0.7081 O   0  0  0  0  0  0  0  0  0  0  0  0
    1.8205    0.4210    0.4108 C   0  0  0  0  0  0  0  0  0  0  0  0
    0.4548    0.0056   -0.0896 C   0  0  0  0  0  0  0  0  0  0  0  0
   -0.4440    1.0255   -0.6584 C   0  0  0  0  0  0  0  0  0  0  0  0
   -1.7068    1.0562   -0.2866 C   0  0  0  0  0  0  0  0  0  0  0  0
   -2.2635    0.0691    0.7128 C   0  0  0  0  0  0  0  0  0  0  0  0
   -1.6192   -1.1292    0.4486 O   0  0  0  0  0  0  0  0  0  0  0  0
   -0.2610   -1.1040    0.5601 C   0  0  0  0  0  0  0  0  0  0  0  0
    0.4664   -1.3644   -0.7574 C   0  0  0  0  0  0  0  0  0  0  0  0
    3.3142    0.4935   -0.9192 H   0  0  0  0  0  0  0  0  0  0  0  0
    1.7949    1.1955    1.1772 H   0  0  0  0  0  0  0  0  0  0  0  0
    2.4157   -0.4635    0.7168 H   0  0  0  0  0  0  0  0  0  0  0  0
   -0.0810    1.7381   -1.3677 H   0  0  0  0  0  0  0  0  0  0  0  0
   -2.4044    1.7795   -0.6710 H   0  0  0  0  0  0  0  0  0  0  0  0
   -3.3460   -0.0943    0.5301 H   0  0  0  0  0  0  0  0  0  0  0  0
   -2.0295    0.3550    1.7428 H   0  0  0  0  0  0  0  0  0  0  0  0
    0.1656   -1.5141    1.4909 H   0  0  0  0  0  0  0  0  0  0  0  0
   -0.1108   -1.4373   -1.6824 H   0  0  0  0  0  0  0  0  0  0  0  0
    1.3462   -2.0052   -0.6500 H   0  0  0  0  0  0  0  0  0  0  0  0
  1  2  1  0
  2  3  1  0
  3  4  1  0
  4  5  2  0
  5  6  1  0
  6  7  1  0
  7  8  1  0
  8  9  1  0
  8  3  1  0
  9  3  1  0
  1 10  1  0
  2 11  1  0
  2 12  1  0
  4 13  1  0
  5 14  1  0
  6 15  1  0
  6 16  1  0
  8 17  1  0
  9 18  1  0
  9 19  1  0
M  END
