
     RDKit          3D

 21 23  0  0  0  0  0  0  0  0999 V2000
    2.6122   -1.0586    1.0472 O   0  0  0  0  0  0  0  0  0  0  0  0
    1.6832   -1.3014    0.0108 C   0  0  0  0  0  0  0  0  0  0  0  0
    0.6852   -0.1882   -0.0339 C   0  0  0  0  0  0  0  0  0  0  0  0
   -0.1134    0.0034    1.2185 C   0  0  0  0  0  0  0  0  0  0  0  0
   -1.3557    0.7517    0.8790 C   0  0  0  0  0  0  0  0  0  0  0  0
   -2.4627   -0.0199    0.2583 C   0  0  0  0  0  0  0  0  0  0  0  0
   -1.5078    0.6539   -0.6421 C   0  0  0  0  0  0  0  0  0  0  0  0
   -0.2535    0.0240   -1.1256 C   0  0  0  0  0  0  0  0  0  0  0  0
    0.9735    0.9196   -0.9675 C   0  0  0  0  0  0  0  0  0  0  0  0
    3.2028   -0.2814    0.8073 H   0  0  0  0  0  0  0  0  0  0  0  0
    1.2160   -2.2748    0.2551 H   0  0  0  0  0  0  0  0  0  0  0  0
    2.2620   -1.4167   -0.9276 H   0  0  0  0  0  0  0  0  0  0  0  0
    0.4553    0.4635    2.0483 H   0  0  0  0  0  0  0  0  0  0  0  0
   -0.3855   -1.0304    1.5855 H   0  0  0  0  0  0  0  0  0  0  0  0
   -1.5382    1.7476    1.3281 H   0  0  0  0  0  0  0  0  0  0  0  0
   -3.4674    0.4870    0.3302 H   0  0  0  0  0  0  0  0  0  0  0  0
   -2.5412   -1.1054    0.3410 H   0  0  0  0  0  0  0  0  0  0  0  0
   -1.8102    1.6161   -1.1472 H   0  0  0  0  0  0  0  0  0  0  0  0
   -0.2589   -0.7179   -1.9492 H   0  0  0  0  0  0  0  0  0  0  0  0
    1.7628    0.7670   -1.7049 H   0  0  0  0  0  0  0  0  0  0  0  0
    0.8415    1.9609   -0.6488 H   0  0  0  0  0  0  0  0  0  0  0  0
  1  2  1  0
  2  3  1  0
  3  4  1  0
  4  5  1  0
  5  6  1  0
  6  7  1  0
  7  8  1  0
  8  9  1  0
  8  3  1  0
  9  3  1  0
  7  5  1  0
  1 10  1  0
  2 11  1  0
  2 12  1  0
  4 13  1  0
  4 14  1  0
  5 15  1  0
  6 16  1  0
  6 17  1  0
  7 18  1  0
  8 19  1  0
  9 20  1  0
  9 21  1  0
M  END
