
     RDKit          3D

 17 19  0  0  0  0  0  0  0  0999 V2000
    2.3958    0.7805   -0.7128 O   0  0  0  0  0  0  0  0  0  0  0  0
    1.6476    0.3061    0.3910 C   0  0  0  0  0  0  0  0  0  0  0  0
    0.2668    0.0777   -0.0623 C   0  0  0  0  0  0  0  0  0  0  0  0
   -0.5905    1.2843   -0.3549 C   0  0  0  0  0  0  0  0  0  0  0  0
   -1.8981    0.9361   -0.1175 O   0  0  0  0  0  0  0  0  0  0  0  0
   -1.9660   -0.4076    0.1867 C   0  0  0  0  0  0  0  0  0  0  0  0
   -0.9958   -1.3591   -0.4492 C   0  0  0  0  0  0  0  0  0  0  0  0
    0.1261   -0.8501   -1.0911 O   0  0  0  0  0  0  0  0  0  0  0  0
   -0.6648   -0.7079    0.7969 C   0  0  0  0  0  0  0  0  0  0  0  0
    3.2042    0.2243   -0.8451 H   0  0  0  0  0  0  0  0  0  0  0  0
    1.7561    1.0125    1.2108 H   0  0  0  0  0  0  0  0  0  0  0  0
    2.0856   -0.6740    0.6877 H   0  0  0  0  0  0  0  0  0  0  0  0
   -0.4961    1.5028   -1.4474 H   0  0  0  0  0  0  0  0  0  0  0  0
   -0.2624    2.1882    0.2013 H   0  0  0  0  0  0  0  0  0  0  0  0
   -2.8984   -0.7841    0.5768 H   0  0  0  0  0  0  0  0  0  0  0  0
   -1.2537   -2.4201   -0.5544 H   0  0  0  0  0  0  0  0  0  0  0  0
   -0.4564   -1.1097    1.7513 H   0  0  0  0  0  0  0  0  0  0  0  0
  1  2  1  0
  2  3  1  0
  3  4  1  0
  4  5  1  0
  5  6  1  0
  6  7  1  0
  7  8  1  0
  7  9  1  0
  8  3  1  0
  9  3  1  0
  9  6  1  0
  1 10  1  0
  2 11  1  0
  2 12  1  0
  4 13  1  0
  4 14  1  0
  6 15  1  0
  7 16  1  0
  9 17  1  0
M  END
