
     RDKit          3D

 21 22  0  0  0  0  0  0  0  0999 V2000
    3.1008    0.4073   -0.4270 O   0  0  0  0  0  0  0  0  0  0  0  0
    2.0627   -0.4029   -0.0094 C   0  0  0  0  0  0  0  0  0  0  0  0
    0.8123    0.4111    0.3181 C   0  0  0  0  0  0  0  0  0  0  0  0
    0.4594    1.0672   -0.8351 O   0  0  0  0  0  0  0  0  0  0  0  0
   -0.9055    1.2738   -0.9664 C   0  0  0  0  0  0  0  0  0  0  0  0
   -1.6794    0.0756   -0.5254 C   0  0  0  0  0  0  0  0  0  0  0  0
   -1.5696    0.0268    1.0056 C   0  0  0  0  0  0  0  0  0  0  0  0
   -0.2159   -0.5917    0.7767 C   0  0  0  0  0  0  0  0  0  0  0  0
   -0.8087   -1.1896   -0.4935 C   0  0  0  0  0  0  0  0  0  0  0  0
    3.6473    0.6470    0.3483 H   0  0  0  0  0  0  0  0  0  0  0  0
    1.8378   -1.1817   -0.7674 H   0  0  0  0  0  0  0  0  0  0  0  0
    2.4164   -0.9616    0.8983 H   0  0  0  0  0  0  0  0  0  0  0  0
    1.0686    1.1512    1.0847 H   0  0  0  0  0  0  0  0  0  0  0  0
   -1.1129    1.5853   -2.0065 H   0  0  0  0  0  0  0  0  0  0  0  0
   -1.1675    2.1242   -0.3042 H   0  0  0  0  0  0  0  0  0  0  0  0
   -2.6710   -0.0822   -0.9264 H   0  0  0  0  0  0  0  0  0  0  0  0
   -1.5875    1.0163    1.4633 H   0  0  0  0  0  0  0  0  0  0  0  0
   -2.2526   -0.7330    1.4332 H   0  0  0  0  0  0  0  0  0  0  0  0
    0.1452   -1.2977    1.5155 H   0  0  0  0  0  0  0  0  0  0  0  0
   -1.4590   -2.0493   -0.2573 H   0  0  0  0  0  0  0  0  0  0  0  0
   -0.1210   -1.2961   -1.3249 H   0  0  0  0  0  0  0  0  0  0  0  0
  1  2  1  0
  2  3  1  0
  3  4  1  0
  4  5  1  0
  5  6  1  0
  6  7  1  0
  7  8  1  0
  8  9  1  0
  8  3  1  0
  9  6  1  0
  1 10  1  0
  2 11  1  0
  2 12  1  0
  3 13  1  0
  5 14  1  0
  5 15  1  0
  6 16  1  0
  7 17  1  0
  7 18  1  0
  8 19  1  0
  9 20  1  0
  9 21  1  0
M  END
