
     RDKit          3D

 19 20  0  0  0  0  0  0  0  0999 V2000
    2.6341    0.7494   -1.2288 O   0  0  0  0  0  0  0  0  0  0  0  0
    2.1280    0.0282   -0.1734 C   0  0  0  0  0  0  0  0  0  0  0  0
    0.6521   -0.0677   -0.1870 C   0  0  0  0  0  0  0  0  0  0  0  0
   -0.2180    0.4528   -1.0838 C   0  0  0  0  0  0  0  0  0  0  0  0
   -1.5482    0.2188   -0.4624 C   0  0  0  0  0  0  0  0  0  0  0  0
   -1.5119    0.9015    0.8917 C   0  0  0  0  0  0  0  0  0  0  0  0
   -0.7154    0.1035    1.7199 O   0  0  0  0  0  0  0  0  0  0  0  0
   -0.1099   -0.8081    0.8701 C   0  0  0  0  0  0  0  0  0  0  0  0
   -1.3325   -1.2245    0.0242 C   0  0  0  0  0  0  0  0  0  0  0  0
    3.6024    0.9024   -1.0426 H   0  0  0  0  0  0  0  0  0  0  0  0
    2.3975    0.5940    0.7631 H   0  0  0  0  0  0  0  0  0  0  0  0
    2.5499   -0.9999   -0.1478 H   0  0  0  0  0  0  0  0  0  0  0  0
    0.0542    0.9180   -2.0185 H   0  0  0  0  0  0  0  0  0  0  0  0
   -2.4034    0.3725   -1.0583 H   0  0  0  0  0  0  0  0  0  0  0  0
   -0.9406    1.8582    0.7558 H   0  0  0  0  0  0  0  0  0  0  0  0
   -2.5093    1.0865    1.2971 H   0  0  0  0  0  0  0  0  0  0  0  0
    0.4002   -1.6243    1.3207 H   0  0  0  0  0  0  0  0  0  0  0  0
   -2.1490   -1.5814    0.6396 H   0  0  0  0  0  0  0  0  0  0  0  0
   -0.9802   -1.8796   -0.7632 H   0  0  0  0  0  0  0  0  0  0  0  0
  1  2  1  0
  2  3  1  0
  3  4  2  0
  4  5  1  0
  5  6  1  0
  6  7  1  0
  7  8  1  0
  8  9  1  0
  8  3  1  0
  9  5  1  0
  1 10  1  0
  2 11  1  0
  2 12  1  0
  4 13  1  0
  5 14  1  0
  6 15  1  0
  6 16  1  0
  8 17  1  0
  9 18  1  0
  9 19  1  0
M  END
