
     RDKit          3D

 19 20  0  0  0  0  0  0  0  0999 V2000
    1.6205   -2.2684   -0.4144 O   0  0  0  0  0  0  0  0  0  0  0  0
    1.5618   -1.0519    0.2583 C   0  0  0  0  0  0  0  0  0  0  0  0
    0.8143   -0.0308   -0.5895 C   0  0  0  0  0  0  0  0  0  0  0  0
    0.6353    1.3598   -0.0466 C   0  0  0  0  0  0  0  0  0  0  0  0
    0.6138    2.4207   -0.9823 O   0  0  0  0  0  0  0  0  0  0  0  0
   -0.4503    0.4479   -0.0472 C   0  0  0  0  0  0  0  0  0  0  0  0
   -1.7267    0.5078   -0.7813 C   0  0  0  0  0  0  0  0  0  0  0  0
   -1.9204   -0.7449    0.0542 C   0  0  0  0  0  0  0  0  0  0  0  0
   -1.0581   -0.1797    1.0037 O   0  0  0  0  0  0  0  0  0  0  0  0
    2.4552   -2.2433   -0.9796 H   0  0  0  0  0  0  0  0  0  0  0  0
    1.0649   -1.1728    1.2371 H   0  0  0  0  0  0  0  0  0  0  0  0
    2.6167   -0.6973    0.4460 H   0  0  0  0  0  0  0  0  0  0  0  0
    0.8314   -0.1875   -1.7016 H   0  0  0  0  0  0  0  0  0  0  0  0
    1.1959    1.5812    0.8770 H   0  0  0  0  0  0  0  0  0  0  0  0
    0.1850    3.1810   -0.4990 H   0  0  0  0  0  0  0  0  0  0  0  0
   -1.6959    0.3364   -1.8731 H   0  0  0  0  0  0  0  0  0  0  0  0
   -2.4080    1.2999   -0.4534 H   0  0  0  0  0  0  0  0  0  0  0  0
   -1.3924   -1.6309   -0.3927 H   0  0  0  0  0  0  0  0  0  0  0  0
   -2.9429   -0.9272    0.4028 H   0  0  0  0  0  0  0  0  0  0  0  0
  1  2  1  0
  2  3  1  0
  3  4  1  0
  4  5  1  0
  4  6  1  0
  6  7  1  0
  7  8  1  0
  8  9  1  0
  6  3  1  0
  9  6  1  0
  1 10  1  0
  2 11  1  0
  2 12  1  0
  3 13  1  0
  4 14  1  0
  5 15  1  0
  7 16  1  0
  7 17  1  0
  8 18  1  0
  8 19  1  0
M  END
