
     RDKit          3D

 18 18  0  0  0  0  0  0  0  0999 V2000
    1.8339   -0.5144   -1.0132 O   0  0  0  0  0  0  0  0  0  0  0  0
    1.4728    0.6389   -0.3352 C   0  0  0  0  0  0  0  0  0  0  0  0
    0.1038    0.5236    0.3015 C   0  0  0  0  0  0  0  0  0  0  0  0
   -0.2839    1.6552    0.9836 O   0  0  0  0  0  0  0  0  0  0  0  0
   -0.1596   -0.7333    1.0633 C   0  0  0  0  0  0  0  0  0  0  0  0
   -0.8488   -1.3051   -0.1559 C   0  0  0  0  0  0  0  0  0  0  0  0
   -0.9189    0.0814   -0.7255 C   0  0  0  0  0  0  0  0  0  0  0  0
   -2.1492    0.7259   -0.5959 O   0  0  0  0  0  0  0  0  0  0  0  0
    2.6050   -0.9933   -0.5751 H   0  0  0  0  0  0  0  0  0  0  0  0
    2.2362    0.9710    0.4000 H   0  0  0  0  0  0  0  0  0  0  0  0
    1.3881    1.4882   -1.0749 H   0  0  0  0  0  0  0  0  0  0  0  0
   -0.0247    2.4953    0.5461 H   0  0  0  0  0  0  0  0  0  0  0  0
   -0.8422   -0.6339    1.9377 H   0  0  0  0  0  0  0  0  0  0  0  0
    0.7232   -1.3334    1.3559 H   0  0  0  0  0  0  0  0  0  0  0  0
   -0.1754   -1.9665   -0.7343 H   0  0  0  0  0  0  0  0  0  0  0  0
   -1.8310   -1.7613    0.1293 H   0  0  0  0  0  0  0  0  0  0  0  0
   -0.5489    0.1336   -1.7714 H   0  0  0  0  0  0  0  0  0  0  0  0
   -2.5802    0.5283    0.2643 H   0  0  0  0  0  0  0  0  0  0  0  0
  1  2  1  0
  2  3  1  0
  3  4  1  0
  3  5  1  0
  5  6  1  0
  6  7  1  0
  7  8  1  0
  7  3  1  0
  1  9  1  0
  2 10  1  0
  2 11  1  0
  4 12  1  0
  5 13  1  0
  5 14  1  0
  6 15  1  0
  6 16  1  0
  7 17  1  0
  8 18  1  0
M  END
