
     RDKit          3D

 14 14  0  0  0  0  0  0  0  0999 V2000
    1.6435    1.1468   -0.8496 O   0  0  0  0  0  0  0  0  0  0  0  0
    1.2435   -0.0325   -0.2332 C   0  0  0  0  0  0  0  0  0  0  0  0
   -0.1837    0.1469    0.2158 C   0  0  0  0  0  0  0  0  0  0  0  0
   -0.3441    1.2042    1.1233 O   0  0  0  0  0  0  0  0  0  0  0  0
   -1.3345   -0.2603   -0.5718 C   0  0  0  0  0  0  0  0  0  0  0  0
   -0.8868   -1.1694    0.5259 C   0  0  0  0  0  0  0  0  0  0  0  0
    2.3647    1.6117   -0.3567 H   0  0  0  0  0  0  0  0  0  0  0  0
    1.8486   -0.1739    0.6974 H   0  0  0  0  0  0  0  0  0  0  0  0
    1.4023   -0.9244   -0.8590 H   0  0  0  0  0  0  0  0  0  0  0  0
   -0.4100    2.0187    0.5806 H   0  0  0  0  0  0  0  0  0  0  0  0
   -1.2278   -0.5498   -1.6212 H   0  0  0  0  0  0  0  0  0  0  0  0
   -2.2999    0.2584   -0.3604 H   0  0  0  0  0  0  0  0  0  0  0  0
   -0.3968   -2.1163    0.2135 H   0  0  0  0  0  0  0  0  0  0  0  0
   -1.4189   -1.1601    1.4954 H   0  0  0  0  0  0  0  0  0  0  0  0
  1  2  1  0
  2  3  1  0
  3  4  1  0
  3  5  1  0
  5  6  1  0
  6  3  1  0
  1  7  1  0
  2  8  1  0
  2  9  1  0
  4 10  1  0
  5 11  1  0
  5 12  1  0
  6 13  1  0
  6 14  1  0
M  END
