
     RDKit          3D

 20 21  0  0  0  0  0  0  0  0999 V2000
   -3.0125    0.5360   -0.5242 O   0  0  0  0  0  0  0  0  0  0  0  0
   -1.9380    0.4931    0.3592 C   0  0  0  0  0  0  0  0  0  0  0  0
   -1.2786   -0.8452    0.3649 C   0  0  0  0  0  0  0  0  0  0  0  0
   -0.6776   -1.4428   -0.8258 C   0  0  0  0  0  0  0  0  0  0  0  0
    0.2159   -0.8634    0.2228 C   0  0  0  0  0  0  0  0  0  0  0  0
    0.9730    0.3583   -0.1904 C   0  0  0  0  0  0  0  0  0  0  0  0
    2.4569    0.3225   -0.3187 C   0  0  0  0  0  0  0  0  0  0  0  0
    1.8102    0.9959    0.8547 C   0  0  0  0  0  0  0  0  0  0  0  0
   -2.7600    1.0826   -1.3281 H   0  0  0  0  0  0  0  0  0  0  0  0
   -1.1896    1.2668    0.1080 H   0  0  0  0  0  0  0  0  0  0  0  0
   -2.2887    0.7659    1.3984 H   0  0  0  0  0  0  0  0  0  0  0  0
   -1.7542   -1.5614    1.0960 H   0  0  0  0  0  0  0  0  0  0  0  0
   -0.6299   -2.5471   -0.9032 H   0  0  0  0  0  0  0  0  0  0  0  0
   -0.7437   -0.9399   -1.8007 H   0  0  0  0  0  0  0  0  0  0  0  0
    0.7226   -1.5664    0.9379 H   0  0  0  0  0  0  0  0  0  0  0  0
    0.4834    0.9651   -0.9938 H   0  0  0  0  0  0  0  0  0  0  0  0
    2.9627    1.0091   -1.0123 H   0  0  0  0  0  0  0  0  0  0  0  0
    2.9800   -0.6303   -0.1692 H   0  0  0  0  0  0  0  0  0  0  0  0
    1.7438    2.0996    0.9074 H   0  0  0  0  0  0  0  0  0  0  0  0
    1.9243    0.5016    1.8172 H   0  0  0  0  0  0  0  0  0  0  0  0
  1  2  1  0
  2  3  1  0
  3  4  1  0
  4  5  1  0
  5  6  1  0
  6  7  1  0
  7  8  1  0
  5  3  1  0
  8  6  1  0
  1  9  1  0
  2 10  1  0
  2 11  1  0
  3 12  1  0
  4 13  1  0
  4 14  1  0
  5 15  1  0
  6 16  1  0
  7 17  1  0
  7 18  1  0
  8 19  1  0
  8 20  1  0
M  END
