
     RDKit          3D

 19 20  0  0  0  0  0  0  0  0999 V2000
    2.3935    0.3813    0.6711 O   0  0  0  0  0  0  0  0  0  0  0  0
    2.0751    0.2371   -0.6501 C   0  0  0  0  0  0  0  0  0  0  0  0
    0.7032   -0.3399   -0.8749 C   0  0  0  0  0  0  0  0  0  0  0  0
    0.6154   -1.6056   -0.2851 O   0  0  0  0  0  0  0  0  0  0  0  0
   -0.4192   -1.3150    0.5964 C   0  0  0  0  0  0  0  0  0  0  0  0
   -0.3552   -0.1147    1.4645 C   0  0  0  0  0  0  0  0  0  0  0  0
   -0.3897    0.1239    0.0216 C   0  0  0  0  0  0  0  0  0  0  0  0
   -1.7096    0.5802   -0.5778 C   0  0  0  0  0  0  0  0  0  0  0  0
   -2.5537    0.9600    0.4653 O   0  0  0  0  0  0  0  0  0  0  0  0
    3.3604    0.5599    0.7608 H   0  0  0  0  0  0  0  0  0  0  0  0
    2.2486    1.1676   -1.2258 H   0  0  0  0  0  0  0  0  0  0  0  0
    2.8007   -0.5105   -1.0846 H   0  0  0  0  0  0  0  0  0  0  0  0
    0.3716   -0.3253   -1.9380 H   0  0  0  0  0  0  0  0  0  0  0  0
   -1.3443   -1.8708    0.4762 H   0  0  0  0  0  0  0  0  0  0  0  0
   -1.3126    0.0740    2.0268 H   0  0  0  0  0  0  0  0  0  0  0  0
    0.5250    0.1895    2.0234 H   0  0  0  0  0  0  0  0  0  0  0  0
   -2.1562   -0.1807   -1.2342 H   0  0  0  0  0  0  0  0  0  0  0  0
   -1.4687    1.5317   -1.1344 H   0  0  0  0  0  0  0  0  0  0  0  0
   -3.3843    0.4573    0.4989 H   0  0  0  0  0  0  0  0  0  0  0  0
  1  2  1  0
  2  3  1  0
  3  4  1  0
  4  5  1  0
  5  6  1  0
  6  7  1  0
  7  8  1  0
  8  9  1  0
  7  3  1  0
  7  5  1  0
  1 10  1  0
  2 11  1  0
  2 12  1  0
  3 13  1  0
  5 14  1  0
  6 15  1  0
  6 16  1  0
  8 17  1  0
  8 18  1  0
  9 19  1  0
M  END
