
     RDKit          3D

 19 20  0  0  0  0  0  0  0  0999 V2000
    3.0603   -0.3606    0.0909 O   0  0  0  0  0  0  0  0  0  0  0  0
    2.1927    0.5887   -0.4846 C   0  0  0  0  0  0  0  0  0  0  0  0
    0.8326   -0.0521   -0.6124 C   0  0  0  0  0  0  0  0  0  0  0  0
   -0.0843    0.8318   -1.1772 O   0  0  0  0  0  0  0  0  0  0  0  0
   -0.8518    0.8893   -0.0135 C   0  0  0  0  0  0  0  0  0  0  0  0
   -2.1908    0.2595   -0.1848 C   0  0  0  0  0  0  0  0  0  0  0  0
   -2.0292   -1.0991    0.3919 C   0  0  0  0  0  0  0  0  0  0  0  0
   -0.8161   -1.2945    0.8482 C   0  0  0  0  0  0  0  0  0  0  0  0
    0.0266   -0.1093    0.6539 C   0  0  0  0  0  0  0  0  0  0  0  0
    3.4273   -0.0239    0.9561 H   0  0  0  0  0  0  0  0  0  0  0  0
    2.5800    0.8011   -1.5053 H   0  0  0  0  0  0  0  0  0  0  0  0
    2.1816    1.5181    0.0827 H   0  0  0  0  0  0  0  0  0  0  0  0
    0.8343   -0.9954   -1.1885 H   0  0  0  0  0  0  0  0  0  0  0  0
   -0.8412    1.9189    0.3861 H   0  0  0  0  0  0  0  0  0  0  0  0
   -3.0029    0.8341    0.3131 H   0  0  0  0  0  0  0  0  0  0  0  0
   -2.4624    0.1418   -1.2750 H   0  0  0  0  0  0  0  0  0  0  0  0
   -2.8721   -1.8169    0.4052 H   0  0  0  0  0  0  0  0  0  0  0  0
   -0.5458   -2.2683    1.3100 H   0  0  0  0  0  0  0  0  0  0  0  0
    0.5612    0.2366    1.5676 H   0  0  0  0  0  0  0  0  0  0  0  0
  1  2  1  0
  2  3  1  0
  3  4  1  0
  4  5  1  0
  5  6  1  0
  6  7  1  0
  7  8  2  0
  8  9  1  0
  9  3  1  0
  9  5  1  0
  1 10  1  0
  2 11  1  0
  2 12  1  0
  3 13  1  0
  5 14  1  0
  6 15  1  0
  6 16  1  0
  7 17  1  0
  8 18  1  0
  9 19  1  0
M  END
