
     RDKit          3D

 21 21  0  0  0  0  0  0  0  0999 V2000
    2.6485    1.4375    0.0889 O   0  0  0  0  0  0  0  0  0  0  0  0
    2.2734    0.1161   -0.0924 C   0  0  0  0  0  0  0  0  0  0  0  0
    0.7974    0.0230   -0.2306 C   0  0  0  0  0  0  0  0  0  0  0  0
    0.1732    1.1791   -0.1544 C   0  0  0  0  0  0  0  0  0  0  0  0
   -1.2827    1.4546   -0.2494 C   0  0  0  0  0  0  0  0  0  0  0  0
   -2.0749    0.2109    0.1227 C   0  0  0  0  0  0  0  0  0  0  0  0
   -1.3073   -0.4690    1.0739 O   0  0  0  0  0  0  0  0  0  0  0  0
   -0.8952   -1.6601    0.4888 C   0  0  0  0  0  0  0  0  0  0  0  0
    0.2660   -1.3546   -0.4317 C   0  0  0  0  0  0  0  0  0  0  0  0
    2.9414    1.6355    1.0229 H   0  0  0  0  0  0  0  0  0  0  0  0
    2.7923   -0.2686   -1.0187 H   0  0  0  0  0  0  0  0  0  0  0  0
    2.5539   -0.4808    0.7960 H   0  0  0  0  0  0  0  0  0  0  0  0
    0.7817    2.0655   -0.0019 H   0  0  0  0  0  0  0  0  0  0  0  0
   -1.5203    2.2798    0.4614 H   0  0  0  0  0  0  0  0  0  0  0  0
   -1.5838    1.7757   -1.2531 H   0  0  0  0  0  0  0  0  0  0  0  0
   -3.0288    0.5022    0.5987 H   0  0  0  0  0  0  0  0  0  0  0  0
   -2.2091   -0.3658   -0.7990 H   0  0  0  0  0  0  0  0  0  0  0  0
   -1.7446   -2.1201   -0.0548 H   0  0  0  0  0  0  0  0  0  0  0  0
   -0.6102   -2.3803    1.2969 H   0  0  0  0  0  0  0  0  0  0  0  0
    1.0610   -2.0881   -0.1880 H   0  0  0  0  0  0  0  0  0  0  0  0
   -0.0318   -1.4924   -1.4760 H   0  0  0  0  0  0  0  0  0  0  0  0
  1  2  1  0
  2  3  1  0
  3  4  2  0
  4  5  1  0
  5  6  1  0
  6  7  1  0
  7  8  1  0
  8  9  1  0
  9  3  1  0
  1 10  1  0
  2 11  1  0
  2 12  1  0
  4 13  1  0
  5 14  1  0
  5 15  1  0
  6 16  1  0
  6 17  1  0
  8 18  1  0
  8 19  1  0
  9 20  1  0
  9 21  1  0
M  END
