
     RDKit          3D

 19 20  0  0  0  0  0  0  0  0999 V2000
    2.2169   -0.7492    0.1102 O   0  0  0  0  0  0  0  0  0  0  0  0
    1.6539    0.1560   -0.7631 C   0  0  0  0  0  0  0  0  0  0  0  0
    0.1500    0.0880   -0.5678 C   0  0  0  0  0  0  0  0  0  0  0  0
   -0.4110   -1.2963   -0.5525 C   0  0  0  0  0  0  0  0  0  0  0  0
   -1.0758   -1.3872    0.7548 C   0  0  0  0  0  0  0  0  0  0  0  0
   -1.0117   -0.2765    1.4428 C   0  0  0  0  0  0  0  0  0  0  0  0
   -0.2825    0.7560    0.6979 C   0  0  0  0  0  0  0  0  0  0  0  0
   -1.0990    1.6054   -0.2447 C   0  0  0  0  0  0  0  0  0  0  0  0
   -0.5916    0.9344   -1.3664 O   0  0  0  0  0  0  0  0  0  0  0  0
    2.9427   -0.3801    0.6671 H   0  0  0  0  0  0  0  0  0  0  0  0
    2.0147    1.1766   -0.6712 H   0  0  0  0  0  0  0  0  0  0  0  0
    1.8407   -0.1835   -1.8187 H   0  0  0  0  0  0  0  0  0  0  0  0
    0.3465   -2.0707   -0.7397 H   0  0  0  0  0  0  0  0  0  0  0  0
   -1.1919   -1.4233   -1.3503 H   0  0  0  0  0  0  0  0  0  0  0  0
   -1.5738   -2.2980    1.1118 H   0  0  0  0  0  0  0  0  0  0  0  0
   -1.4399   -0.1291    2.4370 H   0  0  0  0  0  0  0  0  0  0  0  0
    0.4749    1.3377    1.2423 H   0  0  0  0  0  0  0  0  0  0  0  0
   -0.7732    2.6772   -0.2819 H   0  0  0  0  0  0  0  0  0  0  0  0
   -2.1899    1.4626   -0.1077 H   0  0  0  0  0  0  0  0  0  0  0  0
  1  2  1  0
  2  3  1  0
  3  4  1  0
  4  5  1  0
  5  6  2  0
  6  7  1  0
  7  8  1  0
  8  9  1  0
  7  3  1  0
  9  3  1  0
  1 10  1  0
  2 11  1  0
  2 12  1  0
  4 13  1  0
  4 14  1  0
  5 15  1  0
  6 16  1  0
  7 17  1  0
  8 18  1  0
  8 19  1  0
M  END
