
     RDKit          3D

 21 22  0  0  0  0  0  0  0  0999 V2000
    2.8844    0.8934   -0.6552 O   0  0  0  0  0  0  0  0  0  0  0  0
    2.0614   -0.1818   -0.4145 C   0  0  0  0  0  0  0  0  0  0  0  0
    1.0848    0.0525    0.7190 C   0  0  0  0  0  0  0  0  0  0  0  0
    0.1148   -1.1363    0.6853 C   0  0  0  0  0  0  0  0  0  0  0  0
   -0.8172   -0.6910   -0.4289 C   0  0  0  0  0  0  0  0  0  0  0  0
   -2.1328   -0.2361    0.1256 C   0  0  0  0  0  0  0  0  0  0  0  0
   -1.9338    1.0830   -0.6141 C   0  0  0  0  0  0  0  0  0  0  0  0
   -0.4551    0.7794   -0.6286 C   0  0  0  0  0  0  0  0  0  0  0  0
    0.2403    1.1126    0.5036 O   0  0  0  0  0  0  0  0  0  0  0  0
    3.2600    1.2544    0.1723 H   0  0  0  0  0  0  0  0  0  0  0  0
    2.7126   -1.0397   -0.0735 H   0  0  0  0  0  0  0  0  0  0  0  0
    1.5484   -0.4865   -1.3392 H   0  0  0  0  0  0  0  0  0  0  0  0
    1.6007    0.0451    1.6793 H   0  0  0  0  0  0  0  0  0  0  0  0
   -0.3668   -1.1795    1.6583 H   0  0  0  0  0  0  0  0  0  0  0  0
    0.6557   -2.0606    0.4374 H   0  0  0  0  0  0  0  0  0  0  0  0
   -0.8201   -1.2940   -1.3293 H   0  0  0  0  0  0  0  0  0  0  0  0
   -3.0242   -0.7915   -0.1591 H   0  0  0  0  0  0  0  0  0  0  0  0
   -2.1179   -0.0885    1.2277 H   0  0  0  0  0  0  0  0  0  0  0  0
   -2.2463    1.9784   -0.0735 H   0  0  0  0  0  0  0  0  0  0  0  0
   -2.3381    0.9742   -1.6432 H   0  0  0  0  0  0  0  0  0  0  0  0
    0.0892    1.0125   -1.5389 H   0  0  0  0  0  0  0  0  0  0  0  0
  1  2  1  0
  2  3  1  0
  3  4  1  0
  4  5  1  0
  5  6  1  0
  6  7  1  0
  7  8  1  0
  8  9  1  0
  9  3  1  0
  8  5  1  0
  1 10  1  0
  2 11  1  0
  2 12  1  0
  3 13  1  0
  4 14  1  0
  4 15  1  0
  5 16  1  0
  6 17  1  0
  6 18  1  0
  7 19  1  0
  7 20  1  0
  8 21  1  0
M  END
