
     RDKit          3D

 18 19  0  0  0  0  0  0  0  0999 V2000
   -1.8237    1.3750    0.0169 O   0  0  0  0  0  0  0  0  0  0  0  0
   -1.7757    0.1391    0.6125 C   0  0  0  0  0  0  0  0  0  0  0  0
   -0.6700   -0.7259    0.1046 C   0  0  0  0  0  0  0  0  0  0  0  0
   -0.8377   -0.9301   -1.2861 O   0  0  0  0  0  0  0  0  0  0  0  0
    0.2856   -0.1291   -1.6086 C   0  0  0  0  0  0  0  0  0  0  0  0
    0.6313   -0.1334   -0.1816 C   0  0  0  0  0  0  0  0  0  0  0  0
    1.4289    0.7692    0.5669 C   0  0  0  0  0  0  0  0  0  0  0  0
    1.8565   -0.7152    0.3891 C   0  0  0  0  0  0  0  0  0  0  0  0
   -2.6972    1.7968    0.2534 H   0  0  0  0  0  0  0  0  0  0  0  0
   -1.7638    0.2150    1.7258 H   0  0  0  0  0  0  0  0  0  0  0  0
   -2.7427   -0.3901    0.3736 H   0  0  0  0  0  0  0  0  0  0  0  0
   -0.5960   -1.6689    0.6855 H   0  0  0  0  0  0  0  0  0  0  0  0
    1.0388   -0.6688   -2.2299 H   0  0  0  0  0  0  0  0  0  0  0  0
    0.0069    0.8250   -2.0847 H   0  0  0  0  0  0  0  0  0  0  0  0
    1.1479    1.0635    1.6045 H   0  0  0  0  0  0  0  0  0  0  0  0
    2.1243    1.4708    0.0853 H   0  0  0  0  0  0  0  0  0  0  0  0
    1.7093   -1.3704    1.2756 H   0  0  0  0  0  0  0  0  0  0  0  0
    2.6773   -0.9225   -0.3028 H   0  0  0  0  0  0  0  0  0  0  0  0
  1  2  1  0
  2  3  1  0
  3  4  1  0
  4  5  1  0
  5  6  1  0
  6  7  1  0
  7  8  1  0
  6  3  1  0
  8  6  1  0
  1  9  1  0
  2 10  1  0
  2 11  1  0
  3 12  1  0
  5 13  1  0
  5 14  1  0
  7 15  1  0
  7 16  1  0
  8 17  1  0
  8 18  1  0
M  END
