
     RDKit          3D

 19 19  0  0  0  0  0  0  0  0999 V2000
    2.9855    0.3074    0.5898 O   0  0  0  0  0  0  0  0  0  0  0  0
    2.1527   -0.4518   -0.2175 C   0  0  0  0  0  0  0  0  0  0  0  0
    0.7208   -0.0818   -0.0696 C   0  0  0  0  0  0  0  0  0  0  0  0
   -0.2174   -0.9314    0.3349 C   0  0  0  0  0  0  0  0  0  0  0  0
   -1.6555   -0.5416    0.4783 C   0  0  0  0  0  0  0  0  0  0  0  0
   -2.3981   -1.3854   -0.3502 O   0  0  0  0  0  0  0  0  0  0  0  0
   -1.8901    0.8734    0.0375 C   0  0  0  0  0  0  0  0  0  0  0  0
   -0.9803    1.1994   -0.9778 O   0  0  0  0  0  0  0  0  0  0  0  0
    0.2858    1.3079   -0.3845 C   0  0  0  0  0  0  0  0  0  0  0  0
    3.8986    0.2679    0.1689 H   0  0  0  0  0  0  0  0  0  0  0  0
    2.3952   -0.2993   -1.3068 H   0  0  0  0  0  0  0  0  0  0  0  0
    2.3514   -1.5057   -0.0097 H   0  0  0  0  0  0  0  0  0  0  0  0
    0.0839   -1.9288    0.5628 H   0  0  0  0  0  0  0  0  0  0  0  0
   -1.9916   -0.6630    1.5446 H   0  0  0  0  0  0  0  0  0  0  0  0
   -2.1542   -2.3423   -0.2096 H   0  0  0  0  0  0  0  0  0  0  0  0
   -2.9125    0.9220   -0.4149 H   0  0  0  0  0  0  0  0  0  0  0  0
   -1.7890    1.5678    0.8947 H   0  0  0  0  0  0  0  0  0  0  0  0
    1.0038    1.8584   -1.0044 H   0  0  0  0  0  0  0  0  0  0  0  0
    0.1110    1.8268    0.5942 H   0  0  0  0  0  0  0  0  0  0  0  0
  1  2  1  0
  2  3  1  0
  3  4  2  0
  4  5  1  0
  5  6  1  0
  5  7  1  0
  7  8  1  0
  8  9  1  0
  9  3  1  0
  1 10  1  0
  2 11  1  0
  2 12  1  0
  4 13  1  0
  5 14  1  0
  6 15  1  0
  7 16  1  0
  7 17  1  0
  9 18  1  0
  9 19  1  0
M  END
