
     RDKit          3D

 17 19  0  0  0  0  0  0  0  0999 V2000
    1.5871    0.9600    1.3615 O   0  0  0  0  0  0  0  0  0  0  0  0
    1.5151    0.8731   -0.0327 C   0  0  0  0  0  0  0  0  0  0  0  0
    0.4485    0.1000   -0.4557 C   0  0  0  0  0  0  0  0  0  0  0  0
    0.3251   -1.3913   -0.2585 C   0  0  0  0  0  0  0  0  0  0  0  0
   -0.8183   -0.9248   -1.1131 C   0  0  0  0  0  0  0  0  0  0  0  0
    0.1309   -0.1597   -1.7953 O   0  0  0  0  0  0  0  0  0  0  0  0
   -0.9710    0.2184   -0.1906 C   0  0  0  0  0  0  0  0  0  0  0  0
   -1.7984    0.4499    0.8375 C   0  0  0  0  0  0  0  0  0  0  0  0
   -1.7587    1.2961   -0.4122 O   0  0  0  0  0  0  0  0  0  0  0  0
    2.2171    0.2651    1.7109 H   0  0  0  0  0  0  0  0  0  0  0  0
    1.4904    1.9056   -0.4086 H   0  0  0  0  0  0  0  0  0  0  0  0
    2.5048    0.4606   -0.3582 H   0  0  0  0  0  0  0  0  0  0  0  0
    1.0856   -2.0126   -0.7309 H   0  0  0  0  0  0  0  0  0  0  0  0
   -0.0073   -1.6691    0.7568 H   0  0  0  0  0  0  0  0  0  0  0  0
   -1.5259   -1.5042   -1.5407 H   0  0  0  0  0  0  0  0  0  0  0  0
   -1.6029    1.1498    1.6814 H   0  0  0  0  0  0  0  0  0  0  0  0
   -2.8219   -0.0170    0.9482 H   0  0  0  0  0  0  0  0  0  0  0  0
  1  2  1  0
  2  3  1  0
  3  4  1  0
  4  5  1  0
  5  6  1  0
  5  7  1  0
  7  8  1  0
  8  9  1  0
  6  3  1  0
  9  7  1  0
  7  3  1  0
  1 10  1  0
  2 11  1  0
  2 12  1  0
  4 13  1  0
  4 14  1  0
  5 15  1  0
  8 16  1  0
  8 17  1  0
M  END
