
     RDKit          3D

 21 21  0  0  0  0  0  0  0  0999 V2000
    2.6154   -0.2770   -0.7980 O   0  0  0  0  0  0  0  0  0  0  0  0
    2.2217   -0.1711    0.5361 C   0  0  0  0  0  0  0  0  0  0  0  0
    0.7246    0.0148    0.6658 C   0  0  0  0  0  0  0  0  0  0  0  0
    0.2542    1.2524   -0.0294 C   0  0  0  0  0  0  0  0  0  0  0  0
   -1.1863    1.4650   -0.0126 C   0  0  0  0  0  0  0  0  0  0  0  0
   -2.2195    0.6519    0.0944 C   0  0  0  0  0  0  0  0  0  0  0  0
   -2.2003   -0.8033    0.2371 C   0  0  0  0  0  0  0  0  0  0  0  0
   -1.1656   -1.3205    0.9560 O   0  0  0  0  0  0  0  0  0  0  0  0
    0.0244   -1.2258    0.2007 C   0  0  0  0  0  0  0  0  0  0  0  0
    3.5809   -0.4995   -0.7888 H   0  0  0  0  0  0  0  0  0  0  0  0
    2.7797    0.6315    1.0688 H   0  0  0  0  0  0  0  0  0  0  0  0
    2.4707   -1.1497    1.0088 H   0  0  0  0  0  0  0  0  0  0  0  0
    0.5245    0.1535    1.7573 H   0  0  0  0  0  0  0  0  0  0  0  0
    0.7387    2.1262    0.4865 H   0  0  0  0  0  0  0  0  0  0  0  0
    0.6009    1.3202   -1.0868 H   0  0  0  0  0  0  0  0  0  0  0  0
   -1.4780    2.5065   -0.1078 H   0  0  0  0  0  0  0  0  0  0  0  0
   -3.2211    1.1143    0.0752 H   0  0  0  0  0  0  0  0  0  0  0  0
   -3.1604   -1.1532    0.7081 H   0  0  0  0  0  0  0  0  0  0  0  0
   -2.2041   -1.2940   -0.7767 H   0  0  0  0  0  0  0  0  0  0  0  0
   -0.2761   -1.1940   -0.8657 H   0  0  0  0  0  0  0  0  0  0  0  0
    0.5758   -2.1482    0.3783 H   0  0  0  0  0  0  0  0  0  0  0  0
  1  2  1  0
  2  3  1  0
  3  4  1  0
  4  5  1  0
  5  6  2  0
  6  7  1  0
  7  8  1  0
  8  9  1  0
  9  3  1  0
  1 10  1  0
  2 11  1  0
  2 12  1  0
  3 13  1  0
  4 14  1  0
  4 15  1  0
  5 16  1  0
  6 17  1  0
  7 18  1  0
  7 19  1  0
  9 20  1  0
  9 21  1  0
M  END
