
     RDKit          3D

 19 20  0  0  0  0  0  0  0  0999 V2000
    1.7554    1.6246    0.8596 O   0  0  0  0  0  0  0  0  0  0  0  0
    1.7255    0.3780    0.2210 C   0  0  0  0  0  0  0  0  0  0  0  0
    0.3790    0.0082   -0.2930 C   0  0  0  0  0  0  0  0  0  0  0  0
    0.2991   -1.4582   -0.6225 C   0  0  0  0  0  0  0  0  0  0  0  0
   -0.5396   -1.9935    0.3576 O   0  0  0  0  0  0  0  0  0  0  0  0
   -1.5797   -1.0492    0.4180 C   0  0  0  0  0  0  0  0  0  0  0  0
   -0.7935    0.2321    0.5929 C   0  0  0  0  0  0  0  0  0  0  0  0
   -1.2111    1.2709   -0.4169 C   0  0  0  0  0  0  0  0  0  0  0  0
   -0.1362    0.8782   -1.2118 O   0  0  0  0  0  0  0  0  0  0  0  0
    2.7128    1.9334    0.8087 H   0  0  0  0  0  0  0  0  0  0  0  0
    2.1612   -0.4192    0.8620 H   0  0  0  0  0  0  0  0  0  0  0  0
    2.4071    0.4775   -0.6711 H   0  0  0  0  0  0  0  0  0  0  0  0
    1.2980   -1.9303   -0.5759 H   0  0  0  0  0  0  0  0  0  0  0  0
   -0.1379   -1.5858   -1.6286 H   0  0  0  0  0  0  0  0  0  0  0  0
   -2.0345   -1.0591   -0.6092 H   0  0  0  0  0  0  0  0  0  0  0  0
   -2.2947   -1.2450    1.2124 H   0  0  0  0  0  0  0  0  0  0  0  0
   -0.6256    0.5664    1.6105 H   0  0  0  0  0  0  0  0  0  0  0  0
   -2.2072    1.0563   -0.8553 H   0  0  0  0  0  0  0  0  0  0  0  0
   -1.1782    2.3148   -0.0584 H   0  0  0  0  0  0  0  0  0  0  0  0
  1  2  1  0
  2  3  1  0
  3  4  1  0
  4  5  1  0
  5  6  1  0
  6  7  1  0
  7  8  1  0
  8  9  1  0
  7  3  1  0
  9  3  1  0
  1 10  1  0
  2 11  1  0
  2 12  1  0
  4 13  1  0
  4 14  1  0
  6 15  1  0
  6 16  1  0
  7 17  1  0
  8 18  1  0
  8 19  1  0
M  END
