
     RDKit          3D

 19 21  0  0  0  0  0  0  0  0999 V2000
    2.4091    0.3974   -0.7245 O   0  0  0  0  0  0  0  0  0  0  0  0
    1.8921   -0.0838    0.4493 C   0  0  0  0  0  0  0  0  0  0  0  0
    0.4249    0.1272    0.5221 C   0  0  0  0  0  0  0  0  0  0  0  0
   -0.2236    1.4354    0.4687 C   0  0  0  0  0  0  0  0  0  0  0  0
   -1.4354    1.6498    1.1095 O   0  0  0  0  0  0  0  0  0  0  0  0
   -0.2003    0.6423   -0.7738 C   0  0  0  0  0  0  0  0  0  0  0  0
   -0.8593   -0.6858   -0.9046 C   0  0  0  0  0  0  0  0  0  0  0  0
   -1.8573   -1.0550    0.1008 C   0  0  0  0  0  0  0  0  0  0  0  0
   -0.4508   -1.0844    0.5219 C   0  0  0  0  0  0  0  0  0  0  0  0
    2.2575   -0.2264   -1.4770 H   0  0  0  0  0  0  0  0  0  0  0  0
    2.1120   -1.1880    0.4726 H   0  0  0  0  0  0  0  0  0  0  0  0
    2.3930    0.3250    1.3476 H   0  0  0  0  0  0  0  0  0  0  0  0
    0.4448    2.3156    0.4942 H   0  0  0  0  0  0  0  0  0  0  0  0
   -2.0095    2.2333    0.5478 H   0  0  0  0  0  0  0  0  0  0  0  0
    0.4453    0.9611   -1.5900 H   0  0  0  0  0  0  0  0  0  0  0  0
   -0.4659   -1.4024   -1.6651 H   0  0  0  0  0  0  0  0  0  0  0  0
   -2.3464   -2.0465   -0.0111 H   0  0  0  0  0  0  0  0  0  0  0  0
   -2.5748   -0.2733    0.4282 H   0  0  0  0  0  0  0  0  0  0  0  0
    0.0445   -2.0415    0.6835 H   0  0  0  0  0  0  0  0  0  0  0  0
  1  2  1  0
  2  3  1  0
  3  4  1  0
  4  5  1  0
  4  6  1  0
  6  7  1  0
  7  8  1  0
  8  9  1  0
  6  3  1  0
  9  7  1  0
  9  3  1  0
  1 10  1  0
  2 11  1  0
  2 12  1  0
  4 13  1  0
  5 14  1  0
  6 15  1  0
  7 16  1  0
  8 17  1  0
  8 18  1  0
  9 19  1  0
M  END
