
     RDKit          3D

 19 20  0  0  0  0  0  0  0  0999 V2000
   -3.0835    0.6716    0.4177 O   0  0  0  0  0  0  0  0  0  0  0  0
   -2.2983   -0.4624    0.6496 C   0  0  0  0  0  0  0  0  0  0  0  0
   -0.8891   -0.2515    0.2365 C   0  0  0  0  0  0  0  0  0  0  0  0
    0.1805   -0.3228    1.0146 C   0  0  0  0  0  0  0  0  0  0  0  0
    1.3664   -0.0510    0.2239 C   0  0  0  0  0  0  0  0  0  0  0  0
    0.9508   -0.4185   -1.1844 C   0  0  0  0  0  0  0  0  0  0  0  0
   -0.4865    0.0788   -1.1737 C   0  0  0  0  0  0  0  0  0  0  0  0
    2.6117    0.4007    0.5457 C   0  0  0  0  0  0  0  0  0  0  0  0
    1.6455    1.4257    0.2666 O   0  0  0  0  0  0  0  0  0  0  0  0
   -2.4447    1.4066    0.1763 H   0  0  0  0  0  0  0  0  0  0  0  0
   -2.3542   -0.7161    1.7199 H   0  0  0  0  0  0  0  0  0  0  0  0
   -2.7729   -1.2853    0.0444 H   0  0  0  0  0  0  0  0  0  0  0  0
    0.1519   -0.5507    2.0772 H   0  0  0  0  0  0  0  0  0  0  0  0
    0.9635   -1.5259   -1.2427 H   0  0  0  0  0  0  0  0  0  0  0  0
    1.5650    0.0651   -1.9413 H   0  0  0  0  0  0  0  0  0  0  0  0
   -1.1167   -0.4467   -1.9089 H   0  0  0  0  0  0  0  0  0  0  0  0
   -0.4415    1.1743   -1.3200 H   0  0  0  0  0  0  0  0  0  0  0  0
    3.4371    0.4004   -0.1961 H   0  0  0  0  0  0  0  0  0  0  0  0
    3.0149    0.4076    1.5949 H   0  0  0  0  0  0  0  0  0  0  0  0
  1  2  1  0
  2  3  1  0
  3  4  2  0
  4  5  1  0
  5  6  1  0
  6  7  1  0
  5  8  1  0
  8  9  1  0
  7  3  1  0
  9  5  1  0
  1 10  1  0
  2 11  1  0
  2 12  1  0
  4 13  1  0
  6 14  1  0
  6 15  1  0
  7 16  1  0
  7 17  1  0
  8 18  1  0
  8 19  1  0
M  END
