
     RDKit          3D

 11 11  0  0  0  0  0  0  0  0999 V2000
    1.8051   -0.6774   -0.5493 O   0  0  0  0  0  0  0  0  0  0  0  0
    1.0059   -0.0299    0.3859 C   0  0  0  0  0  0  0  0  0  0  0  0
   -0.4300   -0.4768    0.2375 C   0  0  0  0  0  0  0  0  0  0  0  0
   -1.4976    0.3821   -0.1271 C   0  0  0  0  0  0  0  0  0  0  0  0
   -1.2825    0.2178    1.2394 O   0  0  0  0  0  0  0  0  0  0  0  0
    2.3009   -0.0460   -1.0928 H   0  0  0  0  0  0  0  0  0  0  0  0
    1.3586   -0.2449    1.4306 H   0  0  0  0  0  0  0  0  0  0  0  0
    1.0968    1.0642    0.2325 H   0  0  0  0  0  0  0  0  0  0  0  0
   -0.6041   -1.5635    0.3732 H   0  0  0  0  0  0  0  0  0  0  0  0
   -2.4398   -0.0406   -0.5174 H   0  0  0  0  0  0  0  0  0  0  0  0
   -1.3131    1.4150   -0.5263 H   0  0  0  0  0  0  0  0  0  0  0  0
  1  2  1  0
  2  3  1  0
  3  4  1  0
  4  5  1  0
  5  3  1  0
  1  6  1  0
  2  7  1  0
  2  8  1  0
  3  9  1  0
  4 10  1  0
  4 11  1  0
M  END
