
     RDKit          3D

 19 21  0  0  0  0  0  0  0  0999 V2000
    2.3946   -0.8287   -0.5902 O   0  0  0  0  0  0  0  0  0  0  0  0
    1.8958    0.3971   -0.1031 C   0  0  0  0  0  0  0  0  0  0  0  0
    0.4570    0.1833    0.2216 C   0  0  0  0  0  0  0  0  0  0  0  0
   -0.3492    1.4537    0.4918 C   0  0  0  0  0  0  0  0  0  0  0  0
   -1.4496    0.8305   -0.3501 C   0  0  0  0  0  0  0  0  0  0  0  0
   -1.6381   -0.6358   -0.3114 C   0  0  0  0  0  0  0  0  0  0  0  0
   -0.9787   -1.4399    0.8049 C   0  0  0  0  0  0  0  0  0  0  0  0
    0.1598   -0.7676    1.1584 O   0  0  0  0  0  0  0  0  0  0  0  0
   -0.4493   -0.0416   -0.9463 C   0  0  0  0  0  0  0  0  0  0  0  0
    2.9643   -1.2243    0.1147 H   0  0  0  0  0  0  0  0  0  0  0  0
    2.4808    0.7145    0.7526 H   0  0  0  0  0  0  0  0  0  0  0  0
    2.0150    1.1472   -0.9004 H   0  0  0  0  0  0  0  0  0  0  0  0
    0.0933    2.3674    0.0161 H   0  0  0  0  0  0  0  0  0  0  0  0
   -0.5967    1.6311    1.5424 H   0  0  0  0  0  0  0  0  0  0  0  0
   -2.0983    1.4348   -0.9691 H   0  0  0  0  0  0  0  0  0  0  0  0
   -2.3754   -1.0932   -0.9559 H   0  0  0  0  0  0  0  0  0  0  0  0
   -1.6810   -1.5929    1.6517 H   0  0  0  0  0  0  0  0  0  0  0  0
   -0.6986   -2.4145    0.3310 H   0  0  0  0  0  0  0  0  0  0  0  0
   -0.1459   -0.1210   -1.9588 H   0  0  0  0  0  0  0  0  0  0  0  0
  1  2  1  0
  2  3  1  0
  3  4  1  0
  4  5  1  0
  5  6  1  0
  6  7  1  0
  7  8  1  0
  6  9  1  0
  8  3  1  0
  9  3  1  0
  9  5  1  0
  1 10  1  0
  2 11  1  0
  2 12  1  0
  4 13  1  0
  4 14  1  0
  5 15  1  0
  6 16  1  0
  7 17  1  0
  7 18  1  0
  9 19  1  0
M  END
