
     RDKit          3D

 21 22  0  0  0  0  0  0  0  0999 V2000
    3.2822    0.3771    0.4614 O   0  0  0  0  0  0  0  0  0  0  0  0
    2.1304    0.6990   -0.2832 C   0  0  0  0  0  0  0  0  0  0  0  0
    0.9508   -0.1318    0.1668 C   0  0  0  0  0  0  0  0  0  0  0  0
    0.6166    0.0321    1.4726 O   0  0  0  0  0  0  0  0  0  0  0  0
   -0.6590    0.4900    1.5930 C   0  0  0  0  0  0  0  0  0  0  0  0
   -1.3003    0.5671    0.2562 C   0  0  0  0  0  0  0  0  0  0  0  0
   -2.0796   -0.6340   -0.2020 C   0  0  0  0  0  0  0  0  0  0  0  0
   -0.9548   -1.0653   -1.1325 C   0  0  0  0  0  0  0  0  0  0  0  0
   -0.2078    0.1785   -0.7026 C   0  0  0  0  0  0  0  0  0  0  0  0
    3.3935   -0.6164    0.3239 H   0  0  0  0  0  0  0  0  0  0  0  0
    2.3558    0.4045   -1.3302 H   0  0  0  0  0  0  0  0  0  0  0  0
    1.9242    1.7819   -0.2755 H   0  0  0  0  0  0  0  0  0  0  0  0
    1.2657   -1.2065    0.0270 H   0  0  0  0  0  0  0  0  0  0  0  0
   -0.6095    1.5292    2.0222 H   0  0  0  0  0  0  0  0  0  0  0  0
   -1.3030   -0.0824    2.2839 H   0  0  0  0  0  0  0  0  0  0  0  0
   -1.7867    1.5542    0.0187 H   0  0  0  0  0  0  0  0  0  0  0  0
   -2.9465   -0.3054   -0.8163 H   0  0  0  0  0  0  0  0  0  0  0  0
   -2.3217   -1.3804    0.5808 H   0  0  0  0  0  0  0  0  0  0  0  0
   -1.2152   -1.1304   -2.1926 H   0  0  0  0  0  0  0  0  0  0  0  0
   -0.4909   -1.9881   -0.7577 H   0  0  0  0  0  0  0  0  0  0  0  0
   -0.0442    0.9270   -1.5139 H   0  0  0  0  0  0  0  0  0  0  0  0
  1  2  1  0
  2  3  1  0
  3  4  1  0
  4  5  1  0
  5  6  1  0
  6  7  1  0
  7  8  1  0
  8  9  1  0
  9  3  1  0
  9  6  1  0
  1 10  1  0
  2 11  1  0
  2 12  1  0
  3 13  1  0
  5 14  1  0
  5 15  1  0
  6 16  1  0
  7 17  1  0
  7 18  1  0
  8 19  1  0
  8 20  1  0
  9 21  1  0
M  END
