
     RDKit          3D

 21 22  0  0  0  0  0  0  0  0999 V2000
    3.2809   -0.1804    0.3298 O   0  0  0  0  0  0  0  0  0  0  0  0
    2.1586   -0.8256   -0.1505 C   0  0  0  0  0  0  0  0  0  0  0  0
    0.8759   -0.3595    0.4695 C   0  0  0  0  0  0  0  0  0  0  0  0
    0.5313    1.0818    0.3004 C   0  0  0  0  0  0  0  0  0  0  0  0
   -0.5726    0.7556   -0.6889 C   0  0  0  0  0  0  0  0  0  0  0  0
   -1.9682    0.9527   -0.1903 C   0  0  0  0  0  0  0  0  0  0  0  0
   -2.3423   -0.3094    0.4770 C   0  0  0  0  0  0  0  0  0  0  0  0
   -1.4146   -1.2395    0.3384 C   0  0  0  0  0  0  0  0  0  0  0  0
   -0.2965   -0.6988   -0.4493 C   0  0  0  0  0  0  0  0  0  0  0  0
    3.2357    0.7701    0.1388 H   0  0  0  0  0  0  0  0  0  0  0  0
    2.0550   -0.7021   -1.2587 H   0  0  0  0  0  0  0  0  0  0  0  0
    2.2325   -1.9271    0.0501 H   0  0  0  0  0  0  0  0  0  0  0  0
    0.7336   -0.7030    1.5248 H   0  0  0  0  0  0  0  0  0  0  0  0
    0.0813    1.5911    1.1878 H   0  0  0  0  0  0  0  0  0  0  0  0
    1.3036    1.7235   -0.1782 H   0  0  0  0  0  0  0  0  0  0  0  0
   -0.4173    1.1349   -1.7022 H   0  0  0  0  0  0  0  0  0  0  0  0
   -2.6344    1.0774   -1.0922 H   0  0  0  0  0  0  0  0  0  0  0  0
   -2.0815    1.7987    0.4979 H   0  0  0  0  0  0  0  0  0  0  0  0
   -3.2698   -0.4578    1.0184 H   0  0  0  0  0  0  0  0  0  0  0  0
   -1.4677   -2.2426    0.7409 H   0  0  0  0  0  0  0  0  0  0  0  0
   -0.0232   -1.2398   -1.3636 H   0  0  0  0  0  0  0  0  0  0  0  0
  1  2  1  0
  2  3  1  0
  3  4  1  0
  4  5  1  0
  5  6  1  0
  6  7  1  0
  7  8  2  0
  8  9  1  0
  9  3  1  0
  9  5  1  0
  1 10  1  0
  2 11  1  0
  2 12  1  0
  3 13  1  0
  4 14  1  0
  4 15  1  0
  5 16  1  0
  6 17  1  0
  6 18  1  0
  7 19  1  0
  8 20  1  0
  9 21  1  0
M  END
