
     RDKit          3D

 19 20  0  0  0  0  0  0  0  0999 V2000
    2.4052   -0.9132   -0.5638 O   0  0  0  0  0  0  0  0  0  0  0  0
    1.7864    0.2363   -0.0527 C   0  0  0  0  0  0  0  0  0  0  0  0
    0.3298    0.1545   -0.4331 C   0  0  0  0  0  0  0  0  0  0  0  0
    0.1740    0.1054   -1.7983 O   0  0  0  0  0  0  0  0  0  0  0  0
   -0.2629   -1.0385    0.2847 C   0  0  0  0  0  0  0  0  0  0  0  0
   -1.7234   -0.7470    0.4881 C   0  0  0  0  0  0  0  0  0  0  0  0
   -2.1389    0.1143    1.4712 O   0  0  0  0  0  0  0  0  0  0  0  0
   -1.8617    0.7316    0.2591 C   0  0  0  0  0  0  0  0  0  0  0  0
   -0.4771    1.2991    0.1345 C   0  0  0  0  0  0  0  0  0  0  0  0
    3.2650   -0.6633   -0.9851 H   0  0  0  0  0  0  0  0  0  0  0  0
    1.8326    0.1178    1.0688 H   0  0  0  0  0  0  0  0  0  0  0  0
    2.2767    1.1505   -0.4023 H   0  0  0  0  0  0  0  0  0  0  0  0
    0.0119   -0.8502   -2.0403 H   0  0  0  0  0  0  0  0  0  0  0  0
   -0.1311   -1.9419   -0.3102 H   0  0  0  0  0  0  0  0  0  0  0  0
    0.2560   -1.1201    1.2783 H   0  0  0  0  0  0  0  0  0  0  0  0
   -2.4606   -1.4546    0.0917 H   0  0  0  0  0  0  0  0  0  0  0  0
   -2.6633    1.0447   -0.4152 H   0  0  0  0  0  0  0  0  0  0  0  0
   -0.5198    2.1485   -0.5646 H   0  0  0  0  0  0  0  0  0  0  0  0
   -0.0989    1.6259    1.1275 H   0  0  0  0  0  0  0  0  0  0  0  0
  1  2  1  0
  2  3  1  0
  3  4  1  0
  3  5  1  0
  5  6  1  0
  6  7  1  0
  7  8  1  0
  8  9  1  0
  9  3  1  0
  8  6  1  0
  1 10  1  0
  2 11  1  0
  2 12  1  0
  4 13  1  0
  5 14  1  0
  5 15  1  0
  6 16  1  0
  8 17  1  0
  9 18  1  0
  9 19  1  0
M  END
