
     RDKit          3D

 19 20  0  0  0  0  0  0  0  0999 V2000
    1.5456   -1.3487    1.0427 O   0  0  0  0  0  0  0  0  0  0  0  0
    1.5874   -0.8306   -0.2330 C   0  0  0  0  0  0  0  0  0  0  0  0
    0.5559    0.2167   -0.5081 C   0  0  0  0  0  0  0  0  0  0  0  0
    0.6650    1.4177    0.3961 C   0  0  0  0  0  0  0  0  0  0  0  0
   -0.7070    2.0309    0.2351 C   0  0  0  0  0  0  0  0  0  0  0  0
   -1.5585    1.0949   -0.1613 C   0  0  0  0  0  0  0  0  0  0  0  0
   -0.8429   -0.2018   -0.2973 C   0  0  0  0  0  0  0  0  0  0  0  0
   -1.4787   -1.3994   -0.3098 C   0  0  0  0  0  0  0  0  0  0  0  0
   -0.9596   -0.9258    0.9974 O   0  0  0  0  0  0  0  0  0  0  0  0
    1.3956   -2.3394    0.9543 H   0  0  0  0  0  0  0  0  0  0  0  0
    1.5209   -1.5961   -1.0339 H   0  0  0  0  0  0  0  0  0  0  0  0
    2.5898   -0.3460   -0.3592 H   0  0  0  0  0  0  0  0  0  0  0  0
    0.7010    0.5731   -1.5428 H   0  0  0  0  0  0  0  0  0  0  0  0
    0.7142    1.1270    1.4779 H   0  0  0  0  0  0  0  0  0  0  0  0
    1.4600    2.1190    0.1046 H   0  0  0  0  0  0  0  0  0  0  0  0
   -0.9969    3.0562    0.4028 H   0  0  0  0  0  0  0  0  0  0  0  0
   -2.6118    1.2134   -0.3642 H   0  0  0  0  0  0  0  0  0  0  0  0
   -2.5841   -1.4847   -0.2703 H   0  0  0  0  0  0  0  0  0  0  0  0
   -0.9957   -2.3764   -0.5311 H   0  0  0  0  0  0  0  0  0  0  0  0
  1  2  1  0
  2  3  1  0
  3  4  1  0
  4  5  1  0
  5  6  2  0
  6  7  1  0
  7  8  1  0
  8  9  1  0
  7  3  1  0
  9  7  1  0
  1 10  1  0
  2 11  1  0
  2 12  1  0
  3 13  1  0
  4 14  1  0
  4 15  1  0
  5 16  1  0
  6 17  1  0
  8 18  1  0
  8 19  1  0
M  END
