
     RDKit          3D

 19 21  0  0  0  0  0  0  0  0999 V2000
    2.9691   -0.2214   -0.1065 O   0  0  0  0  0  0  0  0  0  0  0  0
    1.7378   -0.9002    0.0027 C   0  0  0  0  0  0  0  0  0  0  0  0
    0.5880    0.0389   -0.3215 C   0  0  0  0  0  0  0  0  0  0  0  0
   -0.6818   -0.7265   -0.1915 C   0  0  0  0  0  0  0  0  0  0  0  0
   -1.9466   -0.6922   -0.7805 C   0  0  0  0  0  0  0  0  0  0  0  0
   -1.5318    0.5982   -0.3857 C   0  0  0  0  0  0  0  0  0  0  0  0
   -1.0923    1.1996    0.8654 C   0  0  0  0  0  0  0  0  0  0  0  0
   -0.0307    2.2264    0.8018 O   0  0  0  0  0  0  0  0  0  0  0  0
    0.4274    0.9589    0.8999 C   0  0  0  0  0  0  0  0  0  0  0  0
    2.9988    0.1136   -1.0338 H   0  0  0  0  0  0  0  0  0  0  0  0
    1.7450   -1.7824   -0.6668 H   0  0  0  0  0  0  0  0  0  0  0  0
    1.6773   -1.2792    1.0398 H   0  0  0  0  0  0  0  0  0  0  0  0
    0.7353    0.5886   -1.2444 H   0  0  0  0  0  0  0  0  0  0  0  0
   -0.6908   -1.1507    0.8647 H   0  0  0  0  0  0  0  0  0  0  0  0
   -2.8567   -1.1052   -0.2509 H   0  0  0  0  0  0  0  0  0  0  0  0
   -2.0428   -0.9749   -1.8629 H   0  0  0  0  0  0  0  0  0  0  0  0
   -1.2178    1.2375   -1.2725 H   0  0  0  0  0  0  0  0  0  0  0  0
   -1.6453    1.2520    1.7906 H   0  0  0  0  0  0  0  0  0  0  0  0
    0.8580    0.6189    1.8520 H   0  0  0  0  0  0  0  0  0  0  0  0
  1  2  1  0
  2  3  1  0
  3  4  1  0
  4  5  1  0
  5  6  1  0
  6  7  1  0
  7  8  1  0
  8  9  1  0
  9  3  1  0
  6  4  1  0
  9  7  1  0
  1 10  1  0
  2 11  1  0
  2 12  1  0
  3 13  1  0
  4 14  1  0
  5 15  1  0
  5 16  1  0
  6 17  1  0
  7 18  1  0
  9 19  1  0
M  END
