
     RDKit          3D

 17 19  0  0  0  0  0  0  0  0999 V2000
    2.5928    0.7669   -0.0520 O   0  0  0  0  0  0  0  0  0  0  0  0
    1.4561    0.3679    0.6764 C   0  0  0  0  0  0  0  0  0  0  0  0
    0.3423   -0.0909   -0.1974 C   0  0  0  0  0  0  0  0  0  0  0  0
   -0.2883    0.7593   -1.2035 C   0  0  0  0  0  0  0  0  0  0  0  0
   -1.0365    0.3675    0.0043 C   0  0  0  0  0  0  0  0  0  0  0  0
   -1.4054    1.3283    0.9052 O   0  0  0  0  0  0  0  0  0  0  0  0
   -1.4834   -1.0638    0.1580 C   0  0  0  0  0  0  0  0  0  0  0  0
   -1.1999   -1.8740   -0.9126 O   0  0  0  0  0  0  0  0  0  0  0  0
   -0.1306   -1.5230   -0.1244 C   0  0  0  0  0  0  0  0  0  0  0  0
    2.8983    0.0036   -0.6118 H   0  0  0  0  0  0  0  0  0  0  0  0
    1.1146    1.3001    1.2039 H   0  0  0  0  0  0  0  0  0  0  0  0
    1.7287   -0.3606    1.4356 H   0  0  0  0  0  0  0  0  0  0  0  0
   -0.5068    0.2912   -2.1869 H   0  0  0  0  0  0  0  0  0  0  0  0
   -0.0442    1.8340   -1.2936 H   0  0  0  0  0  0  0  0  0  0  0  0
   -2.3687    1.5377    0.7605 H   0  0  0  0  0  0  0  0  0  0  0  0
   -2.0927   -1.3739    0.9988 H   0  0  0  0  0  0  0  0  0  0  0  0
    0.4237   -2.2703    0.4397 H   0  0  0  0  0  0  0  0  0  0  0  0
  1  2  1  0
  2  3  1  0
  3  4  1  0
  4  5  1  0
  5  6  1  0
  5  7  1  0
  7  8  1  0
  8  9  1  0
  5  3  1  0
  9  7  1  0
  9  3  1  0
  1 10  1  0
  2 11  1  0
  2 12  1  0
  4 13  1  0
  4 14  1  0
  6 15  1  0
  7 16  1  0
  9 17  1  0
M  END
