
     RDKit          3D

 21 22  0  0  0  0  0  0  0  0999 V2000
   -2.0879    1.6864    0.8977 O   0  0  0  0  0  0  0  0  0  0  0  0
   -2.3765    0.4627    0.2819 C   0  0  0  0  0  0  0  0  0  0  0  0
   -1.0700   -0.3393    0.0803 C   0  0  0  0  0  0  0  0  0  0  0  0
    0.0094    0.5250   -0.4597 C   0  0  0  0  0  0  0  0  0  0  0  0
    1.3319   -0.0918   -0.6979 C   0  0  0  0  0  0  0  0  0  0  0  0
    2.1539   -0.6972    0.3588 C   0  0  0  0  0  0  0  0  0  0  0  0
    2.5251    0.6575   -0.1266 C   0  0  0  0  0  0  0  0  0  0  0  0
   -0.9461   -1.5535    0.8409 C   0  0  0  0  0  0  0  0  0  0  0  0
   -1.3387   -1.5676   -0.5349 O   0  0  0  0  0  0  0  0  0  0  0  0
   -2.2248    2.4285    0.2865 H   0  0  0  0  0  0  0  0  0  0  0  0
   -3.0919   -0.0888    0.8946 H   0  0  0  0  0  0  0  0  0  0  0  0
   -2.7324    0.6642   -0.7589 H   0  0  0  0  0  0  0  0  0  0  0  0
   -0.3748    0.9343   -1.4424 H   0  0  0  0  0  0  0  0  0  0  0  0
    0.1159    1.4202    0.1966 H   0  0  0  0  0  0  0  0  0  0  0  0
    1.4603   -0.4837   -1.7432 H   0  0  0  0  0  0  0  0  0  0  0  0
    1.8356   -0.7633    1.4169 H   0  0  0  0  0  0  0  0  0  0  0  0
    2.8665   -1.5098    0.0365 H   0  0  0  0  0  0  0  0  0  0  0  0
    2.3656    1.4956    0.5465 H   0  0  0  0  0  0  0  0  0  0  0  0
    3.3893    0.8010   -0.8192 H   0  0  0  0  0  0  0  0  0  0  0  0
   -0.0324   -2.1266    1.0717 H   0  0  0  0  0  0  0  0  0  0  0  0
   -1.7779   -1.8536    1.5423 H   0  0  0  0  0  0  0  0  0  0  0  0
  1  2  1  0
  2  3  1  0
  3  4  1  0
  4  5  1  0
  5  6  1  0
  6  7  1  0
  3  8  1  0
  8  9  1  0
  9  3  1  0
  7  5  1  0
  1 10  1  0
  2 11  1  0
  2 12  1  0
  4 13  1  0
  4 14  1  0
  5 15  1  0
  6 16  1  0
  6 17  1  0
  7 18  1  0
  7 19  1  0
  8 20  1  0
  8 21  1  0
M  END
