
     RDKit          3D

 19 20  0  0  0  0  0  0  0  0999 V2000
   -2.2967   -0.3450    1.1224 O   0  0  0  0  0  0  0  0  0  0  0  0
   -1.5465   -0.3736   -0.0396 C   0  0  0  0  0  0  0  0  0  0  0  0
   -0.1678    0.2181    0.1289 C   0  0  0  0  0  0  0  0  0  0  0  0
   -0.0931    1.6612    0.5581 C   0  0  0  0  0  0  0  0  0  0  0  0
   -0.7239    2.5078   -0.3632 O   0  0  0  0  0  0  0  0  0  0  0  0
    1.0236   -0.6049    0.3408 C   0  0  0  0  0  0  0  0  0  0  0  0
    1.2294   -1.9398   -0.3097 C   0  0  0  0  0  0  0  0  0  0  0  0
    0.7392   -1.4251   -1.5321 O   0  0  0  0  0  0  0  0  0  0  0  0
    0.7708   -0.1388   -1.0232 C   0  0  0  0  0  0  0  0  0  0  0  0
   -1.7430   -0.4948    1.9079 H   0  0  0  0  0  0  0  0  0  0  0  0
   -2.0701    0.2185   -0.8314 H   0  0  0  0  0  0  0  0  0  0  0  0
   -1.4443   -1.4126   -0.4458 H   0  0  0  0  0  0  0  0  0  0  0  0
   -0.6215    1.7534    1.5458 H   0  0  0  0  0  0  0  0  0  0  0  0
    0.9667    1.9509    0.7037 H   0  0  0  0  0  0  0  0  0  0  0  0
   -0.0727    2.8919   -0.9819 H   0  0  0  0  0  0  0  0  0  0  0  0
    1.8367   -0.2235    0.9833 H   0  0  0  0  0  0  0  0  0  0  0  0
    0.5925   -2.6998    0.1573 H   0  0  0  0  0  0  0  0  0  0  0  0
    2.3214   -2.2137   -0.3980 H   0  0  0  0  0  0  0  0  0  0  0  0
    1.2991    0.6698   -1.5234 H   0  0  0  0  0  0  0  0  0  0  0  0
  1  2  1  0
  2  3  1  0
  3  4  1  0
  4  5  1  0
  3  6  1  0
  6  7  1  0
  7  8  1  0
  8  9  1  0
  9  3  1  0
  9  6  1  0
  1 10  1  0
  2 11  1  0
  2 12  1  0
  4 13  1  0
  4 14  1  0
  5 15  1  0
  6 16  1  0
  7 17  1  0
  7 18  1  0
  9 19  1  0
M  END
