
     RDKit          3D

 17 19  0  0  0  0  0  0  0  0999 V2000
    2.5364    0.5449   -0.3487 O   0  0  0  0  0  0  0  0  0  0  0  0
    1.6518   -0.4667   -0.0062 C   0  0  0  0  0  0  0  0  0  0  0  0
    0.2834   -0.0168    0.1162 C   0  0  0  0  0  0  0  0  0  0  0  0
   -0.5109    0.6162   -0.9998 C   0  0  0  0  0  0  0  0  0  0  0  0
   -1.8820    0.4958   -0.3128 C   0  0  0  0  0  0  0  0  0  0  0  0
   -1.8933   -0.8653   -0.0664 O   0  0  0  0  0  0  0  0  0  0  0  0
   -0.7304   -1.0147    0.6739 C   0  0  0  0  0  0  0  0  0  0  0  0
   -0.4793    0.2812    1.3173 C   0  0  0  0  0  0  0  0  0  0  0  0
   -1.5998    1.0483    0.9166 O   0  0  0  0  0  0  0  0  0  0  0  0
    2.8274    0.5377   -1.2734 H   0  0  0  0  0  0  0  0  0  0  0  0
    1.7271   -1.2391   -0.8278 H   0  0  0  0  0  0  0  0  0  0  0  0
    1.9584   -1.0079    0.9129 H   0  0  0  0  0  0  0  0  0  0  0  0
   -0.4734    0.0736   -1.9403 H   0  0  0  0  0  0  0  0  0  0  0  0
   -0.2427    1.6776   -1.0469 H   0  0  0  0  0  0  0  0  0  0  0  0
   -2.6904    0.9016   -0.8708 H   0  0  0  0  0  0  0  0  0  0  0  0
   -0.4022   -1.9720    1.0493 H   0  0  0  0  0  0  0  0  0  0  0  0
   -0.0800    0.4056    2.3187 H   0  0  0  0  0  0  0  0  0  0  0  0
  1  2  1  0
  2  3  1  0
  3  4  1  0
  4  5  1  0
  5  6  1  0
  6  7  1  0
  7  8  1  0
  8  9  1  0
  7  3  1  0
  8  3  1  0
  9  5  1  0
  1 10  1  0
  2 11  1  0
  2 12  1  0
  4 13  1  0
  4 14  1  0
  5 15  1  0
  7 16  1  0
  8 17  1  0
M  END
