
     RDKit          3D

 19 20  0  0  0  0  0  0  0  0999 V2000
    2.0897    0.8091    1.1445 O   0  0  0  0  0  0  0  0  0  0  0  0
    1.8214    0.2898   -0.1341 C   0  0  0  0  0  0  0  0  0  0  0  0
    0.3944   -0.0138   -0.2180 C   0  0  0  0  0  0  0  0  0  0  0  0
   -0.5528    1.0926    0.0503 C   0  0  0  0  0  0  0  0  0  0  0  0
   -1.7064    0.3597    0.7480 C   0  0  0  0  0  0  0  0  0  0  0  0
   -1.2879   -1.0809    0.4420 C   0  0  0  0  0  0  0  0  0  0  0  0
   -1.2978   -1.2889   -0.9341 O   0  0  0  0  0  0  0  0  0  0  0  0
   -0.0664   -0.7805   -1.4172 C   0  0  0  0  0  0  0  0  0  0  0  0
    0.0824   -0.9700    0.7852 O   0  0  0  0  0  0  0  0  0  0  0  0
    2.7342    0.2331    1.6457 H   0  0  0  0  0  0  0  0  0  0  0  0
    2.4072   -0.6467   -0.2353 H   0  0  0  0  0  0  0  0  0  0  0  0
    2.2046    0.9924   -0.8754 H   0  0  0  0  0  0  0  0  0  0  0  0
   -0.9760    1.5194   -0.9036 H   0  0  0  0  0  0  0  0  0  0  0  0
   -0.1727    1.9254    0.6287 H   0  0  0  0  0  0  0  0  0  0  0  0
   -2.6717    0.6174    0.3298 H   0  0  0  0  0  0  0  0  0  0  0  0
   -1.5885    0.4915    1.8251 H   0  0  0  0  0  0  0  0  0  0  0  0
   -1.8125   -1.8155    1.0231 H   0  0  0  0  0  0  0  0  0  0  0  0
    0.6004   -1.6481   -1.6577 H   0  0  0  0  0  0  0  0  0  0  0  0
   -0.2014   -0.0861   -2.2468 H   0  0  0  0  0  0  0  0  0  0  0  0
  1  2  1  0
  2  3  1  0
  3  4  1  0
  4  5  1  0
  5  6  1  0
  6  7  1  0
  7  8  1  0
  6  9  1  0
  8  3  1  0
  9  3  1  0
  1 10  1  0
  2 11  1  0
  2 12  1  0
  4 13  1  0
  4 14  1  0
  5 15  1  0
  5 16  1  0
  6 17  1  0
  8 18  1  0
  8 19  1  0
M  END
