
     RDKit          3D

 21 22  0  0  0  0  0  0  0  0999 V2000
   -3.4207   -0.6920    0.3735 O   0  0  0  0  0  0  0  0  0  0  0  0
   -2.5140   -0.1219   -0.5291 C   0  0  0  0  0  0  0  0  0  0  0  0
   -1.1330   -0.5737   -0.1152 C   0  0  0  0  0  0  0  0  0  0  0  0
   -0.1452    0.2570   -0.9387 C   0  0  0  0  0  0  0  0  0  0  0  0
    1.0790    0.1693   -0.0920 C   0  0  0  0  0  0  0  0  0  0  0  0
    2.1766    1.1453   -0.2273 C   0  0  0  0  0  0  0  0  0  0  0  0
    2.3554   -0.3447   -0.6062 C   0  0  0  0  0  0  0  0  0  0  0  0
    0.5681   -0.2568    1.2639 C   0  0  0  0  0  0  0  0  0  0  0  0
   -0.8290   -0.1633    1.1778 O   0  0  0  0  0  0  0  0  0  0  0  0
   -3.2806   -0.2152    1.2396 H   0  0  0  0  0  0  0  0  0  0  0  0
   -2.7119   -0.4515   -1.5692 H   0  0  0  0  0  0  0  0  0  0  0  0
   -2.6086    0.9779   -0.5302 H   0  0  0  0  0  0  0  0  0  0  0  0
   -0.9687   -1.6416   -0.2720 H   0  0  0  0  0  0  0  0  0  0  0  0
   -0.0342   -0.1629   -1.9444 H   0  0  0  0  0  0  0  0  0  0  0  0
   -0.5640    1.2951   -0.9587 H   0  0  0  0  0  0  0  0  0  0  0  0
    2.8047    1.4659    0.6090 H   0  0  0  0  0  0  0  0  0  0  0  0
    2.0926    1.8366   -1.0987 H   0  0  0  0  0  0  0  0  0  0  0  0
    2.4126   -0.5660   -1.6922 H   0  0  0  0  0  0  0  0  0  0  0  0
    2.9482   -0.9715    0.0853 H   0  0  0  0  0  0  0  0  0  0  0  0
    0.7994   -1.3425    1.3855 H   0  0  0  0  0  0  0  0  0  0  0  0
    0.9734    0.3566    2.0898 H   0  0  0  0  0  0  0  0  0  0  0  0
  1  2  1  0
  2  3  1  0
  3  4  1  0
  4  5  1  0
  5  6  1  0
  6  7  1  0
  5  8  1  0
  8  9  1  0
  9  3  1  0
  7  5  1  0
  1 10  1  0
  2 11  1  0
  2 12  1  0
  3 13  1  0
  4 14  1  0
  4 15  1  0
  6 16  1  0
  6 17  1  0
  7 18  1  0
  7 19  1  0
  8 20  1  0
  8 21  1  0
M  END
