
     RDKit          3D

 15 16  0  0  0  0  0  0  0  0999 V2000
    2.3191   -0.9021    0.0977 O   0  0  0  0  0  0  0  0  0  0  0  0
    1.5870    0.2265   -0.2587 C   0  0  0  0  0  0  0  0  0  0  0  0
    0.2072    0.2316    0.3464 C   0  0  0  0  0  0  0  0  0  0  0  0
   -0.6778   -0.9008   -0.0147 C   0  0  0  0  0  0  0  0  0  0  0  0
   -1.8570    0.0158    0.2169 C   0  0  0  0  0  0  0  0  0  0  0  0
   -0.8346    0.7529   -0.5817 C   0  0  0  0  0  0  0  0  0  0  0  0
   -0.6719   -0.4245   -1.3104 O   0  0  0  0  0  0  0  0  0  0  0  0
    2.4360   -0.9131    1.0698 H   0  0  0  0  0  0  0  0  0  0  0  0
    1.4832    0.3361   -1.3412 H   0  0  0  0  0  0  0  0  0  0  0  0
    2.1580    1.1014    0.1159 H   0  0  0  0  0  0  0  0  0  0  0  0
    0.1255    0.5365    1.3906 H   0  0  0  0  0  0  0  0  0  0  0  0
   -0.6211   -1.8631    0.2818 H   0  0  0  0  0  0  0  0  0  0  0  0
   -1.9551    0.3760    1.2553 H   0  0  0  0  0  0  0  0  0  0  0  0
   -2.7890   -0.2551   -0.2995 H   0  0  0  0  0  0  0  0  0  0  0  0
   -0.9095    1.6819   -0.9681 H   0  0  0  0  0  0  0  0  0  0  0  0
  1  2  1  0
  2  3  1  0
  3  4  1  0
  4  5  1  0
  5  6  1  0
  6  7  1  0
  6  3  1  0
  7  4  1  0
  1  8  1  0
  2  9  1  0
  2 10  1  0
  3 11  1  0
  4 12  1  0
  5 13  1  0
  5 14  1  0
  6 15  1  0
M  END
