
     RDKit          3D

 21 22  0  0  0  0  0  0  0  0999 V2000
    1.7446    1.8877   -0.0159 O   0  0  0  0  0  0  0  0  0  0  0  0
    1.8456    0.5992   -0.5889 C   0  0  0  0  0  0  0  0  0  0  0  0
    0.9921   -0.3116    0.2411 C   0  0  0  0  0  0  0  0  0  0  0  0
    1.3878   -0.3802    1.5847 O   0  0  0  0  0  0  0  0  0  0  0  0
    0.4256   -1.5684   -0.3001 C   0  0  0  0  0  0  0  0  0  0  0  0
   -0.4147   -0.4221   -0.0655 C   0  0  0  0  0  0  0  0  0  0  0  0
   -1.4409   -0.2515    0.9763 C   0  0  0  0  0  0  0  0  0  0  0  0
   -2.1754    0.6950    0.0270 C   0  0  0  0  0  0  0  0  0  0  0  0
   -1.1678    0.3496   -1.0684 C   0  0  0  0  0  0  0  0  0  0  0  0
    2.0537    1.7556    0.9354 H   0  0  0  0  0  0  0  0  0  0  0  0
    1.5336    0.6567   -1.6426 H   0  0  0  0  0  0  0  0  0  0  0  0
    2.9234    0.3286   -0.5670 H   0  0  0  0  0  0  0  0  0  0  0  0
    1.8900   -1.2337    1.6677 H   0  0  0  0  0  0  0  0  0  0  0  0
    0.4345   -2.4844    0.3266 H   0  0  0  0  0  0  0  0  0  0  0  0
    0.6902   -1.8086   -1.3683 H   0  0  0  0  0  0  0  0  0  0  0  0
   -1.0567    0.3443    1.8415 H   0  0  0  0  0  0  0  0  0  0  0  0
   -2.0415   -1.1161    1.2824 H   0  0  0  0  0  0  0  0  0  0  0  0
   -2.0770    1.7600    0.2748 H   0  0  0  0  0  0  0  0  0  0  0  0
   -3.1945    0.3359   -0.1764 H   0  0  0  0  0  0  0  0  0  0  0  0
   -0.6959    1.2040   -1.5502 H   0  0  0  0  0  0  0  0  0  0  0  0
   -1.6567   -0.3398   -1.8142 H   0  0  0  0  0  0  0  0  0  0  0  0
  1  2  1  0
  2  3  1  0
  3  4  1  0
  3  5  1  0
  5  6  1  0
  6  7  1  0
  7  8  1  0
  8  9  1  0
  6  3  1  0
  9  6  1  0
  1 10  1  0
  2 11  1  0
  2 12  1  0
  4 13  1  0
  5 14  1  0
  5 15  1  0
  7 16  1  0
  7 17  1  0
  8 18  1  0
  8 19  1  0
  9 20  1  0
  9 21  1  0
M  END
