
     RDKit          3D

 19 21  0  0  0  0  0  0  0  0999 V2000
   -2.5849   -0.5126   -0.7866 O   0  0  0  0  0  0  0  0  0  0  0  0
   -2.1586    0.2248    0.3154 C   0  0  0  0  0  0  0  0  0  0  0  0
   -0.6578    0.2827    0.2816 C   0  0  0  0  0  0  0  0  0  0  0  0
    0.0395    0.9611    1.2701 O   0  0  0  0  0  0  0  0  0  0  0  0
    1.0799    0.0247    1.2274 C   0  0  0  0  0  0  0  0  0  0  0  0
    2.0792    0.4033    0.1378 C   0  0  0  0  0  0  0  0  0  0  0  0
    1.3990    0.1952   -1.1724 C   0  0  0  0  0  0  0  0  0  0  0  0
    0.0545   -0.3981   -0.8326 C   0  0  0  0  0  0  0  0  0  0  0  0
    0.1720   -0.9074    0.5219 C   0  0  0  0  0  0  0  0  0  0  0  0
   -3.5491   -0.3252   -1.0042 H   0  0  0  0  0  0  0  0  0  0  0  0
   -2.5196   -0.2937    1.2412 H   0  0  0  0  0  0  0  0  0  0  0  0
   -2.5936    1.2435    0.2981 H   0  0  0  0  0  0  0  0  0  0  0  0
    1.5068   -0.2660    2.1829 H   0  0  0  0  0  0  0  0  0  0  0  0
    2.4177    1.4556    0.2579 H   0  0  0  0  0  0  0  0  0  0  0  0
    3.0087   -0.2183    0.2439 H   0  0  0  0  0  0  0  0  0  0  0  0
    1.1842    1.1960   -1.6468 H   0  0  0  0  0  0  0  0  0  0  0  0
    1.9642   -0.4025   -1.9008 H   0  0  0  0  0  0  0  0  0  0  0  0
   -0.5605   -0.8833   -1.5797 H   0  0  0  0  0  0  0  0  0  0  0  0
   -0.2818   -1.7797    0.9449 H   0  0  0  0  0  0  0  0  0  0  0  0
  1  2  1  0
  2  3  1  0
  3  4  1  0
  4  5  1  0
  5  6  1  0
  6  7  1  0
  7  8  1  0
  8  9  1  0
  8  3  1  0
  9  3  1  0
  9  5  1  0
  1 10  1  0
  2 11  1  0
  2 12  1  0
  5 13  1  0
  6 14  1  0
  6 15  1  0
  7 16  1  0
  7 17  1  0
  8 18  1  0
  9 19  1  0
M  END
