
     RDKit          3D

 19 20  0  0  0  0  0  0  0  0999 V2000
    3.0882    0.0490   -0.8625 O   0  0  0  0  0  0  0  0  0  0  0  0
    2.2718   -0.1708    0.2304 C   0  0  0  0  0  0  0  0  0  0  0  0
    0.8436   -0.4547   -0.1990 C   0  0  0  0  0  0  0  0  0  0  0  0
    0.3337    0.7775   -0.8648 C   0  0  0  0  0  0  0  0  0  0  0  0
   -0.9637    1.0357   -0.8941 C   0  0  0  0  0  0  0  0  0  0  0  0
   -1.8933    0.0782   -0.2548 C   0  0  0  0  0  0  0  0  0  0  0  0
   -2.1915    0.2196    1.1917 C   0  0  0  0  0  0  0  0  0  0  0  0
   -1.2432   -0.8530    0.6927 C   0  0  0  0  0  0  0  0  0  0  0  0
    0.0801   -0.6660    0.9616 O   0  0  0  0  0  0  0  0  0  0  0  0
    3.4281   -0.8318   -1.1724 H   0  0  0  0  0  0  0  0  0  0  0  0
    2.7000   -1.0545    0.7823 H   0  0  0  0  0  0  0  0  0  0  0  0
    2.3209    0.6829    0.9353 H   0  0  0  0  0  0  0  0  0  0  0  0
    0.7778   -1.3438   -0.8227 H   0  0  0  0  0  0  0  0  0  0  0  0
    1.0132    1.5017   -1.3466 H   0  0  0  0  0  0  0  0  0  0  0  0
   -1.3510    1.9535   -1.3881 H   0  0  0  0  0  0  0  0  0  0  0  0
   -2.6701   -0.4119   -0.9148 H   0  0  0  0  0  0  0  0  0  0  0  0
   -1.7388    1.0983    1.6908 H   0  0  0  0  0  0  0  0  0  0  0  0
   -3.2302   -0.0846    1.4912 H   0  0  0  0  0  0  0  0  0  0  0  0
   -1.5753   -1.9161    0.7437 H   0  0  0  0  0  0  0  0  0  0  0  0
  1  2  1  0
  2  3  1  0
  3  4  1  0
  4  5  2  0
  5  6  1  0
  6  7  1  0
  7  8  1  0
  8  9  1  0
  9  3  1  0
  8  6  1  0
  1 10  1  0
  2 11  1  0
  2 12  1  0
  3 13  1  0
  4 14  1  0
  5 15  1  0
  6 16  1  0
  7 17  1  0
  7 18  1  0
  8 19  1  0
M  END
