
     RDKit          3D

 21 22  0  0  0  0  0  0  0  0999 V2000
    3.2406   -0.5336   -0.1992 O   0  0  0  0  0  0  0  0  0  0  0  0
    2.2646   -0.1316    0.7171 C   0  0  0  0  0  0  0  0  0  0  0  0
    1.1697    0.5838   -0.0731 C   0  0  0  0  0  0  0  0  0  0  0  0
    0.5095   -0.3161   -1.1454 C   0  0  0  0  0  0  0  0  0  0  0  0
   -0.2000    0.2012    0.0097 C   0  0  0  0  0  0  0  0  0  0  0  0
   -0.8816   -0.5985    1.0423 C   0  0  0  0  0  0  0  0  0  0  0  0
   -2.1955   -0.1293    0.3964 C   0  0  0  0  0  0  0  0  0  0  0  0
   -2.5251   -0.8759   -0.7175 O   0  0  0  0  0  0  0  0  0  0  0  0
   -1.3895    1.0998   -0.0515 C   0  0  0  0  0  0  0  0  0  0  0  0
    2.9120   -0.4943   -1.1227 H   0  0  0  0  0  0  0  0  0  0  0  0
    1.7967   -1.0205    1.2251 H   0  0  0  0  0  0  0  0  0  0  0  0
    2.6679    0.5424    1.4794 H   0  0  0  0  0  0  0  0  0  0  0  0
    1.4321    1.6030   -0.4262 H   0  0  0  0  0  0  0  0  0  0  0  0
    0.2939    0.1637   -2.1298 H   0  0  0  0  0  0  0  0  0  0  0  0
    0.8932   -1.3412   -1.2539 H   0  0  0  0  0  0  0  0  0  0  0  0
   -0.7454   -1.6812    1.0534 H   0  0  0  0  0  0  0  0  0  0  0  0
   -0.8007   -0.1045    2.0496 H   0  0  0  0  0  0  0  0  0  0  0  0
   -2.9963    0.0908    1.1032 H   0  0  0  0  0  0  0  0  0  0  0  0
   -2.3625   -0.3878   -1.5748 H   0  0  0  0  0  0  0  0  0  0  0  0
   -1.4165    1.9096    0.7023 H   0  0  0  0  0  0  0  0  0  0  0  0
   -1.6674    1.4204   -1.0843 H   0  0  0  0  0  0  0  0  0  0  0  0
  1  2  1  0
  2  3  1  0
  3  4  1  0
  4  5  1  0
  5  6  1  0
  6  7  1  0
  7  8  1  0
  7  9  1  0
  5  3  1  0
  9  5  1  0
  1 10  1  0
  2 11  1  0
  2 12  1  0
  3 13  1  0
  4 14  1  0
  4 15  1  0
  6 16  1  0
  6 17  1  0
  7 18  1  0
  8 19  1  0
  9 20  1  0
  9 21  1  0
M  END
