
     RDKit          3D

 21 22  0  0  0  0  0  0  0  0999 V2000
   -2.7641    0.9193    0.7439 O   0  0  0  0  0  0  0  0  0  0  0  0
   -1.8671    0.6737   -0.3141 C   0  0  0  0  0  0  0  0  0  0  0  0
   -1.1806   -0.6260    0.0042 C   0  0  0  0  0  0  0  0  0  0  0  0
   -0.4162   -0.5919    1.3081 C   0  0  0  0  0  0  0  0  0  0  0  0
    0.6656   -1.3836    0.6148 C   0  0  0  0  0  0  0  0  0  0  0  0
    1.3943   -0.6437   -0.4452 C   0  0  0  0  0  0  0  0  0  0  0  0
    1.8807    0.7635   -0.1860 C   0  0  0  0  0  0  0  0  0  0  0  0
    2.5319    1.2347   -1.3353 O   0  0  0  0  0  0  0  0  0  0  0  0
    0.0257   -0.9910   -0.7612 C   0  0  0  0  0  0  0  0  0  0  0  0
   -2.6850    1.8360    1.0948 H   0  0  0  0  0  0  0  0  0  0  0  0
   -1.2076    1.5389   -0.3644 H   0  0  0  0  0  0  0  0  0  0  0  0
   -2.4725    0.6059   -1.2410 H   0  0  0  0  0  0  0  0  0  0  0  0
   -1.9599   -1.4360    0.0662 H   0  0  0  0  0  0  0  0  0  0  0  0
   -0.1259    0.4620    1.5306 H   0  0  0  0  0  0  0  0  0  0  0  0
   -0.9069   -1.1031    2.1536 H   0  0  0  0  0  0  0  0  0  0  0  0
    0.7669   -2.4564    0.7761 H   0  0  0  0  0  0  0  0  0  0  0  0
    2.2060   -1.2734   -0.9174 H   0  0  0  0  0  0  0  0  0  0  0  0
    1.1215    1.4438    0.1897 H   0  0  0  0  0  0  0  0  0  0  0  0
    2.7037    0.6588    0.5819 H   0  0  0  0  0  0  0  0  0  0  0  0
    2.4285    2.2294   -1.3118 H   0  0  0  0  0  0  0  0  0  0  0  0
   -0.1388   -1.8609   -1.4635 H   0  0  0  0  0  0  0  0  0  0  0  0
  1  2  1  0
  2  3  1  0
  3  4  1  0
  4  5  1  0
  5  6  1  0
  6  7  1  0
  7  8  1  0
  6  9  1  0
  9  3  1  0
  9  5  1  0
  1 10  1  0
  2 11  1  0
  2 12  1  0
  3 13  1  0
  4 14  1  0
  4 15  1  0
  5 16  1  0
  6 17  1  0
  7 18  1  0
  7 19  1  0
  8 20  1  0
  9 21  1  0
M  END
