
     RDKit          3D

 19 21  0  0  0  0  0  0  0  0999 V2000
    2.4896   -0.3362    0.3632 O   0  0  0  0  0  0  0  0  0  0  0  0
    1.6828    0.2440   -0.6346 C   0  0  0  0  0  0  0  0  0  0  0  0
    0.2942    0.1090   -0.2642 C   0  0  0  0  0  0  0  0  0  0  0  0
   -0.2907   -1.2726   -0.0643 C   0  0  0  0  0  0  0  0  0  0  0  0
   -1.2843   -0.5216    0.8299 C   0  0  0  0  0  0  0  0  0  0  0  0
   -0.0779    0.3344    1.2073 C   0  0  0  0  0  0  0  0  0  0  0  0
   -2.0015    0.3847   -0.1308 C   0  0  0  0  0  0  0  0  0  0  0  0
   -1.6243    1.7128   -0.2442 O   0  0  0  0  0  0  0  0  0  0  0  0
   -0.7890    0.8508   -0.9632 C   0  0  0  0  0  0  0  0  0  0  0  0
    3.4033    0.0024    0.3449 H   0  0  0  0  0  0  0  0  0  0  0  0
    1.9157   -0.1693   -1.6287 H   0  0  0  0  0  0  0  0  0  0  0  0
    1.9695    1.3149   -0.6575 H   0  0  0  0  0  0  0  0  0  0  0  0
   -0.7400   -1.7394   -0.9372 H   0  0  0  0  0  0  0  0  0  0  0  0
    0.3193   -1.9231    0.5627 H   0  0  0  0  0  0  0  0  0  0  0  0
   -1.7958   -1.0536    1.5809 H   0  0  0  0  0  0  0  0  0  0  0  0
   -0.2967    1.3645    1.4772 H   0  0  0  0  0  0  0  0  0  0  0  0
    0.6057   -0.2367    1.8597 H   0  0  0  0  0  0  0  0  0  0  0  0
   -2.8997    0.0617   -0.6519 H   0  0  0  0  0  0  0  0  0  0  0  0
   -0.8802    0.8734   -2.0491 H   0  0  0  0  0  0  0  0  0  0  0  0
  1  2  1  0
  2  3  1  0
  3  4  1  0
  4  5  1  0
  5  6  1  0
  5  7  1  0
  7  8  1  0
  8  9  1  0
  6  3  1  0
  9  7  1  0
  9  3  1  0
  1 10  1  0
  2 11  1  0
  2 12  1  0
  4 13  1  0
  4 14  1  0
  5 15  1  0
  6 16  1  0
  6 17  1  0
  7 18  1  0
  9 19  1  0
M  END
