
     RDKit          3D

 21 21  0  0  0  0  0  0  0  0999 V2000
    3.0339   -0.3533    0.5337 O   0  0  0  0  0  0  0  0  0  0  0  0
    2.3068    0.1249   -0.5709 C   0  0  0  0  0  0  0  0  0  0  0  0
    0.8810    0.1577   -0.1529 C   0  0  0  0  0  0  0  0  0  0  0  0
    0.1703    1.2695   -0.1385 C   0  0  0  0  0  0  0  0  0  0  0  0
   -1.2356    1.1742    0.2958 C   0  0  0  0  0  0  0  0  0  0  0  0
   -1.3761    1.0251    1.6695 O   0  0  0  0  0  0  0  0  0  0  0  0
   -1.8428    0.0283   -0.4729 C   0  0  0  0  0  0  0  0  0  0  0  0
   -1.1376   -1.2774   -0.3112 C   0  0  0  0  0  0  0  0  0  0  0  0
    0.2241   -1.1166    0.2719 C   0  0  0  0  0  0  0  0  0  0  0  0
    3.3248    0.4430    1.0327 H   0  0  0  0  0  0  0  0  0  0  0  0
    2.4377   -0.5678   -1.4142 H   0  0  0  0  0  0  0  0  0  0  0  0
    2.6524    1.1465   -0.8317 H   0  0  0  0  0  0  0  0  0  0  0  0
    0.6131    2.1884   -0.4324 H   0  0  0  0  0  0  0  0  0  0  0  0
   -1.8324    2.0800    0.0205 H   0  0  0  0  0  0  0  0  0  0  0  0
   -1.7235    0.1624    1.9413 H   0  0  0  0  0  0  0  0  0  0  0  0
   -1.7832    0.3400   -1.5597 H   0  0  0  0  0  0  0  0  0  0  0  0
   -2.9323   -0.0367   -0.2516 H   0  0  0  0  0  0  0  0  0  0  0  0
   -1.8075   -1.9100    0.3421 H   0  0  0  0  0  0  0  0  0  0  0  0
   -1.0505   -1.7723   -1.3180 H   0  0  0  0  0  0  0  0  0  0  0  0
    0.8499   -1.9801   -0.0384 H   0  0  0  0  0  0  0  0  0  0  0  0
    0.2276   -1.1258    1.3849 H   0  0  0  0  0  0  0  0  0  0  0  0
  1  2  1  0
  2  3  1  0
  3  4  2  0
  4  5  1  0
  5  6  1  0
  5  7  1  0
  7  8  1  0
  8  9  1  0
  9  3  1  0
  1 10  1  0
  2 11  1  0
  2 12  1  0
  4 13  1  0
  5 14  1  0
  6 15  1  0
  7 16  1  0
  7 17  1  0
  8 18  1  0
  8 19  1  0
  9 20  1  0
  9 21  1  0
M  END
