
     RDKit          3D

 19 20  0  0  0  0  0  0  0  0999 V2000
    2.6941   -0.2461    0.6349 O   0  0  0  0  0  0  0  0  0  0  0  0
    1.6890   -0.8627   -0.1021 C   0  0  0  0  0  0  0  0  0  0  0  0
    0.4281   -0.1656    0.0912 C   0  0  0  0  0  0  0  0  0  0  0  0
    0.2304    1.1628   -0.6187 C   0  0  0  0  0  0  0  0  0  0  0  0
   -1.2288    0.8030   -0.4397 C   0  0  0  0  0  0  0  0  0  0  0  0
   -1.3375    0.6725    1.0428 C   0  0  0  0  0  0  0  0  0  0  0  0
   -0.1408   -0.0386    1.3246 O   0  0  0  0  0  0  0  0  0  0  0  0
   -0.7541   -0.6200   -0.7868 C   0  0  0  0  0  0  0  0  0  0  0  0
   -1.5076   -1.6186   -0.2250 O   0  0  0  0  0  0  0  0  0  0  0  0
    2.2879    0.3576    1.3316 H   0  0  0  0  0  0  0  0  0  0  0  0
    1.6666   -1.9413    0.1210 H   0  0  0  0  0  0  0  0  0  0  0  0
    2.0150   -0.7887   -1.1726 H   0  0  0  0  0  0  0  0  0  0  0  0
    0.5913    2.0173   -0.0296 H   0  0  0  0  0  0  0  0  0  0  0  0
    0.4931    1.1308   -1.6800 H   0  0  0  0  0  0  0  0  0  0  0  0
   -1.9714    1.2435   -1.0349 H   0  0  0  0  0  0  0  0  0  0  0  0
   -1.3736    1.6229    1.5859 H   0  0  0  0  0  0  0  0  0  0  0  0
   -2.2025    0.0177    1.2684 H   0  0  0  0  0  0  0  0  0  0  0  0
   -0.5180   -0.6878   -1.8524 H   0  0  0  0  0  0  0  0  0  0  0  0
   -1.0614   -2.0588    0.5414 H   0  0  0  0  0  0  0  0  0  0  0  0
  1  2  1  0
  2  3  1  0
  3  4  1  0
  4  5  1  0
  5  6  1  0
  6  7  1  0
  5  8  1  0
  8  9  1  0
  7  3  1  0
  8  3  1  0
  1 10  1  0
  2 11  1  0
  2 12  1  0
  4 13  1  0
  4 14  1  0
  5 15  1  0
  6 16  1  0
  6 17  1  0
  8 18  1  0
  9 19  1  0
M  END
