
     RDKit          3D

 18 19  0  0  0  0  0  0  0  0999 V2000
    2.7343   -0.4438    1.0196 O   0  0  0  0  0  0  0  0  0  0  0  0
    2.0996    0.2092   -0.0173 C   0  0  0  0  0  0  0  0  0  0  0  0
    0.6197   -0.0644   -0.0274 C   0  0  0  0  0  0  0  0  0  0  0  0
    0.0334   -0.8466    0.8717 C   0  0  0  0  0  0  0  0  0  0  0  0
   -1.4137   -0.9584    0.6529 C   0  0  0  0  0  0  0  0  0  0  0  0
   -1.6682   -0.1037   -0.5654 C   0  0  0  0  0  0  0  0  0  0  0  0
   -1.4490    1.3818   -0.4421 C   0  0  0  0  0  0  0  0  0  0  0  0
   -0.3799    0.4558   -0.9793 C   0  0  0  0  0  0  0  0  0  0  0  0
    3.6383   -0.7464    0.7397 H   0  0  0  0  0  0  0  0  0  0  0  0
    2.4724   -0.1539   -0.9991 H   0  0  0  0  0  0  0  0  0  0  0  0
    2.2279    1.3076    0.0607 H   0  0  0  0  0  0  0  0  0  0  0  0
    0.5471   -1.3664    1.6991 H   0  0  0  0  0  0  0  0  0  0  0  0
   -1.6554   -2.0122    0.4075 H   0  0  0  0  0  0  0  0  0  0  0  0
   -2.0299   -0.5807    1.4790 H   0  0  0  0  0  0  0  0  0  0  0  0
   -2.4246   -0.4773   -1.2664 H   0  0  0  0  0  0  0  0  0  0  0  0
   -1.1978    1.8140    0.5549 H   0  0  0  0  0  0  0  0  0  0  0  0
   -2.0304    1.9828   -1.1579 H   0  0  0  0  0  0  0  0  0  0  0  0
   -0.1239    0.6027   -2.0303 H   0  0  0  0  0  0  0  0  0  0  0  0
  1  2  1  0
  2  3  1  0
  3  4  2  0
  4  5  1  0
  5  6  1  0
  6  7  1  0
  7  8  1  0
  8  3  1  0
  8  6  1  0
  1  9  1  0
  2 10  1  0
  2 11  1  0
  4 12  1  0
  5 13  1  0
  5 14  1  0
  6 15  1  0
  7 16  1  0
  7 17  1  0
  8 18  1  0
M  END
