
     RDKit          3D

 19 20  0  0  0  0  0  0  0  0999 V2000
    3.0325   -0.4317   -0.0184 O   0  0  0  0  0  0  0  0  0  0  0  0
    1.7814   -0.9427    0.3127 C   0  0  0  0  0  0  0  0  0  0  0  0
    0.6768   -0.0169   -0.1225 C   0  0  0  0  0  0  0  0  0  0  0  0
   -0.6314   -0.0323    0.5911 C   0  0  0  0  0  0  0  0  0  0  0  0
   -1.7273   -0.6472   -0.2275 C   0  0  0  0  0  0  0  0  0  0  0  0
   -2.4852    0.4943    0.4545 C   0  0  0  0  0  0  0  0  0  0  0  0
   -1.2916    1.2112    0.5202 O   0  0  0  0  0  0  0  0  0  0  0  0
    1.1448    1.3134   -0.6478 C   0  0  0  0  0  0  0  0  0  0  0  0
    0.5666    0.2828   -1.4956 O   0  0  0  0  0  0  0  0  0  0  0  0
    3.1570   -0.5522   -0.9927 H   0  0  0  0  0  0  0  0  0  0  0  0
    1.7260   -1.0275    1.4109 H   0  0  0  0  0  0  0  0  0  0  0  0
    1.6917   -1.9480   -0.1529 H   0  0  0  0  0  0  0  0  0  0  0  0
   -0.6312   -0.3754    1.6336 H   0  0  0  0  0  0  0  0  0  0  0  0
   -2.0436   -1.6490    0.1328 H   0  0  0  0  0  0  0  0  0  0  0  0
   -1.6581   -0.5111   -1.3059 H   0  0  0  0  0  0  0  0  0  0  0  0
   -3.2009    1.0154   -0.1806 H   0  0  0  0  0  0  0  0  0  0  0  0
   -2.8270    0.1928    1.4629 H   0  0  0  0  0  0  0  0  0  0  0  0
    2.2073    1.4479   -0.9303 H   0  0  0  0  0  0  0  0  0  0  0  0
    0.5121    2.1761   -0.4444 H   0  0  0  0  0  0  0  0  0  0  0  0
  1  2  1  0
  2  3  1  0
  3  4  1  0
  4  5  1  0
  5  6  1  0
  6  7  1  0
  3  8  1  0
  8  9  1  0
  9  3  1  0
  7  4  1  0
  1 10  1  0
  2 11  1  0
  2 12  1  0
  4 13  1  0
  5 14  1  0
  5 15  1  0
  6 16  1  0
  6 17  1  0
  8 18  1  0
  8 19  1  0
M  END
