
     RDKit          3D

 19 21  0  0  0  0  0  0  0  0999 V2000
    2.0989    1.6272   -0.1496 O   0  0  0  0  0  0  0  0  0  0  0  0
    2.1679    0.2735   -0.4958 C   0  0  0  0  0  0  0  0  0  0  0  0
    0.8275   -0.4077   -0.3965 C   0  0  0  0  0  0  0  0  0  0  0  0
    0.7108   -1.5919    0.4820 C   0  0  0  0  0  0  0  0  0  0  0  0
    0.0213   -0.3053    0.8473 C   0  0  0  0  0  0  0  0  0  0  0  0
   -1.0308    0.1255   -0.0933 C   0  0  0  0  0  0  0  0  0  0  0  0
   -2.1002    1.0467    0.1426 C   0  0  0  0  0  0  0  0  0  0  0  0
   -2.4136   -0.3931   -0.0685 C   0  0  0  0  0  0  0  0  0  0  0  0
   -0.2079    0.0522   -1.1670 O   0  0  0  0  0  0  0  0  0  0  0  0
    2.6945    2.1581   -0.7360 H   0  0  0  0  0  0  0  0  0  0  0  0
    2.5125    0.1426   -1.5608 H   0  0  0  0  0  0  0  0  0  0  0  0
    2.8678   -0.2176    0.1905 H   0  0  0  0  0  0  0  0  0  0  0  0
    0.0304   -2.3960    0.0956 H   0  0  0  0  0  0  0  0  0  0  0  0
    1.6251   -1.8845    1.0177 H   0  0  0  0  0  0  0  0  0  0  0  0
    0.4398    0.3567    1.6249 H   0  0  0  0  0  0  0  0  0  0  0  0
   -2.3449    1.4567    1.1393 H   0  0  0  0  0  0  0  0  0  0  0  0
   -2.3895    1.7611   -0.6799 H   0  0  0  0  0  0  0  0  0  0  0  0
   -2.7040   -1.0224    0.8180 H   0  0  0  0  0  0  0  0  0  0  0  0
   -2.8057   -0.7818   -1.0107 H   0  0  0  0  0  0  0  0  0  0  0  0
  1  2  1  0
  2  3  1  0
  3  4  1  0
  4  5  1  0
  5  6  1  0
  6  7  1  0
  7  8  1  0
  6  9  1  0
  5  3  1  0
  8  6  1  0
  9  3  1  0
  1 10  1  0
  2 11  1  0
  2 12  1  0
  4 13  1  0
  4 14  1  0
  5 15  1  0
  7 16  1  0
  7 17  1  0
  8 18  1  0
  8 19  1  0
M  END
