
     RDKit          3D

 21 22  0  0  0  0  0  0  0  0999 V2000
    2.8468   -0.0155   -1.1935 O   0  0  0  0  0  0  0  0  0  0  0  0
    1.6309   -0.6412   -0.9255 C   0  0  0  0  0  0  0  0  0  0  0  0
    1.2073   -0.3827    0.5097 C   0  0  0  0  0  0  0  0  0  0  0  0
    1.0716    1.0761    0.6756 C   0  0  0  0  0  0  0  0  0  0  0  0
   -0.1756    1.4299    0.4758 C   0  0  0  0  0  0  0  0  0  0  0  0
   -0.9888    0.2631    0.1618 C   0  0  0  0  0  0  0  0  0  0  0  0
   -1.8748    0.1502   -0.9913 C   0  0  0  0  0  0  0  0  0  0  0  0
   -2.4430    0.3171    0.3878 C   0  0  0  0  0  0  0  0  0  0  0  0
   -0.1802   -0.9242    0.6677 C   0  0  0  0  0  0  0  0  0  0  0  0
    3.5450   -0.5894   -0.7594 H   0  0  0  0  0  0  0  0  0  0  0  0
    1.7350   -1.7458   -1.1135 H   0  0  0  0  0  0  0  0  0  0  0  0
    0.8540   -0.2944   -1.6352 H   0  0  0  0  0  0  0  0  0  0  0  0
    1.9295   -0.8119    1.2303 H   0  0  0  0  0  0  0  0  0  0  0  0
    1.9038    1.7881    0.9343 H   0  0  0  0  0  0  0  0  0  0  0  0
   -0.5791    2.4429    0.5293 H   0  0  0  0  0  0  0  0  0  0  0  0
   -2.0064    0.9632   -1.7232 H   0  0  0  0  0  0  0  0  0  0  0  0
   -1.9303   -0.8657   -1.4759 H   0  0  0  0  0  0  0  0  0  0  0  0
   -2.8787   -0.5588    0.9213 H   0  0  0  0  0  0  0  0  0  0  0  0
   -2.8575    1.3317    0.6229 H   0  0  0  0  0  0  0  0  0  0  0  0
   -0.3702   -1.7539   -0.0506 H   0  0  0  0  0  0  0  0  0  0  0  0
   -0.4394   -1.1788    1.7061 H   0  0  0  0  0  0  0  0  0  0  0  0
  1  2  1  0
  2  3  1  0
  3  4  1  0
  4  5  2  0
  5  6  1  0
  6  7  1  0
  7  8  1  0
  6  9  1  0
  9  3  1  0
  8  6  1  0
  1 10  1  0
  2 11  1  0
  2 12  1  0
  3 13  1  0
  4 14  1  0
  5 15  1  0
  7 16  1  0
  7 17  1  0
  8 18  1  0
  8 19  1  0
  9 20  1  0
  9 21  1  0
M  END
