
     RDKit          3D

 19 20  0  0  0  0  0  0  0  0999 V2000
    2.0567   -0.9889    0.9081 O   0  0  0  0  0  0  0  0  0  0  0  0
    1.8504    0.3092    0.4458 C   0  0  0  0  0  0  0  0  0  0  0  0
    0.7464    0.2620   -0.5659 C   0  0  0  0  0  0  0  0  0  0  0  0
    0.4006    1.4827   -1.1412 O   0  0  0  0  0  0  0  0  0  0  0  0
   -0.9111    1.0096   -1.2254 C   0  0  0  0  0  0  0  0  0  0  0  0
   -0.6236    0.0879   -0.1322 C   0  0  0  0  0  0  0  0  0  0  0  0
   -1.0905    0.3008    1.2192 C   0  0  0  0  0  0  0  0  0  0  0  0
   -1.9140   -0.8427    1.0789 O   0  0  0  0  0  0  0  0  0  0  0  0
   -1.2559   -1.2467   -0.0839 C   0  0  0  0  0  0  0  0  0  0  0  0
    2.5591   -1.5423    0.2599 H   0  0  0  0  0  0  0  0  0  0  0  0
    2.7960    0.5869   -0.0989 H   0  0  0  0  0  0  0  0  0  0  0  0
    1.6849    0.9977    1.2702 H   0  0  0  0  0  0  0  0  0  0  0  0
    1.0327   -0.4425   -1.3927 H   0  0  0  0  0  0  0  0  0  0  0  0
   -1.6517    1.8227   -1.0580 H   0  0  0  0  0  0  0  0  0  0  0  0
   -1.1291    0.4707   -2.1888 H   0  0  0  0  0  0  0  0  0  0  0  0
   -1.7286    1.2019    1.3551 H   0  0  0  0  0  0  0  0  0  0  0  0
   -0.4199    0.1254    2.0807 H   0  0  0  0  0  0  0  0  0  0  0  0
   -1.8889   -1.5498   -0.9185 H   0  0  0  0  0  0  0  0  0  0  0  0
   -0.5134   -2.0447    0.1877 H   0  0  0  0  0  0  0  0  0  0  0  0
  1  2  1  0
  2  3  1  0
  3  4  1  0
  4  5  1  0
  5  6  1  0
  6  7  1  0
  7  8  1  0
  8  9  1  0
  6  3  1  0
  9  6  1  0
  1 10  1  0
  2 11  1  0
  2 12  1  0
  3 13  1  0
  5 14  1  0
  5 15  1  0
  7 16  1  0
  7 17  1  0
  9 18  1  0
  9 19  1  0
M  END
