
     RDKit          3D

 21 22  0  0  0  0  0  0  0  0999 V2000
    2.9083   -0.3323   -0.1767 O   0  0  0  0  0  0  0  0  0  0  0  0
    1.9219    0.6490   -0.2789 C   0  0  0  0  0  0  0  0  0  0  0  0
    0.6928    0.1196    0.3626 C   0  0  0  0  0  0  0  0  0  0  0  0
    0.8904   -0.1888    1.7075 O   0  0  0  0  0  0  0  0  0  0  0  0
    0.1453   -1.1265   -0.3232 C   0  0  0  0  0  0  0  0  0  0  0  0
   -1.2728   -0.9721    0.0613 C   0  0  0  0  0  0  0  0  0  0  0  0
   -2.4313   -0.4789   -0.5608 C   0  0  0  0  0  0  0  0  0  0  0  0
   -1.3766    0.4386   -0.6560 C   0  0  0  0  0  0  0  0  0  0  0  0
   -0.4828    1.1111    0.3064 C   0  0  0  0  0  0  0  0  0  0  0  0
    2.7532   -0.8538    0.6544 H   0  0  0  0  0  0  0  0  0  0  0  0
    2.2247    1.5958    0.1785 H   0  0  0  0  0  0  0  0  0  0  0  0
    1.7142    0.7486   -1.3803 H   0  0  0  0  0  0  0  0  0  0  0  0
    0.7727    0.6815    2.1974 H   0  0  0  0  0  0  0  0  0  0  0  0
    0.3183   -1.0108   -1.4199 H   0  0  0  0  0  0  0  0  0  0  0  0
    0.6301   -2.0494    0.0361 H   0  0  0  0  0  0  0  0  0  0  0  0
   -1.3062   -0.9300    1.1984 H   0  0  0  0  0  0  0  0  0  0  0  0
   -3.3311   -0.1903    0.0528 H   0  0  0  0  0  0  0  0  0  0  0  0
   -2.8001   -1.0284   -1.4698 H   0  0  0  0  0  0  0  0  0  0  0  0
   -0.8950    0.4894   -1.6835 H   0  0  0  0  0  0  0  0  0  0  0  0
   -0.1300    2.0850   -0.1011 H   0  0  0  0  0  0  0  0  0  0  0  0
   -0.9459    1.2427    1.2950 H   0  0  0  0  0  0  0  0  0  0  0  0
  1  2  1  0
  2  3  1  0
  3  4  1  0
  3  5  1  0
  5  6  1  0
  6  7  1  0
  7  8  1  0
  8  9  1  0
  9  3  1  0
  8  6  1  0
  1 10  1  0
  2 11  1  0
  2 12  1  0
  4 13  1  0
  5 14  1  0
  5 15  1  0
  6 16  1  0
  7 17  1  0
  7 18  1  0
  8 19  1  0
  9 20  1  0
  9 21  1  0
M  END
