
     RDKit          3D

 19 20  0  0  0  0  0  0  0  0999 V2000
    2.1618    1.2452   -0.8212 O   0  0  0  0  0  0  0  0  0  0  0  0
    1.7796    0.1408   -0.1034 C   0  0  0  0  0  0  0  0  0  0  0  0
    0.3445    0.0491    0.1162 C   0  0  0  0  0  0  0  0  0  0  0  0
   -0.1201   -0.8708    1.2507 C   0  0  0  0  0  0  0  0  0  0  0  0
   -1.2798    0.0907    1.1201 C   0  0  0  0  0  0  0  0  0  0  0  0
   -1.8860   -0.2936   -0.2112 C   0  0  0  0  0  0  0  0  0  0  0  0
   -0.5759   -0.2324   -1.0295 C   0  0  0  0  0  0  0  0  0  0  0  0
   -0.7043    0.8525   -1.8862 O   0  0  0  0  0  0  0  0  0  0  0  0
   -0.3064    1.0656    0.8022 O   0  0  0  0  0  0  0  0  0  0  0  0
    3.0593    1.5772   -0.5014 H   0  0  0  0  0  0  0  0  0  0  0  0
    2.2864    0.2174    0.9009 H   0  0  0  0  0  0  0  0  0  0  0  0
    2.1514   -0.8100   -0.5326 H   0  0  0  0  0  0  0  0  0  0  0  0
   -0.3550   -1.8900    0.9506 H   0  0  0  0  0  0  0  0  0  0  0  0
    0.5185   -0.7204    2.1334 H   0  0  0  0  0  0  0  0  0  0  0  0
   -1.9109    0.2681    1.9563 H   0  0  0  0  0  0  0  0  0  0  0  0
   -2.2129   -1.3498   -0.1590 H   0  0  0  0  0  0  0  0  0  0  0  0
   -2.6282    0.4045   -0.5834 H   0  0  0  0  0  0  0  0  0  0  0  0
   -0.4014   -1.1831   -1.5315 H   0  0  0  0  0  0  0  0  0  0  0  0
    0.0795    1.4388   -1.8710 H   0  0  0  0  0  0  0  0  0  0  0  0
  1  2  1  0
  2  3  1  0
  3  4  1  0
  4  5  1  0
  5  6  1  0
  6  7  1  0
  7  8  1  0
  5  9  1  0
  7  3  1  0
  9  3  1  0
  1 10  1  0
  2 11  1  0
  2 12  1  0
  4 13  1  0
  4 14  1  0
  5 15  1  0
  6 16  1  0
  6 17  1  0
  7 18  1  0
  8 19  1  0
M  END
