
     RDKit          3D

 18 19  0  0  0  0  0  0  0  0999 V2000
   -1.8136    1.3968   -0.5623 O   0  0  0  0  0  0  0  0  0  0  0  0
   -1.7669    0.1675    0.0418 C   0  0  0  0  0  0  0  0  0  0  0  0
   -0.3999   -0.3759    0.2662 C   0  0  0  0  0  0  0  0  0  0  0  0
    0.6073    0.3263    1.0981 C   0  0  0  0  0  0  0  0  0  0  0  0
    1.5889    0.2418   -0.0516 C   0  0  0  0  0  0  0  0  0  0  0  0
    1.7797    1.4989   -0.6106 O   0  0  0  0  0  0  0  0  0  0  0  0
    0.5893   -0.5700   -0.8037 C   0  0  0  0  0  0  0  0  0  0  0  0
   -0.0532   -1.7492   -0.2034 C   0  0  0  0  0  0  0  0  0  0  0  0
   -2.4562    2.0292   -0.1668 H   0  0  0  0  0  0  0  0  0  0  0  0
   -2.3514   -0.5434   -0.5781 H   0  0  0  0  0  0  0  0  0  0  0  0
   -2.2734    0.2159    1.0494 H   0  0  0  0  0  0  0  0  0  0  0  0
    0.9158   -0.3338    1.9619 H   0  0  0  0  0  0  0  0  0  0  0  0
    0.3476    1.3605    1.3922 H   0  0  0  0  0  0  0  0  0  0  0  0
    2.5246   -0.3025    0.1833 H   0  0  0  0  0  0  0  0  0  0  0  0
    2.7138    1.6176   -0.8574 H   0  0  0  0  0  0  0  0  0  0  0  0
    0.3790   -0.3189   -1.8621 H   0  0  0  0  0  0  0  0  0  0  0  0
   -0.7792   -2.2853   -0.8627 H   0  0  0  0  0  0  0  0  0  0  0  0
    0.4478   -2.3755    0.5658 H   0  0  0  0  0  0  0  0  0  0  0  0
  1  2  1  0
  2  3  1  0
  3  4  1  0
  4  5  1  0
  5  6  1  0
  5  7  1  0
  7  8  1  0
  7  3  1  0
  8  3  1  0
  1  9  1  0
  2 10  1  0
  2 11  1  0
  4 12  1  0
  4 13  1  0
  5 14  1  0
  6 15  1  0
  7 16  1  0
  8 17  1  0
  8 18  1  0
M  END
