
     RDKit          3D

 19 20  0  0  0  0  0  0  0  0999 V2000
    1.5796    1.5931   -0.1580 O   0  0  0  0  0  0  0  0  0  0  0  0
    1.8370    0.2479   -0.3902 C   0  0  0  0  0  0  0  0  0  0  0  0
    0.5911   -0.6007   -0.3319 C   0  0  0  0  0  0  0  0  0  0  0  0
   -0.1431   -0.5767    0.9787 C   0  0  0  0  0  0  0  0  0  0  0  0
   -0.0051   -1.6615    1.7957 O   0  0  0  0  0  0  0  0  0  0  0  0
   -1.4169   -0.6278    0.1279 C   0  0  0  0  0  0  0  0  0  0  0  0
   -1.7065    0.6464   -0.5235 C   0  0  0  0  0  0  0  0  0  0  0  0
   -1.4927    1.7884    0.2830 O   0  0  0  0  0  0  0  0  0  0  0  0
   -0.5906   -0.1077   -1.0837 C   0  0  0  0  0  0  0  0  0  0  0  0
    1.9474    2.1077   -0.9127 H   0  0  0  0  0  0  0  0  0  0  0  0
    2.3753    0.1054   -1.3483 H   0  0  0  0  0  0  0  0  0  0  0  0
    2.5311   -0.1696    0.3967 H   0  0  0  0  0  0  0  0  0  0  0  0
    0.8605   -1.6525   -0.5827 H   0  0  0  0  0  0  0  0  0  0  0  0
   -0.0440    0.3918    1.5104 H   0  0  0  0  0  0  0  0  0  0  0  0
    0.8695   -1.5731    2.2711 H   0  0  0  0  0  0  0  0  0  0  0  0
   -1.9085   -1.5720   -0.0569 H   0  0  0  0  0  0  0  0  0  0  0  0
   -2.6278    0.7205   -1.1056 H   0  0  0  0  0  0  0  0  0  0  0  0
   -1.8882    1.5659    1.1832 H   0  0  0  0  0  0  0  0  0  0  0  0
   -0.7681   -0.6256   -2.0534 H   0  0  0  0  0  0  0  0  0  0  0  0
  1  2  1  0
  2  3  1  0
  3  4  1  0
  4  5  1  0
  4  6  1  0
  6  7  1  0
  7  8  1  0
  7  9  1  0
  9  3  1  0
  9  6  1  0
  1 10  1  0
  2 11  1  0
  2 12  1  0
  3 13  1  0
  4 14  1  0
  5 15  1  0
  6 16  1  0
  7 17  1  0
  8 18  1  0
  9 19  1  0
M  END
