
     RDKit          3D

 23 23  0  0  0  0  0  0  0  0999 V2000
    2.6669    0.0326   -1.3792 O   0  0  0  0  0  0  0  0  0  0  0  0
    2.4231   -0.5008   -0.0967 C   0  0  0  0  0  0  0  0  0  0  0  0
    0.9956   -0.2314    0.2305 C   0  0  0  0  0  0  0  0  0  0  0  0
    0.2921   -1.3222    0.4482 C   0  0  0  0  0  0  0  0  0  0  0  0
   -1.1361   -1.4707    0.7949 C   0  0  0  0  0  0  0  0  0  0  0  0
   -1.9287   -0.6534   -0.2118 C   0  0  0  0  0  0  0  0  0  0  0  0
   -1.8663    0.8108    0.0394 C   0  0  0  0  0  0  0  0  0  0  0  0
   -0.6434    1.4790   -0.5237 C   0  0  0  0  0  0  0  0  0  0  0  0
    0.6069    1.1799    0.2580 C   0  0  0  0  0  0  0  0  0  0  0  0
    3.5103    0.5157   -1.3674 H   0  0  0  0  0  0  0  0  0  0  0  0
    3.0548    0.0483    0.6262 H   0  0  0  0  0  0  0  0  0  0  0  0
    2.6489   -1.5859   -0.1284 H   0  0  0  0  0  0  0  0  0  0  0  0
    0.8271   -2.2495    0.3637 H   0  0  0  0  0  0  0  0  0  0  0  0
   -1.2981   -1.1205    1.8321 H   0  0  0  0  0  0  0  0  0  0  0  0
   -1.4907   -2.5076    0.7407 H   0  0  0  0  0  0  0  0  0  0  0  0
   -1.5264   -0.9124   -1.2192 H   0  0  0  0  0  0  0  0  0  0  0  0
   -2.9971   -0.9916   -0.1561 H   0  0  0  0  0  0  0  0  0  0  0  0
   -2.0030    1.0453    1.1044 H   0  0  0  0  0  0  0  0  0  0  0  0
   -2.7487    1.2779   -0.4891 H   0  0  0  0  0  0  0  0  0  0  0  0
   -0.8107    2.5828   -0.4489 H   0  0  0  0  0  0  0  0  0  0  0  0
   -0.4935    1.2253   -1.5692 H   0  0  0  0  0  0  0  0  0  0  0  0
    1.4151    1.8080   -0.1719 H   0  0  0  0  0  0  0  0  0  0  0  0
    0.5020    1.5400    1.3235 H   0  0  0  0  0  0  0  0  0  0  0  0
  1  2  1  0
  2  3  1  0
  3  4  2  0
  4  5  1  0
  5  6  1  0
  6  7  1  0
  7  8  1  0
  8  9  1  0
  9  3  1  0
  1 10  1  0
  2 11  1  0
  2 12  1  0
  4 13  1  0
  5 14  1  0
  5 15  1  0
  6 16  1  0
  6 17  1  0
  7 18  1  0
  7 19  1  0
  8 20  1  0
  8 21  1  0
  9 22  1  0
  9 23  1  0
M  END
