
     RDKit          3D

 19 21  0  0  0  0  0  0  0  0999 V2000
    2.7523   -0.0185    0.5051 O   0  0  0  0  0  0  0  0  0  0  0  0
    1.4391   -0.3530    0.9063 C   0  0  0  0  0  0  0  0  0  0  0  0
    0.5145    0.1428   -0.1490 C   0  0  0  0  0  0  0  0  0  0  0  0
    0.4599    1.5853   -0.4847 C   0  0  0  0  0  0  0  0  0  0  0  0
   -0.6582    1.0753    0.3283 C   0  0  0  0  0  0  0  0  0  0  0  0
   -1.7624    0.2945   -0.3662 C   0  0  0  0  0  0  0  0  0  0  0  0
   -1.4906   -1.1099    0.0923 C   0  0  0  0  0  0  0  0  0  0  0  0
   -0.3339   -0.8590   -0.8807 C   0  0  0  0  0  0  0  0  0  0  0  0
   -1.2284   -0.0859   -1.6005 O   0  0  0  0  0  0  0  0  0  0  0  0
    2.9094   -0.5288   -0.3496 H   0  0  0  0  0  0  0  0  0  0  0  0
    1.4093   -1.4584    0.9359 H   0  0  0  0  0  0  0  0  0  0  0  0
    1.2472    0.0669    1.9145 H   0  0  0  0  0  0  0  0  0  0  0  0
    0.2330    1.9488   -1.5017 H   0  0  0  0  0  0  0  0  0  0  0  0
    1.2053    2.2135    0.0451 H   0  0  0  0  0  0  0  0  0  0  0  0
   -0.7233    1.1735    1.4115 H   0  0  0  0  0  0  0  0  0  0  0  0
   -2.7550    0.6802   -0.3322 H   0  0  0  0  0  0  0  0  0  0  0  0
   -2.2048   -1.8750   -0.2593 H   0  0  0  0  0  0  0  0  0  0  0  0
   -1.1329   -1.1813    1.1176 H   0  0  0  0  0  0  0  0  0  0  0  0
    0.1194   -1.7109   -1.3327 H   0  0  0  0  0  0  0  0  0  0  0  0
  1  2  1  0
  2  3  1  0
  3  4  1  0
  4  5  1  0
  5  6  1  0
  6  7  1  0
  7  8  1  0
  8  9  1  0
  5  3  1  0
  9  6  1  0
  8  3  1  0
  1 10  1  0
  2 11  1  0
  2 12  1  0
  4 13  1  0
  4 14  1  0
  5 15  1  0
  6 16  1  0
  7 17  1  0
  7 18  1  0
  8 19  1  0
M  END
