
     RDKit          3D

 19 22  0  0  0  0  0  0  0  0999 V2000
    2.6603    0.5967   -0.9146 O   0  0  0  0  0  0  0  0  0  0  0  0
    1.9056    0.4102    0.2569 C   0  0  0  0  0  0  0  0  0  0  0  0
    0.6536   -0.3155   -0.1430 C   0  0  0  0  0  0  0  0  0  0  0  0
   -0.2651   -0.5902    1.0146 C   0  0  0  0  0  0  0  0  0  0  0  0
   -1.2572    0.4807    1.0660 C   0  0  0  0  0  0  0  0  0  0  0  0
   -1.5802   -0.7917    0.3826 C   0  0  0  0  0  0  0  0  0  0  0  0
   -1.5481   -0.1142   -0.9269 C   0  0  0  0  0  0  0  0  0  0  0  0
   -0.2170    0.4822   -1.0719 C   0  0  0  0  0  0  0  0  0  0  0  0
   -1.1954    1.1762   -0.2421 C   0  0  0  0  0  0  0  0  0  0  0  0
    3.6198    0.5880   -0.7413 H   0  0  0  0  0  0  0  0  0  0  0  0
    1.7455    1.3381    0.7987 H   0  0  0  0  0  0  0  0  0  0  0  0
    2.5062   -0.3055    0.8762 H   0  0  0  0  0  0  0  0  0  0  0  0
    0.9429   -1.2526   -0.6395 H   0  0  0  0  0  0  0  0  0  0  0  0
    0.0193   -1.2280    1.8420 H   0  0  0  0  0  0  0  0  0  0  0  0
   -1.7565    0.8577    1.9400 H   0  0  0  0  0  0  0  0  0  0  0  0
   -2.3308   -1.4927    0.7055 H   0  0  0  0  0  0  0  0  0  0  0  0
   -2.3042   -0.1839   -1.6873 H   0  0  0  0  0  0  0  0  0  0  0  0
    0.1923    0.8813   -2.0010 H   0  0  0  0  0  0  0  0  0  0  0  0
   -1.7908    2.0282   -0.5145 H   0  0  0  0  0  0  0  0  0  0  0  0
  1  2  1  0
  2  3  1  0
  3  4  1  0
  4  5  1  0
  5  6  1  0
  6  7  1  0
  7  8  1  0
  8  9  1  0
  8  3  1  0
  6  4  1  0
  9  7  1  0
  9  5  1  0
  1 10  1  0
  2 11  1  0
  2 12  1  0
  3 13  1  0
  4 14  1  0
  5 15  1  0
  6 16  1  0
  7 17  1  0
  8 18  1  0
  9 19  1  0
M  END
