
     RDKit          3D

 21 22  0  0  0  0  0  0  0  0999 V2000
    2.6004    0.3266    1.4288 O   0  0  0  0  0  0  0  0  0  0  0  0
    2.5193    0.2121    0.0406 C   0  0  0  0  0  0  0  0  0  0  0  0
    1.0960    0.0147   -0.4200 C   0  0  0  0  0  0  0  0  0  0  0  0
    0.4116   -1.1934    0.1058 C   0  0  0  0  0  0  0  0  0  0  0  0
   -0.0403    0.1620    0.4913 C   0  0  0  0  0  0  0  0  0  0  0  0
    0.2689    0.5918    1.7994 O   0  0  0  0  0  0  0  0  0  0  0  0
   -1.3971    0.5760    0.0351 C   0  0  0  0  0  0  0  0  0  0  0  0
   -2.1878   -0.1815   -0.9476 C   0  0  0  0  0  0  0  0  0  0  0  0
   -2.6180   -0.1762    0.5191 C   0  0  0  0  0  0  0  0  0  0  0  0
    3.4567    0.7547    1.6830 H   0  0  0  0  0  0  0  0  0  0  0  0
    2.9669    1.0986   -0.4286 H   0  0  0  0  0  0  0  0  0  0  0  0
    3.1004   -0.6860   -0.2574 H   0  0  0  0  0  0  0  0  0  0  0  0
    0.9361    0.3043   -1.4820 H   0  0  0  0  0  0  0  0  0  0  0  0
    0.8927   -1.7957    0.9044 H   0  0  0  0  0  0  0  0  0  0  0  0
   -0.1122   -1.8038   -0.6442 H   0  0  0  0  0  0  0  0  0  0  0  0
    0.3846    1.5785    1.7904 H   0  0  0  0  0  0  0  0  0  0  0  0
   -1.5706    1.6899    0.0198 H   0  0  0  0  0  0  0  0  0  0  0  0
   -1.9351   -1.1769   -1.3117 H   0  0  0  0  0  0  0  0  0  0  0  0
   -2.8555    0.3790   -1.6660 H   0  0  0  0  0  0  0  0  0  0  0  0
   -2.3865   -1.0485    1.1402 H   0  0  0  0  0  0  0  0  0  0  0  0
   -3.5305    0.3736    0.7998 H   0  0  0  0  0  0  0  0  0  0  0  0
  1  2  1  0
  2  3  1  0
  3  4  1  0
  4  5  1  0
  5  6  1  0
  5  7  1  0
  7  8  1  0
  8  9  1  0
  5  3  1  0
  9  7  1  0
  1 10  1  0
  2 11  1  0
  2 12  1  0
  3 13  1  0
  4 14  1  0
  4 15  1  0
  6 16  1  0
  7 17  1  0
  8 18  1  0
  8 19  1  0
  9 20  1  0
  9 21  1  0
M  END
