
     RDKit          3D

 17 18  0  0  0  0  0  0  0  0999 V2000
   -2.7156    0.8091   -0.3649 O   0  0  0  0  0  0  0  0  0  0  0  0
   -2.0699   -0.3510    0.1057 C   0  0  0  0  0  0  0  0  0  0  0  0
   -0.5850   -0.0440    0.1183 C   0  0  0  0  0  0  0  0  0  0  0  0
    0.1415   -0.1669   -1.1610 C   0  0  0  0  0  0  0  0  0  0  0  0
    1.4324   -0.3088   -0.9166 C   0  0  0  0  0  0  0  0  0  0  0  0
    1.7074   -0.2962    0.5465 C   0  0  0  0  0  0  0  0  0  0  0  0
    2.3088    0.9213    0.8519 O   0  0  0  0  0  0  0  0  0  0  0  0
    0.3188   -0.2650    1.1490 C   0  0  0  0  0  0  0  0  0  0  0  0
   -0.2770    1.0448    0.9576 O   0  0  0  0  0  0  0  0  0  0  0  0
   -2.1223    1.2844   -1.0295 H   0  0  0  0  0  0  0  0  0  0  0  0
   -2.2515   -1.1305   -0.6375 H   0  0  0  0  0  0  0  0  0  0  0  0
   -2.4327   -0.5960    1.1190 H   0  0  0  0  0  0  0  0  0  0  0  0
   -0.3048   -0.1454   -2.1479 H   0  0  0  0  0  0  0  0  0  0  0  0
    2.1939   -0.4201   -1.6785 H   0  0  0  0  0  0  0  0  0  0  0  0
    2.2946   -1.1657    0.8762 H   0  0  0  0  0  0  0  0  0  0  0  0
    2.2353    1.5785    0.1035 H   0  0  0  0  0  0  0  0  0  0  0  0
    0.1260   -0.7485    2.1082 H   0  0  0  0  0  0  0  0  0  0  0  0
  1  2  1  0
  2  3  1  0
  3  4  1  0
  4  5  2  0
  5  6  1  0
  6  7  1  0
  6  8  1  0
  8  9  1  0
  8  3  1  0
  9  3  1  0
  1 10  1  0
  2 11  1  0
  2 12  1  0
  4 13  1  0
  5 14  1  0
  6 15  1  0
  7 16  1  0
  8 17  1  0
M  END
