
     RDKit          3D

 17 19  0  0  0  0  0  0  0  0999 V2000
   -1.7660    1.6486   -0.1429 O   0  0  0  0  0  0  0  0  0  0  0  0
   -1.3849    0.4366   -0.7176 C   0  0  0  0  0  0  0  0  0  0  0  0
   -0.5693   -0.3478    0.2869 C   0  0  0  0  0  0  0  0  0  0  0  0
   -0.0814   -1.6735   -0.1699 C   0  0  0  0  0  0  0  0  0  0  0  0
    1.0499   -1.8445   -0.9179 O   0  0  0  0  0  0  0  0  0  0  0  0
    1.3146   -1.2465    0.3031 C   0  0  0  0  0  0  0  0  0  0  0  0
    0.8176    0.1569    0.3899 C   0  0  0  0  0  0  0  0  0  0  0  0
    1.3998    1.2722   -0.1514 C   0  0  0  0  0  0  0  0  0  0  0  0
    1.2377    1.0484    1.3195 O   0  0  0  0  0  0  0  0  0  0  0  0
   -2.2578    1.4835    0.7169 H   0  0  0  0  0  0  0  0  0  0  0  0
   -0.8347    0.6459   -1.6436 H   0  0  0  0  0  0  0  0  0  0  0  0
   -2.2547   -0.1960   -0.9837 H   0  0  0  0  0  0  0  0  0  0  0  0
   -1.1439   -0.4480    1.2370 H   0  0  0  0  0  0  0  0  0  0  0  0
   -0.5062   -2.6088    0.2431 H   0  0  0  0  0  0  0  0  0  0  0  0
    1.6636   -1.8100    1.1587 H   0  0  0  0  0  0  0  0  0  0  0  0
    0.8283    2.1565   -0.4992 H   0  0  0  0  0  0  0  0  0  0  0  0
    2.4873    1.3264   -0.4288 H   0  0  0  0  0  0  0  0  0  0  0  0
  1  2  1  0
  2  3  1  0
  3  4  1  0
  4  5  1  0
  5  6  1  0
  6  7  1  0
  7  8  1  0
  8  9  1  0
  7  3  1  0
  6  4  1  0
  9  7  1  0
  1 10  1  0
  2 11  1  0
  2 12  1  0
  3 13  1  0
  4 14  1  0
  6 15  1  0
  8 16  1  0
  8 17  1  0
M  END
