
     RDKit          3D

 18 19  0  0  0  0  0  0  0  0999 V2000
   -1.3441   -1.7968    0.0502 O   0  0  0  0  0  0  0  0  0  0  0  0
   -1.5009   -0.3978    0.2565 C   0  0  0  0  0  0  0  0  0  0  0  0
   -0.2966    0.2663    0.0043 C   0  0  0  0  0  0  0  0  0  0  0  0
    0.8102   -0.1928    0.8864 C   0  0  0  0  0  0  0  0  0  0  0  0
    1.8250   -0.6284   -0.1778 C   0  0  0  0  0  0  0  0  0  0  0  0
    1.5132    0.2137   -1.2717 O   0  0  0  0  0  0  0  0  0  0  0  0
    0.6623    1.1261   -0.6461 C   0  0  0  0  0  0  0  0  0  0  0  0
   -0.6384    1.3923   -0.8190 C   0  0  0  0  0  0  0  0  0  0  0  0
   -2.1944   -2.2732    0.2083 H   0  0  0  0  0  0  0  0  0  0  0  0
   -2.4647   -0.1848   -0.2430 H   0  0  0  0  0  0  0  0  0  0  0  0
   -1.7712   -0.3494    1.3583 H   0  0  0  0  0  0  0  0  0  0  0  0
    1.2813    0.6038    1.4943 H   0  0  0  0  0  0  0  0  0  0  0  0
    0.5738   -1.0196    1.5131 H   0  0  0  0  0  0  0  0  0  0  0  0
    2.8616   -0.4639    0.1658 H   0  0  0  0  0  0  0  0  0  0  0  0
    1.6448   -1.6802   -0.4605 H   0  0  0  0  0  0  0  0  0  0  0  0
    1.2904    1.8986   -0.0930 H   0  0  0  0  0  0  0  0  0  0  0  0
   -1.1212    1.1669   -1.8231 H   0  0  0  0  0  0  0  0  0  0  0  0
   -1.1310    2.3192   -0.4029 H   0  0  0  0  0  0  0  0  0  0  0  0
  1  2  1  0
  2  3  1  0
  3  4  1  0
  4  5  1  0
  5  6  1  0
  6  7  1  0
  7  8  1  0
  7  3  1  0
  8  3  1  0
  1  9  1  0
  2 10  1  0
  2 11  1  0
  4 12  1  0
  4 13  1  0
  5 14  1  0
  5 15  1  0
  7 16  1  0
  8 17  1  0
  8 18  1  0
M  END
