
     RDKit          3D

 21 22  0  0  0  0  0  0  0  0999 V2000
    1.3590    1.5170    0.2251 O   0  0  0  0  0  0  0  0  0  0  0  0
    2.2336    0.5013   -0.1494 C   0  0  0  0  0  0  0  0  0  0  0  0
    1.6137   -0.8460   -0.2756 C   0  0  0  0  0  0  0  0  0  0  0  0
    0.9476   -1.5071    0.8820 C   0  0  0  0  0  0  0  0  0  0  0  0
    0.1477   -0.9434   -0.3087 C   0  0  0  0  0  0  0  0  0  0  0  0
   -0.7790    0.1510    0.0971 C   0  0  0  0  0  0  0  0  0  0  0  0
   -2.2325   -0.3100   -0.0754 C   0  0  0  0  0  0  0  0  0  0  0  0
   -2.3579    1.1848   -0.3192 C   0  0  0  0  0  0  0  0  0  0  0  0
   -1.0380    1.1384   -0.8249 O   0  0  0  0  0  0  0  0  0  0  0  0
    1.7125    2.3864   -0.0944 H   0  0  0  0  0  0  0  0  0  0  0  0
    2.6667    0.8306   -1.1335 H   0  0  0  0  0  0  0  0  0  0  0  0
    3.1109    0.5020    0.5463 H   0  0  0  0  0  0  0  0  0  0  0  0
    2.1889   -1.5484   -0.9261 H   0  0  0  0  0  0  0  0  0  0  0  0
    0.9368   -2.6055    0.9758 H   0  0  0  0  0  0  0  0  0  0  0  0
    0.9585   -0.9565    1.8208 H   0  0  0  0  0  0  0  0  0  0  0  0
   -0.2811   -1.7066   -0.9959 H   0  0  0  0  0  0  0  0  0  0  0  0
   -0.5852    0.5920    1.0989 H   0  0  0  0  0  0  0  0  0  0  0  0
   -2.3332   -0.9044   -0.9880 H   0  0  0  0  0  0  0  0  0  0  0  0
   -2.7037   -0.6787    0.8389 H   0  0  0  0  0  0  0  0  0  0  0  0
   -2.4472    1.7098    0.6387 H   0  0  0  0  0  0  0  0  0  0  0  0
   -3.1182    1.4930   -1.0328 H   0  0  0  0  0  0  0  0  0  0  0  0
  1  2  1  0
  2  3  1  0
  3  4  1  0
  4  5  1  0
  5  6  1  0
  6  7  1  0
  7  8  1  0
  8  9  1  0
  5  3  1  0
  9  6  1  0
  1 10  1  0
  2 11  1  0
  2 12  1  0
  3 13  1  0
  4 14  1  0
  4 15  1  0
  5 16  1  0
  6 17  1  0
  7 18  1  0
  7 19  1  0
  8 20  1  0
  8 21  1  0
M  END
