
     RDKit          3D

 21 22  0  0  0  0  0  0  0  0999 V2000
   -2.9482   -0.3869   -0.7396 O   0  0  0  0  0  0  0  0  0  0  0  0
   -1.5726   -0.5767   -0.6103 C   0  0  0  0  0  0  0  0  0  0  0  0
   -0.8843    0.6930   -0.2439 C   0  0  0  0  0  0  0  0  0  0  0  0
   -1.4133    1.2217    1.0797 C   0  0  0  0  0  0  0  0  0  0  0  0
   -0.3206    0.6846    1.7569 O   0  0  0  0  0  0  0  0  0  0  0  0
    0.3636    0.6501    0.5415 C   0  0  0  0  0  0  0  0  0  0  0  0
    1.2595   -0.5342    0.3872 C   0  0  0  0  0  0  0  0  0  0  0  0
    1.7980   -0.7892   -1.0099 C   0  0  0  0  0  0  0  0  0  0  0  0
    2.6927   -0.3502    0.0986 C   0  0  0  0  0  0  0  0  0  0  0  0
   -3.4528   -0.6604    0.0555 H   0  0  0  0  0  0  0  0  0  0  0  0
   -1.3864   -1.4162    0.0502 H   0  0  0  0  0  0  0  0  0  0  0  0
   -1.2179   -0.8896   -1.6369 H   0  0  0  0  0  0  0  0  0  0  0  0
   -0.9165    1.4374   -1.0660 H   0  0  0  0  0  0  0  0  0  0  0  0
   -1.5146    2.3193    1.1305 H   0  0  0  0  0  0  0  0  0  0  0  0
   -2.3421    0.7239    1.4296 H   0  0  0  0  0  0  0  0  0  0  0  0
    0.9434    1.5917    0.4355 H   0  0  0  0  0  0  0  0  0  0  0  0
    1.0326   -1.4343    1.0261 H   0  0  0  0  0  0  0  0  0  0  0  0
    1.7549   -1.8420   -1.3330 H   0  0  0  0  0  0  0  0  0  0  0  0
    1.5369   -0.0392   -1.7906 H   0  0  0  0  0  0  0  0  0  0  0  0
    3.4522   -1.0825    0.4499 H   0  0  0  0  0  0  0  0  0  0  0  0
    3.1356    0.6799   -0.0108 H   0  0  0  0  0  0  0  0  0  0  0  0
  1  2  1  0
  2  3  1  0
  3  4  1  0
  4  5  1  0
  5  6  1  0
  6  7  1  0
  7  8  1  0
  8  9  1  0
  6  3  1  0
  9  7  1  0
  1 10  1  0
  2 11  1  0
  2 12  1  0
  3 13  1  0
  4 14  1  0
  4 15  1  0
  6 16  1  0
  7 17  1  0
  8 18  1  0
  8 19  1  0
  9 20  1  0
  9 21  1  0
M  END
