
     RDKit          3D

 17 17  0  0  0  0  0  0  0  0999 V2000
    2.3674   -0.8019    0.2706 O   0  0  0  0  0  0  0  0  0  0  0  0
    1.5375    0.2763    0.0571 C   0  0  0  0  0  0  0  0  0  0  0  0
    0.2434   -0.0915   -0.6360 C   0  0  0  0  0  0  0  0  0  0  0  0
   -0.5796   -1.0733    0.1204 C   0  0  0  0  0  0  0  0  0  0  0  0
   -1.7531   -0.2773    0.5925 C   0  0  0  0  0  0  0  0  0  0  0  0
   -1.8229    0.8710   -0.1408 O   0  0  0  0  0  0  0  0  0  0  0  0
   -0.6062    1.1475   -0.6948 C   0  0  0  0  0  0  0  0  0  0  0  0
    2.9981   -0.5503    1.0122 H   0  0  0  0  0  0  0  0  0  0  0  0
    2.0286    1.0432   -0.6080 H   0  0  0  0  0  0  0  0  0  0  0  0
    1.3253    0.8043    1.0121 H   0  0  0  0  0  0  0  0  0  0  0  0
    0.4708   -0.5104   -1.6313 H   0  0  0  0  0  0  0  0  0  0  0  0
   -0.9901   -1.8750   -0.5559 H   0  0  0  0  0  0  0  0  0  0  0  0
   -0.0535   -1.5701    0.9540 H   0  0  0  0  0  0  0  0  0  0  0  0
   -2.7141   -0.8272    0.4971 H   0  0  0  0  0  0  0  0  0  0  0  0
   -1.6037   -0.0265    1.6584 H   0  0  0  0  0  0  0  0  0  0  0  0
   -0.7184    1.4417   -1.7389 H   0  0  0  0  0  0  0  0  0  0  0  0
   -0.1293    2.0194   -0.1687 H   0  0  0  0  0  0  0  0  0  0  0  0
  1  2  1  0
  2  3  1  0
  3  4  1  0
  4  5  1  0
  5  6  1  0
  6  7  1  0
  7  3  1  0
  1  8  1  0
  2  9  1  0
  2 10  1  0
  3 11  1  0
  4 12  1  0
  4 13  1  0
  5 14  1  0
  5 15  1  0
  7 16  1  0
  7 17  1  0
M  END
