
     RDKit          3D

 19 20  0  0  0  0  0  0  0  0999 V2000
    1.5727    1.7411   -0.6629 O   0  0  0  0  0  0  0  0  0  0  0  0
    1.6486    0.5107   -0.0551 C   0  0  0  0  0  0  0  0  0  0  0  0
    0.3508   -0.2302   -0.0861 C   0  0  0  0  0  0  0  0  0  0  0  0
    0.1809   -1.5695    0.5008 C   0  0  0  0  0  0  0  0  0  0  0  0
   -0.2659   -0.4381    1.3065 C   0  0  0  0  0  0  0  0  0  0  0  0
   -1.4872    0.3143    1.1948 C   0  0  0  0  0  0  0  0  0  0  0  0
   -1.7844    0.7009   -0.0133 C   0  0  0  0  0  0  0  0  0  0  0  0
   -0.7612    0.2485   -0.9622 C   0  0  0  0  0  0  0  0  0  0  0  0
   -1.3437   -0.8057   -1.6817 O   0  0  0  0  0  0  0  0  0  0  0  0
    2.4759    1.9836   -0.9757 H   0  0  0  0  0  0  0  0  0  0  0  0
    2.4132   -0.1244   -0.5450 H   0  0  0  0  0  0  0  0  0  0  0  0
    2.0208    0.6838    0.9875 H   0  0  0  0  0  0  0  0  0  0  0  0
    1.1049   -2.0853    0.8085 H   0  0  0  0  0  0  0  0  0  0  0  0
   -0.5165   -2.2522   -0.0350 H   0  0  0  0  0  0  0  0  0  0  0  0
    0.3586   -0.1843    2.1913 H   0  0  0  0  0  0  0  0  0  0  0  0
   -2.1446    0.5605    2.0548 H   0  0  0  0  0  0  0  0  0  0  0  0
   -2.7050    1.3034   -0.2944 H   0  0  0  0  0  0  0  0  0  0  0  0
   -0.4248    1.0508   -1.6610 H   0  0  0  0  0  0  0  0  0  0  0  0
   -0.6930   -1.4080   -2.0717 H   0  0  0  0  0  0  0  0  0  0  0  0
  1  2  1  0
  2  3  1  0
  3  4  1  0
  4  5  1  0
  5  6  1  0
  6  7  2  0
  7  8  1  0
  8  9  1  0
  5  3  1  0
  8  3  1  0
  1 10  1  0
  2 11  1  0
  2 12  1  0
  4 13  1  0
  4 14  1  0
  5 15  1  0
  6 16  1  0
  7 17  1  0
  8 18  1  0
  9 19  1  0
M  END
