
     RDKit          3D

 18 19  0  0  0  0  0  0  0  0999 V2000
   -2.9652   -0.6677    0.0436 O   0  0  0  0  0  0  0  0  0  0  0  0
   -1.6264   -0.9819   -0.1441 C   0  0  0  0  0  0  0  0  0  0  0  0
   -0.7015    0.1098    0.2853 C   0  0  0  0  0  0  0  0  0  0  0  0
   -0.7530    1.4624   -0.3251 C   0  0  0  0  0  0  0  0  0  0  0  0
    0.3200    0.5429   -0.7878 C   0  0  0  0  0  0  0  0  0  0  0  0
    1.7102    0.6351   -0.2743 C   0  0  0  0  0  0  0  0  0  0  0  0
    2.4244   -0.5093    0.3062 C   0  0  0  0  0  0  0  0  0  0  0  0
    2.6083   -0.2288   -1.0821 O   0  0  0  0  0  0  0  0  0  0  0  0
   -3.3946   -1.3193    0.6609 H   0  0  0  0  0  0  0  0  0  0  0  0
   -1.5098   -1.2399   -1.2297 H   0  0  0  0  0  0  0  0  0  0  0  0
   -1.3447   -1.9034    0.4037 H   0  0  0  0  0  0  0  0  0  0  0  0
   -0.3596    0.0365    1.3292 H   0  0  0  0  0  0  0  0  0  0  0  0
   -0.4748    2.3214    0.3549 H   0  0  0  0  0  0  0  0  0  0  0  0
   -1.5584    1.7595   -1.0276 H   0  0  0  0  0  0  0  0  0  0  0  0
    0.1565    0.1484   -1.8086 H   0  0  0  0  0  0  0  0  0  0  0  0
    2.2017    1.6181   -0.1966 H   0  0  0  0  0  0  0  0  0  0  0  0
    1.9598   -1.4820    0.4995 H   0  0  0  0  0  0  0  0  0  0  0  0
    3.3073   -0.3020    0.9340 H   0  0  0  0  0  0  0  0  0  0  0  0
  1  2  1  0
  2  3  1  0
  3  4  1  0
  4  5  1  0
  5  6  1  0
  6  7  1  0
  7  8  1  0
  5  3  1  0
  8  6  1  0
  1  9  1  0
  2 10  1  0
  2 11  1  0
  3 12  1  0
  4 13  1  0
  4 14  1  0
  5 15  1  0
  6 16  1  0
  7 17  1  0
  7 18  1  0
M  END
