
     RDKit          3D

 21 22  0  0  0  0  0  0  0  0999 V2000
    3.0801   -0.0311   -0.6195 O   0  0  0  0  0  0  0  0  0  0  0  0
    2.3978    0.2936    0.5561 C   0  0  0  0  0  0  0  0  0  0  0  0
    0.9364    0.1744    0.4266 C   0  0  0  0  0  0  0  0  0  0  0  0
    0.1551    1.2073    0.6155 C   0  0  0  0  0  0  0  0  0  0  0  0
   -1.3062    1.0190    0.4737 C   0  0  0  0  0  0  0  0  0  0  0  0
   -1.7154   -0.3185    1.0894 C   0  0  0  0  0  0  0  0  0  0  0  0
   -1.1482   -0.9634   -0.1591 C   0  0  0  0  0  0  0  0  0  0  0  0
    0.3304   -1.1300    0.0776 C   0  0  0  0  0  0  0  0  0  0  0  0
   -1.5024    0.3208   -0.8790 C   0  0  0  0  0  0  0  0  0  0  0  0
    2.4626   -0.2426   -1.3621 H   0  0  0  0  0  0  0  0  0  0  0  0
    2.6656    1.3308    0.8669 H   0  0  0  0  0  0  0  0  0  0  0  0
    2.7489   -0.3753    1.3740 H   0  0  0  0  0  0  0  0  0  0  0  0
    0.5383    2.1700    0.8661 H   0  0  0  0  0  0  0  0  0  0  0  0
   -1.9562    1.8596    0.6709 H   0  0  0  0  0  0  0  0  0  0  0  0
   -2.7986   -0.4178    1.1133 H   0  0  0  0  0  0  0  0  0  0  0  0
   -1.1560   -0.5691    2.0128 H   0  0  0  0  0  0  0  0  0  0  0  0
   -1.6637   -1.8680   -0.5077 H   0  0  0  0  0  0  0  0  0  0  0  0
    0.4542   -1.7920    0.9666 H   0  0  0  0  0  0  0  0  0  0  0  0
    0.8452   -1.6408   -0.7575 H   0  0  0  0  0  0  0  0  0  0  0  0
   -0.7970    0.6443   -1.6569 H   0  0  0  0  0  0  0  0  0  0  0  0
   -2.5712    0.3287   -1.1252 H   0  0  0  0  0  0  0  0  0  0  0  0
  1  2  1  0
  2  3  1  0
  3  4  2  0
  4  5  1  0
  5  6  1  0
  6  7  1  0
  7  8  1  0
  7  9  1  0
  8  3  1  0
  9  5  1  0
  1 10  1  0
  2 11  1  0
  2 12  1  0
  4 13  1  0
  5 14  1  0
  6 15  1  0
  6 16  1  0
  7 17  1  0
  8 18  1  0
  8 19  1  0
  9 20  1  0
  9 21  1  0
M  END
