
     RDKit          3D

 21 22  0  0  0  0  0  0  0  0999 V2000
    3.1371   -0.5291   -0.0275 O   0  0  0  0  0  0  0  0  0  0  0  0
    2.1039    0.1323    0.6193 C   0  0  0  0  0  0  0  0  0  0  0  0
    0.8466    0.2032   -0.2551 C   0  0  0  0  0  0  0  0  0  0  0  0
    0.4143   -1.1714   -0.5657 C   0  0  0  0  0  0  0  0  0  0  0  0
   -0.8970   -1.4093   -0.7373 O   0  0  0  0  0  0  0  0  0  0  0  0
   -1.7681   -0.4009   -0.8153 C   0  0  0  0  0  0  0  0  0  0  0  0
   -2.4736   -0.0512    0.5159 C   0  0  0  0  0  0  0  0  0  0  0  0
   -1.4920    0.8644   -0.1731 C   0  0  0  0  0  0  0  0  0  0  0  0
   -0.1686    0.9878    0.5172 C   0  0  0  0  0  0  0  0  0  0  0  0
    3.3290   -0.1831   -0.9283 H   0  0  0  0  0  0  0  0  0  0  0  0
    1.8068   -0.5307    1.4803 H   0  0  0  0  0  0  0  0  0  0  0  0
    2.3873    1.1067    1.0184 H   0  0  0  0  0  0  0  0  0  0  0  0
    1.1711    0.7936   -1.1608 H   0  0  0  0  0  0  0  0  0  0  0  0
    0.7967   -1.8677    0.2395 H   0  0  0  0  0  0  0  0  0  0  0  0
    0.9640   -1.5198   -1.4891 H   0  0  0  0  0  0  0  0  0  0  0  0
   -2.4818   -0.4105   -1.6849 H   0  0  0  0  0  0  0  0  0  0  0  0
   -2.1473   -0.5932    1.4199 H   0  0  0  0  0  0  0  0  0  0  0  0
   -3.5440    0.1675    0.4887 H   0  0  0  0  0  0  0  0  0  0  0  0
   -1.8933    1.8074   -0.6292 H   0  0  0  0  0  0  0  0  0  0  0  0
    0.1108    2.0436    0.6160 H   0  0  0  0  0  0  0  0  0  0  0  0
   -0.2018    0.5606    1.5511 H   0  0  0  0  0  0  0  0  0  0  0  0
  1  2  1  0
  2  3  1  0
  3  4  1  0
  4  5  1  0
  5  6  1  0
  6  7  1  0
  7  8  1  0
  8  9  1  0
  9  3  1  0
  8  6  1  0
  1 10  1  0
  2 11  1  0
  2 12  1  0
  3 13  1  0
  4 14  1  0
  4 15  1  0
  6 16  1  0
  7 17  1  0
  7 18  1  0
  8 19  1  0
  9 20  1  0
  9 21  1  0
M  END
