
     RDKit          3D

 21 22  0  0  0  0  0  0  0  0999 V2000
    3.0252   -0.3948    0.0553 O   0  0  0  0  0  0  0  0  0  0  0  0
    1.7391   -0.9095    0.2663 C   0  0  0  0  0  0  0  0  0  0  0  0
    0.7938    0.1390    0.7872 C   0  0  0  0  0  0  0  0  0  0  0  0
    0.6248    1.2997   -0.1278 C   0  0  0  0  0  0  0  0  0  0  0  0
   -0.8380    1.6221   -0.1185 C   0  0  0  0  0  0  0  0  0  0  0  0
   -1.5140    0.5425    0.6625 C   0  0  0  0  0  0  0  0  0  0  0  0
   -1.5170   -0.7972    0.0164 C   0  0  0  0  0  0  0  0  0  0  0  0
   -2.5730   -1.6216    0.3715 O   0  0  0  0  0  0  0  0  0  0  0  0
   -0.5306   -0.4886    1.0351 C   0  0  0  0  0  0  0  0  0  0  0  0
    3.4961   -1.0777   -0.4962 H   0  0  0  0  0  0  0  0  0  0  0  0
    1.3880   -1.3463   -0.6896 H   0  0  0  0  0  0  0  0  0  0  0  0
    1.7653   -1.7227    1.0404 H   0  0  0  0  0  0  0  0  0  0  0  0
    1.2049    0.4905    1.7651 H   0  0  0  0  0  0  0  0  0  0  0  0
    1.1588    2.1926    0.2841 H   0  0  0  0  0  0  0  0  0  0  0  0
    1.0501    1.0948   -1.1054 H   0  0  0  0  0  0  0  0  0  0  0  0
   -1.0795    2.6413    0.2095 H   0  0  0  0  0  0  0  0  0  0  0  0
   -1.2090    1.5536   -1.1838 H   0  0  0  0  0  0  0  0  0  0  0  0
   -2.2364    0.8393    1.4234 H   0  0  0  0  0  0  0  0  0  0  0  0
   -1.1986   -0.8769   -1.0429 H   0  0  0  0  0  0  0  0  0  0  0  0
   -2.9637   -2.1243   -0.3638 H   0  0  0  0  0  0  0  0  0  0  0  0
   -0.5862   -1.0559    1.9891 H   0  0  0  0  0  0  0  0  0  0  0  0
  1  2  1  0
  2  3  1  0
  3  4  1  0
  4  5  1  0
  5  6  1  0
  6  7  1  0
  7  8  1  0
  7  9  1  0
  9  3  1  0
  9  6  1  0
  1 10  1  0
  2 11  1  0
  2 12  1  0
  3 13  1  0
  4 14  1  0
  4 15  1  0
  5 16  1  0
  5 17  1  0
  6 18  1  0
  7 19  1  0
  8 20  1  0
  9 21  1  0
M  END
