
     RDKit          3D

 19 20  0  0  0  0  0  0  0  0999 V2000
    2.7753   -0.3812   -0.5870 O   0  0  0  0  0  0  0  0  0  0  0  0
    1.6389    0.3761   -0.9063 C   0  0  0  0  0  0  0  0  0  0  0  0
    0.5068   -0.1065   -0.0222 C   0  0  0  0  0  0  0  0  0  0  0  0
    0.0772   -1.5078   -0.0972 C   0  0  0  0  0  0  0  0  0  0  0  0
   -1.2433   -1.6072    0.0334 C   0  0  0  0  0  0  0  0  0  0  0  0
   -1.8679   -0.2814    0.2132 C   0  0  0  0  0  0  0  0  0  0  0  0
   -0.7558    0.6906    0.0678 C   0  0  0  0  0  0  0  0  0  0  0  0
   -0.8332    1.7630   -0.7942 O   0  0  0  0  0  0  0  0  0  0  0  0
    0.2407    0.7180    1.1873 C   0  0  0  0  0  0  0  0  0  0  0  0
    3.1936   -0.0131    0.2300 H   0  0  0  0  0  0  0  0  0  0  0  0
    1.3266    0.1595   -1.9587 H   0  0  0  0  0  0  0  0  0  0  0  0
    1.8058    1.4570   -0.7347 H   0  0  0  0  0  0  0  0  0  0  0  0
    0.7564   -2.3486   -0.2411 H   0  0  0  0  0  0  0  0  0  0  0  0
   -1.8077   -2.5526    0.0117 H   0  0  0  0  0  0  0  0  0  0  0  0
   -2.7299   -0.1081   -0.4507 H   0  0  0  0  0  0  0  0  0  0  0  0
   -2.2417   -0.2134    1.2711 H   0  0  0  0  0  0  0  0  0  0  0  0
   -1.6963    2.2543   -0.7252 H   0  0  0  0  0  0  0  0  0  0  0  0
    0.8490    1.5959    1.3994 H   0  0  0  0  0  0  0  0  0  0  0  0
    0.0056    0.1056    2.1035 H   0  0  0  0  0  0  0  0  0  0  0  0
  1  2  1  0
  2  3  1  0
  3  4  1  0
  4  5  2  0
  5  6  1  0
  6  7  1  0
  7  8  1  0
  7  9  1  0
  7  3  1  0
  9  3  1  0
  1 10  1  0
  2 11  1  0
  2 12  1  0
  4 13  1  0
  5 14  1  0
  6 15  1  0
  6 16  1  0
  8 17  1  0
  9 18  1  0
  9 19  1  0
M  END
