
     RDKit          3D

 19 20  0  0  0  0  0  0  0  0999 V2000
    2.4870   -1.1803    0.3121 O   0  0  0  0  0  0  0  0  0  0  0  0
    2.0138    0.1239    0.2836 C   0  0  0  0  0  0  0  0  0  0  0  0
    0.5136    0.1855    0.5260 C   0  0  0  0  0  0  0  0  0  0  0  0
    0.1486    1.5040    0.4786 O   0  0  0  0  0  0  0  0  0  0  0  0
   -1.0060    1.7807   -0.1952 C   0  0  0  0  0  0  0  0  0  0  0  0
   -2.0161    0.8666   -0.0034 O   0  0  0  0  0  0  0  0  0  0  0  0
   -1.6546   -0.3132   -0.6407 C   0  0  0  0  0  0  0  0  0  0  0  0
   -1.4500   -1.4914    0.2286 C   0  0  0  0  0  0  0  0  0  0  0  0
   -0.2639   -0.7278   -0.3501 C   0  0  0  0  0  0  0  0  0  0  0  0
    3.4446   -1.1439    0.0972 H   0  0  0  0  0  0  0  0  0  0  0  0
    2.2696    0.6696   -0.6380 H   0  0  0  0  0  0  0  0  0  0  0  0
    2.4688    0.7294    1.1219 H   0  0  0  0  0  0  0  0  0  0  0  0
    0.3754   -0.1579    1.5913 H   0  0  0  0  0  0  0  0  0  0  0  0
   -1.3912    2.7682    0.1976 H   0  0  0  0  0  0  0  0  0  0  0  0
   -0.7956    1.9867   -1.2780 H   0  0  0  0  0  0  0  0  0  0  0  0
   -2.0040   -0.4253   -1.6958 H   0  0  0  0  0  0  0  0  0  0  0  0
   -1.7282   -2.4626   -0.1991 H   0  0  0  0  0  0  0  0  0  0  0  0
   -1.6866   -1.3888    1.2967 H   0  0  0  0  0  0  0  0  0  0  0  0
    0.2749   -1.3234   -1.1333 H   0  0  0  0  0  0  0  0  0  0  0  0
  1  2  1  0
  2  3  1  0
  3  4  1  0
  4  5  1  0
  5  6  1  0
  6  7  1  0
  7  8  1  0
  8  9  1  0
  9  3  1  0
  9  7  1  0
  1 10  1  0
  2 11  1  0
  2 12  1  0
  3 13  1  0
  5 14  1  0
  5 15  1  0
  7 16  1  0
  8 17  1  0
  8 18  1  0
  9 19  1  0
M  END
