
     RDKit          3D

 19 21  0  0  0  0  0  0  0  0999 V2000
    2.2062   -0.2622   -1.3759 O   0  0  0  0  0  0  0  0  0  0  0  0
    1.8163   -0.7693   -0.1371 C   0  0  0  0  0  0  0  0  0  0  0  0
    0.5877   -0.0380    0.3401 C   0  0  0  0  0  0  0  0  0  0  0  0
    0.0182   -0.4297    1.6361 C   0  0  0  0  0  0  0  0  0  0  0  0
   -0.7286   -0.7952    0.4324 C   0  0  0  0  0  0  0  0  0  0  0  0
   -1.4491    0.3001   -0.2889 C   0  0  0  0  0  0  0  0  0  0  0  0
   -2.2584   -0.0518   -1.3403 O   0  0  0  0  0  0  0  0  0  0  0  0
   -1.2003    1.7215    0.0038 C   0  0  0  0  0  0  0  0  0  0  0  0
   -0.0968    0.9333   -0.5726 C   0  0  0  0  0  0  0  0  0  0  0  0
    3.1758   -0.3114   -1.5085 H   0  0  0  0  0  0  0  0  0  0  0  0
    2.6174   -0.5671    0.6126 H   0  0  0  0  0  0  0  0  0  0  0  0
    1.6588   -1.8655   -0.2064 H   0  0  0  0  0  0  0  0  0  0  0  0
   -0.4776    0.3136    2.3131 H   0  0  0  0  0  0  0  0  0  0  0  0
    0.5339   -1.2217    2.1874 H   0  0  0  0  0  0  0  0  0  0  0  0
   -0.7853   -1.8118    0.0191 H   0  0  0  0  0  0  0  0  0  0  0  0
   -2.9945   -0.6233   -0.9584 H   0  0  0  0  0  0  0  0  0  0  0  0
   -1.0097    2.0765    1.0570 H   0  0  0  0  0  0  0  0  0  0  0  0
   -1.7777    2.4514   -0.5749 H   0  0  0  0  0  0  0  0  0  0  0  0
    0.1638    0.9505   -1.6387 H   0  0  0  0  0  0  0  0  0  0  0  0
  1  2  1  0
  2  3  1  0
  3  4  1  0
  4  5  1  0
  5  6  1  0
  6  7  1  0
  6  8  1  0
  8  9  1  0
  5  3  1  0
  9  6  1  0
  9  3  1  0
  1 10  1  0
  2 11  1  0
  2 12  1  0
  4 13  1  0
  4 14  1  0
  5 15  1  0
  7 16  1  0
  8 17  1  0
  8 18  1  0
  9 19  1  0
M  END
