
     RDKit          3D

 19 21  0  0  0  0  0  0  0  0999 V2000
    1.8589   -1.0874   -1.0736 O   0  0  0  0  0  0  0  0  0  0  0  0
    1.8287   -0.7573    0.2639 C   0  0  0  0  0  0  0  0  0  0  0  0
    0.5790   -0.1017    0.6848 C   0  0  0  0  0  0  0  0  0  0  0  0
   -0.7363   -0.8065    0.5466 C   0  0  0  0  0  0  0  0  0  0  0  0
   -0.7613   -0.3277   -0.8854 C   0  0  0  0  0  0  0  0  0  0  0  0
   -0.0307    0.8546   -0.3149 C   0  0  0  0  0  0  0  0  0  0  0  0
   -1.0993    1.4826    0.5574 C   0  0  0  0  0  0  0  0  0  0  0  0
   -2.3955    1.0696    0.3923 O   0  0  0  0  0  0  0  0  0  0  0  0
   -1.6836    0.1903    1.1730 C   0  0  0  0  0  0  0  0  0  0  0  0
    2.1017   -0.2902   -1.6299 H   0  0  0  0  0  0  0  0  0  0  0  0
    2.6574   -0.0009    0.4346 H   0  0  0  0  0  0  0  0  0  0  0  0
    2.1126   -1.6381    0.8870 H   0  0  0  0  0  0  0  0  0  0  0  0
    0.6583    0.4560    1.6868 H   0  0  0  0  0  0  0  0  0  0  0  0
   -0.8296   -1.8359    0.7624 H   0  0  0  0  0  0  0  0  0  0  0  0
   -0.2784   -0.9749   -1.5960 H   0  0  0  0  0  0  0  0  0  0  0  0
   -1.8464   -0.0815   -1.1406 H   0  0  0  0  0  0  0  0  0  0  0  0
    0.5843    1.4594   -0.9177 H   0  0  0  0  0  0  0  0  0  0  0  0
   -0.8130    2.2151    1.3323 H   0  0  0  0  0  0  0  0  0  0  0  0
   -1.9069    0.1744    2.2370 H   0  0  0  0  0  0  0  0  0  0  0  0
  1  2  1  0
  2  3  1  0
  3  4  1  0
  4  5  1  0
  5  6  1  0
  6  7  1  0
  7  8  1  0
  8  9  1  0
  6  3  1  0
  9  7  1  0
  9  4  1  0
  1 10  1  0
  2 11  1  0
  2 12  1  0
  3 13  1  0
  4 14  1  0
  5 15  1  0
  5 16  1  0
  6 17  1  0
  7 18  1  0
  9 19  1  0
M  END
