
     RDKit          3D

 19 20  0  0  0  0  0  0  0  0999 V2000
    1.6157    0.9580    1.5417 O   0  0  0  0  0  0  0  0  0  0  0  0
    1.7181   -0.1552    0.7083 C   0  0  0  0  0  0  0  0  0  0  0  0
    0.7120    0.0070   -0.4038 C   0  0  0  0  0  0  0  0  0  0  0  0
    0.6875   -1.1195   -1.4066 C   0  0  0  0  0  0  0  0  0  0  0  0
   -0.5316   -1.5975   -0.9250 O   0  0  0  0  0  0  0  0  0  0  0  0
   -0.6546   -0.4736   -0.1634 C   0  0  0  0  0  0  0  0  0  0  0  0
   -1.4092   -0.3584    1.0705 C   0  0  0  0  0  0  0  0  0  0  0  0
   -1.7876    0.4438   -0.1941 C   0  0  0  0  0  0  0  0  0  0  0  0
   -1.4785    1.8098   -0.1063 O   0  0  0  0  0  0  0  0  0  0  0  0
    1.9345    1.7322    0.9929 H   0  0  0  0  0  0  0  0  0  0  0  0
    1.6067   -1.1068    1.2509 H   0  0  0  0  0  0  0  0  0  0  0  0
    2.7269   -0.1343    0.2441 H   0  0  0  0  0  0  0  0  0  0  0  0
    0.7990    1.0261   -0.8442 H   0  0  0  0  0  0  0  0  0  0  0  0
    0.5831   -0.7604   -2.4619 H   0  0  0  0  0  0  0  0  0  0  0  0
    1.5131   -1.8667   -1.2847 H   0  0  0  0  0  0  0  0  0  0  0  0
   -1.0540    0.2196    1.9478 H   0  0  0  0  0  0  0  0  0  0  0  0
   -2.1595   -1.1368    1.3239 H   0  0  0  0  0  0  0  0  0  0  0  0
   -2.6816    0.1298   -0.7513 H   0  0  0  0  0  0  0  0  0  0  0  0
   -2.1401    2.3829   -0.5387 H   0  0  0  0  0  0  0  0  0  0  0  0
  1  2  1  0
  2  3  1  0
  3  4  1  0
  4  5  1  0
  5  6  1  0
  6  7  1  0
  7  8  1  0
  8  9  1  0
  6  3  1  0
  8  6  1  0
  1 10  1  0
  2 11  1  0
  2 12  1  0
  3 13  1  0
  4 14  1  0
  4 15  1  0
  7 16  1  0
  7 17  1  0
  8 18  1  0
  9 19  1  0
M  END
