
     RDKit          3D

 19 20  0  0  0  0  0  0  0  0999 V2000
   -1.9501   -1.7172   -0.0992 O   0  0  0  0  0  0  0  0  0  0  0  0
   -1.9168   -0.3649   -0.3501 C   0  0  0  0  0  0  0  0  0  0  0  0
   -0.5583    0.2167   -0.4274 C   0  0  0  0  0  0  0  0  0  0  0  0
   -0.4500    1.7133   -0.1018 C   0  0  0  0  0  0  0  0  0  0  0  0
    0.8423    1.3291    0.6113 C   0  0  0  0  0  0  0  0  0  0  0  0
    0.6516   -0.0688    0.0100 C   0  0  0  0  0  0  0  0  0  0  0  0
    1.3546   -1.1435    0.7345 C   0  0  0  0  0  0  0  0  0  0  0  0
    2.6213   -1.3080    0.1257 O   0  0  0  0  0  0  0  0  0  0  0  0
    0.3819   -0.1802   -1.3355 O   0  0  0  0  0  0  0  0  0  0  0  0
   -2.0471   -2.1813   -0.9670 H   0  0  0  0  0  0  0  0  0  0  0  0
   -2.5091   -0.1455   -1.2872 H   0  0  0  0  0  0  0  0  0  0  0  0
   -2.4769    0.1709    0.4591 H   0  0  0  0  0  0  0  0  0  0  0  0
   -1.2429    2.0621    0.5578 H   0  0  0  0  0  0  0  0  0  0  0  0
   -0.2555    2.2991   -1.0177 H   0  0  0  0  0  0  0  0  0  0  0  0
    0.6892    1.2736    1.6867 H   0  0  0  0  0  0  0  0  0  0  0  0
    1.7471    1.7963    0.2261 H   0  0  0  0  0  0  0  0  0  0  0  0
    0.8536   -2.1209    0.6414 H   0  0  0  0  0  0  0  0  0  0  0  0
    1.5603   -0.8487    1.7758 H   0  0  0  0  0  0  0  0  0  0  0  0
    2.7049   -0.7823   -0.6899 H   0  0  0  0  0  0  0  0  0  0  0  0
  1  2  1  0
  2  3  1  0
  3  4  1  0
  4  5  1  0
  5  6  1  0
  6  7  1  0
  7  8  1  0
  6  9  1  0
  6  3  1  0
  9  3  1  0
  1 10  1  0
  2 11  1  0
  2 12  1  0
  4 13  1  0
  4 14  1  0
  5 15  1  0
  5 16  1  0
  7 17  1  0
  7 18  1  0
  8 19  1  0
M  END
