
     RDKit          3D

 19 20  0  0  0  0  0  0  0  0999 V2000
   -0.3081    1.8071   -1.4903 O   0  0  0  0  0  0  0  0  0  0  0  0
    0.7332    0.9550   -1.1164 C   0  0  0  0  0  0  0  0  0  0  0  0
    0.1754   -0.0957   -0.1916 C   0  0  0  0  0  0  0  0  0  0  0  0
    1.1407   -1.1089    0.3225 C   0  0  0  0  0  0  0  0  0  0  0  0
    2.1604   -0.4788    1.0446 O   0  0  0  0  0  0  0  0  0  0  0  0
   -0.6779    0.4446    0.9370 C   0  0  0  0  0  0  0  0  0  0  0  0
   -1.7934   -0.4419    0.4419 C   0  0  0  0  0  0  0  0  0  0  0  0
   -1.5523   -1.7577    0.1170 O   0  0  0  0  0  0  0  0  0  0  0  0
   -1.1139   -0.7560   -0.7082 C   0  0  0  0  0  0  0  0  0  0  0  0
   -0.3111    2.6152   -0.9148 H   0  0  0  0  0  0  0  0  0  0  0  0
    1.1537    0.5438   -2.0341 H   0  0  0  0  0  0  0  0  0  0  0  0
    1.4623    1.5562   -0.5463 H   0  0  0  0  0  0  0  0  0  0  0  0
    1.5967   -1.7370   -0.4913 H   0  0  0  0  0  0  0  0  0  0  0  0
    0.5978   -1.7563    1.0432 H   0  0  0  0  0  0  0  0  0  0  0  0
    2.1208   -0.6882    2.0129 H   0  0  0  0  0  0  0  0  0  0  0  0
   -0.9207    1.5140    0.7078 H   0  0  0  0  0  0  0  0  0  0  0  0
   -0.3122    0.2555    1.9511 H   0  0  0  0  0  0  0  0  0  0  0  0
   -2.8118   -0.1597    0.6842 H   0  0  0  0  0  0  0  0  0  0  0  0
   -1.3396   -0.7113   -1.7692 H   0  0  0  0  0  0  0  0  0  0  0  0
  1  2  1  0
  2  3  1  0
  3  4  1  0
  4  5  1  0
  3  6  1  0
  6  7  1  0
  7  8  1  0
  8  9  1  0
  9  3  1  0
  9  7  1  0
  1 10  1  0
  2 11  1  0
  2 12  1  0
  4 13  1  0
  4 14  1  0
  5 15  1  0
  6 16  1  0
  6 17  1  0
  7 18  1  0
  9 19  1  0
M  END
