
     RDKit          3D

 18 18  0  0  0  0  0  0  0  0999 V2000
    2.9544    0.6912   -0.1545 O   0  0  0  0  0  0  0  0  0  0  0  0
    2.1138   -0.3994   -0.1302 C   0  0  0  0  0  0  0  0  0  0  0  0
    0.6594   -0.0144   -0.3174 C   0  0  0  0  0  0  0  0  0  0  0  0
   -0.0780   -1.1699   -0.2759 O   0  0  0  0  0  0  0  0  0  0  0  0
   -1.4331   -1.0058   -0.3989 C   0  0  0  0  0  0  0  0  0  0  0  0
   -1.8602   -0.0011    0.6802 C   0  0  0  0  0  0  0  0  0  0  0  0
   -1.0555    1.2680    0.3776 C   0  0  0  0  0  0  0  0  0  0  0  0
    0.2811    0.9319    0.6293 O   0  0  0  0  0  0  0  0  0  0  0  0
    3.8576    0.3752    0.0895 H   0  0  0  0  0  0  0  0  0  0  0  0
    2.3774   -1.0460   -1.0138 H   0  0  0  0  0  0  0  0  0  0  0  0
    2.2842   -0.9721    0.8028 H   0  0  0  0  0  0  0  0  0  0  0  0
    0.6126    0.5053   -1.3141 H   0  0  0  0  0  0  0  0  0  0  0  0
   -1.9118   -1.9915   -0.2012 H   0  0  0  0  0  0  0  0  0  0  0  0
   -1.7551   -0.5767   -1.3564 H   0  0  0  0  0  0  0  0  0  0  0  0
   -1.4793   -0.3655    1.6738 H   0  0  0  0  0  0  0  0  0  0  0  0
   -2.9352    0.1802    0.6710 H   0  0  0  0  0  0  0  0  0  0  0  0
   -1.2302    1.4619   -0.7114 H   0  0  0  0  0  0  0  0  0  0  0  0
   -1.4021    2.1288    0.9495 H   0  0  0  0  0  0  0  0  0  0  0  0
  1  2  1  0
  2  3  1  0
  3  4  1  0
  4  5  1  0
  5  6  1  0
  6  7  1  0
  7  8  1  0
  8  3  1  0
  1  9  1  0
  2 10  1  0
  2 11  1  0
  3 12  1  0
  5 13  1  0
  5 14  1  0
  6 15  1  0
  6 16  1  0
  7 17  1  0
  7 18  1  0
M  END
