
     RDKit          3D

 17 17  0  0  0  0  0  0  0  0999 V2000
    2.6451   -0.6143    0.7664 O   0  0  0  0  0  0  0  0  0  0  0  0
    1.9392    0.4412    0.1954 C   0  0  0  0  0  0  0  0  0  0  0  0
    0.4991    0.0805    0.0209 C   0  0  0  0  0  0  0  0  0  0  0  0
   -0.0706   -1.0736    0.3502 C   0  0  0  0  0  0  0  0  0  0  0  0
   -1.5019   -1.0179    0.0136 C   0  0  0  0  0  0  0  0  0  0  0  0
   -1.7941    0.4676    0.0626 C   0  0  0  0  0  0  0  0  0  0  0  0
   -0.5048    1.0093   -0.5657 C   0  0  0  0  0  0  0  0  0  0  0  0
    3.2875   -0.9482    0.1007 H   0  0  0  0  0  0  0  0  0  0  0  0
    2.0543    1.3340    0.8479 H   0  0  0  0  0  0  0  0  0  0  0  0
    2.3278    0.6765   -0.8245 H   0  0  0  0  0  0  0  0  0  0  0  0
    0.4221   -1.9296    0.7957 H   0  0  0  0  0  0  0  0  0  0  0  0
   -1.6165   -1.3376   -1.0386 H   0  0  0  0  0  0  0  0  0  0  0  0
   -2.1557   -1.5661    0.7097 H   0  0  0  0  0  0  0  0  0  0  0  0
   -1.9142    0.8269    1.1020 H   0  0  0  0  0  0  0  0  0  0  0  0
   -2.6698    0.7067   -0.5766 H   0  0  0  0  0  0  0  0  0  0  0  0
   -0.3241    2.0537   -0.3126 H   0  0  0  0  0  0  0  0  0  0  0  0
   -0.6236    0.8908   -1.6471 H   0  0  0  0  0  0  0  0  0  0  0  0
  1  2  1  0
  2  3  1  0
  3  4  2  0
  4  5  1  0
  5  6  1  0
  6  7  1  0
  7  3  1  0
  1  8  1  0
  2  9  1  0
  2 10  1  0
  4 11  1  0
  5 12  1  0
  5 13  1  0
  6 14  1  0
  6 15  1  0
  7 16  1  0
  7 17  1  0
M  END
