
     RDKit          3D

 16 17  0  0  0  0  0  0  0  0999 V2000
   -2.3780    1.1194    0.1668 O   0  0  0  0  0  0  0  0  0  0  0  0
   -1.9497   -0.1763   -0.0556 C   0  0  0  0  0  0  0  0  0  0  0  0
   -0.4821   -0.3195   -0.0367 C   0  0  0  0  0  0  0  0  0  0  0  0
    0.3396   -1.0433    0.7269 C   0  0  0  0  0  0  0  0  0  0  0  0
    1.6738   -0.6681    0.1357 C   0  0  0  0  0  0  0  0  0  0  0  0
    1.6194    0.8169   -0.0280 C   0  0  0  0  0  0  0  0  0  0  0  0
    0.5111    0.3626   -0.9358 C   0  0  0  0  0  0  0  0  0  0  0  0
    1.3473   -0.7384   -1.2403 O   0  0  0  0  0  0  0  0  0  0  0  0
   -2.5650    1.3133    1.1175 H   0  0  0  0  0  0  0  0  0  0  0  0
   -2.4596   -0.8307    0.6744 H   0  0  0  0  0  0  0  0  0  0  0  0
   -2.2977   -0.5449   -1.0660 H   0  0  0  0  0  0  0  0  0  0  0  0
    0.1491   -1.7200    1.5474 H   0  0  0  0  0  0  0  0  0  0  0  0
    2.5396   -1.1604    0.4751 H   0  0  0  0  0  0  0  0  0  0  0  0
    2.4550    1.2168   -0.6084 H   0  0  0  0  0  0  0  0  0  0  0  0
    1.3324    1.4037    0.8507 H   0  0  0  0  0  0  0  0  0  0  0  0
    0.1647    0.9688   -1.7237 H   0  0  0  0  0  0  0  0  0  0  0  0
  1  2  1  0
  2  3  1  0
  3  4  2  0
  4  5  1  0
  5  6  1  0
  6  7  1  0
  7  8  1  0
  7  3  1  0
  8  5  1  0
  1  9  1  0
  2 10  1  0
  2 11  1  0
  4 12  1  0
  5 13  1  0
  6 14  1  0
  6 15  1  0
  7 16  1  0
M  END
