
     RDKit          3D

 19 20  0  0  0  0  0  0  0  0999 V2000
   -1.8236    1.9526   -0.1162 O   0  0  0  0  0  0  0  0  0  0  0  0
   -1.6832    0.6669   -0.6581 C   0  0  0  0  0  0  0  0  0  0  0  0
   -0.5783   -0.0993    0.0028 C   0  0  0  0  0  0  0  0  0  0  0  0
    0.8146   -0.0545   -0.5176 C   0  0  0  0  0  0  0  0  0  0  0  0
    1.7483   -0.8997    0.3059 C   0  0  0  0  0  0  0  0  0  0  0  0
    2.7208    0.0878    0.1694 O   0  0  0  0  0  0  0  0  0  0  0  0
    1.7061    1.0333   -0.0610 C   0  0  0  0  0  0  0  0  0  0  0  0
   -0.9987   -1.4841    0.5118 C   0  0  0  0  0  0  0  0  0  0  0  0
   -0.7121   -0.3097    1.3852 O   0  0  0  0  0  0  0  0  0  0  0  0
   -2.6161    2.0109    0.4875 H   0  0  0  0  0  0  0  0  0  0  0  0
   -1.4602    0.7196   -1.7561 H   0  0  0  0  0  0  0  0  0  0  0  0
   -2.6645    0.1615   -0.5402 H   0  0  0  0  0  0  0  0  0  0  0  0
    0.9586   -0.2727   -1.5928 H   0  0  0  0  0  0  0  0  0  0  0  0
    2.0051   -1.8746   -0.1663 H   0  0  0  0  0  0  0  0  0  0  0  0
    1.3676   -0.9768    1.3546 H   0  0  0  0  0  0  0  0  0  0  0  0
    1.4226    1.5872    0.8526 H   0  0  0  0  0  0  0  0  0  0  0  0
    2.0747    1.7223   -0.8756 H   0  0  0  0  0  0  0  0  0  0  0  0
   -0.2195   -2.2344    0.6946 H   0  0  0  0  0  0  0  0  0  0  0  0
   -2.0621   -1.7365    0.5195 H   0  0  0  0  0  0  0  0  0  0  0  0
  1  2  1  0
  2  3  1  0
  3  4  1  0
  4  5  1  0
  5  6  1  0
  6  7  1  0
  3  8  1  0
  8  9  1  0
  9  3  1  0
  7  4  1  0
  1 10  1  0
  2 11  1  0
  2 12  1  0
  4 13  1  0
  5 14  1  0
  5 15  1  0
  7 16  1  0
  7 17  1  0
  8 18  1  0
  8 19  1  0
M  END
