
     RDKit          3D

 21 22  0  0  0  0  0  0  0  0999 V2000
    2.7602    0.1513    1.3059 O   0  0  0  0  0  0  0  0  0  0  0  0
    2.0943   -0.4789    0.2609 C   0  0  0  0  0  0  0  0  0  0  0  0
    1.1221    0.4821   -0.4062 C   0  0  0  0  0  0  0  0  0  0  0  0
    0.3497   -0.1328   -1.5652 C   0  0  0  0  0  0  0  0  0  0  0  0
   -0.3079    0.2063   -0.3069 C   0  0  0  0  0  0  0  0  0  0  0  0
   -0.8032   -0.8051    0.6775 C   0  0  0  0  0  0  0  0  0  0  0  0
   -2.2886   -0.5096    0.7265 C   0  0  0  0  0  0  0  0  0  0  0  0
   -2.5309    0.5405   -0.1254 O   0  0  0  0  0  0  0  0  0  0  0  0
   -1.3661    1.2552   -0.2923 C   0  0  0  0  0  0  0  0  0  0  0  0
    3.3554    0.8718    0.9891 H   0  0  0  0  0  0  0  0  0  0  0  0
    2.8649   -0.8037   -0.4722 H   0  0  0  0  0  0  0  0  0  0  0  0
    1.6034   -1.3908    0.6326 H   0  0  0  0  0  0  0  0  0  0  0  0
    1.4851    1.5143   -0.4884 H   0  0  0  0  0  0  0  0  0  0  0  0
    0.2108    0.5803   -2.4298 H   0  0  0  0  0  0  0  0  0  0  0  0
    0.5145   -1.1723   -1.8448 H   0  0  0  0  0  0  0  0  0  0  0  0
   -0.5764   -1.8393    0.4307 H   0  0  0  0  0  0  0  0  0  0  0  0
   -0.3973   -0.5937    1.6878 H   0  0  0  0  0  0  0  0  0  0  0  0
   -2.6399   -0.2854    1.7369 H   0  0  0  0  0  0  0  0  0  0  0  0
   -2.7895   -1.4149    0.2823 H   0  0  0  0  0  0  0  0  0  0  0  0
   -1.4351    1.7846   -1.2734 H   0  0  0  0  0  0  0  0  0  0  0  0
   -1.2255    2.0401    0.4742 H   0  0  0  0  0  0  0  0  0  0  0  0
  1  2  1  0
  2  3  1  0
  3  4  1  0
  4  5  1  0
  5  6  1  0
  6  7  1  0
  7  8  1  0
  8  9  1  0
  5  3  1  0
  9  5  1  0
  1 10  1  0
  2 11  1  0
  2 12  1  0
  3 13  1  0
  4 14  1  0
  4 15  1  0
  6 16  1  0
  6 17  1  0
  7 18  1  0
  7 19  1  0
  9 20  1  0
  9 21  1  0
M  END
