
     RDKit          3D

 19 20  0  0  0  0  0  0  0  0999 V2000
    2.0138   -1.4366   -0.1475 O   0  0  0  0  0  0  0  0  0  0  0  0
    1.3591   -0.4355   -0.8656 C   0  0  0  0  0  0  0  0  0  0  0  0
    0.2881    0.1315    0.0119 C   0  0  0  0  0  0  0  0  0  0  0  0
   -0.8112   -0.7619    0.5304 C   0  0  0  0  0  0  0  0  0  0  0  0
   -0.7090   -2.0444    0.0211 O   0  0  0  0  0  0  0  0  0  0  0  0
   -1.8051    0.1278   -0.1695 C   0  0  0  0  0  0  0  0  0  0  0  0
   -0.7201    1.0846   -0.4939 C   0  0  0  0  0  0  0  0  0  0  0  0
    0.2871    1.5407    0.4546 C   0  0  0  0  0  0  0  0  0  0  0  0
    0.0002    1.6962    1.8274 O   0  0  0  0  0  0  0  0  0  0  0  0
    2.9585   -1.5212   -0.3609 H   0  0  0  0  0  0  0  0  0  0  0  0
    0.9437   -0.9350   -1.7690 H   0  0  0  0  0  0  0  0  0  0  0  0
    2.0574    0.3918   -1.1192 H   0  0  0  0  0  0  0  0  0  0  0  0
   -0.8300   -0.6995    1.6492 H   0  0  0  0  0  0  0  0  0  0  0  0
   -1.5303   -2.5776    0.1892 H   0  0  0  0  0  0  0  0  0  0  0  0
   -2.6141    0.4612    0.4941 H   0  0  0  0  0  0  0  0  0  0  0  0
   -2.1996   -0.3981   -1.0655 H   0  0  0  0  0  0  0  0  0  0  0  0
   -0.6919    1.4774   -1.5267 H   0  0  0  0  0  0  0  0  0  0  0  0
    1.0910    2.1821    0.0799 H   0  0  0  0  0  0  0  0  0  0  0  0
    0.9124    1.7164    2.2601 H   0  0  0  0  0  0  0  0  0  0  0  0
  1  2  1  0
  2  3  1  0
  3  4  1  0
  4  5  1  0
  4  6  1  0
  6  7  1  0
  7  8  1  0
  8  9  1  0
  7  3  1  0
  8  3  1  0
  1 10  1  0
  2 11  1  0
  2 12  1  0
  4 13  1  0
  5 14  1  0
  6 15  1  0
  6 16  1  0
  7 17  1  0
  8 18  1  0
  9 19  1  0
M  END
