
     RDKit          3D

 16 16  0  0  0  0  0  0  0  0999 V2000
    2.0503    0.7529   -1.1244 O   0  0  0  0  0  0  0  0  0  0  0  0
    1.5186    0.2076    0.0500 C   0  0  0  0  0  0  0  0  0  0  0  0
    0.2767   -0.6124   -0.2239 C   0  0  0  0  0  0  0  0  0  0  0  0
   -0.8527    0.1608   -0.8618 C   0  0  0  0  0  0  0  0  0  0  0  0
   -1.3066    0.5313    0.5497 C   0  0  0  0  0  0  0  0  0  0  0  0
   -0.5962   -0.7225    1.0281 C   0  0  0  0  0  0  0  0  0  0  0  0
    1.5769    0.3963   -1.9337 H   0  0  0  0  0  0  0  0  0  0  0  0
    1.2336    1.0764    0.6895 H   0  0  0  0  0  0  0  0  0  0  0  0
    2.2531   -0.4380    0.5718 H   0  0  0  0  0  0  0  0  0  0  0  0
    0.4596   -1.6222   -0.6208 H   0  0  0  0  0  0  0  0  0  0  0  0
   -1.6099   -0.5074   -1.3042 H   0  0  0  0  0  0  0  0  0  0  0  0
   -0.5420    1.0243   -1.4801 H   0  0  0  0  0  0  0  0  0  0  0  0
   -0.8625    1.4540    0.9437 H   0  0  0  0  0  0  0  0  0  0  0  0
   -2.3831    0.4911    0.7147 H   0  0  0  0  0  0  0  0  0  0  0  0
    0.0242   -0.5869    1.9397 H   0  0  0  0  0  0  0  0  0  0  0  0
   -1.2400   -1.6054    1.0617 H   0  0  0  0  0  0  0  0  0  0  0  0
  1  2  1  0
  2  3  1  0
  3  4  1  0
  4  5  1  0
  5  6  1  0
  6  3  1  0
  1  7  1  0
  2  8  1  0
  2  9  1  0
  3 10  1  0
  4 11  1  0
  4 12  1  0
  5 13  1  0
  5 14  1  0
  6 15  1  0
  6 16  1  0
M  END
