
     RDKit          3D

 19 21  0  0  0  0  0  0  0  0999 V2000
    2.4883    0.8394   -0.5980 O   0  0  0  0  0  0  0  0  0  0  0  0
    1.8956   -0.4121   -0.3085 C   0  0  0  0  0  0  0  0  0  0  0  0
    0.5030   -0.1352    0.1510 C   0  0  0  0  0  0  0  0  0  0  0  0
   -0.4295   -1.3439    0.1745 C   0  0  0  0  0  0  0  0  0  0  0  0
   -1.8259   -0.7824   -0.0609 C   0  0  0  0  0  0  0  0  0  0  0  0
   -1.6579    0.7241   -0.1285 C   0  0  0  0  0  0  0  0  0  0  0  0
   -0.6450    1.3969    0.7093 C   0  0  0  0  0  0  0  0  0  0  0  0
    0.3814    0.6594    1.2831 O   0  0  0  0  0  0  0  0  0  0  0  0
   -0.2766    0.8708   -0.6003 C   0  0  0  0  0  0  0  0  0  0  0  0
    3.4260    0.8219   -0.3335 H   0  0  0  0  0  0  0  0  0  0  0  0
    1.8629   -0.9525   -1.2619 H   0  0  0  0  0  0  0  0  0  0  0  0
    2.5131   -0.8908    0.4642 H   0  0  0  0  0  0  0  0  0  0  0  0
   -0.3429   -1.7821    1.2037 H   0  0  0  0  0  0  0  0  0  0  0  0
   -0.1346   -2.0339   -0.6170 H   0  0  0  0  0  0  0  0  0  0  0  0
   -2.1611   -1.0961   -1.0788 H   0  0  0  0  0  0  0  0  0  0  0  0
   -2.5258   -1.0989    0.7251 H   0  0  0  0  0  0  0  0  0  0  0  0
   -2.4208    1.3218   -0.6145 H   0  0  0  0  0  0  0  0  0  0  0  0
   -0.7084    2.4770    0.8251 H   0  0  0  0  0  0  0  0  0  0  0  0
    0.0582    1.4166   -1.4550 H   0  0  0  0  0  0  0  0  0  0  0  0
  1  2  1  0
  2  3  1  0
  3  4  1  0
  4  5  1  0
  5  6  1  0
  6  7  1  0
  7  8  1  0
  7  9  1  0
  8  3  1  0
  9  3  1  0
  9  6  1  0
  1 10  1  0
  2 11  1  0
  2 12  1  0
  4 13  1  0
  4 14  1  0
  5 15  1  0
  5 16  1  0
  6 17  1  0
  7 18  1  0
  9 19  1  0
M  END
