
     RDKit          3D

 21 22  0  0  0  0  0  0  0  0999 V2000
    3.0204    0.3343    0.9649 O   0  0  0  0  0  0  0  0  0  0  0  0
    2.2489   -0.5831    0.2103 C   0  0  0  0  0  0  0  0  0  0  0  0
    0.9070   -0.3471    0.1882 C   0  0  0  0  0  0  0  0  0  0  0  0
   -0.1842   -1.0930   -0.4907 C   0  0  0  0  0  0  0  0  0  0  0  0
   -0.9221    0.0400    0.2193 C   0  0  0  0  0  0  0  0  0  0  0  0
   -2.2644    0.2694    0.1901 C   0  0  0  0  0  0  0  0  0  0  0  0
   -2.7852    0.5028   -1.1052 O   0  0  0  0  0  0  0  0  0  0  0  0
    0.1957    0.9055   -0.2895 C   0  0  0  0  0  0  0  0  0  0  0  0
   -0.0298   -0.2658    1.3705 C   0  0  0  0  0  0  0  0  0  0  0  0
    2.9448    1.2421    0.5646 H   0  0  0  0  0  0  0  0  0  0  0  0
    2.7382   -0.5960   -0.7873 H   0  0  0  0  0  0  0  0  0  0  0  0
    2.5152   -1.5800    0.6614 H   0  0  0  0  0  0  0  0  0  0  0  0
   -0.1923   -1.0135   -1.5963 H   0  0  0  0  0  0  0  0  0  0  0  0
   -0.4690   -2.0676   -0.0814 H   0  0  0  0  0  0  0  0  0  0  0  0
   -2.5991    1.1448    0.7861 H   0  0  0  0  0  0  0  0  0  0  0  0
   -2.8821   -0.5854    0.5746 H   0  0  0  0  0  0  0  0  0  0  0  0
   -2.8237    1.4624   -1.3143 H   0  0  0  0  0  0  0  0  0  0  0  0
    0.2073    1.0602   -1.3738 H   0  0  0  0  0  0  0  0  0  0  0  0
    0.3523    1.7870    0.3507 H   0  0  0  0  0  0  0  0  0  0  0  0
    0.2193    0.6014    1.9915 H   0  0  0  0  0  0  0  0  0  0  0  0
   -0.1971   -1.2184    1.9010 H   0  0  0  0  0  0  0  0  0  0  0  0
  1  2  1  0
  2  3  1  0
  3  4  1  0
  4  5  1  0
  5  6  1  0
  6  7  1  0
  5  8  1  0
  5  9  1  0
  8  3  1  0
  9  3  1  0
  1 10  1  0
  2 11  1  0
  2 12  1  0
  4 13  1  0
  4 14  1  0
  6 15  1  0
  6 16  1  0
  7 17  1  0
  8 18  1  0
  8 19  1  0
  9 20  1  0
  9 21  1  0
M  END
