
     RDKit          3D

 19 21  0  0  0  0  0  0  0  0999 V2000
    3.0187    0.2912    0.6183 O   0  0  0  0  0  0  0  0  0  0  0  0
    1.7416   -0.1784    0.8165 C   0  0  0  0  0  0  0  0  0  0  0  0
    1.1404   -0.6823   -0.4644 C   0  0  0  0  0  0  0  0  0  0  0  0
   -0.2554   -1.2024   -0.2810 C   0  0  0  0  0  0  0  0  0  0  0  0
   -0.4632   -0.9104   -1.6288 O   0  0  0  0  0  0  0  0  0  0  0  0
    0.1351    0.2261   -1.1169 C   0  0  0  0  0  0  0  0  0  0  0  0
   -0.6976    0.0969    0.0747 C   0  0  0  0  0  0  0  0  0  0  0  0
   -1.5886    1.1899    0.0641 C   0  0  0  0  0  0  0  0  0  0  0  0
   -2.1153   -0.0638    0.3792 C   0  0  0  0  0  0  0  0  0  0  0  0
    3.0751    1.1547    0.1560 H   0  0  0  0  0  0  0  0  0  0  0  0
    1.1159    0.6267    1.2703 H   0  0  0  0  0  0  0  0  0  0  0  0
    1.7895   -1.0210    1.5245 H   0  0  0  0  0  0  0  0  0  0  0  0
    1.8138   -1.2362   -1.1029 H   0  0  0  0  0  0  0  0  0  0  0  0
   -0.4574   -2.1343    0.1159 H   0  0  0  0  0  0  0  0  0  0  0  0
    0.3753    1.0628   -1.6556 H   0  0  0  0  0  0  0  0  0  0  0  0
   -2.0314    1.7491   -0.8150 H   0  0  0  0  0  0  0  0  0  0  0  0
   -1.4361    1.9468    0.8966 H   0  0  0  0  0  0  0  0  0  0  0  0
   -2.8569   -0.5532   -0.2958 H   0  0  0  0  0  0  0  0  0  0  0  0
   -2.3034   -0.3622    1.4443 H   0  0  0  0  0  0  0  0  0  0  0  0
  1  2  1  0
  2  3  1  0
  3  4  1  0
  4  5  1  0
  5  6  1  0
  6  7  1  0
  7  8  1  0
  8  9  1  0
  6  3  1  0
  9  7  1  0
  7  4  1  0
  1 10  1  0
  2 11  1  0
  2 12  1  0
  3 13  1  0
  4 14  1  0
  6 15  1  0
  8 16  1  0
  8 17  1  0
  9 18  1  0
  9 19  1  0
M  END
