
     RDKit          3D

 19 20  0  0  0  0  0  0  0  0999 V2000
    2.0824    0.0314    1.1551 O   0  0  0  0  0  0  0  0  0  0  0  0
    1.2967   -0.9256    0.4897 C   0  0  0  0  0  0  0  0  0  0  0  0
    0.4574   -0.2062   -0.5022 C   0  0  0  0  0  0  0  0  0  0  0  0
    1.2261    0.5012   -1.4647 O   0  0  0  0  0  0  0  0  0  0  0  0
   -0.7389   -0.8843   -1.0705 C   0  0  0  0  0  0  0  0  0  0  0  0
   -1.4408   -0.5945    0.2117 C   0  0  0  0  0  0  0  0  0  0  0  0
   -0.6496    0.6591   -0.0343 C   0  0  0  0  0  0  0  0  0  0  0  0
   -0.6418    1.7173    0.6248 O   0  0  0  0  0  0  0  0  0  0  0  0
   -1.1838    0.5095   -1.4671 C   0  0  0  0  0  0  0  0  0  0  0  0
    2.6736    0.5146    0.5215 H   0  0  0  0  0  0  0  0  0  0  0  0
    2.0160   -1.5878   -0.0646 H   0  0  0  0  0  0  0  0  0  0  0  0
    0.7603   -1.5134    1.2498 H   0  0  0  0  0  0  0  0  0  0  0  0
    1.3050    1.4180   -1.0978 H   0  0  0  0  0  0  0  0  0  0  0  0
   -0.7896   -1.7005   -1.6432 H   0  0  0  0  0  0  0  0  0  0  0  0
   -1.2014   -1.2028    1.0800 H   0  0  0  0  0  0  0  0  0  0  0  0
   -2.5198   -0.3546    0.0684 H   0  0  0  0  0  0  0  0  0  0  0  0
    0.1332    2.0345    1.1095 H   0  0  0  0  0  0  0  0  0  0  0  0
   -0.5240    0.9354   -2.2197 H   0  0  0  0  0  0  0  0  0  0  0  0
   -2.2609    0.6488   -1.5607 H   0  0  0  0  0  0  0  0  0  0  0  0
  1  2  1  0
  2  3  1  0
  3  4  1  0
  3  5  1  0
  5  6  1  0
  6  7  1  0
  7  8  1  0
  7  9  1  0
  7  3  1  0
  9  5  1  0
  1 10  1  0
  2 11  1  0
  2 12  1  0
  4 13  1  0
  5 14  1  0
  6 15  1  0
  6 16  1  0
  8 17  1  0
  9 18  1  0
  9 19  1  0
M  END
