
     RDKit          3D

 23 24  0  0  0  0  0  0  0  0999 V2000
    3.2070    0.4758    0.8118 O   0  0  0  0  0  0  0  0  0  0  0  0
    2.5107   -0.6300    0.3274 C   0  0  0  0  0  0  0  0  0  0  0  0
    1.4395   -0.1701   -0.6488 C   0  0  0  0  0  0  0  0  0  0  0  0
    0.4403    0.7087   -0.1804 C   0  0  0  0  0  0  0  0  0  0  0  0
   -0.3474    0.8058    1.0498 C   0  0  0  0  0  0  0  0  0  0  0  0
   -1.8106    0.7484    0.6198 C   0  0  0  0  0  0  0  0  0  0  0  0
   -2.1549   -0.1307   -0.4894 C   0  0  0  0  0  0  0  0  0  0  0  0
   -1.0685   -0.6363   -1.3964 C   0  0  0  0  0  0  0  0  0  0  0  0
    0.1622   -0.7727   -0.5957 C   0  0  0  0  0  0  0  0  0  0  0  0
    3.1386    0.4424    1.8018 H   0  0  0  0  0  0  0  0  0  0  0  0
    3.2704   -1.2784   -0.1828 H   0  0  0  0  0  0  0  0  0  0  0  0
    2.0719   -1.2407    1.1457 H   0  0  0  0  0  0  0  0  0  0  0  0
    1.8940    0.0038   -1.6594 H   0  0  0  0  0  0  0  0  0  0  0  0
    0.1070    1.5104   -0.9097 H   0  0  0  0  0  0  0  0  0  0  0  0
   -0.2048    1.6953    1.6610 H   0  0  0  0  0  0  0  0  0  0  0  0
   -0.2153   -0.0799    1.7396 H   0  0  0  0  0  0  0  0  0  0  0  0
   -2.0925    1.8278    0.4352 H   0  0  0  0  0  0  0  0  0  0  0  0
   -2.3887    0.4865    1.5524 H   0  0  0  0  0  0  0  0  0  0  0  0
   -2.7463   -1.0082   -0.0962 H   0  0  0  0  0  0  0  0  0  0  0  0
   -2.8936    0.4045   -1.1565 H   0  0  0  0  0  0  0  0  0  0  0  0
   -0.9525   -0.0050   -2.3018 H   0  0  0  0  0  0  0  0  0  0  0  0
   -1.3692   -1.6411   -1.7629 H   0  0  0  0  0  0  0  0  0  0  0  0
    0.0026   -1.5161    0.2356 H   0  0  0  0  0  0  0  0  0  0  0  0
  1  2  1  0
  2  3  1  0
  3  4  1  0
  4  5  1  0
  5  6  1  0
  6  7  1  0
  7  8  1  0
  8  9  1  0
  9  3  1  0
  9  4  1  0
  1 10  1  0
  2 11  1  0
  2 12  1  0
  3 13  1  0
  4 14  1  0
  5 15  1  0
  5 16  1  0
  6 17  1  0
  6 18  1  0
  7 19  1  0
  7 20  1  0
  8 21  1  0
  8 22  1  0
  9 23  1  0
M  END
