
     RDKit          3D

 19 20  0  0  0  0  0  0  0  0999 V2000
    2.6406    0.5424   -1.1103 O   0  0  0  0  0  0  0  0  0  0  0  0
    2.2623   -0.0360    0.1022 C   0  0  0  0  0  0  0  0  0  0  0  0
    0.7952    0.0719    0.3753 C   0  0  0  0  0  0  0  0  0  0  0  0
   -0.1302   -0.5734   -0.6258 C   0  0  0  0  0  0  0  0  0  0  0  0
   -1.3411   -1.2737   -0.0865 C   0  0  0  0  0  0  0  0  0  0  0  0
   -2.0039   -0.4676    0.8156 O   0  0  0  0  0  0  0  0  0  0  0  0
   -2.3109    0.7260    0.1648 C   0  0  0  0  0  0  0  0  0  0  0  0
   -1.1604    1.4820    0.1157 O   0  0  0  0  0  0  0  0  0  0  0  0
   -0.1012    0.8730   -0.4976 C   0  0  0  0  0  0  0  0  0  0  0  0
    3.5148    0.9906   -0.9828 H   0  0  0  0  0  0  0  0  0  0  0  0
    2.8523    0.4173    0.9253 H   0  0  0  0  0  0  0  0  0  0  0  0
    2.5217   -1.1344    0.1207 H   0  0  0  0  0  0  0  0  0  0  0  0
    0.5160   -0.0501    1.4422 H   0  0  0  0  0  0  0  0  0  0  0  0
    0.2957   -1.0302   -1.5491 H   0  0  0  0  0  0  0  0  0  0  0  0
   -0.9600   -2.1652    0.4927 H   0  0  0  0  0  0  0  0  0  0  0  0
   -1.9596   -1.6486   -0.9065 H   0  0  0  0  0  0  0  0  0  0  0  0
   -2.7301    0.5168   -0.8380 H   0  0  0  0  0  0  0  0  0  0  0  0
   -3.0471    1.2868    0.7848 H   0  0  0  0  0  0  0  0  0  0  0  0
    0.3457    1.4723   -1.3320 H   0  0  0  0  0  0  0  0  0  0  0  0
  1  2  1  0
  2  3  1  0
  3  4  1  0
  4  5  1  0
  5  6  1  0
  6  7  1  0
  7  8  1  0
  8  9  1  0
  9  3  1  0
  9  4  1  0
  1 10  1  0
  2 11  1  0
  2 12  1  0
  3 13  1  0
  4 14  1  0
  5 15  1  0
  5 16  1  0
  7 17  1  0
  7 18  1  0
  9 19  1  0
M  END
