
     RDKit          3D

 19 19  0  0  0  0  0  0  0  0999 V2000
    2.5258   -0.5204   -0.7251 O   0  0  0  0  0  0  0  0  0  0  0  0
    1.6573   -0.5189    0.3776 C   0  0  0  0  0  0  0  0  0  0  0  0
    0.5025    0.3910    0.1183 C   0  0  0  0  0  0  0  0  0  0  0  0
    0.8950    1.6882   -0.1034 O   0  0  0  0  0  0  0  0  0  0  0  0
   -0.4656    0.2599    1.2708 C   0  0  0  0  0  0  0  0  0  0  0  0
   -1.7111    0.2998    0.8399 C   0  0  0  0  0  0  0  0  0  0  0  0
   -1.6932    0.4613   -0.6260 C   0  0  0  0  0  0  0  0  0  0  0  0
   -0.3705   -0.1391   -1.0338 C   0  0  0  0  0  0  0  0  0  0  0  0
   -0.3879   -1.5224   -0.9862 O   0  0  0  0  0  0  0  0  0  0  0  0
    3.0966   -1.3419   -0.6085 H   0  0  0  0  0  0  0  0  0  0  0  0
    2.2427   -0.1087    1.2210 H   0  0  0  0  0  0  0  0  0  0  0  0
    1.3682   -1.5371    0.6474 H   0  0  0  0  0  0  0  0  0  0  0  0
    0.5137    2.3537    0.5009 H   0  0  0  0  0  0  0  0  0  0  0  0
   -0.1465    0.1503    2.2932 H   0  0  0  0  0  0  0  0  0  0  0  0
   -2.6145    0.2242    1.4773 H   0  0  0  0  0  0  0  0  0  0  0  0
   -1.6355    1.5406   -0.9226 H   0  0  0  0  0  0  0  0  0  0  0  0
   -2.5503   -0.0416   -1.1240 H   0  0  0  0  0  0  0  0  0  0  0  0
   -0.0033    0.2525   -2.0017 H   0  0  0  0  0  0  0  0  0  0  0  0
   -1.2235   -1.8914   -0.6149 H   0  0  0  0  0  0  0  0  0  0  0  0
  1  2  1  0
  2  3  1  0
  3  4  1  0
  3  5  1  0
  5  6  2  0
  6  7  1  0
  7  8  1  0
  8  9  1  0
  8  3  1  0
  1 10  1  0
  2 11  1  0
  2 12  1  0
  4 13  1  0
  5 14  1  0
  6 15  1  0
  7 16  1  0
  7 17  1  0
  8 18  1  0
  9 19  1  0
M  END
