
     RDKit          3D

 19 20  0  0  0  0  0  0  0  0999 V2000
    2.8713   -0.9769    0.3426 O   0  0  0  0  0  0  0  0  0  0  0  0
    2.0335    0.0681    0.6370 C   0  0  0  0  0  0  0  0  0  0  0  0
    0.6348   -0.1643    0.1866 C   0  0  0  0  0  0  0  0  0  0  0  0
    0.1497   -1.2590   -0.4528 C   0  0  0  0  0  0  0  0  0  0  0  0
   -1.2786   -0.9120   -0.6315 C   0  0  0  0  0  0  0  0  0  0  0  0
   -1.1721    0.5528   -1.0834 C   0  0  0  0  0  0  0  0  0  0  0  0
   -0.5503    0.6960    0.3086 C   0  0  0  0  0  0  0  0  0  0  0  0
   -0.5225    1.8705    0.8918 O   0  0  0  0  0  0  0  0  0  0  0  0
   -1.6188   -0.3271    0.7217 C   0  0  0  0  0  0  0  0  0  0  0  0
    3.4287   -0.7659   -0.4705 H   0  0  0  0  0  0  0  0  0  0  0  0
    2.0874    0.2657    1.7243 H   0  0  0  0  0  0  0  0  0  0  0  0
    2.3871    0.9781    0.1125 H   0  0  0  0  0  0  0  0  0  0  0  0
    0.6830   -2.1409   -0.7451 H   0  0  0  0  0  0  0  0  0  0  0  0
   -1.9474   -1.5476   -1.1279 H   0  0  0  0  0  0  0  0  0  0  0  0
   -0.4802    0.7184   -1.9143 H   0  0  0  0  0  0  0  0  0  0  0  0
   -2.1464    1.0443   -1.1150 H   0  0  0  0  0  0  0  0  0  0  0  0
   -0.5733    2.6807    0.3350 H   0  0  0  0  0  0  0  0  0  0  0  0
   -1.3697   -0.9279    1.5923 H   0  0  0  0  0  0  0  0  0  0  0  0
   -2.6160    0.1472    0.6881 H   0  0  0  0  0  0  0  0  0  0  0  0
  1  2  1  0
  2  3  1  0
  3  4  2  0
  4  5  1  0
  5  6  1  0
  6  7  1  0
  7  8  1  0
  7  9  1  0
  7  3  1  0
  9  5  1  0
  1 10  1  0
  2 11  1  0
  2 12  1  0
  4 13  1  0
  5 14  1  0
  6 15  1  0
  6 16  1  0
  8 17  1  0
  9 18  1  0
  9 19  1  0
M  END
