
     RDKit          3D

 23 23  0  0  0  0  0  0  0  0999 V2000
   -2.9677   -1.3100    0.0342 O   0  0  0  0  0  0  0  0  0  0  0  0
   -2.3624   -0.0777   -0.1379 C   0  0  0  0  0  0  0  0  0  0  0  0
   -0.9273   -0.1836   -0.5512 C   0  0  0  0  0  0  0  0  0  0  0  0
   -0.1854   -0.9324    0.5236 C   0  0  0  0  0  0  0  0  0  0  0  0
    1.2822   -1.0348    0.2775 C   0  0  0  0  0  0  0  0  0  0  0  0
    1.9452    0.1454   -0.2880 C   0  0  0  0  0  0  0  0  0  0  0  0
    2.7665    0.7132    0.7191 O   0  0  0  0  0  0  0  0  0  0  0  0
    1.1326    1.2036   -0.8938 C   0  0  0  0  0  0  0  0  0  0  0  0
   -0.3294    1.2049   -0.5981 C   0  0  0  0  0  0  0  0  0  0  0  0
   -3.8337   -1.1767    0.4648 H   0  0  0  0  0  0  0  0  0  0  0  0
   -2.3762    0.4378    0.8581 H   0  0  0  0  0  0  0  0  0  0  0  0
   -2.9077    0.5892   -0.8254 H   0  0  0  0  0  0  0  0  0  0  0  0
   -0.7663   -0.6551   -1.5243 H   0  0  0  0  0  0  0  0  0  0  0  0
   -0.6478   -1.9407    0.5806 H   0  0  0  0  0  0  0  0  0  0  0  0
   -0.3972   -0.4514    1.5081 H   0  0  0  0  0  0  0  0  0  0  0  0
    1.7405   -1.3472    1.2616 H   0  0  0  0  0  0  0  0  0  0  0  0
    1.4394   -1.9484   -0.3715 H   0  0  0  0  0  0  0  0  0  0  0  0
    2.6993   -0.2071   -1.0559 H   0  0  0  0  0  0  0  0  0  0  0  0
    3.4008    0.0129    1.0282 H   0  0  0  0  0  0  0  0  0  0  0  0
    1.5145    2.2268   -0.5972 H   0  0  0  0  0  0  0  0  0  0  0  0
    1.2359    1.2219   -2.0205 H   0  0  0  0  0  0  0  0  0  0  0  0
   -0.8890    1.7481   -1.3926 H   0  0  0  0  0  0  0  0  0  0  0  0
   -0.5669    1.7613    0.3492 H   0  0  0  0  0  0  0  0  0  0  0  0
  1  2  1  0
  2  3  1  0
  3  4  1  0
  4  5  1  0
  5  6  1  0
  6  7  1  0
  6  8  1  0
  8  9  1  0
  9  3  1  0
  1 10  1  0
  2 11  1  0
  2 12  1  0
  3 13  1  0
  4 14  1  0
  4 15  1  0
  5 16  1  0
  5 17  1  0
  6 18  1  0
  7 19  1  0
  8 20  1  0
  8 21  1  0
  9 22  1  0
  9 23  1  0
M  END
