
     RDKit          3D

 21 22  0  0  0  0  0  0  0  0999 V2000
    2.9400    0.1044   -0.2042 O   0  0  0  0  0  0  0  0  0  0  0  0
    1.8296   -0.5695   -0.7141 C   0  0  0  0  0  0  0  0  0  0  0  0
    0.6496   -0.2866    0.1878 C   0  0  0  0  0  0  0  0  0  0  0  0
    0.3353    1.1969    0.2590 C   0  0  0  0  0  0  0  0  0  0  0  0
   -0.9471    1.6031   -0.3547 C   0  0  0  0  0  0  0  0  0  0  0  0
   -2.0480    0.8140   -0.0846 O   0  0  0  0  0  0  0  0  0  0  0  0
   -1.6443   -0.2600    0.6333 C   0  0  0  0  0  0  0  0  0  0  0  0
   -1.6162   -1.6488    0.3465 C   0  0  0  0  0  0  0  0  0  0  0  0
   -0.5938   -0.9192   -0.3011 C   0  0  0  0  0  0  0  0  0  0  0  0
    2.8484    0.1620    0.7831 H   0  0  0  0  0  0  0  0  0  0  0  0
    1.5935   -0.2679   -1.7389 H   0  0  0  0  0  0  0  0  0  0  0  0
    2.0132   -1.6590   -0.6664 H   0  0  0  0  0  0  0  0  0  0  0  0
    0.8903   -0.6486    1.2063 H   0  0  0  0  0  0  0  0  0  0  0  0
    1.1685    1.7117   -0.2793 H   0  0  0  0  0  0  0  0  0  0  0  0
    0.4188    1.5327    1.3127 H   0  0  0  0  0  0  0  0  0  0  0  0
   -1.1680    2.6433   -0.0398 H   0  0  0  0  0  0  0  0  0  0  0  0
   -0.8341    1.6309   -1.4589 H   0  0  0  0  0  0  0  0  0  0  0  0
   -1.3238    0.0434    1.6655 H   0  0  0  0  0  0  0  0  0  0  0  0
   -1.3583   -2.3675    1.1477 H   0  0  0  0  0  0  0  0  0  0  0  0
   -2.4455   -2.0744   -0.2871 H   0  0  0  0  0  0  0  0  0  0  0  0
   -0.7080   -0.7410   -1.4127 H   0  0  0  0  0  0  0  0  0  0  0  0
  1  2  1  0
  2  3  1  0
  3  4  1  0
  4  5  1  0
  5  6  1  0
  6  7  1  0
  7  8  1  0
  8  9  1  0
  9  3  1  0
  9  7  1  0
  1 10  1  0
  2 11  1  0
  2 12  1  0
  3 13  1  0
  4 14  1  0
  4 15  1  0
  5 16  1  0
  5 17  1  0
  7 18  1  0
  8 19  1  0
  8 20  1  0
  9 21  1  0
M  END
