
     RDKit          3D

 19 20  0  0  0  0  0  0  0  0999 V2000
    2.8157   -0.7085    0.1670 O   0  0  0  0  0  0  0  0  0  0  0  0
    1.4996   -0.9968    0.5297 C   0  0  0  0  0  0  0  0  0  0  0  0
    0.5805   -0.1426   -0.3135 C   0  0  0  0  0  0  0  0  0  0  0  0
    0.8607    1.2991   -0.0819 C   0  0  0  0  0  0  0  0  0  0  0  0
   -0.2800    1.9672   -0.1831 C   0  0  0  0  0  0  0  0  0  0  0  0
   -1.4133    1.0424   -0.4878 C   0  0  0  0  0  0  0  0  0  0  0  0
   -0.8531   -0.2517    0.0758 C   0  0  0  0  0  0  0  0  0  0  0  0
   -1.6316   -1.3710    0.2683 C   0  0  0  0  0  0  0  0  0  0  0  0
   -1.1748   -0.6040    1.3745 O   0  0  0  0  0  0  0  0  0  0  0  0
    2.8290   -0.3927   -0.7867 H   0  0  0  0  0  0  0  0  0  0  0  0
    1.2963   -0.7337    1.5890 H   0  0  0  0  0  0  0  0  0  0  0  0
    1.2428   -2.0533    0.4045 H   0  0  0  0  0  0  0  0  0  0  0  0
    0.6675   -0.4044   -1.3979 H   0  0  0  0  0  0  0  0  0  0  0  0
    1.8245    1.7787    0.1381 H   0  0  0  0  0  0  0  0  0  0  0  0
   -0.4124    3.0374   -0.0673 H   0  0  0  0  0  0  0  0  0  0  0  0
   -1.5152    0.9497   -1.5734 H   0  0  0  0  0  0  0  0  0  0  0  0
   -2.3555    1.3447   -0.0300 H   0  0  0  0  0  0  0  0  0  0  0  0
   -2.7361   -1.3404    0.1708 H   0  0  0  0  0  0  0  0  0  0  0  0
   -1.2446   -2.4202    0.2039 H   0  0  0  0  0  0  0  0  0  0  0  0
  1  2  1  0
  2  3  1  0
  3  4  1  0
  4  5  2  0
  5  6  1  0
  6  7  1  0
  7  8  1  0
  8  9  1  0
  7  3  1  0
  9  7  1  0
  1 10  1  0
  2 11  1  0
  2 12  1  0
  3 13  1  0
  4 14  1  0
  5 15  1  0
  6 16  1  0
  6 17  1  0
  8 18  1  0
  8 19  1  0
M  END
