
     RDKit          3D

 15 16  0  0  0  0  0  0  0  0999 V2000
    2.1291    0.2377   -0.7512 O   0  0  0  0  0  0  0  0  0  0  0  0
    1.4340   -0.2104    0.3739 C   0  0  0  0  0  0  0  0  0  0  0  0
    0.0581   -0.1115    0.2887 C   0  0  0  0  0  0  0  0  0  0  0  0
   -0.7873    1.0637    0.0310 C   0  0  0  0  0  0  0  0  0  0  0  0
   -1.7078   -0.0926    0.2343 C   0  0  0  0  0  0  0  0  0  0  0  0
   -0.8170   -0.8861   -0.6674 C   0  0  0  0  0  0  0  0  0  0  0  0
   -0.8581   -0.4848    1.2668 O   0  0  0  0  0  0  0  0  0  0  0  0
    2.8698    0.8476   -0.5329 H   0  0  0  0  0  0  0  0  0  0  0  0
    1.7669   -1.2862    0.4950 H   0  0  0  0  0  0  0  0  0  0  0  0
    1.8928    0.3064    1.2430 H   0  0  0  0  0  0  0  0  0  0  0  0
   -0.8133    1.8018    0.8628 H   0  0  0  0  0  0  0  0  0  0  0  0
   -0.8288    1.4858   -0.9768 H   0  0  0  0  0  0  0  0  0  0  0  0
   -2.7164   -0.0889    0.2569 H   0  0  0  0  0  0  0  0  0  0  0  0
   -0.8514   -1.9660   -0.4092 H   0  0  0  0  0  0  0  0  0  0  0  0
   -0.7707   -0.6165   -1.7148 H   0  0  0  0  0  0  0  0  0  0  0  0
  1  2  1  0
  2  3  1  0
  3  4  1  0
  4  5  1  0
  5  6  1  0
  5  7  1  0
  6  3  1  0
  7  3  1  0
  1  8  1  0
  2  9  1  0
  2 10  1  0
  4 11  1  0
  4 12  1  0
  5 13  1  0
  6 14  1  0
  6 15  1  0
M  END
