
     RDKit          3D

 19 19  0  0  0  0  0  0  0  0999 V2000
   -1.2774    1.6183    1.4674 O   0  0  0  0  0  0  0  0  0  0  0  0
   -0.1315    1.6518    0.6923 C   0  0  0  0  0  0  0  0  0  0  0  0
   -0.0127    0.3547   -0.0990 C   0  0  0  0  0  0  0  0  0  0  0  0
   -1.2049    0.1352   -1.0258 C   0  0  0  0  0  0  0  0  0  0  0  0
   -1.0686   -1.0570   -1.7355 O   0  0  0  0  0  0  0  0  0  0  0  0
    0.5270   -0.8345    0.6132 C   0  0  0  0  0  0  0  0  0  0  0  0
    0.1002   -2.1139    0.2754 O   0  0  0  0  0  0  0  0  0  0  0  0
    1.3012   -0.1507   -0.5115 C   0  0  0  0  0  0  0  0  0  0  0  0
    2.4878    0.4185   -0.0838 O   0  0  0  0  0  0  0  0  0  0  0  0
   -1.6569    0.7061    1.4603 H   0  0  0  0  0  0  0  0  0  0  0  0
    0.7537    1.8512    1.3120 H   0  0  0  0  0  0  0  0  0  0  0  0
   -0.2183    2.5289   -0.0089 H   0  0  0  0  0  0  0  0  0  0  0  0
   -1.3031    0.9943   -1.7236 H   0  0  0  0  0  0  0  0  0  0  0  0
   -2.1220    0.0325   -0.4127 H   0  0  0  0  0  0  0  0  0  0  0  0
   -1.6176   -1.7774   -1.3805 H   0  0  0  0  0  0  0  0  0  0  0  0
    0.8307   -0.6745    1.6467 H   0  0  0  0  0  0  0  0  0  0  0  0
    0.1024   -2.7082    1.0441 H   0  0  0  0  0  0  0  0  0  0  0  0
    1.3538   -0.6418   -1.4979 H   0  0  0  0  0  0  0  0  0  0  0  0
    3.1564   -0.3335   -0.0321 H   0  0  0  0  0  0  0  0  0  0  0  0
  1  2  1  0
  2  3  1  0
  3  4  1  0
  4  5  1  0
  3  6  1  0
  6  7  1  0
  6  8  1  0
  8  9  1  0
  8  3  1  0
  1 10  1  0
  2 11  1  0
  2 12  1  0
  4 13  1  0
  4 14  1  0
  5 15  1  0
  6 16  1  0
  7 17  1  0
  8 18  1  0
  9 19  1  0
M  END
