
     RDKit          3D

 18 19  0  0  0  0  0  0  0  0999 V2000
    3.5760   -0.0990    0.5926 O   0  0  0  0  0  0  0  0  0  0  0  0
    2.5591    0.5625   -0.0854 C   0  0  0  0  0  0  0  0  0  0  0  0
    1.2127    0.3486    0.5597 C   0  0  0  0  0  0  0  0  0  0  0  0
    0.7104   -0.9408    0.6772 O   0  0  0  0  0  0  0  0  0  0  0  0
    0.0354    0.0758   -0.2107 C   0  0  0  0  0  0  0  0  0  0  0  0
   -1.3225    0.3634    0.3697 C   0  0  0  0  0  0  0  0  0  0  0  0
   -2.5664    0.1106   -0.3580 C   0  0  0  0  0  0  0  0  0  0  0  0
   -2.1473   -0.9089    0.6408 C   0  0  0  0  0  0  0  0  0  0  0  0
    3.2894   -0.9442    1.0061 H   0  0  0  0  0  0  0  0  0  0  0  0
    2.5666    0.2819   -1.1598 H   0  0  0  0  0  0  0  0  0  0  0  0
    2.7676    1.6515   -0.0523 H   0  0  0  0  0  0  0  0  0  0  0  0
    1.0803    0.9512    1.4911 H   0  0  0  0  0  0  0  0  0  0  0  0
    0.0177   -0.3625   -1.2096 H   0  0  0  0  0  0  0  0  0  0  0  0
   -1.3302    1.1190    1.1927 H   0  0  0  0  0  0  0  0  0  0  0  0
   -3.4468    0.7564   -0.0698 H   0  0  0  0  0  0  0  0  0  0  0  0
   -2.5954   -0.1276   -1.4436 H   0  0  0  0  0  0  0  0  0  0  0  0
   -1.7802   -1.8605    0.2168 H   0  0  0  0  0  0  0  0  0  0  0  0
   -2.6264   -0.9773    1.6279 H   0  0  0  0  0  0  0  0  0  0  0  0
  1  2  1  0
  2  3  1  0
  3  4  1  0
  4  5  1  0
  5  6  1  0
  6  7  1  0
  7  8  1  0
  5  3  1  0
  8  6  1  0
  1  9  1  0
  2 10  1  0
  2 11  1  0
  3 12  1  0
  5 13  1  0
  6 14  1  0
  7 15  1  0
  7 16  1  0
  8 17  1  0
  8 18  1  0
M  END
