
     RDKit          3D

 20 20  0  0  0  0  0  0  0  0999 V2000
   -1.5693    0.4598    1.1961 O   0  0  0  0  0  0  0  0  0  0  0  0
   -1.7944    0.1974   -0.1360 C   0  0  0  0  0  0  0  0  0  0  0  0
   -0.5363   -0.2564   -0.8574 C   0  0  0  0  0  0  0  0  0  0  0  0
   -0.0338   -1.4966   -0.2188 C   0  0  0  0  0  0  0  0  0  0  0  0
    1.0417   -1.2504    0.7502 C   0  0  0  0  0  0  0  0  0  0  0  0
    1.6504   -0.1067    0.9978 C   0  0  0  0  0  0  0  0  0  0  0  0
    1.2560    1.1112    0.2509 C   0  0  0  0  0  0  0  0  0  0  0  0
    0.4782    0.8399   -0.9772 C   0  0  0  0  0  0  0  0  0  0  0  0
   -2.2247    1.1688    1.4932 H   0  0  0  0  0  0  0  0  0  0  0  0
   -2.2356    1.0604   -0.6796 H   0  0  0  0  0  0  0  0  0  0  0  0
   -2.4983   -0.6778   -0.1859 H   0  0  0  0  0  0  0  0  0  0  0  0
   -0.8772   -0.5005   -1.9041 H   0  0  0  0  0  0  0  0  0  0  0  0
   -0.8814   -1.9919    0.3420 H   0  0  0  0  0  0  0  0  0  0  0  0
    0.2643   -2.2338   -1.0050 H   0  0  0  0  0  0  0  0  0  0  0  0
    1.4109   -2.1047    1.3644 H   0  0  0  0  0  0  0  0  0  0  0  0
    2.4590   -0.0448    1.7622 H   0  0  0  0  0  0  0  0  0  0  0  0
    0.7809    1.8733    0.9293 H   0  0  0  0  0  0  0  0  0  0  0  0
    2.2195    1.6127   -0.0657 H   0  0  0  0  0  0  0  0  0  0  0  0
    1.1676    0.5686   -1.8037 H   0  0  0  0  0  0  0  0  0  0  0  0
   -0.0775    1.7715   -1.2529 H   0  0  0  0  0  0  0  0  0  0  0  0
  1  2  1  0
  2  3  1  0
  3  4  1  0
  4  5  1  0
  5  6  2  0
  6  7  1  0
  7  8  1  0
  8  3  1  0
  1  9  1  0
  2 10  1  0
  2 11  1  0
  3 12  1  0
  4 13  1  0
  4 14  1  0
  5 15  1  0
  6 16  1  0
  7 17  1  0
  7 18  1  0
  8 19  1  0
  8 20  1  0
M  END
