
     RDKit          3D

 18 19  0  0  0  0  0  0  0  0999 V2000
    2.1767    1.1069   -0.0951 O   0  0  0  0  0  0  0  0  0  0  0  0
    1.9767   -0.2260   -0.4052 C   0  0  0  0  0  0  0  0  0  0  0  0
    0.5900   -0.7063   -0.1173 C   0  0  0  0  0  0  0  0  0  0  0  0
    0.0884   -0.6312    1.2741 C   0  0  0  0  0  0  0  0  0  0  0  0
   -1.2040   -0.0268    0.8583 C   0  0  0  0  0  0  0  0  0  0  0  0
   -1.8451   -0.2174   -0.4425 C   0  0  0  0  0  0  0  0  0  0  0  0
   -2.8557    0.6607   -0.8038 O   0  0  0  0  0  0  0  0  0  0  0  0
   -0.4837    0.3304   -0.4599 C   0  0  0  0  0  0  0  0  0  0  0  0
    1.9027    1.6833   -0.8778 H   0  0  0  0  0  0  0  0  0  0  0  0
    2.1684   -0.3861   -1.4876 H   0  0  0  0  0  0  0  0  0  0  0  0
    2.6927   -0.8959    0.1264 H   0  0  0  0  0  0  0  0  0  0  0  0
    0.4021   -1.6766   -0.5895 H   0  0  0  0  0  0  0  0  0  0  0  0
    0.6691    0.0498    1.9590 H   0  0  0  0  0  0  0  0  0  0  0  0
    0.0211   -1.6231    1.8119 H   0  0  0  0  0  0  0  0  0  0  0  0
   -1.5755    0.8053    1.4793 H   0  0  0  0  0  0  0  0  0  0  0  0
   -1.9641   -1.2247   -0.9163 H   0  0  0  0  0  0  0  0  0  0  0  0
   -2.5349    1.5999   -0.7855 H   0  0  0  0  0  0  0  0  0  0  0  0
   -0.2249    1.3776   -0.5285 H   0  0  0  0  0  0  0  0  0  0  0  0
  1  2  1  0
  2  3  1  0
  3  4  1  0
  4  5  1  0
  5  6  1  0
  6  7  1  0
  6  8  1  0
  8  3  1  0
  8  5  1  0
  1  9  1  0
  2 10  1  0
  2 11  1  0
  3 12  1  0
  4 13  1  0
  4 14  1  0
  5 15  1  0
  6 16  1  0
  7 17  1  0
  8 18  1  0
M  END
