
     RDKit          3D

 21 21  0  0  0  0  0  0  0  0999 V2000
    2.7045    0.2270   -0.7777 O   0  0  0  0  0  0  0  0  0  0  0  0
    2.0114    0.3073    0.4108 C   0  0  0  0  0  0  0  0  0  0  0  0
    0.5627   -0.0537    0.2809 C   0  0  0  0  0  0  0  0  0  0  0  0
    0.3826   -1.4623   -0.2165 C   0  0  0  0  0  0  0  0  0  0  0  0
   -0.8229   -1.6092   -0.9311 O   0  0  0  0  0  0  0  0  0  0  0  0
   -1.7895   -0.9304   -0.1771 C   0  0  0  0  0  0  0  0  0  0  0  0
   -1.6637    0.5400   -0.5705 C   0  0  0  0  0  0  0  0  0  0  0  0
   -2.4325    1.2546    0.3467 O   0  0  0  0  0  0  0  0  0  0  0  0
   -0.2197    0.9196   -0.5627 C   0  0  0  0  0  0  0  0  0  0  0  0
    3.6796    0.3319   -0.5417 H   0  0  0  0  0  0  0  0  0  0  0  0
    2.4679   -0.3554    1.1612 H   0  0  0  0  0  0  0  0  0  0  0  0
    2.0919    1.3474    0.7869 H   0  0  0  0  0  0  0  0  0  0  0  0
    0.1229    0.0061    1.3140 H   0  0  0  0  0  0  0  0  0  0  0  0
    0.3389   -2.2134    0.5996 H   0  0  0  0  0  0  0  0  0  0  0  0
    1.2350   -1.7778   -0.8699 H   0  0  0  0  0  0  0  0  0  0  0  0
   -1.6027   -1.0049    0.9088 H   0  0  0  0  0  0  0  0  0  0  0  0
   -2.7903   -1.2815   -0.4698 H   0  0  0  0  0  0  0  0  0  0  0  0
   -2.1429    0.6708   -1.5773 H   0  0  0  0  0  0  0  0  0  0  0  0
   -2.2336    2.2114    0.2798 H   0  0  0  0  0  0  0  0  0  0  0  0
   -0.1266    1.9162   -0.0727 H   0  0  0  0  0  0  0  0  0  0  0  0
    0.2268    0.9562   -1.5795 H   0  0  0  0  0  0  0  0  0  0  0  0
  1  2  1  0
  2  3  1  0
  3  4  1  0
  4  5  1  0
  5  6  1  0
  6  7  1  0
  7  8  1  0
  7  9  1  0
  9  3  1  0
  1 10  1  0
  2 11  1  0
  2 12  1  0
  3 13  1  0
  4 14  1  0
  4 15  1  0
  6 16  1  0
  6 17  1  0
  7 18  1  0
  8 19  1  0
  9 20  1  0
  9 21  1  0
M  END
