
     RDKit          3D

 19 20  0  0  0  0  0  0  0  0999 V2000
    2.9515    0.0613   -0.7256 O   0  0  0  0  0  0  0  0  0  0  0  0
    2.0207    0.9308   -0.1552 C   0  0  0  0  0  0  0  0  0  0  0  0
    0.7759    0.1421    0.0674 C   0  0  0  0  0  0  0  0  0  0  0  0
    0.1636   -0.0876    1.2220 C   0  0  0  0  0  0  0  0  0  0  0  0
   -1.0519   -0.9215    1.0176 C   0  0  0  0  0  0  0  0  0  0  0  0
   -1.3392   -0.6491   -0.4112 C   0  0  0  0  0  0  0  0  0  0  0  0
   -2.2097    0.5912   -0.6440 C   0  0  0  0  0  0  0  0  0  0  0  0
   -2.5067   -0.7542   -1.0274 O   0  0  0  0  0  0  0  0  0  0  0  0
    0.0045   -0.5354   -1.0425 C   0  0  0  0  0  0  0  0  0  0  0  0
    3.3295   -0.4662    0.0476 H   0  0  0  0  0  0  0  0  0  0  0  0
    1.7947    1.7763   -0.8411 H   0  0  0  0  0  0  0  0  0  0  0  0
    2.3777    1.3876    0.7861 H   0  0  0  0  0  0  0  0  0  0  0  0
    0.4973    0.2780    2.1802 H   0  0  0  0  0  0  0  0  0  0  0  0
   -1.8770   -0.6597    1.6828 H   0  0  0  0  0  0  0  0  0  0  0  0
   -0.7165   -1.9860    1.1653 H   0  0  0  0  0  0  0  0  0  0  0  0
   -2.7572    1.0032    0.2157 H   0  0  0  0  0  0  0  0  0  0  0  0
   -1.9298    1.2906   -1.4431 H   0  0  0  0  0  0  0  0  0  0  0  0
    0.0370    0.1329   -1.9231 H   0  0  0  0  0  0  0  0  0  0  0  0
    0.4355   -1.5342   -1.2398 H   0  0  0  0  0  0  0  0  0  0  0  0
  1  2  1  0
  2  3  1  0
  3  4  2  0
  4  5  1  0
  5  6  1  0
  6  7  1  0
  7  8  1  0
  6  9  1  0
  9  3  1  0
  8  6  1  0
  1 10  1  0
  2 11  1  0
  2 12  1  0
  4 13  1  0
  5 14  1  0
  5 15  1  0
  7 16  1  0
  7 17  1  0
  9 18  1  0
  9 19  1  0
M  END
