
     RDKit          3D

 21 21  0  0  0  0  0  0  0  0999 V2000
   -1.0594   -2.1892   -0.7088 O   0  0  0  0  0  0  0  0  0  0  0  0
   -1.4877   -0.9098   -0.3649 C   0  0  0  0  0  0  0  0  0  0  0  0
   -0.3516   -0.0531    0.0985 C   0  0  0  0  0  0  0  0  0  0  0  0
   -0.7807    1.3353    0.4775 C   0  0  0  0  0  0  0  0  0  0  0  0
   -1.3552    1.9579   -0.6143 O   0  0  0  0  0  0  0  0  0  0  0  0
    0.8076   -0.1371   -0.8645 C   0  0  0  0  0  0  0  0  0  0  0  0
    1.7336   -0.1800    0.3178 C   0  0  0  0  0  0  0  0  0  0  0  0
    2.2031    1.0770    0.6458 O   0  0  0  0  0  0  0  0  0  0  0  0
    0.5417   -0.6451    1.1565 C   0  0  0  0  0  0  0  0  0  0  0  0
   -1.8491   -2.7800   -0.7931 H   0  0  0  0  0  0  0  0  0  0  0  0
   -1.8686   -0.4490   -1.3212 H   0  0  0  0  0  0  0  0  0  0  0  0
   -2.3215   -0.9175    0.3659 H   0  0  0  0  0  0  0  0  0  0  0  0
    0.0435    1.9567    0.8536 H   0  0  0  0  0  0  0  0  0  0  0  0
   -1.5005    1.2250    1.3318 H   0  0  0  0  0  0  0  0  0  0  0  0
   -0.6450    2.4845   -1.0730 H   0  0  0  0  0  0  0  0  0  0  0  0
    0.9272    0.7121   -1.5561 H   0  0  0  0  0  0  0  0  0  0  0  0
    0.8150   -1.1238   -1.3787 H   0  0  0  0  0  0  0  0  0  0  0  0
    2.5211   -0.9691    0.2591 H   0  0  0  0  0  0  0  0  0  0  0  0
    2.6408    1.4621   -0.1581 H   0  0  0  0  0  0  0  0  0  0  0  0
    0.5584   -0.1166    2.1264 H   0  0  0  0  0  0  0  0  0  0  0  0
    0.4273   -1.7403    1.1998 H   0  0  0  0  0  0  0  0  0  0  0  0
  1  2  1  0
  2  3  1  0
  3  4  1  0
  4  5  1  0
  3  6  1  0
  6  7  1  0
  7  8  1  0
  7  9  1  0
  9  3  1  0
  1 10  1  0
  2 11  1  0
  2 12  1  0
  4 13  1  0
  4 14  1  0
  5 15  1  0
  6 16  1  0
  6 17  1  0
  7 18  1  0
  8 19  1  0
  9 20  1  0
  9 21  1  0
M  END
