
     RDKit          3D

 19 21  0  0  0  0  0  0  0  0999 V2000
    1.5056    1.4284   -0.6810 O   0  0  0  0  0  0  0  0  0  0  0  0
    1.5301    0.0929   -1.0229 C   0  0  0  0  0  0  0  0  0  0  0  0
    0.5717   -0.7431   -0.2435 C   0  0  0  0  0  0  0  0  0  0  0  0
    0.8624   -0.6811    1.2406 C   0  0  0  0  0  0  0  0  0  0  0  0
    0.2886   -1.3213    2.2350 O   0  0  0  0  0  0  0  0  0  0  0  0
   -0.6310   -1.1404    1.2916 C   0  0  0  0  0  0  0  0  0  0  0  0
   -0.7115   -0.1334    0.2069 C   0  0  0  0  0  0  0  0  0  0  0  0
   -1.1655    1.1866    0.1972 C   0  0  0  0  0  0  0  0  0  0  0  0
   -1.9024    0.0443   -0.5819 C   0  0  0  0  0  0  0  0  0  0  0  0
    2.2817    1.7208   -0.1506 H   0  0  0  0  0  0  0  0  0  0  0  0
    1.4466   -0.0542   -2.1197 H   0  0  0  0  0  0  0  0  0  0  0  0
    2.5668   -0.2765   -0.7658 H   0  0  0  0  0  0  0  0  0  0  0  0
    0.4243   -1.7376   -0.6642 H   0  0  0  0  0  0  0  0  0  0  0  0
    1.0023    0.4190    1.4991 H   0  0  0  0  0  0  0  0  0  0  0  0
   -0.8367   -2.1501    0.8029 H   0  0  0  0  0  0  0  0  0  0  0  0
   -0.7577    1.9536   -0.4705 H   0  0  0  0  0  0  0  0  0  0  0  0
   -1.7717    1.6179    1.0232 H   0  0  0  0  0  0  0  0  0  0  0  0
   -1.8290    0.0618   -1.6709 H   0  0  0  0  0  0  0  0  0  0  0  0
   -2.8746   -0.2876   -0.1254 H   0  0  0  0  0  0  0  0  0  0  0  0
  1  2  1  0
  2  3  1  0
  3  4  1  0
  4  5  1  0
  5  6  1  0
  6  7  1  0
  7  8  1  0
  8  9  1  0
  7  3  1  0
  6  4  1  0
  9  7  1  0
  1 10  1  0
  2 11  1  0
  2 12  1  0
  3 13  1  0
  4 14  1  0
  6 15  1  0
  8 16  1  0
  8 17  1  0
  9 18  1  0
  9 19  1  0
M  END
