
     RDKit          3D

 19 21  0  0  0  0  0  0  0  0999 V2000
    2.5995   -0.4641   -0.6708 O   0  0  0  0  0  0  0  0  0  0  0  0
    1.8971   -0.2716    0.5415 C   0  0  0  0  0  0  0  0  0  0  0  0
    0.5222    0.1446    0.2054 C   0  0  0  0  0  0  0  0  0  0  0  0
    0.2618    1.4146   -0.5928 C   0  0  0  0  0  0  0  0  0  0  0  0
   -0.9164    1.2520   -1.2634 O   0  0  0  0  0  0  0  0  0  0  0  0
   -1.5186    0.0717   -0.8946 C   0  0  0  0  0  0  0  0  0  0  0  0
   -2.0290    0.0930    0.5539 C   0  0  0  0  0  0  0  0  0  0  0  0
   -0.6613   -0.2880    1.0257 C   0  0  0  0  0  0  0  0  0  0  0  0
   -0.4038   -0.7926   -0.4112 C   0  0  0  0  0  0  0  0  0  0  0  0
    2.8332   -1.4166   -0.8066 H   0  0  0  0  0  0  0  0  0  0  0  0
    2.4846    0.4669    1.1182 H   0  0  0  0  0  0  0  0  0  0  0  0
    1.8526   -1.2600    1.0408 H   0  0  0  0  0  0  0  0  0  0  0  0
    1.1046    1.6395   -1.2756 H   0  0  0  0  0  0  0  0  0  0  0  0
    0.1790    2.2705    0.1142 H   0  0  0  0  0  0  0  0  0  0  0  0
   -2.2171   -0.3410   -1.6228 H   0  0  0  0  0  0  0  0  0  0  0  0
   -2.4138    1.0755    0.8781 H   0  0  0  0  0  0  0  0  0  0  0  0
   -2.7268   -0.7682    0.6932 H   0  0  0  0  0  0  0  0  0  0  0  0
   -0.4937   -0.9751    1.8505 H   0  0  0  0  0  0  0  0  0  0  0  0
   -0.3541   -1.8511   -0.4836 H   0  0  0  0  0  0  0  0  0  0  0  0
  1  2  1  0
  2  3  1  0
  3  4  1  0
  4  5  1  0
  5  6  1  0
  6  7  1  0
  7  8  1  0
  8  9  1  0
  8  3  1  0
  9  3  1  0
  9  6  1  0
  1 10  1  0
  2 11  1  0
  2 12  1  0
  4 13  1  0
  4 14  1  0
  6 15  1  0
  7 16  1  0
  7 17  1  0
  8 18  1  0
  9 19  1  0
M  END
