
     RDKit          3D

 23 24  0  0  0  0  0  0  0  0999 V2000
    3.2691    0.2893    0.2583 O   0  0  0  0  0  0  0  0  0  0  0  0
    2.2460   -0.5775   -0.0980 C   0  0  0  0  0  0  0  0  0  0  0  0
    0.9038   -0.1238    0.4629 C   0  0  0  0  0  0  0  0  0  0  0  0
    0.5714    1.2203   -0.0565 C   0  0  0  0  0  0  0  0  0  0  0  0
   -0.8629    1.4674   -0.3597 C   0  0  0  0  0  0  0  0  0  0  0  0
   -1.8373    0.6028    0.3333 C   0  0  0  0  0  0  0  0  0  0  0  0
   -2.4971   -0.5634   -0.3886 C   0  0  0  0  0  0  0  0  0  0  0  0
   -1.4320   -0.7522    0.6683 C   0  0  0  0  0  0  0  0  0  0  0  0
   -0.0994   -1.1829    0.1049 C   0  0  0  0  0  0  0  0  0  0  0  0
    4.0049   -0.2273    0.7130 H   0  0  0  0  0  0  0  0  0  0  0  0
    2.4517   -1.6331    0.1808 H   0  0  0  0  0  0  0  0  0  0  0  0
    2.2168   -0.5742   -1.2254 H   0  0  0  0  0  0  0  0  0  0  0  0
    1.0287   -0.1515    1.5797 H   0  0  0  0  0  0  0  0  0  0  0  0
    1.1485    1.3915   -1.0096 H   0  0  0  0  0  0  0  0  0  0  0  0
    0.9939    1.9885    0.6516 H   0  0  0  0  0  0  0  0  0  0  0  0
   -1.0770    1.4175   -1.4673 H   0  0  0  0  0  0  0  0  0  0  0  0
   -1.0699    2.5483   -0.1013 H   0  0  0  0  0  0  0  0  0  0  0  0
   -2.5585    1.1023    1.0460 H   0  0  0  0  0  0  0  0  0  0  0  0
   -3.4865   -0.9054   -0.0909 H   0  0  0  0  0  0  0  0  0  0  0  0
   -2.2516   -0.7491   -1.4489 H   0  0  0  0  0  0  0  0  0  0  0  0
   -1.7192   -1.1560    1.6626 H   0  0  0  0  0  0  0  0  0  0  0  0
   -0.1079   -1.2937   -0.9940 H   0  0  0  0  0  0  0  0  0  0  0  0
    0.1646   -2.1378    0.5515 H   0  0  0  0  0  0  0  0  0  0  0  0
  1  2  1  0
  2  3  1  0
  3  4  1  0
  4  5  1  0
  5  6  1  0
  6  7  1  0
  7  8  1  0
  8  9  1  0
  9  3  1  0
  8  6  1  0
  1 10  1  0
  2 11  1  0
  2 12  1  0
  3 13  1  0
  4 14  1  0
  4 15  1  0
  5 16  1  0
  5 17  1  0
  6 18  1  0
  7 19  1  0
  7 20  1  0
  8 21  1  0
  9 22  1  0
  9 23  1  0
M  END
