
     RDKit          3D

 18 19  0  0  0  0  0  0  0  0999 V2000
   -2.3154   -0.8516   -0.3798 O   0  0  0  0  0  0  0  0  0  0  0  0
   -1.7967    0.2099    0.3782 C   0  0  0  0  0  0  0  0  0  0  0  0
   -0.3527    0.2546    0.2572 C   0  0  0  0  0  0  0  0  0  0  0  0
    0.2555    0.0702   -1.1410 C   0  0  0  0  0  0  0  0  0  0  0  0
    1.4640   -0.3615   -0.2916 C   0  0  0  0  0  0  0  0  0  0  0  0
    1.7151    0.9045    0.4504 C   0  0  0  0  0  0  0  0  0  0  0  0
    0.3972    1.1947    0.8959 O   0  0  0  0  0  0  0  0  0  0  0  0
    0.4190   -1.0345    0.5870 C   0  0  0  0  0  0  0  0  0  0  0  0
   -2.8134   -0.4568   -1.1296 H   0  0  0  0  0  0  0  0  0  0  0  0
   -2.2839    1.1636    0.1757 H   0  0  0  0  0  0  0  0  0  0  0  0
   -2.0642   -0.0522    1.4444 H   0  0  0  0  0  0  0  0  0  0  0  0
   -0.2285   -0.7422   -1.6770 H   0  0  0  0  0  0  0  0  0  0  0  0
    0.3842    1.0337   -1.6417 H   0  0  0  0  0  0  0  0  0  0  0  0
    2.2193   -0.9284   -0.7423 H   0  0  0  0  0  0  0  0  0  0  0  0
    2.4245    0.8461    1.2697 H   0  0  0  0  0  0  0  0  0  0  0  0
    1.9405    1.7243   -0.2858 H   0  0  0  0  0  0  0  0  0  0  0  0
    0.6863   -1.0491    1.6597 H   0  0  0  0  0  0  0  0  0  0  0  0
   -0.0509   -1.9253    0.1705 H   0  0  0  0  0  0  0  0  0  0  0  0
  1  2  1  0
  2  3  1  0
  3  4  1  0
  4  5  1  0
  5  6  1  0
  6  7  1  0
  5  8  1  0
  7  3  1  0
  8  3  1  0
  1  9  1  0
  2 10  1  0
  2 11  1  0
  4 12  1  0
  4 13  1  0
  5 14  1  0
  6 15  1  0
  6 16  1  0
  8 17  1  0
  8 18  1  0
M  END
