
     RDKit          3D

 19 20  0  0  0  0  0  0  0  0999 V2000
    1.6638   -0.9990   -0.9560 O   0  0  0  0  0  0  0  0  0  0  0  0
    1.7784   -0.0503    0.0279 C   0  0  0  0  0  0  0  0  0  0  0  0
    0.4555    0.5422    0.4395 C   0  0  0  0  0  0  0  0  0  0  0  0
   -0.5453   -0.4762    0.9907 C   0  0  0  0  0  0  0  0  0  0  0  0
   -0.5506   -1.4855   -0.0720 C   0  0  0  0  0  0  0  0  0  0  0  0
   -0.5802   -0.7367   -1.2038 C   0  0  0  0  0  0  0  0  0  0  0  0
   -0.5718    0.6402   -0.6699 C   0  0  0  0  0  0  0  0  0  0  0  0
   -1.5967    0.5137    0.4669 C   0  0  0  0  0  0  0  0  0  0  0  0
   -1.6543    1.6034    1.3043 O   0  0  0  0  0  0  0  0  0  0  0  0
    2.5133   -0.9807   -1.4978 H   0  0  0  0  0  0  0  0  0  0  0  0
    2.3889    0.7853   -0.3713 H   0  0  0  0  0  0  0  0  0  0  0  0
    2.3229   -0.4238    0.9283 H   0  0  0  0  0  0  0  0  0  0  0  0
    0.5543    1.4640    1.0460 H   0  0  0  0  0  0  0  0  0  0  0  0
   -0.5331   -0.7107    2.0094 H   0  0  0  0  0  0  0  0  0  0  0  0
   -0.5347   -2.5639    0.0241 H   0  0  0  0  0  0  0  0  0  0  0  0
   -0.6032   -1.1187   -2.2168 H   0  0  0  0  0  0  0  0  0  0  0  0
   -0.6083    1.4813   -1.2921 H   0  0  0  0  0  0  0  0  0  0  0  0
   -2.5337    0.0625    0.1465 H   0  0  0  0  0  0  0  0  0  0  0  0
   -1.3653    2.4531    0.8965 H   0  0  0  0  0  0  0  0  0  0  0  0
  1  2  1  0
  2  3  1  0
  3  4  1  0
  4  5  1  0
  5  6  2  0
  6  7  1  0
  7  8  1  0
  8  9  1  0
  7  3  1  0
  8  4  1  0
  1 10  1  0
  2 11  1  0
  2 12  1  0
  3 13  1  0
  4 14  1  0
  5 15  1  0
  6 16  1  0
  7 17  1  0
  8 18  1  0
  9 19  1  0
M  END
