
     RDKit          3D

 18 18  0  0  0  0  0  0  0  0999 V2000
   -0.8897    1.7176    1.2557 O   0  0  0  0  0  0  0  0  0  0  0  0
   -1.1171    1.1680    0.0056 C   0  0  0  0  0  0  0  0  0  0  0  0
   -0.1465    0.0190   -0.2556 C   0  0  0  0  0  0  0  0  0  0  0  0
    1.2923    0.4338   -0.2170 C   0  0  0  0  0  0  0  0  0  0  0  0
    1.6176    1.3958   -1.1483 O   0  0  0  0  0  0  0  0  0  0  0  0
   -0.6264   -1.1913   -0.9044 C   0  0  0  0  0  0  0  0  0  0  0  0
   -0.4334   -1.2335    0.5895 C   0  0  0  0  0  0  0  0  0  0  0  0
    0.6519   -1.9965    1.0023 O   0  0  0  0  0  0  0  0  0  0  0  0
   -1.3415    1.2220    1.9875 H   0  0  0  0  0  0  0  0  0  0  0  0
   -1.0484    1.9375   -0.7721 H   0  0  0  0  0  0  0  0  0  0  0  0
   -2.1445    0.7414    0.0049 H   0  0  0  0  0  0  0  0  0  0  0  0
    1.9960   -0.4053   -0.3382 H   0  0  0  0  0  0  0  0  0  0  0  0
    1.4828    0.8365    0.8213 H   0  0  0  0  0  0  0  0  0  0  0  0
    2.4285    1.8706   -0.8104 H   0  0  0  0  0  0  0  0  0  0  0  0
   -1.6965   -1.2229   -1.2055 H   0  0  0  0  0  0  0  0  0  0  0  0
    0.0210   -1.8253   -1.5423 H   0  0  0  0  0  0  0  0  0  0  0  0
   -1.2792   -1.2069    1.2749 H   0  0  0  0  0  0  0  0  0  0  0  0
    1.2331   -2.2604    0.2521 H   0  0  0  0  0  0  0  0  0  0  0  0
  1  2  1  0
  2  3  1  0
  3  4  1  0
  4  5  1  0
  3  6  1  0
  6  7  1  0
  7  8  1  0
  7  3  1  0
  1  9  1  0
  2 10  1  0
  2 11  1  0
  4 12  1  0
  4 13  1  0
  5 14  1  0
  6 15  1  0
  6 16  1  0
  7 17  1  0
  8 18  1  0
M  END
