
     RDKit          3D

 19 19  0  0  0  0  0  0  0  0999 V2000
    1.9021    1.3165   -0.6644 O   0  0  0  0  0  0  0  0  0  0  0  0
    1.3558    0.0528   -0.5740 C   0  0  0  0  0  0  0  0  0  0  0  0
    0.3686   -0.0883    0.5467 C   0  0  0  0  0  0  0  0  0  0  0  0
    0.9606    0.1736    1.7584 O   0  0  0  0  0  0  0  0  0  0  0  0
   -0.2034   -1.4998    0.4735 C   0  0  0  0  0  0  0  0  0  0  0  0
   -1.2550   -1.4806   -0.3911 O   0  0  0  0  0  0  0  0  0  0  0  0
   -1.5853   -0.1891   -0.7112 C   0  0  0  0  0  0  0  0  0  0  0  0
   -0.8920    0.7172    0.3097 C   0  0  0  0  0  0  0  0  0  0  0  0
   -0.6640    1.9712   -0.1770 O   0  0  0  0  0  0  0  0  0  0  0  0
    2.8544    1.2502   -0.3599 H   0  0  0  0  0  0  0  0  0  0  0  0
    2.1205   -0.7512   -0.4591 H   0  0  0  0  0  0  0  0  0  0  0  0
    0.8200   -0.1304   -1.5471 H   0  0  0  0  0  0  0  0  0  0  0  0
    0.4799   -0.1816    2.5402 H   0  0  0  0  0  0  0  0  0  0  0  0
   -0.4981   -1.8159    1.5155 H   0  0  0  0  0  0  0  0  0  0  0  0
    0.5754   -2.2115    0.1193 H   0  0  0  0  0  0  0  0  0  0  0  0
   -2.6868   -0.0007   -0.7283 H   0  0  0  0  0  0  0  0  0  0  0  0
   -1.2410    0.0889   -1.7494 H   0  0  0  0  0  0  0  0  0  0  0  0
   -1.5056    0.6663    1.2223 H   0  0  0  0  0  0  0  0  0  0  0  0
   -0.9061    2.1123   -1.1241 H   0  0  0  0  0  0  0  0  0  0  0  0
  1  2  1  0
  2  3  1  0
  3  4  1  0
  3  5  1  0
  5  6  1  0
  6  7  1  0
  7  8  1  0
  8  9  1  0
  8  3  1  0
  1 10  1  0
  2 11  1  0
  2 12  1  0
  4 13  1  0
  5 14  1  0
  5 15  1  0
  7 16  1  0
  7 17  1  0
  8 18  1  0
  9 19  1  0
M  END
