
     RDKit          3D

 17 19  0  0  0  0  0  0  0  0999 V2000
    2.6761   -0.1957   -0.8196 O   0  0  0  0  0  0  0  0  0  0  0  0
    1.7770    0.1185    0.2224 C   0  0  0  0  0  0  0  0  0  0  0  0
    0.4138   -0.4288   -0.0405 C   0  0  0  0  0  0  0  0  0  0  0  0
    0.3715   -1.8277   -0.1742 O   0  0  0  0  0  0  0  0  0  0  0  0
   -0.4347   -1.1703    0.7222 C   0  0  0  0  0  0  0  0  0  0  0  0
   -1.6806   -0.5635    0.0661 C   0  0  0  0  0  0  0  0  0  0  0  0
   -1.8163    0.8947    0.1824 C   0  0  0  0  0  0  0  0  0  0  0  0
   -0.6716    0.4064   -0.6284 C   0  0  0  0  0  0  0  0  0  0  0  0
   -0.7359    0.4373   -2.0038 O   0  0  0  0  0  0  0  0  0  0  0  0
    3.6062   -0.1583   -0.5256 H   0  0  0  0  0  0  0  0  0  0  0  0
    2.2439   -0.2618    1.1451 H   0  0  0  0  0  0  0  0  0  0  0  0
    1.7285    1.2303    0.2437 H   0  0  0  0  0  0  0  0  0  0  0  0
   -0.4410   -1.3877    1.7866 H   0  0  0  0  0  0  0  0  0  0  0  0
   -2.2914   -1.1905   -0.5878 H   0  0  0  0  0  0  0  0  0  0  0  0
   -2.6098    1.4107   -0.3983 H   0  0  0  0  0  0  0  0  0  0  0  0
   -1.6726    1.3284    1.1848 H   0  0  0  0  0  0  0  0  0  0  0  0
   -0.4630    1.3579   -2.2864 H   0  0  0  0  0  0  0  0  0  0  0  0
  1  2  1  0
  2  3  1  0
  3  4  1  0
  4  5  1  0
  5  6  1  0
  6  7  1  0
  7  8  1  0
  8  9  1  0
  5  3  1  0
  8  6  1  0
  8  3  1  0
  1 10  1  0
  2 11  1  0
  2 12  1  0
  5 13  1  0
  6 14  1  0
  7 15  1  0
  7 16  1  0
  9 17  1  0
M  END
