
     RDKit          3D

 16 18  0  0  0  0  0  0  0  0999 V2000
    1.9540   -1.0735   -0.7168 O   0  0  0  0  0  0  0  0  0  0  0  0
    1.3605   -0.4614    0.3872 C   0  0  0  0  0  0  0  0  0  0  0  0
    0.2376    0.3197    0.0101 C   0  0  0  0  0  0  0  0  0  0  0  0
   -0.3055    0.9297    1.2584 C   0  0  0  0  0  0  0  0  0  0  0  0
   -1.0526    0.8693    0.1241 C   0  0  0  0  0  0  0  0  0  0  0  0
   -1.8303   -0.3054   -0.3977 C   0  0  0  0  0  0  0  0  0  0  0  0
   -1.2522   -1.5373   -0.5561 O   0  0  0  0  0  0  0  0  0  0  0  0
   -0.5091   -0.5038   -1.0285 C   0  0  0  0  0  0  0  0  0  0  0  0
    2.5755   -0.4685   -1.1970 H   0  0  0  0  0  0  0  0  0  0  0  0
    1.1766   -1.3206    1.1056 H   0  0  0  0  0  0  0  0  0  0  0  0
    2.2255    0.0715    0.8931 H   0  0  0  0  0  0  0  0  0  0  0  0
   -0.5114    0.2836    2.1624 H   0  0  0  0  0  0  0  0  0  0  0  0
    0.2470    1.8465    1.5632 H   0  0  0  0  0  0  0  0  0  0  0  0
   -1.2595    1.7985   -0.4895 H   0  0  0  0  0  0  0  0  0  0  0  0
   -2.7289   -0.1345   -1.0250 H   0  0  0  0  0  0  0  0  0  0  0  0
   -0.3271   -0.3136   -2.0936 H   0  0  0  0  0  0  0  0  0  0  0  0
  1  2  1  0
  2  3  1  0
  3  4  1  0
  4  5  1  0
  5  6  1  0
  6  7  1  0
  7  8  1  0
  5  3  1  0
  8  6  1  0
  8  3  1  0
  1  9  1  0
  2 10  1  0
  2 11  1  0
  4 12  1  0
  4 13  1  0
  5 14  1  0
  6 15  1  0
  8 16  1  0
M  END
