
     RDKit          3D

 18 19  0  0  0  0  0  0  0  0999 V2000
   -3.0042    0.1506   -0.8501 O   0  0  0  0  0  0  0  0  0  0  0  0
   -2.0765   -0.0691    0.1325 C   0  0  0  0  0  0  0  0  0  0  0  0
   -0.7722   -0.5822   -0.4974 C   0  0  0  0  0  0  0  0  0  0  0  0
    0.3463   -0.8875    0.2852 C   0  0  0  0  0  0  0  0  0  0  0  0
    1.7706   -1.0584    0.1429 C   0  0  0  0  0  0  0  0  0  0  0  0
    2.3214    0.1460    0.0958 C   0  0  0  0  0  0  0  0  0  0  0  0
    1.1749    1.1363    0.2092 C   0  0  0  0  0  0  0  0  0  0  0  0
    0.2479    0.3482   -0.6771 C   0  0  0  0  0  0  0  0  0  0  0  0
   -3.6194    0.8886   -0.6143 H   0  0  0  0  0  0  0  0  0  0  0  0
   -1.8734    0.8642    0.6682 H   0  0  0  0  0  0  0  0  0  0  0  0
   -2.3811   -0.8310    0.8792 H   0  0  0  0  0  0  0  0  0  0  0  0
   -1.0444   -1.3095   -1.3083 H   0  0  0  0  0  0  0  0  0  0  0  0
    0.1518   -0.6663    1.3917 H   0  0  0  0  0  0  0  0  0  0  0  0
    2.3410   -2.0094    0.0803 H   0  0  0  0  0  0  0  0  0  0  0  0
    3.3473    0.4005   -0.0007 H   0  0  0  0  0  0  0  0  0  0  0  0
    1.4430    2.1149   -0.1781 H   0  0  0  0  0  0  0  0  0  0  0  0
    0.8364    1.1181    1.2596 H   0  0  0  0  0  0  0  0  0  0  0  0
    0.7908    0.2463   -1.6711 H   0  0  0  0  0  0  0  0  0  0  0  0
  1  2  1  0
  2  3  1  0
  3  4  1  0
  4  5  1  0
  5  6  2  0
  6  7  1  0
  7  8  1  0
  8  3  1  0
  8  4  1  0
  1  9  1  0
  2 10  1  0
  2 11  1  0
  3 12  1  0
  4 13  1  0
  5 14  1  0
  6 15  1  0
  7 16  1  0
  7 17  1  0
  8 18  1  0
M  END
