
     RDKit          3D

 23 24  0  0  0  0  0  0  0  0999 V2000
    2.6840    0.3723    0.8133 O   0  0  0  0  0  0  0  0  0  0  0  0
    2.2189   -0.3154   -0.3064 C   0  0  0  0  0  0  0  0  0  0  0  0
    0.6959   -0.2944   -0.3584 C   0  0  0  0  0  0  0  0  0  0  0  0
    0.2551   -0.9821    0.9414 C   0  0  0  0  0  0  0  0  0  0  0  0
   -1.2147   -1.3181    0.8955 C   0  0  0  0  0  0  0  0  0  0  0  0
   -1.8700   -0.3953   -0.0869 C   0  0  0  0  0  0  0  0  0  0  0  0
   -1.3266    1.0030    0.0229 C   0  0  0  0  0  0  0  0  0  0  0  0
   -0.8528    1.6078   -1.2462 C   0  0  0  0  0  0  0  0  0  0  0  0
    0.1410    1.0923   -0.3171 C   0  0  0  0  0  0  0  0  0  0  0  0
    2.9743    1.2639    0.4882 H   0  0  0  0  0  0  0  0  0  0  0  0
    2.4989   -1.3962   -0.1330 H   0  0  0  0  0  0  0  0  0  0  0  0
    2.6853   -0.0087   -1.2410 H   0  0  0  0  0  0  0  0  0  0  0  0
    0.3669   -0.8644   -1.2316 H   0  0  0  0  0  0  0  0  0  0  0  0
    0.4363   -0.2662    1.7664 H   0  0  0  0  0  0  0  0  0  0  0  0
    0.8352   -1.9192    1.0670 H   0  0  0  0  0  0  0  0  0  0  0  0
   -1.3189   -2.3757    0.5260 H   0  0  0  0  0  0  0  0  0  0  0  0
   -1.7100   -1.2300    1.8839 H   0  0  0  0  0  0  0  0  0  0  0  0
   -2.9653   -0.3350    0.0130 H   0  0  0  0  0  0  0  0  0  0  0  0
   -1.6813   -0.8197   -1.1111 H   0  0  0  0  0  0  0  0  0  0  0  0
   -1.6236    1.5804    0.8940 H   0  0  0  0  0  0  0  0  0  0  0  0
   -1.0514    1.0794   -2.2006 H   0  0  0  0  0  0  0  0  0  0  0  0
   -0.9621    2.7049   -1.3160 H   0  0  0  0  0  0  0  0  0  0  0  0
    0.7849    1.8166    0.2365 H   0  0  0  0  0  0  0  0  0  0  0  0
  1  2  1  0
  2  3  1  0
  3  4  1  0
  4  5  1  0
  5  6  1  0
  6  7  1  0
  7  8  1  0
  8  9  1  0
  9  3  1  0
  9  7  1  0
  1 10  1  0
  2 11  1  0
  2 12  1  0
  3 13  1  0
  4 14  1  0
  4 15  1  0
  5 16  1  0
  5 17  1  0
  6 18  1  0
  6 19  1  0
  7 20  1  0
  8 21  1  0
  8 22  1  0
  9 23  1  0
M  END
