
     RDKit          3D

 21 22  0  0  0  0  0  0  0  0999 V2000
    2.6976   -0.7025   -0.0130 O   0  0  0  0  0  0  0  0  0  0  0  0
    1.9043    0.3896    0.2293 C   0  0  0  0  0  0  0  0  0  0  0  0
    0.4639    0.1969   -0.1141 C   0  0  0  0  0  0  0  0  0  0  0  0
   -0.3855    1.3924    0.1549 C   0  0  0  0  0  0  0  0  0  0  0  0
   -1.8185    0.9822    0.1439 C   0  0  0  0  0  0  0  0  0  0  0  0
   -2.1390   -0.1314   -0.5425 C   0  0  0  0  0  0  0  0  0  0  0  0
   -1.0278   -1.0750   -0.8110 C   0  0  0  0  0  0  0  0  0  0  0  0
   -0.1633   -1.0828    0.4588 C   0  0  0  0  0  0  0  0  0  0  0  0
    0.1533   -0.3494   -1.4723 C   0  0  0  0  0  0  0  0  0  0  0  0
    2.7926   -1.2043    0.8417 H   0  0  0  0  0  0  0  0  0  0  0  0
    2.2831    1.2353   -0.3714 H   0  0  0  0  0  0  0  0  0  0  0  0
    1.9742    0.7063    1.2907 H   0  0  0  0  0  0  0  0  0  0  0  0
   -0.0858    1.9046    1.0750 H   0  0  0  0  0  0  0  0  0  0  0  0
   -0.2385    2.1106   -0.7028 H   0  0  0  0  0  0  0  0  0  0  0  0
   -2.5255    1.5783    0.6730 H   0  0  0  0  0  0  0  0  0  0  0  0
   -3.1575   -0.3180   -0.8761 H   0  0  0  0  0  0  0  0  0  0  0  0
   -1.2709   -2.0451   -1.2188 H   0  0  0  0  0  0  0  0  0  0  0  0
    0.5732   -1.8967    0.4314 H   0  0  0  0  0  0  0  0  0  0  0  0
   -0.7192   -0.9261    1.3820 H   0  0  0  0  0  0  0  0  0  0  0  0
   -0.1722    0.3745   -2.2337 H   0  0  0  0  0  0  0  0  0  0  0  0
    0.8613   -1.1396   -1.8400 H   0  0  0  0  0  0  0  0  0  0  0  0
  1  2  1  0
  2  3  1  0
  3  4  1  0
  4  5  1  0
  5  6  2  0
  6  7  1  0
  7  8  1  0
  7  9  1  0
  8  3  1  0
  9  3  1  0
  1 10  1  0
  2 11  1  0
  2 12  1  0
  4 13  1  0
  4 14  1  0
  5 15  1  0
  6 16  1  0
  7 17  1  0
  8 18  1  0
  8 19  1  0
  9 20  1  0
  9 21  1  0
M  END
