
     RDKit          3D

 20 20  0  0  0  0  0  0  0  0999 V2000
    2.9507   -0.6173    0.0926 O   0  0  0  0  0  0  0  0  0  0  0  0
    2.1252    0.4956   -0.0607 C   0  0  0  0  0  0  0  0  0  0  0  0
    0.7341    0.1328    0.3799 C   0  0  0  0  0  0  0  0  0  0  0  0
   -0.2368    1.2856    0.2484 C   0  0  0  0  0  0  0  0  0  0  0  0
   -1.5677    0.5525    0.4679 C   0  0  0  0  0  0  0  0  0  0  0  0
   -1.3360   -0.8521   -0.0343 C   0  0  0  0  0  0  0  0  0  0  0  0
   -2.2586   -1.2319   -0.9980 O   0  0  0  0  0  0  0  0  0  0  0  0
    0.0749   -0.8491   -0.5871 C   0  0  0  0  0  0  0  0  0  0  0  0
    2.4856   -1.4276   -0.2032 H   0  0  0  0  0  0  0  0  0  0  0  0
    2.4807    1.2997    0.6112 H   0  0  0  0  0  0  0  0  0  0  0  0
    2.1717    0.8649   -1.0816 H   0  0  0  0  0  0  0  0  0  0  0  0
    0.7082   -0.3061    1.3760 H   0  0  0  0  0  0  0  0  0  0  0  0
   -0.0764    2.0831    0.9693 H   0  0  0  0  0  0  0  0  0  0  0  0
   -0.2533    1.6263   -0.8152 H   0  0  0  0  0  0  0  0  0  0  0  0
   -2.3318    1.1003   -0.0805 H   0  0  0  0  0  0  0  0  0  0  0  0
   -1.7173    0.5411    1.5712 H   0  0  0  0  0  0  0  0  0  0  0  0
   -1.3662   -1.5735    0.8243 H   0  0  0  0  0  0  0  0  0  0  0  0
   -3.1611   -0.8768   -0.7266 H   0  0  0  0  0  0  0  0  0  0  0  0
    0.0557   -0.4021   -1.5976 H   0  0  0  0  0  0  0  0  0  0  0  0
    0.5185   -1.8456   -0.5463 H   0  0  0  0  0  0  0  0  0  0  0  0
  1  2  1  0
  2  3  1  0
  3  4  1  0
  4  5  1  0
  5  6  1  0
  6  7  1  0
  6  8  1  0
  8  3  1  0
  1  9  1  0
  2 10  1  0
  2 11  1  0
  3 12  1  0
  4 13  1  0
  4 14  1  0
  5 15  1  0
  5 16  1  0
  6 17  1  0
  7 18  1  0
  8 19  1  0
  8 20  1  0
M  END
