
     RDKit          3D

 23 24  0  0  0  0  0  0  0  0999 V2000
    3.5976   -0.5114    0.8734 O   0  0  0  0  0  0  0  0  0  0  0  0
    2.4405   -0.9018    0.2454 C   0  0  0  0  0  0  0  0  0  0  0  0
    1.5533    0.3129   -0.0299 C   0  0  0  0  0  0  0  0  0  0  0  0
    0.2590   -0.0537   -0.7228 C   0  0  0  0  0  0  0  0  0  0  0  0
   -0.4546    0.8826    0.2017 C   0  0  0  0  0  0  0  0  0  0  0  0
   -1.7496    0.4221    0.7695 C   0  0  0  0  0  0  0  0  0  0  0  0
   -2.8139    0.1122   -0.3043 C   0  0  0  0  0  0  0  0  0  0  0  0
   -2.2712   -0.9376    0.6278 C   0  0  0  0  0  0  0  0  0  0  0  0
    0.7277    0.7371    1.1657 C   0  0  0  0  0  0  0  0  0  0  0  0
    3.8484    0.4400    0.7150 H   0  0  0  0  0  0  0  0  0  0  0  0
    2.6884   -1.3381   -0.7516 H   0  0  0  0  0  0  0  0  0  0  0  0
    1.8996   -1.6387    0.8729 H   0  0  0  0  0  0  0  0  0  0  0  0
    2.1122    1.1491   -0.4595 H   0  0  0  0  0  0  0  0  0  0  0  0
    0.3198    0.3055   -1.7902 H   0  0  0  0  0  0  0  0  0  0  0  0
   -0.0089   -1.1122   -0.6809 H   0  0  0  0  0  0  0  0  0  0  0  0
   -0.4686    1.9139   -0.2432 H   0  0  0  0  0  0  0  0  0  0  0  0
   -2.1203    1.0422    1.6228 H   0  0  0  0  0  0  0  0  0  0  0  0
   -2.4952    0.0743   -1.3518 H   0  0  0  0  0  0  0  0  0  0  0  0
   -3.8195    0.5331   -0.1405 H   0  0  0  0  0  0  0  0  0  0  0  0
   -1.6997   -1.7874    0.2392 H   0  0  0  0  0  0  0  0  0  0  0  0
   -3.0317   -1.2599    1.3961 H   0  0  0  0  0  0  0  0  0  0  0  0
    0.5065   -0.0841    1.8664 H   0  0  0  0  0  0  0  0  0  0  0  0
    0.9802    1.6997    1.6153 H   0  0  0  0  0  0  0  0  0  0  0  0
  1  2  1  0
  2  3  1  0
  3  4  1  0
  4  5  1  0
  5  6  1  0
  6  7  1  0
  7  8  1  0
  5  9  1  0
  9  3  1  0
  8  6  1  0
  1 10  1  0
  2 11  1  0
  2 12  1  0
  3 13  1  0
  4 14  1  0
  4 15  1  0
  5 16  1  0
  6 17  1  0
  7 18  1  0
  7 19  1  0
  8 20  1  0
  8 21  1  0
  9 22  1  0
  9 23  1  0
M  END
