
     RDKit          3D

 19 21  0  0  0  0  0  0  0  0999 V2000
    2.5445    1.2337   -0.1269 O   0  0  0  0  0  0  0  0  0  0  0  0
    1.3074    1.3513    0.5175 C   0  0  0  0  0  0  0  0  0  0  0  0
    0.2990    0.6297   -0.3866 C   0  0  0  0  0  0  0  0  0  0  0  0
    0.7279   -0.8124   -0.5207 C   0  0  0  0  0  0  0  0  0  0  0  0
   -0.2125   -1.8368   -1.0331 C   0  0  0  0  0  0  0  0  0  0  0  0
   -0.4576   -1.2108    0.2974 C   0  0  0  0  0  0  0  0  0  0  0  0
   -0.9519    0.2032    0.2525 C   0  0  0  0  0  0  0  0  0  0  0  0
   -2.2527    0.5801    0.1208 C   0  0  0  0  0  0  0  0  0  0  0  0
   -1.5248    0.8116    1.3244 O   0  0  0  0  0  0  0  0  0  0  0  0
    3.0967    0.5192    0.3116 H   0  0  0  0  0  0  0  0  0  0  0  0
    1.3122    0.8418    1.4986 H   0  0  0  0  0  0  0  0  0  0  0  0
    1.0340    2.4182    0.5994 H   0  0  0  0  0  0  0  0  0  0  0  0
    0.1879    1.1560   -1.3530 H   0  0  0  0  0  0  0  0  0  0  0  0
    1.7494   -1.1169   -0.2476 H   0  0  0  0  0  0  0  0  0  0  0  0
    0.1782   -2.8473   -1.1313 H   0  0  0  0  0  0  0  0  0  0  0  0
   -0.9852   -1.5823   -1.8026 H   0  0  0  0  0  0  0  0  0  0  0  0
   -0.3526   -1.7484    1.2356 H   0  0  0  0  0  0  0  0  0  0  0  0
   -3.1153   -0.0953    0.3066 H   0  0  0  0  0  0  0  0  0  0  0  0
   -2.5846    1.5054   -0.4333 H   0  0  0  0  0  0  0  0  0  0  0  0
  1  2  1  0
  2  3  1  0
  3  4  1  0
  4  5  1  0
  5  6  1  0
  6  7  1  0
  7  8  1  0
  8  9  1  0
  7  3  1  0
  6  4  1  0
  9  7  1  0
  1 10  1  0
  2 11  1  0
  2 12  1  0
  3 13  1  0
  4 14  1  0
  5 15  1  0
  5 16  1  0
  6 17  1  0
  8 18  1  0
  8 19  1  0
M  END
