
     RDKit          3D

 17 19  0  0  0  0  0  0  0  0999 V2000
   -2.5699   -1.4429   -0.3547 O   0  0  0  0  0  0  0  0  0  0  0  0
   -1.9977   -0.2191   -0.0775 C   0  0  0  0  0  0  0  0  0  0  0  0
   -0.4907   -0.2377   -0.1234 C   0  0  0  0  0  0  0  0  0  0  0  0
    0.2058   -1.0754    0.7311 O   0  0  0  0  0  0  0  0  0  0  0  0
    1.1250   -0.0517    0.9463 C   0  0  0  0  0  0  0  0  0  0  0  0
    2.1516   -0.0927   -0.1919 C   0  0  0  0  0  0  0  0  0  0  0  0
    1.5467    0.4213   -1.3054 O   0  0  0  0  0  0  0  0  0  0  0  0
    0.2271    0.6989   -1.0328 C   0  0  0  0  0  0  0  0  0  0  0  0
    0.1751    0.9521    0.3968 C   0  0  0  0  0  0  0  0  0  0  0  0
   -2.1412   -2.1812    0.1296 H   0  0  0  0  0  0  0  0  0  0  0  0
   -2.3276    0.2014    0.9106 H   0  0  0  0  0  0  0  0  0  0  0  0
   -2.3412    0.4983   -0.8513 H   0  0  0  0  0  0  0  0  0  0  0  0
    1.5221    0.0731    1.9417 H   0  0  0  0  0  0  0  0  0  0  0  0
    2.4408   -1.1475   -0.3706 H   0  0  0  0  0  0  0  0  0  0  0  0
    3.0621    0.4632    0.1179 H   0  0  0  0  0  0  0  0  0  0  0  0
   -0.3374    1.2136   -1.7918 H   0  0  0  0  0  0  0  0  0  0  0  0
   -0.2507    1.7687    0.9255 H   0  0  0  0  0  0  0  0  0  0  0  0
  1  2  1  0
  2  3  1  0
  3  4  1  0
  4  5  1  0
  5  6  1  0
  6  7  1  0
  7  8  1  0
  8  9  1  0
  8  3  1  0
  9  3  1  0
  9  5  1  0
  1 10  1  0
  2 11  1  0
  2 12  1  0
  5 13  1  0
  6 14  1  0
  6 15  1  0
  8 16  1  0
  9 17  1  0
M  END
