
     RDKit          3D

 21 22  0  0  0  0  0  0  0  0999 V2000
    2.2565    1.0728    1.1526 O   0  0  0  0  0  0  0  0  0  0  0  0
    1.6645    1.0936   -0.1328 C   0  0  0  0  0  0  0  0  0  0  0  0
    0.4774    0.1961   -0.0562 C   0  0  0  0  0  0  0  0  0  0  0  0
   -0.5119    0.6548    0.9662 C   0  0  0  0  0  0  0  0  0  0  0  0
   -1.7691   -0.0612    0.5695 C   0  0  0  0  0  0  0  0  0  0  0  0
   -1.6117   -0.5154   -0.8523 C   0  0  0  0  0  0  0  0  0  0  0  0
   -0.2242   -0.1654   -1.2980 C   0  0  0  0  0  0  0  0  0  0  0  0
    0.6479   -1.2619   -1.4413 O   0  0  0  0  0  0  0  0  0  0  0  0
    0.7990   -1.2637   -0.0564 C   0  0  0  0  0  0  0  0  0  0  0  0
    2.3049    0.1015    1.3897 H   0  0  0  0  0  0  0  0  0  0  0  0
    1.3539    2.1485   -0.2989 H   0  0  0  0  0  0  0  0  0  0  0  0
    2.4157    0.7883   -0.8835 H   0  0  0  0  0  0  0  0  0  0  0  0
   -0.1275    0.2962    1.9657 H   0  0  0  0  0  0  0  0  0  0  0  0
   -0.6113    1.7435    0.9165 H   0  0  0  0  0  0  0  0  0  0  0  0
   -1.9965   -0.9019    1.2694 H   0  0  0  0  0  0  0  0  0  0  0  0
   -2.6177    0.6379    0.6504 H   0  0  0  0  0  0  0  0  0  0  0  0
   -1.7649   -1.6239   -0.8559 H   0  0  0  0  0  0  0  0  0  0  0  0
   -2.3779   -0.0090   -1.4961 H   0  0  0  0  0  0  0  0  0  0  0  0
   -0.1315    0.4895   -2.1777 H   0  0  0  0  0  0  0  0  0  0  0  0
    1.8163   -1.5561    0.2434 H   0  0  0  0  0  0  0  0  0  0  0  0
    0.0081   -1.8643    0.4254 H   0  0  0  0  0  0  0  0  0  0  0  0
  1  2  1  0
  2  3  1  0
  3  4  1  0
  4  5  1  0
  5  6  1  0
  6  7  1  0
  7  8  1  0
  8  9  1  0
  7  3  1  0
  9  3  1  0
  1 10  1  0
  2 11  1  0
  2 12  1  0
  4 13  1  0
  4 14  1  0
  5 15  1  0
  5 16  1  0
  6 17  1  0
  6 18  1  0
  7 19  1  0
  9 20  1  0
  9 21  1  0
M  END
