
     RDKit          3D

 23 23  0  0  0  0  0  0  0  0999 V2000
    3.1002   -0.3339   -0.6724 O   0  0  0  0  0  0  0  0  0  0  0  0
    2.1624    0.5056   -0.0688 C   0  0  0  0  0  0  0  0  0  0  0  0
    0.7333    0.0878   -0.4509 C   0  0  0  0  0  0  0  0  0  0  0  0
    0.4767   -1.2994   -0.0091 C   0  0  0  0  0  0  0  0  0  0  0  0
   -0.8858   -1.5519    0.5492 C   0  0  0  0  0  0  0  0  0  0  0  0
   -1.8676   -0.6803   -0.2106 C   0  0  0  0  0  0  0  0  0  0  0  0
   -1.5876    0.7367    0.2856 C   0  0  0  0  0  0  0  0  0  0  0  0
   -2.4995    1.5876   -0.2939 O   0  0  0  0  0  0  0  0  0  0  0  0
   -0.1865    1.1298    0.0399 C   0  0  0  0  0  0  0  0  0  0  0  0
    3.9802    0.0296   -0.4646 H   0  0  0  0  0  0  0  0  0  0  0  0
    2.2881    0.5481    1.0277 H   0  0  0  0  0  0  0  0  0  0  0  0
    2.2712    1.5432   -0.4930 H   0  0  0  0  0  0  0  0  0  0  0  0
    0.7348    0.1270   -1.5802 H   0  0  0  0  0  0  0  0  0  0  0  0
    0.6075   -2.0121   -0.8766 H   0  0  0  0  0  0  0  0  0  0  0  0
    1.2167   -1.6735    0.7582 H   0  0  0  0  0  0  0  0  0  0  0  0
   -0.9059   -1.2516    1.6285 H   0  0  0  0  0  0  0  0  0  0  0  0
   -1.1387   -2.6137    0.5177 H   0  0  0  0  0  0  0  0  0  0  0  0
   -1.5630   -0.7299   -1.2831 H   0  0  0  0  0  0  0  0  0  0  0  0
   -2.9090   -0.9587   -0.0516 H   0  0  0  0  0  0  0  0  0  0  0  0
   -1.8134    0.7026    1.3891 H   0  0  0  0  0  0  0  0  0  0  0  0
   -2.2352    2.5203   -0.0247 H   0  0  0  0  0  0  0  0  0  0  0  0
   -0.1925    1.9838   -0.6995 H   0  0  0  0  0  0  0  0  0  0  0  0
    0.2137    1.6028    0.9831 H   0  0  0  0  0  0  0  0  0  0  0  0
  1  2  1  0
  2  3  1  0
  3  4  1  0
  4  5  1  0
  5  6  1  0
  6  7  1  0
  7  8  1  0
  7  9  1  0
  9  3  1  0
  1 10  1  0
  2 11  1  0
  2 12  1  0
  3 13  1  0
  4 14  1  0
  4 15  1  0
  5 16  1  0
  5 17  1  0
  6 18  1  0
  6 19  1  0
  7 20  1  0
  8 21  1  0
  9 22  1  0
  9 23  1  0
M  END
