
     RDKit          3D

 21 22  0  0  0  0  0  0  0  0999 V2000
    2.5961   -1.5636   -0.6324 O   0  0  0  0  0  0  0  0  0  0  0  0
    2.2795   -0.4204    0.1150 C   0  0  0  0  0  0  0  0  0  0  0  0
    0.8238   -0.1342   -0.0931 C   0  0  0  0  0  0  0  0  0  0  0  0
    0.0573   -0.9050   -0.8784 C   0  0  0  0  0  0  0  0  0  0  0  0
   -1.3912   -0.9703   -0.4959 C   0  0  0  0  0  0  0  0  0  0  0  0
   -1.7745    0.3198    0.1744 C   0  0  0  0  0  0  0  0  0  0  0  0
   -0.9574    1.4420   -0.4153 C   0  0  0  0  0  0  0  0  0  0  0  0
    0.1499    1.0174    0.5579 C   0  0  0  0  0  0  0  0  0  0  0  0
   -0.9396    0.4655    1.4397 C   0  0  0  0  0  0  0  0  0  0  0  0
    3.1260   -1.2786   -1.4098 H   0  0  0  0  0  0  0  0  0  0  0  0
    2.8632    0.4506   -0.1915 H   0  0  0  0  0  0  0  0  0  0  0  0
    2.4593   -0.6954    1.1809 H   0  0  0  0  0  0  0  0  0  0  0  0
    0.4479   -1.4471   -1.7323 H   0  0  0  0  0  0  0  0  0  0  0  0
   -1.5359   -1.7959    0.2598 H   0  0  0  0  0  0  0  0  0  0  0  0
   -2.0318   -1.1448   -1.3914 H   0  0  0  0  0  0  0  0  0  0  0  0
   -2.8322    0.5377    0.2762 H   0  0  0  0  0  0  0  0  0  0  0  0
   -0.7214    1.2184   -1.4754 H   0  0  0  0  0  0  0  0  0  0  0  0
   -1.3314    2.4518   -0.2728 H   0  0  0  0  0  0  0  0  0  0  0  0
    0.7660    1.8094    0.9463 H   0  0  0  0  0  0  0  0  0  0  0  0
   -0.6745   -0.5178    1.8765 H   0  0  0  0  0  0  0  0  0  0  0  0
   -1.3791    1.1605    2.1615 H   0  0  0  0  0  0  0  0  0  0  0  0
  1  2  1  0
  2  3  1  0
  3  4  2  0
  4  5  1  0
  5  6  1  0
  6  7  1  0
  7  8  1  0
  8  9  1  0
  8  3  1  0
  9  6  1  0
  1 10  1  0
  2 11  1  0
  2 12  1  0
  4 13  1  0
  5 14  1  0
  5 15  1  0
  6 16  1  0
  7 17  1  0
  7 18  1  0
  8 19  1  0
  9 20  1  0
  9 21  1  0
M  END
