
     RDKit          3D

 14 16  0  0  0  0  0  0  0  0999 V2000
    1.8089    0.1143    1.1547 O   0  0  0  0  0  0  0  0  0  0  0  0
    1.4513   -0.5413    0.0062 C   0  0  0  0  0  0  0  0  0  0  0  0
    0.1793    0.0031   -0.6027 C   0  0  0  0  0  0  0  0  0  0  0  0
   -0.2947   -0.5765   -1.7751 O   0  0  0  0  0  0  0  0  0  0  0  0
   -1.0231   -0.8452   -0.6489 C   0  0  0  0  0  0  0  0  0  0  0  0
   -1.8330    0.2630   -0.0600 C   0  0  0  0  0  0  0  0  0  0  0  0
   -1.4291    0.8932    1.1018 O   0  0  0  0  0  0  0  0  0  0  0  0
   -0.5621    1.1164    0.0519 C   0  0  0  0  0  0  0  0  0  0  0  0
    2.4804    0.8180    1.0382 H   0  0  0  0  0  0  0  0  0  0  0  0
    2.2254   -0.4992   -0.7925 H   0  0  0  0  0  0  0  0  0  0  0  0
    1.2537   -1.6027    0.2616 H   0  0  0  0  0  0  0  0  0  0  0  0
   -0.9830   -1.8335   -0.1546 H   0  0  0  0  0  0  0  0  0  0  0  0
   -2.6564    0.6364   -0.6627 H   0  0  0  0  0  0  0  0  0  0  0  0
   -0.6178    2.0541   -0.5309 H   0  0  0  0  0  0  0  0  0  0  0  0
  1  2  1  0
  2  3  1  0
  3  4  1  0
  4  5  1  0
  5  6  1  0
  6  7  1  0
  7  8  1  0
  5  3  1  0
  8  6  1  0
  8  3  1  0
  1  9  1  0
  2 10  1  0
  2 11  1  0
  5 12  1  0
  6 13  1  0
  8 14  1  0
M  END
