
     RDKit          3D

 18 19  0  0  0  0  0  0  0  0999 V2000
    2.9001   -0.4424   -0.1175 O   0  0  0  0  0  0  0  0  0  0  0  0
    1.9924    0.1145    0.8122 C   0  0  0  0  0  0  0  0  0  0  0  0
    0.5725   -0.3234    0.5076 C   0  0  0  0  0  0  0  0  0  0  0  0
    0.1006    0.0828   -0.8432 C   0  0  0  0  0  0  0  0  0  0  0  0
   -1.2900   -0.3802   -1.2191 C   0  0  0  0  0  0  0  0  0  0  0  0
   -1.8124    0.5331   -0.1002 C   0  0  0  0  0  0  0  0  0  0  0  0
   -2.7415   -0.1306    0.6527 O   0  0  0  0  0  0  0  0  0  0  0  0
   -0.4549    0.7322    0.4559 C   0  0  0  0  0  0  0  0  0  0  0  0
    3.3439    0.2718   -0.6551 H   0  0  0  0  0  0  0  0  0  0  0  0
    2.0961    1.2083    0.8757 H   0  0  0  0  0  0  0  0  0  0  0  0
    2.3104   -0.2996    1.8099 H   0  0  0  0  0  0  0  0  0  0  0  0
    0.3372   -1.3667    0.8077 H   0  0  0  0  0  0  0  0  0  0  0  0
    0.6781    0.7239   -1.5099 H   0  0  0  0  0  0  0  0  0  0  0  0
   -1.3965   -1.4508   -0.9879 H   0  0  0  0  0  0  0  0  0  0  0  0
   -1.5764   -0.0572   -2.2282 H   0  0  0  0  0  0  0  0  0  0  0  0
   -2.2175    1.4895   -0.5421 H   0  0  0  0  0  0  0  0  0  0  0  0
   -2.7077    0.0532    1.6228 H   0  0  0  0  0  0  0  0  0  0  0  0
   -0.1342    1.7699    0.6586 H   0  0  0  0  0  0  0  0  0  0  0  0
  1  2  1  0
  2  3  1  0
  3  4  1  0
  4  5  1  0
  5  6  1  0
  6  7  1  0
  6  8  1  0
  8  3  1  0
  8  4  1  0
  1  9  1  0
  2 10  1  0
  2 11  1  0
  3 12  1  0
  4 13  1  0
  5 14  1  0
  5 15  1  0
  6 16  1  0
  7 17  1  0
  8 18  1  0
M  END
