
     RDKit          3D

 19 20  0  0  0  0  0  0  0  0999 V2000
    1.8042   -1.5230   -0.0983 O   0  0  0  0  0  0  0  0  0  0  0  0
    1.9497   -0.4081   -0.9338 C   0  0  0  0  0  0  0  0  0  0  0  0
    0.8371    0.5709   -0.8132 C   0  0  0  0  0  0  0  0  0  0  0  0
    0.6747    1.1479    0.5958 C   0  0  0  0  0  0  0  0  0  0  0  0
   -0.3811    0.3436   -0.0345 C   0  0  0  0  0  0  0  0  0  0  0  0
   -0.8314   -0.9732    0.4695 C   0  0  0  0  0  0  0  0  0  0  0  0
   -1.9770   -0.5916    1.2092 O   0  0  0  0  0  0  0  0  0  0  0  0
   -2.5622    0.3819    0.4090 C   0  0  0  0  0  0  0  0  0  0  0  0
   -1.5759    0.9589   -0.3521 O   0  0  0  0  0  0  0  0  0  0  0  0
    2.3186   -1.4184    0.7296 H   0  0  0  0  0  0  0  0  0  0  0  0
    2.8885    0.1153   -0.5824 H   0  0  0  0  0  0  0  0  0  0  0  0
    2.0869   -0.8100   -1.9556 H   0  0  0  0  0  0  0  0  0  0  0  0
    0.7461    1.2726   -1.6744 H   0  0  0  0  0  0  0  0  0  0  0  0
    1.2897    0.7286    1.4113 H   0  0  0  0  0  0  0  0  0  0  0  0
    0.5017    2.2528    0.6492 H   0  0  0  0  0  0  0  0  0  0  0  0
   -0.1570   -1.4779    1.1706 H   0  0  0  0  0  0  0  0  0  0  0  0
   -1.2023   -1.5940   -0.3536 H   0  0  0  0  0  0  0  0  0  0  0  0
   -3.0866    1.0965    1.0763 H   0  0  0  0  0  0  0  0  0  0  0  0
   -3.3238   -0.0729   -0.2460 H   0  0  0  0  0  0  0  0  0  0  0  0
  1  2  1  0
  2  3  1  0
  3  4  1  0
  4  5  1  0
  5  6  1  0
  6  7  1  0
  7  8  1  0
  8  9  1  0
  5  3  1  0
  9  5  1  0
  1 10  1  0
  2 11  1  0
  2 12  1  0
  3 13  1  0
  4 14  1  0
  4 15  1  0
  6 16  1  0
  6 17  1  0
  8 18  1  0
  8 19  1  0
M  END
