
     RDKit          3D

 19 20  0  0  0  0  0  0  0  0999 V2000
    2.5062    0.2399   -0.9349 O   0  0  0  0  0  0  0  0  0  0  0  0
    1.7605   -0.4985   -0.0433 C   0  0  0  0  0  0  0  0  0  0  0  0
    0.3859    0.0567    0.1437 C   0  0  0  0  0  0  0  0  0  0  0  0
   -0.4064   -0.6584    1.0382 O   0  0  0  0  0  0  0  0  0  0  0  0
   -1.2691   -1.3407    0.1908 C   0  0  0  0  0  0  0  0  0  0  0  0
   -1.7923   -0.1784   -0.6671 C   0  0  0  0  0  0  0  0  0  0  0  0
   -0.4577    0.4782   -0.9986 C   0  0  0  0  0  0  0  0  0  0  0  0
    0.1032    1.5038   -0.0959 C   0  0  0  0  0  0  0  0  0  0  0  0
   -0.6966    2.2083    0.8004 O   0  0  0  0  0  0  0  0  0  0  0  0
    3.4695    0.0259   -0.7468 H   0  0  0  0  0  0  0  0  0  0  0  0
    2.2782   -0.4502    0.9436 H   0  0  0  0  0  0  0  0  0  0  0  0
    1.6714   -1.5643   -0.3200 H   0  0  0  0  0  0  0  0  0  0  0  0
   -2.0667   -1.8801    0.6915 H   0  0  0  0  0  0  0  0  0  0  0  0
   -0.6412   -1.9466   -0.4880 H   0  0  0  0  0  0  0  0  0  0  0  0
   -2.3153   -0.5508   -1.5476 H   0  0  0  0  0  0  0  0  0  0  0  0
   -2.4085    0.4447    0.0073 H   0  0  0  0  0  0  0  0  0  0  0  0
   -0.1465    0.3917   -2.0356 H   0  0  0  0  0  0  0  0  0  0  0  0
    0.9606    2.0739   -0.4977 H   0  0  0  0  0  0  0  0  0  0  0  0
   -0.9353    1.6450    1.5710 H   0  0  0  0  0  0  0  0  0  0  0  0
  1  2  1  0
  2  3  1  0
  3  4  1  0
  4  5  1  0
  5  6  1  0
  6  7  1  0
  7  8  1  0
  8  9  1  0
  7  3  1  0
  8  3  1  0
  1 10  1  0
  2 11  1  0
  2 12  1  0
  5 13  1  0
  5 14  1  0
  6 15  1  0
  6 16  1  0
  7 17  1  0
  8 18  1  0
  9 19  1  0
M  END
