
     RDKit          3D

 19 20  0  0  0  0  0  0  0  0999 V2000
    2.7898   -0.9045   -0.2026 O   0  0  0  0  0  0  0  0  0  0  0  0
    2.0394    0.2103    0.1508 C   0  0  0  0  0  0  0  0  0  0  0  0
    0.6905    0.2373   -0.5241 C   0  0  0  0  0  0  0  0  0  0  0  0
   -0.0216    1.4615   -0.0786 C   0  0  0  0  0  0  0  0  0  0  0  0
   -1.1434    1.1851    0.5507 C   0  0  0  0  0  0  0  0  0  0  0  0
   -1.3410   -0.2740    0.6153 C   0  0  0  0  0  0  0  0  0  0  0  0
   -2.2027   -0.7330   -0.5481 C   0  0  0  0  0  0  0  0  0  0  0  0
   -1.0718   -1.3195   -1.0942 O   0  0  0  0  0  0  0  0  0  0  0  0
   -0.1877   -0.9090   -0.1148 C   0  0  0  0  0  0  0  0  0  0  0  0
    3.4245   -1.1336    0.5277 H   0  0  0  0  0  0  0  0  0  0  0  0
    2.5999    1.1034   -0.1950 H   0  0  0  0  0  0  0  0  0  0  0  0
    1.9289    0.2557    1.2636 H   0  0  0  0  0  0  0  0  0  0  0  0
    0.8640    0.2174   -1.6181 H   0  0  0  0  0  0  0  0  0  0  0  0
    0.3489    2.4584   -0.2568 H   0  0  0  0  0  0  0  0  0  0  0  0
   -1.8162    1.9135    0.9575 H   0  0  0  0  0  0  0  0  0  0  0  0
   -1.5877   -0.7024    1.5892 H   0  0  0  0  0  0  0  0  0  0  0  0
   -3.0015   -1.4112   -0.2470 H   0  0  0  0  0  0  0  0  0  0  0  0
   -2.6181    0.0987   -1.1684 H   0  0  0  0  0  0  0  0  0  0  0  0
    0.3057   -1.7540    0.3929 H   0  0  0  0  0  0  0  0  0  0  0  0
  1  2  1  0
  2  3  1  0
  3  4  1  0
  4  5  2  0
  5  6  1  0
  6  7  1  0
  7  8  1  0
  8  9  1  0
  9  3  1  0
  9  6  1  0
  1 10  1  0
  2 11  1  0
  2 12  1  0
  3 13  1  0
  4 14  1  0
  5 15  1  0
  6 16  1  0
  7 17  1  0
  7 18  1  0
  9 19  1  0
M  END
