
     RDKit          3D

 19 21  0  0  0  0  0  0  0  0999 V2000
    2.2844   -0.3348    1.2360 O   0  0  0  0  0  0  0  0  0  0  0  0
    1.8604    0.4179    0.1591 C   0  0  0  0  0  0  0  0  0  0  0  0
    0.3833    0.2244   -0.1402 C   0  0  0  0  0  0  0  0  0  0  0  0
   -0.0578   -1.1610   -0.4751 C   0  0  0  0  0  0  0  0  0  0  0  0
   -1.5330   -1.1673   -0.1995 C   0  0  0  0  0  0  0  0  0  0  0  0
   -1.8255   -1.3391    1.1778 O   0  0  0  0  0  0  0  0  0  0  0  0
   -1.8721   -0.0568    0.6969 C   0  0  0  0  0  0  0  0  0  0  0  0
   -0.6549    0.8239    0.6936 C   0  0  0  0  0  0  0  0  0  0  0  0
   -0.3359    1.4149   -0.6759 C   0  0  0  0  0  0  0  0  0  0  0  0
    2.8672   -1.0734    0.8833 H   0  0  0  0  0  0  0  0  0  0  0  0
    2.0827    1.4779    0.3869 H   0  0  0  0  0  0  0  0  0  0  0  0
    2.4237    0.1862   -0.7838 H   0  0  0  0  0  0  0  0  0  0  0  0
    0.1993   -1.4406   -1.5174 H   0  0  0  0  0  0  0  0  0  0  0  0
    0.4319   -1.8785    0.2354 H   0  0  0  0  0  0  0  0  0  0  0  0
   -2.2293   -1.5493   -0.9419 H   0  0  0  0  0  0  0  0  0  0  0  0
   -2.8140    0.4709    0.5111 H   0  0  0  0  0  0  0  0  0  0  0  0
   -0.3898    1.4030    1.5896 H   0  0  0  0  0  0  0  0  0  0  0  0
    0.1976    2.3722   -0.6489 H   0  0  0  0  0  0  0  0  0  0  0  0
   -1.0181    1.2095   -1.5185 H   0  0  0  0  0  0  0  0  0  0  0  0
  1  2  1  0
  2  3  1  0
  3  4  1  0
  4  5  1  0
  5  6  1  0
  6  7  1  0
  7  8  1  0
  8  9  1  0
  8  3  1  0
  9  3  1  0
  7  5  1  0
  1 10  1  0
  2 11  1  0
  2 12  1  0
  4 13  1  0
  4 14  1  0
  5 15  1  0
  7 16  1  0
  8 17  1  0
  9 18  1  0
  9 19  1  0
M  END
