
     RDKit          3D

 19 20  0  0  0  0  0  0  0  0999 V2000
    2.8914    0.6139    0.3756 O   0  0  0  0  0  0  0  0  0  0  0  0
    1.9623    0.1274   -0.5448 C   0  0  0  0  0  0  0  0  0  0  0  0
    0.6155    0.6826   -0.1462 C   0  0  0  0  0  0  0  0  0  0  0  0
    0.3526    0.2286    1.1446 O   0  0  0  0  0  0  0  0  0  0  0  0
   -0.8622   -0.4449    1.0993 C   0  0  0  0  0  0  0  0  0  0  0  0
   -1.9093    0.5734    0.6964 C   0  0  0  0  0  0  0  0  0  0  0  0
   -1.6556    0.8734   -0.6399 O   0  0  0  0  0  0  0  0  0  0  0  0
   -0.5057    0.1676   -0.9980 C   0  0  0  0  0  0  0  0  0  0  0  0
   -0.7760   -1.1595   -0.2620 C   0  0  0  0  0  0  0  0  0  0  0  0
    2.8949    0.0586    1.1992 H   0  0  0  0  0  0  0  0  0  0  0  0
    2.2307    0.3576   -1.5889 H   0  0  0  0  0  0  0  0  0  0  0  0
    1.9725   -0.9920   -0.4128 H   0  0  0  0  0  0  0  0  0  0  0  0
    0.6588    1.7819   -0.2141 H   0  0  0  0  0  0  0  0  0  0  0  0
   -1.0939   -1.0746    1.9148 H   0  0  0  0  0  0  0  0  0  0  0  0
   -2.8994    0.0410    0.8033 H   0  0  0  0  0  0  0  0  0  0  0  0
   -1.8780    1.4629    1.3541 H   0  0  0  0  0  0  0  0  0  0  0  0
   -0.3288    0.0588   -2.0393 H   0  0  0  0  0  0  0  0  0  0  0  0
   -1.7375   -1.5241   -0.6003 H   0  0  0  0  0  0  0  0  0  0  0  0
    0.0677   -1.8325   -0.3247 H   0  0  0  0  0  0  0  0  0  0  0  0
  1  2  1  0
  2  3  1  0
  3  4  1  0
  4  5  1  0
  5  6  1  0
  6  7  1  0
  7  8  1  0
  8  9  1  0
  8  3  1  0
  9  5  1  0
  1 10  1  0
  2 11  1  0
  2 12  1  0
  3 13  1  0
  5 14  1  0
  6 15  1  0
  6 16  1  0
  8 17  1  0
  9 18  1  0
  9 19  1  0
M  END
