
     RDKit          3D

 21 22  0  0  0  0  0  0  0  0999 V2000
    2.9915   -0.2785   -0.5901 O   0  0  0  0  0  0  0  0  0  0  0  0
    1.7154   -0.7670   -0.2681 C   0  0  0  0  0  0  0  0  0  0  0  0
    1.1440   -0.1410    0.9433 C   0  0  0  0  0  0  0  0  0  0  0  0
    0.9542    1.3780    0.8759 C   0  0  0  0  0  0  0  0  0  0  0  0
   -0.4792    1.1651    0.4504 C   0  0  0  0  0  0  0  0  0  0  0  0
   -1.7075    1.2136    0.0009 C   0  0  0  0  0  0  0  0  0  0  0  0
   -2.4257   -0.0843    0.2212 C   0  0  0  0  0  0  0  0  0  0  0  0
   -1.1775   -1.0163    0.1861 C   0  0  0  0  0  0  0  0  0  0  0  0
   -0.3132   -0.2051    1.1014 C   0  0  0  0  0  0  0  0  0  0  0  0
    3.1986   -0.4566   -1.5515 H   0  0  0  0  0  0  0  0  0  0  0  0
    1.8394   -1.8513   -0.0694 H   0  0  0  0  0  0  0  0  0  0  0  0
    1.0575   -0.6516   -1.1690 H   0  0  0  0  0  0  0  0  0  0  0  0
    1.6779   -0.4457    1.8635 H   0  0  0  0  0  0  0  0  0  0  0  0
    1.5984    1.8467    0.1312 H   0  0  0  0  0  0  0  0  0  0  0  0
    1.0335    1.8871    1.8479 H   0  0  0  0  0  0  0  0  0  0  0  0
   -2.1674    2.0592   -0.4690 H   0  0  0  0  0  0  0  0  0  0  0  0
   -3.1362   -0.3392   -0.5600 H   0  0  0  0  0  0  0  0  0  0  0  0
   -2.7721   -0.0929    1.2498 H   0  0  0  0  0  0  0  0  0  0  0  0
   -1.4467   -2.0093    0.5781 H   0  0  0  0  0  0  0  0  0  0  0  0
   -0.8822   -0.9985   -0.8632 H   0  0  0  0  0  0  0  0  0  0  0  0
   -0.7030   -0.2123    2.1445 H   0  0  0  0  0  0  0  0  0  0  0  0
  1  2  1  0
  2  3  1  0
  3  4  1  0
  4  5  1  0
  5  6  2  0
  6  7  1  0
  7  8  1  0
  8  9  1  0
  9  3  1  0
  9  5  1  0
  1 10  1  0
  2 11  1  0
  2 12  1  0
  3 13  1  0
  4 14  1  0
  4 15  1  0
  6 16  1  0
  7 17  1  0
  7 18  1  0
  8 19  1  0
  8 20  1  0
  9 21  1  0
M  END
