
     RDKit          3D

 19 20  0  0  0  0  0  0  0  0999 V2000
    1.7310   -1.2819    0.7373 O   0  0  0  0  0  0  0  0  0  0  0  0
    2.0265   -0.2028   -0.0740 C   0  0  0  0  0  0  0  0  0  0  0  0
    0.7787    0.5863   -0.4397 C   0  0  0  0  0  0  0  0  0  0  0  0
   -0.2160   -0.2724   -1.1798 C   0  0  0  0  0  0  0  0  0  0  0  0
   -1.1220   -0.1824   -0.0043 C   0  0  0  0  0  0  0  0  0  0  0  0
   -2.4717   -0.3316   -0.0166 C   0  0  0  0  0  0  0  0  0  0  0  0
   -1.5817   -1.3329    0.6369 O   0  0  0  0  0  0  0  0  0  0  0  0
   -0.2012    0.6990    0.7325 C   0  0  0  0  0  0  0  0  0  0  0  0
   -0.6468    1.9670    0.9922 O   0  0  0  0  0  0  0  0  0  0  0  0
    2.3874   -2.0303    0.5969 H   0  0  0  0  0  0  0  0  0  0  0  0
    2.8113    0.4569    0.3243 H   0  0  0  0  0  0  0  0  0  0  0  0
    2.4263   -0.6237   -1.0321 H   0  0  0  0  0  0  0  0  0  0  0  0
    0.9926    1.5759   -0.8752 H   0  0  0  0  0  0  0  0  0  0  0  0
    0.0924   -1.3113   -1.3734 H   0  0  0  0  0  0  0  0  0  0  0  0
   -0.5444    0.2473   -2.1039 H   0  0  0  0  0  0  0  0  0  0  0  0
   -3.1692    0.0075    0.7876 H   0  0  0  0  0  0  0  0  0  0  0  0
   -3.0221   -0.7754   -0.8723 H   0  0  0  0  0  0  0  0  0  0  0  0
    0.2052    0.2297    1.6647 H   0  0  0  0  0  0  0  0  0  0  0  0
   -0.4765    2.5751    0.2247 H   0  0  0  0  0  0  0  0  0  0  0  0
  1  2  1  0
  2  3  1  0
  3  4  1  0
  4  5  1  0
  5  6  1  0
  6  7  1  0
  5  8  1  0
  8  9  1  0
  8  3  1  0
  7  5  1  0
  1 10  1  0
  2 11  1  0
  2 12  1  0
  3 13  1  0
  4 14  1  0
  4 15  1  0
  6 16  1  0
  6 17  1  0
  8 18  1  0
  9 19  1  0
M  END
