
     RDKit          3D

 19 20  0  0  0  0  0  0  0  0999 V2000
    1.8719   -1.4834    0.7339 O   0  0  0  0  0  0  0  0  0  0  0  0
    1.6786   -0.5149   -0.2502 C   0  0  0  0  0  0  0  0  0  0  0  0
    0.5836    0.3905    0.2148 C   0  0  0  0  0  0  0  0  0  0  0  0
    0.2858    1.4972   -0.7927 C   0  0  0  0  0  0  0  0  0  0  0  0
   -0.9050    1.9904   -0.3304 O   0  0  0  0  0  0  0  0  0  0  0  0
   -1.6640    0.9691    0.1683 C   0  0  0  0  0  0  0  0  0  0  0  0
   -0.7484   -0.2388    0.3409 C   0  0  0  0  0  0  0  0  0  0  0  0
   -1.1884   -1.5008   -0.0393 C   0  0  0  0  0  0  0  0  0  0  0  0
   -1.0341   -1.1401    1.3547 O   0  0  0  0  0  0  0  0  0  0  0  0
    2.3597   -1.1183    1.5284 H   0  0  0  0  0  0  0  0  0  0  0  0
    1.3120   -1.0591   -1.1522 H   0  0  0  0  0  0  0  0  0  0  0  0
    2.6289    0.0028   -0.4298 H   0  0  0  0  0  0  0  0  0  0  0  0
    0.8456    0.9076    1.1628 H   0  0  0  0  0  0  0  0  0  0  0  0
    0.1440    1.1113   -1.8047 H   0  0  0  0  0  0  0  0  0  0  0  0
    1.1232    2.2198   -0.7129 H   0  0  0  0  0  0  0  0  0  0  0  0
   -2.0272    1.2075    1.2097 H   0  0  0  0  0  0  0  0  0  0  0  0
   -2.5037    0.7567   -0.5053 H   0  0  0  0  0  0  0  0  0  0  0  0
   -2.2573   -1.6892   -0.3079 H   0  0  0  0  0  0  0  0  0  0  0  0
   -0.5051   -2.3083   -0.3881 H   0  0  0  0  0  0  0  0  0  0  0  0
  1  2  1  0
  2  3  1  0
  3  4  1  0
  4  5  1  0
  5  6  1  0
  6  7  1  0
  7  8  1  0
  8  9  1  0
  7  3  1  0
  9  7  1  0
  1 10  1  0
  2 11  1  0
  2 12  1  0
  3 13  1  0
  4 14  1  0
  4 15  1  0
  6 16  1  0
  6 17  1  0
  8 18  1  0
  8 19  1  0
M  END
