
     RDKit          3D

 21 22  0  0  0  0  0  0  0  0999 V2000
    2.8547    0.1915   -0.2368 O   0  0  0  0  0  0  0  0  0  0  0  0
    1.8090   -0.7362   -0.2503 C   0  0  0  0  0  0  0  0  0  0  0  0
    0.7329   -0.1848    0.6799 C   0  0  0  0  0  0  0  0  0  0  0  0
   -0.4348   -1.1178    0.7294 C   0  0  0  0  0  0  0  0  0  0  0  0
   -1.7430   -0.3802    0.6350 C   0  0  0  0  0  0  0  0  0  0  0  0
   -1.8201    0.2494   -0.7309 C   0  0  0  0  0  0  0  0  0  0  0  0
   -1.1354    1.3402    0.0017 C   0  0  0  0  0  0  0  0  0  0  0  0
    0.3479    1.1718    0.1376 C   0  0  0  0  0  0  0  0  0  0  0  0
   -1.7068    0.8779    1.2089 O   0  0  0  0  0  0  0  0  0  0  0  0
    3.7300   -0.2275   -0.0398 H   0  0  0  0  0  0  0  0  0  0  0  0
    2.1367   -1.7378    0.0193 H   0  0  0  0  0  0  0  0  0  0  0  0
    1.3512   -0.7234   -1.2765 H   0  0  0  0  0  0  0  0  0  0  0  0
    1.2182   -0.1176    1.6858 H   0  0  0  0  0  0  0  0  0  0  0  0
   -0.3955   -1.8034    1.6151 H   0  0  0  0  0  0  0  0  0  0  0  0
   -0.3757   -1.7756   -0.1802 H   0  0  0  0  0  0  0  0  0  0  0  0
   -2.6206   -1.0065    0.8717 H   0  0  0  0  0  0  0  0  0  0  0  0
   -1.2574   -0.2755   -1.5243 H   0  0  0  0  0  0  0  0  0  0  0  0
   -2.8604    0.5166   -0.9752 H   0  0  0  0  0  0  0  0  0  0  0  0
   -1.4153    2.3707   -0.2090 H   0  0  0  0  0  0  0  0  0  0  0  0
    0.6952    1.9327    0.8974 H   0  0  0  0  0  0  0  0  0  0  0  0
    0.8892    1.4353   -0.7931 H   0  0  0  0  0  0  0  0  0  0  0  0
  1  2  1  0
  2  3  1  0
  3  4  1  0
  4  5  1  0
  5  6  1  0
  6  7  1  0
  7  8  1  0
  7  9  1  0
  8  3  1  0
  9  5  1  0
  1 10  1  0
  2 11  1  0
  2 12  1  0
  3 13  1  0
  4 14  1  0
  4 15  1  0
  5 16  1  0
  6 17  1  0
  6 18  1  0
  7 19  1  0
  8 20  1  0
  8 21  1  0
M  END
