
     RDKit          3D

 19 19  0  0  0  0  0  0  0  0999 V2000
   -3.0839   -0.0999   -1.0527 O   0  0  0  0  0  0  0  0  0  0  0  0
   -2.3909    0.3635    0.0456 C   0  0  0  0  0  0  0  0  0  0  0  0
   -0.9220    0.2135   -0.0783 C   0  0  0  0  0  0  0  0  0  0  0  0
   -0.1604    1.3253   -0.0251 C   0  0  0  0  0  0  0  0  0  0  0  0
    1.2850    1.4448   -0.1204 C   0  0  0  0  0  0  0  0  0  0  0  0
    2.1640    0.5160    0.1891 C   0  0  0  0  0  0  0  0  0  0  0  0
    1.9472   -0.8540    0.7007 C   0  0  0  0  0  0  0  0  0  0  0  0
    0.8314   -1.5847    0.0677 C   0  0  0  0  0  0  0  0  0  0  0  0
   -0.3672   -1.1288   -0.2543 C   0  0  0  0  0  0  0  0  0  0  0  0
   -2.5665   -0.1517   -1.8783 H   0  0  0  0  0  0  0  0  0  0  0  0
   -2.7322   -0.1427    0.9964 H   0  0  0  0  0  0  0  0  0  0  0  0
   -2.6247    1.4411    0.1618 H   0  0  0  0  0  0  0  0  0  0  0  0
   -0.7518    2.2121    0.1051 H   0  0  0  0  0  0  0  0  0  0  0  0
    1.6382    2.3917   -0.4761 H   0  0  0  0  0  0  0  0  0  0  0  0
    3.2281    0.7968    0.0471 H   0  0  0  0  0  0  0  0  0  0  0  0
    2.8933   -1.4396    0.6625 H   0  0  0  0  0  0  0  0  0  0  0  0
    1.6969   -0.8371    1.8046 H   0  0  0  0  0  0  0  0  0  0  0  0
    1.0032   -2.6482   -0.1740 H   0  0  0  0  0  0  0  0  0  0  0  0
   -1.0878   -1.8180   -0.7215 H   0  0  0  0  0  0  0  0  0  0  0  0
  1  2  1  0
  2  3  1  0
  3  4  2  0
  4  5  1  0
  5  6  2  0
  6  7  1  0
  7  8  1  0
  8  9  2  0
  9  3  1  0
  1 10  1  0
  2 11  1  0
  2 12  1  0
  4 13  1  0
  5 14  1  0
  6 15  1  0
  7 16  1  0
  7 17  1  0
  8 18  1  0
  9 19  1  0
M  END
