
     RDKit          3D

 21 22  0  0  0  0  0  0  0  0999 V2000
    2.1772    1.4892    0.2815 O   0  0  0  0  0  0  0  0  0  0  0  0
    1.9964    0.1441    0.0252 C   0  0  0  0  0  0  0  0  0  0  0  0
    0.6205   -0.1853   -0.4864 C   0  0  0  0  0  0  0  0  0  0  0  0
   -0.4862    0.2080    0.5157 C   0  0  0  0  0  0  0  0  0  0  0  0
   -1.0307    1.5829    0.3034 C   0  0  0  0  0  0  0  0  0  0  0  0
   -1.5784    1.6732   -0.9741 O   0  0  0  0  0  0  0  0  0  0  0  0
   -1.2150   -0.8557   -0.2903 C   0  0  0  0  0  0  0  0  0  0  0  0
   -1.0149   -2.2622   -0.3097 C   0  0  0  0  0  0  0  0  0  0  0  0
    0.1853   -1.5560   -0.0110 C   0  0  0  0  0  0  0  0  0  0  0  0
    3.1350    1.6902    0.1368 H   0  0  0  0  0  0  0  0  0  0  0  0
    2.1677   -0.4397    0.9689 H   0  0  0  0  0  0  0  0  0  0  0  0
    2.7655   -0.2006   -0.6931 H   0  0  0  0  0  0  0  0  0  0  0  0
    0.3987    0.0615   -1.5223 H   0  0  0  0  0  0  0  0  0  0  0  0
   -0.1944   -0.0884    1.5163 H   0  0  0  0  0  0  0  0  0  0  0  0
   -1.8721    1.7160    1.0141 H   0  0  0  0  0  0  0  0  0  0  0  0
   -0.3135    2.3858    0.5023 H   0  0  0  0  0  0  0  0  0  0  0  0
   -2.2912    2.3787   -0.9548 H   0  0  0  0  0  0  0  0  0  0  0  0
   -1.2926   -0.4125   -1.3383 H   0  0  0  0  0  0  0  0  0  0  0  0
   -1.0123   -2.8612   -1.2706 H   0  0  0  0  0  0  0  0  0  0  0  0
   -1.5857   -2.8592    0.4639 H   0  0  0  0  0  0  0  0  0  0  0  0
    0.4404   -1.6089    1.0982 H   0  0  0  0  0  0  0  0  0  0  0  0
  1  2  1  0
  2  3  1  0
  3  4  1  0
  4  5  1  0
  5  6  1  0
  4  7  1  0
  7  8  1  0
  8  9  1  0
  9  3  1  0
  9  7  1  0
  1 10  1  0
  2 11  1  0
  2 12  1  0
  3 13  1  0
  4 14  1  0
  5 15  1  0
  5 16  1  0
  6 17  1  0
  7 18  1  0
  8 19  1  0
  8 20  1  0
  9 21  1  0
M  END
