
     RDKit          3D

 19 20  0  0  0  0  0  0  0  0999 V2000
    2.2820    0.0492    1.3251 O   0  0  0  0  0  0  0  0  0  0  0  0
    2.1125   -0.5424    0.0982 C   0  0  0  0  0  0  0  0  0  0  0  0
    0.7699   -0.2372   -0.5215 C   0  0  0  0  0  0  0  0  0  0  0  0
    0.5443    1.1955   -0.7397 C   0  0  0  0  0  0  0  0  0  0  0  0
   -0.6802    1.4932   -0.3649 C   0  0  0  0  0  0  0  0  0  0  0  0
   -1.4544    0.3727    0.1462 C   0  0  0  0  0  0  0  0  0  0  0  0
   -2.1733    0.6755    1.3059 O   0  0  0  0  0  0  0  0  0  0  0  0
   -1.6382   -0.9239   -0.5051 C   0  0  0  0  0  0  0  0  0  0  0  0
   -0.3760   -0.7185    0.2725 C   0  0  0  0  0  0  0  0  0  0  0  0
    1.5863    0.7464    1.4249 H   0  0  0  0  0  0  0  0  0  0  0  0
    2.8811   -0.2783   -0.6437 H   0  0  0  0  0  0  0  0  0  0  0  0
    2.1543   -1.6588    0.2064 H   0  0  0  0  0  0  0  0  0  0  0  0
    0.7791   -0.7382   -1.5413 H   0  0  0  0  0  0  0  0  0  0  0  0
    1.2919    1.9273   -1.1588 H   0  0  0  0  0  0  0  0  0  0  0  0
   -1.0613    2.5344   -0.4468 H   0  0  0  0  0  0  0  0  0  0  0  0
   -2.7925   -0.0786    1.4734 H   0  0  0  0  0  0  0  0  0  0  0  0
   -2.4308   -1.5726   -0.0417 H   0  0  0  0  0  0  0  0  0  0  0  0
   -1.5324   -1.1039   -1.5760 H   0  0  0  0  0  0  0  0  0  0  0  0
   -0.2623   -1.1420    1.2868 H   0  0  0  0  0  0  0  0  0  0  0  0
  1  2  1  0
  2  3  1  0
  3  4  1  0
  4  5  2  0
  5  6  1  0
  6  7  1  0
  6  8  1  0
  8  9  1  0
  9  3  1  0
  9  6  1  0
  1 10  1  0
  2 11  1  0
  2 12  1  0
  3 13  1  0
  4 14  1  0
  5 15  1  0
  7 16  1  0
  8 17  1  0
  8 18  1  0
  9 19  1  0
M  END
