
     RDKit          3D

 23 23  0  0  0  0  0  0  0  0999 V2000
    3.2273    0.6983   -0.3516 O   0  0  0  0  0  0  0  0  0  0  0  0
    2.3416   -0.3119   -0.6175 C   0  0  0  0  0  0  0  0  0  0  0  0
    1.0887   -0.2422    0.2152 C   0  0  0  0  0  0  0  0  0  0  0  0
    0.1811   -1.3522   -0.1176 C   0  0  0  0  0  0  0  0  0  0  0  0
   -1.0917   -1.4910    0.1682 C   0  0  0  0  0  0  0  0  0  0  0  0
   -1.9855   -0.5622    0.9137 C   0  0  0  0  0  0  0  0  0  0  0  0
   -2.1118    0.7346    0.1491 C   0  0  0  0  0  0  0  0  0  0  0  0
   -0.8867    1.0413   -0.6738 C   0  0  0  0  0  0  0  0  0  0  0  0
    0.3736    1.0579    0.1202 C   0  0  0  0  0  0  0  0  0  0  0  0
    3.8172    0.4601    0.4181 H   0  0  0  0  0  0  0  0  0  0  0  0
    2.1121   -0.3933   -1.7059 H   0  0  0  0  0  0  0  0  0  0  0  0
    2.8485   -1.2792   -0.3519 H   0  0  0  0  0  0  0  0  0  0  0  0
    1.4011   -0.3924    1.2819 H   0  0  0  0  0  0  0  0  0  0  0  0
    0.6228   -2.1572   -0.6697 H   0  0  0  0  0  0  0  0  0  0  0  0
   -1.5511   -2.4059   -0.1877 H   0  0  0  0  0  0  0  0  0  0  0  0
   -2.9736   -0.9961    1.0871 H   0  0  0  0  0  0  0  0  0  0  0  0
   -1.4482   -0.3203    1.8752 H   0  0  0  0  0  0  0  0  0  0  0  0
   -2.9685    0.6312   -0.5501 H   0  0  0  0  0  0  0  0  0  0  0  0
   -2.3543    1.5581    0.8398 H   0  0  0  0  0  0  0  0  0  0  0  0
   -0.8105    0.3597   -1.5358 H   0  0  0  0  0  0  0  0  0  0  0  0
   -1.0419    2.0616   -1.1012 H   0  0  0  0  0  0  0  0  0  0  0  0
    0.1429    1.4856    1.1375 H   0  0  0  0  0  0  0  0  0  0  0  0
    1.0671    1.8156   -0.3429 H   0  0  0  0  0  0  0  0  0  0  0  0
  1  2  1  0
  2  3  1  0
  3  4  1  0
  4  5  2  0
  5  6  1  0
  6  7  1  0
  7  8  1  0
  8  9  1  0
  9  3  1  0
  1 10  1  0
  2 11  1  0
  2 12  1  0
  3 13  1  0
  4 14  1  0
  5 15  1  0
  6 16  1  0
  6 17  1  0
  7 18  1  0
  7 19  1  0
  8 20  1  0
  8 21  1  0
  9 22  1  0
  9 23  1  0
M  END
