
     RDKit          3D

 18 19  0  0  0  0  0  0  0  0999 V2000
    3.1031   -0.3873   -0.2673 O   0  0  0  0  0  0  0  0  0  0  0  0
    2.1977    0.6537   -0.1873 C   0  0  0  0  0  0  0  0  0  0  0  0
    0.8807    0.1200    0.2958 C   0  0  0  0  0  0  0  0  0  0  0  0
   -0.2961    1.0234   -0.0994 C   0  0  0  0  0  0  0  0  0  0  0  0
   -0.9079   -0.3040   -0.1762 C   0  0  0  0  0  0  0  0  0  0  0  0
   -2.1942   -0.6590   -0.7002 C   0  0  0  0  0  0  0  0  0  0  0  0
   -1.8345   -0.9145    0.7556 C   0  0  0  0  0  0  0  0  0  0  0  0
    0.3039   -0.8572   -0.5162 O   0  0  0  0  0  0  0  0  0  0  0  0
    3.3012   -0.6754    0.6605 H   0  0  0  0  0  0  0  0  0  0  0  0
    2.0999    1.2394   -1.1226 H   0  0  0  0  0  0  0  0  0  0  0  0
    2.5772    1.3630    0.5800 H   0  0  0  0  0  0  0  0  0  0  0  0
    0.8024   -0.0976    1.3691 H   0  0  0  0  0  0  0  0  0  0  0  0
   -0.1696    1.4583   -1.1333 H   0  0  0  0  0  0  0  0  0  0  0  0
   -0.6058    1.7367    0.6619 H   0  0  0  0  0  0  0  0  0  0  0  0
   -2.9778    0.1258   -0.8281 H   0  0  0  0  0  0  0  0  0  0  0  0
   -2.2462   -1.5348   -1.3895 H   0  0  0  0  0  0  0  0  0  0  0  0
   -2.3096   -0.2957    1.5337 H   0  0  0  0  0  0  0  0  0  0  0  0
   -1.7244   -1.9949    1.0113 H   0  0  0  0  0  0  0  0  0  0  0  0
  1  2  1  0
  2  3  1  0
  3  4  1  0
  4  5  1  0
  5  6  1  0
  6  7  1  0
  5  8  1  0
  8  3  1  0
  7  5  1  0
  1  9  1  0
  2 10  1  0
  2 11  1  0
  3 12  1  0
  4 13  1  0
  4 14  1  0
  6 15  1  0
  6 16  1  0
  7 17  1  0
  7 18  1  0
M  END
