
     RDKit          3D

 19 20  0  0  0  0  0  0  0  0999 V2000
    2.7089   -0.0266   -0.9976 O   0  0  0  0  0  0  0  0  0  0  0  0
    1.8202   -0.8056   -0.2593 C   0  0  0  0  0  0  0  0  0  0  0  0
    0.7629    0.1748    0.2785 C   0  0  0  0  0  0  0  0  0  0  0  0
    1.4085    1.1404    1.0849 O   0  0  0  0  0  0  0  0  0  0  0  0
   -0.2862    0.6257   -0.5336 C   0  0  0  0  0  0  0  0  0  0  0  0
   -1.6536    1.1539   -0.3228 C   0  0  0  0  0  0  0  0  0  0  0  0
   -2.4264   -0.0255   -0.3486 O   0  0  0  0  0  0  0  0  0  0  0  0
   -1.5662   -1.0922   -0.0046 C   0  0  0  0  0  0  0  0  0  0  0  0
   -0.4575   -0.3839    0.6771 C   0  0  0  0  0  0  0  0  0  0  0  0
    2.7125    0.9031   -0.6620 H   0  0  0  0  0  0  0  0  0  0  0  0
    2.3337   -1.2962    0.5848 H   0  0  0  0  0  0  0  0  0  0  0  0
    1.3539   -1.5259   -0.9693 H   0  0  0  0  0  0  0  0  0  0  0  0
    1.3992    0.8896    2.0334 H   0  0  0  0  0  0  0  0  0  0  0  0
   -0.2824    0.1437   -1.5638 H   0  0  0  0  0  0  0  0  0  0  0  0
   -1.7884    1.5781    0.7114 H   0  0  0  0  0  0  0  0  0  0  0  0
   -1.9677    1.8484   -1.1120 H   0  0  0  0  0  0  0  0  0  0  0  0
   -2.0352   -1.7937    0.6967 H   0  0  0  0  0  0  0  0  0  0  0  0
   -1.1540   -1.5833   -0.9185 H   0  0  0  0  0  0  0  0  0  0  0  0
   -0.8825    0.0752    1.6253 H   0  0  0  0  0  0  0  0  0  0  0  0
  1  2  1  0
  2  3  1  0
  3  4  1  0
  3  5  1  0
  5  6  1  0
  6  7  1  0
  7  8  1  0
  8  9  1  0
  9  3  1  0
  9  5  1  0
  1 10  1  0
  2 11  1  0
  2 12  1  0
  4 13  1  0
  5 14  1  0
  6 15  1  0
  6 16  1  0
  8 17  1  0
  8 18  1  0
  9 19  1  0
M  END
