
     RDKit          3D

 19 20  0  0  0  0  0  0  0  0999 V2000
   -1.3268    1.6959    0.0211 O   0  0  0  0  0  0  0  0  0  0  0  0
   -0.4364    0.9940   -0.7803 C   0  0  0  0  0  0  0  0  0  0  0  0
    0.2716   -0.1066   -0.0580 C   0  0  0  0  0  0  0  0  0  0  0  0
   -0.5995   -1.1129    0.6347 C   0  0  0  0  0  0  0  0  0  0  0  0
   -2.0325   -1.1412    0.2882 C   0  0  0  0  0  0  0  0  0  0  0  0
   -1.5500   -0.5775    1.5620 O   0  0  0  0  0  0  0  0  0  0  0  0
    1.4734    0.3030    0.7549 C   0  0  0  0  0  0  0  0  0  0  0  0
    2.2662   -0.0622   -0.4605 C   0  0  0  0  0  0  0  0  0  0  0  0
    1.1456   -0.7615   -0.9283 O   0  0  0  0  0  0  0  0  0  0  0  0
   -2.0632    2.0636   -0.5449 H   0  0  0  0  0  0  0  0  0  0  0  0
   -1.0337    0.5168   -1.6014 H   0  0  0  0  0  0  0  0  0  0  0  0
    0.3447    1.6594   -1.2192 H   0  0  0  0  0  0  0  0  0  0  0  0
   -0.1453   -2.0856    0.8916 H   0  0  0  0  0  0  0  0  0  0  0  0
   -2.4622   -0.3197   -0.3082 H   0  0  0  0  0  0  0  0  0  0  0  0
   -2.6483   -2.0599    0.4494 H   0  0  0  0  0  0  0  0  0  0  0  0
    1.6512   -0.4525    1.5698 H   0  0  0  0  0  0  0  0  0  0  0  0
    1.5096    1.3386    1.0944 H   0  0  0  0  0  0  0  0  0  0  0  0
    2.5089    0.8460   -1.0701 H   0  0  0  0  0  0  0  0  0  0  0  0
    3.1267   -0.7377   -0.2953 H   0  0  0  0  0  0  0  0  0  0  0  0
  1  2  1  0
  2  3  1  0
  3  4  1  0
  4  5  1  0
  5  6  1  0
  3  7  1  0
  7  8  1  0
  8  9  1  0
  9  3  1  0
  6  4  1  0
  1 10  1  0
  2 11  1  0
  2 12  1  0
  4 13  1  0
  5 14  1  0
  5 15  1  0
  7 16  1  0
  7 17  1  0
  8 18  1  0
  8 19  1  0
M  END
