
     RDKit          3D

 19 20  0  0  0  0  0  0  0  0999 V2000
    2.6316   -0.5629   -0.0817 O   0  0  0  0  0  0  0  0  0  0  0  0
    1.6926    0.2005    0.6561 C   0  0  0  0  0  0  0  0  0  0  0  0
    0.3732   -0.4499    0.5455 C   0  0  0  0  0  0  0  0  0  0  0  0
    0.4063   -1.7590    1.0514 O   0  0  0  0  0  0  0  0  0  0  0  0
   -0.8616    0.2783    0.9581 C   0  0  0  0  0  0  0  0  0  0  0  0
   -1.5675   -0.7315    0.0620 C   0  0  0  0  0  0  0  0  0  0  0  0
   -0.3574   -0.2821   -0.7334 C   0  0  0  0  0  0  0  0  0  0  0  0
   -0.7376    1.0840   -0.2768 C   0  0  0  0  0  0  0  0  0  0  0  0
   -2.0058    1.4139   -0.7750 O   0  0  0  0  0  0  0  0  0  0  0  0
    3.5287   -0.2881    0.2596 H   0  0  0  0  0  0  0  0  0  0  0  0
    1.7502    1.2101    0.2169 H   0  0  0  0  0  0  0  0  0  0  0  0
    2.0906    0.2266    1.7112 H   0  0  0  0  0  0  0  0  0  0  0  0
    0.4229   -2.4312    0.3322 H   0  0  0  0  0  0  0  0  0  0  0  0
   -1.1575    0.5412    1.8737 H   0  0  0  0  0  0  0  0  0  0  0  0
   -2.4976   -0.3795   -0.4013 H   0  0  0  0  0  0  0  0  0  0  0  0
   -1.5330   -1.7673    0.4188 H   0  0  0  0  0  0  0  0  0  0  0  0
   -0.1092   -0.5886   -1.6507 H   0  0  0  0  0  0  0  0  0  0  0  0
   -0.0159    1.8939   -0.3236 H   0  0  0  0  0  0  0  0  0  0  0  0
   -2.0529    2.3916   -0.7857 H   0  0  0  0  0  0  0  0  0  0  0  0
  1  2  1  0
  2  3  1  0
  3  4  1  0
  3  5  1  0
  5  6  1  0
  6  7  1  0
  7  8  1  0
  8  9  1  0
  7  3  1  0
  8  5  1  0
  1 10  1  0
  2 11  1  0
  2 12  1  0
  4 13  1  0
  5 14  1  0
  6 15  1  0
  6 16  1  0
  7 17  1  0
  8 18  1  0
  9 19  1  0
M  END
