
     RDKit          3D

 21 22  0  0  0  0  0  0  0  0999 V2000
    3.2370    0.7349   -0.2560 O   0  0  0  0  0  0  0  0  0  0  0  0
    2.4676   -0.3854    0.0525 C   0  0  0  0  0  0  0  0  0  0  0  0
    1.1787   -0.2510   -0.7234 C   0  0  0  0  0  0  0  0  0  0  0  0
    0.2101   -1.4365   -0.4798 C   0  0  0  0  0  0  0  0  0  0  0  0
   -0.8355   -0.4130   -0.7649 C   0  0  0  0  0  0  0  0  0  0  0  0
   -2.0681   -0.3818    0.1112 C   0  0  0  0  0  0  0  0  0  0  0  0
   -2.0928    1.0952    0.5321 C   0  0  0  0  0  0  0  0  0  0  0  0
   -0.6259    1.3777    0.6524 C   0  0  0  0  0  0  0  0  0  0  0  0
    0.1142    0.5399   -0.0431 C   0  0  0  0  0  0  0  0  0  0  0  0
    2.6076    1.5063   -0.3065 H   0  0  0  0  0  0  0  0  0  0  0  0
    2.3064   -0.4741    1.1272 H   0  0  0  0  0  0  0  0  0  0  0  0
    3.0283   -1.2736   -0.3057 H   0  0  0  0  0  0  0  0  0  0  0  0
    1.2792    0.0099   -1.7744 H   0  0  0  0  0  0  0  0  0  0  0  0
    0.2109   -1.7093    0.5978 H   0  0  0  0  0  0  0  0  0  0  0  0
    0.3367   -2.2528   -1.1958 H   0  0  0  0  0  0  0  0  0  0  0  0
   -1.0138   -0.1433   -1.8050 H   0  0  0  0  0  0  0  0  0  0  0  0
   -2.0360   -1.0599    0.9591 H   0  0  0  0  0  0  0  0  0  0  0  0
   -2.9469   -0.4989   -0.5568 H   0  0  0  0  0  0  0  0  0  0  0  0
   -2.5409    1.6962   -0.2695 H   0  0  0  0  0  0  0  0  0  0  0  0
   -2.6155    1.1352    1.4954 H   0  0  0  0  0  0  0  0  0  0  0  0
   -0.2013    2.1844    1.2464 H   0  0  0  0  0  0  0  0  0  0  0  0
  1  2  1  0
  2  3  1  0
  3  4  1  0
  4  5  1  0
  5  6  1  0
  6  7  1  0
  7  8  1  0
  8  9  2  0
  9  3  1  0
  9  5  1  0
  1 10  1  0
  2 11  1  0
  2 12  1  0
  3 13  1  0
  4 14  1  0
  4 15  1  0
  5 16  1  0
  6 17  1  0
  6 18  1  0
  7 19  1  0
  7 20  1  0
  8 21  1  0
M  END
