
     RDKit          3D

 21 22  0  0  0  0  0  0  0  0999 V2000
    2.2413   -1.1578   -0.5747 O   0  0  0  0  0  0  0  0  0  0  0  0
    1.7573    0.1467   -0.5795 C   0  0  0  0  0  0  0  0  0  0  0  0
    0.3828    0.2517    0.0316 C   0  0  0  0  0  0  0  0  0  0  0  0
   -0.1498    1.6321    0.0359 C   0  0  0  0  0  0  0  0  0  0  0  0
   -1.6186    1.4869    0.0631 C   0  0  0  0  0  0  0  0  0  0  0  0
   -1.9152    0.2858   -0.3867 C   0  0  0  0  0  0  0  0  0  0  0  0
   -0.6968   -0.4801   -0.7516 C   0  0  0  0  0  0  0  0  0  0  0  0
   -0.5105   -1.6333    0.2184 C   0  0  0  0  0  0  0  0  0  0  0  0
    0.1116   -0.6395    1.2010 C   0  0  0  0  0  0  0  0  0  0  0  0
    2.5891   -1.3110    0.3553 H   0  0  0  0  0  0  0  0  0  0  0  0
    2.4264    0.8583   -0.0534 H   0  0  0  0  0  0  0  0  0  0  0  0
    1.6943    0.5250   -1.6338 H   0  0  0  0  0  0  0  0  0  0  0  0
    0.0938    2.0867   -0.9629 H   0  0  0  0  0  0  0  0  0  0  0  0
    0.2337    2.2670    0.8625 H   0  0  0  0  0  0  0  0  0  0  0  0
   -2.3448    2.2677    0.4078 H   0  0  0  0  0  0  0  0  0  0  0  0
   -2.9231   -0.0906   -0.4769 H   0  0  0  0  0  0  0  0  0  0  0  0
   -0.5022   -0.6715   -1.8008 H   0  0  0  0  0  0  0  0  0  0  0  0
   -1.4764   -2.0457    0.5455 H   0  0  0  0  0  0  0  0  0  0  0  0
    0.1657   -2.4301   -0.1219 H   0  0  0  0  0  0  0  0  0  0  0  0
   -0.5866   -0.2938    1.9607 H   0  0  0  0  0  0  0  0  0  0  0  0
    1.0280   -1.0543    1.6602 H   0  0  0  0  0  0  0  0  0  0  0  0
  1  2  1  0
  2  3  1  0
  3  4  1  0
  4  5  1  0
  5  6  2  0
  6  7  1  0
  7  8  1  0
  8  9  1  0
  7  3  1  0
  9  3  1  0
  1 10  1  0
  2 11  1  0
  2 12  1  0
  4 13  1  0
  4 14  1  0
  5 15  1  0
  6 16  1  0
  7 17  1  0
  8 18  1  0
  8 19  1  0
  9 20  1  0
  9 21  1  0
M  END
