
     RDKit          3D

 19 20  0  0  0  0  0  0  0  0999 V2000
   -2.2617   -0.6627    1.2226 O   0  0  0  0  0  0  0  0  0  0  0  0
   -1.9106   -1.0763   -0.0698 C   0  0  0  0  0  0  0  0  0  0  0  0
   -0.6356   -0.3877   -0.4831 C   0  0  0  0  0  0  0  0  0  0  0  0
   -0.8076    1.1119   -0.4810 C   0  0  0  0  0  0  0  0  0  0  0  0
   -0.5118    1.1037    0.8761 O   0  0  0  0  0  0  0  0  0  0  0  0
    0.2728   -0.0198    0.6502 C   0  0  0  0  0  0  0  0  0  0  0  0
    1.6516    0.4033    0.1916 C   0  0  0  0  0  0  0  0  0  0  0  0
    2.8264    0.0762    1.0458 C   0  0  0  0  0  0  0  0  0  0  0  0
    2.5488   -0.7398   -0.0732 O   0  0  0  0  0  0  0  0  0  0  0  0
   -2.9378    0.0820    1.1819 H   0  0  0  0  0  0  0  0  0  0  0  0
   -2.7173   -0.7168   -0.7477 H   0  0  0  0  0  0  0  0  0  0  0  0
   -1.8765   -2.1634   -0.1444 H   0  0  0  0  0  0  0  0  0  0  0  0
   -0.1384   -0.8155   -1.3682 H   0  0  0  0  0  0  0  0  0  0  0  0
   -0.0971    1.6563   -1.1369 H   0  0  0  0  0  0  0  0  0  0  0  0
   -1.8732    1.3972   -0.6174 H   0  0  0  0  0  0  0  0  0  0  0  0
    0.2787   -0.7588    1.4797 H   0  0  0  0  0  0  0  0  0  0  0  0
    1.7759    1.2383   -0.5086 H   0  0  0  0  0  0  0  0  0  0  0  0
    2.6763   -0.4211    2.0486 H   0  0  0  0  0  0  0  0  0  0  0  0
    3.7370    0.6932    0.9066 H   0  0  0  0  0  0  0  0  0  0  0  0
  1  2  1  0
  2  3  1  0
  3  4  1  0
  4  5  1  0
  5  6  1  0
  6  7  1  0
  7  8  1  0
  8  9  1  0
  6  3  1  0
  9  7  1  0
  1 10  1  0
  2 11  1  0
  2 12  1  0
  3 13  1  0
  4 14  1  0
  4 15  1  0
  6 16  1  0
  7 17  1  0
  8 18  1  0
  8 19  1  0
M  END
