
     RDKit          3D

 21 22  0  0  0  0  0  0  0  0999 V2000
    3.7346   -0.3024   -0.1402 O   0  0  0  0  0  0  0  0  0  0  0  0
    2.7644    0.2896   -0.9531 C   0  0  0  0  0  0  0  0  0  0  0  0
    1.3686   -0.1138   -0.4843 C   0  0  0  0  0  0  0  0  0  0  0  0
    1.1884    0.3366    0.9028 O   0  0  0  0  0  0  0  0  0  0  0  0
    0.4362    0.9203   -0.1848 C   0  0  0  0  0  0  0  0  0  0  0  0
   -1.0525    0.7380   -0.1159 C   0  0  0  0  0  0  0  0  0  0  0  0
   -1.5152   -0.2778    0.9338 C   0  0  0  0  0  0  0  0  0  0  0  0
   -2.6288   -0.6289   -0.0634 C   0  0  0  0  0  0  0  0  0  0  0  0
   -1.6205   -0.2358   -1.1536 C   0  0  0  0  0  0  0  0  0  0  0  0
    3.3838   -1.1719    0.1493 H   0  0  0  0  0  0  0  0  0  0  0  0
    2.8663    1.4084   -0.8548 H   0  0  0  0  0  0  0  0  0  0  0  0
    2.9197   -0.0112   -1.9935 H   0  0  0  0  0  0  0  0  0  0  0  0
    1.1285   -1.1751   -0.5429 H   0  0  0  0  0  0  0  0  0  0  0  0
    0.7424    1.9825   -0.3345 H   0  0  0  0  0  0  0  0  0  0  0  0
   -1.6529    1.6481   -0.0323 H   0  0  0  0  0  0  0  0  0  0  0  0
   -0.8185   -1.1400    0.9810 H   0  0  0  0  0  0  0  0  0  0  0  0
   -1.8552    0.1461    1.8748 H   0  0  0  0  0  0  0  0  0  0  0  0
   -2.9063   -1.6807   -0.0536 H   0  0  0  0  0  0  0  0  0  0  0  0
   -3.4385    0.1105    0.0416 H   0  0  0  0  0  0  0  0  0  0  0  0
   -0.9302   -1.0732   -1.3710 H   0  0  0  0  0  0  0  0  0  0  0  0
   -2.1142    0.2307   -2.0022 H   0  0  0  0  0  0  0  0  0  0  0  0
  1  2  1  0
  2  3  1  0
  3  4  1  0
  4  5  1  0
  5  6  1  0
  6  7  1  0
  7  8  1  0
  8  9  1  0
  5  3  1  0
  9  6  1  0
  1 10  1  0
  2 11  1  0
  2 12  1  0
  3 13  1  0
  5 14  1  0
  6 15  1  0
  7 16  1  0
  7 17  1  0
  8 18  1  0
  8 19  1  0
  9 20  1  0
  9 21  1  0
M  END
