
     RDKit          3D

 19 19  0  0  0  0  0  0  0  0999 V2000
    2.9026    0.3587    0.2258 O   0  0  0  0  0  0  0  0  0  0  0  0
    1.8994    0.3546   -0.7217 C   0  0  0  0  0  0  0  0  0  0  0  0
    0.5778    0.0821   -0.0451 C   0  0  0  0  0  0  0  0  0  0  0  0
   -0.0647   -1.0067   -0.4608 C   0  0  0  0  0  0  0  0  0  0  0  0
   -1.3750   -1.4947    0.0404 C   0  0  0  0  0  0  0  0  0  0  0  0
   -2.1717   -0.4647    0.4793 O   0  0  0  0  0  0  0  0  0  0  0  0
   -1.8823    0.7620   -0.0649 C   0  0  0  0  0  0  0  0  0  0  0  0
   -1.1033    1.5691    0.7586 O   0  0  0  0  0  0  0  0  0  0  0  0
    0.1541    1.0567    0.9986 C   0  0  0  0  0  0  0  0  0  0  0  0
    3.0735   -0.5509    0.5725 H   0  0  0  0  0  0  0  0  0  0  0  0
    1.8077    1.3729   -1.1485 H   0  0  0  0  0  0  0  0  0  0  0  0
    2.0862   -0.4292   -1.4586 H   0  0  0  0  0  0  0  0  0  0  0  0
    0.4066   -1.6086   -1.2463 H   0  0  0  0  0  0  0  0  0  0  0  0
   -1.1373   -2.1242    0.9480 H   0  0  0  0  0  0  0  0  0  0  0  0
   -1.8666   -2.1845   -0.6675 H   0  0  0  0  0  0  0  0  0  0  0  0
   -2.8663    1.3096   -0.1642 H   0  0  0  0  0  0  0  0  0  0  0  0
   -1.4886    0.7110   -1.1074 H   0  0  0  0  0  0  0  0  0  0  0  0
    0.9366    1.8134    1.0964 H   0  0  0  0  0  0  0  0  0  0  0  0
    0.1111    0.4735    1.9652 H   0  0  0  0  0  0  0  0  0  0  0  0
  1  2  1  0
  2  3  1  0
  3  4  2  0
  4  5  1  0
  5  6  1  0
  6  7  1  0
  7  8  1  0
  8  9  1  0
  9  3  1  0
  1 10  1  0
  2 11  1  0
  2 12  1  0
  4 13  1  0
  5 14  1  0
  5 15  1  0
  7 16  1  0
  7 17  1  0
  9 18  1  0
  9 19  1  0
M  END
