
     RDKit          3D

 19 20  0  0  0  0  0  0  0  0999 V2000
    2.7999    1.1357   -0.3061 O   0  0  0  0  0  0  0  0  0  0  0  0
    1.9795    0.2522   -0.9870 C   0  0  0  0  0  0  0  0  0  0  0  0
    0.6973    0.0311   -0.2532 C   0  0  0  0  0  0  0  0  0  0  0  0
    0.3999    0.6109    0.8957 C   0  0  0  0  0  0  0  0  0  0  0  0
   -0.9573    0.3439    1.4667 C   0  0  0  0  0  0  0  0  0  0  0  0
   -2.0317    0.4043    0.4155 C   0  0  0  0  0  0  0  0  0  0  0  0
   -1.4785   -0.9627    0.1168 C   0  0  0  0  0  0  0  0  0  0  0  0
   -0.3178   -0.8940   -0.8353 C   0  0  0  0  0  0  0  0  0  0  0  0
   -1.1011   -1.0639    1.4401 O   0  0  0  0  0  0  0  0  0  0  0  0
    3.6640    0.6854   -0.1635 H   0  0  0  0  0  0  0  0  0  0  0  0
    2.4910   -0.6896   -1.2445 H   0  0  0  0  0  0  0  0  0  0  0  0
    1.7078    0.7385   -1.9467 H   0  0  0  0  0  0  0  0  0  0  0  0
    1.0680    1.2618    1.4477 H   0  0  0  0  0  0  0  0  0  0  0  0
   -1.1704    0.8077    2.4266 H   0  0  0  0  0  0  0  0  0  0  0  0
   -1.9087    1.1564   -0.3754 H   0  0  0  0  0  0  0  0  0  0  0  0
   -3.0237    0.3266    0.8831 H   0  0  0  0  0  0  0  0  0  0  0  0
   -2.2598   -1.7159   -0.1750 H   0  0  0  0  0  0  0  0  0  0  0  0
   -0.6683   -0.5340   -1.8214 H   0  0  0  0  0  0  0  0  0  0  0  0
    0.1095   -1.8943   -0.9840 H   0  0  0  0  0  0  0  0  0  0  0  0
  1  2  1  0
  2  3  1  0
  3  4  2  0
  4  5  1  0
  5  6  1  0
  6  7  1  0
  7  8  1  0
  7  9  1  0
  8  3  1  0
  9  5  1  0
  1 10  1  0
  2 11  1  0
  2 12  1  0
  4 13  1  0
  5 14  1  0
  6 15  1  0
  6 16  1  0
  7 17  1  0
  8 18  1  0
  8 19  1  0
M  END
