
     RDKit          3D

 21 22  0  0  0  0  0  0  0  0999 V2000
    2.7518    0.5140   -0.4698 O   0  0  0  0  0  0  0  0  0  0  0  0
    1.9953    0.2655    0.6782 C   0  0  0  0  0  0  0  0  0  0  0  0
    0.5718   -0.1494    0.2849 C   0  0  0  0  0  0  0  0  0  0  0  0
   -0.3435   -0.4448    1.4201 C   0  0  0  0  0  0  0  0  0  0  0  0
   -1.4728    0.3747    1.4452 O   0  0  0  0  0  0  0  0  0  0  0  0
   -2.2208    0.2545    0.2850 C   0  0  0  0  0  0  0  0  0  0  0  0
   -1.4808    0.6198   -0.9495 C   0  0  0  0  0  0  0  0  0  0  0  0
   -0.0093    0.5073   -0.8817 C   0  0  0  0  0  0  0  0  0  0  0  0
    0.5131   -0.9366   -0.9876 C   0  0  0  0  0  0  0  0  0  0  0  0
    3.3739   -0.2674   -0.5866 H   0  0  0  0  0  0  0  0  0  0  0  0
    1.9176    1.2398    1.2148 H   0  0  0  0  0  0  0  0  0  0  0  0
    2.4098   -0.5426    1.2920 H   0  0  0  0  0  0  0  0  0  0  0  0
    0.1736   -0.2698    2.4063 H   0  0  0  0  0  0  0  0  0  0  0  0
   -0.6151   -1.5223    1.4068 H   0  0  0  0  0  0  0  0  0  0  0  0
   -3.0833    0.9600    0.3928 H   0  0  0  0  0  0  0  0  0  0  0  0
   -2.6845   -0.7646    0.2215 H   0  0  0  0  0  0  0  0  0  0  0  0
   -1.8750   -0.0222   -1.7909 H   0  0  0  0  0  0  0  0  0  0  0  0
   -1.7436    1.6688   -1.2771 H   0  0  0  0  0  0  0  0  0  0  0  0
    0.6019    1.3035   -1.3740 H   0  0  0  0  0  0  0  0  0  0  0  0
   -0.2135   -1.7453   -1.1270 H   0  0  0  0  0  0  0  0  0  0  0  0
    1.4336   -1.0429   -1.6032 H   0  0  0  0  0  0  0  0  0  0  0  0
  1  2  1  0
  2  3  1  0
  3  4  1  0
  4  5  1  0
  5  6  1  0
  6  7  1  0
  7  8  1  0
  8  9  1  0
  8  3  1  0
  9  3  1  0
  1 10  1  0
  2 11  1  0
  2 12  1  0
  4 13  1  0
  4 14  1  0
  6 15  1  0
  6 16  1  0
  7 17  1  0
  7 18  1  0
  8 19  1  0
  9 20  1  0
  9 21  1  0
M  END
