
     RDKit          3D

 19 20  0  0  0  0  0  0  0  0999 V2000
    2.7006   -0.0642    0.2516 O   0  0  0  0  0  0  0  0  0  0  0  0
    1.5550   -0.7388   -0.2049 C   0  0  0  0  0  0  0  0  0  0  0  0
    0.4479    0.2801   -0.2549 C   0  0  0  0  0  0  0  0  0  0  0  0
    0.7658    1.3072   -1.1084 O   0  0  0  0  0  0  0  0  0  0  0  0
    0.1278    0.8625    1.1285 C   0  0  0  0  0  0  0  0  0  0  0  0
   -1.3406    0.8171    0.6798 C   0  0  0  0  0  0  0  0  0  0  0  0
   -0.9347   -0.2135   -0.2918 C   0  0  0  0  0  0  0  0  0  0  0  0
   -1.5747   -1.2158   -0.9345 C   0  0  0  0  0  0  0  0  0  0  0  0
   -1.0081   -1.5463    0.3708 O   0  0  0  0  0  0  0  0  0  0  0  0
    2.4851    0.6790    0.8515 H   0  0  0  0  0  0  0  0  0  0  0  0
    1.3388   -1.6106    0.4152 H   0  0  0  0  0  0  0  0  0  0  0  0
    1.7818   -1.0110   -1.2691 H   0  0  0  0  0  0  0  0  0  0  0  0
    0.2752    1.2923   -1.9614 H   0  0  0  0  0  0  0  0  0  0  0  0
    0.5236    1.8659    1.2956 H   0  0  0  0  0  0  0  0  0  0  0  0
    0.2877    0.1220    1.9376 H   0  0  0  0  0  0  0  0  0  0  0  0
   -1.6215    1.8042    0.2606 H   0  0  0  0  0  0  0  0  0  0  0  0
   -2.0372    0.5272    1.4838 H   0  0  0  0  0  0  0  0  0  0  0  0
   -2.6824   -1.3065   -0.9548 H   0  0  0  0  0  0  0  0  0  0  0  0
   -1.0903   -1.8509   -1.6950 H   0  0  0  0  0  0  0  0  0  0  0  0
  1  2  1  0
  2  3  1  0
  3  4  1  0
  3  5  1  0
  5  6  1  0
  6  7  1  0
  7  8  1  0
  8  9  1  0
  7  3  1  0
  9  7  1  0
  1 10  1  0
  2 11  1  0
  2 12  1  0
  4 13  1  0
  5 14  1  0
  5 15  1  0
  6 16  1  0
  6 17  1  0
  8 18  1  0
  8 19  1  0
M  END
