
     RDKit          3D

 21 22  0  0  0  0  0  0  0  0999 V2000
    2.7103    0.3412    0.4437 O   0  0  0  0  0  0  0  0  0  0  0  0
    1.8549   -0.7046    0.2049 C   0  0  0  0  0  0  0  0  0  0  0  0
    0.7261   -0.2187   -0.6645 C   0  0  0  0  0  0  0  0  0  0  0  0
   -0.2292   -1.3906   -0.9300 C   0  0  0  0  0  0  0  0  0  0  0  0
   -1.1238   -0.7895    0.1484 C   0  0  0  0  0  0  0  0  0  0  0  0
   -2.4582   -0.7990   -0.2035 O   0  0  0  0  0  0  0  0  0  0  0  0
   -0.3898    0.4866   -0.0167 C   0  0  0  0  0  0  0  0  0  0  0  0
   -0.9892    1.7338   -0.4935 C   0  0  0  0  0  0  0  0  0  0  0  0
   -0.3446    1.5841    0.8997 C   0  0  0  0  0  0  0  0  0  0  0  0
    2.8084    0.4667    1.3995 H   0  0  0  0  0  0  0  0  0  0  0  0
    1.4326   -1.1621    1.1367 H   0  0  0  0  0  0  0  0  0  0  0  0
    2.3543   -1.5400   -0.3297 H   0  0  0  0  0  0  0  0  0  0  0  0
    1.0715    0.2262   -1.6048 H   0  0  0  0  0  0  0  0  0  0  0  0
    0.1782   -2.3746   -0.7186 H   0  0  0  0  0  0  0  0  0  0  0  0
   -0.7299   -1.2438   -1.9143 H   0  0  0  0  0  0  0  0  0  0  0  0
   -0.9113   -1.2994    1.1076 H   0  0  0  0  0  0  0  0  0  0  0  0
   -2.9869   -1.2878    0.4846 H   0  0  0  0  0  0  0  0  0  0  0  0
   -0.3559    2.3307   -1.2081 H   0  0  0  0  0  0  0  0  0  0  0  0
   -2.0725    1.7841   -0.5669 H   0  0  0  0  0  0  0  0  0  0  0  0
    0.5645    2.1904    1.1028 H   0  0  0  0  0  0  0  0  0  0  0  0
   -1.1096    1.6664    1.7226 H   0  0  0  0  0  0  0  0  0  0  0  0
  1  2  1  0
  2  3  1  0
  3  4  1  0
  4  5  1  0
  5  6  1  0
  5  7  1  0
  7  8  1  0
  8  9  1  0
  7  3  1  0
  9  7  1  0
  1 10  1  0
  2 11  1  0
  2 12  1  0
  3 13  1  0
  4 14  1  0
  4 15  1  0
  5 16  1  0
  6 17  1  0
  8 18  1  0
  8 19  1  0
  9 20  1  0
  9 21  1  0
M  END
