
     RDKit          3D

 21 21  0  0  0  0  0  0  0  0999 V2000
    2.1517   -1.2069   -0.3232 O   0  0  0  0  0  0  0  0  0  0  0  0
    1.0196   -0.8907   -1.0782 C   0  0  0  0  0  0  0  0  0  0  0  0
    0.1152   -0.0677   -0.1904 C   0  0  0  0  0  0  0  0  0  0  0  0
    0.8661    1.2009    0.2368 C   0  0  0  0  0  0  0  0  0  0  0  0
    2.0229    0.8704    0.9368 O   0  0  0  0  0  0  0  0  0  0  0  0
   -0.4886   -0.8230    0.9455 C   0  0  0  0  0  0  0  0  0  0  0  0
   -1.8678   -0.4250    0.4498 C   0  0  0  0  0  0  0  0  0  0  0  0
   -1.2424    0.2362   -0.7499 C   0  0  0  0  0  0  0  0  0  0  0  0
   -1.5238    1.6046   -0.7619 O   0  0  0  0  0  0  0  0  0  0  0  0
    1.9048   -1.9836    0.2443 H   0  0  0  0  0  0  0  0  0  0  0  0
    0.5441   -1.8019   -1.4565 H   0  0  0  0  0  0  0  0  0  0  0  0
    1.2979   -0.2318   -1.9428 H   0  0  0  0  0  0  0  0  0  0  0  0
    0.2184    1.8493    0.8610 H   0  0  0  0  0  0  0  0  0  0  0  0
    1.1562    1.7983   -0.6495 H   0  0  0  0  0  0  0  0  0  0  0  0
    2.7301    1.5478    0.8468 H   0  0  0  0  0  0  0  0  0  0  0  0
   -0.3708   -1.9228    0.9222 H   0  0  0  0  0  0  0  0  0  0  0  0
   -0.2834   -0.3578    1.9358 H   0  0  0  0  0  0  0  0  0  0  0  0
   -2.4060    0.2777    1.1233 H   0  0  0  0  0  0  0  0  0  0  0  0
   -2.5228   -1.2918    0.1991 H   0  0  0  0  0  0  0  0  0  0  0  0
   -1.5186   -0.3045   -1.6779 H   0  0  0  0  0  0  0  0  0  0  0  0
   -1.8030    1.9225    0.1289 H   0  0  0  0  0  0  0  0  0  0  0  0
  1  2  1  0
  2  3  1  0
  3  4  1  0
  4  5  1  0
  3  6  1  0
  6  7  1  0
  7  8  1  0
  8  9  1  0
  8  3  1  0
  1 10  1  0
  2 11  1  0
  2 12  1  0
  4 13  1  0
  4 14  1  0
  5 15  1  0
  6 16  1  0
  6 17  1  0
  7 18  1  0
  7 19  1  0
  8 20  1  0
  9 21  1  0
M  END
