
     RDKit          3D

 21 22  0  0  0  0  0  0  0  0999 V2000
    2.6143   -0.1806   -0.5913 O   0  0  0  0  0  0  0  0  0  0  0  0
    1.8030   -0.9661    0.2164 C   0  0  0  0  0  0  0  0  0  0  0  0
    0.4515   -0.3770    0.2651 C   0  0  0  0  0  0  0  0  0  0  0  0
    0.4334    1.1222    0.5034 C   0  0  0  0  0  0  0  0  0  0  0  0
   -1.0187    1.4392    0.1392 C   0  0  0  0  0  0  0  0  0  0  0  0
   -1.5157    0.2284   -0.5766 C   0  0  0  0  0  0  0  0  0  0  0  0
   -1.7373   -0.8533    0.4781 C   0  0  0  0  0  0  0  0  0  0  0  0
   -0.4702   -1.0456    1.0299 O   0  0  0  0  0  0  0  0  0  0  0  0
   -0.1943   -0.3324   -1.1352 C   0  0  0  0  0  0  0  0  0  0  0  0
    3.4537    0.0742   -0.1169 H   0  0  0  0  0  0  0  0  0  0  0  0
    1.7320   -1.9604   -0.2799 H   0  0  0  0  0  0  0  0  0  0  0  0
    2.1939   -1.0926    1.2236 H   0  0  0  0  0  0  0  0  0  0  0  0
    0.6896    1.4067    1.5142 H   0  0  0  0  0  0  0  0  0  0  0  0
    1.0542    1.5934   -0.2920 H   0  0  0  0  0  0  0  0  0  0  0  0
   -1.0717    2.3713   -0.4257 H   0  0  0  0  0  0  0  0  0  0  0  0
   -1.6084    1.5253    1.0975 H   0  0  0  0  0  0  0  0  0  0  0  0
   -2.2865    0.3400   -1.2924 H   0  0  0  0  0  0  0  0  0  0  0  0
   -2.5014   -0.5877    1.2040 H   0  0  0  0  0  0  0  0  0  0  0  0
   -1.9822   -1.7900   -0.1013 H   0  0  0  0  0  0  0  0  0  0  0  0
   -0.3200   -1.3256   -1.5551 H   0  0  0  0  0  0  0  0  0  0  0  0
    0.2808    0.4107   -1.7717 H   0  0  0  0  0  0  0  0  0  0  0  0
  1  2  1  0
  2  3  1  0
  3  4  1  0
  4  5  1  0
  5  6  1  0
  6  7  1  0
  7  8  1  0
  6  9  1  0
  8  3  1  0
  9  3  1  0
  1 10  1  0
  2 11  1  0
  2 12  1  0
  4 13  1  0
  4 14  1  0
  5 15  1  0
  5 16  1  0
  6 17  1  0
  7 18  1  0
  7 19  1  0
  9 20  1  0
  9 21  1  0
M  END
