
     RDKit          3D

 19 20  0  0  0  0  0  0  0  0999 V2000
   -1.3858    1.8197   -0.7325 O   0  0  0  0  0  0  0  0  0  0  0  0
   -1.4577    0.4341   -0.6832 C   0  0  0  0  0  0  0  0  0  0  0  0
   -0.7305   -0.0283    0.5500 C   0  0  0  0  0  0  0  0  0  0  0  0
   -0.7159   -1.5292    0.7532 C   0  0  0  0  0  0  0  0  0  0  0  0
    0.6342   -1.4224    1.1658 O   0  0  0  0  0  0  0  0  0  0  0  0
    0.7056   -0.2833    0.4304 C   0  0  0  0  0  0  0  0  0  0  0  0
    1.6952    0.7517    0.7654 C   0  0  0  0  0  0  0  0  0  0  0  0
    2.4857    0.2898   -0.2962 O   0  0  0  0  0  0  0  0  0  0  0  0
    1.3494   -0.3046   -0.8971 C   0  0  0  0  0  0  0  0  0  0  0  0
   -1.6520    2.1661   -1.6422 H   0  0  0  0  0  0  0  0  0  0  0  0
   -1.0923   -0.0505   -1.5914 H   0  0  0  0  0  0  0  0  0  0  0  0
   -2.5319    0.1132   -0.5618 H   0  0  0  0  0  0  0  0  0  0  0  0
   -1.1137    0.4980    1.4350 H   0  0  0  0  0  0  0  0  0  0  0  0
   -0.8168   -2.1230   -0.2000 H   0  0  0  0  0  0  0  0  0  0  0  0
   -1.3344   -1.9101    1.5736 H   0  0  0  0  0  0  0  0  0  0  0  0
    1.3519    1.7923    0.4938 H   0  0  0  0  0  0  0  0  0  0  0  0
    2.1713    0.7555    1.7455 H   0  0  0  0  0  0  0  0  0  0  0  0
    0.9074    0.3494   -1.6746 H   0  0  0  0  0  0  0  0  0  0  0  0
    1.5301   -1.3183   -1.2929 H   0  0  0  0  0  0  0  0  0  0  0  0
  1  2  1  0
  2  3  1  0
  3  4  1  0
  4  5  1  0
  5  6  1  0
  6  7  1  0
  7  8  1  0
  8  9  1  0
  6  3  1  0
  9  6  1  0
  1 10  1  0
  2 11  1  0
  2 12  1  0
  3 13  1  0
  4 14  1  0
  4 15  1  0
  7 16  1  0
  7 17  1  0
  9 18  1  0
  9 19  1  0
M  END
