
     RDKit          3D

 21 22  0  0  0  0  0  0  0  0999 V2000
    2.8100    0.3431   -0.5573 O   0  0  0  0  0  0  0  0  0  0  0  0
    1.6077    0.9886   -0.2811 C   0  0  0  0  0  0  0  0  0  0  0  0
    0.5722    0.0430    0.2945 C   0  0  0  0  0  0  0  0  0  0  0  0
    0.9857   -0.5360    1.4739 O   0  0  0  0  0  0  0  0  0  0  0  0
    0.2648   -1.0022   -0.7305 C   0  0  0  0  0  0  0  0  0  0  0  0
   -1.2305   -1.0441   -0.9055 C   0  0  0  0  0  0  0  0  0  0  0  0
   -1.7582    0.2078   -0.2476 C   0  0  0  0  0  0  0  0  0  0  0  0
   -1.8516    0.1962    1.2182 C   0  0  0  0  0  0  0  0  0  0  0  0
   -0.6896    0.8234    0.5402 C   0  0  0  0  0  0  0  0  0  0  0  0
    3.5510    0.7610   -0.0375 H   0  0  0  0  0  0  0  0  0  0  0  0
    1.2105    1.4482   -1.2089 H   0  0  0  0  0  0  0  0  0  0  0  0
    1.8044    1.8311    0.4203 H   0  0  0  0  0  0  0  0  0  0  0  0
    1.7099   -1.1980    1.3714 H   0  0  0  0  0  0  0  0  0  0  0  0
    0.6929   -1.9999   -0.4982 H   0  0  0  0  0  0  0  0  0  0  0  0
    0.6927   -0.7205   -1.7293 H   0  0  0  0  0  0  0  0  0  0  0  0
   -1.5189   -1.0846   -1.9741 H   0  0  0  0  0  0  0  0  0  0  0  0
   -1.5911   -1.9524   -0.3610 H   0  0  0  0  0  0  0  0  0  0  0  0
   -2.3700    0.8523   -0.8915 H   0  0  0  0  0  0  0  0  0  0  0  0
   -1.7301   -0.7521    1.7838 H   0  0  0  0  0  0  0  0  0  0  0  0
   -2.5859    0.8750    1.6749 H   0  0  0  0  0  0  0  0  0  0  0  0
   -0.5758    1.9201    0.6455 H   0  0  0  0  0  0  0  0  0  0  0  0
  1  2  1  0
  2  3  1  0
  3  4  1  0
  3  5  1  0
  5  6  1  0
  6  7  1  0
  7  8  1  0
  8  9  1  0
  9  3  1  0
  9  7  1  0
  1 10  1  0
  2 11  1  0
  2 12  1  0
  4 13  1  0
  5 14  1  0
  5 15  1  0
  6 16  1  0
  6 17  1  0
  7 18  1  0
  8 19  1  0
  8 20  1  0
  9 21  1  0
M  END
