
     RDKit          3D

 19 20  0  0  0  0  0  0  0  0999 V2000
   -1.8570    1.8431   -0.1738 O   0  0  0  0  0  0  0  0  0  0  0  0
   -1.9425    0.6166    0.4301 C   0  0  0  0  0  0  0  0  0  0  0  0
   -0.7499   -0.2647    0.1112 C   0  0  0  0  0  0  0  0  0  0  0  0
    0.6170    0.2082    0.4686 C   0  0  0  0  0  0  0  0  0  0  0  0
    1.7483   -0.7228    0.1186 C   0  0  0  0  0  0  0  0  0  0  0  0
    1.6157    0.6386   -0.5249 C   0  0  0  0  0  0  0  0  0  0  0  0
    2.6117    1.5359   -0.1202 O   0  0  0  0  0  0  0  0  0  0  0  0
   -0.9658   -1.4402   -0.6618 C   0  0  0  0  0  0  0  0  0  0  0  0
   -0.9964   -1.5612    0.8426 O   0  0  0  0  0  0  0  0  0  0  0  0
   -1.9578    1.7329   -1.1428 H   0  0  0  0  0  0  0  0  0  0  0  0
   -2.8576    0.0878    0.0986 H   0  0  0  0  0  0  0  0  0  0  0  0
   -2.0637    0.7360    1.5473 H   0  0  0  0  0  0  0  0  0  0  0  0
    0.6670    0.7334    1.4506 H   0  0  0  0  0  0  0  0  0  0  0  0
    1.6305   -1.5474   -0.5742 H   0  0  0  0  0  0  0  0  0  0  0  0
    2.4957   -0.8694    0.9225 H   0  0  0  0  0  0  0  0  0  0  0  0
    1.3965    0.7130   -1.6062 H   0  0  0  0  0  0  0  0  0  0  0  0
    2.8620    1.3928    0.8409 H   0  0  0  0  0  0  0  0  0  0  0  0
   -2.0151   -1.6601   -1.0284 H   0  0  0  0  0  0  0  0  0  0  0  0
   -0.2385   -2.1725   -0.9987 H   0  0  0  0  0  0  0  0  0  0  0  0
  1  2  1  0
  2  3  1  0
  3  4  1  0
  4  5  1  0
  5  6  1  0
  6  7  1  0
  3  8  1  0
  8  9  1  0
  9  3  1  0
  6  4  1  0
  1 10  1  0
  2 11  1  0
  2 12  1  0
  4 13  1  0
  5 14  1  0
  5 15  1  0
  6 16  1  0
  7 17  1  0
  8 18  1  0
  8 19  1  0
M  END
