
     RDKit          3D

 19 19  0  0  0  0  0  0  0  0999 V2000
   -3.0423   -0.9942    0.0729 O   0  0  0  0  0  0  0  0  0  0  0  0
   -2.3009    0.1841   -0.0146 C   0  0  0  0  0  0  0  0  0  0  0  0
   -0.8955   -0.1354    0.3898 C   0  0  0  0  0  0  0  0  0  0  0  0
   -0.2490   -1.0865   -0.3784 O   0  0  0  0  0  0  0  0  0  0  0  0
    0.8575   -0.2783   -0.4752 C   0  0  0  0  0  0  0  0  0  0  0  0
    2.0650   -0.7467    0.3085 C   0  0  0  0  0  0  0  0  0  0  0  0
    3.1214    0.1444    0.1372 O   0  0  0  0  0  0  0  0  0  0  0  0
    0.1406    0.9025    0.1347 C   0  0  0  0  0  0  0  0  0  0  0  0
   -0.1567    1.8678   -0.8150 O   0  0  0  0  0  0  0  0  0  0  0  0
   -2.4366   -1.7735   -0.0064 H   0  0  0  0  0  0  0  0  0  0  0  0
   -2.3839    0.6215   -1.0232 H   0  0  0  0  0  0  0  0  0  0  0  0
   -2.7248    0.8697    0.7604 H   0  0  0  0  0  0  0  0  0  0  0  0
   -0.8777   -0.4531    1.4603 H   0  0  0  0  0  0  0  0  0  0  0  0
    1.1179   -0.1170   -1.5565 H   0  0  0  0  0  0  0  0  0  0  0  0
    2.3318   -1.7832    0.1079 H   0  0  0  0  0  0  0  0  0  0  0  0
    1.7746   -0.6624    1.3956 H   0  0  0  0  0  0  0  0  0  0  0  0
    3.8432   -0.2878   -0.4021 H   0  0  0  0  0  0  0  0  0  0  0  0
    0.7142    1.2691    1.0145 H   0  0  0  0  0  0  0  0  0  0  0  0
   -0.8989    2.4590   -0.5653 H   0  0  0  0  0  0  0  0  0  0  0  0
  1  2  1  0
  2  3  1  0
  3  4  1  0
  4  5  1  0
  5  6  1  0
  6  7  1  0
  5  8  1  0
  8  9  1  0
  8  3  1  0
  1 10  1  0
  2 11  1  0
  2 12  1  0
  3 13  1  0
  5 14  1  0
  6 15  1  0
  6 16  1  0
  7 17  1  0
  8 18  1  0
  9 19  1  0
M  END
