
     RDKit          3D

 21 22  0  0  0  0  0  0  0  0999 V2000
   -2.6869   -0.0604    1.1015 O   0  0  0  0  0  0  0  0  0  0  0  0
   -2.0418   -0.5888   -0.0027 C   0  0  0  0  0  0  0  0  0  0  0  0
   -0.6309   -0.1141   -0.0318 C   0  0  0  0  0  0  0  0  0  0  0  0
    0.2038   -0.7645   -1.1388 C   0  0  0  0  0  0  0  0  0  0  0  0
    1.3725   -0.6397   -0.1531 C   0  0  0  0  0  0  0  0  0  0  0  0
    1.8720    0.7736   -0.0887 C   0  0  0  0  0  0  0  0  0  0  0  0
    0.7560    1.7413   -0.0205 C   0  0  0  0  0  0  0  0  0  0  0  0
   -0.5006    1.2437   -0.1041 O   0  0  0  0  0  0  0  0  0  0  0  0
    0.3076   -0.7769    0.9443 C   0  0  0  0  0  0  0  0  0  0  0  0
   -3.6815   -0.0514    0.9876 H   0  0  0  0  0  0  0  0  0  0  0  0
   -2.0600   -1.7169    0.0418 H   0  0  0  0  0  0  0  0  0  0  0  0
   -2.5814   -0.3043   -0.9101 H   0  0  0  0  0  0  0  0  0  0  0  0
   -0.0860   -1.8064   -1.2833 H   0  0  0  0  0  0  0  0  0  0  0  0
    0.3150   -0.1470   -2.0461 H   0  0  0  0  0  0  0  0  0  0  0  0
    2.0998   -1.4394   -0.1867 H   0  0  0  0  0  0  0  0  0  0  0  0
    2.4662    0.8559    0.8674 H   0  0  0  0  0  0  0  0  0  0  0  0
    2.5894    1.0009   -0.9158 H   0  0  0  0  0  0  0  0  0  0  0  0
    0.8908    2.4824   -0.8627 H   0  0  0  0  0  0  0  0  0  0  0  0
    0.8110    2.3864    0.9050 H   0  0  0  0  0  0  0  0  0  0  0  0
    0.5460   -0.2286    1.8509 H   0  0  0  0  0  0  0  0  0  0  0  0
    0.0390   -1.8457    1.0459 H   0  0  0  0  0  0  0  0  0  0  0  0
  1  2  1  0
  2  3  1  0
  3  4  1  0
  4  5  1  0
  5  6  1  0
  6  7  1  0
  7  8  1  0
  5  9  1  0
  8  3  1  0
  9  3  1  0
  1 10  1  0
  2 11  1  0
  2 12  1  0
  4 13  1  0
  4 14  1  0
  5 15  1  0
  6 16  1  0
  6 17  1  0
  7 18  1  0
  7 19  1  0
  9 20  1  0
  9 21  1  0
M  END
