
     RDKit          3D

 23 24  0  0  0  0  0  0  0  0999 V2000
    2.6940   -1.8319   -0.2676 O   0  0  0  0  0  0  0  0  0  0  0  0
    2.3665   -0.4984   -0.3655 C   0  0  0  0  0  0  0  0  0  0  0  0
    1.1185   -0.1354    0.4074 C   0  0  0  0  0  0  0  0  0  0  0  0
    0.8432    1.2953    0.2499 C   0  0  0  0  0  0  0  0  0  0  0  0
   -0.6665    1.3215    0.1854 C   0  0  0  0  0  0  0  0  0  0  0  0
   -1.1902    0.1006   -0.3392 C   0  0  0  0  0  0  0  0  0  0  0  0
   -2.5718    0.4636   -0.5345 C   0  0  0  0  0  0  0  0  0  0  0  0
   -2.2388   -0.8199   -0.6876 C   0  0  0  0  0  0  0  0  0  0  0  0
   -0.1105   -0.8175   -0.0850 C   0  0  0  0  0  0  0  0  0  0  0  0
    3.2486   -2.0521   -1.0823 H   0  0  0  0  0  0  0  0  0  0  0  0
    2.2210   -0.2591   -1.4439 H   0  0  0  0  0  0  0  0  0  0  0  0
    3.2092    0.1233   -0.0239 H   0  0  0  0  0  0  0  0  0  0  0  0
    1.3531   -0.3427    1.4838 H   0  0  0  0  0  0  0  0  0  0  0  0
    1.2260    1.8984    1.0937 H   0  0  0  0  0  0  0  0  0  0  0  0
    1.3087    1.7057   -0.6869 H   0  0  0  0  0  0  0  0  0  0  0  0
   -0.8513    2.2925   -0.3733 H   0  0  0  0  0  0  0  0  0  0  0  0
   -1.0069    1.5686    1.2345 H   0  0  0  0  0  0  0  0  0  0  0  0
   -2.7802    1.1467   -1.4170 H   0  0  0  0  0  0  0  0  0  0  0  0
   -3.2823    0.7706    0.2941 H   0  0  0  0  0  0  0  0  0  0  0  0
   -2.1714   -1.2735   -1.7295 H   0  0  0  0  0  0  0  0  0  0  0  0
   -2.6503   -1.6303   -0.0073 H   0  0  0  0  0  0  0  0  0  0  0  0
   -0.2816   -1.6550    0.6601 H   0  0  0  0  0  0  0  0  0  0  0  0
    0.2130   -1.3711   -1.0204 H   0  0  0  0  0  0  0  0  0  0  0  0
  1  2  1  0
  2  3  1  0
  3  4  1  0
  4  5  1  0
  5  6  1  0
  6  7  1  0
  7  8  1  0
  6  9  1  0
  9  3  1  0
  8  6  1  0
  1 10  1  0
  2 11  1  0
  2 12  1  0
  3 13  1  0
  4 14  1  0
  4 15  1  0
  5 16  1  0
  5 17  1  0
  7 18  1  0
  7 19  1  0
  8 20  1  0
  8 21  1  0
  9 22  1  0
  9 23  1  0
M  END
