
     RDKit          3D

 21 22  0  0  0  0  0  0  0  0999 V2000
   -1.9342    1.2842    1.3893 O   0  0  0  0  0  0  0  0  0  0  0  0
   -1.9452    0.2137    0.5080 C   0  0  0  0  0  0  0  0  0  0  0  0
   -0.5967   -0.1636    0.0063 C   0  0  0  0  0  0  0  0  0  0  0  0
    0.1441    0.8952   -0.7389 C   0  0  0  0  0  0  0  0  0  0  0  0
    1.4179    1.2787   -0.0244 C   0  0  0  0  0  0  0  0  0  0  0  0
    2.2638    0.0700    0.1171 C   0  0  0  0  0  0  0  0  0  0  0  0
    1.6752   -1.0660    0.4350 C   0  0  0  0  0  0  0  0  0  0  0  0
    0.2122   -1.2016    0.6590 C   0  0  0  0  0  0  0  0  0  0  0  0
   -0.5572   -1.6020   -0.5823 C   0  0  0  0  0  0  0  0  0  0  0  0
   -2.7877    1.8025    1.2972 H   0  0  0  0  0  0  0  0  0  0  0  0
   -2.5570    0.5445   -0.3770 H   0  0  0  0  0  0  0  0  0  0  0  0
   -2.4915   -0.6655    0.9295 H   0  0  0  0  0  0  0  0  0  0  0  0
   -0.4581    1.8201   -0.8666 H   0  0  0  0  0  0  0  0  0  0  0  0
    0.4250    0.4700   -1.7368 H   0  0  0  0  0  0  0  0  0  0  0  0
    1.9556    2.0722   -0.5821 H   0  0  0  0  0  0  0  0  0  0  0  0
    1.1329    1.6689    0.9818 H   0  0  0  0  0  0  0  0  0  0  0  0
    3.3208    0.1671   -0.0445 H   0  0  0  0  0  0  0  0  0  0  0  0
    2.2683   -1.9641    0.5450 H   0  0  0  0  0  0  0  0  0  0  0  0
   -0.0473   -1.6466    1.6291 H   0  0  0  0  0  0  0  0  0  0  0  0
   -0.0373   -1.7192   -1.5422 H   0  0  0  0  0  0  0  0  0  0  0  0
   -1.4035   -2.2583   -0.3918 H   0  0  0  0  0  0  0  0  0  0  0  0
  1  2  1  0
  2  3  1  0
  3  4  1  0
  4  5  1  0
  5  6  1  0
  6  7  2  0
  7  8  1  0
  8  9  1  0
  8  3  1  0
  9  3  1  0
  1 10  1  0
  2 11  1  0
  2 12  1  0
  4 13  1  0
  4 14  1  0
  5 15  1  0
  5 16  1  0
  6 17  1  0
  7 18  1  0
  8 19  1  0
  9 20  1  0
  9 21  1  0
M  END
