
     RDKit          3D

 19 20  0  0  0  0  0  0  0  0999 V2000
    2.5236    0.5893   -1.3946 O   0  0  0  0  0  0  0  0  0  0  0  0
    2.1205    0.8024   -0.0819 C   0  0  0  0  0  0  0  0  0  0  0  0
    0.7622    0.1919    0.1520 C   0  0  0  0  0  0  0  0  0  0  0  0
    0.1005   -0.4406   -0.7912 C   0  0  0  0  0  0  0  0  0  0  0  0
   -1.1723   -0.9039   -0.2255 C   0  0  0  0  0  0  0  0  0  0  0  0
   -2.1450    0.2060    0.0148 C   0  0  0  0  0  0  0  0  0  0  0  0
   -2.3532   -0.2718    1.3139 O   0  0  0  0  0  0  0  0  0  0  0  0
   -1.0575   -0.7882    1.2601 C   0  0  0  0  0  0  0  0  0  0  0  0
    0.0314    0.2376    1.4301 C   0  0  0  0  0  0  0  0  0  0  0  0
    2.8548   -0.3460   -1.4381 H   0  0  0  0  0  0  0  0  0  0  0  0
    2.8693    0.3702    0.6169 H   0  0  0  0  0  0  0  0  0  0  0  0
    1.9796    1.8955    0.1085 H   0  0  0  0  0  0  0  0  0  0  0  0
    0.4231   -0.6083   -1.8345 H   0  0  0  0  0  0  0  0  0  0  0  0
   -1.5893   -1.8328   -0.6301 H   0  0  0  0  0  0  0  0  0  0  0  0
   -3.0237    0.1429   -0.6454 H   0  0  0  0  0  0  0  0  0  0  0  0
   -1.7211    1.2278   -0.0022 H   0  0  0  0  0  0  0  0  0  0  0  0
   -0.8982   -1.7127    1.8295 H   0  0  0  0  0  0  0  0  0  0  0  0
    0.6654   -0.0289    2.3014 H   0  0  0  0  0  0  0  0  0  0  0  0
   -0.3702    1.2697    1.5246 H   0  0  0  0  0  0  0  0  0  0  0  0
  1  2  1  0
  2  3  1  0
  3  4  2  0
  4  5  1  0
  5  6  1  0
  6  7  1  0
  7  8  1  0
  8  9  1  0
  9  3  1  0
  8  5  1  0
  1 10  1  0
  2 11  1  0
  2 12  1  0
  4 13  1  0
  5 14  1  0
  6 15  1  0
  6 16  1  0
  8 17  1  0
  9 18  1  0
  9 19  1  0
M  END
