
     RDKit          3D

 16 17  0  0  0  0  0  0  0  0999 V2000
   -2.4925   -0.9365    0.6495 O   0  0  0  0  0  0  0  0  0  0  0  0
   -1.7745   -0.0921   -0.2291 C   0  0  0  0  0  0  0  0  0  0  0  0
   -0.3978    0.0526    0.3542 C   0  0  0  0  0  0  0  0  0  0  0  0
    0.5763    0.8920   -0.3667 C   0  0  0  0  0  0  0  0  0  0  0  0
    0.6203   -0.0823   -1.3477 O   0  0  0  0  0  0  0  0  0  0  0  0
    0.6588   -0.8561   -0.1962 C   0  0  0  0  0  0  0  0  0  0  0  0
    1.6671    0.1084    0.3271 C   0  0  0  0  0  0  0  0  0  0  0  0
    2.8674    0.1966   -0.3279 O   0  0  0  0  0  0  0  0  0  0  0  0
   -3.4362   -1.0140    0.3965 H   0  0  0  0  0  0  0  0  0  0  0  0
   -2.3375    0.8607   -0.2648 H   0  0  0  0  0  0  0  0  0  0  0  0
   -1.7677   -0.5792   -1.2196 H   0  0  0  0  0  0  0  0  0  0  0  0
   -0.3596    0.1769    1.4395 H   0  0  0  0  0  0  0  0  0  0  0  0
    0.5792    1.8910   -0.5060 H   0  0  0  0  0  0  0  0  0  0  0  0
    0.6799   -1.8624   -0.1460 H   0  0  0  0  0  0  0  0  0  0  0  0
    1.6719    0.1486    1.4225 H   0  0  0  0  0  0  0  0  0  0  0  0
    3.2446    1.0960   -0.1765 H   0  0  0  0  0  0  0  0  0  0  0  0
  1  2  1  0
  2  3  1  0
  3  4  1  0
  4  5  1  0
  5  6  1  0
  6  7  1  0
  7  8  1  0
  6  3  1  0
  7  4  1  0
  1  9  1  0
  2 10  1  0
  2 11  1  0
  3 12  1  0
  4 13  1  0
  6 14  1  0
  7 15  1  0
  8 16  1  0
M  END
