
     RDKit          3D

 21 21  0  0  0  0  0  0  0  0999 V2000
   -2.0119   -1.8931   -0.5369 O   0  0  0  0  0  0  0  0  0  0  0  0
   -1.9266   -0.5611   -0.1866 C   0  0  0  0  0  0  0  0  0  0  0  0
   -0.5828    0.0508   -0.5464 C   0  0  0  0  0  0  0  0  0  0  0  0
   -0.5924    1.5092   -0.1217 C   0  0  0  0  0  0  0  0  0  0  0  0
    0.6786    1.2841    0.6564 C   0  0  0  0  0  0  0  0  0  0  0  0
    0.4992   -0.1864    0.4814 C   0  0  0  0  0  0  0  0  0  0  0  0
    0.0089   -0.9010    1.5435 O   0  0  0  0  0  0  0  0  0  0  0  0
    1.7635   -0.8127   -0.0528 C   0  0  0  0  0  0  0  0  0  0  0  0
    2.2694   -0.0911   -1.1347 O   0  0  0  0  0  0  0  0  0  0  0  0
   -2.9747   -2.1426   -0.4911 H   0  0  0  0  0  0  0  0  0  0  0  0
   -2.7220   -0.0227   -0.7478 H   0  0  0  0  0  0  0  0  0  0  0  0
   -2.0860   -0.3853    0.8940 H   0  0  0  0  0  0  0  0  0  0  0  0
   -0.2738   -0.1059   -1.6008 H   0  0  0  0  0  0  0  0  0  0  0  0
   -0.5495    2.2270   -0.9436 H   0  0  0  0  0  0  0  0  0  0  0  0
   -1.4037    1.7863    0.5815 H   0  0  0  0  0  0  0  0  0  0  0  0
    1.5332    1.7333    0.1094 H   0  0  0  0  0  0  0  0  0  0  0  0
    0.6603    1.5728    1.7178 H   0  0  0  0  0  0  0  0  0  0  0  0
    0.3817   -0.6389    2.4068 H   0  0  0  0  0  0  0  0  0  0  0  0
    1.6247   -1.8823   -0.3134 H   0  0  0  0  0  0  0  0  0  0  0  0
    2.5162   -0.7560    0.7650 H   0  0  0  0  0  0  0  0  0  0  0  0
    3.1877    0.2157   -0.9691 H   0  0  0  0  0  0  0  0  0  0  0  0
  1  2  1  0
  2  3  1  0
  3  4  1  0
  4  5  1  0
  5  6  1  0
  6  7  1  0
  6  8  1  0
  8  9  1  0
  6  3  1  0
  1 10  1  0
  2 11  1  0
  2 12  1  0
  3 13  1  0
  4 14  1  0
  4 15  1  0
  5 16  1  0
  5 17  1  0
  7 18  1  0
  8 19  1  0
  8 20  1  0
  9 21  1  0
M  END
