
     RDKit          3D

 18 18  0  0  0  0  0  0  0  0999 V2000
    2.3315   -0.8238   -0.3250 O   0  0  0  0  0  0  0  0  0  0  0  0
    1.2108   -0.7790    0.5024 C   0  0  0  0  0  0  0  0  0  0  0  0
   -0.0418   -0.6060   -0.3261 C   0  0  0  0  0  0  0  0  0  0  0  0
   -0.2219   -1.6438   -1.2240 O   0  0  0  0  0  0  0  0  0  0  0  0
    0.0208    0.7362   -1.0293 C   0  0  0  0  0  0  0  0  0  0  0  0
   -0.3927    1.6607    0.0606 C   0  0  0  0  0  0  0  0  0  0  0  0
   -1.1005    0.9978    0.9872 C   0  0  0  0  0  0  0  0  0  0  0  0
   -1.2266   -0.4382    0.6011 C   0  0  0  0  0  0  0  0  0  0  0  0
    2.7407    0.0883   -0.4054 H   0  0  0  0  0  0  0  0  0  0  0  0
    1.1435   -1.7112    1.0994 H   0  0  0  0  0  0  0  0  0  0  0  0
    1.3427    0.1057    1.1584 H   0  0  0  0  0  0  0  0  0  0  0  0
   -1.2039   -1.6549   -1.4259 H   0  0  0  0  0  0  0  0  0  0  0  0
    1.0328    0.9794   -1.3981 H   0  0  0  0  0  0  0  0  0  0  0  0
   -0.6957    0.7403   -1.8741 H   0  0  0  0  0  0  0  0  0  0  0  0
   -0.1599    2.7071    0.1023 H   0  0  0  0  0  0  0  0  0  0  0  0
   -1.5436    1.3878    1.9040 H   0  0  0  0  0  0  0  0  0  0  0  0
   -2.1905   -0.6570    0.1102 H   0  0  0  0  0  0  0  0  0  0  0  0
   -1.0458   -1.0894    1.4821 H   0  0  0  0  0  0  0  0  0  0  0  0
  1  2  1  0
  2  3  1  0
  3  4  1  0
  3  5  1  0
  5  6  1  0
  6  7  2  0
  7  8  1  0
  8  3  1  0
  1  9  1  0
  2 10  1  0
  2 11  1  0
  4 12  1  0
  5 13  1  0
  5 14  1  0
  6 15  1  0
  7 16  1  0
  8 17  1  0
  8 18  1  0
M  END
