
     RDKit          3D

 21 23  0  0  0  0  0  0  0  0999 V2000
    2.4808   -0.5904    0.7204 O   0  0  0  0  0  0  0  0  0  0  0  0
    2.2199   -0.1111   -0.5609 C   0  0  0  0  0  0  0  0  0  0  0  0
    0.7127   -0.0442   -0.8212 C   0  0  0  0  0  0  0  0  0  0  0  0
    0.0100    0.8720    0.1599 C   0  0  0  0  0  0  0  0  0  0  0  0
   -1.3696    1.1896   -0.3644 C   0  0  0  0  0  0  0  0  0  0  0  0
   -2.2774    0.1140    0.1399 C   0  0  0  0  0  0  0  0  0  0  0  0
   -1.3207   -1.0114    0.5012 C   0  0  0  0  0  0  0  0  0  0  0  0
   -0.0649   -1.1846   -0.2567 C   0  0  0  0  0  0  0  0  0  0  0  0
   -0.1658   -0.3315    1.0359 C   0  0  0  0  0  0  0  0  0  0  0  0
    3.1441   -0.0289    1.2061 H   0  0  0  0  0  0  0  0  0  0  0  0
    2.7333   -0.7174   -1.3129 H   0  0  0  0  0  0  0  0  0  0  0  0
    2.5699    0.9561   -0.6157 H   0  0  0  0  0  0  0  0  0  0  0  0
    0.4989    0.2520   -1.8481 H   0  0  0  0  0  0  0  0  0  0  0  0
    0.5939    1.7021    0.5465 H   0  0  0  0  0  0  0  0  0  0  0  0
   -1.3964    1.1302   -1.4931 H   0  0  0  0  0  0  0  0  0  0  0  0
   -1.7029    2.2146   -0.1243 H   0  0  0  0  0  0  0  0  0  0  0  0
   -2.7728    0.4288    1.0989 H   0  0  0  0  0  0  0  0  0  0  0  0
   -3.0187   -0.2170   -0.6153 H   0  0  0  0  0  0  0  0  0  0  0  0
   -1.7701   -1.9132    0.9150 H   0  0  0  0  0  0  0  0  0  0  0  0
    0.4485   -2.1412   -0.1841 H   0  0  0  0  0  0  0  0  0  0  0  0
    0.4474   -0.5683    1.8730 H   0  0  0  0  0  0  0  0  0  0  0  0
  1  2  1  0
  2  3  1  0
  3  4  1  0
  4  5  1  0
  5  6  1  0
  6  7  1  0
  7  8  1  0
  8  9  1  0
  8  3  1  0
  9  4  1  0
  9  7  1  0
  1 10  1  0
  2 11  1  0
  2 12  1  0
  3 13  1  0
  4 14  1  0
  5 15  1  0
  5 16  1  0
  6 17  1  0
  6 18  1  0
  7 19  1  0
  8 20  1  0
  9 21  1  0
M  END
