
     RDKit          3D

 21 23  0  0  0  0  0  0  0  0999 V2000
    2.3586    0.4326   -1.1837 O   0  0  0  0  0  0  0  0  0  0  0  0
    2.1106    0.4738    0.1741 C   0  0  0  0  0  0  0  0  0  0  0  0
    0.7081    0.0509    0.5265 C   0  0  0  0  0  0  0  0  0  0  0  0
    0.3937   -1.3496    0.0968 C   0  0  0  0  0  0  0  0  0  0  0  0
   -1.0485   -1.2466   -0.4193 C   0  0  0  0  0  0  0  0  0  0  0  0
   -1.9814   -0.3046    0.2306 C   0  0  0  0  0  0  0  0  0  0  0  0
   -1.5507    0.9953    0.8168 C   0  0  0  0  0  0  0  0  0  0  0  0
   -0.3315    0.9600   -0.0896 C   0  0  0  0  0  0  0  0  0  0  0  0
   -1.1033    0.0660   -1.0092 C   0  0  0  0  0  0  0  0  0  0  0  0
    2.9168   -0.3621   -1.4126 H   0  0  0  0  0  0  0  0  0  0  0  0
    2.1975    1.5524    0.4808 H   0  0  0  0  0  0  0  0  0  0  0  0
    2.8006   -0.1669    0.7554 H   0  0  0  0  0  0  0  0  0  0  0  0
    0.6521    0.0616    1.6505 H   0  0  0  0  0  0  0  0  0  0  0  0
    0.4885   -2.0997    0.8846 H   0  0  0  0  0  0  0  0  0  0  0  0
    1.0066   -1.6510   -0.8007 H   0  0  0  0  0  0  0  0  0  0  0  0
   -1.4656   -2.1706   -0.8047 H   0  0  0  0  0  0  0  0  0  0  0  0
   -3.0495   -0.4546    0.0487 H   0  0  0  0  0  0  0  0  0  0  0  0
   -2.1828    1.8731    0.4984 H   0  0  0  0  0  0  0  0  0  0  0  0
   -1.2483    1.0100    1.8685 H   0  0  0  0  0  0  0  0  0  0  0  0
    0.0129    1.9141   -0.4735 H   0  0  0  0  0  0  0  0  0  0  0  0
   -1.6845    0.4158   -1.8386 H   0  0  0  0  0  0  0  0  0  0  0  0
  1  2  1  0
  2  3  1  0
  3  4  1  0
  4  5  1  0
  5  6  1  0
  6  7  1  0
  7  8  1  0
  8  9  1  0
  8  3  1  0
  9  5  1  0
  9  6  1  0
  1 10  1  0
  2 11  1  0
  2 12  1  0
  3 13  1  0
  4 14  1  0
  4 15  1  0
  5 16  1  0
  6 17  1  0
  7 18  1  0
  7 19  1  0
  8 20  1  0
  9 21  1  0
M  END
