
     RDKit          3D

 18 20  0  0  0  0  0  0  0  0999 V2000
    2.6315   -0.2721   -0.2501 O   0  0  0  0  0  0  0  0  0  0  0  0
    1.6746    0.1807    0.6902 C   0  0  0  0  0  0  0  0  0  0  0  0
    0.3604   -0.0942    0.2526 C   0  0  0  0  0  0  0  0  0  0  0  0
   -0.9618    0.1353    0.7879 C   0  0  0  0  0  0  0  0  0  0  0  0
   -1.1277    1.3146   -0.1608 C   0  0  0  0  0  0  0  0  0  0  0  0
   -0.1239    0.5789   -1.0652 C   0  0  0  0  0  0  0  0  0  0  0  0
   -0.1904   -0.8779   -0.8263 C   0  0  0  0  0  0  0  0  0  0  0  0
   -1.4024   -1.1593    0.0854 C   0  0  0  0  0  0  0  0  0  0  0  0
    2.2140   -1.0744   -0.6559 H   0  0  0  0  0  0  0  0  0  0  0  0
    1.8792    1.2849    0.7877 H   0  0  0  0  0  0  0  0  0  0  0  0
    1.9267   -0.2576    1.6583 H   0  0  0  0  0  0  0  0  0  0  0  0
   -1.2072    0.2542    1.8078 H   0  0  0  0  0  0  0  0  0  0  0  0
   -0.7790    2.2662    0.2293 H   0  0  0  0  0  0  0  0  0  0  0  0
   -2.1573    1.2797   -0.5810 H   0  0  0  0  0  0  0  0  0  0  0  0
    0.6316    1.1095   -1.6052 H   0  0  0  0  0  0  0  0  0  0  0  0
    0.2736   -1.6493   -1.3905 H   0  0  0  0  0  0  0  0  0  0  0  0
   -1.3157   -2.0555    0.6919 H   0  0  0  0  0  0  0  0  0  0  0  0
   -2.3260   -0.9636   -0.4560 H   0  0  0  0  0  0  0  0  0  0  0  0
  1  2  1  0
  2  3  1  0
  3  4  1  0
  4  5  1  0
  5  6  1  0
  6  7  1  0
  7  8  1  0
  6  3  1  0
  7  3  1  0
  8  4  1  0
  1  9  1  0
  2 10  1  0
  2 11  1  0
  4 12  1  0
  5 13  1  0
  5 14  1  0
  6 15  1  0
  7 16  1  0
  8 17  1  0
  8 18  1  0
M  END
