
     RDKit          3D

 17 18  0  0  0  0  0  0  0  0999 V2000
    2.6992   -0.6654    0.6547 O   0  0  0  0  0  0  0  0  0  0  0  0
    1.9694    0.2187   -0.1192 C   0  0  0  0  0  0  0  0  0  0  0  0
    0.5211   -0.0992   -0.1288 C   0  0  0  0  0  0  0  0  0  0  0  0
   -0.1045   -1.0925    0.4974 C   0  0  0  0  0  0  0  0  0  0  0  0
   -1.5283   -0.9619    0.0864 C   0  0  0  0  0  0  0  0  0  0  0  0
   -2.1324    0.1458    0.6920 O   0  0  0  0  0  0  0  0  0  0  0  0
   -1.4328    1.2549    0.1951 C   0  0  0  0  0  0  0  0  0  0  0  0
   -0.5309    0.6326   -0.8449 C   0  0  0  0  0  0  0  0  0  0  0  0
   -1.3589   -0.4555   -1.2288 O   0  0  0  0  0  0  0  0  0  0  0  0
    2.3026   -1.5629    0.7069 H   0  0  0  0  0  0  0  0  0  0  0  0
    2.3366    0.1233   -1.1710 H   0  0  0  0  0  0  0  0  0  0  0  0
    2.1646    1.2536    0.2282 H   0  0  0  0  0  0  0  0  0  0  0  0
    0.3147   -1.8373    1.1608 H   0  0  0  0  0  0  0  0  0  0  0  0
   -2.1041   -1.8664    0.1245 H   0  0  0  0  0  0  0  0  0  0  0  0
   -2.1011    2.0241   -0.2103 H   0  0  0  0  0  0  0  0  0  0  0  0
   -0.7791    1.6248    1.0096 H   0  0  0  0  0  0  0  0  0  0  0  0
   -0.2360    1.2633   -1.6527 H   0  0  0  0  0  0  0  0  0  0  0  0
  1  2  1  0
  2  3  1  0
  3  4  2  0
  4  5  1  0
  5  6  1  0
  6  7  1  0
  7  8  1  0
  8  9  1  0
  8  3  1  0
  9  5  1  0
  1 10  1  0
  2 11  1  0
  2 12  1  0
  4 13  1  0
  5 14  1  0
  7 15  1  0
  7 16  1  0
  8 17  1  0
M  END
