
     RDKit          3D

 21 22  0  0  0  0  0  0  0  0999 V2000
    3.0978    0.2329   -0.4398 O   0  0  0  0  0  0  0  0  0  0  0  0
    2.0083   -0.4256   -1.0441 C   0  0  0  0  0  0  0  0  0  0  0  0
    0.8250   -0.4320   -0.1380 C   0  0  0  0  0  0  0  0  0  0  0  0
    0.2289   -1.5266    0.3156 C   0  0  0  0  0  0  0  0  0  0  0  0
   -0.9232   -1.2161    1.1988 C   0  0  0  0  0  0  0  0  0  0  0  0
   -1.1915    0.2235    0.9489 C   0  0  0  0  0  0  0  0  0  0  0  0
   -1.7910    0.4768   -0.4047 C   0  0  0  0  0  0  0  0  0  0  0  0
   -0.7002    1.5144   -0.6222 C   0  0  0  0  0  0  0  0  0  0  0  0
    0.1217    0.7485    0.4011 C   0  0  0  0  0  0  0  0  0  0  0  0
    2.7228    0.7755    0.3018 H   0  0  0  0  0  0  0  0  0  0  0  0
    2.3551   -1.4540   -1.2469 H   0  0  0  0  0  0  0  0  0  0  0  0
    1.8156    0.0965   -1.9895 H   0  0  0  0  0  0  0  0  0  0  0  0
    0.5231   -2.5519    0.0876 H   0  0  0  0  0  0  0  0  0  0  0  0
   -1.7790   -1.8747    0.9175 H   0  0  0  0  0  0  0  0  0  0  0  0
   -0.5952   -1.4081    2.2482 H   0  0  0  0  0  0  0  0  0  0  0  0
   -1.6113    0.8111    1.7832 H   0  0  0  0  0  0  0  0  0  0  0  0
   -1.6757   -0.3518   -1.1099 H   0  0  0  0  0  0  0  0  0  0  0  0
   -2.8260    0.8907   -0.3993 H   0  0  0  0  0  0  0  0  0  0  0  0
   -0.9929    2.5115   -0.2469 H   0  0  0  0  0  0  0  0  0  0  0  0
   -0.2801    1.5503   -1.6319 H   0  0  0  0  0  0  0  0  0  0  0  0
    0.6676    1.4092    1.0704 H   0  0  0  0  0  0  0  0  0  0  0  0
  1  2  1  0
  2  3  1  0
  3  4  2  0
  4  5  1  0
  5  6  1  0
  6  7  1  0
  7  8  1  0
  8  9  1  0
  9  3  1  0
  9  6  1  0
  1 10  1  0
  2 11  1  0
  2 12  1  0
  4 13  1  0
  5 14  1  0
  5 15  1  0
  6 16  1  0
  7 17  1  0
  7 18  1  0
  8 19  1  0
  8 20  1  0
  9 21  1  0
M  END
