
     RDKit          3D

 19 20  0  0  0  0  0  0  0  0999 V2000
    2.7288   -0.2127    0.9828 O   0  0  0  0  0  0  0  0  0  0  0  0
    1.5884   -0.7893    0.4711 C   0  0  0  0  0  0  0  0  0  0  0  0
    0.4739    0.1774    0.3003 C   0  0  0  0  0  0  0  0  0  0  0  0
    0.5116    1.4732    0.5920 C   0  0  0  0  0  0  0  0  0  0  0  0
   -0.7965    2.1147    0.2854 C   0  0  0  0  0  0  0  0  0  0  0  0
   -1.6483    1.0449    0.1013 O   0  0  0  0  0  0  0  0  0  0  0  0
   -0.8783   -0.0698   -0.2115 C   0  0  0  0  0  0  0  0  0  0  0  0
   -1.5594   -1.3731   -0.0917 C   0  0  0  0  0  0  0  0  0  0  0  0
   -1.0579   -0.8446   -1.4369 C   0  0  0  0  0  0  0  0  0  0  0  0
    3.5638   -0.6087    0.6265 H   0  0  0  0  0  0  0  0  0  0  0  0
    1.8773   -1.2579   -0.5090 H   0  0  0  0  0  0  0  0  0  0  0  0
    1.3097   -1.6325    1.1272 H   0  0  0  0  0  0  0  0  0  0  0  0
    1.3912    1.9964    1.0037 H   0  0  0  0  0  0  0  0  0  0  0  0
   -0.6744    2.6372   -0.6972 H   0  0  0  0  0  0  0  0  0  0  0  0
   -1.1265    2.8033    1.0832 H   0  0  0  0  0  0  0  0  0  0  0  0
   -2.6626   -1.3805   -0.0024 H   0  0  0  0  0  0  0  0  0  0  0  0
   -1.0442   -2.2028    0.3883 H   0  0  0  0  0  0  0  0  0  0  0  0
   -1.8015   -0.4787   -2.1625 H   0  0  0  0  0  0  0  0  0  0  0  0
   -0.1949   -1.3964   -1.8507 H   0  0  0  0  0  0  0  0  0  0  0  0
  1  2  1  0
  2  3  1  0
  3  4  2  0
  4  5  1  0
  5  6  1  0
  6  7  1  0
  7  8  1  0
  8  9  1  0
  7  3  1  0
  9  7  1  0
  1 10  1  0
  2 11  1  0
  2 12  1  0
  4 13  1  0
  5 14  1  0
  5 15  1  0
  8 16  1  0
  8 17  1  0
  9 18  1  0
  9 19  1  0
M  END
