
     RDKit          3D

 21 22  0  0  0  0  0  0  0  0999 V2000
   -2.2073    1.9830    0.2437 O   0  0  0  0  0  0  0  0  0  0  0  0
   -1.8736    0.6937    0.7190 C   0  0  0  0  0  0  0  0  0  0  0  0
   -0.4351    0.4811    0.4354 C   0  0  0  0  0  0  0  0  0  0  0  0
    0.1660   -0.8297    0.8504 C   0  0  0  0  0  0  0  0  0  0  0  0
    1.6166   -0.6479    0.4109 C   0  0  0  0  0  0  0  0  0  0  0  0
    1.3570   -0.0019   -0.9654 C   0  0  0  0  0  0  0  0  0  0  0  0
    1.7598    1.3193   -0.9814 O   0  0  0  0  0  0  0  0  0  0  0  0
   -0.1377   -0.0386   -0.9787 C   0  0  0  0  0  0  0  0  0  0  0  0
   -0.4327   -1.4085   -0.4153 C   0  0  0  0  0  0  0  0  0  0  0  0
   -1.8045    2.0711   -0.6402 H   0  0  0  0  0  0  0  0  0  0  0  0
   -2.1697    0.5598    1.7648 H   0  0  0  0  0  0  0  0  0  0  0  0
   -2.4667   -0.0021    0.0702 H   0  0  0  0  0  0  0  0  0  0  0  0
    0.2405    1.3138    0.7322 H   0  0  0  0  0  0  0  0  0  0  0  0
   -0.0432   -1.2620    1.7831 H   0  0  0  0  0  0  0  0  0  0  0  0
    2.1721    0.0339    1.0669 H   0  0  0  0  0  0  0  0  0  0  0  0
    2.1153   -1.6375    0.2714 H   0  0  0  0  0  0  0  0  0  0  0  0
    1.7555   -0.6071   -1.7765 H   0  0  0  0  0  0  0  0  0  0  0  0
    2.3241    1.5767   -0.2315 H   0  0  0  0  0  0  0  0  0  0  0  0
   -0.7005    0.3437   -1.7806 H   0  0  0  0  0  0  0  0  0  0  0  0
   -1.4676   -1.7222   -0.3743 H   0  0  0  0  0  0  0  0  0  0  0  0
    0.2319   -2.2189   -0.7856 H   0  0  0  0  0  0  0  0  0  0  0  0
  1  2  1  0
  2  3  1  0
  3  4  1  0
  4  5  1  0
  5  6  1  0
  6  7  1  0
  6  8  1  0
  8  9  1  0
  8  3  1  0
  9  4  1  0
  1 10  1  0
  2 11  1  0
  2 12  1  0
  3 13  1  0
  4 14  1  0
  5 15  1  0
  5 16  1  0
  6 17  1  0
  7 18  1  0
  8 19  1  0
  9 20  1  0
  9 21  1  0
M  END
