
     RDKit          3D

 19 19  0  0  0  0  0  0  0  0999 V2000
   -1.8445    1.3331   -0.4003 O   0  0  0  0  0  0  0  0  0  0  0  0
   -1.7424    0.0138    0.0178 C   0  0  0  0  0  0  0  0  0  0  0  0
   -0.2911   -0.4106    0.1860 C   0  0  0  0  0  0  0  0  0  0  0  0
   -0.3648   -1.7619    0.6099 O   0  0  0  0  0  0  0  0  0  0  0  0
    0.4099    0.3442    1.2608 C   0  0  0  0  0  0  0  0  0  0  0  0
    1.3177    1.2748    0.8241 O   0  0  0  0  0  0  0  0  0  0  0  0
    2.1385    0.7069   -0.1731 C   0  0  0  0  0  0  0  0  0  0  0  0
    1.3251    0.5932   -1.3012 O   0  0  0  0  0  0  0  0  0  0  0  0
    0.4399   -0.4416   -1.1248 C   0  0  0  0  0  0  0  0  0  0  0  0
   -2.8058    1.5167   -0.5284 H   0  0  0  0  0  0  0  0  0  0  0  0
   -2.1961   -0.7007   -0.7003 H   0  0  0  0  0  0  0  0  0  0  0  0
   -2.2349   -0.1292    0.9970 H   0  0  0  0  0  0  0  0  0  0  0  0
   -0.9228   -2.2041   -0.1062 H   0  0  0  0  0  0  0  0  0  0  0  0
   -0.3477    0.8891    1.8855 H   0  0  0  0  0  0  0  0  0  0  0  0
    0.9535   -0.3406    1.9655 H   0  0  0  0  0  0  0  0  0  0  0  0
    2.9594    1.4234   -0.3922 H   0  0  0  0  0  0  0  0  0  0  0  0
    2.5246   -0.2622    0.1822 H   0  0  0  0  0  0  0  0  0  0  0  0
   -0.3353   -0.4503   -1.9284 H   0  0  0  0  0  0  0  0  0  0  0  0
    1.0168   -1.3939   -1.2740 H   0  0  0  0  0  0  0  0  0  0  0  0
  1  2  1  0
  2  3  1  0
  3  4  1  0
  3  5  1  0
  5  6  1  0
  6  7  1  0
  7  8  1  0
  8  9  1  0
  9  3  1  0
  1 10  1  0
  2 11  1  0
  2 12  1  0
  4 13  1  0
  5 14  1  0
  5 15  1  0
  7 16  1  0
  7 17  1  0
  9 18  1  0
  9 19  1  0
M  END
