
     RDKit          3D

 19 20  0  0  0  0  0  0  0  0999 V2000
    2.6517   -0.2490    0.4922 O   0  0  0  0  0  0  0  0  0  0  0  0
    1.5324    0.5376    0.6888 C   0  0  0  0  0  0  0  0  0  0  0  0
    0.5068    0.2214   -0.3538 C   0  0  0  0  0  0  0  0  0  0  0  0
    1.0450    0.4803   -1.6310 O   0  0  0  0  0  0  0  0  0  0  0  0
   -0.7780    1.0113   -0.2102 C   0  0  0  0  0  0  0  0  0  0  0  0
   -1.1240    1.2251    1.1199 O   0  0  0  0  0  0  0  0  0  0  0  0
   -1.4592   -0.2790   -0.6845 C   0  0  0  0  0  0  0  0  0  0  0  0
   -1.4768   -1.3409    0.3212 C   0  0  0  0  0  0  0  0  0  0  0  0
   -0.1748   -1.0800   -0.3039 C   0  0  0  0  0  0  0  0  0  0  0  0
    3.1147   -0.5040    1.3304 H   0  0  0  0  0  0  0  0  0  0  0  0
    1.1918    0.4123    1.7178 H   0  0  0  0  0  0  0  0  0  0  0  0
    1.8517    1.5988    0.5052 H   0  0  0  0  0  0  0  0  0  0  0  0
    1.0627   -0.3712   -2.1684 H   0  0  0  0  0  0  0  0  0  0  0  0
   -0.8940    1.8639   -0.8829 H   0  0  0  0  0  0  0  0  0  0  0  0
   -1.7396    1.9681    1.2529 H   0  0  0  0  0  0  0  0  0  0  0  0
   -1.7500   -0.3814   -1.7237 H   0  0  0  0  0  0  0  0  0  0  0  0
   -2.0130   -2.2690    0.0548 H   0  0  0  0  0  0  0  0  0  0  0  0
   -1.7126   -1.0143    1.3719 H   0  0  0  0  0  0  0  0  0  0  0  0
    0.1652   -1.8301   -1.0531 H   0  0  0  0  0  0  0  0  0  0  0  0
  1  2  1  0
  2  3  1  0
  3  4  1  0
  3  5  1  0
  5  6  1  0
  5  7  1  0
  7  8  1  0
  8  9  1  0
  9  3  1  0
  9  7  1  0
  1 10  1  0
  2 11  1  0
  2 12  1  0
  4 13  1  0
  5 14  1  0
  6 15  1  0
  7 16  1  0
  8 17  1  0
  8 18  1  0
  9 19  1  0
M  END
