
     RDKit          3D

 19 19  0  0  0  0  0  0  0  0999 V2000
    2.2268    0.8533   -1.0460 O   0  0  0  0  0  0  0  0  0  0  0  0
    2.1785   -0.4377   -0.5468 C   0  0  0  0  0  0  0  0  0  0  0  0
    0.8193   -0.8974   -0.1159 C   0  0  0  0  0  0  0  0  0  0  0  0
   -0.1121   -0.8518   -1.2754 O   0  0  0  0  0  0  0  0  0  0  0  0
   -0.3776   -0.1954   -0.0005 C   0  0  0  0  0  0  0  0  0  0  0  0
   -0.6414    1.2724   -0.1001 C   0  0  0  0  0  0  0  0  0  0  0  0
   -0.8759    1.7771    1.1660 O   0  0  0  0  0  0  0  0  0  0  0  0
   -1.5629   -0.9211    0.6660 C   0  0  0  0  0  0  0  0  0  0  0  0
   -2.6669   -0.8241   -0.1838 O   0  0  0  0  0  0  0  0  0  0  0  0
    2.9625    1.3912   -0.6599 H   0  0  0  0  0  0  0  0  0  0  0  0
    2.9079   -0.4791    0.2896 H   0  0  0  0  0  0  0  0  0  0  0  0
    2.6224   -1.1101   -1.3352 H   0  0  0  0  0  0  0  0  0  0  0  0
    0.8651   -1.9567    0.2847 H   0  0  0  0  0  0  0  0  0  0  0  0
    0.1760    1.8352   -0.5929 H   0  0  0  0  0  0  0  0  0  0  0  0
   -1.5865    1.4962   -0.6817 H   0  0  0  0  0  0  0  0  0  0  0  0
   -0.3373    2.5642    1.3858 H   0  0  0  0  0  0  0  0  0  0  0  0
   -1.7647   -0.4880    1.6654 H   0  0  0  0  0  0  0  0  0  0  0  0
   -1.3432   -1.9930    0.7961 H   0  0  0  0  0  0  0  0  0  0  0  0
   -3.4900   -1.0354    0.2844 H   0  0  0  0  0  0  0  0  0  0  0  0
  1  2  1  0
  2  3  1  0
  3  4  1  0
  4  5  1  0
  5  6  1  0
  6  7  1  0
  5  8  1  0
  8  9  1  0
  5  3  1  0
  1 10  1  0
  2 11  1  0
  2 12  1  0
  3 13  1  0
  6 14  1  0
  6 15  1  0
  7 16  1  0
  8 17  1  0
  8 18  1  0
  9 19  1  0
M  END
