
     RDKit          3D

 19 20  0  0  0  0  0  0  0  0999 V2000
    2.2812   -0.7014    0.9189 O   0  0  0  0  0  0  0  0  0  0  0  0
    1.8739    0.5600    0.5767 C   0  0  0  0  0  0  0  0  0  0  0  0
    0.4551    0.7024    0.1876 C   0  0  0  0  0  0  0  0  0  0  0  0
   -0.4418    0.3206    1.2156 O   0  0  0  0  0  0  0  0  0  0  0  0
   -1.3447   -0.4592    0.5427 C   0  0  0  0  0  0  0  0  0  0  0  0
   -0.4180   -1.4319   -0.2046 C   0  0  0  0  0  0  0  0  0  0  0  0
   -0.0241   -0.1427   -0.9242 C   0  0  0  0  0  0  0  0  0  0  0  0
   -1.5318    0.1572   -0.8512 C   0  0  0  0  0  0  0  0  0  0  0  0
   -1.7257    1.5091   -0.8642 O   0  0  0  0  0  0  0  0  0  0  0  0
    3.2426   -0.7938    0.6239 H   0  0  0  0  0  0  0  0  0  0  0  0
    2.0551    1.2767    1.4309 H   0  0  0  0  0  0  0  0  0  0  0  0
    2.4946    0.9607   -0.2532 H   0  0  0  0  0  0  0  0  0  0  0  0
    0.2733    1.7703   -0.0746 H   0  0  0  0  0  0  0  0  0  0  0  0
   -2.1982   -0.8677    1.0174 H   0  0  0  0  0  0  0  0  0  0  0  0
    0.3478   -1.9005    0.4011 H   0  0  0  0  0  0  0  0  0  0  0  0
   -0.9874   -2.0655   -0.9091 H   0  0  0  0  0  0  0  0  0  0  0  0
    0.4295   -0.1956   -1.8660 H   0  0  0  0  0  0  0  0  0  0  0  0
   -2.1562   -0.4753   -1.4723 H   0  0  0  0  0  0  0  0  0  0  0  0
   -2.6254    1.7766   -0.6246 H   0  0  0  0  0  0  0  0  0  0  0  0
  1  2  1  0
  2  3  1  0
  3  4  1  0
  4  5  1  0
  5  6  1  0
  6  7  1  0
  7  8  1  0
  8  9  1  0
  7  3  1  0
  8  5  1  0
  1 10  1  0
  2 11  1  0
  2 12  1  0
  3 13  1  0
  5 14  1  0
  6 15  1  0
  6 16  1  0
  7 17  1  0
  8 18  1  0
  9 19  1  0
M  END
