
     RDKit          3D

 21 22  0  0  0  0  0  0  0  0999 V2000
    3.0727    0.1287    0.8500 O   0  0  0  0  0  0  0  0  0  0  0  0
    2.4396   -0.0385   -0.3563 C   0  0  0  0  0  0  0  0  0  0  0  0
    1.0404    0.5683   -0.3241 C   0  0  0  0  0  0  0  0  0  0  0  0
    0.3578    0.4239   -1.5273 O   0  0  0  0  0  0  0  0  0  0  0  0
   -0.6184   -0.4193   -1.0596 C   0  0  0  0  0  0  0  0  0  0  0  0
   -1.9742    0.2435   -0.7950 C   0  0  0  0  0  0  0  0  0  0  0  0
   -2.2201   -0.2377    0.6404 C   0  0  0  0  0  0  0  0  0  0  0  0
   -0.8967    0.1731    1.2709 C   0  0  0  0  0  0  0  0  0  0  0  0
    0.0811   -0.4298    0.2807 C   0  0  0  0  0  0  0  0  0  0  0  0
    4.0382    0.2630    0.7362 H   0  0  0  0  0  0  0  0  0  0  0  0
    3.0236    0.4236   -1.1954 H   0  0  0  0  0  0  0  0  0  0  0  0
    2.3882   -1.1165   -0.5809 H   0  0  0  0  0  0  0  0  0  0  0  0
    1.0000    1.5885    0.0891 H   0  0  0  0  0  0  0  0  0  0  0  0
   -0.6751   -1.3766   -1.5801 H   0  0  0  0  0  0  0  0  0  0  0  0
   -2.7410   -0.0989   -1.4846 H   0  0  0  0  0  0  0  0  0  0  0  0
   -1.8247    1.3344   -0.7529 H   0  0  0  0  0  0  0  0  0  0  0  0
   -3.0813    0.2454    1.0959 H   0  0  0  0  0  0  0  0  0  0  0  0
   -2.2838   -1.3490    0.6026 H   0  0  0  0  0  0  0  0  0  0  0  0
   -0.7695   -0.2209    2.2847 H   0  0  0  0  0  0  0  0  0  0  0  0
   -0.8766    1.2872    1.2274 H   0  0  0  0  0  0  0  0  0  0  0  0
    0.5198   -1.3922    0.5783 H   0  0  0  0  0  0  0  0  0  0  0  0
  1  2  1  0
  2  3  1  0
  3  4  1  0
  4  5  1  0
  5  6  1  0
  6  7  1  0
  7  8  1  0
  8  9  1  0
  9  3  1  0
  9  5  1  0
  1 10  1  0
  2 11  1  0
  2 12  1  0
  3 13  1  0
  5 14  1  0
  6 15  1  0
  6 16  1  0
  7 17  1  0
  7 18  1  0
  8 19  1  0
  8 20  1  0
  9 21  1  0
M  END
