
     RDKit          3D

 19 21  0  0  0  0  0  0  0  0999 V2000
   -2.6643    0.6247    0.5840 O   0  0  0  0  0  0  0  0  0  0  0  0
   -1.7550   -0.4279    0.4919 C   0  0  0  0  0  0  0  0  0  0  0  0
   -0.6135   -0.0556   -0.4081 C   0  0  0  0  0  0  0  0  0  0  0  0
    0.1493    1.1502    0.0758 C   0  0  0  0  0  0  0  0  0  0  0  0
    1.3986    1.0359   -0.7957 C   0  0  0  0  0  0  0  0  0  0  0  0
    1.7602   -0.4136   -0.4329 C   0  0  0  0  0  0  0  0  0  0  0  0
    1.2435   -0.5138    0.9460 C   0  0  0  0  0  0  0  0  0  0  0  0
    0.6381    0.6966    1.2886 O   0  0  0  0  0  0  0  0  0  0  0  0
    0.4901   -1.0857   -0.2294 C   0  0  0  0  0  0  0  0  0  0  0  0
   -3.5492    0.2309    0.7877 H   0  0  0  0  0  0  0  0  0  0  0  0
   -2.3057   -1.2711    0.0131 H   0  0  0  0  0  0  0  0  0  0  0  0
   -1.4362   -0.7887    1.4777 H   0  0  0  0  0  0  0  0  0  0  0  0
   -0.8885    0.0977   -1.4461 H   0  0  0  0  0  0  0  0  0  0  0  0
   -0.3456    2.0849    0.0532 H   0  0  0  0  0  0  0  0  0  0  0  0
    2.1793    1.7393   -0.5161 H   0  0  0  0  0  0  0  0  0  0  0  0
    1.0814    1.0544   -1.8409 H   0  0  0  0  0  0  0  0  0  0  0  0
    2.6831   -0.8420   -0.7847 H   0  0  0  0  0  0  0  0  0  0  0  0
    1.6460   -1.1766    1.7047 H   0  0  0  0  0  0  0  0  0  0  0  0
    0.2884   -2.1399   -0.2213 H   0  0  0  0  0  0  0  0  0  0  0  0
  1  2  1  0
  2  3  1  0
  3  4  1  0
  4  5  1  0
  5  6  1  0
  6  7  1  0
  7  8  1  0
  7  9  1  0
  9  3  1  0
  8  4  1  0
  9  6  1  0
  1 10  1  0
  2 11  1  0
  2 12  1  0
  3 13  1  0
  4 14  1  0
  5 15  1  0
  5 16  1  0
  6 17  1  0
  7 18  1  0
  9 19  1  0
M  END
