
     RDKit          3D

 21 23  0  0  0  0  0  0  0  0999 V2000
    2.7049    0.1639    0.1470 O   0  0  0  0  0  0  0  0  0  0  0  0
    1.7829   -0.4601   -0.7250 C   0  0  0  0  0  0  0  0  0  0  0  0
    0.4472   -0.1982   -0.2408 C   0  0  0  0  0  0  0  0  0  0  0  0
    0.1154   -0.6903    1.1483 C   0  0  0  0  0  0  0  0  0  0  0  0
   -1.3225   -0.1563    1.2457 C   0  0  0  0  0  0  0  0  0  0  0  0
   -1.3761    1.0555    0.4142 C   0  0  0  0  0  0  0  0  0  0  0  0
    0.0532    1.2618   -0.1113 C   0  0  0  0  0  0  0  0  0  0  0  0
   -1.8468   -0.2454   -0.1263 C   0  0  0  0  0  0  0  0  0  0  0  0
   -0.7037   -0.7402   -1.0313 C   0  0  0  0  0  0  0  0  0  0  0  0
    2.9359    1.0643   -0.1903 H   0  0  0  0  0  0  0  0  0  0  0  0
    1.9446   -0.0115   -1.7033 H   0  0  0  0  0  0  0  0  0  0  0  0
    2.0096   -1.5344   -0.6666 H   0  0  0  0  0  0  0  0  0  0  0  0
    0.7542   -0.2770    1.9272 H   0  0  0  0  0  0  0  0  0  0  0  0
    0.0553   -1.7819    1.1118 H   0  0  0  0  0  0  0  0  0  0  0  0
   -1.8969   -0.3261    2.1448 H   0  0  0  0  0  0  0  0  0  0  0  0
   -2.0141    1.9093    0.5869 H   0  0  0  0  0  0  0  0  0  0  0  0
    0.7076    1.6961    0.6634 H   0  0  0  0  0  0  0  0  0  0  0  0
    0.0661    1.7787   -1.0685 H   0  0  0  0  0  0  0  0  0  0  0  0
   -2.8709   -0.4580   -0.3947 H   0  0  0  0  0  0  0  0  0  0  0  0
   -0.8187   -0.2198   -2.0147 H   0  0  0  0  0  0  0  0  0  0  0  0
   -0.7272   -1.8304   -1.1163 H   0  0  0  0  0  0  0  0  0  0  0  0
  1  2  1  0
  2  3  1  0
  3  4  1  0
  4  5  1  0
  5  6  1  0
  6  7  1  0
  6  8  1  0
  8  9  1  0
  7  3  1  0
  9  3  1  0
  8  5  1  0
  1 10  1  0
  2 11  1  0
  2 12  1  0
  4 13  1  0
  4 14  1  0
  5 15  1  0
  6 16  1  0
  7 17  1  0
  7 18  1  0
  8 19  1  0
  9 20  1  0
  9 21  1  0
M  END
