
     RDKit          3D

 21 21  0  0  0  0  0  0  0  0999 V2000
    2.1437   -0.7648    1.2189 O   0  0  0  0  0  0  0  0  0  0  0  0
    1.4632    0.2615    0.5311 C   0  0  0  0  0  0  0  0  0  0  0  0
    0.5344   -0.3386   -0.5004 C   0  0  0  0  0  0  0  0  0  0  0  0
    1.2946   -1.0738   -1.3849 O   0  0  0  0  0  0  0  0  0  0  0  0
   -0.2269    0.7691   -1.1720 C   0  0  0  0  0  0  0  0  0  0  0  0
   -1.2474    1.3579   -0.2389 C   0  0  0  0  0  0  0  0  0  0  0  0
   -2.1212    0.3883    0.1980 O   0  0  0  0  0  0  0  0  0  0  0  0
   -1.4807   -0.5483    0.9854 C   0  0  0  0  0  0  0  0  0  0  0  0
   -0.4584   -1.2660    0.1463 C   0  0  0  0  0  0  0  0  0  0  0  0
    2.9122   -0.3750    1.6815 H   0  0  0  0  0  0  0  0  0  0  0  0
    0.9540    0.8694    1.2838 H   0  0  0  0  0  0  0  0  0  0  0  0
    2.1909    0.9199   -0.0169 H   0  0  0  0  0  0  0  0  0  0  0  0
    1.2223   -0.8017   -2.3152 H   0  0  0  0  0  0  0  0  0  0  0  0
    0.4903    1.5568   -1.4447 H   0  0  0  0  0  0  0  0  0  0  0  0
   -0.7749    0.4126   -2.0722 H   0  0  0  0  0  0  0  0  0  0  0  0
   -1.7741    2.1594   -0.7790 H   0  0  0  0  0  0  0  0  0  0  0  0
   -0.7876    1.8199    0.6621 H   0  0  0  0  0  0  0  0  0  0  0  0
   -2.2582   -1.3219    1.2468 H   0  0  0  0  0  0  0  0  0  0  0  0
   -1.0989   -0.1681    1.9293 H   0  0  0  0  0  0  0  0  0  0  0  0
   -1.0196   -1.7705   -0.6737 H   0  0  0  0  0  0  0  0  0  0  0  0
    0.0423   -2.0861    0.7148 H   0  0  0  0  0  0  0  0  0  0  0  0
  1  2  1  0
  2  3  1  0
  3  4  1  0
  3  5  1  0
  5  6  1  0
  6  7  1  0
  7  8  1  0
  8  9  1  0
  9  3  1  0
  1 10  1  0
  2 11  1  0
  2 12  1  0
  4 13  1  0
  5 14  1  0
  5 15  1  0
  6 16  1  0
  6 17  1  0
  8 18  1  0
  8 19  1  0
  9 20  1  0
  9 21  1  0
M  END
