
     RDKit          3D

 21 21  0  0  0  0  0  0  0  0999 V2000
   -2.6719   -0.8335    0.6416 O   0  0  0  0  0  0  0  0  0  0  0  0
   -1.9269    0.1444   -0.0373 C   0  0  0  0  0  0  0  0  0  0  0  0
   -0.4897    0.0594    0.4613 C   0  0  0  0  0  0  0  0  0  0  0  0
   -0.0102   -1.3432    0.1365 C   0  0  0  0  0  0  0  0  0  0  0  0
    1.4420   -1.4078    0.5303 C   0  0  0  0  0  0  0  0  0  0  0  0
    2.2051   -0.4554   -0.0037 C   0  0  0  0  0  0  0  0  0  0  0  0
    1.5151    0.5195   -0.9002 C   0  0  0  0  0  0  0  0  0  0  0  0
    0.3748    1.1272   -0.1222 C   0  0  0  0  0  0  0  0  0  0  0  0
   -0.3864    1.8937   -1.0353 O   0  0  0  0  0  0  0  0  0  0  0  0
   -2.9104   -0.5504    1.5587 H   0  0  0  0  0  0  0  0  0  0  0  0
   -1.9981   -0.1161   -1.1112 H   0  0  0  0  0  0  0  0  0  0  0  0
   -2.3633    1.1348    0.1267 H   0  0  0  0  0  0  0  0  0  0  0  0
   -0.4775    0.1532    1.5557 H   0  0  0  0  0  0  0  0  0  0  0  0
   -0.1604   -1.5757   -0.9248 H   0  0  0  0  0  0  0  0  0  0  0  0
   -0.6231   -2.0378    0.7309 H   0  0  0  0  0  0  0  0  0  0  0  0
    1.8187   -2.1653    1.1889 H   0  0  0  0  0  0  0  0  0  0  0  0
    3.2622   -0.4173    0.2191 H   0  0  0  0  0  0  0  0  0  0  0  0
    2.2189    1.2777   -1.2755 H   0  0  0  0  0  0  0  0  0  0  0  0
    1.0604    0.0131   -1.7913 H   0  0  0  0  0  0  0  0  0  0  0  0
    0.7728    1.8346    0.6556 H   0  0  0  0  0  0  0  0  0  0  0  0
   -0.6522    2.7448   -0.6035 H   0  0  0  0  0  0  0  0  0  0  0  0
  1  2  1  0
  2  3  1  0
  3  4  1  0
  4  5  1  0
  5  6  2  0
  6  7  1  0
  7  8  1  0
  8  9  1  0
  8  3  1  0
  1 10  1  0
  2 11  1  0
  2 12  1  0
  3 13  1  0
  4 14  1  0
  4 15  1  0
  5 16  1  0
  6 17  1  0
  7 18  1  0
  7 19  1  0
  8 20  1  0
  9 21  1  0
M  END
