
     RDKit          3D

 19 21  0  0  0  0  0  0  0  0999 V2000
    2.7977    0.2367   -0.0730 O   0  0  0  0  0  0  0  0  0  0  0  0
    1.9815   -0.7843    0.3406 C   0  0  0  0  0  0  0  0  0  0  0  0
    0.5675   -0.5086    0.0330 C   0  0  0  0  0  0  0  0  0  0  0  0
   -0.4415   -1.3966    0.3570 O   0  0  0  0  0  0  0  0  0  0  0  0
   -1.5889   -0.6413    0.1852 C   0  0  0  0  0  0  0  0  0  0  0  0
   -1.3704   -0.0680   -1.1993 C   0  0  0  0  0  0  0  0  0  0  0  0
    0.0767    0.4126   -0.9941 C   0  0  0  0  0  0  0  0  0  0  0  0
    0.0995    0.8819    0.3782 C   0  0  0  0  0  0  0  0  0  0  0  0
   -1.2550    0.5751    1.0280 C   0  0  0  0  0  0  0  0  0  0  0  0
    2.2538    0.9422   -0.4687 H   0  0  0  0  0  0  0  0  0  0  0  0
    2.3333   -1.7768   -0.0668 H   0  0  0  0  0  0  0  0  0  0  0  0
    2.1115   -0.8849    1.4482 H   0  0  0  0  0  0  0  0  0  0  0  0
   -2.5240   -1.1050    0.3697 H   0  0  0  0  0  0  0  0  0  0  0  0
   -1.4557   -0.7942   -2.0001 H   0  0  0  0  0  0  0  0  0  0  0  0
   -1.9722    0.8408   -1.3070 H   0  0  0  0  0  0  0  0  0  0  0  0
    0.6288    0.8078   -1.8265 H   0  0  0  0  0  0  0  0  0  0  0  0
    0.7521    1.6188    0.8129 H   0  0  0  0  0  0  0  0  0  0  0  0
   -1.9624    1.3893    0.9278 H   0  0  0  0  0  0  0  0  0  0  0  0
   -1.0323    0.2543    2.0547 H   0  0  0  0  0  0  0  0  0  0  0  0
  1  2  1  0
  2  3  1  0
  3  4  1  0
  4  5  1  0
  5  6  1  0
  6  7  1  0
  7  8  1  0
  8  9  1  0
  7  3  1  0
  8  3  1  0
  9  5  1  0
  1 10  1  0
  2 11  1  0
  2 12  1  0
  5 13  1  0
  6 14  1  0
  6 15  1  0
  7 16  1  0
  8 17  1  0
  9 18  1  0
  9 19  1  0
M  END
