
     RDKit          3D

 19 21  0  0  0  0  0  0  0  0999 V2000
    2.4527    1.0765    0.6408 O   0  0  0  0  0  0  0  0  0  0  0  0
    2.3072    0.1590   -0.3909 C   0  0  0  0  0  0  0  0  0  0  0  0
    0.8646   -0.1354   -0.6316 C   0  0  0  0  0  0  0  0  0  0  0  0
    0.0620   -0.7255    0.5245 C   0  0  0  0  0  0  0  0  0  0  0  0
   -1.3475   -1.1561    0.2572 C   0  0  0  0  0  0  0  0  0  0  0  0
   -2.1998   -0.0662    0.8433 C   0  0  0  0  0  0  0  0  0  0  0  0
   -1.5679    0.6633   -0.2996 C   0  0  0  0  0  0  0  0  0  0  0  0
   -1.5834   -0.5641   -1.0038 O   0  0  0  0  0  0  0  0  0  0  0  0
   -0.1059    0.7685    0.0550 C   0  0  0  0  0  0  0  0  0  0  0  0
    3.0398    0.6717    1.3262 H   0  0  0  0  0  0  0  0  0  0  0  0
    2.7160    0.6539   -1.3068 H   0  0  0  0  0  0  0  0  0  0  0  0
    2.8550   -0.7868   -0.2074 H   0  0  0  0  0  0  0  0  0  0  0  0
    0.5568   -0.5831   -1.6091 H   0  0  0  0  0  0  0  0  0  0  0  0
    0.5362   -0.8626    1.4905 H   0  0  0  0  0  0  0  0  0  0  0  0
   -1.6316   -2.1766    0.3831 H   0  0  0  0  0  0  0  0  0  0  0  0
   -3.2814   -0.1948    0.7434 H   0  0  0  0  0  0  0  0  0  0  0  0
   -1.8546    0.2395    1.8612 H   0  0  0  0  0  0  0  0  0  0  0  0
   -2.0605    1.4931   -0.7496 H   0  0  0  0  0  0  0  0  0  0  0  0
    0.2424    1.5259    0.7609 H   0  0  0  0  0  0  0  0  0  0  0  0
  1  2  1  0
  2  3  1  0
  3  4  1  0
  4  5  1  0
  5  6  1  0
  6  7  1  0
  7  8  1  0
  7  9  1  0
  9  3  1  0
  9  4  1  0
  8  5  1  0
  1 10  1  0
  2 11  1  0
  2 12  1  0
  3 13  1  0
  4 14  1  0
  5 15  1  0
  6 16  1  0
  6 17  1  0
  7 18  1  0
  9 19  1  0
M  END
