
     RDKit          3D

 21 21  0  0  0  0  0  0  0  0999 V2000
   -1.0777   -1.9934    0.4926 O   0  0  0  0  0  0  0  0  0  0  0  0
   -1.5370   -0.7824   -0.0744 C   0  0  0  0  0  0  0  0  0  0  0  0
   -0.3954    0.2379   -0.1314 C   0  0  0  0  0  0  0  0  0  0  0  0
   -1.0029    1.5133   -0.6788 C   0  0  0  0  0  0  0  0  0  0  0  0
   -0.0826    2.5456   -0.7664 O   0  0  0  0  0  0  0  0  0  0  0  0
    0.6898   -0.3190   -0.9783 C   0  0  0  0  0  0  0  0  0  0  0  0
    1.8024   -0.5972   -0.0144 C   0  0  0  0  0  0  0  0  0  0  0  0
    1.2347   -0.2427    1.3224 C   0  0  0  0  0  0  0  0  0  0  0  0
    0.0861    0.5024    1.1198 O   0  0  0  0  0  0  0  0  0  0  0  0
   -1.3083   -2.0277    1.4632 H   0  0  0  0  0  0  0  0  0  0  0  0
   -2.4023   -0.3895    0.4982 H   0  0  0  0  0  0  0  0  0  0  0  0
   -1.8717   -1.0122   -1.1085 H   0  0  0  0  0  0  0  0  0  0  0  0
   -1.7734    1.8298    0.0690 H   0  0  0  0  0  0  0  0  0  0  0  0
   -1.5538    1.3322   -1.6228 H   0  0  0  0  0  0  0  0  0  0  0  0
    0.0801    2.8769    0.1624 H   0  0  0  0  0  0  0  0  0  0  0  0
    0.3998   -1.3014   -1.4550 H   0  0  0  0  0  0  0  0  0  0  0  0
    1.0014    0.3305   -1.8217 H   0  0  0  0  0  0  0  0  0  0  0  0
    2.0832   -1.6722    0.0060 H   0  0  0  0  0  0  0  0  0  0  0  0
    2.6861    0.0214   -0.3013 H   0  0  0  0  0  0  0  0  0  0  0  0
    0.9294   -1.1544    1.9105 H   0  0  0  0  0  0  0  0  0  0  0  0
    2.0121    0.3023    1.9089 H   0  0  0  0  0  0  0  0  0  0  0  0
  1  2  1  0
  2  3  1  0
  3  4  1  0
  4  5  1  0
  3  6  1  0
  6  7  1  0
  7  8  1  0
  8  9  1  0
  9  3  1  0
  1 10  1  0
  2 11  1  0
  2 12  1  0
  4 13  1  0
  4 14  1  0
  5 15  1  0
  6 16  1  0
  6 17  1  0
  7 18  1  0
  7 19  1  0
  8 20  1  0
  8 21  1  0
M  END
