
     RDKit          3D

 19 21  0  0  0  0  0  0  0  0999 V2000
    2.5502   -0.4144   -0.4603 O   0  0  0  0  0  0  0  0  0  0  0  0
    1.8176   -0.3529    0.7298 C   0  0  0  0  0  0  0  0  0  0  0  0
    0.4265   -0.1003    0.4321 C   0  0  0  0  0  0  0  0  0  0  0  0
    0.1186    1.1297   -0.3871 C   0  0  0  0  0  0  0  0  0  0  0  0
   -1.4068    0.9432   -0.4681 C   0  0  0  0  0  0  0  0  0  0  0  0
   -1.6147   -0.5073   -0.5193 C   0  0  0  0  0  0  0  0  0  0  0  0
   -0.2493   -1.1711   -0.4367 C   0  0  0  0  0  0  0  0  0  0  0  0
   -1.6904    0.2235    0.7824 C   0  0  0  0  0  0  0  0  0  0  0  0
   -0.4684   -0.0011    1.4584 O   0  0  0  0  0  0  0  0  0  0  0  0
    2.6346    0.5374   -0.7646 H   0  0  0  0  0  0  0  0  0  0  0  0
    2.2189    0.3470    1.4587 H   0  0  0  0  0  0  0  0  0  0  0  0
    1.9215   -1.3753    1.1843 H   0  0  0  0  0  0  0  0  0  0  0  0
    0.3393    2.0522    0.1544 H   0  0  0  0  0  0  0  0  0  0  0  0
    0.5561    1.0810   -1.3963 H   0  0  0  0  0  0  0  0  0  0  0  0
   -2.0224    1.6972   -0.9220 H   0  0  0  0  0  0  0  0  0  0  0  0
   -2.4608   -1.0150   -0.9524 H   0  0  0  0  0  0  0  0  0  0  0  0
   -0.2940   -2.0786    0.1710 H   0  0  0  0  0  0  0  0  0  0  0  0
    0.2380   -1.2777   -1.4061 H   0  0  0  0  0  0  0  0  0  0  0  0
   -2.6146    0.2823    1.3421 H   0  0  0  0  0  0  0  0  0  0  0  0
  1  2  1  0
  2  3  1  0
  3  4  1  0
  4  5  1  0
  5  6  1  0
  6  7  1  0
  6  8  1  0
  8  9  1  0
  7  3  1  0
  9  3  1  0
  8  5  1  0
  1 10  1  0
  2 11  1  0
  2 12  1  0
  4 13  1  0
  4 14  1  0
  5 15  1  0
  6 16  1  0
  7 17  1  0
  7 18  1  0
  8 19  1  0
M  END
