
     RDKit          3D

 15 15  0  0  0  0  0  0  0  0999 V2000
    2.5537    0.8471   -0.0914 O   0  0  0  0  0  0  0  0  0  0  0  0
    1.8199   -0.2986    0.2033 C   0  0  0  0  0  0  0  0  0  0  0  0
    0.4847   -0.1793   -0.5128 C   0  0  0  0  0  0  0  0  0  0  0  0
   -0.1278    0.9531   -0.0325 O   0  0  0  0  0  0  0  0  0  0  0  0
   -1.4247    0.6369    0.3126 C   0  0  0  0  0  0  0  0  0  0  0  0
   -1.6213   -0.7992   -0.1086 C   0  0  0  0  0  0  0  0  0  0  0  0
   -0.3383   -1.2577   -0.2964 O   0  0  0  0  0  0  0  0  0  0  0  0
    2.0328    1.6467    0.1022 H   0  0  0  0  0  0  0  0  0  0  0  0
    1.6050   -0.2938    1.3037 H   0  0  0  0  0  0  0  0  0  0  0  0
    2.3575   -1.2116   -0.0695 H   0  0  0  0  0  0  0  0  0  0  0  0
    0.6614   -0.0127   -1.6101 H   0  0  0  0  0  0  0  0  0  0  0  0
   -1.5958    0.7974    1.3812 H   0  0  0  0  0  0  0  0  0  0  0  0
   -2.0896    1.3244   -0.2564 H   0  0  0  0  0  0  0  0  0  0  0  0
   -2.1108   -1.3572    0.7127 H   0  0  0  0  0  0  0  0  0  0  0  0
   -2.2068   -0.7953   -1.0380 H   0  0  0  0  0  0  0  0  0  0  0  0
  1  2  1  0
  2  3  1  0
  3  4  1  0
  4  5  1  0
  5  6  1  0
  6  7  1  0
  7  3  1  0
  1  8  1  0
  2  9  1  0
  2 10  1  0
  3 11  1  0
  5 12  1  0
  5 13  1  0
  6 14  1  0
  6 15  1  0
M  END
