
     RDKit          3D

 19 20  0  0  0  0  0  0  0  0999 V2000
    2.3202    0.8659   -0.9844 O   0  0  0  0  0  0  0  0  0  0  0  0
    1.2964   -0.0926   -1.0973 C   0  0  0  0  0  0  0  0  0  0  0  0
    0.8764   -0.4760    0.2929 C   0  0  0  0  0  0  0  0  0  0  0  0
    1.8971   -1.0227    1.0673 O   0  0  0  0  0  0  0  0  0  0  0  0
   -0.0545    0.4264    1.0047 C   0  0  0  0  0  0  0  0  0  0  0  0
   -0.7907    1.3848    0.1442 C   0  0  0  0  0  0  0  0  0  0  0  0
   -1.6856    0.7552   -0.5886 C   0  0  0  0  0  0  0  0  0  0  0  0
   -1.6526   -0.6939   -0.3047 C   0  0  0  0  0  0  0  0  0  0  0  0
   -0.4839   -0.9521    0.5974 C   0  0  0  0  0  0  0  0  0  0  0  0
    2.2831    1.2973   -0.0753 H   0  0  0  0  0  0  0  0  0  0  0  0
    1.7452   -0.9469   -1.6384 H   0  0  0  0  0  0  0  0  0  0  0  0
    0.4836    0.3492   -1.6933 H   0  0  0  0  0  0  0  0  0  0  0  0
    1.5705   -1.1493    1.9865 H   0  0  0  0  0  0  0  0  0  0  0  0
   -0.0119    0.5859    2.0918 H   0  0  0  0  0  0  0  0  0  0  0  0
   -0.6131    2.4391    0.1274 H   0  0  0  0  0  0  0  0  0  0  0  0
   -2.3493    1.2205   -1.2949 H   0  0  0  0  0  0  0  0  0  0  0  0
   -2.5807   -0.9446    0.2492 H   0  0  0  0  0  0  0  0  0  0  0  0
   -1.6051   -1.3122   -1.2440 H   0  0  0  0  0  0  0  0  0  0  0  0
   -0.6450   -1.7338    1.3595 H   0  0  0  0  0  0  0  0  0  0  0  0
  1  2  1  0
  2  3  1  0
  3  4  1  0
  3  5  1  0
  5  6  1  0
  6  7  2  0
  7  8  1  0
  8  9  1  0
  9  3  1  0
  9  5  1  0
  1 10  1  0
  2 11  1  0
  2 12  1  0
  4 13  1  0
  5 14  1  0
  6 15  1  0
  7 16  1  0
  8 17  1  0
  8 18  1  0
  9 19  1  0
M  END
