
     RDKit          3D

 14 14  0  0  0  0  0  0  0  0999 V2000
   -2.2391   -0.3104    0.4152 O   0  0  0  0  0  0  0  0  0  0  0  0
   -0.9939   -0.9266    0.3082 C   0  0  0  0  0  0  0  0  0  0  0  0
   -0.0834   -0.1121   -0.5939 C   0  0  0  0  0  0  0  0  0  0  0  0
    0.2080    1.2780   -0.1798 C   0  0  0  0  0  0  0  0  0  0  0  0
    1.2889    0.2917   -0.0154 C   0  0  0  0  0  0  0  0  0  0  0  0
    1.5923   -0.2884    1.2032 O   0  0  0  0  0  0  0  0  0  0  0  0
   -2.1337    0.6157    0.1097 H   0  0  0  0  0  0  0  0  0  0  0  0
   -0.5615   -0.9413    1.3371 H   0  0  0  0  0  0  0  0  0  0  0  0
   -1.0420   -1.9614   -0.0443 H   0  0  0  0  0  0  0  0  0  0  0  0
   -0.0388   -0.4262   -1.6535 H   0  0  0  0  0  0  0  0  0  0  0  0
   -0.3610    1.6659    0.6766 H   0  0  0  0  0  0  0  0  0  0  0  0
    0.3844    2.0533   -0.9623 H   0  0  0  0  0  0  0  0  0  0  0  0
    2.1467    0.3080   -0.7190 H   0  0  0  0  0  0  0  0  0  0  0  0
    1.8331   -1.2463    0.9998 H   0  0  0  0  0  0  0  0  0  0  0  0
  1  2  1  0
  2  3  1  0
  3  4  1  0
  4  5  1  0
  5  6  1  0
  5  3  1  0
  1  7  1  0
  2  8  1  0
  2  9  1  0
  3 10  1  0
  4 11  1  0
  4 12  1  0
  5 13  1  0
  6 14  1  0
M  END
