
     RDKit          3D

 21 22  0  0  0  0  0  0  0  0999 V2000
    1.9113    1.4997    1.0428 O   0  0  0  0  0  0  0  0  0  0  0  0
    2.0522    0.2875    0.4015 C   0  0  0  0  0  0  0  0  0  0  0  0
    0.7543   -0.1789   -0.2300 C   0  0  0  0  0  0  0  0  0  0  0  0
    0.7453   -1.6929   -0.5441 C   0  0  0  0  0  0  0  0  0  0  0  0
   -0.1130   -1.0986    0.4866 C   0  0  0  0  0  0  0  0  0  0  0  0
   -1.5911   -0.8587    0.2561 C   0  0  0  0  0  0  0  0  0  0  0  0
   -1.7460    0.6678    0.2512 C   0  0  0  0  0  0  0  0  0  0  0  0
   -0.9719    1.2326   -0.8807 C   0  0  0  0  0  0  0  0  0  0  0  0
    0.2074    0.6323   -1.1702 O   0  0  0  0  0  0  0  0  0  0  0  0
    2.3897    2.2427    0.6272 H   0  0  0  0  0  0  0  0  0  0  0  0
    2.8359    0.3981   -0.3819 H   0  0  0  0  0  0  0  0  0  0  0  0
    2.3197   -0.4934    1.1570 H   0  0  0  0  0  0  0  0  0  0  0  0
    1.5986   -2.2916   -0.2077 H   0  0  0  0  0  0  0  0  0  0  0  0
    0.3826   -1.9651   -1.5519 H   0  0  0  0  0  0  0  0  0  0  0  0
    0.1185   -1.3295    1.5508 H   0  0  0  0  0  0  0  0  0  0  0  0
   -2.2174   -1.2426    1.0909 H   0  0  0  0  0  0  0  0  0  0  0  0
   -1.9014   -1.2390   -0.7312 H   0  0  0  0  0  0  0  0  0  0  0  0
   -1.4327    1.0578    1.2508 H   0  0  0  0  0  0  0  0  0  0  0  0
   -2.8349    0.8592    0.0879 H   0  0  0  0  0  0  0  0  0  0  0  0
   -1.6255    1.1677   -1.8003 H   0  0  0  0  0  0  0  0  0  0  0  0
   -0.8817    2.3450   -0.7047 H   0  0  0  0  0  0  0  0  0  0  0  0
  1  2  1  0
  2  3  1  0
  3  4  1  0
  4  5  1  0
  5  6  1  0
  6  7  1  0
  7  8  1  0
  8  9  1  0
  5  3  1  0
  9  3  1  0
  1 10  1  0
  2 11  1  0
  2 12  1  0
  4 13  1  0
  4 14  1  0
  5 15  1  0
  6 16  1  0
  6 17  1  0
  7 18  1  0
  7 19  1  0
  8 20  1  0
  8 21  1  0
M  END
