
     RDKit          3D

 18 20  0  0  0  0  0  0  0  0999 V2000
   -2.5391    0.8830   -0.4018 O   0  0  0  0  0  0  0  0  0  0  0  0
   -1.4266    0.8966    0.4719 C   0  0  0  0  0  0  0  0  0  0  0  0
   -0.4138   -0.0353   -0.0972 C   0  0  0  0  0  0  0  0  0  0  0  0
   -0.8289   -1.4508   -0.2582 C   0  0  0  0  0  0  0  0  0  0  0  0
    0.2710   -1.0743    0.6585 C   0  0  0  0  0  0  0  0  0  0  0  0
    1.5902   -0.7418   -0.0437 C   0  0  0  0  0  0  0  0  0  0  0  0
    2.0949    0.6105    0.1804 C   0  0  0  0  0  0  0  0  0  0  0  0
    0.8665    0.4792   -0.6468 C   0  0  0  0  0  0  0  0  0  0  0  0
   -2.6487    1.7356   -0.8722 H   0  0  0  0  0  0  0  0  0  0  0  0
   -1.7479    0.5055    1.4713 H   0  0  0  0  0  0  0  0  0  0  0  0
   -1.0259    1.9117    0.5956 H   0  0  0  0  0  0  0  0  0  0  0  0
   -1.7699   -1.7559    0.1997 H   0  0  0  0  0  0  0  0  0  0  0  0
   -0.5729   -1.9043   -1.2506 H   0  0  0  0  0  0  0  0  0  0  0  0
    0.2459   -1.2092    1.7312 H   0  0  0  0  0  0  0  0  0  0  0  0
    1.9552   -1.4332   -0.8091 H   0  0  0  0  0  0  0  0  0  0  0  0
    2.0443    0.9970    1.2172 H   0  0  0  0  0  0  0  0  0  0  0  0
    2.9927    0.9522   -0.3780 H   0  0  0  0  0  0  0  0  0  0  0  0
    0.9129    0.6336   -1.7233 H   0  0  0  0  0  0  0  0  0  0  0  0
  1  2  1  0
  2  3  1  0
  3  4  1  0
  4  5  1  0
  5  6  1  0
  6  7  1  0
  7  8  1  0
  5  3  1  0
  8  6  1  0
  8  3  1  0
  1  9  1  0
  2 10  1  0
  2 11  1  0
  4 12  1  0
  4 13  1  0
  5 14  1  0
  6 15  1  0
  7 16  1  0
  7 17  1  0
  8 18  1  0
M  END
