
     RDKit          3D

 18 19  0  0  0  0  0  0  0  0999 V2000
    3.0117    0.2210    0.2462 O   0  0  0  0  0  0  0  0  0  0  0  0
    1.9969   -0.7251    0.1278 C   0  0  0  0  0  0  0  0  0  0  0  0
    0.6502   -0.1166    0.2216 C   0  0  0  0  0  0  0  0  0  0  0  0
    0.2495    1.1461    0.3952 C   0  0  0  0  0  0  0  0  0  0  0  0
   -1.2317    1.0228    0.4612 C   0  0  0  0  0  0  0  0  0  0  0  0
   -1.3427   -0.2311    1.3437 C   0  0  0  0  0  0  0  0  0  0  0  0
   -0.6181   -0.8514    0.1339 C   0  0  0  0  0  0  0  0  0  0  0  0
   -1.5204    0.0808   -0.6850 C   0  0  0  0  0  0  0  0  0  0  0  0
    2.9285    0.9262   -0.4446 H   0  0  0  0  0  0  0  0  0  0  0  0
    2.1781   -1.4647    0.9587 H   0  0  0  0  0  0  0  0  0  0  0  0
    2.1035   -1.3336   -0.8071 H   0  0  0  0  0  0  0  0  0  0  0  0
    0.8780    2.0411    0.4684 H   0  0  0  0  0  0  0  0  0  0  0  0
   -1.8446    1.8432    0.6630 H   0  0  0  0  0  0  0  0  0  0  0  0
   -0.6827   -0.2105    2.2203 H   0  0  0  0  0  0  0  0  0  0  0  0
   -2.3514   -0.6124    1.4724 H   0  0  0  0  0  0  0  0  0  0  0  0
   -0.6780   -1.8834   -0.0123 H   0  0  0  0  0  0  0  0  0  0  0  0
   -1.1303    0.3650   -1.6583 H   0  0  0  0  0  0  0  0  0  0  0  0
   -2.5965   -0.2174   -0.6373 H   0  0  0  0  0  0  0  0  0  0  0  0
  1  2  1  0
  2  3  1  0
  3  4  2  0
  4  5  1  0
  5  6  1  0
  6  7  1  0
  7  8  1  0
  7  3  1  0
  8  5  1  0
  1  9  1  0
  2 10  1  0
  2 11  1  0
  4 12  1  0
  5 13  1  0
  6 14  1  0
  6 15  1  0
  7 16  1  0
  8 17  1  0
  8 18  1  0
M  END
