
     RDKit          3D

 19 20  0  0  0  0  0  0  0  0999 V2000
    2.7810   -0.8650    0.0052 O   0  0  0  0  0  0  0  0  0  0  0  0
    1.9603    0.2044    0.2902 C   0  0  0  0  0  0  0  0  0  0  0  0
    0.5759    0.0799   -0.1433 C   0  0  0  0  0  0  0  0  0  0  0  0
   -0.4403    1.0584    0.4147 C   0  0  0  0  0  0  0  0  0  0  0  0
   -1.4019   -0.0757    0.0564 C   0  0  0  0  0  0  0  0  0  0  0  0
   -2.5926   -0.1355    0.6054 O   0  0  0  0  0  0  0  0  0  0  0  0
   -1.1766   -0.1704   -1.4231 C   0  0  0  0  0  0  0  0  0  0  0  0
    0.2417   -0.0873   -1.4529 O   0  0  0  0  0  0  0  0  0  0  0  0
   -0.2766   -0.9881    0.5653 C   0  0  0  0  0  0  0  0  0  0  0  0
    3.2320   -0.7160   -0.8658 H   0  0  0  0  0  0  0  0  0  0  0  0
    2.4084    1.1504   -0.0710 H   0  0  0  0  0  0  0  0  0  0  0  0
    1.9632    0.3012    1.4170 H   0  0  0  0  0  0  0  0  0  0  0  0
   -0.6653    1.9253   -0.2372 H   0  0  0  0  0  0  0  0  0  0  0  0
   -0.3319    1.2547    1.4838 H   0  0  0  0  0  0  0  0  0  0  0  0
   -2.6632    0.4364    1.4040 H   0  0  0  0  0  0  0  0  0  0  0  0
   -1.6306    0.6966   -1.9325 H   0  0  0  0  0  0  0  0  0  0  0  0
   -1.5183   -1.1463   -1.8060 H   0  0  0  0  0  0  0  0  0  0  0  0
   -0.1411   -0.9804    1.6440 H   0  0  0  0  0  0  0  0  0  0  0  0
   -0.3244   -1.9427    0.0460 H   0  0  0  0  0  0  0  0  0  0  0  0
  1  2  1  0
  2  3  1  0
  3  4  1  0
  4  5  1  0
  5  6  1  0
  5  7  1  0
  7  8  1  0
  5  9  1  0
  8  3  1  0
  9  3  1  0
  1 10  1  0
  2 11  1  0
  2 12  1  0
  4 13  1  0
  4 14  1  0
  6 15  1  0
  7 16  1  0
  7 17  1  0
  9 18  1  0
  9 19  1  0
M  END
