
     RDKit          3D

 19 19  0  0  0  0  0  0  0  0999 V2000
    2.7409    0.5300   -0.3372 O   0  0  0  0  0  0  0  0  0  0  0  0
    1.9195   -0.4946    0.1528 C   0  0  0  0  0  0  0  0  0  0  0  0
    0.5376    0.0721    0.2853 C   0  0  0  0  0  0  0  0  0  0  0  0
   -0.0490    0.5703   -0.9897 C   0  0  0  0  0  0  0  0  0  0  0  0
   -1.5372    0.5438   -0.7356 C   0  0  0  0  0  0  0  0  0  0  0  0
   -1.7561   -0.1353    0.5834 C   0  0  0  0  0  0  0  0  0  0  0  0
   -0.4739   -0.9540    0.7341 C   0  0  0  0  0  0  0  0  0  0  0  0
    2.5501    1.3552    0.1762 H   0  0  0  0  0  0  0  0  0  0  0  0
    2.2700   -0.7642    1.1645 H   0  0  0  0  0  0  0  0  0  0  0  0
    1.9274   -1.3385   -0.5516 H   0  0  0  0  0  0  0  0  0  0  0  0
    0.5387    0.8834    1.0414 H   0  0  0  0  0  0  0  0  0  0  0  0
    0.3102    1.5658   -1.3070 H   0  0  0  0  0  0  0  0  0  0  0  0
    0.1971   -0.1858   -1.7908 H   0  0  0  0  0  0  0  0  0  0  0  0
   -2.0459   -0.0337   -1.5186 H   0  0  0  0  0  0  0  0  0  0  0  0
   -1.8913    1.5927   -0.6692 H   0  0  0  0  0  0  0  0  0  0  0  0
   -2.6484   -0.7550    0.6394 H   0  0  0  0  0  0  0  0  0  0  0  0
   -1.7009    0.6549    1.3745 H   0  0  0  0  0  0  0  0  0  0  0  0
   -0.3203   -1.3208    1.7460 H   0  0  0  0  0  0  0  0  0  0  0  0
   -0.5686   -1.7863    0.0021 H   0  0  0  0  0  0  0  0  0  0  0  0
  1  2  1  0
  2  3  1  0
  3  4  1  0
  4  5  1  0
  5  6  1  0
  6  7  1  0
  7  3  1  0
  1  8  1  0
  2  9  1  0
  2 10  1  0
  3 11  1  0
  4 12  1  0
  4 13  1  0
  5 14  1  0
  5 15  1  0
  6 16  1  0
  6 17  1  0
  7 18  1  0
  7 19  1  0
M  END
