
     RDKit          3D

 21 21  0  0  0  0  0  0  0  0999 V2000
    3.2072    0.2715   -0.7113 O   0  0  0  0  0  0  0  0  0  0  0  0
    2.2381    0.0471    0.2424 C   0  0  0  0  0  0  0  0  0  0  0  0
    0.9559    0.8232   -0.0297 C   0  0  0  0  0  0  0  0  0  0  0  0
    0.3809    0.4334   -1.3452 C   0  0  0  0  0  0  0  0  0  0  0  0
   -0.6298   -0.4136   -1.2165 C   0  0  0  0  0  0  0  0  0  0  0  0
   -0.8771   -0.7138    0.2157 C   0  0  0  0  0  0  0  0  0  0  0  0
   -2.3552   -0.6040    0.4625 C   0  0  0  0  0  0  0  0  0  0  0  0
   -2.8476    0.6696    0.1778 O   0  0  0  0  0  0  0  0  0  0  0  0
   -0.0722    0.3265    0.9491 C   0  0  0  0  0  0  0  0  0  0  0  0
    4.0942    0.0686   -0.3151 H   0  0  0  0  0  0  0  0  0  0  0  0
    2.0236   -1.0126    0.3933 H   0  0  0  0  0  0  0  0  0  0  0  0
    2.6427    0.4565    1.2119 H   0  0  0  0  0  0  0  0  0  0  0  0
    1.1221    1.9107    0.0410 H   0  0  0  0  0  0  0  0  0  0  0  0
    0.7275    0.7869   -2.3384 H   0  0  0  0  0  0  0  0  0  0  0  0
   -1.1942   -0.8246   -2.0781 H   0  0  0  0  0  0  0  0  0  0  0  0
   -0.5806   -1.7537    0.4652 H   0  0  0  0  0  0  0  0  0  0  0  0
   -2.8486   -1.2908   -0.2695 H   0  0  0  0  0  0  0  0  0  0  0  0
   -2.6689   -0.8962    1.4695 H   0  0  0  0  0  0  0  0  0  0  0  0
   -3.0510    0.7724   -0.7969 H   0  0  0  0  0  0  0  0  0  0  0  0
   -0.6731    1.1460    1.3580 H   0  0  0  0  0  0  0  0  0  0  0  0
    0.4061   -0.2033    1.8223 H   0  0  0  0  0  0  0  0  0  0  0  0
  1  2  1  0
  2  3  1  0
  3  4  1  0
  4  5  2  0
  5  6  1  0
  6  7  1  0
  7  8  1  0
  6  9  1  0
  9  3  1  0
  1 10  1  0
  2 11  1  0
  2 12  1  0
  3 13  1  0
  4 14  1  0
  5 15  1  0
  6 16  1  0
  7 17  1  0
  7 18  1  0
  8 19  1  0
  9 20  1  0
  9 21  1  0
M  END
