
     RDKit          3D

 18 19  0  0  0  0  0  0  0  0999 V2000
    2.7090   -0.6913   -0.3224 O   0  0  0  0  0  0  0  0  0  0  0  0
    1.7882   -0.1410    0.5657 C   0  0  0  0  0  0  0  0  0  0  0  0
    0.3834   -0.4952    0.2720 C   0  0  0  0  0  0  0  0  0  0  0  0
   -0.2408   -0.1438   -1.0070 C   0  0  0  0  0  0  0  0  0  0  0  0
   -0.3838    1.2682   -0.5162 C   0  0  0  0  0  0  0  0  0  0  0  0
   -0.7103    0.4403    0.6810 C   0  0  0  0  0  0  0  0  0  0  0  0
   -1.5650   -0.3493   -0.2880 C   0  0  0  0  0  0  0  0  0  0  0  0
   -1.7981   -1.6223    0.1617 O   0  0  0  0  0  0  0  0  0  0  0  0
    2.4112   -1.5329   -0.7212 H   0  0  0  0  0  0  0  0  0  0  0  0
    2.0970   -0.5636    1.5707 H   0  0  0  0  0  0  0  0  0  0  0  0
    1.9316    0.9497    0.6413 H   0  0  0  0  0  0  0  0  0  0  0  0
    0.1475   -1.5150    0.6888 H   0  0  0  0  0  0  0  0  0  0  0  0
   -0.0395   -0.4379   -1.9421 H   0  0  0  0  0  0  0  0  0  0  0  0
    0.4900    1.8839   -0.3858 H   0  0  0  0  0  0  0  0  0  0  0  0
   -1.2554    1.7356   -1.0346 H   0  0  0  0  0  0  0  0  0  0  0  0
   -0.9692    0.7335    1.5978 H   0  0  0  0  0  0  0  0  0  0  0  0
   -2.4145    0.2032   -0.7257 H   0  0  0  0  0  0  0  0  0  0  0  0
   -2.5814   -1.5938    0.7639 H   0  0  0  0  0  0  0  0  0  0  0  0
  1  2  1  0
  2  3  1  0
  3  4  1  0
  4  5  1  0
  5  6  1  0
  6  7  1  0
  7  8  1  0
  6  3  1  0
  7  4  1  0
  1  9  1  0
  2 10  1  0
  2 11  1  0
  3 12  1  0
  4 13  1  0
  5 14  1  0
  5 15  1  0
  6 16  1  0
  7 17  1  0
  8 18  1  0
M  END
