
     RDKit          3D

 19 20  0  0  0  0  0  0  0  0999 V2000
    2.5950   -0.2253   -0.9953 O   0  0  0  0  0  0  0  0  0  0  0  0
    1.7567   -0.9923   -0.2008 C   0  0  0  0  0  0  0  0  0  0  0  0
    0.6786   -0.1867    0.4730 C   0  0  0  0  0  0  0  0  0  0  0  0
   -0.6924   -0.7870    0.5709 C   0  0  0  0  0  0  0  0  0  0  0  0
   -1.4603    0.0589   -0.4328 C   0  0  0  0  0  0  0  0  0  0  0  0
   -2.8093   -0.1745   -0.2190 O   0  0  0  0  0  0  0  0  0  0  0  0
   -1.0374    1.4478    0.0111 C   0  0  0  0  0  0  0  0  0  0  0  0
    0.4761    1.2569    0.1181 C   0  0  0  0  0  0  0  0  0  0  0  0
    1.0021    0.8352    1.3331 O   0  0  0  0  0  0  0  0  0  0  0  0
    3.3410    0.0790   -0.4298 H   0  0  0  0  0  0  0  0  0  0  0  0
    2.3624   -1.4603    0.6068 H   0  0  0  0  0  0  0  0  0  0  0  0
    1.2944   -1.7983   -0.7893 H   0  0  0  0  0  0  0  0  0  0  0  0
   -0.7238   -1.8563    0.2977 H   0  0  0  0  0  0  0  0  0  0  0  0
   -1.1053   -0.5596    1.5635 H   0  0  0  0  0  0  0  0  0  0  0  0
   -1.1493   -0.1360   -1.4671 H   0  0  0  0  0  0  0  0  0  0  0  0
   -2.8977   -1.1527   -0.0529 H   0  0  0  0  0  0  0  0  0  0  0  0
   -1.4884    1.6965    0.9738 H   0  0  0  0  0  0  0  0  0  0  0  0
   -1.2769    2.1702   -0.7944 H   0  0  0  0  0  0  0  0  0  0  0  0
    1.1343    1.7846   -0.5667 H   0  0  0  0  0  0  0  0  0  0  0  0
  1  2  1  0
  2  3  1  0
  3  4  1  0
  4  5  1  0
  5  6  1  0
  5  7  1  0
  7  8  1  0
  8  9  1  0
  8  3  1  0
  9  3  1  0
  1 10  1  0
  2 11  1  0
  2 12  1  0
  4 13  1  0
  4 14  1  0
  5 15  1  0
  6 16  1  0
  7 17  1  0
  7 18  1  0
  8 19  1  0
M  END
