
     RDKit          3D

 21 22  0  0  0  0  0  0  0  0999 V2000
    3.2933    0.3463    0.2748 O   0  0  0  0  0  0  0  0  0  0  0  0
    2.2864   -0.6098    0.4066 C   0  0  0  0  0  0  0  0  0  0  0  0
    0.9737    0.0952    0.2844 C   0  0  0  0  0  0  0  0  0  0  0  0
    0.7786    0.8032   -1.0250 C   0  0  0  0  0  0  0  0  0  0  0  0
   -0.5934    1.0215   -1.0981 O   0  0  0  0  0  0  0  0  0  0  0  0
   -1.2258    0.0594   -0.3644 C   0  0  0  0  0  0  0  0  0  0  0  0
   -2.2657    0.4993    0.6798 C   0  0  0  0  0  0  0  0  0  0  0  0
   -2.6315   -0.3070   -0.5369 C   0  0  0  0  0  0  0  0  0  0  0  0
   -0.1980   -0.8847    0.1859 C   0  0  0  0  0  0  0  0  0  0  0  0
    2.9792    1.2096    0.6595 H   0  0  0  0  0  0  0  0  0  0  0  0
    2.3558   -0.9635    1.4760 H   0  0  0  0  0  0  0  0  0  0  0  0
    2.4089   -1.4637   -0.2537 H   0  0  0  0  0  0  0  0  0  0  0  0
    0.7678    0.7826    1.0974 H   0  0  0  0  0  0  0  0  0  0  0  0
    1.3337    1.7723   -1.0514 H   0  0  0  0  0  0  0  0  0  0  0  0
    1.0824    0.1582   -1.8831 H   0  0  0  0  0  0  0  0  0  0  0  0
   -2.4384    1.5794    0.7163 H   0  0  0  0  0  0  0  0  0  0  0  0
   -2.3242   -0.0644    1.6232 H   0  0  0  0  0  0  0  0  0  0  0  0
   -2.9915   -1.3511   -0.4075 H   0  0  0  0  0  0  0  0  0  0  0  0
   -3.2066    0.2462   -1.3091 H   0  0  0  0  0  0  0  0  0  0  0  0
   -0.4561   -1.3325    1.1398 H   0  0  0  0  0  0  0  0  0  0  0  0
    0.0712   -1.5965   -0.6145 H   0  0  0  0  0  0  0  0  0  0  0  0
  1  2  1  0
  2  3  1  0
  3  4  1  0
  4  5  1  0
  5  6  1  0
  6  7  1  0
  7  8  1  0
  6  9  1  0
  9  3  1  0
  8  6  1  0
  1 10  1  0
  2 11  1  0
  2 12  1  0
  3 13  1  0
  4 14  1  0
  4 15  1  0
  7 16  1  0
  7 17  1  0
  8 18  1  0
  8 19  1  0
  9 20  1  0
  9 21  1  0
M  END
