
     RDKit          3D

 21 22  0  0  0  0  0  0  0  0999 V2000
    2.8030   -0.5596    0.6160 O   0  0  0  0  0  0  0  0  0  0  0  0
    2.1177    0.2123   -0.3380 C   0  0  0  0  0  0  0  0  0  0  0  0
    0.6584    0.1440   -0.0000 C   0  0  0  0  0  0  0  0  0  0  0  0
    0.1225   -1.2712   -0.0295 C   0  0  0  0  0  0  0  0  0  0  0  0
   -1.3789   -1.1486    0.2647 C   0  0  0  0  0  0  0  0  0  0  0  0
   -1.8888   -0.0122   -0.5647 C   0  0  0  0  0  0  0  0  0  0  0  0
   -1.4626    1.3364   -0.0454 C   0  0  0  0  0  0  0  0  0  0  0  0
   -0.2134    0.9878   -0.8657 C   0  0  0  0  0  0  0  0  0  0  0  0
   -1.0681    0.2207   -1.6825 O   0  0  0  0  0  0  0  0  0  0  0  0
    3.5321   -0.0424    1.0505 H   0  0  0  0  0  0  0  0  0  0  0  0
    2.3749   -0.1851   -1.3166 H   0  0  0  0  0  0  0  0  0  0  0  0
    2.4356    1.2685   -0.2146 H   0  0  0  0  0  0  0  0  0  0  0  0
    0.5440    0.4932    1.0591 H   0  0  0  0  0  0  0  0  0  0  0  0
    0.1776   -1.7065   -1.0585 H   0  0  0  0  0  0  0  0  0  0  0  0
    0.6170   -1.9394    0.6837 H   0  0  0  0  0  0  0  0  0  0  0  0
   -1.8908   -2.0691   -0.0635 H   0  0  0  0  0  0  0  0  0  0  0  0
   -1.5291   -1.0101    1.3557 H   0  0  0  0  0  0  0  0  0  0  0  0
   -2.9641   -0.1169   -0.7993 H   0  0  0  0  0  0  0  0  0  0  0  0
   -2.0059    2.1679   -0.4888 H   0  0  0  0  0  0  0  0  0  0  0  0
   -1.2328    1.3858    1.0334 H   0  0  0  0  0  0  0  0  0  0  0  0
    0.2517    1.8446   -1.3709 H   0  0  0  0  0  0  0  0  0  0  0  0
  1  2  1  0
  2  3  1  0
  3  4  1  0
  4  5  1  0
  5  6  1  0
  6  7  1  0
  7  8  1  0
  8  9  1  0
  8  3  1  0
  9  6  1  0
  1 10  1  0
  2 11  1  0
  2 12  1  0
  3 13  1  0
  4 14  1  0
  4 15  1  0
  5 16  1  0
  5 17  1  0
  6 18  1  0
  7 19  1  0
  7 20  1  0
  8 21  1  0
M  END
