
     RDKit          3D

 19 20  0  0  0  0  0  0  0  0999 V2000
    2.7528   -1.0382    0.0673 O   0  0  0  0  0  0  0  0  0  0  0  0
    1.9820    0.0871   -0.0950 C   0  0  0  0  0  0  0  0  0  0  0  0
    0.5575   -0.0808    0.3872 C   0  0  0  0  0  0  0  0  0  0  0  0
    0.3841   -0.3953    1.7336 O   0  0  0  0  0  0  0  0  0  0  0  0
   -0.3868    0.9441   -0.1462 C   0  0  0  0  0  0  0  0  0  0  0  0
   -1.7631    0.9685    0.4231 C   0  0  0  0  0  0  0  0  0  0  0  0
   -1.9087   -0.5033    0.0439 C   0  0  0  0  0  0  0  0  0  0  0  0
   -0.5205   -0.4805   -0.5263 C   0  0  0  0  0  0  0  0  0  0  0  0
   -0.2963   -0.9265   -1.8083 O   0  0  0  0  0  0  0  0  0  0  0  0
    3.5357   -0.9539   -0.5329 H   0  0  0  0  0  0  0  0  0  0  0  0
    2.4455    0.9145    0.5169 H   0  0  0  0  0  0  0  0  0  0  0  0
    2.0309    0.4237   -1.1417 H   0  0  0  0  0  0  0  0  0  0  0  0
    1.0960    0.0447    2.2512 H   0  0  0  0  0  0  0  0  0  0  0  0
   -0.0479    1.7124   -0.8617 H   0  0  0  0  0  0  0  0  0  0  0  0
   -2.4827    1.6425   -0.0722 H   0  0  0  0  0  0  0  0  0  0  0  0
   -1.7084    1.0912    1.5388 H   0  0  0  0  0  0  0  0  0  0  0  0
   -2.7345   -0.6525   -0.6901 H   0  0  0  0  0  0  0  0  0  0  0  0
   -1.9361   -1.1879    0.9209 H   0  0  0  0  0  0  0  0  0  0  0  0
   -0.9995   -1.6098   -2.0084 H   0  0  0  0  0  0  0  0  0  0  0  0
  1  2  1  0
  2  3  1  0
  3  4  1  0
  3  5  1  0
  5  6  1  0
  6  7  1  0
  7  8  1  0
  8  9  1  0
  8  3  1  0
  8  5  1  0
  1 10  1  0
  2 11  1  0
  2 12  1  0
  4 13  1  0
  5 14  1  0
  6 15  1  0
  6 16  1  0
  7 17  1  0
  7 18  1  0
  9 19  1  0
M  END
