
     RDKit          3D

 19 20  0  0  0  0  0  0  0  0999 V2000
    2.7344    0.1925    0.0632 O   0  0  0  0  0  0  0  0  0  0  0  0
    1.6076   -0.3962   -0.5074 C   0  0  0  0  0  0  0  0  0  0  0  0
    0.5923   -0.6304    0.5894 C   0  0  0  0  0  0  0  0  0  0  0  0
   -0.6727   -1.2762    0.0320 C   0  0  0  0  0  0  0  0  0  0  0  0
   -1.7376   -0.3664    0.5660 C   0  0  0  0  0  0  0  0  0  0  0  0
   -1.7304    0.8815   -0.2631 C   0  0  0  0  0  0  0  0  0  0  0  0
   -0.5765    1.4756    0.0358 C   0  0  0  0  0  0  0  0  0  0  0  0
    0.0225    0.6560    1.1258 C   0  0  0  0  0  0  0  0  0  0  0  0
   -1.1524    0.1564    1.7446 O   0  0  0  0  0  0  0  0  0  0  0  0
    2.9859    1.0428   -0.3748 H   0  0  0  0  0  0  0  0  0  0  0  0
    1.9017   -1.3727   -0.9440 H   0  0  0  0  0  0  0  0  0  0  0  0
    1.1782    0.2780   -1.2720 H   0  0  0  0  0  0  0  0  0  0  0  0
    1.0208   -1.1969    1.4218 H   0  0  0  0  0  0  0  0  0  0  0  0
   -0.7756   -2.3239    0.3176 H   0  0  0  0  0  0  0  0  0  0  0  0
   -0.6630   -1.1348   -1.0865 H   0  0  0  0  0  0  0  0  0  0  0  0
   -2.7050   -0.7985    0.7166 H   0  0  0  0  0  0  0  0  0  0  0  0
   -2.4828    1.2445   -0.9592 H   0  0  0  0  0  0  0  0  0  0  0  0
   -0.2068    2.3708   -0.4526 H   0  0  0  0  0  0  0  0  0  0  0  0
    0.6593    1.1981    1.8021 H   0  0  0  0  0  0  0  0  0  0  0  0
  1  2  1  0
  2  3  1  0
  3  4  1  0
  4  5  1  0
  5  6  1  0
  6  7  2  0
  7  8  1  0
  8  9  1  0
  8  3  1  0
  9  5  1  0
  1 10  1  0
  2 11  1  0
  2 12  1  0
  3 13  1  0
  4 14  1  0
  4 15  1  0
  5 16  1  0
  6 17  1  0
  7 18  1  0
  8 19  1  0
M  END
