
     RDKit          3D

 18 19  0  0  0  0  0  0  0  0999 V2000
    2.5724    0.0949    1.1475 O   0  0  0  0  0  0  0  0  0  0  0  0
    1.7923    0.2772    0.0172 C   0  0  0  0  0  0  0  0  0  0  0  0
    0.4926   -0.4063    0.2012 C   0  0  0  0  0  0  0  0  0  0  0  0
   -0.4709   -0.2833   -0.9813 C   0  0  0  0  0  0  0  0  0  0  0  0
   -1.6340   -1.0703   -0.4375 C   0  0  0  0  0  0  0  0  0  0  0  0
   -1.6519   -0.5524    0.8851 O   0  0  0  0  0  0  0  0  0  0  0  0
   -0.6090    0.3720    0.8892 C   0  0  0  0  0  0  0  0  0  0  0  0
   -0.8010    1.0851   -0.4285 C   0  0  0  0  0  0  0  0  0  0  0  0
    2.0617    0.1432    1.9899 H   0  0  0  0  0  0  0  0  0  0  0  0
    1.7657    1.3328   -0.2161 H   0  0  0  0  0  0  0  0  0  0  0  0
    2.3227   -0.2275   -0.8420 H   0  0  0  0  0  0  0  0  0  0  0  0
    0.6039   -1.4431    0.5367 H   0  0  0  0  0  0  0  0  0  0  0  0
   -0.1176   -0.4077   -1.9545 H   0  0  0  0  0  0  0  0  0  0  0  0
   -2.5775   -0.8970   -0.9534 H   0  0  0  0  0  0  0  0  0  0  0  0
   -1.3290   -2.1174   -0.3355 H   0  0  0  0  0  0  0  0  0  0  0  0
   -0.3958    0.9223    1.7633 H   0  0  0  0  0  0  0  0  0  0  0  0
   -0.1381    1.8994   -0.6667 H   0  0  0  0  0  0  0  0  0  0  0  0
   -1.8866    1.2781   -0.6145 H   0  0  0  0  0  0  0  0  0  0  0  0
  1  2  1  0
  2  3  1  0
  3  4  1  0
  4  5  1  0
  5  6  1  0
  6  7  1  0
  7  8  1  0
  7  3  1  0
  8  4  1  0
  1  9  1  0
  2 10  1  0
  2 11  1  0
  3 12  1  0
  4 13  1  0
  5 14  1  0
  5 15  1  0
  7 16  1  0
  8 17  1  0
  8 18  1  0
M  END
