
     RDKit          3D

 21 22  0  0  0  0  0  0  0  0999 V2000
    2.2050   -1.1736   -0.8783 O   0  0  0  0  0  0  0  0  0  0  0  0
    1.9112   -0.2449    0.1419 C   0  0  0  0  0  0  0  0  0  0  0  0
    0.7741    0.6106   -0.3662 C   0  0  0  0  0  0  0  0  0  0  0  0
    0.3510    1.6641    0.6399 C   0  0  0  0  0  0  0  0  0  0  0  0
   -1.1014    1.2391    0.3820 C   0  0  0  0  0  0  0  0  0  0  0  0
   -0.5855    0.0174   -0.2645 C   0  0  0  0  0  0  0  0  0  0  0  0
   -1.2109   -0.6964   -1.3631 C   0  0  0  0  0  0  0  0  0  0  0  0
   -0.9273   -1.3407    0.0100 C   0  0  0  0  0  0  0  0  0  0  0  0
   -2.0892   -1.6140    0.7498 O   0  0  0  0  0  0  0  0  0  0  0  0
    3.1549   -1.4290   -0.7655 H   0  0  0  0  0  0  0  0  0  0  0  0
    1.6224   -0.8009    1.0458 H   0  0  0  0  0  0  0  0  0  0  0  0
    2.8254    0.3714    0.2640 H   0  0  0  0  0  0  0  0  0  0  0  0
    0.9372    1.0143   -1.3866 H   0  0  0  0  0  0  0  0  0  0  0  0
    0.5692    2.7063    0.3403 H   0  0  0  0  0  0  0  0  0  0  0  0
    0.6816    1.4490    1.6864 H   0  0  0  0  0  0  0  0  0  0  0  0
   -1.5478    1.9667   -0.3482 H   0  0  0  0  0  0  0  0  0  0  0  0
   -1.6513    1.1560    1.3194 H   0  0  0  0  0  0  0  0  0  0  0  0
   -2.2515   -0.4572   -1.6139 H   0  0  0  0  0  0  0  0  0  0  0  0
   -0.5935   -1.0199   -2.2164 H   0  0  0  0  0  0  0  0  0  0  0  0
   -0.1726   -2.1372   -0.0350 H   0  0  0  0  0  0  0  0  0  0  0  0
   -2.9009   -1.2813    0.2816 H   0  0  0  0  0  0  0  0  0  0  0  0
  1  2  1  0
  2  3  1  0
  3  4  1  0
  4  5  1  0
  5  6  1  0
  6  7  1  0
  7  8  1  0
  8  9  1  0
  6  3  1  0
  8  6  1  0
  1 10  1  0
  2 11  1  0
  2 12  1  0
  3 13  1  0
  4 14  1  0
  4 15  1  0
  5 16  1  0
  5 17  1  0
  7 18  1  0
  7 19  1  0
  8 20  1  0
  9 21  1  0
M  END
