
     RDKit          3D

 17 18  0  0  0  0  0  0  0  0999 V2000
    2.7392   -0.5020   -0.0040 O   0  0  0  0  0  0  0  0  0  0  0  0
    1.5593   -0.3140   -0.7060 C   0  0  0  0  0  0  0  0  0  0  0  0
    0.4438   -0.0646    0.2388 C   0  0  0  0  0  0  0  0  0  0  0  0
    0.5091    1.0332    1.0938 O   0  0  0  0  0  0  0  0  0  0  0  0
   -0.5218    1.6000    0.3401 C   0  0  0  0  0  0  0  0  0  0  0  0
   -0.9269    0.2733   -0.2022 C   0  0  0  0  0  0  0  0  0  0  0  0
   -1.3087    0.2122   -1.5312 O   0  0  0  0  0  0  0  0  0  0  0  0
   -0.6613   -1.0007    0.4758 C   0  0  0  0  0  0  0  0  0  0  0  0
   -1.2135   -1.1734    1.7477 O   0  0  0  0  0  0  0  0  0  0  0  0
    2.6692   -0.2988    0.9468 H   0  0  0  0  0  0  0  0  0  0  0  0
    1.7076    0.6301   -1.3086 H   0  0  0  0  0  0  0  0  0  0  0  0
    1.3184   -1.1030   -1.4151 H   0  0  0  0  0  0  0  0  0  0  0  0
   -0.0560    2.2118   -0.4885 H   0  0  0  0  0  0  0  0  0  0  0  0
   -1.2582    2.1866    0.8857 H   0  0  0  0  0  0  0  0  0  0  0  0
   -2.1906   -0.2729   -1.5554 H   0  0  0  0  0  0  0  0  0  0  0  0
   -0.6696   -1.9226   -0.1295 H   0  0  0  0  0  0  0  0  0  0  0  0
   -2.1400   -1.4951    1.6117 H   0  0  0  0  0  0  0  0  0  0  0  0
  1  2  1  0
  2  3  1  0
  3  4  1  0
  4  5  1  0
  5  6  1  0
  6  7  1  0
  6  8  1  0
  8  9  1  0
  6  3  1  0
  8  3  1  0
  1 10  1  0
  2 11  1  0
  2 12  1  0
  5 13  1  0
  5 14  1  0
  7 15  1  0
  8 16  1  0
  9 17  1  0
M  END
