
     RDKit          3D

 19 20  0  0  0  0  0  0  0  0999 V2000
   -2.7645   -0.2643    0.0513 O   0  0  0  0  0  0  0  0  0  0  0  0
   -1.7113    0.0506   -0.8058 C   0  0  0  0  0  0  0  0  0  0  0  0
   -0.4380    0.1069   -0.0282 C   0  0  0  0  0  0  0  0  0  0  0  0
    0.0239   -1.1101    0.6974 C   0  0  0  0  0  0  0  0  0  0  0  0
    1.4237   -0.8339    0.2371 C   0  0  0  0  0  0  0  0  0  0  0  0
    2.0416   -1.8168   -0.4943 O   0  0  0  0  0  0  0  0  0  0  0  0
    0.8798    0.2661   -0.6450 C   0  0  0  0  0  0  0  0  0  0  0  0
    0.2626    1.4039    0.0806 C   0  0  0  0  0  0  0  0  0  0  0  0
    0.7595    1.7915    1.3324 O   0  0  0  0  0  0  0  0  0  0  0  0
   -2.4717   -0.1073    0.9988 H   0  0  0  0  0  0  0  0  0  0  0  0
   -1.8622    1.0262   -1.3167 H   0  0  0  0  0  0  0  0  0  0  0  0
   -1.6850   -0.7302   -1.6111 H   0  0  0  0  0  0  0  0  0  0  0  0
   -0.1493   -1.0533    1.7907 H   0  0  0  0  0  0  0  0  0  0  0  0
   -0.4522   -2.0211    0.2421 H   0  0  0  0  0  0  0  0  0  0  0  0
    2.0352   -0.4065    1.0451 H   0  0  0  0  0  0  0  0  0  0  0  0
    2.8740   -1.4123   -0.8836 H   0  0  0  0  0  0  0  0  0  0  0  0
    1.0692    0.2698   -1.7190 H   0  0  0  0  0  0  0  0  0  0  0  0
   -0.1304    2.2130   -0.5646 H   0  0  0  0  0  0  0  0  0  0  0  0
    0.2950    2.6277    1.5927 H   0  0  0  0  0  0  0  0  0  0  0  0
  1  2  1  0
  2  3  1  0
  3  4  1  0
  4  5  1  0
  5  6  1  0
  5  7  1  0
  7  8  1  0
  8  9  1  0
  7  3  1  0
  8  3  1  0
  1 10  1  0
  2 11  1  0
  2 12  1  0
  4 13  1  0
  4 14  1  0
  5 15  1  0
  6 16  1  0
  7 17  1  0
  8 18  1  0
  9 19  1  0
M  END
