
     RDKit          3D

 21 23  0  0  0  0  0  0  0  0999 V2000
    2.5583    1.0907   -0.3382 O   0  0  0  0  0  0  0  0  0  0  0  0
    1.9256    0.2917    0.6130 C   0  0  0  0  0  0  0  0  0  0  0  0
    0.5581   -0.0165    0.2208 C   0  0  0  0  0  0  0  0  0  0  0  0
   -0.2971   -0.8693    1.1155 C   0  0  0  0  0  0  0  0  0  0  0  0
   -1.0475   -1.1736   -0.1772 C   0  0  0  0  0  0  0  0  0  0  0  0
    0.3645   -1.1648   -0.7875 C   0  0  0  0  0  0  0  0  0  0  0  0
   -1.5773    0.1368   -0.6614 C   0  0  0  0  0  0  0  0  0  0  0  0
   -1.6744    1.3315    0.2081 C   0  0  0  0  0  0  0  0  0  0  0  0
   -0.3402    1.0361   -0.3008 C   0  0  0  0  0  0  0  0  0  0  0  0
    2.0422    1.1376   -1.1641 H   0  0  0  0  0  0  0  0  0  0  0  0
    1.9270    0.8289    1.5864 H   0  0  0  0  0  0  0  0  0  0  0  0
    2.5351   -0.6210    0.7514 H   0  0  0  0  0  0  0  0  0  0  0  0
   -0.8598   -0.3879    1.9016 H   0  0  0  0  0  0  0  0  0  0  0  0
    0.2306   -1.7798    1.4561 H   0  0  0  0  0  0  0  0  0  0  0  0
   -1.6099   -2.0667   -0.2466 H   0  0  0  0  0  0  0  0  0  0  0  0
    0.8760   -2.0945   -0.4838 H   0  0  0  0  0  0  0  0  0  0  0  0
    0.4008   -0.8710   -1.8291 H   0  0  0  0  0  0  0  0  0  0  0  0
   -1.8754    0.1851   -1.7263 H   0  0  0  0  0  0  0  0  0  0  0  0
   -2.1970    2.1979   -0.2596 H   0  0  0  0  0  0  0  0  0  0  0  0
   -2.0013    1.1678    1.2489 H   0  0  0  0  0  0  0  0  0  0  0  0
    0.0618    1.6411   -1.1273 H   0  0  0  0  0  0  0  0  0  0  0  0
  1  2  1  0
  2  3  1  0
  3  4  1  0
  4  5  1  0
  5  6  1  0
  5  7  1  0
  7  8  1  0
  8  9  1  0
  6  3  1  0
  9  7  1  0
  9  3  1  0
  1 10  1  0
  2 11  1  0
  2 12  1  0
  4 13  1  0
  4 14  1  0
  5 15  1  0
  6 16  1  0
  6 17  1  0
  7 18  1  0
  8 19  1  0
  8 20  1  0
  9 21  1  0
M  END
