
     RDKit          3D

 16 15  0  0  0  0  0  0  0  0999 V2000
    2.3808    0.8342    0.9512 O   0  0  0  0  0  0  0  0  0  0  0  0
    1.3111    0.0464    0.5548 C   0  0  0  0  0  0  0  0  0  0  0  0
    0.6155    0.6856   -0.5988 C   0  0  0  0  0  0  0  0  0  0  0  0
   -0.5661   -0.1137   -1.0915 C   0  0  0  0  0  0  0  0  0  0  0  0
   -1.6111   -0.2923    0.0045 C   0  0  0  0  0  0  0  0  0  0  0  0
   -2.0629    0.9560    0.4197 O   0  0  0  0  0  0  0  0  0  0  0  0
    3.0980    0.2969    1.4103 H   0  0  0  0  0  0  0  0  0  0  0  0
    0.6583   -0.1101    1.4383 H   0  0  0  0  0  0  0  0  0  0  0  0
    1.7498   -0.9421    0.2518 H   0  0  0  0  0  0  0  0  0  0  0  0
    1.3340    0.7453   -1.4395 H   0  0  0  0  0  0  0  0  0  0  0  0
    0.3138    1.7017   -0.3141 H   0  0  0  0  0  0  0  0  0  0  0  0
   -1.0901    0.3925   -1.9271 H   0  0  0  0  0  0  0  0  0  0  0  0
   -0.2262   -1.0964   -1.4525 H   0  0  0  0  0  0  0  0  0  0  0  0
   -2.4205   -0.9066   -0.4510 H   0  0  0  0  0  0  0  0  0  0  0  0
   -1.2126   -0.8723    0.8524 H   0  0  0  0  0  0  0  0  0  0  0  0
   -2.2718    0.8841    1.3917 H   0  0  0  0  0  0  0  0  0  0  0  0
  1  2  1  0
  2  3  1  0
  3  4  1  0
  4  5  1  0
  5  6  1  0
  1  7  1  0
  2  8  1  0
  2  9  1  0
  3 10  1  0
  3 11  1  0
  4 12  1  0
  4 13  1  0
  5 14  1  0
  5 15  1  0
  6 16  1  0
M  END
