
     RDKit          3D

 21 22  0  0  0  0  0  0  0  0999 V2000
    3.4142    0.4417    0.2867 O   0  0  0  0  0  0  0  0  0  0  0  0
    2.1794    0.6729   -0.3067 C   0  0  0  0  0  0  0  0  0  0  0  0
    1.2565   -0.4920    0.0383 C   0  0  0  0  0  0  0  0  0  0  0  0
   -0.0671   -0.2053   -0.6206 C   0  0  0  0  0  0  0  0  0  0  0  0
   -1.1422   -1.2158   -0.4229 C   0  0  0  0  0  0  0  0  0  0  0  0
   -0.8779   -2.1902    0.5662 O   0  0  0  0  0  0  0  0  0  0  0  0
   -2.0413   -0.1559    0.1229 C   0  0  0  0  0  0  0  0  0  0  0  0
   -2.1840    1.1616   -0.5396 C   0  0  0  0  0  0  0  0  0  0  0  0
   -0.9143    0.8026    0.1222 C   0  0  0  0  0  0  0  0  0  0  0  0
    3.7752    1.2949    0.6637 H   0  0  0  0  0  0  0  0  0  0  0  0
    1.7511    1.6364    0.0268 H   0  0  0  0  0  0  0  0  0  0  0  0
    2.2972    0.7054   -1.3975 H   0  0  0  0  0  0  0  0  0  0  0  0
    1.0708   -0.5530    1.1282 H   0  0  0  0  0  0  0  0  0  0  0  0
    1.6863   -1.4184   -0.3593 H   0  0  0  0  0  0  0  0  0  0  0  0
    0.0035    0.0871   -1.6895 H   0  0  0  0  0  0  0  0  0  0  0  0
   -1.5527   -1.6623   -1.3718 H   0  0  0  0  0  0  0  0  0  0  0  0
   -0.5107   -2.9804    0.0745 H   0  0  0  0  0  0  0  0  0  0  0  0
   -2.6378   -0.3625    1.0403 H   0  0  0  0  0  0  0  0  0  0  0  0
   -2.8334    1.8871   -0.0152 H   0  0  0  0  0  0  0  0  0  0  0  0
   -2.1309    1.2542   -1.6522 H   0  0  0  0  0  0  0  0  0  0  0  0
   -0.5419    1.2921    1.0251 H   0  0  0  0  0  0  0  0  0  0  0  0
  1  2  1  0
  2  3  1  0
  3  4  1  0
  4  5  1  0
  5  6  1  0
  5  7  1  0
  7  8  1  0
  8  9  1  0
  9  4  1  0
  9  7  1  0
  1 10  1  0
  2 11  1  0
  2 12  1  0
  3 13  1  0
  3 14  1  0
  4 15  1  0
  5 16  1  0
  6 17  1  0
  7 18  1  0
  8 19  1  0
  8 20  1  0
  9 21  1  0
M  END
