
     RDKit          3D

 25 25  0  0  0  0  0  0  0  0999 V2000
    3.9242    0.5248    0.4516 O   0  0  0  0  0  0  0  0  0  0  0  0
    2.4995    0.4525    0.6717 C   0  0  0  0  0  0  0  0  0  0  0  0
    2.0382   -0.8014    0.0355 C   0  0  0  0  0  0  0  0  0  0  0  0
    0.6311   -1.2205    0.1332 C   0  0  0  0  0  0  0  0  0  0  0  0
   -0.4336   -0.3930   -0.4123 C   0  0  0  0  0  0  0  0  0  0  0  0
   -0.6824    0.9766    0.0963 C   0  0  0  0  0  0  0  0  0  0  0  0
   -1.9530    1.3076   -0.7410 C   0  0  0  0  0  0  0  0  0  0  0  0
   -2.7850    0.1068   -0.3827 C   0  0  0  0  0  0  0  0  0  0  0  0
   -1.8224   -1.0376   -0.1930 C   0  0  0  0  0  0  0  0  0  0  0  0
    4.2248    1.3059    0.9528 H   0  0  0  0  0  0  0  0  0  0  0  0
    2.1837    1.3832    0.1093 H   0  0  0  0  0  0  0  0  0  0  0  0
    2.3146    0.5385    1.7424 H   0  0  0  0  0  0  0  0  0  0  0  0
    2.6774   -1.6334    0.4951 H   0  0  0  0  0  0  0  0  0  0  0  0
    2.3277   -0.7389   -1.0652 H   0  0  0  0  0  0  0  0  0  0  0  0
    0.5962   -2.2697   -0.3306 H   0  0  0  0  0  0  0  0  0  0  0  0
    0.3675   -1.4437    1.2196 H   0  0  0  0  0  0  0  0  0  0  0  0
   -0.3804   -0.3072   -1.5356 H   0  0  0  0  0  0  0  0  0  0  0  0
   -1.0104    0.9195    1.1711 H   0  0  0  0  0  0  0  0  0  0  0  0
    0.0545    1.7450   -0.0588 H   0  0  0  0  0  0  0  0  0  0  0  0
   -2.3832    2.2645   -0.4188 H   0  0  0  0  0  0  0  0  0  0  0  0
   -1.6216    1.2739   -1.7855 H   0  0  0  0  0  0  0  0  0  0  0  0
   -3.3133    0.3653    0.5763 H   0  0  0  0  0  0  0  0  0  0  0  0
   -3.5543   -0.1253   -1.1469 H   0  0  0  0  0  0  0  0  0  0  0  0
   -1.8875   -1.3634    0.8640 H   0  0  0  0  0  0  0  0  0  0  0  0
   -2.0124   -1.8298   -0.9234 H   0  0  0  0  0  0  0  0  0  0  0  0
  1  2  1  0
  2  3  1  0
  3  4  1  0
  4  5  1  0
  5  6  1  0
  6  7  1  0
  7  8  1  0
  8  9  1  0
  9  5  1  0
  1 10  1  0
  2 11  1  0
  2 12  1  0
  3 13  1  0
  3 14  1  0
  4 15  1  0
  4 16  1  0
  5 17  1  0
  6 18  1  0
  6 19  1  0
  7 20  1  0
  7 21  1  0
  8 22  1  0
  8 23  1  0
  9 24  1  0
  9 25  1  0
M  END
