
     RDKit          3D

 21 23  0  0  0  0  0  0  0  0999 V2000
    2.5654    0.8123    0.3412 O   0  0  0  0  0  0  0  0  0  0  0  0
    2.2172   -0.1978   -0.5056 C   0  0  0  0  0  0  0  0  0  0  0  0
    1.0043   -0.9593   -0.1769 C   0  0  0  0  0  0  0  0  0  0  0  0
   -0.2683   -0.2905   -0.0900 C   0  0  0  0  0  0  0  0  0  0  0  0
   -1.4969   -1.1185    0.2522 C   0  0  0  0  0  0  0  0  0  0  0  0
   -2.0587    0.2056    0.8013 C   0  0  0  0  0  0  0  0  0  0  0  0
   -1.5369    1.3309   -0.0006 C   0  0  0  0  0  0  0  0  0  0  0  0
   -0.5947    0.8111   -1.1027 C   0  0  0  0  0  0  0  0  0  0  0  0
   -0.6666    0.6368    0.9586 C   0  0  0  0  0  0  0  0  0  0  0  0
    2.4993    0.5809    1.2900 H   0  0  0  0  0  0  0  0  0  0  0  0
    3.0846   -0.9071   -0.5580 H   0  0  0  0  0  0  0  0  0  0  0  0
    2.1492    0.2273   -1.5462 H   0  0  0  0  0  0  0  0  0  0  0  0
    0.9267   -1.8111   -0.9173 H   0  0  0  0  0  0  0  0  0  0  0  0
    1.1935   -1.4966    0.8016 H   0  0  0  0  0  0  0  0  0  0  0  0
   -2.0549   -1.4507   -0.6380 H   0  0  0  0  0  0  0  0  0  0  0  0
   -1.2504   -1.8541    1.0120 H   0  0  0  0  0  0  0  0  0  0  0  0
   -2.8339    0.2288    1.5297 H   0  0  0  0  0  0  0  0  0  0  0  0
   -1.8492    2.3484    0.0323 H   0  0  0  0  0  0  0  0  0  0  0  0
   -1.1390    0.4538   -1.9978 H   0  0  0  0  0  0  0  0  0  0  0  0
    0.2721    1.4429   -1.2842 H   0  0  0  0  0  0  0  0  0  0  0  0
   -0.1629    1.0069    1.7985 H   0  0  0  0  0  0  0  0  0  0  0  0
  1  2  1  0
  2  3  1  0
  3  4  1  0
  4  5  1  0
  5  6  1  0
  6  7  1  0
  7  8  1  0
  7  9  1  0
  8  4  1  0
  9  4  1  0
  9  6  1  0
  1 10  1  0
  2 11  1  0
  2 12  1  0
  3 13  1  0
  3 14  1  0
  5 15  1  0
  5 16  1  0
  6 17  1  0
  7 18  1  0
  8 19  1  0
  8 20  1  0
  9 21  1  0
M  END
