
     RDKit          3D

 18 18  0  0  0  0  0  0  0  0999 V2000
    2.0834   -1.0873   -0.5666 O   0  0  0  0  0  0  0  0  0  0  0  0
    1.7834   -0.3991    0.6220 C   0  0  0  0  0  0  0  0  0  0  0  0
    0.7566    0.6583    0.2575 C   0  0  0  0  0  0  0  0  0  0  0  0
   -0.4981    0.0386   -0.3132 C   0  0  0  0  0  0  0  0  0  0  0  0
   -0.2340   -0.6893   -1.4600 O   0  0  0  0  0  0  0  0  0  0  0  0
   -1.4458   -0.5612    0.6667 C   0  0  0  0  0  0  0  0  0  0  0  0
   -2.3239    0.5348    0.5908 O   0  0  0  0  0  0  0  0  0  0  0  0
   -1.5834    1.0772   -0.4688 C   0  0  0  0  0  0  0  0  0  0  0  0
    2.2115   -0.4213   -1.3072 H   0  0  0  0  0  0  0  0  0  0  0  0
    1.4002   -1.1320    1.3507 H   0  0  0  0  0  0  0  0  0  0  0  0
    2.6745    0.1610    0.9968 H   0  0  0  0  0  0  0  0  0  0  0  0
    1.2065    1.2727   -0.5572 H   0  0  0  0  0  0  0  0  0  0  0  0
    0.5231    1.3200    1.1185 H   0  0  0  0  0  0  0  0  0  0  0  0
   -0.2068   -1.6455   -1.2018 H   0  0  0  0  0  0  0  0  0  0  0  0
   -1.0442   -0.7578    1.6768 H   0  0  0  0  0  0  0  0  0  0  0  0
   -1.9738   -1.4680    0.2601 H   0  0  0  0  0  0  0  0  0  0  0  0
   -1.2647    2.1257   -0.2103 H   0  0  0  0  0  0  0  0  0  0  0  0
   -2.0645    0.9734   -1.4547 H   0  0  0  0  0  0  0  0  0  0  0  0
  1  2  1  0
  2  3  1  0
  3  4  1  0
  4  5  1  0
  4  6  1  0
  6  7  1  0
  7  8  1  0
  8  4  1  0
  1  9  1  0
  2 10  1  0
  2 11  1  0
  3 12  1  0
  3 13  1  0
  5 14  1  0
  6 15  1  0
  6 16  1  0
  8 17  1  0
  8 18  1  0
M  END
