
     RDKit          3D

 13 12  0  0  0  0  0  0  0  0999 V2000
    1.5787    0.0507    0.9008 O   0  0  0  0  0  0  0  0  0  0  0  0
    1.0518    0.2586   -0.3857 C   0  0  0  0  0  0  0  0  0  0  0  0
   -0.1694   -0.5656   -0.6078 C   0  0  0  0  0  0  0  0  0  0  0  0
   -1.2908   -0.2797    0.3511 C   0  0  0  0  0  0  0  0  0  0  0  0
   -1.7364    1.0143    0.3089 O   0  0  0  0  0  0  0  0  0  0  0  0
    2.5669    0.1610    0.8638 H   0  0  0  0  0  0  0  0  0  0  0  0
    0.9205    1.3348   -0.5599 H   0  0  0  0  0  0  0  0  0  0  0  0
    1.8392   -0.0857   -1.0896 H   0  0  0  0  0  0  0  0  0  0  0  0
   -0.5329   -0.3643   -1.6404 H   0  0  0  0  0  0  0  0  0  0  0  0
    0.1175   -1.6342   -0.5246 H   0  0  0  0  0  0  0  0  0  0  0  0
   -0.9425   -0.5729    1.3755 H   0  0  0  0  0  0  0  0  0  0  0  0
   -2.1455   -0.9468    0.1158 H   0  0  0  0  0  0  0  0  0  0  0  0
   -1.2570    1.6300    0.8921 H   0  0  0  0  0  0  0  0  0  0  0  0
  1  2  1  0
  2  3  1  0
  3  4  1  0
  4  5  1  0
  1  6  1  0
  2  7  1  0
  2  8  1  0
  3  9  1  0
  3 10  1  0
  4 11  1  0
  4 12  1  0
  5 13  1  0
M  END
