
     RDKit          3D

 21 21  0  0  0  0  0  0  0  0999 V2000
    3.1039    0.3158    1.3235 O   0  0  0  0  0  0  0  0  0  0  0  0
    3.2232    0.0188   -0.0284 C   0  0  0  0  0  0  0  0  0  0  0  0
    1.9191    0.3723   -0.6885 C   0  0  0  0  0  0  0  0  0  0  0  0
    0.7657   -0.4260   -0.0883 C   0  0  0  0  0  0  0  0  0  0  0  0
   -0.3797   -0.0349   -0.7539 O   0  0  0  0  0  0  0  0  0  0  0  0
   -1.5190   -0.6925   -0.3004 C   0  0  0  0  0  0  0  0  0  0  0  0
   -2.6781   -0.1623   -1.1171 C   0  0  0  0  0  0  0  0  0  0  0  0
   -3.8305    0.4336   -0.4985 C   0  0  0  0  0  0  0  0  0  0  0  0
   -2.7309    1.3223   -0.8578 O   0  0  0  0  0  0  0  0  0  0  0  0
    3.8069    0.9232    1.6469 H   0  0  0  0  0  0  0  0  0  0  0  0
    3.4351   -1.0723   -0.1941 H   0  0  0  0  0  0  0  0  0  0  0  0
    4.0055    0.6580   -0.4656 H   0  0  0  0  0  0  0  0  0  0  0  0
    1.7204    1.4388   -0.4755 H   0  0  0  0  0  0  0  0  0  0  0  0
    1.9259    0.1443   -1.7812 H   0  0  0  0  0  0  0  0  0  0  0  0
    0.6713   -0.0606    0.9682 H   0  0  0  0  0  0  0  0  0  0  0  0
    0.9483   -1.5052   -0.1041 H   0  0  0  0  0  0  0  0  0  0  0  0
   -1.4739   -1.7916   -0.4552 H   0  0  0  0  0  0  0  0  0  0  0  0
   -1.6546   -0.4890    0.7777 H   0  0  0  0  0  0  0  0  0  0  0  0
   -2.5929   -0.3620   -2.1985 H   0  0  0  0  0  0  0  0  0  0  0  0
   -3.9596    0.2972    0.6048 H   0  0  0  0  0  0  0  0  0  0  0  0
   -4.7062    0.6719   -1.1044 H   0  0  0  0  0  0  0  0  0  0  0  0
  1  2  1  0
  2  3  1  0
  3  4  1  0
  4  5  1  0
  5  6  1  0
  6  7  1  0
  7  8  1  0
  8  9  1  0
  9  7  1  0
  1 10  1  0
  2 11  1  0
  2 12  1  0
  3 13  1  0
  3 14  1  0
  4 15  1  0
  4 16  1  0
  6 17  1  0
  6 18  1  0
  7 19  1  0
  8 20  1  0
  8 21  1  0
M  END
