
     RDKit          3D

 19 20  0  0  0  0  0  0  0  0999 V2000
    2.2453    0.3722    1.0518 O   0  0  0  0  0  0  0  0  0  0  0  0
    2.2103   -0.3269   -0.1409 C   0  0  0  0  0  0  0  0  0  0  0  0
    0.9734   -0.0337   -0.8973 C   0  0  0  0  0  0  0  0  0  0  0  0
   -0.3178   -0.3789   -0.2382 C   0  0  0  0  0  0  0  0  0  0  0  0
   -0.5805    0.3233    1.0561 C   0  0  0  0  0  0  0  0  0  0  0  0
   -1.9318    0.3826    1.1580 C   0  0  0  0  0  0  0  0  0  0  0  0
   -2.4778   -0.2531   -0.0064 C   0  0  0  0  0  0  0  0  0  0  0  0
   -2.6714    0.0269   -1.2599 O   0  0  0  0  0  0  0  0  0  0  0  0
   -1.4311    0.2937   -1.0055 C   0  0  0  0  0  0  0  0  0  0  0  0
    3.1650    0.6886    1.2292 H   0  0  0  0  0  0  0  0  0  0  0  0
    2.3084   -1.4087    0.0918 H   0  0  0  0  0  0  0  0  0  0  0  0
    3.0734   -0.0116   -0.7971 H   0  0  0  0  0  0  0  0  0  0  0  0
    0.9477    1.0417   -1.2008 H   0  0  0  0  0  0  0  0  0  0  0  0
    0.9782   -0.6216   -1.8667 H   0  0  0  0  0  0  0  0  0  0  0  0
   -0.4651   -1.4722   -0.1325 H   0  0  0  0  0  0  0  0  0  0  0  0
    0.1322    0.7096    1.7738 H   0  0  0  0  0  0  0  0  0  0  0  0
   -2.4407    0.8446    1.9997 H   0  0  0  0  0  0  0  0  0  0  0  0
   -2.4646   -1.3882    0.1397 H   0  0  0  0  0  0  0  0  0  0  0  0
   -1.2533    1.4163   -0.9549 H   0  0  0  0  0  0  0  0  0  0  0  0
  1  2  1  0
  2  3  1  0
  3  4  1  0
  4  5  1  0
  5  6  2  0
  6  7  1  0
  7  8  1  0
  8  9  1  0
  9  4  1  0
  9  7  1  0
  1 10  1  0
  2 11  1  0
  2 12  1  0
  3 13  1  0
  3 14  1  0
  4 15  1  0
  5 16  1  0
  6 17  1  0
  7 18  1  0
  9 19  1  0
M  END
