
     RDKit          3D

 19 19  0  0  0  0  0  0  0  0999 V2000
   -2.6190   -0.9176    0.3364 O   0  0  0  0  0  0  0  0  0  0  0  0
   -2.1642    0.0735   -0.5139 C   0  0  0  0  0  0  0  0  0  0  0  0
   -0.9231    0.7284    0.0732 C   0  0  0  0  0  0  0  0  0  0  0  0
    0.1897   -0.2588    0.2734 C   0  0  0  0  0  0  0  0  0  0  0  0
   -0.1608   -1.3076    1.1499 O   0  0  0  0  0  0  0  0  0  0  0  0
    1.2657   -0.4620   -0.6951 C   0  0  0  0  0  0  0  0  0  0  0  0
    1.8530   -1.7484   -0.6635 O   0  0  0  0  0  0  0  0  0  0  0  0
    1.5483    0.3974    0.4895 C   0  0  0  0  0  0  0  0  0  0  0  0
    1.6825    1.7542    0.2269 O   0  0  0  0  0  0  0  0  0  0  0  0
   -2.8568   -0.4799    1.1905 H   0  0  0  0  0  0  0  0  0  0  0  0
   -2.9423    0.8796   -0.5802 H   0  0  0  0  0  0  0  0  0  0  0  0
   -1.9881   -0.2779   -1.5500 H   0  0  0  0  0  0  0  0  0  0  0  0
   -0.6264    1.6055   -0.5269 H   0  0  0  0  0  0  0  0  0  0  0  0
   -1.1995    1.0950    1.0877 H   0  0  0  0  0  0  0  0  0  0  0  0
    0.4336   -1.3426    1.9258 H   0  0  0  0  0  0  0  0  0  0  0  0
    1.2911   -0.0237   -1.6995 H   0  0  0  0  0  0  0  0  0  0  0  0
    2.7477   -1.6005   -0.2502 H   0  0  0  0  0  0  0  0  0  0  0  0
    2.0905    0.0266    1.3650 H   0  0  0  0  0  0  0  0  0  0  0  0
    2.3784    1.8587   -0.4746 H   0  0  0  0  0  0  0  0  0  0  0  0
  1  2  1  0
  2  3  1  0
  3  4  1  0
  4  5  1  0
  4  6  1  0
  6  7  1  0
  6  8  1  0
  8  9  1  0
  8  4  1  0
  1 10  1  0
  2 11  1  0
  2 12  1  0
  3 13  1  0
  3 14  1  0
  5 15  1  0
  6 16  1  0
  7 17  1  0
  8 18  1  0
  9 19  1  0
M  END
