
     RDKit          3D

 25 25  0  0  0  0  0  0  0  0999 V2000
    2.4943   -0.1709    1.6486 O   0  0  0  0  0  0  0  0  0  0  0  0
    2.6194   -0.4077    0.3171 C   0  0  0  0  0  0  0  0  0  0  0  0
    1.5421   -1.1325   -0.3695 C   0  0  0  0  0  0  0  0  0  0  0  0
    0.1929   -0.5852   -0.3865 C   0  0  0  0  0  0  0  0  0  0  0  0
   -0.3633   -0.4195    1.0163 C   0  0  0  0  0  0  0  0  0  0  0  0
   -1.8352   -0.0750    0.9941 C   0  0  0  0  0  0  0  0  0  0  0  0
   -2.1388    1.0213    0.0046 C   0  0  0  0  0  0  0  0  0  0  0  0
   -1.5793    0.7425   -1.3746 C   0  0  0  0  0  0  0  0  0  0  0  0
   -0.0526    0.6533   -1.1931 C   0  0  0  0  0  0  0  0  0  0  0  0
    2.7829    0.7521    1.9127 H   0  0  0  0  0  0  0  0  0  0  0  0
    2.7769    0.5969   -0.1808 H   0  0  0  0  0  0  0  0  0  0  0  0
    3.6119   -0.9189    0.1684 H   0  0  0  0  0  0  0  0  0  0  0  0
    1.4857   -2.1744    0.0701 H   0  0  0  0  0  0  0  0  0  0  0  0
    1.8889   -1.3290   -1.4289 H   0  0  0  0  0  0  0  0  0  0  0  0
   -0.4785   -1.3741   -0.8519 H   0  0  0  0  0  0  0  0  0  0  0  0
    0.2216    0.2837    1.6363 H   0  0  0  0  0  0  0  0  0  0  0  0
   -0.2765   -1.4167    1.4947 H   0  0  0  0  0  0  0  0  0  0  0  0
   -2.4716   -0.9465    0.7942 H   0  0  0  0  0  0  0  0  0  0  0  0
   -2.0903    0.3100    2.0009 H   0  0  0  0  0  0  0  0  0  0  0  0
   -3.2632    1.0520   -0.0874 H   0  0  0  0  0  0  0  0  0  0  0  0
   -1.8286    1.9884    0.4125 H   0  0  0  0  0  0  0  0  0  0  0  0
   -1.8190    1.6266   -1.9957 H   0  0  0  0  0  0  0  0  0  0  0  0
   -2.0008   -0.1962   -1.7412 H   0  0  0  0  0  0  0  0  0  0  0  0
    0.1971    1.5898   -0.6779 H   0  0  0  0  0  0  0  0  0  0  0  0
    0.3842    0.5297   -2.1830 H   0  0  0  0  0  0  0  0  0  0  0  0
  1  2  1  0
  2  3  1  0
  3  4  1  0
  4  5  1  0
  5  6  1  0
  6  7  1  0
  7  8  1  0
  8  9  1  0
  9  4  1  0
  1 10  1  0
  2 11  1  0
  2 12  1  0
  3 13  1  0
  3 14  1  0
  4 15  1  0
  5 16  1  0
  5 17  1  0
  6 18  1  0
  6 19  1  0
  7 20  1  0
  7 21  1  0
  8 22  1  0
  8 23  1  0
  9 24  1  0
  9 25  1  0
M  END
