
     RDKit          3D

 21 22  0  0  0  0  0  0  0  0999 V2000
    3.4283    0.6044    0.8561 O   0  0  0  0  0  0  0  0  0  0  0  0
    2.4529   -0.2315    0.2730 C   0  0  0  0  0  0  0  0  0  0  0  0
    1.1481    0.5299    0.2725 C   0  0  0  0  0  0  0  0  0  0  0  0
    0.0291   -0.2658   -0.3297 C   0  0  0  0  0  0  0  0  0  0  0  0
   -0.2327   -1.5594    0.4130 C   0  0  0  0  0  0  0  0  0  0  0  0
   -1.1787   -0.8562    1.1986 O   0  0  0  0  0  0  0  0  0  0  0  0
   -1.3398   -0.0171    0.1459 C   0  0  0  0  0  0  0  0  0  0  0  0
   -2.5283    0.0535   -0.7075 C   0  0  0  0  0  0  0  0  0  0  0  0
   -2.0683    1.2193    0.1692 C   0  0  0  0  0  0  0  0  0  0  0  0
    3.2287    1.5422    0.6667 H   0  0  0  0  0  0  0  0  0  0  0  0
    2.7727   -0.5009   -0.7519 H   0  0  0  0  0  0  0  0  0  0  0  0
    2.4351   -1.1413    0.8903 H   0  0  0  0  0  0  0  0  0  0  0  0
    1.2990    1.4489   -0.3225 H   0  0  0  0  0  0  0  0  0  0  0  0
    0.8834    0.7548    1.3227 H   0  0  0  0  0  0  0  0  0  0  0  0
    0.1408   -0.4467   -1.4172 H   0  0  0  0  0  0  0  0  0  0  0  0
   -0.7257   -2.3292   -0.2222 H   0  0  0  0  0  0  0  0  0  0  0  0
    0.5765   -1.9615    1.0161 H   0  0  0  0  0  0  0  0  0  0  0  0
   -2.3401    0.1404   -1.8053 H   0  0  0  0  0  0  0  0  0  0  0  0
   -3.4082   -0.5329   -0.3669 H   0  0  0  0  0  0  0  0  0  0  0  0
   -1.8252    2.1289   -0.3991 H   0  0  0  0  0  0  0  0  0  0  0  0
   -2.7475    1.4202    1.0470 H   0  0  0  0  0  0  0  0  0  0  0  0
  1  2  1  0
  2  3  1  0
  3  4  1  0
  4  5  1  0
  5  6  1  0
  6  7  1  0
  7  8  1  0
  8  9  1  0
  7  4  1  0
  9  7  1  0
  1 10  1  0
  2 11  1  0
  2 12  1  0
  3 13  1  0
  3 14  1  0
  4 15  1  0
  5 16  1  0
  5 17  1  0
  8 18  1  0
  8 19  1  0
  9 20  1  0
  9 21  1  0
M  END
