
     RDKit          3D

 20 20  0  0  0  0  0  0  0  0999 V2000
    2.8308   -0.1565    0.2574 O   0  0  0  0  0  0  0  0  0  0  0  0
    1.9277   -0.8600   -0.5219 C   0  0  0  0  0  0  0  0  0  0  0  0
    0.9699    0.1666   -1.1221 C   0  0  0  0  0  0  0  0  0  0  0  0
    0.2402    0.9241   -0.0422 C   0  0  0  0  0  0  0  0  0  0  0  0
   -0.5794    0.0415    0.8483 C   0  0  0  0  0  0  0  0  0  0  0  0
   -1.6762   -0.7951    0.3107 C   0  0  0  0  0  0  0  0  0  0  0  0
   -2.0252    0.5141    0.9880 C   0  0  0  0  0  0  0  0  0  0  0  0
   -2.4994    1.4927    0.1527 O   0  0  0  0  0  0  0  0  0  0  0  0
    3.4349   -0.7247    0.7845 H   0  0  0  0  0  0  0  0  0  0  0  0
    1.3731   -1.6087    0.0769 H   0  0  0  0  0  0  0  0  0  0  0  0
    2.4016   -1.3996   -1.3681 H   0  0  0  0  0  0  0  0  0  0  0  0
    0.2854   -0.3165   -1.8324 H   0  0  0  0  0  0  0  0  0  0  0  0
    1.5992    0.9075   -1.6633 H   0  0  0  0  0  0  0  0  0  0  0  0
    1.0015    1.4376    0.5838 H   0  0  0  0  0  0  0  0  0  0  0  0
   -0.3561    1.7115   -0.5518 H   0  0  0  0  0  0  0  0  0  0  0  0
   -0.0582   -0.3418    1.7412 H   0  0  0  0  0  0  0  0  0  0  0  0
   -1.7284   -0.8616   -0.7976 H   0  0  0  0  0  0  0  0  0  0  0  0
   -1.9169   -1.7346    0.8529 H   0  0  0  0  0  0  0  0  0  0  0  0
   -2.4206    0.4289    2.0332 H   0  0  0  0  0  0  0  0  0  0  0  0
   -2.8040    1.1745   -0.7301 H   0  0  0  0  0  0  0  0  0  0  0  0
  1  2  1  0
  2  3  1  0
  3  4  1  0
  4  5  1  0
  5  6  1  0
  6  7  1  0
  7  8  1  0
  7  5  1  0
  1  9  1  0
  2 10  1  0
  2 11  1  0
  3 12  1  0
  3 13  1  0
  4 14  1  0
  4 15  1  0
  5 16  1  0
  6 17  1  0
  6 18  1  0
  7 19  1  0
  8 20  1  0
M  END
