
     RDKit          3D

 19 20  0  0  0  0  0  0  0  0999 V2000
   -1.5293    1.6770    0.0596 O   0  0  0  0  0  0  0  0  0  0  0  0
   -2.0154    0.4010   -0.2041 C   0  0  0  0  0  0  0  0  0  0  0  0
   -0.9448   -0.5058   -0.7138 C   0  0  0  0  0  0  0  0  0  0  0  0
    0.1876   -0.6604    0.2843 C   0  0  0  0  0  0  0  0  0  0  0  0
    0.9176    0.6025    0.6647 C   0  0  0  0  0  0  0  0  0  0  0  0
    2.2204    0.9235    0.1865 C   0  0  0  0  0  0  0  0  0  0  0  0
    1.0182    1.5041   -0.5107 O   0  0  0  0  0  0  0  0  0  0  0  0
    0.9051   -1.9709    0.2364 C   0  0  0  0  0  0  0  0  0  0  0  0
    0.0158   -1.6250    1.2770 O   0  0  0  0  0  0  0  0  0  0  0  0
   -2.2296    2.3792   -0.0966 H   0  0  0  0  0  0  0  0  0  0  0  0
   -2.4770   -0.0489    0.7035 H   0  0  0  0  0  0  0  0  0  0  0  0
   -2.7692    0.5187   -1.0187 H   0  0  0  0  0  0  0  0  0  0  0  0
   -0.5284   -0.0513   -1.6487 H   0  0  0  0  0  0  0  0  0  0  0  0
   -1.3309   -1.4984   -1.0228 H   0  0  0  0  0  0  0  0  0  0  0  0
    0.4815    1.1328    1.5397 H   0  0  0  0  0  0  0  0  0  0  0  0
    2.8028    1.7192    0.6953 H   0  0  0  0  0  0  0  0  0  0  0  0
    2.7664    0.2518   -0.4921 H   0  0  0  0  0  0  0  0  0  0  0  0
    1.9900   -1.9836    0.4741 H   0  0  0  0  0  0  0  0  0  0  0  0
    0.5193   -2.7654   -0.4137 H   0  0  0  0  0  0  0  0  0  0  0  0
  1  2  1  0
  2  3  1  0
  3  4  1  0
  4  5  1  0
  5  6  1  0
  6  7  1  0
  4  8  1  0
  8  9  1  0
  9  4  1  0
  7  5  1  0
  1 10  1  0
  2 11  1  0
  2 12  1  0
  3 13  1  0
  3 14  1  0
  5 15  1  0
  6 16  1  0
  6 17  1  0
  8 18  1  0
  8 19  1  0
M  END
