
     RDKit          3D

 21 21  0  0  0  0  0  0  0  0999 V2000
    3.3386    1.4928   -0.1134 O   0  0  0  0  0  0  0  0  0  0  0  0
    2.8691    0.1582   -0.0928 C   0  0  0  0  0  0  0  0  0  0  0  0
    1.3860    0.2484    0.1876 C   0  0  0  0  0  0  0  0  0  0  0  0
    0.7639   -1.1163    0.2354 C   0  0  0  0  0  0  0  0  0  0  0  0
   -0.5767   -1.0660    0.4872 O   0  0  0  0  0  0  0  0  0  0  0  0
   -1.3266   -0.3778   -0.4245 C   0  0  0  0  0  0  0  0  0  0  0  0
   -2.7618   -0.8498   -0.7087 C   0  0  0  0  0  0  0  0  0  0  0  0
   -2.5578    0.3091    0.1893 C   0  0  0  0  0  0  0  0  0  0  0  0
   -2.8261    1.5765   -0.3085 O   0  0  0  0  0  0  0  0  0  0  0  0
    2.8267    2.0045    0.5461 H   0  0  0  0  0  0  0  0  0  0  0  0
    3.4255   -0.4197    0.6475 H   0  0  0  0  0  0  0  0  0  0  0  0
    3.0611   -0.2277   -1.1142 H   0  0  0  0  0  0  0  0  0  0  0  0
    0.9564    0.8980   -0.5999 H   0  0  0  0  0  0  0  0  0  0  0  0
    1.1983    0.7547    1.1550 H   0  0  0  0  0  0  0  0  0  0  0  0
    1.2520   -1.6719    1.0632 H   0  0  0  0  0  0  0  0  0  0  0  0
    0.9330   -1.6897   -0.6942 H   0  0  0  0  0  0  0  0  0  0  0  0
   -0.8614    0.1031   -1.3066 H   0  0  0  0  0  0  0  0  0  0  0  0
   -2.9493   -1.8586   -0.3114 H   0  0  0  0  0  0  0  0  0  0  0  0
   -3.2035   -0.6452   -1.6808 H   0  0  0  0  0  0  0  0  0  0  0  0
   -2.7666    0.1629    1.2481 H   0  0  0  0  0  0  0  0  0  0  0  0
   -2.1808    2.2144    0.0900 H   0  0  0  0  0  0  0  0  0  0  0  0
  1  2  1  0
  2  3  1  0
  3  4  1  0
  4  5  1  0
  5  6  1  0
  6  7  1  0
  7  8  1  0
  8  9  1  0
  8  6  1  0
  1 10  1  0
  2 11  1  0
  2 12  1  0
  3 13  1  0
  3 14  1  0
  4 15  1  0
  4 16  1  0
  6 17  1  0
  7 18  1  0
  7 19  1  0
  8 20  1  0
  9 21  1  0
M  END
