
     RDKit          3D

 21 22  0  0  0  0  0  0  0  0999 V2000
    2.2947   -0.6352   -0.7666 O   0  0  0  0  0  0  0  0  0  0  0  0
    2.1705    0.5956   -0.1365 C   0  0  0  0  0  0  0  0  0  0  0  0
    0.9005    0.6789    0.6793 C   0  0  0  0  0  0  0  0  0  0  0  0
   -0.3319    0.5009   -0.1174 C   0  0  0  0  0  0  0  0  0  0  0  0
   -0.5263    1.4420   -1.1407 O   0  0  0  0  0  0  0  0  0  0  0  0
   -1.6084    0.1408    0.5127 C   0  0  0  0  0  0  0  0  0  0  0  0
   -1.9797   -0.4382   -0.8417 C   0  0  0  0  0  0  0  0  0  0  0  0
   -0.5592   -0.9047   -0.5951 C   0  0  0  0  0  0  0  0  0  0  0  0
   -1.0661   -1.2312    0.7560 C   0  0  0  0  0  0  0  0  0  0  0  0
    3.1077   -1.0661   -0.4424 H   0  0  0  0  0  0  0  0  0  0  0  0
    2.2046    1.3670   -0.9407 H   0  0  0  0  0  0  0  0  0  0  0  0
    3.0144    0.7389    0.5520 H   0  0  0  0  0  0  0  0  0  0  0  0
    1.0070   -0.0066    1.5295 H   0  0  0  0  0  0  0  0  0  0  0  0
    0.8403    1.7049    1.1515 H   0  0  0  0  0  0  0  0  0  0  0  0
   -0.1229    2.3114   -0.9104 H   0  0  0  0  0  0  0  0  0  0  0  0
   -2.2260    0.6679    1.0994 H   0  0  0  0  0  0  0  0  0  0  0  0
   -2.6841   -1.2829   -0.7222 H   0  0  0  0  0  0  0  0  0  0  0  0
   -2.1386    0.2613   -1.6474 H   0  0  0  0  0  0  0  0  0  0  0  0
    0.0027   -1.4370   -1.2230 H   0  0  0  0  0  0  0  0  0  0  0  0
   -1.9032   -1.9955    0.6723 H   0  0  0  0  0  0  0  0  0  0  0  0
   -0.3961   -1.4123    1.5824 H   0  0  0  0  0  0  0  0  0  0  0  0
  1  2  1  0
  2  3  1  0
  3  4  1  0
  4  5  1  0
  4  6  1  0
  6  7  1  0
  7  8  1  0
  8  9  1  0
  8  4  1  0
  9  6  1  0
  1 10  1  0
  2 11  1  0
  2 12  1  0
  3 13  1  0
  3 14  1  0
  5 15  1  0
  6 16  1  0
  7 17  1  0
  7 18  1  0
  8 19  1  0
  9 20  1  0
  9 21  1  0
M  END
