
     RDKit          3D

 18 19  0  0  0  0  0  0  0  0999 V2000
    3.1435   -0.2914   -0.3883 O   0  0  0  0  0  0  0  0  0  0  0  0
    2.0015   -0.6270    0.3382 C   0  0  0  0  0  0  0  0  0  0  0  0
    0.9158    0.3276   -0.0553 C   0  0  0  0  0  0  0  0  0  0  0  0
   -0.3838    0.0926    0.6465 C   0  0  0  0  0  0  0  0  0  0  0  0
   -1.3998    1.1263    0.1586 C   0  0  0  0  0  0  0  0  0  0  0  0
   -2.0817    0.0933   -0.6872 C   0  0  0  0  0  0  0  0  0  0  0  0
   -1.3307   -0.8561   -1.3704 O   0  0  0  0  0  0  0  0  0  0  0  0
   -1.2172   -0.9568   -0.0112 C   0  0  0  0  0  0  0  0  0  0  0  0
    2.8164    0.0140   -1.2864 H   0  0  0  0  0  0  0  0  0  0  0  0
    1.7150   -1.6560    0.0108 H   0  0  0  0  0  0  0  0  0  0  0  0
    2.1910   -0.6763    1.4091 H   0  0  0  0  0  0  0  0  0  0  0  0
    1.2512    1.3768    0.1253 H   0  0  0  0  0  0  0  0  0  0  0  0
    0.7271    0.1960   -1.1507 H   0  0  0  0  0  0  0  0  0  0  0  0
   -0.3349    0.0484    1.7537 H   0  0  0  0  0  0  0  0  0  0  0  0
   -2.0788    1.4899    0.9583 H   0  0  0  0  0  0  0  0  0  0  0  0
   -0.9589    1.9889   -0.3694 H   0  0  0  0  0  0  0  0  0  0  0  0
   -3.1749   -0.0105   -0.6601 H   0  0  0  0  0  0  0  0  0  0  0  0
   -1.8007   -1.6799    0.5786 H   0  0  0  0  0  0  0  0  0  0  0  0
  1  2  1  0
  2  3  1  0
  3  4  1  0
  4  5  1  0
  5  6  1  0
  6  7  1  0
  7  8  1  0
  8  4  1  0
  8  6  1  0
  1  9  1  0
  2 10  1  0
  2 11  1  0
  3 12  1  0
  3 13  1  0
  4 14  1  0
  5 15  1  0
  5 16  1  0
  6 17  1  0
  8 18  1  0
M  END
