
     RDKit          3D

 21 20  0  0  0  0  0  0  0  0999 V2000
    3.6051   -0.0355   -0.0845 O   0  0  0  0  0  0  0  0  0  0  0  0
    2.4153    0.6629   -0.0094 C   0  0  0  0  0  0  0  0  0  0  0  0
    1.2887   -0.3083   -0.1894 C   0  0  0  0  0  0  0  0  0  0  0  0
   -0.0724    0.3516   -0.1249 C   0  0  0  0  0  0  0  0  0  0  0  0
   -0.2752    0.9789    1.1065 O   0  0  0  0  0  0  0  0  0  0  0  0
   -1.0791   -0.7723   -0.2585 C   0  0  0  0  0  0  0  0  0  0  0  0
   -0.8380   -1.6412    0.8053 O   0  0  0  0  0  0  0  0  0  0  0  0
   -2.4983   -0.2817   -0.1826 C   0  0  0  0  0  0  0  0  0  0  0  0
   -2.7817    0.5883   -1.2256 O   0  0  0  0  0  0  0  0  0  0  0  0
    3.4650   -0.9702    0.2227 H   0  0  0  0  0  0  0  0  0  0  0  0
    2.3859    1.3843   -0.8526 H   0  0  0  0  0  0  0  0  0  0  0  0
    2.3275    1.1280    0.9775 H   0  0  0  0  0  0  0  0  0  0  0  0
    1.3262   -0.8823   -1.1196 H   0  0  0  0  0  0  0  0  0  0  0  0
    1.3098   -1.0503    0.6544 H   0  0  0  0  0  0  0  0  0  0  0  0
   -0.1603    1.0892   -0.9429 H   0  0  0  0  0  0  0  0  0  0  0  0
    0.3830    1.6837    1.2583 H   0  0  0  0  0  0  0  0  0  0  0  0
   -0.8816   -1.2556   -1.2398 H   0  0  0  0  0  0  0  0  0  0  0  0
   -1.1268   -1.1597    1.6242 H   0  0  0  0  0  0  0  0  0  0  0  0
   -2.6913    0.1462    0.8140 H   0  0  0  0  0  0  0  0  0  0  0  0
   -3.1547   -1.1672   -0.3077 H   0  0  0  0  0  0  0  0  0  0  0  0
   -2.9470    1.5112   -0.9257 H   0  0  0  0  0  0  0  0  0  0  0  0
  1  2  1  0
  2  3  1  0
  3  4  1  0
  4  5  1  0
  4  6  1  0
  6  7  1  0
  6  8  1  0
  8  9  1  0
  1 10  1  0
  2 11  1  0
  2 12  1  0
  3 13  1  0
  3 14  1  0
  4 15  1  0
  5 16  1  0
  6 17  1  0
  7 18  1  0
  8 19  1  0
  8 20  1  0
  9 21  1  0
M  END
