
     RDKit          3D

 21 22  0  0  0  0  0  0  0  0999 V2000
    2.9275    1.0888   -0.0778 O   0  0  0  0  0  0  0  0  0  0  0  0
    2.7299   -0.2534   -0.3499 C   0  0  0  0  0  0  0  0  0  0  0  0
    1.2141   -0.4460   -0.4899 C   0  0  0  0  0  0  0  0  0  0  0  0
    0.6097   -0.0329    0.8236 C   0  0  0  0  0  0  0  0  0  0  0  0
   -0.8727   -0.1524    0.8789 C   0  0  0  0  0  0  0  0  0  0  0  0
   -1.6804    0.6327   -0.0906 C   0  0  0  0  0  0  0  0  0  0  0  0
   -3.1762    0.4909    0.0721 C   0  0  0  0  0  0  0  0  0  0  0  0
   -2.9955   -0.8976   -0.1038 O   0  0  0  0  0  0  0  0  0  0  0  0
   -1.6279   -0.8995   -0.1515 C   0  0  0  0  0  0  0  0  0  0  0  0
    3.4822    1.5381   -0.7855 H   0  0  0  0  0  0  0  0  0  0  0  0
    3.2718   -0.5900   -1.2409 H   0  0  0  0  0  0  0  0  0  0  0  0
    3.0615   -0.8413    0.5544 H   0  0  0  0  0  0  0  0  0  0  0  0
    0.9892   -1.4863   -0.7750 H   0  0  0  0  0  0  0  0  0  0  0  0
    0.9007    0.2239   -1.3180 H   0  0  0  0  0  0  0  0  0  0  0  0
    1.0659   -0.7021    1.6096 H   0  0  0  0  0  0  0  0  0  0  0  0
    0.9724    0.9900    1.0488 H   0  0  0  0  0  0  0  0  0  0  0  0
   -1.2893   -0.1730    1.9159 H   0  0  0  0  0  0  0  0  0  0  0  0
   -1.2543    1.1258   -0.9641 H   0  0  0  0  0  0  0  0  0  0  0  0
   -3.7987    0.9766   -0.6773 H   0  0  0  0  0  0  0  0  0  0  0  0
   -3.4610    0.7618    1.1060 H   0  0  0  0  0  0  0  0  0  0  0  0
   -1.0689   -1.3541   -0.9851 H   0  0  0  0  0  0  0  0  0  0  0  0
  1  2  1  0
  2  3  1  0
  3  4  1  0
  4  5  1  0
  5  6  1  0
  6  7  1  0
  7  8  1  0
  8  9  1  0
  9  5  1  0
  9  6  1  0
  1 10  1  0
  2 11  1  0
  2 12  1  0
  3 13  1  0
  3 14  1  0
  4 15  1  0
  4 16  1  0
  5 17  1  0
  6 18  1  0
  7 19  1  0
  7 20  1  0
  9 21  1  0
M  END
