
     RDKit          3D

 19 20  0  0  0  0  0  0  0  0999 V2000
   -1.9932   -0.9349    0.6675 O   0  0  0  0  0  0  0  0  0  0  0  0
   -2.0339    0.4361    0.4198 C   0  0  0  0  0  0  0  0  0  0  0  0
   -0.8981    0.7352   -0.5673 C   0  0  0  0  0  0  0  0  0  0  0  0
    0.3794    0.3224    0.0971 C   0  0  0  0  0  0  0  0  0  0  0  0
    0.6756    0.9551    1.2711 O   0  0  0  0  0  0  0  0  0  0  0  0
    1.5676    0.1495   -0.8006 C   0  0  0  0  0  0  0  0  0  0  0  0
    2.0912   -0.8546    0.1741 C   0  0  0  0  0  0  0  0  0  0  0  0
    0.6385   -1.1284   -0.0302 C   0  0  0  0  0  0  0  0  0  0  0  0
    0.8657   -0.8922   -1.3854 O   0  0  0  0  0  0  0  0  0  0  0  0
   -2.4595   -1.3684   -0.0969 H   0  0  0  0  0  0  0  0  0  0  0  0
   -1.8459    0.9366    1.3866 H   0  0  0  0  0  0  0  0  0  0  0  0
   -2.9793    0.7614   -0.0537 H   0  0  0  0  0  0  0  0  0  0  0  0
   -1.0612    0.1799   -1.5003 H   0  0  0  0  0  0  0  0  0  0  0  0
   -0.8650    1.8260   -0.7453 H   0  0  0  0  0  0  0  0  0  0  0  0
    0.6052    1.9393    1.1089 H   0  0  0  0  0  0  0  0  0  0  0  0
    2.0831    0.8760   -1.2717 H   0  0  0  0  0  0  0  0  0  0  0  0
    2.3121   -0.4625    1.2007 H   0  0  0  0  0  0  0  0  0  0  0  0
    2.8110   -1.5755   -0.2190 H   0  0  0  0  0  0  0  0  0  0  0  0
    0.1068   -1.9012    0.3447 H   0  0  0  0  0  0  0  0  0  0  0  0
  1  2  1  0
  2  3  1  0
  3  4  1  0
  4  5  1  0
  4  6  1  0
  6  7  1  0
  7  8  1  0
  8  9  1  0
  8  4  1  0
  9  6  1  0
  1 10  1  0
  2 11  1  0
  2 12  1  0
  3 13  1  0
  3 14  1  0
  5 15  1  0
  6 16  1  0
  7 17  1  0
  7 18  1  0
  8 19  1  0
M  END
