
     RDKit          3D

 21 22  0  0  0  0  0  0  0  0999 V2000
    3.5818   -0.3610    0.2944 O   0  0  0  0  0  0  0  0  0  0  0  0
    2.4121    0.2121   -0.1557 C   0  0  0  0  0  0  0  0  0  0  0  0
    1.2390   -0.0492    0.7899 C   0  0  0  0  0  0  0  0  0  0  0  0
    0.0388    0.6141    0.2020 C   0  0  0  0  0  0  0  0  0  0  0  0
   -0.3438    0.0910   -1.2084 C   0  0  0  0  0  0  0  0  0  0  0  0
   -1.2176   -0.0091   -0.0841 C   0  0  0  0  0  0  0  0  0  0  0  0
   -1.8379   -1.1619    0.5479 C   0  0  0  0  0  0  0  0  0  0  0  0
   -2.8492   -0.2910    1.0293 O   0  0  0  0  0  0  0  0  0  0  0  0
   -2.5112    0.7159    0.0958 C   0  0  0  0  0  0  0  0  0  0  0  0
    3.4284   -0.9760    1.0457 H   0  0  0  0  0  0  0  0  0  0  0  0
    2.5951    1.3091   -0.2644 H   0  0  0  0  0  0  0  0  0  0  0  0
    2.1960   -0.1914   -1.1741 H   0  0  0  0  0  0  0  0  0  0  0  0
    1.5054    0.4820    1.7427 H   0  0  0  0  0  0  0  0  0  0  0  0
    1.1561   -1.1277    0.9321 H   0  0  0  0  0  0  0  0  0  0  0  0
    0.0556    1.7351    0.3083 H   0  0  0  0  0  0  0  0  0  0  0  0
   -0.5350    0.8970   -1.9643 H   0  0  0  0  0  0  0  0  0  0  0  0
    0.2431   -0.7496   -1.6075 H   0  0  0  0  0  0  0  0  0  0  0  0
   -1.3329   -1.6580    1.4058 H   0  0  0  0  0  0  0  0  0  0  0  0
   -2.3535   -1.9076   -0.1172 H   0  0  0  0  0  0  0  0  0  0  0  0
   -3.1497    0.7149   -0.7848 H   0  0  0  0  0  0  0  0  0  0  0  0
   -2.3208    1.7112    0.5733 H   0  0  0  0  0  0  0  0  0  0  0  0
  1  2  1  0
  2  3  1  0
  3  4  1  0
  4  5  1  0
  5  6  1  0
  6  7  1  0
  7  8  1  0
  8  9  1  0
  6  4  1  0
  9  6  1  0
  1 10  1  0
  2 11  1  0
  2 12  1  0
  3 13  1  0
  3 14  1  0
  4 15  1  0
  5 16  1  0
  5 17  1  0
  7 18  1  0
  7 19  1  0
  9 20  1  0
  9 21  1  0
M  END
