
     RDKit          3D

 21 22  0  0  0  0  0  0  0  0999 V2000
    3.3873   -0.2724   -0.3437 O   0  0  0  0  0  0  0  0  0  0  0  0
    2.0682    0.1529   -0.4451 C   0  0  0  0  0  0  0  0  0  0  0  0
    1.2531   -0.2755    0.7566 C   0  0  0  0  0  0  0  0  0  0  0  0
   -0.1609    0.1784    0.6514 C   0  0  0  0  0  0  0  0  0  0  0  0
   -1.0910   -0.1738    1.7726 C   0  0  0  0  0  0  0  0  0  0  0  0
   -2.3849   -0.0418    1.2616 O   0  0  0  0  0  0  0  0  0  0  0  0
   -2.3580   -0.5243   -0.0314 C   0  0  0  0  0  0  0  0  0  0  0  0
   -0.9861   -0.1584   -0.5618 C   0  0  0  0  0  0  0  0  0  0  0  0
   -0.5860    1.2704   -0.2461 C   0  0  0  0  0  0  0  0  0  0  0  0
    3.5522   -0.6594    0.5637 H   0  0  0  0  0  0  0  0  0  0  0  0
    1.6076   -0.2991   -1.3444 H   0  0  0  0  0  0  0  0  0  0  0  0
    2.1023    1.2628   -0.5393 H   0  0  0  0  0  0  0  0  0  0  0  0
    1.7101    0.2192    1.6440 H   0  0  0  0  0  0  0  0  0  0  0  0
    1.3685   -1.3808    0.8505 H   0  0  0  0  0  0  0  0  0  0  0  0
   -0.9715    0.4392    2.6652 H   0  0  0  0  0  0  0  0  0  0  0  0
   -0.9390   -1.2705    1.9865 H   0  0  0  0  0  0  0  0  0  0  0  0
   -3.0934    0.0969   -0.6196 H   0  0  0  0  0  0  0  0  0  0  0  0
   -2.6020   -1.5804   -0.1309 H   0  0  0  0  0  0  0  0  0  0  0  0
   -0.5596   -0.6807   -1.4162 H   0  0  0  0  0  0  0  0  0  0  0  0
    0.0713    1.7160   -0.9990 H   0  0  0  0  0  0  0  0  0  0  0  0
   -1.3883    1.9811    0.0923 H   0  0  0  0  0  0  0  0  0  0  0  0
  1  2  1  0
  2  3  1  0
  3  4  1  0
  4  5  1  0
  5  6  1  0
  6  7  1  0
  7  8  1  0
  8  9  1  0
  8  4  1  0
  9  4  1  0
  1 10  1  0
  2 11  1  0
  2 12  1  0
  3 13  1  0
  3 14  1  0
  5 15  1  0
  5 16  1  0
  7 17  1  0
  7 18  1  0
  8 19  1  0
  9 20  1  0
  9 21  1  0
M  END
