
     RDKit          3D

 21 21  0  0  0  0  0  0  0  0999 V2000
    2.1179    1.2681    0.4882 O   0  0  0  0  0  0  0  0  0  0  0  0
    2.3081   -0.0629    0.2038 C   0  0  0  0  0  0  0  0  0  0  0  0
    1.1004   -0.8313    0.6502 C   0  0  0  0  0  0  0  0  0  0  0  0
   -0.1609   -0.3831   -0.0352 C   0  0  0  0  0  0  0  0  0  0  0  0
   -0.1215   -0.5200   -1.3967 O   0  0  0  0  0  0  0  0  0  0  0  0
   -1.3782   -1.1439    0.4681 C   0  0  0  0  0  0  0  0  0  0  0  0
   -2.4810   -0.2365    0.0587 C   0  0  0  0  0  0  0  0  0  0  0  0
   -2.0198    1.0069   -0.0322 C   0  0  0  0  0  0  0  0  0  0  0  0
   -0.5510    1.0340    0.3135 C   0  0  0  0  0  0  0  0  0  0  0  0
    2.8101    1.8651    0.0917 H   0  0  0  0  0  0  0  0  0  0  0  0
    3.1984   -0.4453    0.7587 H   0  0  0  0  0  0  0  0  0  0  0  0
    2.5425   -0.2090   -0.8690 H   0  0  0  0  0  0  0  0  0  0  0  0
    1.0047   -0.7657    1.7493 H   0  0  0  0  0  0  0  0  0  0  0  0
    1.2476   -1.8969    0.4064 H   0  0  0  0  0  0  0  0  0  0  0  0
   -0.3307    0.3187   -1.8355 H   0  0  0  0  0  0  0  0  0  0  0  0
   -1.4234   -2.1324   -0.0035 H   0  0  0  0  0  0  0  0  0  0  0  0
   -1.2826   -1.1837    1.5700 H   0  0  0  0  0  0  0  0  0  0  0  0
   -3.5134   -0.5085   -0.1434 H   0  0  0  0  0  0  0  0  0  0  0  0
   -2.5856    1.8726   -0.3068 H   0  0  0  0  0  0  0  0  0  0  0  0
   -0.0184    1.7931   -0.2894 H   0  0  0  0  0  0  0  0  0  0  0  0
   -0.4633    1.1609    1.3928 H   0  0  0  0  0  0  0  0  0  0  0  0
  1  2  1  0
  2  3  1  0
  3  4  1  0
  4  5  1  0
  4  6  1  0
  6  7  1  0
  7  8  2  0
  8  9  1  0
  9  4  1  0
  1 10  1  0
  2 11  1  0
  2 12  1  0
  3 13  1  0
  3 14  1  0
  5 15  1  0
  6 16  1  0
  6 17  1  0
  7 18  1  0
  8 19  1  0
  9 20  1  0
  9 21  1  0
M  END
