
     RDKit          3D

 21 22  0  0  0  0  0  0  0  0999 V2000
    3.3995   -0.1623   -1.5316 O   0  0  0  0  0  0  0  0  0  0  0  0
    2.4086   -0.8045   -0.8213 C   0  0  0  0  0  0  0  0  0  0  0  0
    1.3340    0.1565   -0.3262 C   0  0  0  0  0  0  0  0  0  0  0  0
    0.3266   -0.6656    0.4241 C   0  0  0  0  0  0  0  0  0  0  0  0
   -0.8543   -0.0397    1.0395 C   0  0  0  0  0  0  0  0  0  0  0  0
   -1.4746    1.2174    0.5430 C   0  0  0  0  0  0  0  0  0  0  0  0
   -2.3927    0.6547   -0.5538 C   0  0  0  0  0  0  0  0  0  0  0  0
   -1.4958   -0.1935   -1.2024 O   0  0  0  0  0  0  0  0  0  0  0  0
   -1.0083   -0.9664   -0.1676 C   0  0  0  0  0  0  0  0  0  0  0  0
    3.2381    0.8118   -1.5224 H   0  0  0  0  0  0  0  0  0  0  0  0
    1.8763   -1.5618   -1.4458 H   0  0  0  0  0  0  0  0  0  0  0  0
    2.7789   -1.3412    0.0794 H   0  0  0  0  0  0  0  0  0  0  0  0
    1.7707    0.8888    0.4093 H   0  0  0  0  0  0  0  0  0  0  0  0
    0.8817    0.7363   -1.1309 H   0  0  0  0  0  0  0  0  0  0  0  0
    0.7767   -1.5035    0.9979 H   0  0  0  0  0  0  0  0  0  0  0  0
   -1.1962   -0.3871    2.0202 H   0  0  0  0  0  0  0  0  0  0  0  0
   -0.7767    1.8965    0.0131 H   0  0  0  0  0  0  0  0  0  0  0  0
   -2.0769    1.7236    1.3140 H   0  0  0  0  0  0  0  0  0  0  0  0
   -3.1705   -0.0108   -0.1017 H   0  0  0  0  0  0  0  0  0  0  0  0
   -2.8036    1.4379   -1.1882 H   0  0  0  0  0  0  0  0  0  0  0  0
   -1.5415   -1.8872    0.0673 H   0  0  0  0  0  0  0  0  0  0  0  0
  1  2  1  0
  2  3  1  0
  3  4  1  0
  4  5  1  0
  5  6  1  0
  6  7  1  0
  7  8  1  0
  8  9  1  0
  9  4  1  0
  9  5  1  0
  1 10  1  0
  2 11  1  0
  2 12  1  0
  3 13  1  0
  3 14  1  0
  4 15  1  0
  5 16  1  0
  6 17  1  0
  6 18  1  0
  7 19  1  0
  7 20  1  0
  9 21  1  0
M  END
