
     RDKit          3D

 21 21  0  0  0  0  0  0  0  0999 V2000
    3.3639    0.0596    0.3418 O   0  0  0  0  0  0  0  0  0  0  0  0
    2.1594   -0.3764   -0.2259 C   0  0  0  0  0  0  0  0  0  0  0  0
    0.9981    0.4689    0.1688 C   0  0  0  0  0  0  0  0  0  0  0  0
   -0.2653   -0.0128   -0.4490 C   0  0  0  0  0  0  0  0  0  0  0  0
   -0.1045    0.0292   -1.8365 O   0  0  0  0  0  0  0  0  0  0  0  0
   -1.4579    0.8585   -0.1296 C   0  0  0  0  0  0  0  0  0  0  0  0
   -2.3247   -0.0390    0.7320 C   0  0  0  0  0  0  0  0  0  0  0  0
   -1.4408   -1.0034    1.2386 O   0  0  0  0  0  0  0  0  0  0  0  0
   -0.6886   -1.3331    0.0856 C   0  0  0  0  0  0  0  0  0  0  0  0
    3.4432    1.0344    0.3523 H   0  0  0  0  0  0  0  0  0  0  0  0
    2.0073   -1.4307    0.0448 H   0  0  0  0  0  0  0  0  0  0  0  0
    2.3450   -0.3507   -1.3355 H   0  0  0  0  0  0  0  0  0  0  0  0
    1.2041    1.5067   -0.2021 H   0  0  0  0  0  0  0  0  0  0  0  0
    0.9447    0.5266    1.2832 H   0  0  0  0  0  0  0  0  0  0  0  0
    0.1021    0.9849   -2.0480 H   0  0  0  0  0  0  0  0  0  0  0  0
   -1.1816    1.7965    0.3780 H   0  0  0  0  0  0  0  0  0  0  0  0
   -2.0501    1.1137   -1.0307 H   0  0  0  0  0  0  0  0  0  0  0  0
   -2.7386    0.5841    1.5437 H   0  0  0  0  0  0  0  0  0  0  0  0
   -3.0826   -0.5722    0.1479 H   0  0  0  0  0  0  0  0  0  0  0  0
   -1.3574   -1.8662   -0.6282 H   0  0  0  0  0  0  0  0  0  0  0  0
    0.1245   -1.9785    0.4580 H   0  0  0  0  0  0  0  0  0  0  0  0
  1  2  1  0
  2  3  1  0
  3  4  1  0
  4  5  1  0
  4  6  1  0
  6  7  1  0
  7  8  1  0
  8  9  1  0
  9  4  1  0
  1 10  1  0
  2 11  1  0
  2 12  1  0
  3 13  1  0
  3 14  1  0
  5 15  1  0
  6 16  1  0
  6 17  1  0
  7 18  1  0
  7 19  1  0
  9 20  1  0
  9 21  1  0
M  END
