
     RDKit          3D

 21 22  0  0  0  0  0  0  0  0999 V2000
    2.6688    1.3006   -0.0154 O   0  0  0  0  0  0  0  0  0  0  0  0
    2.2838   -0.0291    0.1378 C   0  0  0  0  0  0  0  0  0  0  0  0
    1.2669   -0.4598   -0.8754 C   0  0  0  0  0  0  0  0  0  0  0  0
   -0.0087    0.3282   -0.8329 C   0  0  0  0  0  0  0  0  0  0  0  0
   -0.8714   -0.1834   -1.8370 O   0  0  0  0  0  0  0  0  0  0  0  0
   -1.5137   -0.9947   -0.8692 C   0  0  0  0  0  0  0  0  0  0  0  0
   -1.0362   -0.0505    0.1422 C   0  0  0  0  0  0  0  0  0  0  0  0
   -1.8877    0.8827    0.8893 C   0  0  0  0  0  0  0  0  0  0  0  0
   -0.9613   -0.1636    1.5514 C   0  0  0  0  0  0  0  0  0  0  0  0
    1.9030    1.9135    0.0150 H   0  0  0  0  0  0  0  0  0  0  0  0
    3.2054   -0.6359   -0.0713 H   0  0  0  0  0  0  0  0  0  0  0  0
    2.0034   -0.2801    1.1808 H   0  0  0  0  0  0  0  0  0  0  0  0
    1.7221   -0.4190   -1.8792 H   0  0  0  0  0  0  0  0  0  0  0  0
    1.0180   -1.5144   -0.6776 H   0  0  0  0  0  0  0  0  0  0  0  0
    0.1125    1.4267   -0.9964 H   0  0  0  0  0  0  0  0  0  0  0  0
   -1.0726   -2.0149   -0.9049 H   0  0  0  0  0  0  0  0  0  0  0  0
   -2.6237   -0.9874   -0.9671 H   0  0  0  0  0  0  0  0  0  0  0  0
   -2.9858    0.6267    0.8964 H   0  0  0  0  0  0  0  0  0  0  0  0
   -1.5820    1.9284    0.9103 H   0  0  0  0  0  0  0  0  0  0  0  0
   -1.5141   -0.9852    2.0883 H   0  0  0  0  0  0  0  0  0  0  0  0
   -0.1266    0.3111    2.1148 H   0  0  0  0  0  0  0  0  0  0  0  0
  1  2  1  0
  2  3  1  0
  3  4  1  0
  4  5  1  0
  5  6  1  0
  6  7  1  0
  7  8  1  0
  8  9  1  0
  7  4  1  0
  9  7  1  0
  1 10  1  0
  2 11  1  0
  2 12  1  0
  3 13  1  0
  3 14  1  0
  4 15  1  0
  6 16  1  0
  6 17  1  0
  8 18  1  0
  8 19  1  0
  9 20  1  0
  9 21  1  0
M  END
