
     RDKit          3D

 21 21  0  0  0  0  0  0  0  0999 V2000
    3.7175   -0.2367    0.1912 O   0  0  0  0  0  0  0  0  0  0  0  0
    2.4170    0.2418    0.2913 C   0  0  0  0  0  0  0  0  0  0  0  0
    1.3972   -0.7613   -0.1579 C   0  0  0  0  0  0  0  0  0  0  0  0
    0.0131   -0.2431   -0.0559 C   0  0  0  0  0  0  0  0  0  0  0  0
   -0.2212    0.9821    0.3868 C   0  0  0  0  0  0  0  0  0  0  0  0
   -1.6468    1.4820    0.4795 C   0  0  0  0  0  0  0  0  0  0  0  0
   -2.3828    0.4105    0.9789 O   0  0  0  0  0  0  0  0  0  0  0  0
   -2.4532   -0.5454   -0.0247 C   0  0  0  0  0  0  0  0  0  0  0  0
   -1.1300   -1.0872   -0.4472 C   0  0  0  0  0  0  0  0  0  0  0  0
    3.9826   -0.1536   -0.7621 H   0  0  0  0  0  0  0  0  0  0  0  0
    2.3100    1.1348   -0.3548 H   0  0  0  0  0  0  0  0  0  0  0  0
    2.1656    0.5460    1.3289 H   0  0  0  0  0  0  0  0  0  0  0  0
    1.6365   -1.0295   -1.2076 H   0  0  0  0  0  0  0  0  0  0  0  0
    1.4735   -1.7234    0.4178 H   0  0  0  0  0  0  0  0  0  0  0  0
    0.5840    1.6192    0.6765 H   0  0  0  0  0  0  0  0  0  0  0  0
   -1.6940    2.3773    1.0920 H   0  0  0  0  0  0  0  0  0  0  0  0
   -1.9569    1.6792   -0.5668 H   0  0  0  0  0  0  0  0  0  0  0  0
   -3.1849   -1.3384    0.2658 H   0  0  0  0  0  0  0  0  0  0  0  0
   -2.9047   -0.0213   -0.9143 H   0  0  0  0  0  0  0  0  0  0  0  0
   -1.0323   -2.1412   -0.0548 H   0  0  0  0  0  0  0  0  0  0  0  0
   -1.0903   -1.1917   -1.5626 H   0  0  0  0  0  0  0  0  0  0  0  0
  1  2  1  0
  2  3  1  0
  3  4  1  0
  4  5  2  0
  5  6  1  0
  6  7  1  0
  7  8  1  0
  8  9  1  0
  9  4  1  0
  1 10  1  0
  2 11  1  0
  2 12  1  0
  3 13  1  0
  3 14  1  0
  5 15  1  0
  6 16  1  0
  6 17  1  0
  8 18  1  0
  8 19  1  0
  9 20  1  0
  9 21  1  0
M  END
