
     RDKit          3D

 23 24  0  0  0  0  0  0  0  0999 V2000
    2.1194    0.9941    0.4486 O   0  0  0  0  0  0  0  0  0  0  0  0
    2.1767    0.0977   -0.6240 C   0  0  0  0  0  0  0  0  0  0  0  0
    1.6803   -1.2301   -0.1396 C   0  0  0  0  0  0  0  0  0  0  0  0
    0.2788   -1.1380    0.3507 C   0  0  0  0  0  0  0  0  0  0  0  0
   -0.7252   -0.6910   -0.6495 C   0  0  0  0  0  0  0  0  0  0  0  0
   -2.1285   -0.6358   -0.0438 C   0  0  0  0  0  0  0  0  0  0  0  0
   -2.1806    0.8465   -0.1457 C   0  0  0  0  0  0  0  0  0  0  0  0
   -1.0327    1.7092    0.1875 C   0  0  0  0  0  0  0  0  0  0  0  0
   -0.8493    0.7728   -0.9310 C   0  0  0  0  0  0  0  0  0  0  0  0
    2.7441    1.7267    0.2323 H   0  0  0  0  0  0  0  0  0  0  0  0
    1.5403    0.4789   -1.4240 H   0  0  0  0  0  0  0  0  0  0  0  0
    3.2489    0.0330   -0.9010 H   0  0  0  0  0  0  0  0  0  0  0  0
    2.3232   -1.5039    0.7464 H   0  0  0  0  0  0  0  0  0  0  0  0
    1.8467   -2.0481   -0.8694 H   0  0  0  0  0  0  0  0  0  0  0  0
   -0.0471   -2.1482    0.7323 H   0  0  0  0  0  0  0  0  0  0  0  0
    0.2840   -0.4915    1.2666 H   0  0  0  0  0  0  0  0  0  0  0  0
   -0.6604   -1.3000   -1.5716 H   0  0  0  0  0  0  0  0  0  0  0  0
   -2.8359   -1.1902   -0.6939 H   0  0  0  0  0  0  0  0  0  0  0  0
   -2.1876   -1.0629    0.9831 H   0  0  0  0  0  0  0  0  0  0  0  0
   -3.0519    1.2647   -0.6743 H   0  0  0  0  0  0  0  0  0  0  0  0
   -1.1435    2.7817   -0.1035 H   0  0  0  0  0  0  0  0  0  0  0  0
   -0.4753    1.5984    1.1454 H   0  0  0  0  0  0  0  0  0  0  0  0
   -0.9241    1.1358   -1.9758 H   0  0  0  0  0  0  0  0  0  0  0  0
  1  2  1  0
  2  3  1  0
  3  4  1  0
  4  5  1  0
  5  6  1  0
  6  7  1  0
  7  8  1  0
  8  9  1  0
  9  5  1  0
  9  7  1  0
  1 10  1  0
  2 11  1  0
  2 12  1  0
  3 13  1  0
  3 14  1  0
  4 15  1  0
  4 16  1  0
  5 17  1  0
  6 18  1  0
  6 19  1  0
  7 20  1  0
  8 21  1  0
  8 22  1  0
  9 23  1  0
M  END
