
     RDKit          3D

 18 18  0  0  0  0  0  0  0  0999 V2000
    3.4571    0.3095    0.2625 O   0  0  0  0  0  0  0  0  0  0  0  0
    2.1892    0.5710   -0.2575 C   0  0  0  0  0  0  0  0  0  0  0  0
    1.3228   -0.6108    0.0679 C   0  0  0  0  0  0  0  0  0  0  0  0
   -0.1001   -0.4185   -0.4649 C   0  0  0  0  0  0  0  0  0  0  0  0
   -0.8410   -1.6500   -0.0761 O   0  0  0  0  0  0  0  0  0  0  0  0
   -1.2028   -0.3878    0.4520 C   0  0  0  0  0  0  0  0  0  0  0  0
   -2.5450    0.0771   -0.0225 C   0  0  0  0  0  0  0  0  0  0  0  0
   -2.8939    1.3093    0.4955 O   0  0  0  0  0  0  0  0  0  0  0  0
    3.3524    0.0166    1.1974 H   0  0  0  0  0  0  0  0  0  0  0  0
    2.3162    0.6456   -1.3581 H   0  0  0  0  0  0  0  0  0  0  0  0
    1.7989    1.5227    0.1240 H   0  0  0  0  0  0  0  0  0  0  0  0
    1.7250   -1.4875   -0.5019 H   0  0  0  0  0  0  0  0  0  0  0  0
    1.3090   -0.8561    1.1337 H   0  0  0  0  0  0  0  0  0  0  0  0
   -0.2106   -0.2928   -1.5418 H   0  0  0  0  0  0  0  0  0  0  0  0
   -1.0108   -0.2102    1.5302 H   0  0  0  0  0  0  0  0  0  0  0  0
   -3.3178   -0.6844    0.2777 H   0  0  0  0  0  0  0  0  0  0  0  0
   -2.6192    0.1336   -1.1330 H   0  0  0  0  0  0  0  0  0  0  0  0
   -2.7293    2.0125   -0.1851 H   0  0  0  0  0  0  0  0  0  0  0  0
  1  2  1  0
  2  3  1  0
  3  4  1  0
  4  5  1  0
  5  6  1  0
  6  7  1  0
  7  8  1  0
  6  4  1  0
  1  9  1  0
  2 10  1  0
  2 11  1  0
  3 12  1  0
  3 13  1  0
  4 14  1  0
  6 15  1  0
  7 16  1  0
  7 17  1  0
  8 18  1  0
M  END
