
     RDKit          3D

 23 24  0  0  0  0  0  0  0  0999 V2000
   -2.7202    1.6249   -0.4485 O   0  0  0  0  0  0  0  0  0  0  0  0
   -2.7615    0.3197   -0.9045 C   0  0  0  0  0  0  0  0  0  0  0  0
   -2.0190   -0.5230    0.1428 C   0  0  0  0  0  0  0  0  0  0  0  0
   -0.6118    0.0246    0.2049 C   0  0  0  0  0  0  0  0  0  0  0  0
    0.3299   -0.6684    1.1966 C   0  0  0  0  0  0  0  0  0  0  0  0
    0.5292   -0.8147   -0.2889 C   0  0  0  0  0  0  0  0  0  0  0  0
    1.6516   -0.1190   -0.9428 C   0  0  0  0  0  0  0  0  0  0  0  0
    2.3989    0.9246   -0.1384 C   0  0  0  0  0  0  0  0  0  0  0  0
    3.0702   -0.3554   -0.5892 C   0  0  0  0  0  0  0  0  0  0  0  0
   -3.5206    1.9262    0.0092 H   0  0  0  0  0  0  0  0  0  0  0  0
   -2.1508    0.2748   -1.8304 H   0  0  0  0  0  0  0  0  0  0  0  0
   -3.7853   -0.0563   -1.0584 H   0  0  0  0  0  0  0  0  0  0  0  0
   -2.5706   -0.3965    1.0921 H   0  0  0  0  0  0  0  0  0  0  0  0
   -2.0383   -1.5836   -0.1443 H   0  0  0  0  0  0  0  0  0  0  0  0
   -0.4798    1.1239    0.1208 H   0  0  0  0  0  0  0  0  0  0  0  0
   -0.1331   -1.5154    1.7603 H   0  0  0  0  0  0  0  0  0  0  0  0
    0.9446   -0.0064    1.8206 H   0  0  0  0  0  0  0  0  0  0  0  0
    0.2890   -1.8598   -0.6545 H   0  0  0  0  0  0  0  0  0  0  0  0
    1.4609    0.1079   -2.0285 H   0  0  0  0  0  0  0  0  0  0  0  0
    2.5996    1.8575   -0.7162 H   0  0  0  0  0  0  0  0  0  0  0  0
    2.3255    1.0190    0.9371 H   0  0  0  0  0  0  0  0  0  0  0  0
    3.3694   -1.1049    0.1638 H   0  0  0  0  0  0  0  0  0  0  0  0
    3.8221   -0.1995   -1.3848 H   0  0  0  0  0  0  0  0  0  0  0  0
  1  2  1  0
  2  3  1  0
  3  4  1  0
  4  5  1  0
  5  6  1  0
  6  7  1  0
  7  8  1  0
  8  9  1  0
  6  4  1  0
  9  7  1  0
  1 10  1  0
  2 11  1  0
  2 12  1  0
  3 13  1  0
  3 14  1  0
  4 15  1  0
  5 16  1  0
  5 17  1  0
  6 18  1  0
  7 19  1  0
  8 20  1  0
  8 21  1  0
  9 22  1  0
  9 23  1  0
M  END
