
     RDKit          3D

 21 22  0  0  0  0  0  0  0  0999 V2000
    2.2778    0.9032   -0.8263 O   0  0  0  0  0  0  0  0  0  0  0  0
    2.3927   -0.2300   -0.0669 C   0  0  0  0  0  0  0  0  0  0  0  0
    1.1352   -1.0600   -0.0080 C   0  0  0  0  0  0  0  0  0  0  0  0
   -0.0290   -0.3016    0.5767 C   0  0  0  0  0  0  0  0  0  0  0  0
   -0.3659    0.9224   -0.2192 C   0  0  0  0  0  0  0  0  0  0  0  0
   -1.7871    1.2105    0.2838 C   0  0  0  0  0  0  0  0  0  0  0  0
   -2.4115   -0.1532    0.1495 C   0  0  0  0  0  0  0  0  0  0  0  0
   -2.3345   -1.0214    1.2414 O   0  0  0  0  0  0  0  0  0  0  0  0
   -1.2850   -1.1477    0.3551 C   0  0  0  0  0  0  0  0  0  0  0  0
    2.6363    1.7245   -0.4066 H   0  0  0  0  0  0  0  0  0  0  0  0
    2.6558    0.0728    0.9717 H   0  0  0  0  0  0  0  0  0  0  0  0
    3.2060   -0.8767   -0.4532 H   0  0  0  0  0  0  0  0  0  0  0  0
    1.3569   -1.9245    0.6526 H   0  0  0  0  0  0  0  0  0  0  0  0
    0.8642   -1.4600   -0.9875 H   0  0  0  0  0  0  0  0  0  0  0  0
    0.0939   -0.1168    1.6540 H   0  0  0  0  0  0  0  0  0  0  0  0
   -0.4223    0.6551   -1.2779 H   0  0  0  0  0  0  0  0  0  0  0  0
    0.2709    1.7914   -0.0068 H   0  0  0  0  0  0  0  0  0  0  0  0
   -2.2734    1.9843   -0.3189 H   0  0  0  0  0  0  0  0  0  0  0  0
   -1.7024    1.4406    1.3470 H   0  0  0  0  0  0  0  0  0  0  0  0
   -3.0623   -0.3894   -0.6975 H   0  0  0  0  0  0  0  0  0  0  0  0
   -1.2164   -2.0233   -0.3089 H   0  0  0  0  0  0  0  0  0  0  0  0
  1  2  1  0
  2  3  1  0
  3  4  1  0
  4  5  1  0
  5  6  1  0
  6  7  1  0
  7  8  1  0
  8  9  1  0
  9  4  1  0
  9  7  1  0
  1 10  1  0
  2 11  1  0
  2 12  1  0
  3 13  1  0
  3 14  1  0
  4 15  1  0
  5 16  1  0
  5 17  1  0
  6 18  1  0
  6 19  1  0
  7 20  1  0
  9 21  1  0
M  END
