
     RDKit          3D

 21 21  0  0  0  0  0  0  0  0999 V2000
   -2.5023   -1.3259   -0.5564 O   0  0  0  0  0  0  0  0  0  0  0  0
   -2.3175    0.0546   -0.5967 C   0  0  0  0  0  0  0  0  0  0  0  0
   -1.5240    0.5693    0.5660 C   0  0  0  0  0  0  0  0  0  0  0  0
   -0.1532   -0.0365    0.6457 C   0  0  0  0  0  0  0  0  0  0  0  0
    0.5811    0.3079   -0.6222 C   0  0  0  0  0  0  0  0  0  0  0  0
    0.6292    1.7200   -0.6767 O   0  0  0  0  0  0  0  0  0  0  0  0
    2.0290   -0.1262   -0.5792 C   0  0  0  0  0  0  0  0  0  0  0  0
    2.5345   -1.1028    0.3518 C   0  0  0  0  0  0  0  0  0  0  0  0
    2.7284    0.3686    0.5226 O   0  0  0  0  0  0  0  0  0  0  0  0
   -2.6312   -1.6029    0.3735 H   0  0  0  0  0  0  0  0  0  0  0  0
   -1.9107    0.3628   -1.5766 H   0  0  0  0  0  0  0  0  0  0  0  0
   -3.3251    0.5352   -0.5107 H   0  0  0  0  0  0  0  0  0  0  0  0
   -1.4824    1.6836    0.4479 H   0  0  0  0  0  0  0  0  0  0  0  0
   -2.1053    0.3969    1.4997 H   0  0  0  0  0  0  0  0  0  0  0  0
    0.3774    0.4813    1.4998 H   0  0  0  0  0  0  0  0  0  0  0  0
   -0.1693   -1.1191    0.8499 H   0  0  0  0  0  0  0  0  0  0  0  0
    0.0555   -0.0331   -1.5080 H   0  0  0  0  0  0  0  0  0  0  0  0
    1.1914    1.9854    0.1000 H   0  0  0  0  0  0  0  0  0  0  0  0
    2.5481   -0.0083   -1.5526 H   0  0  0  0  0  0  0  0  0  0  0  0
    1.9689   -1.4871    1.2117 H   0  0  0  0  0  0  0  0  0  0  0  0
    3.4776   -1.6239    0.1106 H   0  0  0  0  0  0  0  0  0  0  0  0
  1  2  1  0
  2  3  1  0
  3  4  1  0
  4  5  1  0
  5  6  1  0
  5  7  1  0
  7  8  1  0
  8  9  1  0
  9  7  1  0
  1 10  1  0
  2 11  1  0
  2 12  1  0
  3 13  1  0
  3 14  1  0
  4 15  1  0
  4 16  1  0
  5 17  1  0
  6 18  1  0
  7 19  1  0
  8 20  1  0
  8 21  1  0
M  END
