
     RDKit          3D

 21 22  0  0  0  0  0  0  0  0999 V2000
    2.5054   -0.3335   -1.1115 O   0  0  0  0  0  0  0  0  0  0  0  0
    2.2886   -0.2116    0.2340 C   0  0  0  0  0  0  0  0  0  0  0  0
    1.0856   -0.8751    0.7753 C   0  0  0  0  0  0  0  0  0  0  0  0
   -0.2216   -0.4744    0.2672 C   0  0  0  0  0  0  0  0  0  0  0  0
   -0.4613   -0.6635   -1.2420 C   0  0  0  0  0  0  0  0  0  0  0  0
   -0.5462    0.6830   -0.5492 C   0  0  0  0  0  0  0  0  0  0  0  0
   -1.9564    1.0520   -0.1338 C   0  0  0  0  0  0  0  0  0  0  0  0
   -2.0355    0.4076    1.2391 C   0  0  0  0  0  0  0  0  0  0  0  0
   -1.3375   -0.7793    1.0446 O   0  0  0  0  0  0  0  0  0  0  0  0
    3.0932    0.4145   -1.3982 H   0  0  0  0  0  0  0  0  0  0  0  0
    3.1844   -0.6685    0.7504 H   0  0  0  0  0  0  0  0  0  0  0  0
    2.3456    0.8724    0.5092 H   0  0  0  0  0  0  0  0  0  0  0  0
    1.1024   -0.7299    1.8945 H   0  0  0  0  0  0  0  0  0  0  0  0
    1.2118   -1.9866    0.6201 H   0  0  0  0  0  0  0  0  0  0  0  0
   -1.4028   -1.1657   -1.5474 H   0  0  0  0  0  0  0  0  0  0  0  0
    0.3823   -0.8868   -1.8930 H   0  0  0  0  0  0  0  0  0  0  0  0
    0.1514    1.4595   -0.8635 H   0  0  0  0  0  0  0  0  0  0  0  0
   -2.1140    2.1370   -0.0703 H   0  0  0  0  0  0  0  0  0  0  0  0
   -2.7252    0.5700   -0.7741 H   0  0  0  0  0  0  0  0  0  0  0  0
   -3.0560    0.1926    1.5605 H   0  0  0  0  0  0  0  0  0  0  0  0
   -1.4943    0.9862    2.0023 H   0  0  0  0  0  0  0  0  0  0  0  0
  1  2  1  0
  2  3  1  0
  3  4  1  0
  4  5  1  0
  5  6  1  0
  6  7  1  0
  7  8  1  0
  8  9  1  0
  6  4  1  0
  9  4  1  0
  1 10  1  0
  2 11  1  0
  2 12  1  0
  3 13  1  0
  3 14  1  0
  5 15  1  0
  5 16  1  0
  6 17  1  0
  7 18  1  0
  7 19  1  0
  8 20  1  0
  8 21  1  0
M  END
