
     RDKit          3D

 19 20  0  0  0  0  0  0  0  0999 V2000
   -3.5349    0.1465    0.0193 O   0  0  0  0  0  0  0  0  0  0  0  0
   -2.2424    0.1114   -0.4388 C   0  0  0  0  0  0  0  0  0  0  0  0
   -1.2559    0.6291    0.6153 C   0  0  0  0  0  0  0  0  0  0  0  0
    0.1457    0.5843    0.1012 C   0  0  0  0  0  0  0  0  0  0  0  0
    0.7764   -0.6854   -0.3193 C   0  0  0  0  0  0  0  0  0  0  0  0
    1.9808   -0.6267   -0.9826 O   0  0  0  0  0  0  0  0  0  0  0  0
    2.9787   -0.5554    0.0087 C   0  0  0  0  0  0  0  0  0  0  0  0
    2.4462    0.3034    0.9670 O   0  0  0  0  0  0  0  0  0  0  0  0
    1.1259   -0.1080    1.0353 C   0  0  0  0  0  0  0  0  0  0  0  0
   -3.9905    0.9973   -0.0764 H   0  0  0  0  0  0  0  0  0  0  0  0
   -2.0962    0.8011   -1.3181 H   0  0  0  0  0  0  0  0  0  0  0  0
   -1.9367   -0.9186   -0.7201 H   0  0  0  0  0  0  0  0  0  0  0  0
   -1.3772    0.0937    1.5689 H   0  0  0  0  0  0  0  0  0  0  0  0
   -1.5406    1.6952    0.7796 H   0  0  0  0  0  0  0  0  0  0  0  0
    0.4975    1.5012   -0.4165 H   0  0  0  0  0  0  0  0  0  0  0  0
    0.1820   -1.6160   -0.3829 H   0  0  0  0  0  0  0  0  0  0  0  0
    3.1923   -1.5571    0.4457 H   0  0  0  0  0  0  0  0  0  0  0  0
    3.8950   -0.1029   -0.3839 H   0  0  0  0  0  0  0  0  0  0  0  0
    0.7539   -0.6931    1.8801 H   0  0  0  0  0  0  0  0  0  0  0  0
  1  2  1  0
  2  3  1  0
  3  4  1  0
  4  5  1  0
  5  6  1  0
  6  7  1  0
  7  8  1  0
  8  9  1  0
  9  4  1  0
  9  5  1  0
  1 10  1  0
  2 11  1  0
  2 12  1  0
  3 13  1  0
  3 14  1  0
  4 15  1  0
  5 16  1  0
  7 17  1  0
  7 18  1  0
  9 19  1  0
M  END
