
     RDKit          3D

 21 22  0  0  0  0  0  0  0  0999 V2000
    3.5407    0.7362    0.2141 O   0  0  0  0  0  0  0  0  0  0  0  0
    2.5533   -0.2230   -0.0082 C   0  0  0  0  0  0  0  0  0  0  0  0
    1.1614    0.4058    0.1433 C   0  0  0  0  0  0  0  0  0  0  0  0
    0.1649   -0.6746   -0.1074 C   0  0  0  0  0  0  0  0  0  0  0  0
   -1.2514   -0.2787   -0.0105 C   0  0  0  0  0  0  0  0  0  0  0  0
   -1.8610    0.2749    1.2228 C   0  0  0  0  0  0  0  0  0  0  0  0
   -2.5140    1.2349    0.4210 O   0  0  0  0  0  0  0  0  0  0  0  0
   -1.8819    0.8152   -0.7333 C   0  0  0  0  0  0  0  0  0  0  0  0
   -2.1352   -0.5742   -1.1758 C   0  0  0  0  0  0  0  0  0  0  0  0
    3.8973    0.6220    1.1482 H   0  0  0  0  0  0  0  0  0  0  0  0
    2.6104   -0.5560   -1.0631 H   0  0  0  0  0  0  0  0  0  0  0  0
    2.6860   -1.0857    0.6584 H   0  0  0  0  0  0  0  0  0  0  0  0
    1.0855    1.2224   -0.5938 H   0  0  0  0  0  0  0  0  0  0  0  0
    1.1346    0.8160    1.1678 H   0  0  0  0  0  0  0  0  0  0  0  0
    0.3714   -1.1225   -1.0906 H   0  0  0  0  0  0  0  0  0  0  0  0
    0.3524   -1.4892    0.6515 H   0  0  0  0  0  0  0  0  0  0  0  0
   -2.5792   -0.4398    1.6819 H   0  0  0  0  0  0  0  0  0  0  0  0
   -1.1853    0.7958    1.9313 H   0  0  0  0  0  0  0  0  0  0  0  0
   -1.3941    1.5052   -1.4152 H   0  0  0  0  0  0  0  0  0  0  0  0
   -3.0769   -1.1134   -0.9075 H   0  0  0  0  0  0  0  0  0  0  0  0
   -1.6790   -0.8713   -2.1349 H   0  0  0  0  0  0  0  0  0  0  0  0
  1  2  1  0
  2  3  1  0
  3  4  1  0
  4  5  1  0
  5  6  1  0
  6  7  1  0
  7  8  1  0
  8  9  1  0
  8  5  1  0
  9  5  1  0
  1 10  1  0
  2 11  1  0
  2 12  1  0
  3 13  1  0
  3 14  1  0
  4 15  1  0
  4 16  1  0
  6 17  1  0
  6 18  1  0
  8 19  1  0
  9 20  1  0
  9 21  1  0
M  END
