
     RDKit          3D

 17 17  0  0  0  0  0  0  0  0999 V2000
   -2.2717    1.2272    0.1120 O   0  0  0  0  0  0  0  0  0  0  0  0
   -2.2054   -0.1539   -0.0528 C   0  0  0  0  0  0  0  0  0  0  0  0
   -0.9124   -0.6043    0.6306 C   0  0  0  0  0  0  0  0  0  0  0  0
    0.2586    0.0933   -0.0416 C   0  0  0  0  0  0  0  0  0  0  0  0
    1.5231   -0.3521    0.6325 C   0  0  0  0  0  0  0  0  0  0  0  0
    2.7773    0.2839    0.0423 C   0  0  0  0  0  0  0  0  0  0  0  0
    2.4711   -1.0808   -0.0332 O   0  0  0  0  0  0  0  0  0  0  0  0
   -2.7649    1.4416    0.9527 H   0  0  0  0  0  0  0  0  0  0  0  0
   -3.0708   -0.6128    0.4219 H   0  0  0  0  0  0  0  0  0  0  0  0
   -2.0991   -0.3576   -1.1268 H   0  0  0  0  0  0  0  0  0  0  0  0
   -0.7841   -1.6796    0.4840 H   0  0  0  0  0  0  0  0  0  0  0  0
   -0.9864   -0.3137    1.6809 H   0  0  0  0  0  0  0  0  0  0  0  0
    0.1531    1.1845    0.1575 H   0  0  0  0  0  0  0  0  0  0  0  0
    0.2510   -0.0419   -1.1219 H   0  0  0  0  0  0  0  0  0  0  0  0
    1.4815   -0.4993    1.7188 H   0  0  0  0  0  0  0  0  0  0  0  0
    2.6947    0.8212   -0.9164 H   0  0  0  0  0  0  0  0  0  0  0  0
    3.4844    0.6443    0.7890 H   0  0  0  0  0  0  0  0  0  0  0  0
  1  2  1  0
  2  3  1  0
  3  4  1  0
  4  5  1  0
  5  6  1  0
  6  7  1  0
  7  5  1  0
  1  8  1  0
  2  9  1  0
  2 10  1  0
  3 11  1  0
  3 12  1  0
  4 13  1  0
  4 14  1  0
  5 15  1  0
  6 16  1  0
  6 17  1  0
M  END
