
     RDKit          3D

 18 18  0  0  0  0  0  0  0  0999 V2000
   -2.7422    0.5024   -1.1873 O   0  0  0  0  0  0  0  0  0  0  0  0
   -1.5439    0.6007   -0.4450 C   0  0  0  0  0  0  0  0  0  0  0  0
   -0.8990   -0.7687   -0.3654 C   0  0  0  0  0  0  0  0  0  0  0  0
    0.3987   -0.7275    0.4298 C   0  0  0  0  0  0  0  0  0  0  0  0
    0.8737   -2.0630    0.4157 O   0  0  0  0  0  0  0  0  0  0  0  0
    1.4382    0.1463   -0.1855 C   0  0  0  0  0  0  0  0  0  0  0  0
    2.1707    1.0541    0.6822 C   0  0  0  0  0  0  0  0  0  0  0  0
    1.2809    1.5079   -0.3160 O   0  0  0  0  0  0  0  0  0  0  0  0
   -3.4114    1.1053   -0.7859 H   0  0  0  0  0  0  0  0  0  0  0  0
   -1.7446    1.0069    0.5604 H   0  0  0  0  0  0  0  0  0  0  0  0
   -0.8987    1.2521   -1.0726 H   0  0  0  0  0  0  0  0  0  0  0  0
   -1.6314   -1.4502    0.1134 H   0  0  0  0  0  0  0  0  0  0  0  0
   -0.7249   -1.1551   -1.3845 H   0  0  0  0  0  0  0  0  0  0  0  0
    0.1995   -0.5113    1.4993 H   0  0  0  0  0  0  0  0  0  0  0  0
    0.1525   -2.7037    0.2417 H   0  0  0  0  0  0  0  0  0  0  0  0
    2.0130   -0.3055   -1.0402 H   0  0  0  0  0  0  0  0  0  0  0  0
    3.2427    1.1689    0.5304 H   0  0  0  0  0  0  0  0  0  0  0  0
    1.8262    1.3405    1.6920 H   0  0  0  0  0  0  0  0  0  0  0  0
  1  2  1  0
  2  3  1  0
  3  4  1  0
  4  5  1  0
  4  6  1  0
  6  7  1  0
  7  8  1  0
  8  6  1  0
  1  9  1  0
  2 10  1  0
  2 11  1  0
  3 12  1  0
  3 13  1  0
  4 14  1  0
  5 15  1  0
  6 16  1  0
  7 17  1  0
  7 18  1  0
M  END
