
     RDKit          3D

 21 22  0  0  0  0  0  0  0  0999 V2000
    3.2210   -1.0155   -0.2787 O   0  0  0  0  0  0  0  0  0  0  0  0
    1.8372   -1.0392   -0.0937 C   0  0  0  0  0  0  0  0  0  0  0  0
    1.2794    0.3325    0.0795 C   0  0  0  0  0  0  0  0  0  0  0  0
   -0.1511    0.4663    0.2821 C   0  0  0  0  0  0  0  0  0  0  0  0
   -0.6538    1.8952    0.4519 C   0  0  0  0  0  0  0  0  0  0  0  0
   -1.0491    1.1021   -0.7318 C   0  0  0  0  0  0  0  0  0  0  0  0
   -2.1059    0.0509   -0.4842 C   0  0  0  0  0  0  0  0  0  0  0  0
   -1.1509   -0.5802    0.5232 C   0  0  0  0  0  0  0  0  0  0  0  0
   -0.8863   -1.8706    0.1500 O   0  0  0  0  0  0  0  0  0  0  0  0
    3.7138   -0.9351    0.5847 H   0  0  0  0  0  0  0  0  0  0  0  0
    1.6338   -1.7349    0.7141 H   0  0  0  0  0  0  0  0  0  0  0  0
    1.4246   -1.5110   -1.0316 H   0  0  0  0  0  0  0  0  0  0  0  0
    1.6071    0.9456   -0.7908 H   0  0  0  0  0  0  0  0  0  0  0  0
    1.8178    0.7928    0.9620 H   0  0  0  0  0  0  0  0  0  0  0  0
   -1.3808    2.0057    1.2707 H   0  0  0  0  0  0  0  0  0  0  0  0
    0.0505    2.7237    0.2617 H   0  0  0  0  0  0  0  0  0  0  0  0
   -0.6061    1.2284   -1.7217 H   0  0  0  0  0  0  0  0  0  0  0  0
   -3.0023    0.5316   -0.0173 H   0  0  0  0  0  0  0  0  0  0  0  0
   -2.3761   -0.5775   -1.3312 H   0  0  0  0  0  0  0  0  0  0  0  0
   -1.5883   -0.5102    1.5535 H   0  0  0  0  0  0  0  0  0  0  0  0
   -1.6345   -2.3008   -0.3524 H   0  0  0  0  0  0  0  0  0  0  0  0
  1  2  1  0
  2  3  1  0
  3  4  1  0
  4  5  1  0
  5  6  1  0
  6  7  1  0
  7  8  1  0
  8  9  1  0
  6  4  1  0
  8  4  1  0
  1 10  1  0
  2 11  1  0
  2 12  1  0
  3 13  1  0
  3 14  1  0
  5 15  1  0
  5 16  1  0
  6 17  1  0
  7 18  1  0
  7 19  1  0
  8 20  1  0
  9 21  1  0
M  END
