
     RDKit          3D

 21 21  0  0  0  0  0  0  0  0999 V2000
    2.3375    0.8040   -1.0301 O   0  0  0  0  0  0  0  0  0  0  0  0
    1.7580    0.9682    0.2267 C   0  0  0  0  0  0  0  0  0  0  0  0
    1.1993   -0.2796    0.7906 C   0  0  0  0  0  0  0  0  0  0  0  0
    0.1566   -1.0150    0.0381 C   0  0  0  0  0  0  0  0  0  0  0  0
   -0.1153   -2.1488    0.9053 O   0  0  0  0  0  0  0  0  0  0  0  0
   -1.1647   -0.3813   -0.1710 C   0  0  0  0  0  0  0  0  0  0  0  0
   -2.1142   -1.3242   -0.6889 O   0  0  0  0  0  0  0  0  0  0  0  0
   -1.3679    0.9249   -0.8794 C   0  0  0  0  0  0  0  0  0  0  0  0
   -1.7441    0.7093    0.5938 C   0  0  0  0  0  0  0  0  0  0  0  0
    3.2225    0.3315   -0.9463 H   0  0  0  0  0  0  0  0  0  0  0  0
    1.1624    1.8673    0.2512 H   0  0  0  0  0  0  0  0  0  0  0  0
    2.6663    1.2198    0.8891 H   0  0  0  0  0  0  0  0  0  0  0  0
    0.8877   -0.1095    1.8713 H   0  0  0  0  0  0  0  0  0  0  0  0
    2.0967   -0.9641    0.9336 H   0  0  0  0  0  0  0  0  0  0  0  0
    0.5802   -1.4804   -0.8651 H   0  0  0  0  0  0  0  0  0  0  0  0
   -0.5560   -1.6934    1.6904 H   0  0  0  0  0  0  0  0  0  0  0  0
   -2.1280   -2.1324   -0.1452 H   0  0  0  0  0  0  0  0  0  0  0  0
   -0.5769    1.5981   -1.1664 H   0  0  0  0  0  0  0  0  0  0  0  0
   -2.2710    1.0616   -1.5593 H   0  0  0  0  0  0  0  0  0  0  0  0
   -2.8468    0.7162    0.8299 H   0  0  0  0  0  0  0  0  0  0  0  0
   -1.1822    1.3280    1.3172 H   0  0  0  0  0  0  0  0  0  0  0  0
  1  2  1  0
  2  3  1  0
  3  4  1  0
  4  5  1  0
  4  6  1  0
  6  7  1  0
  6  8  1  0
  8  9  1  0
  9  6  1  0
  1 10  1  0
  2 11  1  0
  2 12  1  0
  3 13  1  0
  3 14  1  0
  4 15  1  0
  5 16  1  0
  7 17  1  0
  8 18  1  0
  8 19  1  0
  9 20  1  0
  9 21  1  0
M  END
