
     RDKit          3D

 19 22  0  0  0  0  0  0  0  0999 V2000
    3.2975   -0.3226    0.5508 O   0  0  0  0  0  0  0  0  0  0  0  0
    2.0074   -0.6858    0.0962 C   0  0  0  0  0  0  0  0  0  0  0  0
    1.1084    0.4557    0.4295 C   0  0  0  0  0  0  0  0  0  0  0  0
   -0.2593    0.3333    0.0700 C   0  0  0  0  0  0  0  0  0  0  0  0
   -1.3730    1.2609    0.2562 C   0  0  0  0  0  0  0  0  0  0  0  0
   -2.2432    0.1609    0.6263 C   0  0  0  0  0  0  0  0  0  0  0  0
   -2.1436    0.5447   -0.7503 C   0  0  0  0  0  0  0  0  0  0  0  0
   -0.9911   -0.3784   -0.9331 C   0  0  0  0  0  0  0  0  0  0  0  0
   -1.1354   -0.7956    0.4301 C   0  0  0  0  0  0  0  0  0  0  0  0
    3.9774   -0.8753    0.1037 H   0  0  0  0  0  0  0  0  0  0  0  0
    1.7431   -1.6353    0.5640 H   0  0  0  0  0  0  0  0  0  0  0  0
    2.0763   -0.7950   -1.0078 H   0  0  0  0  0  0  0  0  0  0  0  0
    1.2256    0.6432    1.5391 H   0  0  0  0  0  0  0  0  0  0  0  0
    1.5734    1.3770   -0.0327 H   0  0  0  0  0  0  0  0  0  0  0  0
   -1.3777    2.2728    0.5269 H   0  0  0  0  0  0  0  0  0  0  0  0
   -3.0448    0.1106    1.3027 H   0  0  0  0  0  0  0  0  0  0  0  0
   -2.8277    0.8820   -1.4646 H   0  0  0  0  0  0  0  0  0  0  0  0
   -0.7062   -0.8825   -1.8114 H   0  0  0  0  0  0  0  0  0  0  0  0
   -0.9073   -1.6704    0.9531 H   0  0  0  0  0  0  0  0  0  0  0  0
  1  2  1  0
  2  3  1  0
  3  4  1  0
  4  5  1  0
  5  6  1  0
  6  7  1  0
  7  8  1  0
  8  9  1  0
  8  4  1  0
  9  4  1  0
  7  5  1  0
  9  6  1  0
  1 10  1  0
  2 11  1  0
  2 12  1  0
  3 13  1  0
  3 14  1  0
  5 15  1  0
  6 16  1  0
  7 17  1  0
  8 18  1  0
  9 19  1  0
M  END
