
     RDKit          3D

 23 23  0  0  0  0  0  0  0  0999 V2000
    3.6686   -0.6755    0.5432 O   0  0  0  0  0  0  0  0  0  0  0  0
    2.4733   -0.6002   -0.1709 C   0  0  0  0  0  0  0  0  0  0  0  0
    1.4867    0.3547    0.5066 C   0  0  0  0  0  0  0  0  0  0  0  0
    0.2451    0.3617   -0.3360 C   0  0  0  0  0  0  0  0  0  0  0  0
   -0.3409   -1.0104   -0.4249 C   0  0  0  0  0  0  0  0  0  0  0  0
   -1.8330   -0.8063   -0.5630 C   0  0  0  0  0  0  0  0  0  0  0  0
   -2.0658    0.6906   -0.5605 C   0  0  0  0  0  0  0  0  0  0  0  0
   -3.2373    1.0623    0.0470 O   0  0  0  0  0  0  0  0  0  0  0  0
   -0.8634    1.1924    0.2516 C   0  0  0  0  0  0  0  0  0  0  0  0
    4.0923    0.2281    0.4689 H   0  0  0  0  0  0  0  0  0  0  0  0
    2.0515   -1.6027   -0.2895 H   0  0  0  0  0  0  0  0  0  0  0  0
    2.7448   -0.2060   -1.1937 H   0  0  0  0  0  0  0  0  0  0  0  0
    1.2228   -0.1244    1.4773 H   0  0  0  0  0  0  0  0  0  0  0  0
    1.9534    1.3289    0.6223 H   0  0  0  0  0  0  0  0  0  0  0  0
    0.4308    0.7487   -1.3619 H   0  0  0  0  0  0  0  0  0  0  0  0
   -0.1654   -1.5665    0.5407 H   0  0  0  0  0  0  0  0  0  0  0  0
    0.1124   -1.5602   -1.2445 H   0  0  0  0  0  0  0  0  0  0  0  0
   -2.3916   -1.2524    0.2732 H   0  0  0  0  0  0  0  0  0  0  0  0
   -2.1692   -1.2742   -1.5157 H   0  0  0  0  0  0  0  0  0  0  0  0
   -1.9555    1.1023   -1.6020 H   0  0  0  0  0  0  0  0  0  0  0  0
   -3.6628    0.3549    0.5844 H   0  0  0  0  0  0  0  0  0  0  0  0
   -1.0303    0.9842    1.3287 H   0  0  0  0  0  0  0  0  0  0  0  0
   -0.7667    2.2701    0.0496 H   0  0  0  0  0  0  0  0  0  0  0  0
  1  2  1  0
  2  3  1  0
  3  4  1  0
  4  5  1  0
  5  6  1  0
  6  7  1  0
  7  8  1  0
  7  9  1  0
  9  4  1  0
  1 10  1  0
  2 11  1  0
  2 12  1  0
  3 13  1  0
  3 14  1  0
  4 15  1  0
  5 16  1  0
  5 17  1  0
  6 18  1  0
  6 19  1  0
  7 20  1  0
  8 21  1  0
  9 22  1  0
  9 23  1  0
M  END
