
     RDKit          3D

 23 23  0  0  0  0  0  0  0  0999 V2000
    3.1500    0.3588   -0.3991 O   0  0  0  0  0  0  0  0  0  0  0  0
    2.6386   -0.4047    0.6522 C   0  0  0  0  0  0  0  0  0  0  0  0
    1.2316   -0.8597    0.2780 C   0  0  0  0  0  0  0  0  0  0  0  0
    0.4189    0.3951    0.0614 C   0  0  0  0  0  0  0  0  0  0  0  0
   -1.0102    0.0884   -0.3188 C   0  0  0  0  0  0  0  0  0  0  0  0
   -1.8564    1.3237   -0.5443 C   0  0  0  0  0  0  0  0  0  0  0  0
   -1.8776    2.0676    0.6333 O   0  0  0  0  0  0  0  0  0  0  0  0
   -1.7188   -1.0907    0.2159 C   0  0  0  0  0  0  0  0  0  0  0  0
   -1.3118   -1.0470   -1.2337 C   0  0  0  0  0  0  0  0  0  0  0  0
    4.0971    0.5557   -0.2891 H   0  0  0  0  0  0  0  0  0  0  0  0
    2.5360    0.2860    1.5221 H   0  0  0  0  0  0  0  0  0  0  0  0
    3.2807   -1.2508    0.9243 H   0  0  0  0  0  0  0  0  0  0  0  0
    1.3007   -1.3862   -0.6970 H   0  0  0  0  0  0  0  0  0  0  0  0
    0.7931   -1.4472    1.0831 H   0  0  0  0  0  0  0  0  0  0  0  0
    0.9240    0.9618   -0.7611 H   0  0  0  0  0  0  0  0  0  0  0  0
    0.4574    1.0318    0.9694 H   0  0  0  0  0  0  0  0  0  0  0  0
   -2.8570    1.0870   -0.9302 H   0  0  0  0  0  0  0  0  0  0  0  0
   -1.3421    1.8987   -1.3693 H   0  0  0  0  0  0  0  0  0  0  0  0
   -2.1512    3.0104    0.4739 H   0  0  0  0  0  0  0  0  0  0  0  0
   -2.8070   -1.0023    0.4774 H   0  0  0  0  0  0  0  0  0  0  0  0
   -1.2112   -1.8642    0.8172 H   0  0  0  0  0  0  0  0  0  0  0  0
   -0.5157   -1.7258   -1.5996 H   0  0  0  0  0  0  0  0  0  0  0  0
   -2.1691   -0.9862   -1.9426 H   0  0  0  0  0  0  0  0  0  0  0  0
  1  2  1  0
  2  3  1  0
  3  4  1  0
  4  5  1  0
  5  6  1  0
  6  7  1  0
  5  8  1  0
  8  9  1  0
  9  5  1  0
  1 10  1  0
  2 11  1  0
  2 12  1  0
  3 13  1  0
  3 14  1  0
  4 15  1  0
  4 16  1  0
  6 17  1  0
  6 18  1  0
  7 19  1  0
  8 20  1  0
  8 21  1  0
  9 22  1  0
  9 23  1  0
M  END
