
     RDKit          3D

 21 22  0  0  0  0  0  0  0  0999 V2000
    3.5336   -0.2787    0.3094 O   0  0  0  0  0  0  0  0  0  0  0  0
    2.1809   -0.3982    0.6253 C   0  0  0  0  0  0  0  0  0  0  0  0
    1.3045    0.3555   -0.3290 C   0  0  0  0  0  0  0  0  0  0  0  0
   -0.1188    0.2757   -0.0606 C   0  0  0  0  0  0  0  0  0  0  0  0
   -0.8220   -1.0447   -0.0581 C   0  0  0  0  0  0  0  0  0  0  0  0
   -2.2546   -0.4999    0.1410 C   0  0  0  0  0  0  0  0  0  0  0  0
   -1.8447    0.9623    0.3378 C   0  0  0  0  0  0  0  0  0  0  0  0
   -0.9945    1.1863   -0.8935 C   0  0  0  0  0  0  0  0  0  0  0  0
   -0.6499    0.9081    1.0520 O   0  0  0  0  0  0  0  0  0  0  0  0
    4.0412   -1.0996    0.5865 H   0  0  0  0  0  0  0  0  0  0  0  0
    2.0275   -0.0937    1.6813 H   0  0  0  0  0  0  0  0  0  0  0  0
    1.8955   -1.4898    0.5973 H   0  0  0  0  0  0  0  0  0  0  0  0
    1.5215   -0.0064   -1.3514 H   0  0  0  0  0  0  0  0  0  0  0  0
    1.6280    1.4169   -0.3051 H   0  0  0  0  0  0  0  0  0  0  0  0
   -0.5933   -1.6403    0.8487 H   0  0  0  0  0  0  0  0  0  0  0  0
   -0.7371   -1.6042   -0.9947 H   0  0  0  0  0  0  0  0  0  0  0  0
   -2.7193   -0.9132    1.0337 H   0  0  0  0  0  0  0  0  0  0  0  0
   -2.8307   -0.6083   -0.7893 H   0  0  0  0  0  0  0  0  0  0  0  0
   -2.5919    1.6672    0.5976 H   0  0  0  0  0  0  0  0  0  0  0  0
   -0.5712    2.1878   -0.9944 H   0  0  0  0  0  0  0  0  0  0  0  0
   -1.4049    0.7172   -1.8055 H   0  0  0  0  0  0  0  0  0  0  0  0
  1  2  1  0
  2  3  1  0
  3  4  1  0
  4  5  1  0
  5  6  1  0
  6  7  1  0
  7  8  1  0
  7  9  1  0
  8  4  1  0
  9  4  1  0
  1 10  1  0
  2 11  1  0
  2 12  1  0
  3 13  1  0
  3 14  1  0
  5 15  1  0
  5 16  1  0
  6 17  1  0
  6 18  1  0
  7 19  1  0
  8 20  1  0
  8 21  1  0
M  END
