
     RDKit          3D

 19 21  0  0  0  0  0  0  0  0999 V2000
    3.3301    0.9768   -0.5025 O   0  0  0  0  0  0  0  0  0  0  0  0
    2.2130    0.6137    0.2349 C   0  0  0  0  0  0  0  0  0  0  0  0
    1.1154    0.2313   -0.7510 C   0  0  0  0  0  0  0  0  0  0  0  0
   -0.0881   -0.1599    0.0383 C   0  0  0  0  0  0  0  0  0  0  0  0
    0.0228   -1.2118    0.9068 O   0  0  0  0  0  0  0  0  0  0  0  0
   -0.7756   -1.4677   -0.1678 C   0  0  0  0  0  0  0  0  0  0  0  0
   -2.1369   -0.8360   -0.1377 C   0  0  0  0  0  0  0  0  0  0  0  0
   -2.4617    0.2497    0.8050 C   0  0  0  0  0  0  0  0  0  0  0  0
   -1.4119    0.5295   -0.1811 C   0  0  0  0  0  0  0  0  0  0  0  0
    4.0484    0.3379   -0.2939 H   0  0  0  0  0  0  0  0  0  0  0  0
    1.8413    1.4882    0.7930 H   0  0  0  0  0  0  0  0  0  0  0  0
    2.3981   -0.2750    0.8659 H   0  0  0  0  0  0  0  0  0  0  0  0
    1.4436   -0.5151   -1.4802 H   0  0  0  0  0  0  0  0  0  0  0  0
    0.8605    1.1862   -1.2918 H   0  0  0  0  0  0  0  0  0  0  0  0
   -0.4554   -2.0390   -1.0375 H   0  0  0  0  0  0  0  0  0  0  0  0
   -2.7888   -1.1027   -0.9663 H   0  0  0  0  0  0  0  0  0  0  0  0
   -2.1429    0.1824    1.8591 H   0  0  0  0  0  0  0  0  0  0  0  0
   -3.4365    0.7497    0.6467 H   0  0  0  0  0  0  0  0  0  0  0  0
   -1.5754    1.0620   -1.1247 H   0  0  0  0  0  0  0  0  0  0  0  0
  1  2  1  0
  2  3  1  0
  3  4  1  0
  4  5  1  0
  5  6  1  0
  6  7  1  0
  7  8  1  0
  8  9  1  0
  6  4  1  0
  9  7  1  0
  9  4  1  0
  1 10  1  0
  2 11  1  0
  2 12  1  0
  3 13  1  0
  3 14  1  0
  6 15  1  0
  7 16  1  0
  8 17  1  0
  8 18  1  0
  9 19  1  0
M  END
