
     RDKit          3D

 23 24  0  0  0  0  0  0  0  0999 V2000
   -2.2473    1.3897   -0.8958 O   0  0  0  0  0  0  0  0  0  0  0  0
   -2.4374    0.3170   -0.0278 C   0  0  0  0  0  0  0  0  0  0  0  0
   -1.5105   -0.8029   -0.1911 C   0  0  0  0  0  0  0  0  0  0  0  0
   -0.0839   -0.6964    0.0280 C   0  0  0  0  0  0  0  0  0  0  0  0
    0.6939    0.3070   -0.7826 C   0  0  0  0  0  0  0  0  0  0  0  0
    2.0961   -0.2314   -0.6097 C   0  0  0  0  0  0  0  0  0  0  0  0
    2.0402   -0.5394    0.9062 C   0  0  0  0  0  0  0  0  0  0  0  0
    0.5889   -0.0920    1.1748 C   0  0  0  0  0  0  0  0  0  0  0  0
    0.6197    1.2182    0.4236 C   0  0  0  0  0  0  0  0  0  0  0  0
   -2.6360    1.1242   -1.7807 H   0  0  0  0  0  0  0  0  0  0  0  0
   -2.5109    0.7283    1.0033 H   0  0  0  0  0  0  0  0  0  0  0  0
   -3.4988   -0.0169   -0.2449 H   0  0  0  0  0  0  0  0  0  0  0  0
   -1.8831   -1.6714    0.4543 H   0  0  0  0  0  0  0  0  0  0  0  0
   -1.6965   -1.2350   -1.2363 H   0  0  0  0  0  0  0  0  0  0  0  0
    0.4503   -1.7201   -0.1886 H   0  0  0  0  0  0  0  0  0  0  0  0
    0.3523    0.6325   -1.7199 H   0  0  0  0  0  0  0  0  0  0  0  0
    2.8811    0.4853   -0.8435 H   0  0  0  0  0  0  0  0  0  0  0  0
    2.1974   -1.1610   -1.1931 H   0  0  0  0  0  0  0  0  0  0  0  0
    2.1358   -1.6179    1.0321 H   0  0  0  0  0  0  0  0  0  0  0  0
    2.7600    0.0793    1.4299 H   0  0  0  0  0  0  0  0  0  0  0  0
    0.2390   -0.1277    2.1683 H   0  0  0  0  0  0  0  0  0  0  0  0
    1.6300    1.7179    0.5533 H   0  0  0  0  0  0  0  0  0  0  0  0
   -0.1802    1.9127    0.5403 H   0  0  0  0  0  0  0  0  0  0  0  0
  1  2  1  0
  2  3  1  0
  3  4  1  0
  4  5  1  0
  5  6  1  0
  6  7  1  0
  7  8  1  0
  8  9  1  0
  8  4  1  0
  9  5  1  0
  1 10  1  0
  2 11  1  0
  2 12  1  0
  3 13  1  0
  3 14  1  0
  4 15  1  0
  5 16  1  0
  6 17  1  0
  6 18  1  0
  7 19  1  0
  7 20  1  0
  8 21  1  0
  9 22  1  0
  9 23  1  0
M  END
