
     RDKit          3D

 21 22  0  0  0  0  0  0  0  0999 V2000
    2.1585    0.2314   -1.4309 O   0  0  0  0  0  0  0  0  0  0  0  0
    2.3600    0.2909   -0.0564 C   0  0  0  0  0  0  0  0  0  0  0  0
    1.0289    0.6153    0.6256 C   0  0  0  0  0  0  0  0  0  0  0  0
    0.0808   -0.4691    0.2785 C   0  0  0  0  0  0  0  0  0  0  0  0
   -1.3164   -0.3480    0.8562 C   0  0  0  0  0  0  0  0  0  0  0  0
   -1.7416    0.9980    0.3725 C   0  0  0  0  0  0  0  0  0  0  0  0
   -1.2921    0.9318   -0.9728 O   0  0  0  0  0  0  0  0  0  0  0  0
   -0.6850   -0.2877   -1.0355 C   0  0  0  0  0  0  0  0  0  0  0  0
   -1.7241   -1.1999   -0.3549 C   0  0  0  0  0  0  0  0  0  0  0  0
    2.9689   -0.1958   -1.8488 H   0  0  0  0  0  0  0  0  0  0  0  0
    2.7077   -0.6817    0.3289 H   0  0  0  0  0  0  0  0  0  0  0  0
    3.1108    1.0493    0.2351 H   0  0  0  0  0  0  0  0  0  0  0  0
    1.1890    0.6344    1.7231 H   0  0  0  0  0  0  0  0  0  0  0  0
    0.6476    1.6012    0.3012 H   0  0  0  0  0  0  0  0  0  0  0  0
    0.4840   -1.4916    0.3295 H   0  0  0  0  0  0  0  0  0  0  0  0
   -1.5280   -0.7031    1.8182 H   0  0  0  0  0  0  0  0  0  0  0  0
   -2.8348    1.0643    0.4222 H   0  0  0  0  0  0  0  0  0  0  0  0
   -1.2920    1.8524    0.8665 H   0  0  0  0  0  0  0  0  0  0  0  0
   -0.2342   -0.6532   -1.9244 H   0  0  0  0  0  0  0  0  0  0  0  0
   -1.3362   -2.2160   -0.3516 H   0  0  0  0  0  0  0  0  0  0  0  0
   -2.7517   -1.0230   -0.6704 H   0  0  0  0  0  0  0  0  0  0  0  0
  1  2  1  0
  2  3  1  0
  3  4  1  0
  4  5  1  0
  5  6  1  0
  6  7  1  0
  7  8  1  0
  8  9  1  0
  8  4  1  0
  9  5  1  0
  1 10  1  0
  2 11  1  0
  2 12  1  0
  3 13  1  0
  3 14  1  0
  4 15  1  0
  5 16  1  0
  6 17  1  0
  6 18  1  0
  8 19  1  0
  9 20  1  0
  9 21  1  0
M  END
