
     RDKit          3D

 21 21  0  0  0  0  0  0  0  0999 V2000
   -2.2721   -1.1313   -0.0308 O   0  0  0  0  0  0  0  0  0  0  0  0
   -2.3018    0.2560   -0.1411 C   0  0  0  0  0  0  0  0  0  0  0  0
   -1.3078    0.9645    0.7115 C   0  0  0  0  0  0  0  0  0  0  0  0
    0.1156    0.6579    0.4708 C   0  0  0  0  0  0  0  0  0  0  0  0
    0.3495   -0.8353    0.7053 C   0  0  0  0  0  0  0  0  0  0  0  0
    1.8492   -0.9402    0.8346 C   0  0  0  0  0  0  0  0  0  0  0  0
    2.5136   -0.3107   -0.1355 C   0  0  0  0  0  0  0  0  0  0  0  0
    1.7200    0.3839   -1.1758 C   0  0  0  0  0  0  0  0  0  0  0  0
    0.6331    1.0784   -0.7241 O   0  0  0  0  0  0  0  0  0  0  0  0
   -2.9220   -1.4723   -0.7040 H   0  0  0  0  0  0  0  0  0  0  0  0
   -2.2129    0.5311   -1.2193 H   0  0  0  0  0  0  0  0  0  0  0  0
   -3.3273    0.5676    0.1807 H   0  0  0  0  0  0  0  0  0  0  0  0
   -1.5657    0.7616    1.7872 H   0  0  0  0  0  0  0  0  0  0  0  0
   -1.5006    2.0580    0.5908 H   0  0  0  0  0  0  0  0  0  0  0  0
    0.7042    1.1712    1.2902 H   0  0  0  0  0  0  0  0  0  0  0  0
   -0.1675   -1.1007    1.6403 H   0  0  0  0  0  0  0  0  0  0  0  0
    0.0166   -1.4555   -0.1408 H   0  0  0  0  0  0  0  0  0  0  0  0
    2.2903   -1.4736    1.6366 H   0  0  0  0  0  0  0  0  0  0  0  0
    3.5897   -0.3236   -0.1371 H   0  0  0  0  0  0  0  0  0  0  0  0
    2.4393    1.0253   -1.7599 H   0  0  0  0  0  0  0  0  0  0  0  0
    1.3566   -0.4121   -1.8776 H   0  0  0  0  0  0  0  0  0  0  0  0
  1  2  1  0
  2  3  1  0
  3  4  1  0
  4  5  1  0
  5  6  1  0
  6  7  2  0
  7  8  1  0
  8  9  1  0
  9  4  1  0
  1 10  1  0
  2 11  1  0
  2 12  1  0
  3 13  1  0
  3 14  1  0
  4 15  1  0
  5 16  1  0
  5 17  1  0
  6 18  1  0
  7 19  1  0
  8 20  1  0
  8 21  1  0
M  END
