
     RDKit          3D

 20 20  0  0  0  0  0  0  0  0999 V2000
    2.3052    1.3487    0.7517 O   0  0  0  0  0  0  0  0  0  0  0  0
    2.3524    0.5769   -0.4076 C   0  0  0  0  0  0  0  0  0  0  0  0
    1.4701   -0.6249   -0.2392 C   0  0  0  0  0  0  0  0  0  0  0  0
    0.0507   -0.2741    0.0124 C   0  0  0  0  0  0  0  0  0  0  0  0
   -0.5167    0.9221    0.1041 C   0  0  0  0  0  0  0  0  0  0  0  0
   -1.9752    0.8161    0.3666 C   0  0  0  0  0  0  0  0  0  0  0  0
   -2.3087   -0.6093   -0.0304 C   0  0  0  0  0  0  0  0  0  0  0  0
   -1.0028   -1.3032    0.2109 C   0  0  0  0  0  0  0  0  0  0  0  0
    3.1994    1.4431    1.1407 H   0  0  0  0  0  0  0  0  0  0  0  0
    3.3896    0.2066   -0.5407 H   0  0  0  0  0  0  0  0  0  0  0  0
    2.1100    1.1741   -1.3083 H   0  0  0  0  0  0  0  0  0  0  0  0
    1.4953   -1.2579   -1.1426 H   0  0  0  0  0  0  0  0  0  0  0  0
    1.8308   -1.1717    0.6612 H   0  0  0  0  0  0  0  0  0  0  0  0
    0.0018    1.8529    0.0033 H   0  0  0  0  0  0  0  0  0  0  0  0
   -2.2209    0.9211    1.4351 H   0  0  0  0  0  0  0  0  0  0  0  0
   -2.5536    1.5217   -0.2385 H   0  0  0  0  0  0  0  0  0  0  0  0
   -2.6163   -0.6253   -1.0927 H   0  0  0  0  0  0  0  0  0  0  0  0
   -3.0934   -1.0552    0.6013 H   0  0  0  0  0  0  0  0  0  0  0  0
   -0.9265   -2.1329   -0.5470 H   0  0  0  0  0  0  0  0  0  0  0  0
   -0.9911   -1.7287    1.2360 H   0  0  0  0  0  0  0  0  0  0  0  0
  1  2  1  0
  2  3  1  0
  3  4  1  0
  4  5  2  0
  5  6  1  0
  6  7  1  0
  7  8  1  0
  8  4  1  0
  1  9  1  0
  2 10  1  0
  2 11  1  0
  3 12  1  0
  3 13  1  0
  5 14  1  0
  6 15  1  0
  6 16  1  0
  7 17  1  0
  7 18  1  0
  8 19  1  0
  8 20  1  0
M  END
