
     RDKit          3D

 19 20  0  0  0  0  0  0  0  0999 V2000
   -2.4592    0.4247   -0.7590 O   0  0  0  0  0  0  0  0  0  0  0  0
   -2.1458   -0.6081    0.0912 C   0  0  0  0  0  0  0  0  0  0  0  0
   -0.8316   -0.3371    0.7922 C   0  0  0  0  0  0  0  0  0  0  0  0
    0.3136   -0.1832   -0.1454 C   0  0  0  0  0  0  0  0  0  0  0  0
    0.3371    0.8748   -1.1806 C   0  0  0  0  0  0  0  0  0  0  0  0
    1.1739    1.0635    0.0629 C   0  0  0  0  0  0  0  0  0  0  0  0
    2.4774    0.6380    0.0671 O   0  0  0  0  0  0  0  0  0  0  0  0
    2.4577   -0.7305    0.1842 C   0  0  0  0  0  0  0  0  0  0  0  0
    1.2535   -1.1996   -0.2794 O   0  0  0  0  0  0  0  0  0  0  0  0
   -3.1990    1.0099   -0.4172 H   0  0  0  0  0  0  0  0  0  0  0  0
   -2.9280   -0.6912    0.8810 H   0  0  0  0  0  0  0  0  0  0  0  0
   -2.1259   -1.6075   -0.4059 H   0  0  0  0  0  0  0  0  0  0  0  0
   -0.6081   -1.1767    1.4976 H   0  0  0  0  0  0  0  0  0  0  0  0
   -0.9693    0.6164    1.3416 H   0  0  0  0  0  0  0  0  0  0  0  0
    0.9009    0.6515   -2.1134 H   0  0  0  0  0  0  0  0  0  0  0  0
   -0.4901    1.6004   -1.2790 H   0  0  0  0  0  0  0  0  0  0  0  0
    0.8706    1.7816    0.8285 H   0  0  0  0  0  0  0  0  0  0  0  0
    3.3274   -1.1164   -0.4253 H   0  0  0  0  0  0  0  0  0  0  0  0
    2.6450   -1.0103    1.2590 H   0  0  0  0  0  0  0  0  0  0  0  0
  1  2  1  0
  2  3  1  0
  3  4  1  0
  4  5  1  0
  5  6  1  0
  6  7  1  0
  7  8  1  0
  8  9  1  0
  6  4  1  0
  9  4  1  0
  1 10  1  0
  2 11  1  0
  2 12  1  0
  3 13  1  0
  3 14  1  0
  5 15  1  0
  5 16  1  0
  6 17  1  0
  8 18  1  0
  8 19  1  0
M  END
