
     RDKit          3D

 21 21  0  0  0  0  0  0  0  0999 V2000
   -3.6120    0.1905    0.3310 O   0  0  0  0  0  0  0  0  0  0  0  0
   -2.4115   -0.3520   -0.1371 C   0  0  0  0  0  0  0  0  0  0  0  0
   -1.3245    0.1077    0.7966 C   0  0  0  0  0  0  0  0  0  0  0  0
    0.0363   -0.4207    0.3898 C   0  0  0  0  0  0  0  0  0  0  0  0
    0.3532    0.0700   -0.9836 C   0  0  0  0  0  0  0  0  0  0  0  0
    1.6499   -0.1275   -1.3843 O   0  0  0  0  0  0  0  0  0  0  0  0
    2.5477   -0.2525   -0.3440 C   0  0  0  0  0  0  0  0  0  0  0  0
    2.1014    0.5068    0.8893 C   0  0  0  0  0  0  0  0  0  0  0  0
    0.9350   -0.0464    1.3566 O   0  0  0  0  0  0  0  0  0  0  0  0
   -3.4541    1.0090    0.8541 H   0  0  0  0  0  0  0  0  0  0  0  0
   -2.2626   -0.0371   -1.1749 H   0  0  0  0  0  0  0  0  0  0  0  0
   -2.4802   -1.4530   -0.0423 H   0  0  0  0  0  0  0  0  0  0  0  0
   -1.3121    1.2145    0.7637 H   0  0  0  0  0  0  0  0  0  0  0  0
   -1.6128   -0.2021    1.8223 H   0  0  0  0  0  0  0  0  0  0  0  0
   -0.0264   -1.5457    0.3418 H   0  0  0  0  0  0  0  0  0  0  0  0
   -0.3052   -0.4638   -1.7082 H   0  0  0  0  0  0  0  0  0  0  0  0
    0.0774    1.1415   -1.0362 H   0  0  0  0  0  0  0  0  0  0  0  0
    3.5794    0.0823   -0.6227 H   0  0  0  0  0  0  0  0  0  0  0  0
    2.5851   -1.3278   -0.0529 H   0  0  0  0  0  0  0  0  0  0  0  0
    2.8938    0.3073    1.6689 H   0  0  0  0  0  0  0  0  0  0  0  0
    2.0421    1.5990    0.7209 H   0  0  0  0  0  0  0  0  0  0  0  0
  1  2  1  0
  2  3  1  0
  3  4  1  0
  4  5  1  0
  5  6  1  0
  6  7  1  0
  7  8  1  0
  8  9  1  0
  9  4  1  0
  1 10  1  0
  2 11  1  0
  2 12  1  0
  3 13  1  0
  3 14  1  0
  4 15  1  0
  5 16  1  0
  5 17  1  0
  7 18  1  0
  7 19  1  0
  8 20  1  0
  8 21  1  0
M  END
