
     RDKit          3D

 21 23  0  0  0  0  0  0  0  0999 V2000
    2.5225    0.4936   -0.8733 O   0  0  0  0  0  0  0  0  0  0  0  0
    2.2989   -0.3917    0.1896 C   0  0  0  0  0  0  0  0  0  0  0  0
    0.9704   -0.0277    0.8703 C   0  0  0  0  0  0  0  0  0  0  0  0
   -0.0931   -0.1543   -0.1604 C   0  0  0  0  0  0  0  0  0  0  0  0
   -0.2483   -1.5092   -0.7659 C   0  0  0  0  0  0  0  0  0  0  0  0
   -1.3381   -0.9093    0.0297 C   0  0  0  0  0  0  0  0  0  0  0  0
   -2.1018    0.2023   -0.6569 C   0  0  0  0  0  0  0  0  0  0  0  0
   -2.0881    1.5005    0.0259 C   0  0  0  0  0  0  0  0  0  0  0  0
   -0.8616    1.0166   -0.6534 C   0  0  0  0  0  0  0  0  0  0  0  0
    3.3284    1.0406   -0.6843 H   0  0  0  0  0  0  0  0  0  0  0  0
    2.2752   -1.3962   -0.2293 H   0  0  0  0  0  0  0  0  0  0  0  0
    3.1226   -0.3295    0.9198 H   0  0  0  0  0  0  0  0  0  0  0  0
    1.0191    0.9973    1.2789 H   0  0  0  0  0  0  0  0  0  0  0  0
    0.8095   -0.7852    1.6806 H   0  0  0  0  0  0  0  0  0  0  0  0
   -0.3980   -1.5937   -1.8603 H   0  0  0  0  0  0  0  0  0  0  0  0
    0.2895   -2.3399   -0.3149 H   0  0  0  0  0  0  0  0  0  0  0  0
   -1.6399   -1.2469    1.0156 H   0  0  0  0  0  0  0  0  0  0  0  0
   -2.6485   -0.0008   -1.5823 H   0  0  0  0  0  0  0  0  0  0  0  0
   -2.0733    1.5331    1.1493 H   0  0  0  0  0  0  0  0  0  0  0  0
   -2.6316    2.3228   -0.4585 H   0  0  0  0  0  0  0  0  0  0  0  0
   -0.5137    1.5777   -1.5270 H   0  0  0  0  0  0  0  0  0  0  0  0
  1  2  1  0
  2  3  1  0
  3  4  1  0
  4  5  1  0
  5  6  1  0
  6  7  1  0
  7  8  1  0
  8  9  1  0
  6  4  1  0
  9  7  1  0
  9  4  1  0
  1 10  1  0
  2 11  1  0
  2 12  1  0
  3 13  1  0
  3 14  1  0
  5 15  1  0
  5 16  1  0
  6 17  1  0
  7 18  1  0
  8 19  1  0
  8 20  1  0
  9 21  1  0
M  END
