
     RDKit          3D

 21 22  0  0  0  0  0  0  0  0999 V2000
    3.0642    0.3751    0.4478 O   0  0  0  0  0  0  0  0  0  0  0  0
    2.3902   -0.1107   -0.6436 C   0  0  0  0  0  0  0  0  0  0  0  0
    1.1883   -0.9436   -0.3037 C   0  0  0  0  0  0  0  0  0  0  0  0
    0.1566   -0.1407    0.5058 C   0  0  0  0  0  0  0  0  0  0  0  0
    0.7602    0.3016    1.7121 O   0  0  0  0  0  0  0  0  0  0  0  0
   -1.1771   -0.6200    0.4755 C   0  0  0  0  0  0  0  0  0  0  0  0
   -2.2647   -0.3273   -0.5682 C   0  0  0  0  0  0  0  0  0  0  0  0
   -2.1981    1.0331    0.1671 C   0  0  0  0  0  0  0  0  0  0  0  0
   -0.7145    0.7775   -0.1257 C   0  0  0  0  0  0  0  0  0  0  0  0
    2.8281    1.3109    0.6762 H   0  0  0  0  0  0  0  0  0  0  0  0
    2.1124    0.7469   -1.2901 H   0  0  0  0  0  0  0  0  0  0  0  0
    3.0600   -0.7496   -1.2544 H   0  0  0  0  0  0  0  0  0  0  0  0
    1.4692   -1.8469    0.2449 H   0  0  0  0  0  0  0  0  0  0  0  0
    0.6983   -1.2456   -1.2466 H   0  0  0  0  0  0  0  0  0  0  0  0
    1.1403   -0.5058    2.1418 H   0  0  0  0  0  0  0  0  0  0  0  0
   -1.7031   -0.5243    1.4814 H   0  0  0  0  0  0  0  0  0  0  0  0
   -1.9144   -0.2401   -1.5946 H   0  0  0  0  0  0  0  0  0  0  0  0
   -3.1868   -0.8737   -0.3816 H   0  0  0  0  0  0  0  0  0  0  0  0
   -2.4702    0.9599    1.2283 H   0  0  0  0  0  0  0  0  0  0  0  0
   -2.6127    1.8495   -0.4124 H   0  0  0  0  0  0  0  0  0  0  0  0
   -0.6265    0.7739   -1.2598 H   0  0  0  0  0  0  0  0  0  0  0  0
  1  2  1  0
  2  3  1  0
  3  4  1  0
  4  5  1  0
  4  6  1  0
  6  7  1  0
  7  8  1  0
  8  9  1  0
  9  4  1  0
  9  6  1  0
  1 10  1  0
  2 11  1  0
  2 12  1  0
  3 13  1  0
  3 14  1  0
  5 15  1  0
  6 16  1  0
  7 17  1  0
  7 18  1  0
  8 19  1  0
  8 20  1  0
  9 21  1  0
M  END
