
     RDKit          3D

 20 20  0  0  0  0  0  0  0  0999 V2000
    2.4331    0.2913    1.3000 O   0  0  0  0  0  0  0  0  0  0  0  0
    1.9715   -0.7939    0.5994 C   0  0  0  0  0  0  0  0  0  0  0  0
    0.9892   -0.3906   -0.4779 C   0  0  0  0  0  0  0  0  0  0  0  0
   -0.2158    0.3066    0.0708 C   0  0  0  0  0  0  0  0  0  0  0  0
    0.0614    1.4761    0.7612 O   0  0  0  0  0  0  0  0  0  0  0  0
   -1.2755    0.4489   -1.0111 C   0  0  0  0  0  0  0  0  0  0  0  0
   -2.3082    0.1756    0.0922 C   0  0  0  0  0  0  0  0  0  0  0  0
   -1.1831   -0.5413    0.8401 C   0  0  0  0  0  0  0  0  0  0  0  0
    2.8383    0.9927    0.7546 H   0  0  0  0  0  0  0  0  0  0  0  0
    1.5893   -1.5453    1.2870 H   0  0  0  0  0  0  0  0  0  0  0  0
    2.8501   -1.2460    0.0671 H   0  0  0  0  0  0  0  0  0  0  0  0
    0.6880   -1.2632   -1.0726 H   0  0  0  0  0  0  0  0  0  0  0  0
    1.5304    0.3541   -1.1213 H   0  0  0  0  0  0  0  0  0  0  0  0
    0.7135    2.0545    0.3113 H   0  0  0  0  0  0  0  0  0  0  0  0
   -1.3506    1.4289   -1.4783 H   0  0  0  0  0  0  0  0  0  0  0  0
   -1.2266   -0.4139   -1.7120 H   0  0  0  0  0  0  0  0  0  0  0  0
   -3.1165   -0.4666   -0.2584 H   0  0  0  0  0  0  0  0  0  0  0  0
   -2.5851    1.1554    0.5277 H   0  0  0  0  0  0  0  0  0  0  0  0
   -1.2018   -0.4029    1.9287 H   0  0  0  0  0  0  0  0  0  0  0  0
   -1.2017   -1.6202    0.5938 H   0  0  0  0  0  0  0  0  0  0  0  0
  1  2  1  0
  2  3  1  0
  3  4  1  0
  4  5  1  0
  4  6  1  0
  6  7  1  0
  7  8  1  0
  8  4  1  0
  1  9  1  0
  2 10  1  0
  2 11  1  0
  3 12  1  0
  3 13  1  0
  5 14  1  0
  6 15  1  0
  6 16  1  0
  7 17  1  0
  7 18  1  0
  8 19  1  0
  8 20  1  0
M  END
