
     RDKit          3D

 21 22  0  0  0  0  0  0  0  0999 V2000
    3.5541   -0.7893   -0.3975 O   0  0  0  0  0  0  0  0  0  0  0  0
    2.4072    0.0016   -0.5637 C   0  0  0  0  0  0  0  0  0  0  0  0
    1.4705   -0.3559    0.5692 C   0  0  0  0  0  0  0  0  0  0  0  0
    0.1858    0.4064    0.5392 C   0  0  0  0  0  0  0  0  0  0  0  0
   -0.7503    0.3368   -0.6007 C   0  0  0  0  0  0  0  0  0  0  0  0
   -2.0350    1.1179   -0.4394 C   0  0  0  0  0  0  0  0  0  0  0  0
   -2.4067    0.2249    0.7197 C   0  0  0  0  0  0  0  0  0  0  0  0
   -1.0554   -0.4282    0.6692 C   0  0  0  0  0  0  0  0  0  0  0  0
   -0.9741   -1.8056    0.6700 O   0  0  0  0  0  0  0  0  0  0  0  0
    4.2348   -0.3271    0.1767 H   0  0  0  0  0  0  0  0  0  0  0  0
    1.9556   -0.2640   -1.5422 H   0  0  0  0  0  0  0  0  0  0  0  0
    2.7121    1.0468   -0.5744 H   0  0  0  0  0  0  0  0  0  0  0  0
    1.2975   -1.4559    0.4982 H   0  0  0  0  0  0  0  0  0  0  0  0
    1.9814   -0.1763    1.5352 H   0  0  0  0  0  0  0  0  0  0  0  0
    0.1812    1.3218    1.1661 H   0  0  0  0  0  0  0  0  0  0  0  0
   -0.5389   -0.1993   -1.5245 H   0  0  0  0  0  0  0  0  0  0  0  0
   -1.8730    2.1684   -0.0624 H   0  0  0  0  0  0  0  0  0  0  0  0
   -2.7332    1.0737   -1.2929 H   0  0  0  0  0  0  0  0  0  0  0  0
   -3.1993   -0.5033    0.4565 H   0  0  0  0  0  0  0  0  0  0  0  0
   -2.6236    0.7748    1.6785 H   0  0  0  0  0  0  0  0  0  0  0  0
   -1.7908   -2.1682    0.2418 H   0  0  0  0  0  0  0  0  0  0  0  0
  1  2  1  0
  2  3  1  0
  3  4  1  0
  4  5  1  0
  5  6  1  0
  6  7  1  0
  7  8  1  0
  8  9  1  0
  8  4  1  0
  8  5  1  0
  1 10  1  0
  2 11  1  0
  2 12  1  0
  3 13  1  0
  3 14  1  0
  4 15  1  0
  5 16  1  0
  6 17  1  0
  6 18  1  0
  7 19  1  0
  7 20  1  0
  9 21  1  0
M  END
