
     RDKit          3D

 21 21  0  0  0  0  0  0  0  0999 V2000
    3.1920   -0.8073    0.4440 O   0  0  0  0  0  0  0  0  0  0  0  0
    2.8675    0.1327   -0.5206 C   0  0  0  0  0  0  0  0  0  0  0  0
    1.4787   -0.2311   -1.0430 C   0  0  0  0  0  0  0  0  0  0  0  0
    0.5486   -0.1713    0.1560 C   0  0  0  0  0  0  0  0  0  0  0  0
   -0.8759   -0.5156   -0.2312 C   0  0  0  0  0  0  0  0  0  0  0  0
   -1.8569   -0.4789    0.8984 C   0  0  0  0  0  0  0  0  0  0  0  0
   -2.9220   -1.3750    0.9223 O   0  0  0  0  0  0  0  0  0  0  0  0
   -1.8553    0.5900   -0.1522 C   0  0  0  0  0  0  0  0  0  0  0  0
   -2.9881    0.5884   -0.9925 O   0  0  0  0  0  0  0  0  0  0  0  0
    3.1112   -0.4358    1.3625 H   0  0  0  0  0  0  0  0  0  0  0  0
    3.6081    0.2227   -1.3231 H   0  0  0  0  0  0  0  0  0  0  0  0
    2.7300    1.1165    0.0041 H   0  0  0  0  0  0  0  0  0  0  0  0
    1.2176    0.5624   -1.7714 H   0  0  0  0  0  0  0  0  0  0  0  0
    1.4519   -1.1921   -1.5497 H   0  0  0  0  0  0  0  0  0  0  0  0
    0.8739   -0.8953    0.9316 H   0  0  0  0  0  0  0  0  0  0  0  0
    0.6200    0.8309    0.6258 H   0  0  0  0  0  0  0  0  0  0  0  0
   -0.9652   -1.3034   -1.0175 H   0  0  0  0  0  0  0  0  0  0  0  0
   -1.4765   -0.2404    1.9237 H   0  0  0  0  0  0  0  0  0  0  0  0
   -3.4989   -1.1053    1.6875 H   0  0  0  0  0  0  0  0  0  0  0  0
   -1.5026    1.6181    0.1063 H   0  0  0  0  0  0  0  0  0  0  0  0
   -3.7581    0.2335   -0.4609 H   0  0  0  0  0  0  0  0  0  0  0  0
  1  2  1  0
  2  3  1  0
  3  4  1  0
  4  5  1  0
  5  6  1  0
  6  7  1  0
  6  8  1  0
  8  9  1  0
  8  5  1  0
  1 10  1  0
  2 11  1  0
  2 12  1  0
  3 13  1  0
  3 14  1  0
  4 15  1  0
  4 16  1  0
  5 17  1  0
  6 18  1  0
  7 19  1  0
  8 20  1  0
  9 21  1  0
M  END
