
     RDKit          3D

 19 20  0  0  0  0  0  0  0  0999 V2000
   -2.4007   -0.9528   -0.3250 O   0  0  0  0  0  0  0  0  0  0  0  0
   -2.0473    0.3575   -0.1029 C   0  0  0  0  0  0  0  0  0  0  0  0
   -0.7177    0.5312    0.5675 C   0  0  0  0  0  0  0  0  0  0  0  0
    0.4286   -0.0348   -0.1929 C   0  0  0  0  0  0  0  0  0  0  0  0
    0.4851   -1.5000   -0.5308 C   0  0  0  0  0  0  0  0  0  0  0  0
    1.8203   -1.5233   -0.1534 O   0  0  0  0  0  0  0  0  0  0  0  0
    1.7570   -0.2430    0.3867 C   0  0  0  0  0  0  0  0  0  0  0  0
    1.5334    0.8577   -0.5759 C   0  0  0  0  0  0  0  0  0  0  0  0
    2.0032    0.7185   -1.8931 O   0  0  0  0  0  0  0  0  0  0  0  0
   -2.9881   -1.2398    0.4229 H   0  0  0  0  0  0  0  0  0  0  0  0
   -2.8134    0.8474    0.5385 H   0  0  0  0  0  0  0  0  0  0  0  0
   -2.0627    0.9102   -1.0651 H   0  0  0  0  0  0  0  0  0  0  0  0
   -0.5523    1.6220    0.6930 H   0  0  0  0  0  0  0  0  0  0  0  0
   -0.7585    0.1142    1.5990 H   0  0  0  0  0  0  0  0  0  0  0  0
   -0.1404   -2.1376    0.1169 H   0  0  0  0  0  0  0  0  0  0  0  0
    0.3232   -1.6383   -1.6243 H   0  0  0  0  0  0  0  0  0  0  0  0
    2.0186   -0.0885    1.4334 H   0  0  0  0  0  0  0  0  0  0  0  0
    1.5334    1.8774   -0.1371 H   0  0  0  0  0  0  0  0  0  0  0  0
    2.5783    1.5220   -2.0643 H   0  0  0  0  0  0  0  0  0  0  0  0
  1  2  1  0
  2  3  1  0
  3  4  1  0
  4  5  1  0
  5  6  1  0
  6  7  1  0
  7  8  1  0
  8  9  1  0
  7  4  1  0
  8  4  1  0
  1 10  1  0
  2 11  1  0
  2 12  1  0
  3 13  1  0
  3 14  1  0
  5 15  1  0
  5 16  1  0
  7 17  1  0
  8 18  1  0
  9 19  1  0
M  END
