
     RDKit          3D

 23 23  0  0  0  0  0  0  0  0999 V2000
    3.1543    1.2108    0.4186 O   0  0  0  0  0  0  0  0  0  0  0  0
    3.0823   -0.1788    0.2591 C   0  0  0  0  0  0  0  0  0  0  0  0
    1.7474   -0.4696   -0.3891 C   0  0  0  0  0  0  0  0  0  0  0  0
    0.5946    0.0147    0.4732 C   0  0  0  0  0  0  0  0  0  0  0  0
    0.5796   -0.5861    1.7102 O   0  0  0  0  0  0  0  0  0  0  0  0
   -0.6767   -0.3241   -0.2458 C   0  0  0  0  0  0  0  0  0  0  0  0
   -1.9118    0.1043    0.5049 C   0  0  0  0  0  0  0  0  0  0  0  0
   -3.2029   -0.2397   -0.2251 C   0  0  0  0  0  0  0  0  0  0  0  0
   -2.7933    1.1785    0.0038 C   0  0  0  0  0  0  0  0  0  0  0  0
    4.0632    1.5463    0.2860 H   0  0  0  0  0  0  0  0  0  0  0  0
    3.8684   -0.4602   -0.4693 H   0  0  0  0  0  0  0  0  0  0  0  0
    3.2457   -0.7261    1.1944 H   0  0  0  0  0  0  0  0  0  0  0  0
    1.7260    0.1015   -1.3404 H   0  0  0  0  0  0  0  0  0  0  0  0
    1.5856   -1.5433   -0.5873 H   0  0  0  0  0  0  0  0  0  0  0  0
    0.6224    1.1212    0.5898 H   0  0  0  0  0  0  0  0  0  0  0  0
    0.4484   -1.5709    1.6020 H   0  0  0  0  0  0  0  0  0  0  0  0
   -0.6281    0.1042   -1.2668 H   0  0  0  0  0  0  0  0  0  0  0  0
   -0.7218   -1.4364   -0.3409 H   0  0  0  0  0  0  0  0  0  0  0  0
   -1.8547   -0.0695    1.5900 H   0  0  0  0  0  0  0  0  0  0  0  0
   -3.1466   -0.5853   -1.2762 H   0  0  0  0  0  0  0  0  0  0  0  0
   -3.9947   -0.7207    0.3582 H   0  0  0  0  0  0  0  0  0  0  0  0
   -3.3575    1.7682    0.7525 H   0  0  0  0  0  0  0  0  0  0  0  0
   -2.4297    1.7609   -0.8692 H   0  0  0  0  0  0  0  0  0  0  0  0
  1  2  1  0
  2  3  1  0
  3  4  1  0
  4  5  1  0
  4  6  1  0
  6  7  1  0
  7  8  1  0
  8  9  1  0
  9  7  1  0
  1 10  1  0
  2 11  1  0
  2 12  1  0
  3 13  1  0
  3 14  1  0
  4 15  1  0
  5 16  1  0
  6 17  1  0
  6 18  1  0
  7 19  1  0
  8 20  1  0
  8 21  1  0
  9 22  1  0
  9 23  1  0
M  END
