
     RDKit          3D

 23 23  0  0  0  0  0  0  0  0999 V2000
    3.4172   -0.2528   -1.0645 O   0  0  0  0  0  0  0  0  0  0  0  0
    3.0167    0.0232    0.2304 C   0  0  0  0  0  0  0  0  0  0  0  0
    1.5278   -0.3083    0.4042 C   0  0  0  0  0  0  0  0  0  0  0  0
    0.7843    0.5589   -0.5824 C   0  0  0  0  0  0  0  0  0  0  0  0
   -0.7000    0.3541   -0.5396 C   0  0  0  0  0  0  0  0  0  0  0  0
   -1.3116    0.6586    0.7980 C   0  0  0  0  0  0  0  0  0  0  0  0
   -2.7079    0.0522    0.5888 C   0  0  0  0  0  0  0  0  0  0  0  0
   -2.4781   -0.8695   -0.5783 C   0  0  0  0  0  0  0  0  0  0  0  0
   -1.0847   -0.9630   -0.7427 O   0  0  0  0  0  0  0  0  0  0  0  0
    3.6530   -1.2147   -1.1339 H   0  0  0  0  0  0  0  0  0  0  0  0
    3.5946   -0.5499    0.9539 H   0  0  0  0  0  0  0  0  0  0  0  0
    3.1747    1.1321    0.3751 H   0  0  0  0  0  0  0  0  0  0  0  0
    1.2181   -0.1455    1.4518 H   0  0  0  0  0  0  0  0  0  0  0  0
    1.4068   -1.3733    0.1441 H   0  0  0  0  0  0  0  0  0  0  0  0
    0.9961    1.6215   -0.4600 H   0  0  0  0  0  0  0  0  0  0  0  0
    1.1244    0.2526   -1.5953 H   0  0  0  0  0  0  0  0  0  0  0  0
   -1.1543    1.0386   -1.2766 H   0  0  0  0  0  0  0  0  0  0  0  0
   -0.8646    0.0537    1.6220 H   0  0  0  0  0  0  0  0  0  0  0  0
   -1.3763    1.7319    1.0280 H   0  0  0  0  0  0  0  0  0  0  0  0
   -3.0897   -0.4307    1.4837 H   0  0  0  0  0  0  0  0  0  0  0  0
   -3.3342    0.8930    0.2219 H   0  0  0  0  0  0  0  0  0  0  0  0
   -2.8519   -0.4252   -1.5449 H   0  0  0  0  0  0  0  0  0  0  0  0
   -2.9602   -1.8375   -0.4607 H   0  0  0  0  0  0  0  0  0  0  0  0
  1  2  1  0
  2  3  1  0
  3  4  1  0
  4  5  1  0
  5  6  1  0
  6  7  1  0
  7  8  1  0
  8  9  1  0
  9  5  1  0
  1 10  1  0
  2 11  1  0
  2 12  1  0
  3 13  1  0
  3 14  1  0
  4 15  1  0
  4 16  1  0
  5 17  1  0
  6 18  1  0
  6 19  1  0
  7 20  1  0
  7 21  1  0
  8 22  1  0
  8 23  1  0
M  END
