
     RDKit          3D

 23 24  0  0  0  0  0  0  0  0999 V2000
    2.5964   -0.6603   -0.6073 O   0  0  0  0  0  0  0  0  0  0  0  0
    2.4610    0.5552    0.0123 C   0  0  0  0  0  0  0  0  0  0  0  0
    1.2727    0.5806    0.9526 C   0  0  0  0  0  0  0  0  0  0  0  0
   -0.0188    0.3083    0.2234 C   0  0  0  0  0  0  0  0  0  0  0  0
   -0.1388   -1.0104   -0.4883 C   0  0  0  0  0  0  0  0  0  0  0  0
   -1.5833   -1.3660   -0.5740 C   0  0  0  0  0  0  0  0  0  0  0  0
   -2.3362   -0.4045    0.2905 C   0  0  0  0  0  0  0  0  0  0  0  0
   -1.3231    0.5783    0.8197 C   0  0  0  0  0  0  0  0  0  0  0  0
   -0.7619    1.4960   -0.2613 C   0  0  0  0  0  0  0  0  0  0  0  0
    3.3173   -1.2012   -0.2463 H   0  0  0  0  0  0  0  0  0  0  0  0
    3.3659    0.7370    0.6508 H   0  0  0  0  0  0  0  0  0  0  0  0
    2.3835    1.3937   -0.7143 H   0  0  0  0  0  0  0  0  0  0  0  0
    1.2126    1.5873    1.4132 H   0  0  0  0  0  0  0  0  0  0  0  0
    1.4695   -0.1905    1.7279 H   0  0  0  0  0  0  0  0  0  0  0  0
    0.3807   -1.0514   -1.4463 H   0  0  0  0  0  0  0  0  0  0  0  0
    0.3503   -1.7773    0.1817 H   0  0  0  0  0  0  0  0  0  0  0  0
   -1.9126   -1.3320   -1.6519 H   0  0  0  0  0  0  0  0  0  0  0  0
   -1.8070   -2.4099   -0.2490 H   0  0  0  0  0  0  0  0  0  0  0  0
   -3.0132    0.1828   -0.3956 H   0  0  0  0  0  0  0  0  0  0  0  0
   -2.9219   -0.8785    1.0960 H   0  0  0  0  0  0  0  0  0  0  0  0
   -1.3646    0.9246    1.8530 H   0  0  0  0  0  0  0  0  0  0  0  0
   -0.4425    2.4850    0.0995 H   0  0  0  0  0  0  0  0  0  0  0  0
   -1.1860    1.4533   -1.2761 H   0  0  0  0  0  0  0  0  0  0  0  0
  1  2  1  0
  2  3  1  0
  3  4  1  0
  4  5  1  0
  5  6  1  0
  6  7  1  0
  7  8  1  0
  8  9  1  0
  8  4  1  0
  9  4  1  0
  1 10  1  0
  2 11  1  0
  2 12  1  0
  3 13  1  0
  3 14  1  0
  5 15  1  0
  5 16  1  0
  6 17  1  0
  6 18  1  0
  7 19  1  0
  7 20  1  0
  8 21  1  0
  9 22  1  0
  9 23  1  0
M  END
