
     RDKit          3D

 21 21  0  0  0  0  0  0  0  0999 V2000
    2.5742    0.1685    1.2530 O   0  0  0  0  0  0  0  0  0  0  0  0
    2.2901   -0.3393   -0.0360 C   0  0  0  0  0  0  0  0  0  0  0  0
    1.4345    0.6223   -0.7988 C   0  0  0  0  0  0  0  0  0  0  0  0
    0.1318    0.9841   -0.2267 C   0  0  0  0  0  0  0  0  0  0  0  0
   -0.9231   -0.0221   -0.0370 C   0  0  0  0  0  0  0  0  0  0  0  0
   -2.2124    0.5963    0.6049 C   0  0  0  0  0  0  0  0  0  0  0  0
   -3.1132   -0.4258    0.8930 O   0  0  0  0  0  0  0  0  0  0  0  0
   -0.8840   -1.4461   -0.0358 C   0  0  0  0  0  0  0  0  0  0  0  0
   -1.2314   -0.7236   -1.2540 O   0  0  0  0  0  0  0  0  0  0  0  0
    3.1441   -0.5457    1.6794 H   0  0  0  0  0  0  0  0  0  0  0  0
    3.3254   -0.2833   -0.5357 H   0  0  0  0  0  0  0  0  0  0  0  0
    2.0289   -1.3809   -0.0602 H   0  0  0  0  0  0  0  0  0  0  0  0
    1.3777    0.2624   -1.8606 H   0  0  0  0  0  0  0  0  0  0  0  0
    2.0446    1.5831   -0.8409 H   0  0  0  0  0  0  0  0  0  0  0  0
   -0.3174    1.8409   -0.8415 H   0  0  0  0  0  0  0  0  0  0  0  0
    0.3379    1.5100    0.7715 H   0  0  0  0  0  0  0  0  0  0  0  0
   -1.9172    1.0647    1.5459 H   0  0  0  0  0  0  0  0  0  0  0  0
   -2.6025    1.2779   -0.1616 H   0  0  0  0  0  0  0  0  0  0  0  0
   -3.6109   -0.6118    0.0669 H   0  0  0  0  0  0  0  0  0  0  0  0
   -0.0667   -2.1454   -0.2003 H   0  0  0  0  0  0  0  0  0  0  0  0
   -1.8105   -1.9863    0.3424 H   0  0  0  0  0  0  0  0  0  0  0  0
  1  2  1  0
  2  3  1  0
  3  4  1  0
  4  5  1  0
  5  6  1  0
  6  7  1  0
  5  8  1  0
  8  9  1  0
  9  5  1  0
  1 10  1  0
  2 11  1  0
  2 12  1  0
  3 13  1  0
  3 14  1  0
  4 15  1  0
  4 16  1  0
  6 17  1  0
  6 18  1  0
  7 19  1  0
  8 20  1  0
  8 21  1  0
M  END
