
     RDKit          3D

 21 22  0  0  0  0  0  0  0  0999 V2000
   -3.1490   -1.1019    0.3608 O   0  0  0  0  0  0  0  0  0  0  0  0
   -1.8609   -0.8020   -0.0730 C   0  0  0  0  0  0  0  0  0  0  0  0
   -1.3335    0.3591    0.7537 C   0  0  0  0  0  0  0  0  0  0  0  0
    0.0714    0.7121    0.3056 C   0  0  0  0  0  0  0  0  0  0  0  0
    1.0663   -0.4054    0.4437 C   0  0  0  0  0  0  0  0  0  0  0  0
    2.4840   -0.2182    0.0448 C   0  0  0  0  0  0  0  0  0  0  0  0
    1.5511   -1.0249   -0.8314 C   0  0  0  0  0  0  0  0  0  0  0  0
    0.2105    1.7277   -0.6997 C   0  0  0  0  0  0  0  0  0  0  0  0
    0.5811    1.9613    0.6492 O   0  0  0  0  0  0  0  0  0  0  0  0
   -3.3800   -0.5675    1.1632 H   0  0  0  0  0  0  0  0  0  0  0  0
   -1.1994   -1.6976    0.0982 H   0  0  0  0  0  0  0  0  0  0  0  0
   -1.8753   -0.5679   -1.1491 H   0  0  0  0  0  0  0  0  0  0  0  0
   -2.0059    1.2220    0.5239 H   0  0  0  0  0  0  0  0  0  0  0  0
   -1.3869    0.0945    1.8158 H   0  0  0  0  0  0  0  0  0  0  0  0
    0.8448   -1.0876    1.3099 H   0  0  0  0  0  0  0  0  0  0  0  0
    3.2222   -0.7399    0.6858 H   0  0  0  0  0  0  0  0  0  0  0  0
    2.8132    0.7766   -0.3448 H   0  0  0  0  0  0  0  0  0  0  0  0
    1.3108   -0.5923   -1.8034 H   0  0  0  0  0  0  0  0  0  0  0  0
    1.6312   -2.1293   -0.8108 H   0  0  0  0  0  0  0  0  0  0  0  0
   -0.6421    2.3434   -1.0066 H   0  0  0  0  0  0  0  0  0  0  0  0
    1.0465    1.7377   -1.4357 H   0  0  0  0  0  0  0  0  0  0  0  0
  1  2  1  0
  2  3  1  0
  3  4  1  0
  4  5  1  0
  5  6  1  0
  6  7  1  0
  4  8  1  0
  8  9  1  0
  9  4  1  0
  7  5  1  0
  1 10  1  0
  2 11  1  0
  2 12  1  0
  3 13  1  0
  3 14  1  0
  5 15  1  0
  6 16  1  0
  6 17  1  0
  7 18  1  0
  7 19  1  0
  8 20  1  0
  8 21  1  0
M  END
