
     RDKit          3D

 19 21  0  0  0  0  0  0  0  0999 V2000
    2.0048    1.1999   -0.1913 O   0  0  0  0  0  0  0  0  0  0  0  0
    2.0284   -0.1885   -0.3288 C   0  0  0  0  0  0  0  0  0  0  0  0
    0.8827   -0.8481    0.3948 C   0  0  0  0  0  0  0  0  0  0  0  0
   -0.4540   -0.4478   -0.0481 C   0  0  0  0  0  0  0  0  0  0  0  0
   -1.6232   -1.0531    0.6160 C   0  0  0  0  0  0  0  0  0  0  0  0
   -1.3766    0.3943    0.7914 C   0  0  0  0  0  0  0  0  0  0  0  0
   -1.4902    1.2928   -0.4356 C   0  0  0  0  0  0  0  0  0  0  0  0
   -2.0729    0.6890   -1.5079 O   0  0  0  0  0  0  0  0  0  0  0  0
   -0.7100    0.4787   -1.1898 C   0  0  0  0  0  0  0  0  0  0  0  0
    2.1743    1.4818    0.7408 H   0  0  0  0  0  0  0  0  0  0  0  0
    3.0021   -0.5239    0.0838 H   0  0  0  0  0  0  0  0  0  0  0  0
    2.0038   -0.3937   -1.4177 H   0  0  0  0  0  0  0  0  0  0  0  0
    0.9835   -1.9467    0.2042 H   0  0  0  0  0  0  0  0  0  0  0  0
    1.0593   -0.7306    1.4915 H   0  0  0  0  0  0  0  0  0  0  0  0
   -1.4572   -1.6965    1.4934 H   0  0  0  0  0  0  0  0  0  0  0  0
   -2.4131   -1.4397   -0.0668 H   0  0  0  0  0  0  0  0  0  0  0  0
   -1.0638    0.8081    1.7435 H   0  0  0  0  0  0  0  0  0  0  0  0
   -1.4093    2.3707   -0.3201 H   0  0  0  0  0  0  0  0  0  0  0  0
   -0.0686    0.5533   -2.0533 H   0  0  0  0  0  0  0  0  0  0  0  0
  1  2  1  0
  2  3  1  0
  3  4  1  0
  4  5  1  0
  5  6  1  0
  6  7  1  0
  7  8  1  0
  8  9  1  0
  6  4  1  0
  9  7  1  0
  9  4  1  0
  1 10  1  0
  2 11  1  0
  2 12  1  0
  3 13  1  0
  3 14  1  0
  5 15  1  0
  5 16  1  0
  6 17  1  0
  7 18  1  0
  9 19  1  0
M  END
