
     RDKit          3D

 18 19  0  0  0  0  0  0  0  0999 V2000
    2.9678    0.2753   -0.5345 O   0  0  0  0  0  0  0  0  0  0  0  0
    1.8039    0.0572    0.1534 C   0  0  0  0  0  0  0  0  0  0  0  0
    0.5630    0.4766   -0.6503 C   0  0  0  0  0  0  0  0  0  0  0  0
   -0.6082    0.1681    0.2514 C   0  0  0  0  0  0  0  0  0  0  0  0
   -0.7151   -1.2722    0.6288 C   0  0  0  0  0  0  0  0  0  0  0  0
   -2.0977   -1.2206    0.6008 O   0  0  0  0  0  0  0  0  0  0  0  0
   -1.9492   -0.1074   -0.2593 C   0  0  0  0  0  0  0  0  0  0  0  0
   -1.6590    1.1587    0.4286 C   0  0  0  0  0  0  0  0  0  0  0  0
    3.6620   -0.3374   -0.1374 H   0  0  0  0  0  0  0  0  0  0  0  0
    1.7275   -0.9698    0.5110 H   0  0  0  0  0  0  0  0  0  0  0  0
    1.7654    0.7219    1.0642 H   0  0  0  0  0  0  0  0  0  0  0  0
    0.6566    1.5243   -0.9232 H   0  0  0  0  0  0  0  0  0  0  0  0
    0.4539   -0.1224   -1.5552 H   0  0  0  0  0  0  0  0  0  0  0  0
   -0.3715   -1.9277   -0.2262 H   0  0  0  0  0  0  0  0  0  0  0  0
   -0.2364   -1.5981    1.5463 H   0  0  0  0  0  0  0  0  0  0  0  0
   -2.1611   -0.2112   -1.3172 H   0  0  0  0  0  0  0  0  0  0  0  0
   -2.1887    1.3258    1.3914 H   0  0  0  0  0  0  0  0  0  0  0  0
   -1.6130    2.0588   -0.2399 H   0  0  0  0  0  0  0  0  0  0  0  0
  1  2  1  0
  2  3  1  0
  3  4  1  0
  4  5  1  0
  5  6  1  0
  6  7  1  0
  7  8  1  0
  7  4  1  0
  8  4  1  0
  1  9  1  0
  2 10  1  0
  2 11  1  0
  3 12  1  0
  3 13  1  0
  5 14  1  0
  5 15  1  0
  7 16  1  0
  8 17  1  0
  8 18  1  0
M  END
