
     RDKit          3D

 21 21  0  0  0  0  0  0  0  0999 V2000
    3.1060    1.0182    0.6831 O   0  0  0  0  0  0  0  0  0  0  0  0
    2.1060    0.0556    0.5580 C   0  0  0  0  0  0  0  0  0  0  0  0
    1.0244    0.4973   -0.4064 C   0  0  0  0  0  0  0  0  0  0  0  0
   -0.0133   -0.5976   -0.4832 C   0  0  0  0  0  0  0  0  0  0  0  0
    0.5206   -1.8010   -0.9314 O   0  0  0  0  0  0  0  0  0  0  0  0
   -1.2965   -0.1869   -1.1774 C   0  0  0  0  0  0  0  0  0  0  0  0
   -1.8561    0.1902    0.1513 C   0  0  0  0  0  0  0  0  0  0  0  0
   -1.7216    1.5479    0.4286 O   0  0  0  0  0  0  0  0  0  0  0  0
   -0.8081   -0.6914    0.8021 C   0  0  0  0  0  0  0  0  0  0  0  0
    2.7799    1.9383    0.5173 H   0  0  0  0  0  0  0  0  0  0  0  0
    2.6127   -0.8760    0.2300 H   0  0  0  0  0  0  0  0  0  0  0  0
    1.6860   -0.0907    1.5727 H   0  0  0  0  0  0  0  0  0  0  0  0
    0.5776    1.4172    0.0303 H   0  0  0  0  0  0  0  0  0  0  0  0
    1.4098    0.7634   -1.3897 H   0  0  0  0  0  0  0  0  0  0  0  0
   -0.1189   -2.5440   -0.7936 H   0  0  0  0  0  0  0  0  0  0  0  0
   -1.1961    0.6165   -1.9265 H   0  0  0  0  0  0  0  0  0  0  0  0
   -1.8078   -1.0897   -1.5934 H   0  0  0  0  0  0  0  0  0  0  0  0
   -2.8718   -0.2052    0.3804 H   0  0  0  0  0  0  0  0  0  0  0  0
   -2.6101    2.0117    0.4062 H   0  0  0  0  0  0  0  0  0  0  0  0
   -0.3441   -0.2419    1.6910 H   0  0  0  0  0  0  0  0  0  0  0  0
   -1.1788   -1.7319    0.9299 H   0  0  0  0  0  0  0  0  0  0  0  0
  1  2  1  0
  2  3  1  0
  3  4  1  0
  4  5  1  0
  4  6  1  0
  6  7  1  0
  7  8  1  0
  7  9  1  0
  9  4  1  0
  1 10  1  0
  2 11  1  0
  2 12  1  0
  3 13  1  0
  3 14  1  0
  5 15  1  0
  6 16  1  0
  6 17  1  0
  7 18  1  0
  8 19  1  0
  9 20  1  0
  9 21  1  0
M  END
