
     RDKit          3D

 21 22  0  0  0  0  0  0  0  0999 V2000
    2.7352   -0.1623   -1.0704 O   0  0  0  0  0  0  0  0  0  0  0  0
    2.2401    0.4097    0.1083 C   0  0  0  0  0  0  0  0  0  0  0  0
    0.8364    0.8710   -0.0596 C   0  0  0  0  0  0  0  0  0  0  0  0
   -0.1118   -0.2442   -0.4286 C   0  0  0  0  0  0  0  0  0  0  0  0
    0.2538   -0.8484   -1.6301 O   0  0  0  0  0  0  0  0  0  0  0  0
   -0.4677   -1.1905    0.6848 C   0  0  0  0  0  0  0  0  0  0  0  0
   -1.8519   -0.6531    0.8103 C   0  0  0  0  0  0  0  0  0  0  0  0
   -2.1636    0.7820    0.7332 C   0  0  0  0  0  0  0  0  0  0  0  0
   -1.5503    0.1856   -0.4747 C   0  0  0  0  0  0  0  0  0  0  0  0
    3.5542   -0.6621   -0.8098 H   0  0  0  0  0  0  0  0  0  0  0  0
    2.2638   -0.3161    0.9578 H   0  0  0  0  0  0  0  0  0  0  0  0
    2.8747    1.2941    0.3109 H   0  0  0  0  0  0  0  0  0  0  0  0
    0.8040    1.6323   -0.8724 H   0  0  0  0  0  0  0  0  0  0  0  0
    0.5232    1.4005    0.8616 H   0  0  0  0  0  0  0  0  0  0  0  0
    0.0789   -0.2727   -2.4083 H   0  0  0  0  0  0  0  0  0  0  0  0
   -0.4090   -2.2429    0.3054 H   0  0  0  0  0  0  0  0  0  0  0  0
    0.0880   -1.0987    1.6149 H   0  0  0  0  0  0  0  0  0  0  0  0
   -2.6687   -1.3775    0.7428 H   0  0  0  0  0  0  0  0  0  0  0  0
   -1.6044    1.5418    1.3250 H   0  0  0  0  0  0  0  0  0  0  0  0
   -3.2389    1.0406    0.6345 H   0  0  0  0  0  0  0  0  0  0  0  0
   -2.1862   -0.0892   -1.3355 H   0  0  0  0  0  0  0  0  0  0  0  0
  1  2  1  0
  2  3  1  0
  3  4  1  0
  4  5  1  0
  4  6  1  0
  6  7  1  0
  7  8  1  0
  8  9  1  0
  9  4  1  0
  9  7  1  0
  1 10  1  0
  2 11  1  0
  2 12  1  0
  3 13  1  0
  3 14  1  0
  5 15  1  0
  6 16  1  0
  6 17  1  0
  7 18  1  0
  8 19  1  0
  8 20  1  0
  9 21  1  0
M  END
