
     RDKit          3D

 23 23  0  0  0  0  0  0  0  0999 V2000
    4.1688   -0.7029   -0.3592 O   0  0  0  0  0  0  0  0  0  0  0  0
    3.0226   -0.0082    0.0189 C   0  0  0  0  0  0  0  0  0  0  0  0
    1.7635   -0.8108   -0.2609 C   0  0  0  0  0  0  0  0  0  0  0  0
    0.5896    0.0449    0.1905 C   0  0  0  0  0  0  0  0  0  0  0  0
   -0.7276   -0.6740   -0.0485 C   0  0  0  0  0  0  0  0  0  0  0  0
   -1.8248    0.2655    0.4357 C   0  0  0  0  0  0  0  0  0  0  0  0
   -1.7766    0.6286    1.7795 O   0  0  0  0  0  0  0  0  0  0  0  0
   -2.3369    1.2907   -0.5111 C   0  0  0  0  0  0  0  0  0  0  0  0
   -3.1914    0.1397   -0.1398 C   0  0  0  0  0  0  0  0  0  0  0  0
    4.9016   -0.4113    0.2479 H   0  0  0  0  0  0  0  0  0  0  0  0
    3.0499    0.2356    1.1114 H   0  0  0  0  0  0  0  0  0  0  0  0
    2.9191    0.9552   -0.5303 H   0  0  0  0  0  0  0  0  0  0  0  0
    1.7831   -1.7782    0.2655 H   0  0  0  0  0  0  0  0  0  0  0  0
    1.7215   -1.0249   -1.3537 H   0  0  0  0  0  0  0  0  0  0  0  0
    0.6873    0.2137    1.2644 H   0  0  0  0  0  0  0  0  0  0  0  0
    0.6230    0.9748   -0.4192 H   0  0  0  0  0  0  0  0  0  0  0  0
   -0.8086   -0.8534   -1.1344 H   0  0  0  0  0  0  0  0  0  0  0  0
   -0.7376   -1.6316    0.4821 H   0  0  0  0  0  0  0  0  0  0  0  0
   -1.7726   -0.2072    2.3322 H   0  0  0  0  0  0  0  0  0  0  0  0
   -1.9279    1.3239   -1.5492 H   0  0  0  0  0  0  0  0  0  0  0  0
   -2.6499    2.3057   -0.1324 H   0  0  0  0  0  0  0  0  0  0  0  0
   -3.3938   -0.6189   -0.9378 H   0  0  0  0  0  0  0  0  0  0  0  0
   -4.0823    0.3427    0.4907 H   0  0  0  0  0  0  0  0  0  0  0  0
  1  2  1  0
  2  3  1  0
  3  4  1  0
  4  5  1  0
  5  6  1  0
  6  7  1  0
  6  8  1  0
  8  9  1  0
  9  6  1  0
  1 10  1  0
  2 11  1  0
  2 12  1  0
  3 13  1  0
  3 14  1  0
  4 15  1  0
  4 16  1  0
  5 17  1  0
  5 18  1  0
  7 19  1  0
  8 20  1  0
  8 21  1  0
  9 22  1  0
  9 23  1  0
M  END
