
     RDKit          3D

 21 21  0  0  0  0  0  0  0  0999 V2000
    2.8959    0.8694    1.4383 O   0  0  0  0  0  0  0  0  0  0  0  0
    2.9565    0.3604    0.1387 C   0  0  0  0  0  0  0  0  0  0  0  0
    1.5725    0.3964   -0.4565 C   0  0  0  0  0  0  0  0  0  0  0  0
    0.6066   -0.4377    0.3575 C   0  0  0  0  0  0  0  0  0  0  0  0
   -0.7751   -0.4228   -0.2065 C   0  0  0  0  0  0  0  0  0  0  0  0
   -1.5708   -1.2288    0.6341 O   0  0  0  0  0  0  0  0  0  0  0  0
   -2.8444   -0.7835    0.2631 C   0  0  0  0  0  0  0  0  0  0  0  0
   -2.6335    0.7149    0.2970 C   0  0  0  0  0  0  0  0  0  0  0  0
   -1.3302    0.8486   -0.1377 O   0  0  0  0  0  0  0  0  0  0  0  0
    3.2988    0.2607    2.0966 H   0  0  0  0  0  0  0  0  0  0  0  0
    3.3629   -0.6877    0.1405 H   0  0  0  0  0  0  0  0  0  0  0  0
    3.6378    0.9882   -0.4407 H   0  0  0  0  0  0  0  0  0  0  0  0
    1.6412    0.0741   -1.4962 H   0  0  0  0  0  0  0  0  0  0  0  0
    1.2480    1.4605   -0.4624 H   0  0  0  0  0  0  0  0  0  0  0  0
    0.5513   -0.1024    1.4087 H   0  0  0  0  0  0  0  0  0  0  0  0
    1.0184   -1.4676    0.3792 H   0  0  0  0  0  0  0  0  0  0  0  0
   -0.8382   -0.7875   -1.2444 H   0  0  0  0  0  0  0  0  0  0  0  0
   -3.0129   -1.1592   -0.7656 H   0  0  0  0  0  0  0  0  0  0  0  0
   -3.6232   -1.0842    0.9724 H   0  0  0  0  0  0  0  0  0  0  0  0
   -3.3835    1.1578   -0.3838 H   0  0  0  0  0  0  0  0  0  0  0  0
   -2.7783    1.0304    1.3534 H   0  0  0  0  0  0  0  0  0  0  0  0
  1  2  1  0
  2  3  1  0
  3  4  1  0
  4  5  1  0
  5  6  1  0
  6  7  1  0
  7  8  1  0
  8  9  1  0
  9  5  1  0
  1 10  1  0
  2 11  1  0
  2 12  1  0
  3 13  1  0
  3 14  1  0
  4 15  1  0
  4 16  1  0
  5 17  1  0
  7 18  1  0
  7 19  1  0
  8 20  1  0
  8 21  1  0
M  END
