
     RDKit          3D

 18 19  0  0  0  0  0  0  0  0999 V2000
    2.9203   -0.5625    0.3675 O   0  0  0  0  0  0  0  0  0  0  0  0
    1.5350   -0.3012    0.4766 C   0  0  0  0  0  0  0  0  0  0  0  0
    1.0997    0.1939   -0.8634 C   0  0  0  0  0  0  0  0  0  0  0  0
   -0.3875    0.5252   -0.9340 C   0  0  0  0  0  0  0  0  0  0  0  0
   -1.3278   -0.5320   -0.6694 C   0  0  0  0  0  0  0  0  0  0  0  0
   -1.9519   -0.8408    0.7019 C   0  0  0  0  0  0  0  0  0  0  0  0
   -2.4783    0.4681    0.5165 O   0  0  0  0  0  0  0  0  0  0  0  0
   -1.1342    0.7364    0.2542 C   0  0  0  0  0  0  0  0  0  0  0  0
    3.4508    0.2604    0.4902 H   0  0  0  0  0  0  0  0  0  0  0  0
    1.0584   -1.2192    0.8163 H   0  0  0  0  0  0  0  0  0  0  0  0
    1.4576    0.4625    1.2770 H   0  0  0  0  0  0  0  0  0  0  0  0
    1.7243    1.1048   -1.0861 H   0  0  0  0  0  0  0  0  0  0  0  0
    1.3855   -0.5509   -1.6254 H   0  0  0  0  0  0  0  0  0  0  0  0
   -0.5413    1.2891   -1.7625 H   0  0  0  0  0  0  0  0  0  0  0  0
   -2.2180   -0.4668   -1.3727 H   0  0  0  0  0  0  0  0  0  0  0  0
   -2.7747   -1.5541    0.6820 H   0  0  0  0  0  0  0  0  0  0  0  0
   -1.2517   -0.9623    1.5196 H   0  0  0  0  0  0  0  0  0  0  0  0
   -0.5661    0.5208    1.2118 H   0  0  0  0  0  0  0  0  0  0  0  0
  1  2  1  0
  2  3  1  0
  3  4  1  0
  4  5  1  0
  5  6  1  0
  6  7  1  0
  7  8  1  0
  8  4  1  0
  8  5  1  0
  1  9  1  0
  2 10  1  0
  2 11  1  0
  3 12  1  0
  3 13  1  0
  4 14  1  0
  5 15  1  0
  6 16  1  0
  6 17  1  0
  8 18  1  0
M  END
