
     RDKit          3D

 21 21  0  0  0  0  0  0  0  0999 V2000
    2.8528   -1.0676   -0.0830 O   0  0  0  0  0  0  0  0  0  0  0  0
    2.4658    0.1248   -0.7182 C   0  0  0  0  0  0  0  0  0  0  0  0
    1.2082    0.6459   -0.0616 C   0  0  0  0  0  0  0  0  0  0  0  0
    0.0665   -0.3356   -0.1573 C   0  0  0  0  0  0  0  0  0  0  0  0
    0.4031   -1.5479    0.4742 O   0  0  0  0  0  0  0  0  0  0  0  0
   -1.1162    0.2241    0.5693 C   0  0  0  0  0  0  0  0  0  0  0  0
   -2.3484   -0.6394    0.5687 C   0  0  0  0  0  0  0  0  0  0  0  0
   -2.8739    0.0399   -0.5173 O   0  0  0  0  0  0  0  0  0  0  0  0
   -2.0326    1.1102   -0.2114 C   0  0  0  0  0  0  0  0  0  0  0  0
    3.3015   -0.8396    0.7688 H   0  0  0  0  0  0  0  0  0  0  0  0
    3.2588    0.8886   -0.5811 H   0  0  0  0  0  0  0  0  0  0  0  0
    2.3482   -0.0552   -1.7880 H   0  0  0  0  0  0  0  0  0  0  0  0
    1.4406    0.9131    0.9865 H   0  0  0  0  0  0  0  0  0  0  0  0
    0.9145    1.5582   -0.6187 H   0  0  0  0  0  0  0  0  0  0  0  0
   -0.1259   -0.5497   -1.2194 H   0  0  0  0  0  0  0  0  0  0  0  0
    0.3764   -2.3062   -0.1807 H   0  0  0  0  0  0  0  0  0  0  0  0
   -0.8354    0.5720    1.5785 H   0  0  0  0  0  0  0  0  0  0  0  0
   -2.9629   -0.4546    1.4831 H   0  0  0  0  0  0  0  0  0  0  0  0
   -2.1822   -1.7072    0.3311 H   0  0  0  0  0  0  0  0  0  0  0  0
   -1.5969    1.6049   -1.1090 H   0  0  0  0  0  0  0  0  0  0  0  0
   -2.5620    1.8214    0.4854 H   0  0  0  0  0  0  0  0  0  0  0  0
  1  2  1  0
  2  3  1  0
  3  4  1  0
  4  5  1  0
  4  6  1  0
  6  7  1  0
  7  8  1  0
  8  9  1  0
  9  6  1  0
  1 10  1  0
  2 11  1  0
  2 12  1  0
  3 13  1  0
  3 14  1  0
  4 15  1  0
  5 16  1  0
  6 17  1  0
  7 18  1  0
  7 19  1  0
  9 20  1  0
  9 21  1  0
M  END
