
     RDKit          3D

 23 24  0  0  0  0  0  0  0  0999 V2000
    3.6918    0.0043   -0.0784 O   0  0  0  0  0  0  0  0  0  0  0  0
    2.3870   -0.1828    0.3826 C   0  0  0  0  0  0  0  0  0  0  0  0
    1.4320   -0.2622   -0.7958 C   0  0  0  0  0  0  0  0  0  0  0  0
    0.0456   -0.4641   -0.2225 C   0  0  0  0  0  0  0  0  0  0  0  0
   -0.9921   -0.5566   -1.3398 C   0  0  0  0  0  0  0  0  0  0  0  0
   -2.2734   -0.3951   -0.5485 C   0  0  0  0  0  0  0  0  0  0  0  0
   -1.9438    0.8224    0.2929 C   0  0  0  0  0  0  0  0  0  0  0  0
   -1.3665    0.6469    1.6558 C   0  0  0  0  0  0  0  0  0  0  0  0
   -0.4312    0.7337    0.5432 C   0  0  0  0  0  0  0  0  0  0  0  0
    4.2727    0.0767    0.7193 H   0  0  0  0  0  0  0  0  0  0  0  0
    2.1337    0.6815    1.0281 H   0  0  0  0  0  0  0  0  0  0  0  0
    2.3375   -1.1326    0.9676 H   0  0  0  0  0  0  0  0  0  0  0  0
    1.6654   -1.1338   -1.4100 H   0  0  0  0  0  0  0  0  0  0  0  0
    1.5021    0.6773   -1.3598 H   0  0  0  0  0  0  0  0  0  0  0  0
    0.0133   -1.3923    0.3516 H   0  0  0  0  0  0  0  0  0  0  0  0
   -0.9488   -1.5442   -1.8447 H   0  0  0  0  0  0  0  0  0  0  0  0
   -0.9156    0.2959   -2.0287 H   0  0  0  0  0  0  0  0  0  0  0  0
   -3.1520   -0.2112   -1.1963 H   0  0  0  0  0  0  0  0  0  0  0  0
   -2.3873   -1.2931    0.0851 H   0  0  0  0  0  0  0  0  0  0  0  0
   -2.2522    1.7887   -0.1010 H   0  0  0  0  0  0  0  0  0  0  0  0
   -1.5306   -0.3216    2.1639 H   0  0  0  0  0  0  0  0  0  0  0  0
   -1.4636    1.5292    2.3090 H   0  0  0  0  0  0  0  0  0  0  0  0
    0.1758    1.6332    0.4264 H   0  0  0  0  0  0  0  0  0  0  0  0
  1  2  1  0
  2  3  1  0
  3  4  1  0
  4  5  1  0
  5  6  1  0
  6  7  1  0
  7  8  1  0
  8  9  1  0
  9  4  1  0
  9  7  1  0
  1 10  1  0
  2 11  1  0
  2 12  1  0
  3 13  1  0
  3 14  1  0
  4 15  1  0
  5 16  1  0
  5 17  1  0
  6 18  1  0
  6 19  1  0
  7 20  1  0
  8 21  1  0
  8 22  1  0
  9 23  1  0
M  END
