
     RDKit          3D

 23 23  0  0  0  0  0  0  0  0999 V2000
    3.8279   -0.1323   -0.5699 O   0  0  0  0  0  0  0  0  0  0  0  0
    2.8116   -0.8170    0.1268 C   0  0  0  0  0  0  0  0  0  0  0  0
    1.5528   -0.0142   -0.0665 C   0  0  0  0  0  0  0  0  0  0  0  0
    0.3563   -0.6085    0.6181 C   0  0  0  0  0  0  0  0  0  0  0  0
   -0.8102    0.3412    0.3074 C   0  0  0  0  0  0  0  0  0  0  0  0
   -0.5995    1.6342    0.7699 O   0  0  0  0  0  0  0  0  0  0  0  0
   -1.1780    0.3336   -1.1459 C   0  0  0  0  0  0  0  0  0  0  0  0
   -2.6282    0.1757   -0.7344 C   0  0  0  0  0  0  0  0  0  0  0  0
   -2.1519   -0.2455    0.6319 C   0  0  0  0  0  0  0  0  0  0  0  0
    3.8228    0.8140   -0.2299 H   0  0  0  0  0  0  0  0  0  0  0  0
    2.7370   -1.8405   -0.2688 H   0  0  0  0  0  0  0  0  0  0  0  0
    3.1138   -0.7809    1.1936 H   0  0  0  0  0  0  0  0  0  0  0  0
    1.3017    0.1136   -1.1359 H   0  0  0  0  0  0  0  0  0  0  0  0
    1.7248    0.9906    0.3761 H   0  0  0  0  0  0  0  0  0  0  0  0
    0.1299   -1.5972    0.1849 H   0  0  0  0  0  0  0  0  0  0  0  0
    0.4678   -0.6854    1.7112 H   0  0  0  0  0  0  0  0  0  0  0  0
   -1.4509    2.0940    1.0001 H   0  0  0  0  0  0  0  0  0  0  0  0
   -1.0326    1.3166   -1.6776 H   0  0  0  0  0  0  0  0  0  0  0  0
   -0.8229   -0.5505   -1.7249 H   0  0  0  0  0  0  0  0  0  0  0  0
   -3.1703   -0.5733   -1.3142 H   0  0  0  0  0  0  0  0  0  0  0  0
   -3.1886    1.1361   -0.6532 H   0  0  0  0  0  0  0  0  0  0  0  0
   -2.1181   -1.3566    0.7292 H   0  0  0  0  0  0  0  0  0  0  0  0
   -2.6953    0.2523    1.4696 H   0  0  0  0  0  0  0  0  0  0  0  0
  1  2  1  0
  2  3  1  0
  3  4  1  0
  4  5  1  0
  5  6  1  0
  5  7  1  0
  7  8  1  0
  8  9  1  0
  9  5  1  0
  1 10  1  0
  2 11  1  0
  2 12  1  0
  3 13  1  0
  3 14  1  0
  4 15  1  0
  4 16  1  0
  6 17  1  0
  7 18  1  0
  7 19  1  0
  8 20  1  0
  8 21  1  0
  9 22  1  0
  9 23  1  0
M  END
