
     RDKit          3D

 19 20  0  0  0  0  0  0  0  0999 V2000
    3.5276    0.1300   -0.2222 O   0  0  0  0  0  0  0  0  0  0  0  0
    2.2623    0.1404    0.3615 C   0  0  0  0  0  0  0  0  0  0  0  0
    1.2544   -0.1195   -0.7370 C   0  0  0  0  0  0  0  0  0  0  0  0
   -0.1372   -0.1320   -0.2348 C   0  0  0  0  0  0  0  0  0  0  0  0
   -0.9614   -1.1621   -0.3228 C   0  0  0  0  0  0  0  0  0  0  0  0
   -2.2709   -0.8447    0.2740 C   0  0  0  0  0  0  0  0  0  0  0  0
   -2.1303    0.6117    0.6474 C   0  0  0  0  0  0  0  0  0  0  0  0
   -1.8936    1.4855   -0.4991 O   0  0  0  0  0  0  0  0  0  0  0  0
   -0.8280    0.9915    0.4390 C   0  0  0  0  0  0  0  0  0  0  0  0
    3.4761    0.4928   -1.1438 H   0  0  0  0  0  0  0  0  0  0  0  0
    2.2493   -0.7234    1.0885 H   0  0  0  0  0  0  0  0  0  0  0  0
    2.0559    1.0694    0.9233 H   0  0  0  0  0  0  0  0  0  0  0  0
    1.5420   -1.0372   -1.2549 H   0  0  0  0  0  0  0  0  0  0  0  0
    1.3487    0.7296   -1.4638 H   0  0  0  0  0  0  0  0  0  0  0  0
   -0.7587   -2.1440   -0.7668 H   0  0  0  0  0  0  0  0  0  0  0  0
   -3.1095   -0.9137   -0.4461 H   0  0  0  0  0  0  0  0  0  0  0  0
   -2.4315   -1.4244    1.1892 H   0  0  0  0  0  0  0  0  0  0  0  0
   -2.9482    1.0390    1.2507 H   0  0  0  0  0  0  0  0  0  0  0  0
   -0.2469    1.8111    0.8633 H   0  0  0  0  0  0  0  0  0  0  0  0
  1  2  1  0
  2  3  1  0
  3  4  1  0
  4  5  2  0
  5  6  1  0
  6  7  1  0
  7  8  1  0
  8  9  1  0
  9  4  1  0
  9  7  1  0
  1 10  1  0
  2 11  1  0
  2 12  1  0
  3 13  1  0
  3 14  1  0
  5 15  1  0
  6 16  1  0
  6 17  1  0
  7 18  1  0
  9 19  1  0
M  END
