
     RDKit          3D

 22 22  0  0  0  0  0  0  0  0999 V2000
    2.3201   -1.0895    0.7262 O   0  0  0  0  0  0  0  0  0  0  0  0
    2.4541    0.2397    0.3100 C   0  0  0  0  0  0  0  0  0  0  0  0
    1.1601    0.9892    0.4371 C   0  0  0  0  0  0  0  0  0  0  0  0
    0.0584    0.3888   -0.3861 C   0  0  0  0  0  0  0  0  0  0  0  0
   -0.2624   -1.0241   -0.0218 C   0  0  0  0  0  0  0  0  0  0  0  0
   -1.6722   -1.1926   -0.5606 C   0  0  0  0  0  0  0  0  0  0  0  0
   -2.2626    0.1895   -0.6640 C   0  0  0  0  0  0  0  0  0  0  0  0
   -1.2456    1.0911    0.0088 C   0  0  0  0  0  0  0  0  0  0  0  0
    3.1946   -1.5251    0.4825 H   0  0  0  0  0  0  0  0  0  0  0  0
    3.2256    0.7281    0.9091 H   0  0  0  0  0  0  0  0  0  0  0  0
    2.7616    0.2168   -0.7568 H   0  0  0  0  0  0  0  0  0  0  0  0
    1.3332    2.0210    0.0720 H   0  0  0  0  0  0  0  0  0  0  0  0
    0.8280    1.0498    1.4797 H   0  0  0  0  0  0  0  0  0  0  0  0
    0.1895    0.4804   -1.4599 H   0  0  0  0  0  0  0  0  0  0  0  0
    0.3955   -1.7730   -0.4725 H   0  0  0  0  0  0  0  0  0  0  0  0
   -0.3292   -1.1670    1.0748 H   0  0  0  0  0  0  0  0  0  0  0  0
   -1.6916   -1.6330   -1.5727 H   0  0  0  0  0  0  0  0  0  0  0  0
   -2.2837   -1.8628    0.0854 H   0  0  0  0  0  0  0  0  0  0  0  0
   -3.2331    0.2125   -0.1211 H   0  0  0  0  0  0  0  0  0  0  0  0
   -2.3522    0.5392   -1.7123 H   0  0  0  0  0  0  0  0  0  0  0  0
   -1.3044    0.9966    1.1155 H   0  0  0  0  0  0  0  0  0  0  0  0
   -1.2839    2.1245   -0.3299 H   0  0  0  0  0  0  0  0  0  0  0  0
  1  2  1  0
  2  3  1  0
  3  4  1  0
  4  5  1  0
  5  6  1  0
  6  7  1  0
  7  8  1  0
  8  4  1  0
  1  9  1  0
  2 10  1  0
  2 11  1  0
  3 12  1  0
  3 13  1  0
  4 14  1  0
  5 15  1  0
  5 16  1  0
  6 17  1  0
  6 18  1  0
  7 19  1  0
  7 20  1  0
  8 21  1  0
  8 22  1  0
M  END
