
     RDKit          3D

 19 19  0  0  0  0  0  0  0  0999 V2000
    3.0503   -0.0054   -0.8878 O   0  0  0  0  0  0  0  0  0  0  0  0
    3.0087   -0.1164    0.5076 C   0  0  0  0  0  0  0  0  0  0  0  0
    1.9316   -1.1227    0.8553 C   0  0  0  0  0  0  0  0  0  0  0  0
    0.6706   -0.5827    0.3075 C   0  0  0  0  0  0  0  0  0  0  0  0
   -0.3705   -0.1597   -0.1403 C   0  0  0  0  0  0  0  0  0  0  0  0
   -1.6398    0.3616   -0.6633 C   0  0  0  0  0  0  0  0  0  0  0  0
   -1.4940    1.1684   -1.7761 O   0  0  0  0  0  0  0  0  0  0  0  0
   -2.8659   -0.4386   -0.4301 C   0  0  0  0  0  0  0  0  0  0  0  0
   -2.6771    0.8359    0.3762 C   0  0  0  0  0  0  0  0  0  0  0  0
    3.9282    0.3412   -1.1521 H   0  0  0  0  0  0  0  0  0  0  0  0
    4.0026   -0.3986    0.9169 H   0  0  0  0  0  0  0  0  0  0  0  0
    2.6735    0.8598    0.9362 H   0  0  0  0  0  0  0  0  0  0  0  0
    1.8946   -1.2008    1.9611 H   0  0  0  0  0  0  0  0  0  0  0  0
    2.1107   -2.1162    0.4348 H   0  0  0  0  0  0  0  0  0  0  0  0
   -2.1982    1.8776   -1.8239 H   0  0  0  0  0  0  0  0  0  0  0  0
   -2.7191   -1.3908    0.1305 H   0  0  0  0  0  0  0  0  0  0  0  0
   -3.7344   -0.3833   -1.1136 H   0  0  0  0  0  0  0  0  0  0  0  0
   -3.2547    1.7307    0.1271 H   0  0  0  0  0  0  0  0  0  0  0  0
   -2.3170    0.7400    1.4338 H   0  0  0  0  0  0  0  0  0  0  0  0
  1  2  1  0
  2  3  1  0
  3  4  1  0
  4  5  3  0
  5  6  1  0
  6  7  1  0
  6  8  1  0
  8  9  1  0
  9  6  1  0
  1 10  1  0
  2 11  1  0
  2 12  1  0
  3 13  1  0
  3 14  1  0
  7 15  1  0
  8 16  1  0
  8 17  1  0
  9 18  1  0
  9 19  1  0
M  END
