
     RDKit          3D

 22 22  0  0  0  0  0  0  0  0999 V2000
    3.1591    0.6494    0.5521 O   0  0  0  0  0  0  0  0  0  0  0  0
    2.9007    0.1768   -0.7239 C   0  0  0  0  0  0  0  0  0  0  0  0
    1.3899    0.1411   -0.9984 C   0  0  0  0  0  0  0  0  0  0  0  0
    0.7854   -0.7627    0.0087 C   0  0  0  0  0  0  0  0  0  0  0  0
   -0.6925   -0.9377   -0.0838 C   0  0  0  0  0  0  0  0  0  0  0  0
   -1.4946    0.2970    0.0663 C   0  0  0  0  0  0  0  0  0  0  0  0
   -3.0139    0.0469   -0.0394 C   0  0  0  0  0  0  0  0  0  0  0  0
   -2.3862    0.5775    1.1917 C   0  0  0  0  0  0  0  0  0  0  0  0
    3.1087    1.6401    0.5201 H   0  0  0  0  0  0  0  0  0  0  0  0
    3.3321   -0.8427   -0.7841 H   0  0  0  0  0  0  0  0  0  0  0  0
    3.4277    0.8194   -1.4442 H   0  0  0  0  0  0  0  0  0  0  0  0
    1.2126   -0.1420   -2.0438 H   0  0  0  0  0  0  0  0  0  0  0  0
    1.0063    1.1736   -0.8119 H   0  0  0  0  0  0  0  0  0  0  0  0
    1.2364   -1.7879   -0.1461 H   0  0  0  0  0  0  0  0  0  0  0  0
    1.1200   -0.4553    1.0191 H   0  0  0  0  0  0  0  0  0  0  0  0
   -1.0012   -1.4632   -1.0075 H   0  0  0  0  0  0  0  0  0  0  0  0
   -0.9843   -1.6352    0.7550 H   0  0  0  0  0  0  0  0  0  0  0  0
   -1.1556    1.1788   -0.5489 H   0  0  0  0  0  0  0  0  0  0  0  0
   -3.5881    0.6962   -0.7311 H   0  0  0  0  0  0  0  0  0  0  0  0
   -3.3766   -0.9880   -0.0160 H   0  0  0  0  0  0  0  0  0  0  0  0
   -2.6164    1.6512    1.4086 H   0  0  0  0  0  0  0  0  0  0  0  0
   -2.3694   -0.0333    2.1118 H   0  0  0  0  0  0  0  0  0  0  0  0
  1  2  1  0
  2  3  1  0
  3  4  1  0
  4  5  1  0
  5  6  1  0
  6  7  1  0
  7  8  1  0
  8  6  1  0
  1  9  1  0
  2 10  1  0
  2 11  1  0
  3 12  1  0
  3 13  1  0
  4 14  1  0
  4 15  1  0
  5 16  1  0
  5 17  1  0
  6 18  1  0
  7 19  1  0
  7 20  1  0
  8 21  1  0
  8 22  1  0
M  END
