
     RDKit          3D

 17 17  0  0  0  0  0  0  0  0999 V2000
    1.7945   -0.7782    1.1808 O   0  0  0  0  0  0  0  0  0  0  0  0
    1.8524    0.0244    0.0466 C   0  0  0  0  0  0  0  0  0  0  0  0
    0.5454    0.7349   -0.1135 C   0  0  0  0  0  0  0  0  0  0  0  0
   -0.6171   -0.1915   -0.2689 C   0  0  0  0  0  0  0  0  0  0  0  0
   -0.5048   -1.0303   -1.3912 O   0  0  0  0  0  0  0  0  0  0  0  0
   -1.9799    0.5061   -0.0694 C   0  0  0  0  0  0  0  0  0  0  0  0
   -1.4937   -0.5978    0.8192 C   0  0  0  0  0  0  0  0  0  0  0  0
    2.6756   -1.0732    1.4942 H   0  0  0  0  0  0  0  0  0  0  0  0
    2.1703   -0.5485   -0.8429 H   0  0  0  0  0  0  0  0  0  0  0  0
    2.6355    0.7967    0.2509 H   0  0  0  0  0  0  0  0  0  0  0  0
    0.6148    1.3703   -1.0459 H   0  0  0  0  0  0  0  0  0  0  0  0
    0.4365    1.4548    0.7187 H   0  0  0  0  0  0  0  0  0  0  0  0
   -0.0588   -0.5250   -2.1317 H   0  0  0  0  0  0  0  0  0  0  0  0
   -2.7094    0.3079   -0.8755 H   0  0  0  0  0  0  0  0  0  0  0  0
   -1.9794    1.5017    0.4025 H   0  0  0  0  0  0  0  0  0  0  0  0
   -1.3237   -0.3899    1.8809 H   0  0  0  0  0  0  0  0  0  0  0  0
   -2.0582   -1.5622    0.6626 H   0  0  0  0  0  0  0  0  0  0  0  0
  1  2  1  0
  2  3  1  0
  3  4  1  0
  4  5  1  0
  4  6  1  0
  6  7  1  0
  7  4  1  0
  1  8  1  0
  2  9  1  0
  2 10  1  0
  3 11  1  0
  3 12  1  0
  5 13  1  0
  6 14  1  0
  6 15  1  0
  7 16  1  0
  7 17  1  0
M  END
