
     RDKit          3D

 23 23  0  0  0  0  0  0  0  0999 V2000
    4.0882    0.1245    0.1846 O   0  0  0  0  0  0  0  0  0  0  0  0
    2.7473    0.3377    0.5216 C   0  0  0  0  0  0  0  0  0  0  0  0
    1.9537   -0.6978   -0.2444 C   0  0  0  0  0  0  0  0  0  0  0  0
    0.4732   -0.5862    0.0248 C   0  0  0  0  0  0  0  0  0  0  0  0
   -0.0965    0.7412   -0.3565 C   0  0  0  0  0  0  0  0  0  0  0  0
   -1.5600    0.7457   -0.0481 C   0  0  0  0  0  0  0  0  0  0  0  0
   -2.4165   -0.2637   -0.7271 C   0  0  0  0  0  0  0  0  0  0  0  0
   -3.1729   -0.0836    0.5973 C   0  0  0  0  0  0  0  0  0  0  0  0
   -1.9041    0.1422    1.1803 O   0  0  0  0  0  0  0  0  0  0  0  0
    4.1836   -0.3999   -0.6536 H   0  0  0  0  0  0  0  0  0  0  0  0
    2.5958    0.1505    1.5871 H   0  0  0  0  0  0  0  0  0  0  0  0
    2.4724    1.3688    0.2421 H   0  0  0  0  0  0  0  0  0  0  0  0
    2.1987   -0.7074   -1.3219 H   0  0  0  0  0  0  0  0  0  0  0  0
    2.2698   -1.6900    0.1540 H   0  0  0  0  0  0  0  0  0  0  0  0
   -0.0075   -1.3564   -0.6442 H   0  0  0  0  0  0  0  0  0  0  0  0
    0.3004   -0.7652    1.0841 H   0  0  0  0  0  0  0  0  0  0  0  0
    0.4155    1.5326    0.2292 H   0  0  0  0  0  0  0  0  0  0  0  0
    0.0053    0.9537   -1.4509 H   0  0  0  0  0  0  0  0  0  0  0  0
   -2.0312    1.7479   -0.1017 H   0  0  0  0  0  0  0  0  0  0  0  0
   -3.0734    0.1046   -1.5402 H   0  0  0  0  0  0  0  0  0  0  0  0
   -2.0276   -1.2845   -0.8567 H   0  0  0  0  0  0  0  0  0  0  0  0
   -3.7284    0.8653    0.6012 H   0  0  0  0  0  0  0  0  0  0  0  0
   -3.6859   -0.9800    0.9565 H   0  0  0  0  0  0  0  0  0  0  0  0
  1  2  1  0
  2  3  1  0
  3  4  1  0
  4  5  1  0
  5  6  1  0
  6  7  1  0
  7  8  1  0
  8  9  1  0
  9  6  1  0
  1 10  1  0
  2 11  1  0
  2 12  1  0
  3 13  1  0
  3 14  1  0
  4 15  1  0
  4 16  1  0
  5 17  1  0
  5 18  1  0
  6 19  1  0
  7 20  1  0
  7 21  1  0
  8 22  1  0
  8 23  1  0
M  END
