
     RDKit          3D

 21 21  0  0  0  0  0  0  0  0999 V2000
    3.8568   -0.3651    0.0769 O   0  0  0  0  0  0  0  0  0  0  0  0
    2.6147   -0.2441   -0.5713 C   0  0  0  0  0  0  0  0  0  0  0  0
    1.5583   -0.3872    0.4901 C   0  0  0  0  0  0  0  0  0  0  0  0
    0.1600   -0.2813   -0.0414 C   0  0  0  0  0  0  0  0  0  0  0  0
   -0.1251    0.9081   -0.6543 O   0  0  0  0  0  0  0  0  0  0  0  0
   -1.4005    1.3736   -0.4965 C   0  0  0  0  0  0  0  0  0  0  0  0
   -2.4372    0.3535   -0.2149 C   0  0  0  0  0  0  0  0  0  0  0  0
   -1.9819   -0.7778    0.6591 C   0  0  0  0  0  0  0  0  0  0  0  0
   -0.6810   -0.5119    1.0644 O   0  0  0  0  0  0  0  0  0  0  0  0
    3.7528    0.1473    0.9354 H   0  0  0  0  0  0  0  0  0  0  0  0
    2.6144    0.7341   -1.0600 H   0  0  0  0  0  0  0  0  0  0  0  0
    2.5823   -1.1000   -1.2939 H   0  0  0  0  0  0  0  0  0  0  0  0
    1.6764   -1.3936    0.9359 H   0  0  0  0  0  0  0  0  0  0  0  0
    1.7281    0.4081    1.2374 H   0  0  0  0  0  0  0  0  0  0  0  0
    0.0136   -1.0991   -0.7960 H   0  0  0  0  0  0  0  0  0  0  0  0
   -1.6961    1.9016   -1.4509 H   0  0  0  0  0  0  0  0  0  0  0  0
   -1.4296    2.1953    0.2777 H   0  0  0  0  0  0  0  0  0  0  0  0
   -3.2808    0.8622    0.3286 H   0  0  0  0  0  0  0  0  0  0  0  0
   -2.8893   -0.0653   -1.1447 H   0  0  0  0  0  0  0  0  0  0  0  0
   -2.5859   -0.8855    1.5826 H   0  0  0  0  0  0  0  0  0  0  0  0
   -2.0501   -1.7729    0.1359 H   0  0  0  0  0  0  0  0  0  0  0  0
  1  2  1  0
  2  3  1  0
  3  4  1  0
  4  5  1  0
  5  6  1  0
  6  7  1  0
  7  8  1  0
  8  9  1  0
  9  4  1  0
  1 10  1  0
  2 11  1  0
  2 12  1  0
  3 13  1  0
  3 14  1  0
  4 15  1  0
  6 16  1  0
  6 17  1  0
  7 18  1  0
  7 19  1  0
  8 20  1  0
  8 21  1  0
M  END
