
     RDKit          3D

 18 18  0  0  0  0  0  0  0  0999 V2000
    3.3813    0.1534   -0.1177 O   0  0  0  0  0  0  0  0  0  0  0  0
    2.0625    0.0861   -0.6215 C   0  0  0  0  0  0  0  0  0  0  0  0
    1.1456    0.1228    0.5534 C   0  0  0  0  0  0  0  0  0  0  0  0
   -0.3032    0.0608    0.2158 C   0  0  0  0  0  0  0  0  0  0  0  0
   -0.6710   -1.0880   -0.4678 O   0  0  0  0  0  0  0  0  0  0  0  0
   -2.0248   -0.7901   -0.7599 C   0  0  0  0  0  0  0  0  0  0  0  0
   -2.0974    0.7154   -0.7626 C   0  0  0  0  0  0  0  0  0  0  0  0
   -0.7358    1.0573   -0.6382 O   0  0  0  0  0  0  0  0  0  0  0  0
    3.5688   -0.7079    0.3629 H   0  0  0  0  0  0  0  0  0  0  0  0
    1.9649    0.9604   -1.2949 H   0  0  0  0  0  0  0  0  0  0  0  0
    1.9370   -0.8599   -1.1605 H   0  0  0  0  0  0  0  0  0  0  0  0
    1.3307    1.0561    1.1140 H   0  0  0  0  0  0  0  0  0  0  0  0
    1.3883   -0.7122    1.2206 H   0  0  0  0  0  0  0  0  0  0  0  0
   -0.8827    0.1101    1.1533 H   0  0  0  0  0  0  0  0  0  0  0  0
   -2.3600   -1.2577   -1.6831 H   0  0  0  0  0  0  0  0  0  0  0  0
   -2.5829   -1.1566    0.1502 H   0  0  0  0  0  0  0  0  0  0  0  0
   -2.5478    1.1415   -1.6615 H   0  0  0  0  0  0  0  0  0  0  0  0
   -2.5733    1.1083    0.1804 H   0  0  0  0  0  0  0  0  0  0  0  0
  1  2  1  0
  2  3  1  0
  3  4  1  0
  4  5  1  0
  5  6  1  0
  6  7  1  0
  7  8  1  0
  8  4  1  0
  1  9  1  0
  2 10  1  0
  2 11  1  0
  3 12  1  0
  3 13  1  0
  4 14  1  0
  6 15  1  0
  6 16  1  0
  7 17  1  0
  7 18  1  0
M  END
