
     RDKit          3D

 21 22  0  0  0  0  0  0  0  0999 V2000
    3.3680   -0.4333   -0.3715 O   0  0  0  0  0  0  0  0  0  0  0  0
    2.1378    0.2114   -0.5820 C   0  0  0  0  0  0  0  0  0  0  0  0
    1.0226   -0.6359   -0.0610 C   0  0  0  0  0  0  0  0  0  0  0  0
   -0.3114   -0.1292   -0.1935 C   0  0  0  0  0  0  0  0  0  0  0  0
   -0.9443    0.1950   -1.4883 C   0  0  0  0  0  0  0  0  0  0  0  0
   -2.2282    0.6181   -1.0482 O   0  0  0  0  0  0  0  0  0  0  0  0
   -2.1234    0.5466    0.3261 C   0  0  0  0  0  0  0  0  0  0  0  0
   -0.7212    1.0985    0.6379 C   0  0  0  0  0  0  0  0  0  0  0  0
   -1.4493   -0.8115    0.5447 C   0  0  0  0  0  0  0  0  0  0  0  0
    3.2458   -1.3456    0.0032 H   0  0  0  0  0  0  0  0  0  0  0  0
    2.0233    0.3383   -1.6878 H   0  0  0  0  0  0  0  0  0  0  0  0
    2.1916    1.2181   -0.1545 H   0  0  0  0  0  0  0  0  0  0  0  0
    1.2513   -0.8286    1.0294 H   0  0  0  0  0  0  0  0  0  0  0  0
    1.1136   -1.6363   -0.5345 H   0  0  0  0  0  0  0  0  0  0  0  0
   -0.4829    1.0375   -2.0445 H   0  0  0  0  0  0  0  0  0  0  0  0
   -1.1281   -0.6628   -2.1511 H   0  0  0  0  0  0  0  0  0  0  0  0
   -2.9196    0.8245    0.9637 H   0  0  0  0  0  0  0  0  0  0  0  0
   -0.4073    0.9389    1.6702 H   0  0  0  0  0  0  0  0  0  0  0  0
   -0.5371    2.0569    0.1663 H   0  0  0  0  0  0  0  0  0  0  0  0
   -1.1788   -0.9548    1.5883 H   0  0  0  0  0  0  0  0  0  0  0  0
   -1.9221   -1.6458    0.0107 H   0  0  0  0  0  0  0  0  0  0  0  0
  1  2  1  0
  2  3  1  0
  3  4  1  0
  4  5  1  0
  5  6  1  0
  6  7  1  0
  7  8  1  0
  7  9  1  0
  8  4  1  0
  9  4  1  0
  1 10  1  0
  2 11  1  0
  2 12  1  0
  3 13  1  0
  3 14  1  0
  5 15  1  0
  5 16  1  0
  7 17  1  0
  8 18  1  0
  8 19  1  0
  9 20  1  0
  9 21  1  0
M  END
