
     RDKit          3D

 21 21  0  0  0  0  0  0  0  0999 V2000
    3.5867   -0.2369   -0.0940 O   0  0  0  0  0  0  0  0  0  0  0  0
    2.3091   -0.6757    0.3234 C   0  0  0  0  0  0  0  0  0  0  0  0
    1.3587    0.4418   -0.0120 C   0  0  0  0  0  0  0  0  0  0  0  0
   -0.0698    0.1367    0.3726 C   0  0  0  0  0  0  0  0  0  0  0  0
   -0.9190    1.2998    0.0013 C   0  0  0  0  0  0  0  0  0  0  0  0
   -2.1846    1.1771   -0.3758 C   0  0  0  0  0  0  0  0  0  0  0  0
   -2.7028   -0.2326   -0.4013 C   0  0  0  0  0  0  0  0  0  0  0  0
   -1.7190   -1.0075   -0.9793 O   0  0  0  0  0  0  0  0  0  0  0  0
   -0.5686   -1.1491   -0.2164 C   0  0  0  0  0  0  0  0  0  0  0  0
    3.6956    0.7410    0.0579 H   0  0  0  0  0  0  0  0  0  0  0  0
    2.1193   -1.6006   -0.2204 H   0  0  0  0  0  0  0  0  0  0  0  0
    2.4024   -0.8409    1.4220 H   0  0  0  0  0  0  0  0  0  0  0  0
    1.7029    1.3424    0.5300 H   0  0  0  0  0  0  0  0  0  0  0  0
    1.4666    0.6472   -1.0956 H   0  0  0  0  0  0  0  0  0  0  0  0
   -0.0558   -0.0074    1.4916 H   0  0  0  0  0  0  0  0  0  0  0  0
   -0.4780    2.2813    0.0437 H   0  0  0  0  0  0  0  0  0  0  0  0
   -2.8374    1.9964   -0.6541 H   0  0  0  0  0  0  0  0  0  0  0  0
   -2.9420   -0.5473    0.6378 H   0  0  0  0  0  0  0  0  0  0  0  0
   -3.6170   -0.3316   -0.9861 H   0  0  0  0  0  0  0  0  0  0  0  0
    0.2165   -1.5179   -0.9315 H   0  0  0  0  0  0  0  0  0  0  0  0
   -0.7640   -1.9159    0.5400 H   0  0  0  0  0  0  0  0  0  0  0  0
  1  2  1  0
  2  3  1  0
  3  4  1  0
  4  5  1  0
  5  6  2  0
  6  7  1  0
  7  8  1  0
  8  9  1  0
  9  4  1  0
  1 10  1  0
  2 11  1  0
  2 12  1  0
  3 13  1  0
  3 14  1  0
  4 15  1  0
  5 16  1  0
  6 17  1  0
  7 18  1  0
  7 19  1  0
  9 20  1  0
  9 21  1  0
M  END
