
     RDKit          3D

 18 19  0  0  0  0  0  0  0  0999 V2000
   -3.2667   -0.0520   -0.3844 O   0  0  0  0  0  0  0  0  0  0  0  0
   -2.0026   -0.5729   -0.2650 C   0  0  0  0  0  0  0  0  0  0  0  0
   -1.0495    0.3396    0.4834 C   0  0  0  0  0  0  0  0  0  0  0  0
    0.3010   -0.3269    0.5554 C   0  0  0  0  0  0  0  0  0  0  0  0
    1.4360    0.3598    1.2449 C   0  0  0  0  0  0  0  0  0  0  0  0
    2.3910    0.0322    0.0957 C   0  0  0  0  0  0  0  0  0  0  0  0
    1.1673   -0.3486   -0.7040 C   0  0  0  0  0  0  0  0  0  0  0  0
    0.4892   -1.4412   -0.2196 O   0  0  0  0  0  0  0  0  0  0  0  0
   -3.3377    0.8014    0.0843 H   0  0  0  0  0  0  0  0  0  0  0  0
   -1.5317   -0.7557   -1.2700 H   0  0  0  0  0  0  0  0  0  0  0  0
   -1.9940   -1.5409    0.2709 H   0  0  0  0  0  0  0  0  0  0  0  0
   -1.4192    0.4668    1.5106 H   0  0  0  0  0  0  0  0  0  0  0  0
   -1.0083    1.3311   -0.0341 H   0  0  0  0  0  0  0  0  0  0  0  0
    1.7514   -0.0137    2.2152 H   0  0  0  0  0  0  0  0  0  0  0  0
    1.3343    1.4739    1.2866 H   0  0  0  0  0  0  0  0  0  0  0  0
    2.9690   -0.9105    0.3147 H   0  0  0  0  0  0  0  0  0  0  0  0
    2.9788    0.8736   -0.2764 H   0  0  0  0  0  0  0  0  0  0  0  0
    0.7916    0.2839   -1.4977 H   0  0  0  0  0  0  0  0  0  0  0  0
  1  2  1  0
  2  3  1  0
  3  4  1  0
  4  5  1  0
  5  6  1  0
  6  7  1  0
  7  8  1  0
  7  4  1  0
  8  4  1  0
  1  9  1  0
  2 10  1  0
  2 11  1  0
  3 12  1  0
  3 13  1  0
  5 14  1  0
  5 15  1  0
  6 16  1  0
  6 17  1  0
  7 18  1  0
M  END
