
     RDKit          3D

 23 24  0  0  0  0  0  0  0  0999 V2000
    3.9179   -0.4305    1.2199 O   0  0  0  0  0  0  0  0  0  0  0  0
    2.8492   -0.7056    0.4176 C   0  0  0  0  0  0  0  0  0  0  0  0
    1.7329    0.3333    0.6039 C   0  0  0  0  0  0  0  0  0  0  0  0
    0.5598   -0.0083   -0.3072 C   0  0  0  0  0  0  0  0  0  0  0  0
   -0.5749    0.8088   -0.3025 C   0  0  0  0  0  0  0  0  0  0  0  0
   -1.5917    1.2040    0.7064 C   0  0  0  0  0  0  0  0  0  0  0  0
   -2.6946    0.2060    0.2889 C   0  0  0  0  0  0  0  0  0  0  0  0
   -1.9143   -0.9969   -0.2786 C   0  0  0  0  0  0  0  0  0  0  0  0
   -0.5579   -0.6895    0.2116 C   0  0  0  0  0  0  0  0  0  0  0  0
    3.9120    0.5286    1.4600 H   0  0  0  0  0  0  0  0  0  0  0  0
    3.1023   -0.6557   -0.6747 H   0  0  0  0  0  0  0  0  0  0  0  0
    2.4483   -1.7330    0.5916 H   0  0  0  0  0  0  0  0  0  0  0  0
    2.1750    1.3103    0.3634 H   0  0  0  0  0  0  0  0  0  0  0  0
    1.4550    0.2574    1.6794 H   0  0  0  0  0  0  0  0  0  0  0  0
    0.9628   -0.4100   -1.2863 H   0  0  0  0  0  0  0  0  0  0  0  0
   -1.0604    0.9584   -1.3219 H   0  0  0  0  0  0  0  0  0  0  0  0
   -1.9784    2.2297    0.5881 H   0  0  0  0  0  0  0  0  0  0  0  0
   -1.3443    0.9472    1.7487 H   0  0  0  0  0  0  0  0  0  0  0  0
   -3.2193    0.6688   -0.5624 H   0  0  0  0  0  0  0  0  0  0  0  0
   -3.3206   -0.0755    1.1253 H   0  0  0  0  0  0  0  0  0  0  0  0
   -2.3268   -1.9017    0.2175 H   0  0  0  0  0  0  0  0  0  0  0  0
   -1.9868   -1.0355   -1.3773 H   0  0  0  0  0  0  0  0  0  0  0  0
   -0.5453   -0.8103    1.3390 H   0  0  0  0  0  0  0  0  0  0  0  0
  1  2  1  0
  2  3  1  0
  3  4  1  0
  4  5  1  0
  5  6  1  0
  6  7  1  0
  7  8  1  0
  8  9  1  0
  9  4  1  0
  9  5  1  0
  1 10  1  0
  2 11  1  0
  2 12  1  0
  3 13  1  0
  3 14  1  0
  4 15  1  0
  5 16  1  0
  6 17  1  0
  6 18  1  0
  7 19  1  0
  7 20  1  0
  8 21  1  0
  8 22  1  0
  9 23  1  0
M  END
