
     RDKit          3D

 20 21  0  0  0  0  0  0  0  0999 V2000
   -2.9420    0.8133   -0.4257 O   0  0  0  0  0  0  0  0  0  0  0  0
   -2.5063   -0.4779   -0.7165 C   0  0  0  0  0  0  0  0  0  0  0  0
   -1.3679   -0.8570    0.2385 C   0  0  0  0  0  0  0  0  0  0  0  0
   -0.2333    0.1025    0.0701 C   0  0  0  0  0  0  0  0  0  0  0  0
    0.9517   -0.1143    0.9153 C   0  0  0  0  0  0  0  0  0  0  0  0
    2.0530    0.9166    0.7458 C   0  0  0  0  0  0  0  0  0  0  0  0
    2.2522    0.4016   -0.6521 C   0  0  0  0  0  0  0  0  0  0  0  0
    0.9951   -0.4105   -0.5668 C   0  0  0  0  0  0  0  0  0  0  0  0
   -2.3900    1.4956   -0.8678 H   0  0  0  0  0  0  0  0  0  0  0  0
   -3.3133   -1.2169   -0.5568 H   0  0  0  0  0  0  0  0  0  0  0  0
   -2.1229   -0.4658   -1.7518 H   0  0  0  0  0  0  0  0  0  0  0  0
   -1.0779   -1.9075    0.0394 H   0  0  0  0  0  0  0  0  0  0  0  0
   -1.8207   -0.7941    1.2672 H   0  0  0  0  0  0  0  0  0  0  0  0
   -0.5097    1.1645   -0.1146 H   0  0  0  0  0  0  0  0  0  0  0  0
    1.0592   -0.9232    1.6351 H   0  0  0  0  0  0  0  0  0  0  0  0
    2.9015    0.8293    1.4319 H   0  0  0  0  0  0  0  0  0  0  0  0
    1.5765    1.9389    0.8097 H   0  0  0  0  0  0  0  0  0  0  0  0
    3.1964   -0.1831   -0.6998 H   0  0  0  0  0  0  0  0  0  0  0  0
    2.2518    1.1520   -1.4588 H   0  0  0  0  0  0  0  0  0  0  0  0
    1.0465   -1.4640   -0.9096 H   0  0  0  0  0  0  0  0  0  0  0  0
  1  2  1  0
  2  3  1  0
  3  4  1  0
  4  5  1  0
  5  6  1  0
  6  7  1  0
  7  8  1  0
  8  4  1  0
  8  5  1  0
  1  9  1  0
  2 10  1  0
  2 11  1  0
  3 12  1  0
  3 13  1  0
  4 14  1  0
  5 15  1  0
  6 16  1  0
  6 17  1  0
  7 18  1  0
  7 19  1  0
  8 20  1  0
M  END
