
     RDKit          3D

 21 21  0  0  0  0  0  0  0  0999 V2000
    4.1290    0.7114    1.5254 O   0  0  0  0  0  0  0  0  0  0  0  0
    2.7650    0.5712    1.4651 C   0  0  0  0  0  0  0  0  0  0  0  0
    2.3854   -0.3617    0.3041 C   0  0  0  0  0  0  0  0  0  0  0  0
    0.9308   -0.5173    0.2321 C   0  0  0  0  0  0  0  0  0  0  0  0
   -0.2808   -0.6278    0.1624 C   0  0  0  0  0  0  0  0  0  0  0  0
   -1.7429   -0.7744    0.0991 C   0  0  0  0  0  0  0  0  0  0  0  0
   -2.4175    0.5716   -0.1166 C   0  0  0  0  0  0  0  0  0  0  0  0
   -2.2225    0.3564   -1.6055 C   0  0  0  0  0  0  0  0  0  0  0  0
   -2.1253   -1.1249   -1.3245 C   0  0  0  0  0  0  0  0  0  0  0  0
    4.3982    1.6773    1.5335 H   0  0  0  0  0  0  0  0  0  0  0  0
    2.4005    0.1516    2.4368 H   0  0  0  0  0  0  0  0  0  0  0  0
    2.2959    1.5646    1.3395 H   0  0  0  0  0  0  0  0  0  0  0  0
    2.8600   -1.3460    0.5183 H   0  0  0  0  0  0  0  0  0  0  0  0
    2.7686    0.1075   -0.6152 H   0  0  0  0  0  0  0  0  0  0  0  0
   -2.1796   -1.3942    0.8853 H   0  0  0  0  0  0  0  0  0  0  0  0
   -3.4464    0.5663    0.2339 H   0  0  0  0  0  0  0  0  0  0  0  0
   -1.7625    1.3820    0.2877 H   0  0  0  0  0  0  0  0  0  0  0  0
   -1.2314    0.7450   -1.9133 H   0  0  0  0  0  0  0  0  0  0  0  0
   -3.0705    0.6383   -2.2294 H   0  0  0  0  0  0  0  0  0  0  0  0
   -3.1224   -1.5964   -1.3285 H   0  0  0  0  0  0  0  0  0  0  0  0
   -1.3315   -1.6583   -1.8901 H   0  0  0  0  0  0  0  0  0  0  0  0
  1  2  1  0
  2  3  1  0
  3  4  1  0
  4  5  3  0
  5  6  1  0
  6  7  1  0
  7  8  1  0
  8  9  1  0
  9  6  1  0
  1 10  1  0
  2 11  1  0
  2 12  1  0
  3 13  1  0
  3 14  1  0
  6 15  1  0
  7 16  1  0
  7 17  1  0
  8 18  1  0
  8 19  1  0
  9 20  1  0
  9 21  1  0
M  END
