
     RDKit          3D

 21 21  0  0  0  0  0  0  0  0999 V2000
    3.5030   -0.5224   -1.1074 O   0  0  0  0  0  0  0  0  0  0  0  0
    3.3871   -0.3939    0.2721 C   0  0  0  0  0  0  0  0  0  0  0  0
    2.2038   -1.1940    0.7751 C   0  0  0  0  0  0  0  0  0  0  0  0
    0.9975   -0.6779    0.1267 C   0  0  0  0  0  0  0  0  0  0  0  0
    0.0182   -0.2710   -0.4166 C   0  0  0  0  0  0  0  0  0  0  0  0
   -1.1856    0.2536   -1.1033 C   0  0  0  0  0  0  0  0  0  0  0  0
   -1.8929    1.1478   -0.1443 C   0  0  0  0  0  0  0  0  0  0  0  0
   -2.4111    0.6974    1.1552 C   0  0  0  0  0  0  0  0  0  0  0  0
   -3.3769    0.7864    0.0506 C   0  0  0  0  0  0  0  0  0  0  0  0
    3.6361   -1.4839   -1.3520 H   0  0  0  0  0  0  0  0  0  0  0  0
    4.3349   -0.7365    0.7337 H   0  0  0  0  0  0  0  0  0  0  0  0
    3.2446    0.6875    0.4995 H   0  0  0  0  0  0  0  0  0  0  0  0
    2.1483   -1.1770    1.8708 H   0  0  0  0  0  0  0  0  0  0  0  0
    2.3853   -2.2665    0.4909 H   0  0  0  0  0  0  0  0  0  0  0  0
   -0.9174    0.8232   -2.0146 H   0  0  0  0  0  0  0  0  0  0  0  0
   -1.8330   -0.5980   -1.4610 H   0  0  0  0  0  0  0  0  0  0  0  0
   -1.7121    2.2453   -0.2785 H   0  0  0  0  0  0  0  0  0  0  0  0
   -2.1399   -0.2703    1.6122 H   0  0  0  0  0  0  0  0  0  0  0  0
   -2.5331    1.4953    1.9452 H   0  0  0  0  0  0  0  0  0  0  0  0
   -3.7403   -0.1560   -0.3784 H   0  0  0  0  0  0  0  0  0  0  0  0
   -4.1168    1.6108   -0.0292 H   0  0  0  0  0  0  0  0  0  0  0  0
  1  2  1  0
  2  3  1  0
  3  4  1  0
  4  5  3  0
  5  6  1  0
  6  7  1  0
  7  8  1  0
  8  9  1  0
  9  7  1  0
  1 10  1  0
  2 11  1  0
  2 12  1  0
  3 13  1  0
  3 14  1  0
  6 15  1  0
  6 16  1  0
  7 17  1  0
  8 18  1  0
  8 19  1  0
  9 20  1  0
  9 21  1  0
M  END
