
     RDKit          3D

 21 22  0  0  0  0  0  0  0  0999 V2000
    2.5488    1.0774   -0.6666 O   0  0  0  0  0  0  0  0  0  0  0  0
    2.2108   -0.2665   -0.6212 C   0  0  0  0  0  0  0  0  0  0  0  0
    1.2808   -0.5489    0.5688 C   0  0  0  0  0  0  0  0  0  0  0  0
    0.0339    0.2371    0.4611 C   0  0  0  0  0  0  0  0  0  0  0  0
   -0.7888   -0.0176   -0.7585 C   0  0  0  0  0  0  0  0  0  0  0  0
   -1.2963   -1.2404   -0.1074 C   0  0  0  0  0  0  0  0  0  0  0  0
   -1.2350   -0.2559    1.0204 C   0  0  0  0  0  0  0  0  0  0  0  0
   -1.8912    0.6785    0.0265 C   0  0  0  0  0  0  0  0  0  0  0  0
   -1.7178    2.0156    0.2485 O   0  0  0  0  0  0  0  0  0  0  0  0
    3.0444    1.2967    0.1758 H   0  0  0  0  0  0  0  0  0  0  0  0
    1.6997   -0.5047   -1.5711 H   0  0  0  0  0  0  0  0  0  0  0  0
    3.0962   -0.9317   -0.5220 H   0  0  0  0  0  0  0  0  0  0  0  0
    1.8012   -0.2568    1.5128 H   0  0  0  0  0  0  0  0  0  0  0  0
    1.1078   -1.6374    0.5646 H   0  0  0  0  0  0  0  0  0  0  0  0
    0.1764    1.3193    0.7227 H   0  0  0  0  0  0  0  0  0  0  0  0
   -0.5575    0.1600   -1.7131 H   0  0  0  0  0  0  0  0  0  0  0  0
   -0.7116   -2.1480   -0.0651 H   0  0  0  0  0  0  0  0  0  0  0  0
   -2.3781   -1.3977   -0.4071 H   0  0  0  0  0  0  0  0  0  0  0  0
   -1.5184   -0.3977    1.9697 H   0  0  0  0  0  0  0  0  0  0  0  0
   -2.8657    0.3146   -0.2906 H   0  0  0  0  0  0  0  0  0  0  0  0
   -2.0397    2.5039   -0.5482 H   0  0  0  0  0  0  0  0  0  0  0  0
  1  2  1  0
  2  3  1  0
  3  4  1  0
  4  5  1  0
  5  6  1  0
  6  7  1  0
  7  8  1  0
  8  9  1  0
  7  4  1  0
  8  5  1  0
  1 10  1  0
  2 11  1  0
  2 12  1  0
  3 13  1  0
  3 14  1  0
  4 15  1  0
  5 16  1  0
  6 17  1  0
  6 18  1  0
  7 19  1  0
  8 20  1  0
  9 21  1  0
M  END
