
     RDKit          3D

 19 20  0  0  0  0  0  0  0  0999 V2000
    2.8958   -0.4794    0.5505 O   0  0  0  0  0  0  0  0  0  0  0  0
    2.2451    0.1668   -0.4737 C   0  0  0  0  0  0  0  0  0  0  0  0
    0.8917    0.6805   -0.0481 C   0  0  0  0  0  0  0  0  0  0  0  0
   -0.0282   -0.4073    0.4137 C   0  0  0  0  0  0  0  0  0  0  0  0
   -0.3073   -1.3885   -0.5421 O   0  0  0  0  0  0  0  0  0  0  0  0
   -1.6625   -1.3704   -0.1323 C   0  0  0  0  0  0  0  0  0  0  0  0
   -1.4380    0.0144    0.3469 C   0  0  0  0  0  0  0  0  0  0  0  0
   -2.0274    1.1827   -0.0127 C   0  0  0  0  0  0  0  0  0  0  0  0
   -2.1266    0.5867    1.3689 O   0  0  0  0  0  0  0  0  0  0  0  0
    3.5483   -1.1497    0.2141 H   0  0  0  0  0  0  0  0  0  0  0  0
    2.8213    1.0728   -0.8186 H   0  0  0  0  0  0  0  0  0  0  0  0
    2.1895   -0.5239   -1.3371 H   0  0  0  0  0  0  0  0  0  0  0  0
    1.0528    1.3676    0.8049 H   0  0  0  0  0  0  0  0  0  0  0  0
    0.4274    1.2533   -0.8613 H   0  0  0  0  0  0  0  0  0  0  0  0
    0.3276   -0.8964    1.3373 H   0  0  0  0  0  0  0  0  0  0  0  0
   -2.3402   -1.3954   -0.9967 H   0  0  0  0  0  0  0  0  0  0  0  0
   -1.8992   -2.1300    0.6343 H   0  0  0  0  0  0  0  0  0  0  0  0
   -1.5175    2.1774    0.0315 H   0  0  0  0  0  0  0  0  0  0  0  0
   -3.0526    1.2387   -0.4795 H   0  0  0  0  0  0  0  0  0  0  0  0
  1  2  1  0
  2  3  1  0
  3  4  1  0
  4  5  1  0
  5  6  1  0
  6  7  1  0
  7  8  1  0
  8  9  1  0
  7  4  1  0
  9  7  1  0
  1 10  1  0
  2 11  1  0
  2 12  1  0
  3 13  1  0
  3 14  1  0
  4 15  1  0
  6 16  1  0
  6 17  1  0
  8 18  1  0
  8 19  1  0
M  END
