
     RDKit          3D

 21 21  0  0  0  0  0  0  0  0999 V2000
    3.0412   -0.8695   -0.4128 O   0  0  0  0  0  0  0  0  0  0  0  0
    1.9278   -0.0591   -0.6317 C   0  0  0  0  0  0  0  0  0  0  0  0
    0.7558   -0.6531    0.0869 C   0  0  0  0  0  0  0  0  0  0  0  0
   -0.5129    0.1270   -0.0686 C   0  0  0  0  0  0  0  0  0  0  0  0
   -0.6027    1.5426    0.3878 C   0  0  0  0  0  0  0  0  0  0  0  0
   -0.3623    1.7034    1.7464 O   0  0  0  0  0  0  0  0  0  0  0  0
   -1.3520   -0.3084   -1.2773 C   0  0  0  0  0  0  0  0  0  0  0  0
   -1.8318   -0.6469    0.0801 C   0  0  0  0  0  0  0  0  0  0  0  0
   -1.6788   -1.9117    0.6113 O   0  0  0  0  0  0  0  0  0  0  0  0
    3.0777   -1.2053    0.5169 H   0  0  0  0  0  0  0  0  0  0  0  0
    2.1902    0.9510   -0.3153 H   0  0  0  0  0  0  0  0  0  0  0  0
    1.7200   -0.0328   -1.7238 H   0  0  0  0  0  0  0  0  0  0  0  0
    0.6031   -1.6840   -0.2935 H   0  0  0  0  0  0  0  0  0  0  0  0
    0.9695   -0.7513    1.1711 H   0  0  0  0  0  0  0  0  0  0  0  0
   -1.6242    1.9179    0.1942 H   0  0  0  0  0  0  0  0  0  0  0  0
    0.0849    2.1843   -0.1964 H   0  0  0  0  0  0  0  0  0  0  0  0
    0.4674    2.2454    1.9153 H   0  0  0  0  0  0  0  0  0  0  0  0
   -0.9882   -1.1351   -1.9012 H   0  0  0  0  0  0  0  0  0  0  0  0
   -1.8566    0.4879   -1.8574 H   0  0  0  0  0  0  0  0  0  0  0  0
   -2.7210   -0.1122    0.4266 H   0  0  0  0  0  0  0  0  0  0  0  0
   -1.3070   -1.7902    1.5415 H   0  0  0  0  0  0  0  0  0  0  0  0
  1  2  1  0
  2  3  1  0
  3  4  1  0
  4  5  1  0
  5  6  1  0
  4  7  1  0
  7  8  1  0
  8  9  1  0
  8  4  1  0
  1 10  1  0
  2 11  1  0
  2 12  1  0
  3 13  1  0
  3 14  1  0
  5 15  1  0
  5 16  1  0
  6 17  1  0
  7 18  1  0
  7 19  1  0
  8 20  1  0
  9 21  1  0
M  END
