
     RDKit          3D

 20 21  0  0  0  0  0  0  0  0999 V2000
    1.8992    1.0522   -0.9322 O   0  0  0  0  0  0  0  0  0  0  0  0
    2.0262    0.4526    0.3287 C   0  0  0  0  0  0  0  0  0  0  0  0
    1.0852   -0.7621    0.3399 C   0  0  0  0  0  0  0  0  0  0  0  0
   -0.2084   -0.3993    0.1329 C   0  0  0  0  0  0  0  0  0  0  0  0
   -0.7490    0.3191   -1.1080 C   0  0  0  0  0  0  0  0  0  0  0  0
   -1.9624    0.1051   -0.2363 C   0  0  0  0  0  0  0  0  0  0  0  0
   -1.4208   -1.2807   -0.0130 C   0  0  0  0  0  0  0  0  0  0  0  0
   -1.0798    0.5242    0.9084 C   0  0  0  0  0  0  0  0  0  0  0  0
    2.2986    1.9578   -0.9542 H   0  0  0  0  0  0  0  0  0  0  0  0
    3.0428    0.1062    0.5348 H   0  0  0  0  0  0  0  0  0  0  0  0
    1.6198    1.1448    1.0960 H   0  0  0  0  0  0  0  0  0  0  0  0
    1.2878   -1.2655    1.3072 H   0  0  0  0  0  0  0  0  0  0  0  0
    1.5074   -1.4436   -0.4371 H   0  0  0  0  0  0  0  0  0  0  0  0
   -0.4228    1.3528   -1.2244 H   0  0  0  0  0  0  0  0  0  0  0  0
   -0.6971   -0.3412   -1.9889 H   0  0  0  0  0  0  0  0  0  0  0  0
   -2.9033    0.3781   -0.4226 H   0  0  0  0  0  0  0  0  0  0  0  0
   -1.3880   -1.8335   -0.9690 H   0  0  0  0  0  0  0  0  0  0  0  0
   -1.7507   -1.8100    0.8747 H   0  0  0  0  0  0  0  0  0  0  0  0
   -0.7735    1.5763    0.8561 H   0  0  0  0  0  0  0  0  0  0  0  0
   -1.4113    0.1668    1.9069 H   0  0  0  0  0  0  0  0  0  0  0  0
  1  2  1  0
  2  3  1  0
  3  4  1  0
  4  5  1  0
  5  6  1  0
  6  7  1  0
  6  8  1  0
  7  4  1  0
  8  4  1  0
  1  9  1  0
  2 10  1  0
  2 11  1  0
  3 12  1  0
  3 13  1  0
  5 14  1  0
  5 15  1  0
  6 16  1  0
  7 17  1  0
  7 18  1  0
  8 19  1  0
  8 20  1  0
M  END
