
     RDKit          3D

 20 20  0  0  0  0  0  0  0  0999 V2000
    3.2878   -0.5067    0.5329 O   0  0  0  0  0  0  0  0  0  0  0  0
    2.1233    0.1661    0.2508 C   0  0  0  0  0  0  0  0  0  0  0  0
    1.0015   -0.7562   -0.1728 C   0  0  0  0  0  0  0  0  0  0  0  0
   -0.2031    0.0950   -0.4494 C   0  0  0  0  0  0  0  0  0  0  0  0
   -1.4023   -0.7297   -0.8868 C   0  0  0  0  0  0  0  0  0  0  0  0
   -2.5163    0.2464   -0.4879 C   0  0  0  0  0  0  0  0  0  0  0  0
   -2.1048    0.8498    0.6717 O   0  0  0  0  0  0  0  0  0  0  0  0
   -0.7404    0.7923    0.7598 C   0  0  0  0  0  0  0  0  0  0  0  0
    4.0424    0.0333    0.1536 H   0  0  0  0  0  0  0  0  0  0  0  0
    2.2824    0.8867   -0.6042 H   0  0  0  0  0  0  0  0  0  0  0  0
    1.7912    0.8053    1.1001 H   0  0  0  0  0  0  0  0  0  0  0  0
    0.8461   -1.5014    0.6199 H   0  0  0  0  0  0  0  0  0  0  0  0
    1.2757   -1.2643   -1.1114 H   0  0  0  0  0  0  0  0  0  0  0  0
    0.0467    0.7896   -1.2640 H   0  0  0  0  0  0  0  0  0  0  0  0
   -1.5368   -1.6206   -0.2337 H   0  0  0  0  0  0  0  0  0  0  0  0
   -1.4113   -0.9513   -1.9516 H   0  0  0  0  0  0  0  0  0  0  0  0
   -3.4930   -0.2673   -0.4169 H   0  0  0  0  0  0  0  0  0  0  0  0
   -2.5740    1.0266   -1.3010 H   0  0  0  0  0  0  0  0  0  0  0  0
   -0.2451    1.7551    0.9207 H   0  0  0  0  0  0  0  0  0  0  0  0
   -0.4699    0.1513    1.6480 H   0  0  0  0  0  0  0  0  0  0  0  0
  1  2  1  0
  2  3  1  0
  3  4  1  0
  4  5  1  0
  5  6  1  0
  6  7  1  0
  7  8  1  0
  8  4  1  0
  1  9  1  0
  2 10  1  0
  2 11  1  0
  3 12  1  0
  3 13  1  0
  4 14  1  0
  5 15  1  0
  5 16  1  0
  6 17  1  0
  6 18  1  0
  8 19  1  0
  8 20  1  0
M  END
