
     RDKit          3D

 21 22  0  0  0  0  0  0  0  0999 V2000
    3.4492   -0.0812    0.7864 O   0  0  0  0  0  0  0  0  0  0  0  0
    2.3212    0.1606   -0.0028 C   0  0  0  0  0  0  0  0  0  0  0  0
    1.1663   -0.7425    0.4026 C   0  0  0  0  0  0  0  0  0  0  0  0
   -0.0028   -0.4083   -0.5035 C   0  0  0  0  0  0  0  0  0  0  0  0
   -0.4505    1.0172   -0.4014 C   0  0  0  0  0  0  0  0  0  0  0  0
   -1.8499    0.5123   -0.1081 C   0  0  0  0  0  0  0  0  0  0  0  0
   -2.8895    0.8632   -0.9447 O   0  0  0  0  0  0  0  0  0  0  0  0
   -2.0376   -0.2946    1.1091 C   0  0  0  0  0  0  0  0  0  0  0  0
   -1.3379   -0.8831   -0.0537 C   0  0  0  0  0  0  0  0  0  0  0  0
    4.1071    0.6156    0.6308 H   0  0  0  0  0  0  0  0  0  0  0  0
    2.0311    1.2162    0.0404 H   0  0  0  0  0  0  0  0  0  0  0  0
    2.6073   -0.0951   -1.0467 H   0  0  0  0  0  0  0  0  0  0  0  0
    0.8821   -0.4899    1.4257 H   0  0  0  0  0  0  0  0  0  0  0  0
    1.4657   -1.7906    0.3250 H   0  0  0  0  0  0  0  0  0  0  0  0
    0.1885   -0.6879   -1.5657 H   0  0  0  0  0  0  0  0  0  0  0  0
    0.0044    1.5456    0.4605 H   0  0  0  0  0  0  0  0  0  0  0  0
   -0.3787    1.6194   -1.3351 H   0  0  0  0  0  0  0  0  0  0  0  0
   -2.8751    0.3934   -1.8086 H   0  0  0  0  0  0  0  0  0  0  0  0
   -1.5175   -0.0913    2.0588 H   0  0  0  0  0  0  0  0  0  0  0  0
   -3.0775   -0.6739    1.2676 H   0  0  0  0  0  0  0  0  0  0  0  0
   -1.8062   -1.7052   -0.6150 H   0  0  0  0  0  0  0  0  0  0  0  0
  1  2  1  0
  2  3  1  0
  3  4  1  0
  4  5  1  0
  5  6  1  0
  6  7  1  0
  6  8  1  0
  8  9  1  0
  9  4  1  0
  9  6  1  0
  1 10  1  0
  2 11  1  0
  2 12  1  0
  3 13  1  0
  3 14  1  0
  4 15  1  0
  5 16  1  0
  5 17  1  0
  7 18  1  0
  8 19  1  0
  8 20  1  0
  9 21  1  0
M  END
