
     RDKit          3D

 19 19  0  0  0  0  0  0  0  0999 V2000
   -2.3229    0.8495   -1.1614 O   0  0  0  0  0  0  0  0  0  0  0  0
   -2.8675   -0.0843   -0.2882 C   0  0  0  0  0  0  0  0  0  0  0  0
   -2.2064    0.0970    1.0520 C   0  0  0  0  0  0  0  0  0  0  0  0
   -0.7571   -0.1219    0.8876 C   0  0  0  0  0  0  0  0  0  0  0  0
    0.4333   -0.2957    0.7553 C   0  0  0  0  0  0  0  0  0  0  0  0
    1.8517   -0.4925    0.5944 C   0  0  0  0  0  0  0  0  0  0  0  0
    2.6458    0.7086    0.1436 C   0  0  0  0  0  0  0  0  0  0  0  0
    3.3767   -0.1616   -0.6881 O   0  0  0  0  0  0  0  0  0  0  0  0
    2.1862   -0.9121   -0.8091 C   0  0  0  0  0  0  0  0  0  0  0  0
   -2.3876    1.7586   -0.7955 H   0  0  0  0  0  0  0  0  0  0  0  0
   -3.9552    0.1461   -0.2008 H   0  0  0  0  0  0  0  0  0  0  0  0
   -2.7833   -1.1041   -0.6619 H   0  0  0  0  0  0  0  0  0  0  0  0
   -2.6378   -0.5317    1.8467 H   0  0  0  0  0  0  0  0  0  0  0  0
   -2.3807    1.1665    1.3513 H   0  0  0  0  0  0  0  0  0  0  0  0
    2.3755   -1.0926    1.3423 H   0  0  0  0  0  0  0  0  0  0  0  0
    3.3296    1.1442    0.8813 H   0  0  0  0  0  0  0  0  0  0  0  0
    2.0779    1.4283   -0.4631 H   0  0  0  0  0  0  0  0  0  0  0  0
    2.4574   -1.9925   -0.9358 H   0  0  0  0  0  0  0  0  0  0  0  0
    1.5643   -0.5098   -1.6090 H   0  0  0  0  0  0  0  0  0  0  0  0
  1  2  1  0
  2  3  1  0
  3  4  1  0
  4  5  3  0
  5  6  1  0
  6  7  1  0
  7  8  1  0
  8  9  1  0
  9  6  1  0
  1 10  1  0
  2 11  1  0
  2 12  1  0
  3 13  1  0
  3 14  1  0
  6 15  1  0
  7 16  1  0
  7 17  1  0
  9 18  1  0
  9 19  1  0
M  END
