
     RDKit          3D

 18 18  0  0  0  0  0  0  0  0999 V2000
    1.7850    0.7540   -1.1787 O   0  0  0  0  0  0  0  0  0  0  0  0
    1.8409   -0.5185   -0.5657 C   0  0  0  0  0  0  0  0  0  0  0  0
    0.7604   -0.6260    0.4787 C   0  0  0  0  0  0  0  0  0  0  0  0
   -0.6164   -0.4559   -0.0822 C   0  0  0  0  0  0  0  0  0  0  0  0
   -0.9930   -1.3771   -1.0548 O   0  0  0  0  0  0  0  0  0  0  0  0
   -1.6871   -0.0932    0.9705 C   0  0  0  0  0  0  0  0  0  0  0  0
   -1.3003    0.8489   -0.1190 C   0  0  0  0  0  0  0  0  0  0  0  0
   -0.6705    2.0153    0.3099 O   0  0  0  0  0  0  0  0  0  0  0  0
    1.9689    1.4019   -0.4288 H   0  0  0  0  0  0  0  0  0  0  0  0
    2.8233   -0.5506   -0.0513 H   0  0  0  0  0  0  0  0  0  0  0  0
    1.8222   -1.3181   -1.3080 H   0  0  0  0  0  0  0  0  0  0  0  0
    0.9714    0.1077    1.2797 H   0  0  0  0  0  0  0  0  0  0  0  0
    0.8481   -1.6314    0.9372 H   0  0  0  0  0  0  0  0  0  0  0  0
   -0.1714   -1.7271   -1.4714 H   0  0  0  0  0  0  0  0  0  0  0  0
   -2.6335   -0.6888    0.8946 H   0  0  0  0  0  0  0  0  0  0  0  0
   -1.3446    0.1033    1.9979 H   0  0  0  0  0  0  0  0  0  0  0  0
   -2.0035    1.0453   -0.9686 H   0  0  0  0  0  0  0  0  0  0  0  0
   -1.4001    2.7102    0.3600 H   0  0  0  0  0  0  0  0  0  0  0  0
  1  2  1  0
  2  3  1  0
  3  4  1  0
  4  5  1  0
  4  6  1  0
  6  7  1  0
  7  8  1  0
  7  4  1  0
  1  9  1  0
  2 10  1  0
  2 11  1  0
  3 12  1  0
  3 13  1  0
  5 14  1  0
  6 15  1  0
  6 16  1  0
  7 17  1  0
  8 18  1  0
M  END
