
     RDKit          3D

 17 16  0  0  0  0  0  0  0  0999 V2000
   -2.7030    0.8257    0.5298 O   0  0  0  0  0  0  0  0  0  0  0  0
   -1.3765    0.8523    0.1433 C   0  0  0  0  0  0  0  0  0  0  0  0
   -0.8730   -0.5707   -0.0409 C   0  0  0  0  0  0  0  0  0  0  0  0
    0.5702   -0.5884   -0.4625 C   0  0  0  0  0  0  0  0  0  0  0  0
    0.6900    0.0961   -1.6730 O   0  0  0  0  0  0  0  0  0  0  0  0
    1.4915    0.0817    0.5078 C   0  0  0  0  0  0  0  0  0  0  0  0
    2.7875   -0.0275   -0.0439 O   0  0  0  0  0  0  0  0  0  0  0  0
   -3.2836    1.2342   -0.1610 H   0  0  0  0  0  0  0  0  0  0  0  0
   -0.7870    1.3063    0.9522 H   0  0  0  0  0  0  0  0  0  0  0  0
   -1.2315    1.4135   -0.8117 H   0  0  0  0  0  0  0  0  0  0  0  0
   -1.0883   -1.1797    0.8367 H   0  0  0  0  0  0  0  0  0  0  0  0
   -1.4615   -0.9907   -0.8905 H   0  0  0  0  0  0  0  0  0  0  0  0
    0.8801   -1.6487   -0.5640 H   0  0  0  0  0  0  0  0  0  0  0  0
    0.7138   -0.5859   -2.3881 H   0  0  0  0  0  0  0  0  0  0  0  0
    1.5378   -0.3915    1.4976 H   0  0  0  0  0  0  0  0  0  0  0  0
    1.2852    1.1516    0.6385 H   0  0  0  0  0  0  0  0  0  0  0  0
    2.8483   -0.9783   -0.3763 H   0  0  0  0  0  0  0  0  0  0  0  0
  1  2  1  0
  2  3  1  0
  3  4  1  0
  4  5  1  0
  4  6  1  0
  6  7  1  0
  1  8  1  0
  2  9  1  0
  2 10  1  0
  3 11  1  0
  3 12  1  0
  4 13  1  0
  5 14  1  0
  6 15  1  0
  6 16  1  0
  7 17  1  0
M  END
