
     RDKit          3D

 21 21  0  0  0  0  0  0  0  0999 V2000
    3.7314   -0.7954    0.5393 O   0  0  0  0  0  0  0  0  0  0  0  0
    2.4380   -0.3030    0.7063 C   0  0  0  0  0  0  0  0  0  0  0  0
    1.9685    0.1675   -0.6507 C   0  0  0  0  0  0  0  0  0  0  0  0
    0.5516    0.7304   -0.5813 C   0  0  0  0  0  0  0  0  0  0  0  0
   -0.3475   -0.2295   -0.1326 O   0  0  0  0  0  0  0  0  0  0  0  0
   -1.6065    0.2987   -0.0797 C   0  0  0  0  0  0  0  0  0  0  0  0
   -2.4731   -0.1416    1.0700 C   0  0  0  0  0  0  0  0  0  0  0  0
   -2.7496   -1.3062    0.3669 O   0  0  0  0  0  0  0  0  0  0  0  0
   -2.6393   -0.5417   -0.8126 C   0  0  0  0  0  0  0  0  0  0  0  0
    4.3487   -0.0673    0.8251 H   0  0  0  0  0  0  0  0  0  0  0  0
    1.7929   -1.1489    1.0503 H   0  0  0  0  0  0  0  0  0  0  0  0
    2.3915    0.4875    1.4661 H   0  0  0  0  0  0  0  0  0  0  0  0
    2.6088    0.9849   -1.0091 H   0  0  0  0  0  0  0  0  0  0  0  0
    2.0161   -0.6769   -1.3563 H   0  0  0  0  0  0  0  0  0  0  0  0
    0.2690    0.9371   -1.6507 H   0  0  0  0  0  0  0  0  0  0  0  0
    0.5227    1.6216    0.0512 H   0  0  0  0  0  0  0  0  0  0  0  0
   -1.7151    1.3504   -0.3842 H   0  0  0  0  0  0  0  0  0  0  0  0
   -1.9417   -0.3727    2.0114 H   0  0  0  0  0  0  0  0  0  0  0  0
   -3.3188    0.5381    1.2378 H   0  0  0  0  0  0  0  0  0  0  0  0
   -2.2434   -1.1058   -1.6808 H   0  0  0  0  0  0  0  0  0  0  0  0
   -3.6041   -0.0300   -0.9864 H   0  0  0  0  0  0  0  0  0  0  0  0
  1  2  1  0
  2  3  1  0
  3  4  1  0
  4  5  1  0
  5  6  1  0
  6  7  1  0
  7  8  1  0
  8  9  1  0
  9  6  1  0
  1 10  1  0
  2 11  1  0
  2 12  1  0
  3 13  1  0
  3 14  1  0
  4 15  1  0
  4 16  1  0
  6 17  1  0
  7 18  1  0
  7 19  1  0
  9 20  1  0
  9 21  1  0
M  END
