
     RDKit          3D

 19 20  0  0  0  0  0  0  0  0999 V2000
    1.9390    1.3993    0.0396 O   0  0  0  0  0  0  0  0  0  0  0  0
    2.0501    0.1028   -0.3682 C   0  0  0  0  0  0  0  0  0  0  0  0
    1.2061   -0.9121    0.2917 C   0  0  0  0  0  0  0  0  0  0  0  0
   -0.2553   -0.8433    0.1995 C   0  0  0  0  0  0  0  0  0  0  0  0
   -0.8358   -0.9299   -1.0953 O   0  0  0  0  0  0  0  0  0  0  0  0
   -1.9763   -0.5525   -0.3750 C   0  0  0  0  0  0  0  0  0  0  0  0
   -2.3501    0.7550    0.0858 C   0  0  0  0  0  0  0  0  0  0  0  0
   -0.9124    0.5185    0.1192 C   0  0  0  0  0  0  0  0  0  0  0  0
   -0.3155    1.2008   -0.9911 O   0  0  0  0  0  0  0  0  0  0  0  0
    2.7875    1.9121    0.0308 H   0  0  0  0  0  0  0  0  0  0  0  0
    1.9780    0.0116   -1.4864 H   0  0  0  0  0  0  0  0  0  0  0  0
    3.1270   -0.1876   -0.1682 H   0  0  0  0  0  0  0  0  0  0  0  0
    1.5252   -1.9049   -0.1796 H   0  0  0  0  0  0  0  0  0  0  0  0
    1.5489   -1.0600    1.3564 H   0  0  0  0  0  0  0  0  0  0  0  0
   -0.7415   -1.5284    0.9415 H   0  0  0  0  0  0  0  0  0  0  0  0
   -2.2232   -1.3580    0.3452 H   0  0  0  0  0  0  0  0  0  0  0  0
   -2.8785    1.4187   -0.6391 H   0  0  0  0  0  0  0  0  0  0  0  0
   -2.8091    0.8992    1.1104 H   0  0  0  0  0  0  0  0  0  0  0  0
   -0.8643    1.0586   -1.8075 H   0  0  0  0  0  0  0  0  0  0  0  0
  1  2  1  0
  2  3  1  0
  3  4  1  0
  4  5  1  0
  5  6  1  0
  6  7  1  0
  7  8  1  0
  8  9  1  0
  8  4  1  0
  8  6  1  0
  1 10  1  0
  2 11  1  0
  2 12  1  0
  3 13  1  0
  3 14  1  0
  4 15  1  0
  6 16  1  0
  7 17  1  0
  7 18  1  0
  9 19  1  0
M  END
