
     RDKit          3D

 23 23  0  0  0  0  0  0  0  0999 V2000
    3.1806   -1.1751    0.4891 O   0  0  0  0  0  0  0  0  0  0  0  0
    2.1904   -0.6785   -0.3307 C   0  0  0  0  0  0  0  0  0  0  0  0
    1.2433    0.1889    0.4681 C   0  0  0  0  0  0  0  0  0  0  0  0
    0.1457    0.7460   -0.4154 C   0  0  0  0  0  0  0  0  0  0  0  0
   -0.8127    1.6095    0.3348 C   0  0  0  0  0  0  0  0  0  0  0  0
   -1.9795    0.8642    0.8633 C   0  0  0  0  0  0  0  0  0  0  0  0
   -2.2186   -0.4090    0.6738 C   0  0  0  0  0  0  0  0  0  0  0  0
   -1.2992   -1.2792   -0.1300 C   0  0  0  0  0  0  0  0  0  0  0  0
   -0.6115   -0.3539   -1.1221 C   0  0  0  0  0  0  0  0  0  0  0  0
    3.9163   -0.4968    0.5255 H   0  0  0  0  0  0  0  0  0  0  0  0
    1.5865   -1.4885   -0.8115 H   0  0  0  0  0  0  0  0  0  0  0  0
    2.5785   -0.0575   -1.1614 H   0  0  0  0  0  0  0  0  0  0  0  0
    1.7860    1.0371    0.9229 H   0  0  0  0  0  0  0  0  0  0  0  0
    0.8482   -0.4380    1.2940 H   0  0  0  0  0  0  0  0  0  0  0  0
    0.6500    1.3408   -1.2060 H   0  0  0  0  0  0  0  0  0  0  0  0
   -0.2764    2.1507    1.1660 H   0  0  0  0  0  0  0  0  0  0  0  0
   -1.2064    2.4376   -0.3231 H   0  0  0  0  0  0  0  0  0  0  0  0
   -2.6932    1.4290    1.4578 H   0  0  0  0  0  0  0  0  0  0  0  0
   -3.0981   -0.8919    1.0932 H   0  0  0  0  0  0  0  0  0  0  0  0
   -0.5690   -1.8120    0.5049 H   0  0  0  0  0  0  0  0  0  0  0  0
   -1.8696   -2.0114   -0.7437 H   0  0  0  0  0  0  0  0  0  0  0  0
   -0.0370   -0.8763   -1.8820 H   0  0  0  0  0  0  0  0  0  0  0  0
   -1.4543    0.1642   -1.6674 H   0  0  0  0  0  0  0  0  0  0  0  0
  1  2  1  0
  2  3  1  0
  3  4  1  0
  4  5  1  0
  5  6  1  0
  6  7  2  0
  7  8  1  0
  8  9  1  0
  9  4  1  0
  1 10  1  0
  2 11  1  0
  2 12  1  0
  3 13  1  0
  3 14  1  0
  4 15  1  0
  5 16  1  0
  5 17  1  0
  6 18  1  0
  7 19  1  0
  8 20  1  0
  8 21  1  0
  9 22  1  0
  9 23  1  0
M  END
