
     RDKit          3D

 21 21  0  0  0  0  0  0  0  0999 V2000
    3.4039    0.3153   -0.9873 O   0  0  0  0  0  0  0  0  0  0  0  0
    2.1259    0.8898   -0.8591 C   0  0  0  0  0  0  0  0  0  0  0  0
    1.3194   -0.0524   -0.0002 C   0  0  0  0  0  0  0  0  0  0  0  0
   -0.0897    0.4420    0.2240 C   0  0  0  0  0  0  0  0  0  0  0  0
   -0.8330   -0.5544    1.0920 C   0  0  0  0  0  0  0  0  0  0  0  0
   -1.5799   -1.0606   -0.1268 C   0  0  0  0  0  0  0  0  0  0  0  0
   -2.9438   -1.0519    0.1233 O   0  0  0  0  0  0  0  0  0  0  0  0
   -1.0659    0.1498   -0.8764 C   0  0  0  0  0  0  0  0  0  0  0  0
   -2.0573    1.0666   -1.0898 O   0  0  0  0  0  0  0  0  0  0  0  0
    3.4020   -0.6414   -0.7305 H   0  0  0  0  0  0  0  0  0  0  0  0
    2.2936    1.8680   -0.3510 H   0  0  0  0  0  0  0  0  0  0  0  0
    1.6922    1.0592   -1.8506 H   0  0  0  0  0  0  0  0  0  0  0  0
    1.8175   -0.0989    0.9916 H   0  0  0  0  0  0  0  0  0  0  0  0
    1.3602   -1.0428   -0.4696 H   0  0  0  0  0  0  0  0  0  0  0  0
   -0.1318    1.4810    0.5362 H   0  0  0  0  0  0  0  0  0  0  0  0
   -0.2154   -1.3733    1.5076 H   0  0  0  0  0  0  0  0  0  0  0  0
   -1.4642   -0.0942    1.8700 H   0  0  0  0  0  0  0  0  0  0  0  0
   -1.1830   -2.0036   -0.5548 H   0  0  0  0  0  0  0  0  0  0  0  0
   -3.4928   -1.1706   -0.6731 H   0  0  0  0  0  0  0  0  0  0  0  0
   -0.5048   -0.1113   -1.8166 H   0  0  0  0  0  0  0  0  0  0  0  0
   -1.8531    1.9837   -0.8499 H   0  0  0  0  0  0  0  0  0  0  0  0
  1  2  1  0
  2  3  1  0
  3  4  1  0
  4  5  1  0
  5  6  1  0
  6  7  1  0
  6  8  1  0
  8  9  1  0
  8  4  1  0
  1 10  1  0
  2 11  1  0
  2 12  1  0
  3 13  1  0
  3 14  1  0
  4 15  1  0
  5 16  1  0
  5 17  1  0
  6 18  1  0
  7 19  1  0
  8 20  1  0
  9 21  1  0
M  END
