
     RDKit          3D

 21 21  0  0  0  0  0  0  0  0999 V2000
    2.7829   -0.4912   -0.1712 O   0  0  0  0  0  0  0  0  0  0  0  0
    1.9564    0.2985   -0.9808 C   0  0  0  0  0  0  0  0  0  0  0  0
    1.0634    1.1793   -0.1681 C   0  0  0  0  0  0  0  0  0  0  0  0
    0.1392    0.4539    0.7606 C   0  0  0  0  0  0  0  0  0  0  0  0
   -0.8001   -0.4780    0.0898 C   0  0  0  0  0  0  0  0  0  0  0  0
   -0.1901   -1.4764   -0.6205 O   0  0  0  0  0  0  0  0  0  0  0  0
   -1.9013   -0.9096    1.0301 C   0  0  0  0  0  0  0  0  0  0  0  0
   -2.8266   -0.6015    0.0624 O   0  0  0  0  0  0  0  0  0  0  0  0
   -1.9331    0.1614   -0.6845 C   0  0  0  0  0  0  0  0  0  0  0  0
    2.8909   -0.0938    0.7220 H   0  0  0  0  0  0  0  0  0  0  0  0
    1.4739   -0.3042   -1.7475 H   0  0  0  0  0  0  0  0  0  0  0  0
    2.6601    0.9829   -1.5379 H   0  0  0  0  0  0  0  0  0  0  0  0
    1.7167    1.9025    0.3679 H   0  0  0  0  0  0  0  0  0  0  0  0
    0.4034    1.7223   -0.9034 H   0  0  0  0  0  0  0  0  0  0  0  0
   -0.3546    1.2153    1.3977 H   0  0  0  0  0  0  0  0  0  0  0  0
    0.7566   -0.1593    1.4798 H   0  0  0  0  0  0  0  0  0  0  0  0
   -0.0296   -2.2369    0.0107 H   0  0  0  0  0  0  0  0  0  0  0  0
   -2.0167   -0.2481    1.9193 H   0  0  0  0  0  0  0  0  0  0  0  0
   -1.7945   -1.9866    1.2929 H   0  0  0  0  0  0  0  0  0  0  0  0
   -2.0291    1.2529   -0.5781 H   0  0  0  0  0  0  0  0  0  0  0  0
   -1.9678   -0.1835   -1.7413 H   0  0  0  0  0  0  0  0  0  0  0  0
  1  2  1  0
  2  3  1  0
  3  4  1  0
  4  5  1  0
  5  6  1  0
  5  7  1  0
  7  8  1  0
  8  9  1  0
  9  5  1  0
  1 10  1  0
  2 11  1  0
  2 12  1  0
  3 13  1  0
  3 14  1  0
  4 15  1  0
  4 16  1  0
  6 17  1  0
  7 18  1  0
  7 19  1  0
  9 20  1  0
  9 21  1  0
M  END
