
     RDKit          3D

 20 20  0  0  0  0  0  0  0  0999 V2000
    2.8808    0.9302   -0.1019 O   0  0  0  0  0  0  0  0  0  0  0  0
    2.3651   -0.3011   -0.4634 C   0  0  0  0  0  0  0  0  0  0  0  0
    1.1545   -0.6893    0.3382 C   0  0  0  0  0  0  0  0  0  0  0  0
    0.0174    0.2731    0.2052 C   0  0  0  0  0  0  0  0  0  0  0  0
   -1.1240   -0.2556    1.0697 C   0  0  0  0  0  0  0  0  0  0  0  0
   -2.3075   -0.2012    0.0963 C   0  0  0  0  0  0  0  0  0  0  0  0
   -1.7927    0.8639   -0.8756 C   0  0  0  0  0  0  0  0  0  0  0  0
   -0.4763    0.3947   -1.0734 O   0  0  0  0  0  0  0  0  0  0  0  0
    3.5204    0.8168    0.6544 H   0  0  0  0  0  0  0  0  0  0  0  0
    3.1536   -1.0707   -0.2345 H   0  0  0  0  0  0  0  0  0  0  0  0
    2.1925   -0.3836   -1.5560 H   0  0  0  0  0  0  0  0  0  0  0  0
    1.4137   -0.7847    1.3923 H   0  0  0  0  0  0  0  0  0  0  0  0
    0.8122   -1.6740   -0.0265 H   0  0  0  0  0  0  0  0  0  0  0  0
    0.2873    1.3006    0.5515 H   0  0  0  0  0  0  0  0  0  0  0  0
   -1.3565    0.4189    1.8962 H   0  0  0  0  0  0  0  0  0  0  0  0
   -0.9761   -1.3051    1.3459 H   0  0  0  0  0  0  0  0  0  0  0  0
   -3.2307    0.1341    0.6048 H   0  0  0  0  0  0  0  0  0  0  0  0
   -2.4035   -1.1841   -0.3970 H   0  0  0  0  0  0  0  0  0  0  0  0
   -2.3701    0.9067   -1.7943 H   0  0  0  0  0  0  0  0  0  0  0  0
   -1.7599    1.8107   -0.3026 H   0  0  0  0  0  0  0  0  0  0  0  0
  1  2  1  0
  2  3  1  0
  3  4  1  0
  4  5  1  0
  5  6  1  0
  6  7  1  0
  7  8  1  0
  8  4  1  0
  1  9  1  0
  2 10  1  0
  2 11  1  0
  3 12  1  0
  3 13  1  0
  4 14  1  0
  5 15  1  0
  5 16  1  0
  6 17  1  0
  6 18  1  0
  7 19  1  0
  7 20  1  0
M  END
