
     RDKit          3D

 23 23  0  0  0  0  0  0  0  0999 V2000
    3.4662   -0.8733   -0.8407 O   0  0  0  0  0  0  0  0  0  0  0  0
    2.4522   -0.1630   -0.2367 C   0  0  0  0  0  0  0  0  0  0  0  0
    1.1492   -0.9499   -0.2087 C   0  0  0  0  0  0  0  0  0  0  0  0
    0.0871   -0.1160    0.4639 C   0  0  0  0  0  0  0  0  0  0  0  0
   -0.1365    1.1962   -0.2959 C   0  0  0  0  0  0  0  0  0  0  0  0
   -1.4618    1.6336    0.3278 C   0  0  0  0  0  0  0  0  0  0  0  0
   -2.2705    0.3716    0.2030 C   0  0  0  0  0  0  0  0  0  0  0  0
   -1.2629   -0.7397    0.4378 C   0  0  0  0  0  0  0  0  0  0  0  0
   -1.4964   -1.4053    1.6320 O   0  0  0  0  0  0  0  0  0  0  0  0
    4.0960   -1.1535   -0.1150 H   0  0  0  0  0  0  0  0  0  0  0  0
    2.2531    0.7309   -0.8883 H   0  0  0  0  0  0  0  0  0  0  0  0
    2.6926    0.2209    0.7651 H   0  0  0  0  0  0  0  0  0  0  0  0
    0.8329   -1.2437   -1.2280 H   0  0  0  0  0  0  0  0  0  0  0  0
    1.2921   -1.8555    0.3965 H   0  0  0  0  0  0  0  0  0  0  0  0
    0.4100    0.1377    1.4838 H   0  0  0  0  0  0  0  0  0  0  0  0
   -0.3603    0.9959   -1.3619 H   0  0  0  0  0  0  0  0  0  0  0  0
    0.6614    1.9160   -0.1254 H   0  0  0  0  0  0  0  0  0  0  0  0
   -1.9006    2.4980   -0.1823 H   0  0  0  0  0  0  0  0  0  0  0  0
   -1.2364    1.8131    1.4047 H   0  0  0  0  0  0  0  0  0  0  0  0
   -3.1000    0.3196    0.9438 H   0  0  0  0  0  0  0  0  0  0  0  0
   -2.6547    0.2564   -0.8335 H   0  0  0  0  0  0  0  0  0  0  0  0
   -1.3069   -1.4956   -0.3867 H   0  0  0  0  0  0  0  0  0  0  0  0
   -2.2059   -2.0943    1.5411 H   0  0  0  0  0  0  0  0  0  0  0  0
  1  2  1  0
  2  3  1  0
  3  4  1  0
  4  5  1  0
  5  6  1  0
  6  7  1  0
  7  8  1  0
  8  9  1  0
  8  4  1  0
  1 10  1  0
  2 11  1  0
  2 12  1  0
  3 13  1  0
  3 14  1  0
  4 15  1  0
  5 16  1  0
  5 17  1  0
  6 18  1  0
  6 19  1  0
  7 20  1  0
  7 21  1  0
  8 22  1  0
  9 23  1  0
M  END
