
     RDKit          3D

 21 22  0  0  0  0  0  0  0  0999 V2000
    3.6574   -0.0626    0.3201 O   0  0  0  0  0  0  0  0  0  0  0  0
    2.3808    0.0116   -0.2370 C   0  0  0  0  0  0  0  0  0  0  0  0
    1.3922   -0.2959    0.8657 C   0  0  0  0  0  0  0  0  0  0  0  0
   -0.0073   -0.2441    0.3788 C   0  0  0  0  0  0  0  0  0  0  0  0
   -0.9279   -1.2312    0.3780 C   0  0  0  0  0  0  0  0  0  0  0  0
   -2.1050   -0.5954   -0.2064 C   0  0  0  0  0  0  0  0  0  0  0  0
   -2.0965    0.7725    0.4926 C   0  0  0  0  0  0  0  0  0  0  0  0
   -0.7500    0.8835   -0.2239 C   0  0  0  0  0  0  0  0  0  0  0  0
   -1.4751    0.1762   -1.3773 C   0  0  0  0  0  0  0  0  0  0  0  0
    4.3495    0.1952   -0.3187 H   0  0  0  0  0  0  0  0  0  0  0  0
    2.1982    1.0175   -0.6860 H   0  0  0  0  0  0  0  0  0  0  0  0
    2.3593   -0.7693   -1.0456 H   0  0  0  0  0  0  0  0  0  0  0  0
    1.5503    0.4511    1.6580 H   0  0  0  0  0  0  0  0  0  0  0  0
    1.5889   -1.3294    1.2028 H   0  0  0  0  0  0  0  0  0  0  0  0
   -0.8526   -2.2540    0.7173 H   0  0  0  0  0  0  0  0  0  0  0  0
   -3.0168   -1.0815   -0.3556 H   0  0  0  0  0  0  0  0  0  0  0  0
   -2.8423    1.4860    0.0605 H   0  0  0  0  0  0  0  0  0  0  0  0
   -2.0452    0.7268    1.5801 H   0  0  0  0  0  0  0  0  0  0  0  0
   -0.3211    1.8205   -0.3849 H   0  0  0  0  0  0  0  0  0  0  0  0
   -2.2192    0.7838   -1.8941 H   0  0  0  0  0  0  0  0  0  0  0  0
   -0.8174   -0.4613   -1.9872 H   0  0  0  0  0  0  0  0  0  0  0  0
  1  2  1  0
  2  3  1  0
  3  4  1  0
  4  5  2  0
  5  6  1  0
  6  7  1  0
  7  8  1  0
  8  9  1  0
  8  4  1  0
  9  6  1  0
  1 10  1  0
  2 11  1  0
  2 12  1  0
  3 13  1  0
  3 14  1  0
  5 15  1  0
  6 16  1  0
  7 17  1  0
  7 18  1  0
  8 19  1  0
  9 20  1  0
  9 21  1  0
M  END
