
     RDKit          3D

 19 20  0  0  0  0  0  0  0  0999 V2000
    3.4209   -0.2828    0.0260 O   0  0  0  0  0  0  0  0  0  0  0  0
    2.1438   -0.4412   -0.5238 C   0  0  0  0  0  0  0  0  0  0  0  0
    1.1692    0.2006    0.3957 C   0  0  0  0  0  0  0  0  0  0  0  0
   -0.2607    0.1052   -0.0761 C   0  0  0  0  0  0  0  0  0  0  0  0
   -1.3319    0.7255    0.7852 C   0  0  0  0  0  0  0  0  0  0  0  0
   -2.5793    0.2263    0.1658 C   0  0  0  0  0  0  0  0  0  0  0  0
   -2.3183   -0.5981   -0.8328 C   0  0  0  0  0  0  0  0  0  0  0  0
   -0.8504   -0.7172   -0.9623 C   0  0  0  0  0  0  0  0  0  0  0  0
   -0.3404    0.6047   -1.4709 O   0  0  0  0  0  0  0  0  0  0  0  0
    3.7438    0.6257   -0.1999 H   0  0  0  0  0  0  0  0  0  0  0  0
    1.9971   -1.5237   -0.6623 H   0  0  0  0  0  0  0  0  0  0  0  0
    2.1771    0.0660   -1.5156 H   0  0  0  0  0  0  0  0  0  0  0  0
    1.2134   -0.3207    1.3803 H   0  0  0  0  0  0  0  0  0  0  0  0
    1.4482    1.2682    0.5143 H   0  0  0  0  0  0  0  0  0  0  0  0
   -1.2619    0.3153    1.8094 H   0  0  0  0  0  0  0  0  0  0  0  0
   -1.2793    1.8377    0.7864 H   0  0  0  0  0  0  0  0  0  0  0  0
   -3.5846    0.5333    0.5284 H   0  0  0  0  0  0  0  0  0  0  0  0
   -3.0972   -1.0712   -1.4154 H   0  0  0  0  0  0  0  0  0  0  0  0
   -0.4096   -1.5533   -1.5365 H   0  0  0  0  0  0  0  0  0  0  0  0
  1  2  1  0
  2  3  1  0
  3  4  1  0
  4  5  1  0
  5  6  1  0
  6  7  2  0
  7  8  1  0
  8  9  1  0
  8  4  1  0
  9  4  1  0
  1 10  1  0
  2 11  1  0
  2 12  1  0
  3 13  1  0
  3 14  1  0
  5 15  1  0
  5 16  1  0
  6 17  1  0
  7 18  1  0
  8 19  1  0
M  END
