
     RDKit          3D

 20 21  0  0  0  0  0  0  0  0999 V2000
   -2.1440    0.6203    0.6887 O   0  0  0  0  0  0  0  0  0  0  0  0
   -1.8516   -0.6948    0.4473 C   0  0  0  0  0  0  0  0  0  0  0  0
   -1.1101   -0.9598   -0.8163 C   0  0  0  0  0  0  0  0  0  0  0  0
    0.2127   -0.3010   -0.9355 C   0  0  0  0  0  0  0  0  0  0  0  0
    0.3258    1.1607   -0.8868 C   0  0  0  0  0  0  0  0  0  0  0  0
    1.4715    1.1262    0.0947 C   0  0  0  0  0  0  0  0  0  0  0  0
    2.4978    0.0636    0.0414 C   0  0  0  0  0  0  0  0  0  0  0  0
    1.1052   -0.3812    0.2806 C   0  0  0  0  0  0  0  0  0  0  0  0
   -2.8838    0.9464    0.1039 H   0  0  0  0  0  0  0  0  0  0  0  0
   -1.3400   -1.1491    1.3419 H   0  0  0  0  0  0  0  0  0  0  0  0
   -2.8232   -1.2461    0.3777 H   0  0  0  0  0  0  0  0  0  0  0  0
   -0.9519   -2.0569   -0.8954 H   0  0  0  0  0  0  0  0  0  0  0  0
   -1.7376   -0.6707   -1.6706 H   0  0  0  0  0  0  0  0  0  0  0  0
    0.7710   -0.7230   -1.8105 H   0  0  0  0  0  0  0  0  0  0  0  0
   -0.4893    1.7669   -0.4984 H   0  0  0  0  0  0  0  0  0  0  0  0
    0.6968    1.6258   -1.8438 H   0  0  0  0  0  0  0  0  0  0  0  0
    1.4050    1.7444    1.0178 H   0  0  0  0  0  0  0  0  0  0  0  0
    3.1761    0.0032    0.9015 H   0  0  0  0  0  0  0  0  0  0  0  0
    2.9597   -0.2335   -0.9181 H   0  0  0  0  0  0  0  0  0  0  0  0
    0.7097   -0.6414    1.2565 H   0  0  0  0  0  0  0  0  0  0  0  0
  1  2  1  0
  2  3  1  0
  3  4  1  0
  4  5  1  0
  5  6  1  0
  6  7  1  0
  7  8  1  0
  8  4  1  0
  8  6  1  0
  1  9  1  0
  2 10  1  0
  2 11  1  0
  3 12  1  0
  3 13  1  0
  4 14  1  0
  5 15  1  0
  5 16  1  0
  6 17  1  0
  7 18  1  0
  7 19  1  0
  8 20  1  0
M  END
