
     RDKit          3D

 21 21  0  0  0  0  0  0  0  0999 V2000
    2.4713    1.3436   -0.0554 O   0  0  0  0  0  0  0  0  0  0  0  0
    2.4815   -0.0418   -0.1953 C   0  0  0  0  0  0  0  0  0  0  0  0
    1.5279   -0.7108    0.7701 C   0  0  0  0  0  0  0  0  0  0  0  0
    0.1590   -0.2258    0.5136 C   0  0  0  0  0  0  0  0  0  0  0  0
   -0.6289    0.4078    1.3660 C   0  0  0  0  0  0  0  0  0  0  0  0
   -1.9440    0.7270    0.7058 C   0  0  0  0  0  0  0  0  0  0  0  0
   -1.9993   -0.4076   -0.3283 C   0  0  0  0  0  0  0  0  0  0  0  0
   -2.8742   -0.0966   -1.3657 O   0  0  0  0  0  0  0  0  0  0  0  0
   -0.5530   -0.3877   -0.7881 C   0  0  0  0  0  0  0  0  0  0  0  0
    2.5379    1.7234   -0.9880 H   0  0  0  0  0  0  0  0  0  0  0  0
    3.5081   -0.4283   -0.0092 H   0  0  0  0  0  0  0  0  0  0  0  0
    2.2164   -0.3593   -1.2245 H   0  0  0  0  0  0  0  0  0  0  0  0
    1.6392   -1.8099    0.6173 H   0  0  0  0  0  0  0  0  0  0  0  0
    1.7865   -0.5167    1.8196 H   0  0  0  0  0  0  0  0  0  0  0  0
   -0.3868    0.6674    2.3857 H   0  0  0  0  0  0  0  0  0  0  0  0
   -1.9177    1.6649    0.1505 H   0  0  0  0  0  0  0  0  0  0  0  0
   -2.7588    0.6377    1.4407 H   0  0  0  0  0  0  0  0  0  0  0  0
   -2.2186   -1.3721    0.1531 H   0  0  0  0  0  0  0  0  0  0  0  0
   -2.3345   -0.0727   -2.2188 H   0  0  0  0  0  0  0  0  0  0  0  0
   -0.2625   -1.2875   -1.3349 H   0  0  0  0  0  0  0  0  0  0  0  0
   -0.4495    0.5450   -1.4141 H   0  0  0  0  0  0  0  0  0  0  0  0
  1  2  1  0
  2  3  1  0
  3  4  1  0
  4  5  2  0
  5  6  1  0
  6  7  1  0
  7  8  1  0
  7  9  1  0
  9  4  1  0
  1 10  1  0
  2 11  1  0
  2 12  1  0
  3 13  1  0
  3 14  1  0
  5 15  1  0
  6 16  1  0
  6 17  1  0
  7 18  1  0
  8 19  1  0
  9 20  1  0
  9 21  1  0
M  END
