
     RDKit          3D

 20 20  0  0  0  0  0  0  0  0999 V2000
    2.8823   -0.3396    0.7074 O   0  0  0  0  0  0  0  0  0  0  0  0
    2.4619    0.4238   -0.3873 C   0  0  0  0  0  0  0  0  0  0  0  0
    1.0252    0.8456   -0.0714 C   0  0  0  0  0  0  0  0  0  0  0  0
    0.2239   -0.4009    0.0898 C   0  0  0  0  0  0  0  0  0  0  0  0
   -1.2201   -0.1606    0.4054 C   0  0  0  0  0  0  0  0  0  0  0  0
   -2.0250    0.6071   -0.5709 C   0  0  0  0  0  0  0  0  0  0  0  0
   -3.0851   -0.3006   -0.3356 O   0  0  0  0  0  0  0  0  0  0  0  0
   -2.0798   -1.2805   -0.1689 C   0  0  0  0  0  0  0  0  0  0  0  0
    2.8959    0.1844    1.5373 H   0  0  0  0  0  0  0  0  0  0  0  0
    3.1174    1.2800   -0.5488 H   0  0  0  0  0  0  0  0  0  0  0  0
    2.4500   -0.2860   -1.2563 H   0  0  0  0  0  0  0  0  0  0  0  0
    1.0720    1.4286    0.8559 H   0  0  0  0  0  0  0  0  0  0  0  0
    0.6426    1.4288   -0.9409 H   0  0  0  0  0  0  0  0  0  0  0  0
    0.3681   -1.0537   -0.7961 H   0  0  0  0  0  0  0  0  0  0  0  0
    0.6488   -0.9870    0.9523 H   0  0  0  0  0  0  0  0  0  0  0  0
   -1.4527    0.0821    1.4400 H   0  0  0  0  0  0  0  0  0  0  0  0
   -1.7535    0.5554   -1.6292 H   0  0  0  0  0  0  0  0  0  0  0  0
   -2.2387    1.6340   -0.1876 H   0  0  0  0  0  0  0  0  0  0  0  0
   -1.6277   -1.6020   -1.1366 H   0  0  0  0  0  0  0  0  0  0  0  0
   -2.3056   -2.0588    0.5553 H   0  0  0  0  0  0  0  0  0  0  0  0
  1  2  1  0
  2  3  1  0
  3  4  1  0
  4  5  1  0
  5  6  1  0
  6  7  1  0
  7  8  1  0
  8  5  1  0
  1  9  1  0
  2 10  1  0
  2 11  1  0
  3 12  1  0
  3 13  1  0
  4 14  1  0
  4 15  1  0
  5 16  1  0
  6 17  1  0
  6 18  1  0
  8 19  1  0
  8 20  1  0
M  END
