
     RDKit          3D

 21 21  0  0  0  0  0  0  0  0999 V2000
   -3.0396    0.7309    0.8583 O   0  0  0  0  0  0  0  0  0  0  0  0
   -2.6118   -0.5346    0.4991 C   0  0  0  0  0  0  0  0  0  0  0  0
   -1.6283   -0.5302   -0.6293 C   0  0  0  0  0  0  0  0  0  0  0  0
   -0.3740    0.2472   -0.3117 C   0  0  0  0  0  0  0  0  0  0  0  0
    0.3636   -0.3112    0.8863 C   0  0  0  0  0  0  0  0  0  0  0  0
    1.5743   -0.4024   -0.0088 C   0  0  0  0  0  0  0  0  0  0  0  0
    2.5284    0.7588    0.2981 C   0  0  0  0  0  0  0  0  0  0  0  0
    3.3462    1.0253   -0.7919 O   0  0  0  0  0  0  0  0  0  0  0  0
    0.7403   -0.1496   -1.0871 O   0  0  0  0  0  0  0  0  0  0  0  0
   -3.1355    1.2859    0.0448 H   0  0  0  0  0  0  0  0  0  0  0  0
   -2.1776   -1.0241    1.3939 H   0  0  0  0  0  0  0  0  0  0  0  0
   -3.4710   -1.1651    0.1886 H   0  0  0  0  0  0  0  0  0  0  0  0
   -2.0914   -0.2305   -1.5774 H   0  0  0  0  0  0  0  0  0  0  0  0
   -1.3010   -1.5968   -0.7728 H   0  0  0  0  0  0  0  0  0  0  0  0
   -0.4837    1.3385   -0.3291 H   0  0  0  0  0  0  0  0  0  0  0  0
    0.4172    0.4087    1.7068 H   0  0  0  0  0  0  0  0  0  0  0  0
    0.0183   -1.3398    1.1732 H   0  0  0  0  0  0  0  0  0  0  0  0
    2.0920   -1.3776   -0.0046 H   0  0  0  0  0  0  0  0  0  0  0  0
    1.9129    1.6692    0.5322 H   0  0  0  0  0  0  0  0  0  0  0  0
    3.0849    0.5352    1.2240 H   0  0  0  0  0  0  0  0  0  0  0  0
    4.2358    0.6622   -0.5790 H   0  0  0  0  0  0  0  0  0  0  0  0
  1  2  1  0
  2  3  1  0
  3  4  1  0
  4  5  1  0
  5  6  1  0
  6  7  1  0
  7  8  1  0
  6  9  1  0
  9  4  1  0
  1 10  1  0
  2 11  1  0
  2 12  1  0
  3 13  1  0
  3 14  1  0
  4 15  1  0
  5 16  1  0
  5 17  1  0
  6 18  1  0
  7 19  1  0
  7 20  1  0
  8 21  1  0
M  END
