
     RDKit          3D

 18 17  0  0  0  0  0  0  0  0999 V2000
    3.7148    1.7595   -0.8617 O   0  0  0  0  0  0  0  0  0  0  0  0
    2.3379    1.6018   -0.7310 C   0  0  0  0  0  0  0  0  0  0  0  0
    2.0649    0.4177    0.1842 C   0  0  0  0  0  0  0  0  0  0  0  0
    0.6237    0.2279    0.3402 C   0  0  0  0  0  0  0  0  0  0  0  0
   -0.5770    0.0590    0.4518 C   0  0  0  0  0  0  0  0  0  0  0  0
   -2.0226   -0.1659    0.6008 C   0  0  0  0  0  0  0  0  0  0  0  0
   -2.3349   -1.4684   -0.1044 C   0  0  0  0  0  0  0  0  0  0  0  0
   -3.7016   -1.6886    0.0320 O   0  0  0  0  0  0  0  0  0  0  0  0
    4.1294    1.4316   -0.0474 H   0  0  0  0  0  0  0  0  0  0  0  0
    1.9059    2.5004   -0.2203 H   0  0  0  0  0  0  0  0  0  0  0  0
    1.8180    1.4984   -1.6921 H   0  0  0  0  0  0  0  0  0  0  0  0
    2.5534    0.6865    1.1650 H   0  0  0  0  0  0  0  0  0  0  0  0
    2.5391   -0.5063   -0.1876 H   0  0  0  0  0  0  0  0  0  0  0  0
   -2.6088    0.6226    0.0925 H   0  0  0  0  0  0  0  0  0  0  0  0
   -2.3216   -0.1759    1.6587 H   0  0  0  0  0  0  0  0  0  0  0  0
   -1.7722   -2.3220    0.3097 H   0  0  0  0  0  0  0  0  0  0  0  0
   -2.1318   -1.3263   -1.1869 H   0  0  0  0  0  0  0  0  0  0  0  0
   -4.2167   -0.8596    0.1964 H   0  0  0  0  0  0  0  0  0  0  0  0
  1  2  1  0
  2  3  1  0
  3  4  1  0
  4  5  3  0
  5  6  1  0
  6  7  1  0
  7  8  1  0
  1  9  1  0
  2 10  1  0
  2 11  1  0
  3 12  1  0
  3 13  1  0
  6 14  1  0
  6 15  1  0
  7 16  1  0
  7 17  1  0
  8 18  1  0
M  END
