
     RDKit          3D

 21 22  0  0  0  0  0  0  0  0999 V2000
    3.1582   -0.0011   -0.3406 O   0  0  0  0  0  0  0  0  0  0  0  0
    2.3627   -0.2029    0.8034 C   0  0  0  0  0  0  0  0  0  0  0  0
    1.0530    0.5214    0.5451 C   0  0  0  0  0  0  0  0  0  0  0  0
    0.3327    0.0138   -0.6513 C   0  0  0  0  0  0  0  0  0  0  0  0
   -0.1135   -1.4079   -0.7570 C   0  0  0  0  0  0  0  0  0  0  0  0
   -1.0639   -0.3419   -0.5631 C   0  0  0  0  0  0  0  0  0  0  0  0
   -1.9786   -0.1540    0.5688 C   0  0  0  0  0  0  0  0  0  0  0  0
   -2.5386    0.8826   -0.4166 C   0  0  0  0  0  0  0  0  0  0  0  0
   -2.0424    0.0479   -1.4402 O   0  0  0  0  0  0  0  0  0  0  0  0
    3.1199    0.9851   -0.5471 H   0  0  0  0  0  0  0  0  0  0  0  0
    2.2314   -1.2682    1.0061 H   0  0  0  0  0  0  0  0  0  0  0  0
    2.8537    0.3492    1.6387 H   0  0  0  0  0  0  0  0  0  0  0  0
    0.3944    0.4333    1.4322 H   0  0  0  0  0  0  0  0  0  0  0  0
    1.3346    1.5888    0.3506 H   0  0  0  0  0  0  0  0  0  0  0  0
    0.6872    0.4434   -1.6305 H   0  0  0  0  0  0  0  0  0  0  0  0
    0.0062   -1.9765   -1.7018 H   0  0  0  0  0  0  0  0  0  0  0  0
    0.1450   -2.0360    0.1348 H   0  0  0  0  0  0  0  0  0  0  0  0
   -2.7542   -0.9518    0.7229 H   0  0  0  0  0  0  0  0  0  0  0  0
   -1.6328    0.2590    1.5109 H   0  0  0  0  0  0  0  0  0  0  0  0
   -1.9355    1.8141   -0.2726 H   0  0  0  0  0  0  0  0  0  0  0  0
   -3.6196    1.0017   -0.3927 H   0  0  0  0  0  0  0  0  0  0  0  0
  1  2  1  0
  2  3  1  0
  3  4  1  0
  4  5  1  0
  5  6  1  0
  6  7  1  0
  7  8  1  0
  8  9  1  0
  6  4  1  0
  9  6  1  0
  1 10  1  0
  2 11  1  0
  2 12  1  0
  3 13  1  0
  3 14  1  0
  4 15  1  0
  5 16  1  0
  5 17  1  0
  7 18  1  0
  7 19  1  0
  8 20  1  0
  8 21  1  0
M  END
