
     RDKit          3D

 23 23  0  0  0  0  0  0  0  0999 V2000
    3.7647   -0.2841    1.2493 O   0  0  0  0  0  0  0  0  0  0  0  0
    2.9721    0.1342    0.2076 C   0  0  0  0  0  0  0  0  0  0  0  0
    1.4777    0.0143    0.5329 C   0  0  0  0  0  0  0  0  0  0  0  0
    0.7446    0.5053   -0.6928 C   0  0  0  0  0  0  0  0  0  0  0  0
   -0.7380    0.4611   -0.5585 C   0  0  0  0  0  0  0  0  0  0  0  0
   -1.3979    1.2464    0.5235 C   0  0  0  0  0  0  0  0  0  0  0  0
   -1.4176   -0.2357    0.5597 C   0  0  0  0  0  0  0  0  0  0  0  0
   -2.6511   -1.0167    0.1954 C   0  0  0  0  0  0  0  0  0  0  0  0
   -3.2266   -1.6387    1.3001 O   0  0  0  0  0  0  0  0  0  0  0  0
    4.3452   -1.0248    0.9019 H   0  0  0  0  0  0  0  0  0  0  0  0
    3.1067   -0.4815   -0.7252 H   0  0  0  0  0  0  0  0  0  0  0  0
    3.2053    1.1892   -0.0439 H   0  0  0  0  0  0  0  0  0  0  0  0
    1.2642   -1.0353    0.7694 H   0  0  0  0  0  0  0  0  0  0  0  0
    1.3044    0.6617    1.4114 H   0  0  0  0  0  0  0  0  0  0  0  0
    1.0513    1.5525   -0.8788 H   0  0  0  0  0  0  0  0  0  0  0  0
    1.0443   -0.1324   -1.5483 H   0  0  0  0  0  0  0  0  0  0  0  0
   -1.2786    0.5126   -1.5436 H   0  0  0  0  0  0  0  0  0  0  0  0
   -2.4004    1.7221    0.3476 H   0  0  0  0  0  0  0  0  0  0  0  0
   -0.7430    1.7711    1.2533 H   0  0  0  0  0  0  0  0  0  0  0  0
   -0.8098   -0.7128    1.3596 H   0  0  0  0  0  0  0  0  0  0  0  0
   -2.3547   -1.7661   -0.5726 H   0  0  0  0  0  0  0  0  0  0  0  0
   -3.4370   -0.3824   -0.2880 H   0  0  0  0  0  0  0  0  0  0  0  0
   -3.8259   -1.0599    1.8024 H   0  0  0  0  0  0  0  0  0  0  0  0
  1  2  1  0
  2  3  1  0
  3  4  1  0
  4  5  1  0
  5  6  1  0
  6  7  1  0
  7  8  1  0
  8  9  1  0
  7  5  1  0
  1 10  1  0
  2 11  1  0
  2 12  1  0
  3 13  1  0
  3 14  1  0
  4 15  1  0
  4 16  1  0
  5 17  1  0
  6 18  1  0
  6 19  1  0
  7 20  1  0
  8 21  1  0
  8 22  1  0
  9 23  1  0
M  END
