
     RDKit          3D

 21 20  0  0  0  0  0  0  0  0999 V2000
    3.0564    0.9243    0.0505 O   0  0  0  0  0  0  0  0  0  0  0  0
    1.7972    0.8384    0.6528 C   0  0  0  0  0  0  0  0  0  0  0  0
    0.9523   -0.0553   -0.2168 C   0  0  0  0  0  0  0  0  0  0  0  0
   -0.4467   -0.2322    0.3286 C   0  0  0  0  0  0  0  0  0  0  0  0
   -0.3734   -0.7996    1.5903 O   0  0  0  0  0  0  0  0  0  0  0  0
   -1.1886   -1.1128   -0.6574 C   0  0  0  0  0  0  0  0  0  0  0  0
   -0.4680   -2.3172   -0.7156 O   0  0  0  0  0  0  0  0  0  0  0  0
   -1.1780    1.0835    0.4495 C   0  0  0  0  0  0  0  0  0  0  0  0
   -1.2974    1.7194   -0.7635 O   0  0  0  0  0  0  0  0  0  0  0  0
    3.1230    0.3919   -0.7752 H   0  0  0  0  0  0  0  0  0  0  0  0
    1.8881    0.4163    1.6524 H   0  0  0  0  0  0  0  0  0  0  0  0
    1.3320    1.8440    0.6336 H   0  0  0  0  0  0  0  0  0  0  0  0
    0.9705    0.2719   -1.2619 H   0  0  0  0  0  0  0  0  0  0  0  0
    1.4235   -1.0750   -0.1848 H   0  0  0  0  0  0  0  0  0  0  0  0
   -0.4676   -1.7820    1.5686 H   0  0  0  0  0  0  0  0  0  0  0  0
   -2.2456   -1.2680   -0.3816 H   0  0  0  0  0  0  0  0  0  0  0  0
   -1.0633   -0.6464   -1.6642 H   0  0  0  0  0  0  0  0  0  0  0  0
   -0.7877   -2.9048   -1.4340 H   0  0  0  0  0  0  0  0  0  0  0  0
   -2.1871    0.8493    0.8568 H   0  0  0  0  0  0  0  0  0  0  0  0
   -0.6369    1.7456    1.1582 H   0  0  0  0  0  0  0  0  0  0  0  0
   -2.2024    2.1086   -0.8865 H   0  0  0  0  0  0  0  0  0  0  0  0
  1  2  1  0
  2  3  1  0
  3  4  1  0
  4  5  1  0
  4  6  1  0
  6  7  1  0
  4  8  1  0
  8  9  1  0
  1 10  1  0
  2 11  1  0
  2 12  1  0
  3 13  1  0
  3 14  1  0
  5 15  1  0
  6 16  1  0
  6 17  1  0
  7 18  1  0
  8 19  1  0
  8 20  1  0
  9 21  1  0
M  END
