
     RDKit          3D

 21 22  0  0  0  0  0  0  0  0999 V2000
    2.6261    1.0752   -0.9747 O   0  0  0  0  0  0  0  0  0  0  0  0
    2.1650    1.0919    0.3391 C   0  0  0  0  0  0  0  0  0  0  0  0
    1.3433   -0.1202    0.6586 C   0  0  0  0  0  0  0  0  0  0  0  0
    0.1278   -0.2733   -0.1967 C   0  0  0  0  0  0  0  0  0  0  0  0
   -0.8244    0.9291   -0.0582 C   0  0  0  0  0  0  0  0  0  0  0  0
   -2.0775    0.1184    0.2792 C   0  0  0  0  0  0  0  0  0  0  0  0
   -2.0253   -1.0997   -0.5931 C   0  0  0  0  0  0  0  0  0  0  0  0
   -0.8253   -1.3209    0.3310 C   0  0  0  0  0  0  0  0  0  0  0  0
   -1.5913   -0.6815    1.3145 O   0  0  0  0  0  0  0  0  0  0  0  0
    2.5551    0.2056   -1.4000 H   0  0  0  0  0  0  0  0  0  0  0  0
    1.6639    2.0470    0.5410 H   0  0  0  0  0  0  0  0  0  0  0  0
    3.0705    1.0554    0.9876 H   0  0  0  0  0  0  0  0  0  0  0  0
    1.9813   -1.0106    0.4783 H   0  0  0  0  0  0  0  0  0  0  0  0
    1.0306   -0.1474    1.7181 H   0  0  0  0  0  0  0  0  0  0  0  0
    0.3220   -0.4656   -1.2573 H   0  0  0  0  0  0  0  0  0  0  0  0
   -0.6096    1.5265    0.8206 H   0  0  0  0  0  0  0  0  0  0  0  0
   -0.9073    1.4547   -1.0042 H   0  0  0  0  0  0  0  0  0  0  0  0
   -2.9899    0.6455    0.4139 H   0  0  0  0  0  0  0  0  0  0  0  0
   -2.8775   -1.7497   -0.4104 H   0  0  0  0  0  0  0  0  0  0  0  0
   -1.6658   -0.9700   -1.6132 H   0  0  0  0  0  0  0  0  0  0  0  0
   -0.4918   -2.3104    0.4909 H   0  0  0  0  0  0  0  0  0  0  0  0
  1  2  1  0
  2  3  1  0
  3  4  1  0
  4  5  1  0
  5  6  1  0
  6  7  1  0
  7  8  1  0
  8  9  1  0
  8  4  1  0
  9  6  1  0
  1 10  1  0
  2 11  1  0
  2 12  1  0
  3 13  1  0
  3 14  1  0
  4 15  1  0
  5 16  1  0
  5 17  1  0
  6 18  1  0
  7 19  1  0
  7 20  1  0
  8 21  1  0
M  END
