
     RDKit          3D

 21 21  0  0  0  0  0  0  0  0999 V2000
   -3.3419    0.6797    0.1322 O   0  0  0  0  0  0  0  0  0  0  0  0
   -1.9773    0.6804    0.4965 C   0  0  0  0  0  0  0  0  0  0  0  0
   -1.3397   -0.4544   -0.2302 C   0  0  0  0  0  0  0  0  0  0  0  0
    0.1184   -0.6236    0.0249 C   0  0  0  0  0  0  0  0  0  0  0  0
    0.6393   -1.8105   -0.7740 C   0  0  0  0  0  0  0  0  0  0  0  0
    1.8198   -1.1279   -0.9104 O   0  0  0  0  0  0  0  0  0  0  0  0
    1.0775    0.0603   -0.8739 C   0  0  0  0  0  0  0  0  0  0  0  0
    1.9241    1.1188   -0.1571 C   0  0  0  0  0  0  0  0  0  0  0  0
    2.2035    0.6755    1.1355 O   0  0  0  0  0  0  0  0  0  0  0  0
   -3.5432    1.3830   -0.5187 H   0  0  0  0  0  0  0  0  0  0  0  0
   -1.9746    0.4845    1.5950 H   0  0  0  0  0  0  0  0  0  0  0  0
   -1.5601    1.6663    0.2413 H   0  0  0  0  0  0  0  0  0  0  0  0
   -1.8500   -1.3925    0.1109 H   0  0  0  0  0  0  0  0  0  0  0  0
   -1.5232   -0.3577   -1.3053 H   0  0  0  0  0  0  0  0  0  0  0  0
    0.4429   -0.5896    1.0759 H   0  0  0  0  0  0  0  0  0  0  0  0
    0.6598   -2.7614   -0.2165 H   0  0  0  0  0  0  0  0  0  0  0  0
    0.1144   -1.8757   -1.7462 H   0  0  0  0  0  0  0  0  0  0  0  0
    0.7505    0.3428   -1.8718 H   0  0  0  0  0  0  0  0  0  0  0  0
    2.8793    1.2782   -0.7093 H   0  0  0  0  0  0  0  0  0  0  0  0
    1.3047    2.0462   -0.1574 H   0  0  0  0  0  0  0  0  0  0  0  0
    3.1759    0.5777    1.3042 H   0  0  0  0  0  0  0  0  0  0  0  0
  1  2  1  0
  2  3  1  0
  3  4  1  0
  4  5  1  0
  5  6  1  0
  6  7  1  0
  7  8  1  0
  8  9  1  0
  7  4  1  0
  1 10  1  0
  2 11  1  0
  2 12  1  0
  3 13  1  0
  3 14  1  0
  4 15  1  0
  5 16  1  0
  5 17  1  0
  7 18  1  0
  8 19  1  0
  8 20  1  0
  9 21  1  0
M  END
