
     RDKit          3D

 19 20  0  0  0  0  0  0  0  0999 V2000
    3.2829   -0.0422   -0.2897 O   0  0  0  0  0  0  0  0  0  0  0  0
    1.8950   -0.2849   -0.3796 C   0  0  0  0  0  0  0  0  0  0  0  0
    1.2437    0.4415    0.7415 C   0  0  0  0  0  0  0  0  0  0  0  0
   -0.2197    0.3264    0.8418 C   0  0  0  0  0  0  0  0  0  0  0  0
   -1.0687    0.7886   -0.2744 C   0  0  0  0  0  0  0  0  0  0  0  0
   -0.6882   -0.3620   -0.9710 O   0  0  0  0  0  0  0  0  0  0  0  0
   -0.9051   -0.8671    0.3015 C   0  0  0  0  0  0  0  0  0  0  0  0
   -2.1744   -0.0461    0.2994 C   0  0  0  0  0  0  0  0  0  0  0  0
   -3.1335   -0.4167   -0.6086 O   0  0  0  0  0  0  0  0  0  0  0  0
    3.4743    0.8384    0.1051 H   0  0  0  0  0  0  0  0  0  0  0  0
    1.7968   -1.3972   -0.2309 H   0  0  0  0  0  0  0  0  0  0  0  0
    1.5983    0.0312   -1.3839 H   0  0  0  0  0  0  0  0  0  0  0  0
    1.7111    0.1236    1.6873 H   0  0  0  0  0  0  0  0  0  0  0  0
    1.5054    1.5339    0.6348 H   0  0  0  0  0  0  0  0  0  0  0  0
   -0.5911    0.6424    1.8381 H   0  0  0  0  0  0  0  0  0  0  0  0
   -1.1547    1.7112   -0.6715 H   0  0  0  0  0  0  0  0  0  0  0  0
   -0.8327   -1.8292    0.5910 H   0  0  0  0  0  0  0  0  0  0  0  0
   -2.5098    0.2082    1.3197 H   0  0  0  0  0  0  0  0  0  0  0  0
   -3.2296   -1.3999   -0.6182 H   0  0  0  0  0  0  0  0  0  0  0  0
  1  2  1  0
  2  3  1  0
  3  4  1  0
  4  5  1  0
  5  6  1  0
  6  7  1  0
  7  8  1  0
  8  9  1  0
  7  4  1  0
  8  5  1  0
  1 10  1  0
  2 11  1  0
  2 12  1  0
  3 13  1  0
  3 14  1  0
  4 15  1  0
  5 16  1  0
  7 17  1  0
  8 18  1  0
  9 19  1  0
M  END
