
     RDKit          3D

 21 22  0  0  0  0  0  0  0  0999 V2000
    3.4090    0.3110    0.4512 O   0  0  0  0  0  0  0  0  0  0  0  0
    2.1434   -0.2861    0.2520 C   0  0  0  0  0  0  0  0  0  0  0  0
    1.0848    0.7813    0.0773 C   0  0  0  0  0  0  0  0  0  0  0  0
   -0.2207    0.2439   -0.1286 C   0  0  0  0  0  0  0  0  0  0  0  0
   -0.5616   -0.6354   -1.2591 C   0  0  0  0  0  0  0  0  0  0  0  0
   -1.8607   -0.8964   -1.0431 C   0  0  0  0  0  0  0  0  0  0  0  0
   -2.1582   -0.1559    0.1871 C   0  0  0  0  0  0  0  0  0  0  0  0
   -0.9139   -0.4964    1.0261 C   0  0  0  0  0  0  0  0  0  0  0  0
   -1.4376    1.1587   -0.0763 C   0  0  0  0  0  0  0  0  0  0  0  0
    4.0749   -0.3614    0.2040 H   0  0  0  0  0  0  0  0  0  0  0  0
    1.8725   -0.9402    1.1143 H   0  0  0  0  0  0  0  0  0  0  0  0
    2.2465   -0.8661   -0.6966 H   0  0  0  0  0  0  0  0  0  0  0  0
    1.1052    1.4349    0.9949 H   0  0  0  0  0  0  0  0  0  0  0  0
    1.3958    1.3817   -0.8057 H   0  0  0  0  0  0  0  0  0  0  0  0
    0.0480   -1.0021   -2.0766 H   0  0  0  0  0  0  0  0  0  0  0  0
   -2.5691   -1.4931   -1.5956 H   0  0  0  0  0  0  0  0  0  0  0  0
   -3.0949   -0.1605    0.6508 H   0  0  0  0  0  0  0  0  0  0  0  0
   -0.6860   -1.5651    1.0781 H   0  0  0  0  0  0  0  0  0  0  0  0
   -0.8293    0.1010    1.9336 H   0  0  0  0  0  0  0  0  0  0  0  0
   -1.3616    1.8340    0.7747 H   0  0  0  0  0  0  0  0  0  0  0  0
   -1.6864    1.6121   -1.0624 H   0  0  0  0  0  0  0  0  0  0  0  0
  1  2  1  0
  2  3  1  0
  3  4  1  0
  4  5  1  0
  5  6  2  0
  6  7  1  0
  7  8  1  0
  7  9  1  0
  8  4  1  0
  9  4  1  0
  1 10  1  0
  2 11  1  0
  2 12  1  0
  3 13  1  0
  3 14  1  0
  5 15  1  0
  6 16  1  0
  7 17  1  0
  8 18  1  0
  8 19  1  0
  9 20  1  0
  9 21  1  0
M  END
