
     RDKit          3D

 19 18  0  0  0  0  0  0  0  0999 V2000
   -2.0780   -0.5723    1.7851 O   0  0  0  0  0  0  0  0  0  0  0  0
   -2.0237   -0.7299    0.4155 C   0  0  0  0  0  0  0  0  0  0  0  0
   -1.4696    0.4854   -0.2879 C   0  0  0  0  0  0  0  0  0  0  0  0
   -0.0831    0.8283    0.1361 C   0  0  0  0  0  0  0  0  0  0  0  0
    0.9081   -0.2814   -0.1291 C   0  0  0  0  0  0  0  0  0  0  0  0
    2.3089    0.1241    0.3244 C   0  0  0  0  0  0  0  0  0  0  0  0
    3.2194   -0.9008    0.0784 O   0  0  0  0  0  0  0  0  0  0  0  0
   -2.8146    0.0390    2.0246 H   0  0  0  0  0  0  0  0  0  0  0  0
   -3.0744   -0.8666    0.0543 H   0  0  0  0  0  0  0  0  0  0  0  0
   -1.4902   -1.6543    0.1631 H   0  0  0  0  0  0  0  0  0  0  0  0
   -1.5175    0.3499   -1.3845 H   0  0  0  0  0  0  0  0  0  0  0  0
   -2.1264    1.3409   -0.0007 H   0  0  0  0  0  0  0  0  0  0  0  0
    0.2610    1.7060   -0.4443 H   0  0  0  0  0  0  0  0  0  0  0  0
   -0.0746    1.1399    1.1996 H   0  0  0  0  0  0  0  0  0  0  0  0
    0.9836   -0.5335   -1.1854 H   0  0  0  0  0  0  0  0  0  0  0  0
    0.6252   -1.1503    0.4927 H   0  0  0  0  0  0  0  0  0  0  0  0
    2.3133    0.4039    1.3877 H   0  0  0  0  0  0  0  0  0  0  0  0
    2.5638    1.0291   -0.2521 H   0  0  0  0  0  0  0  0  0  0  0  0
    3.5687   -0.7573   -0.8523 H   0  0  0  0  0  0  0  0  0  0  0  0
  1  2  1  0
  2  3  1  0
  3  4  1  0
  4  5  1  0
  5  6  1  0
  6  7  1  0
  1  8  1  0
  2  9  1  0
  2 10  1  0
  3 11  1  0
  3 12  1  0
  4 13  1  0
  4 14  1  0
  5 15  1  0
  5 16  1  0
  6 17  1  0
  6 18  1  0
  7 19  1  0
M  END
