
     RDKit          3D

 16 16  0  0  0  0  0  0  0  0999 V2000
   -1.7278    1.0702    0.2975 O   0  0  0  0  0  0  0  0  0  0  0  0
   -1.4097   -0.2408    0.5919 C   0  0  0  0  0  0  0  0  0  0  0  0
   -0.6534   -0.8721   -0.5287 C   0  0  0  0  0  0  0  0  0  0  0  0
    0.6296   -0.2187   -0.8712 C   0  0  0  0  0  0  0  0  0  0  0  0
    1.6379   -0.1888    0.2860 C   0  0  0  0  0  0  0  0  0  0  0  0
    1.0906    1.0614   -0.3665 C   0  0  0  0  0  0  0  0  0  0  0  0
   -1.8806    1.5541    1.1340 H   0  0  0  0  0  0  0  0  0  0  0  0
   -2.3784   -0.7887    0.6999 H   0  0  0  0  0  0  0  0  0  0  0  0
   -0.9050   -0.3411    1.5756 H   0  0  0  0  0  0  0  0  0  0  0  0
   -1.3423   -0.9456   -1.4005 H   0  0  0  0  0  0  0  0  0  0  0  0
   -0.4394   -1.9365   -0.2144 H   0  0  0  0  0  0  0  0  0  0  0  0
    1.0707   -0.5833   -1.8432 H   0  0  0  0  0  0  0  0  0  0  0  0
    1.2627   -0.4095    1.3019 H   0  0  0  0  0  0  0  0  0  0  0  0
    2.6681   -0.5202    0.0653 H   0  0  0  0  0  0  0  0  0  0  0  0
    1.8752    1.5973   -0.9695 H   0  0  0  0  0  0  0  0  0  0  0  0
    0.5017    1.7622    0.2421 H   0  0  0  0  0  0  0  0  0  0  0  0
  1  2  1  0
  2  3  1  0
  3  4  1  0
  4  5  1  0
  5  6  1  0
  6  4  1  0
  1  7  1  0
  2  8  1  0
  2  9  1  0
  3 10  1  0
  3 11  1  0
  4 12  1  0
  5 13  1  0
  5 14  1  0
  6 15  1  0
  6 16  1  0
M  END
