
     RDKit          3D

 21 21  0  0  0  0  0  0  0  0999 V2000
    3.1057    0.3374   -1.5542 O   0  0  0  0  0  0  0  0  0  0  0  0
    2.1823   -0.1784   -0.6461 C   0  0  0  0  0  0  0  0  0  0  0  0
    0.8959    0.6209   -0.6369 C   0  0  0  0  0  0  0  0  0  0  0  0
   -0.0251   -0.0069    0.3624 C   0  0  0  0  0  0  0  0  0  0  0  0
   -0.3654   -1.4374    0.0611 C   0  0  0  0  0  0  0  0  0  0  0  0
   -1.5967   -1.7047    0.6158 O   0  0  0  0  0  0  0  0  0  0  0  0
   -2.1604   -0.5225    1.0359 C   0  0  0  0  0  0  0  0  0  0  0  0
   -1.4376    0.5908    0.2745 C   0  0  0  0  0  0  0  0  0  0  0  0
   -1.5365    1.8058    0.8774 O   0  0  0  0  0  0  0  0  0  0  0  0
    3.5272    1.1589   -1.2596 H   0  0  0  0  0  0  0  0  0  0  0  0
    2.6494   -0.2258    0.3355 H   0  0  0  0  0  0  0  0  0  0  0  0
    1.9243   -1.2153   -0.9449 H   0  0  0  0  0  0  0  0  0  0  0  0
    0.4326    0.6672   -1.6157 H   0  0  0  0  0  0  0  0  0  0  0  0
    1.1152    1.6492   -0.2804 H   0  0  0  0  0  0  0  0  0  0  0  0
    0.3177    0.0678    1.3990 H   0  0  0  0  0  0  0  0  0  0  0  0
    0.4370   -2.1083    0.4253 H   0  0  0  0  0  0  0  0  0  0  0  0
   -0.4160   -1.5612   -1.0613 H   0  0  0  0  0  0  0  0  0  0  0  0
   -3.2474   -0.4610    0.9295 H   0  0  0  0  0  0  0  0  0  0  0  0
   -1.8549   -0.3794    2.1110 H   0  0  0  0  0  0  0  0  0  0  0  0
   -1.7561    0.5452   -0.7704 H   0  0  0  0  0  0  0  0  0  0  0  0
   -2.1913    2.3576    0.3421 H   0  0  0  0  0  0  0  0  0  0  0  0
  1  2  1  0
  2  3  1  0
  3  4  1  0
  4  5  1  0
  5  6  1  0
  6  7  1  0
  7  8  1  0
  8  9  1  0
  8  4  1  0
  1 10  1  0
  2 11  1  0
  2 12  1  0
  3 13  1  0
  3 14  1  0
  4 15  1  0
  5 16  1  0
  5 17  1  0
  7 18  1  0
  7 19  1  0
  8 20  1  0
  9 21  1  0
M  END
