
     RDKit          3D

 21 21  0  0  0  0  0  0  0  0999 V2000
    3.3924   -0.0783   -0.5116 O   0  0  0  0  0  0  0  0  0  0  0  0
    2.9557   -0.7944    0.6023 C   0  0  0  0  0  0  0  0  0  0  0  0
    1.6309   -0.2261    1.0395 C   0  0  0  0  0  0  0  0  0  0  0  0
    0.6580   -0.3146    0.0453 O   0  0  0  0  0  0  0  0  0  0  0  0
   -0.4933    0.2424    0.5892 C   0  0  0  0  0  0  0  0  0  0  0  0
   -1.6741   -0.6909    0.4425 C   0  0  0  0  0  0  0  0  0  0  0  0
   -2.5199    0.5186    0.1115 C   0  0  0  0  0  0  0  0  0  0  0  0
   -3.3541    0.2883   -0.9730 O   0  0  0  0  0  0  0  0  0  0  0  0
   -1.2178    1.2263   -0.2822 C   0  0  0  0  0  0  0  0  0  0  0  0
    4.2288    0.4038   -0.2873 H   0  0  0  0  0  0  0  0  0  0  0  0
    2.9273   -1.8631    0.3949 H   0  0  0  0  0  0  0  0  0  0  0  0
    3.6644   -0.6353    1.4453 H   0  0  0  0  0  0  0  0  0  0  0  0
    1.2193   -0.7589    1.9236 H   0  0  0  0  0  0  0  0  0  0  0  0
    1.7612    0.8572    1.2501 H   0  0  0  0  0  0  0  0  0  0  0  0
   -0.4034    0.6118    1.6199 H   0  0  0  0  0  0  0  0  0  0  0  0
   -1.9653   -1.2338    1.3555 H   0  0  0  0  0  0  0  0  0  0  0  0
   -1.5764   -1.3538   -0.4450 H   0  0  0  0  0  0  0  0  0  0  0  0
   -3.0010    0.9360    1.0160 H   0  0  0  0  0  0  0  0  0  0  0  0
   -3.9430   -0.4979   -0.7878 H   0  0  0  0  0  0  0  0  0  0  0  0
   -1.0257    1.0963   -1.3753 H   0  0  0  0  0  0  0  0  0  0  0  0
   -1.2641    2.2663    0.0754 H   0  0  0  0  0  0  0  0  0  0  0  0
  1  2  1  0
  2  3  1  0
  3  4  1  0
  4  5  1  0
  5  6  1  0
  6  7  1  0
  7  8  1  0
  7  9  1  0
  9  5  1  0
  1 10  1  0
  2 11  1  0
  2 12  1  0
  3 13  1  0
  3 14  1  0
  5 15  1  0
  6 16  1  0
  6 17  1  0
  7 18  1  0
  8 19  1  0
  9 20  1  0
  9 21  1  0
M  END
