
     RDKit          3D

 21 20  0  0  0  0  0  0  0  0999 V2000
    3.0362    0.7583    0.3220 O   0  0  0  0  0  0  0  0  0  0  0  0
    2.5557   -0.3595   -0.3409 C   0  0  0  0  0  0  0  0  0  0  0  0
    1.1119   -0.2287   -0.7193 C   0  0  0  0  0  0  0  0  0  0  0  0
    0.2772   -0.0479    0.3672 O   0  0  0  0  0  0  0  0  0  0  0  0
   -1.0305    0.0629   -0.0702 C   0  0  0  0  0  0  0  0  0  0  0  0
   -1.9131   -1.0336    0.5100 C   0  0  0  0  0  0  0  0  0  0  0  0
   -1.4394   -2.2727    0.1304 O   0  0  0  0  0  0  0  0  0  0  0  0
   -1.6352    1.4075    0.3142 C   0  0  0  0  0  0  0  0  0  0  0  0
   -0.8986    2.4452   -0.2551 O   0  0  0  0  0  0  0  0  0  0  0  0
    4.0251    0.6729    0.3957 H   0  0  0  0  0  0  0  0  0  0  0  0
    3.1316   -0.4945   -1.2877 H   0  0  0  0  0  0  0  0  0  0  0  0
    2.7709   -1.2364    0.2811 H   0  0  0  0  0  0  0  0  0  0  0  0
    0.7909   -1.0891   -1.3012 H   0  0  0  0  0  0  0  0  0  0  0  0
    1.0197    0.6814   -1.3631 H   0  0  0  0  0  0  0  0  0  0  0  0
   -1.1004   -0.0180   -1.1720 H   0  0  0  0  0  0  0  0  0  0  0  0
   -1.9828   -0.9092    1.6180 H   0  0  0  0  0  0  0  0  0  0  0  0
   -2.9423   -0.8808    0.1256 H   0  0  0  0  0  0  0  0  0  0  0  0
   -1.5005   -2.9583    0.8311 H   0  0  0  0  0  0  0  0  0  0  0  0
   -1.5628    1.5003    1.4359 H   0  0  0  0  0  0  0  0  0  0  0  0
   -2.6918    1.4788   -0.0072 H   0  0  0  0  0  0  0  0  0  0  0  0
   -0.0219    2.5212    0.1855 H   0  0  0  0  0  0  0  0  0  0  0  0
  1  2  1  0
  2  3  1  0
  3  4  1  0
  4  5  1  0
  5  6  1  0
  6  7  1  0
  5  8  1  0
  8  9  1  0
  1 10  1  0
  2 11  1  0
  2 12  1  0
  3 13  1  0
  3 14  1  0
  5 15  1  0
  6 16  1  0
  6 17  1  0
  7 18  1  0
  8 19  1  0
  8 20  1  0
  9 21  1  0
M  END
