
     RDKit          3D

 19 20  0  0  0  0  0  0  0  0999 V2000
    2.8519    0.8591    1.0523 O   0  0  0  0  0  0  0  0  0  0  0  0
    2.5379    0.2051   -0.1401 C   0  0  0  0  0  0  0  0  0  0  0  0
    1.1842   -0.4668   -0.0333 C   0  0  0  0  0  0  0  0  0  0  0  0
    0.2382    0.4818    0.2226 O   0  0  0  0  0  0  0  0  0  0  0  0
   -1.0489    0.0023    0.3446 C   0  0  0  0  0  0  0  0  0  0  0  0
   -2.1565    0.9941    0.6290 C   0  0  0  0  0  0  0  0  0  0  0  0
   -2.5484    0.8284   -0.7156 O   0  0  0  0  0  0  0  0  0  0  0  0
   -1.7260   -0.2285   -1.0238 C   0  0  0  0  0  0  0  0  0  0  0  0
   -1.4688   -1.3320   -0.0640 C   0  0  0  0  0  0  0  0  0  0  0  0
    3.1462    1.7918    0.8764 H   0  0  0  0  0  0  0  0  0  0  0  0
    3.3066   -0.5263   -0.4295 H   0  0  0  0  0  0  0  0  0  0  0  0
    2.4699    0.9902   -0.9404 H   0  0  0  0  0  0  0  0  0  0  0  0
    1.0181   -1.0553   -0.9452 H   0  0  0  0  0  0  0  0  0  0  0  0
    1.2528   -1.1292    0.8797 H   0  0  0  0  0  0  0  0  0  0  0  0
   -2.9686    0.5494    1.2678 H   0  0  0  0  0  0  0  0  0  0  0  0
   -1.8345    2.0014    0.8978 H   0  0  0  0  0  0  0  0  0  0  0  0
   -1.1194   -0.1648   -1.9257 H   0  0  0  0  0  0  0  0  0  0  0  0
   -0.7289   -2.0803   -0.3866 H   0  0  0  0  0  0  0  0  0  0  0  0
   -2.4058   -1.7203    0.4340 H   0  0  0  0  0  0  0  0  0  0  0  0
  1  2  1  0
  2  3  1  0
  3  4  1  0
  4  5  1  0
  5  6  1  0
  6  7  1  0
  7  8  1  0
  8  9  1  0
  8  5  1  0
  9  5  1  0
  1 10  1  0
  2 11  1  0
  2 12  1  0
  3 13  1  0
  3 14  1  0
  6 15  1  0
  6 16  1  0
  8 17  1  0
  9 18  1  0
  9 19  1  0
M  END
