
     RDKit          3D

 21 21  0  0  0  0  0  0  0  0999 V2000
    3.2162    1.2285    0.1222 O   0  0  0  0  0  0  0  0  0  0  0  0
    2.9693   -0.0766   -0.2241 C   0  0  0  0  0  0  0  0  0  0  0  0
    1.5427   -0.3100   -0.6679 C   0  0  0  0  0  0  0  0  0  0  0  0
    0.6279    0.0069    0.3255 O   0  0  0  0  0  0  0  0  0  0  0  0
   -0.6429   -0.2418   -0.1816 C   0  0  0  0  0  0  0  0  0  0  0  0
   -1.4995    1.0010   -0.1965 C   0  0  0  0  0  0  0  0  0  0  0  0
   -2.7426    0.5787    0.5026 C   0  0  0  0  0  0  0  0  0  0  0  0
   -2.5381   -0.6204    1.1189 O   0  0  0  0  0  0  0  0  0  0  0  0
   -1.4198   -1.2216    0.6250 C   0  0  0  0  0  0  0  0  0  0  0  0
    3.5978    1.2511    1.0365 H   0  0  0  0  0  0  0  0  0  0  0  0
    3.1613   -0.8028    0.6101 H   0  0  0  0  0  0  0  0  0  0  0  0
    3.6487   -0.3617   -1.0513 H   0  0  0  0  0  0  0  0  0  0  0  0
    1.3783   -1.3756   -0.9262 H   0  0  0  0  0  0  0  0  0  0  0  0
    1.2988    0.2686   -1.5902 H   0  0  0  0  0  0  0  0  0  0  0  0
   -0.6073   -0.6245   -1.2351 H   0  0  0  0  0  0  0  0  0  0  0  0
   -1.7012    1.3792   -1.2163 H   0  0  0  0  0  0  0  0  0  0  0  0
   -1.0284    1.8490    0.3633 H   0  0  0  0  0  0  0  0  0  0  0  0
   -3.5898    0.5196   -0.2159 H   0  0  0  0  0  0  0  0  0  0  0  0
   -3.0764    1.3101    1.2944 H   0  0  0  0  0  0  0  0  0  0  0  0
   -0.8439   -1.6435    1.4892 H   0  0  0  0  0  0  0  0  0  0  0  0
   -1.7513   -2.1143    0.0174 H   0  0  0  0  0  0  0  0  0  0  0  0
  1  2  1  0
  2  3  1  0
  3  4  1  0
  4  5  1  0
  5  6  1  0
  6  7  1  0
  7  8  1  0
  8  9  1  0
  9  5  1  0
  1 10  1  0
  2 11  1  0
  2 12  1  0
  3 13  1  0
  3 14  1  0
  5 15  1  0
  6 16  1  0
  6 17  1  0
  7 18  1  0
  7 19  1  0
  9 20  1  0
  9 21  1  0
M  END
