
     RDKit          3D

 21 21  0  0  0  0  0  0  0  0999 V2000
    3.4676   -1.1462   -0.0407 O   0  0  0  0  0  0  0  0  0  0  0  0
    3.1825    0.1829    0.1880 C   0  0  0  0  0  0  0  0  0  0  0  0
    1.8728    0.4066    0.8756 C   0  0  0  0  0  0  0  0  0  0  0  0
    0.7923   -0.0891    0.1427 O   0  0  0  0  0  0  0  0  0  0  0  0
   -0.4073    0.1385    0.8161 C   0  0  0  0  0  0  0  0  0  0  0  0
   -1.5896   -0.3679    0.0828 C   0  0  0  0  0  0  0  0  0  0  0  0
   -1.5631   -1.7585   -0.1614 O   0  0  0  0  0  0  0  0  0  0  0  0
   -2.4282    0.4419   -0.8007 C   0  0  0  0  0  0  0  0  0  0  0  0
   -2.9309    0.2073    0.5734 C   0  0  0  0  0  0  0  0  0  0  0  0
    2.9321   -1.5414   -0.7477 H   0  0  0  0  0  0  0  0  0  0  0  0
    3.2152    0.7249   -0.7789 H   0  0  0  0  0  0  0  0  0  0  0  0
    3.9716    0.6419    0.8239 H   0  0  0  0  0  0  0  0  0  0  0  0
    1.7160    1.5216    0.9135 H   0  0  0  0  0  0  0  0  0  0  0  0
    1.8532    0.0704    1.9200 H   0  0  0  0  0  0  0  0  0  0  0  0
   -0.5515    1.2156    1.0704 H   0  0  0  0  0  0  0  0  0  0  0  0
   -0.3696   -0.3913    1.8104 H   0  0  0  0  0  0  0  0  0  0  0  0
   -1.4623   -2.1805    0.7334 H   0  0  0  0  0  0  0  0  0  0  0  0
   -2.1522    1.4863   -1.0822 H   0  0  0  0  0  0  0  0  0  0  0  0
   -2.9808   -0.0902   -1.6079 H   0  0  0  0  0  0  0  0  0  0  0  0
   -3.6815   -0.5547    0.8120 H   0  0  0  0  0  0  0  0  0  0  0  0
   -2.8864    1.0817    1.2590 H   0  0  0  0  0  0  0  0  0  0  0  0
  1  2  1  0
  2  3  1  0
  3  4  1  0
  4  5  1  0
  5  6  1  0
  6  7  1  0
  6  8  1  0
  8  9  1  0
  9  6  1  0
  1 10  1  0
  2 11  1  0
  2 12  1  0
  3 13  1  0
  3 14  1  0
  5 15  1  0
  5 16  1  0
  7 17  1  0
  8 18  1  0
  8 19  1  0
  9 20  1  0
  9 21  1  0
M  END
