
     RDKit          3D

 19 20  0  0  0  0  0  0  0  0999 V2000
    3.1839    1.0481    0.6187 O   0  0  0  0  0  0  0  0  0  0  0  0
    2.8969    0.0293   -0.2991 C   0  0  0  0  0  0  0  0  0  0  0  0
    1.5491   -0.5828   -0.0036 C   0  0  0  0  0  0  0  0  0  0  0  0
    0.5191    0.3340   -0.0738 O   0  0  0  0  0  0  0  0  0  0  0  0
   -0.6690   -0.3106    0.2092 C   0  0  0  0  0  0  0  0  0  0  0  0
   -1.9534    0.1886   -0.3319 C   0  0  0  0  0  0  0  0  0  0  0  0
   -3.2592   -0.0355    0.3401 C   0  0  0  0  0  0  0  0  0  0  0  0
   -2.6689   -0.2769    1.5830 O   0  0  0  0  0  0  0  0  0  0  0  0
   -1.5669    0.4284    1.1461 C   0  0  0  0  0  0  0  0  0  0  0  0
    4.0926    0.9682    0.9935 H   0  0  0  0  0  0  0  0  0  0  0  0
    2.9686    0.3480   -1.3398 H   0  0  0  0  0  0  0  0  0  0  0  0
    3.6588   -0.7691   -0.1276 H   0  0  0  0  0  0  0  0  0  0  0  0
    1.5771   -1.1436    0.9568 H   0  0  0  0  0  0  0  0  0  0  0  0
    1.3762   -1.3591   -0.7932 H   0  0  0  0  0  0  0  0  0  0  0  0
   -0.5894   -1.3955    0.4313 H   0  0  0  0  0  0  0  0  0  0  0  0
   -1.9147    1.0575   -1.0098 H   0  0  0  0  0  0  0  0  0  0  0  0
   -3.9149    0.8812    0.4214 H   0  0  0  0  0  0  0  0  0  0  0  0
   -3.8757   -0.8867   -0.0209 H   0  0  0  0  0  0  0  0  0  0  0  0
   -1.4103    1.4766    1.4042 H   0  0  0  0  0  0  0  0  0  0  0  0
  1  2  1  0
  2  3  1  0
  3  4  1  0
  4  5  1  0
  5  6  1  0
  6  7  1  0
  7  8  1  0
  8  9  1  0
  9  5  1  0
  9  6  1  0
  1 10  1  0
  2 11  1  0
  2 12  1  0
  3 13  1  0
  3 14  1  0
  5 15  1  0
  6 16  1  0
  7 17  1  0
  7 18  1  0
  9 19  1  0
M  END
