
     RDKit          3D

 21 20  0  0  0  0  0  0  0  0999 V2000
    4.1938    0.4243    0.0694 O   0  0  0  0  0  0  0  0  0  0  0  0
    2.9856    0.0303   -0.5060 C   0  0  0  0  0  0  0  0  0  0  0  0
    1.8186    0.3549    0.4319 C   0  0  0  0  0  0  0  0  0  0  0  0
    0.6461   -0.0612   -0.1978 O   0  0  0  0  0  0  0  0  0  0  0  0
   -0.4757    0.1962    0.5890 C   0  0  0  0  0  0  0  0  0  0  0  0
   -1.6773   -0.2909   -0.1844 C   0  0  0  0  0  0  0  0  0  0  0  0
   -1.5039   -1.6579   -0.4040 O   0  0  0  0  0  0  0  0  0  0  0  0
   -2.9636   -0.1274    0.5782 C   0  0  0  0  0  0  0  0  0  0  0  0
   -3.2578    1.1950    0.8643 O   0  0  0  0  0  0  0  0  0  0  0  0
    4.9098   -0.2681   -0.0683 H   0  0  0  0  0  0  0  0  0  0  0  0
    3.0437   -1.0394   -0.7065 H   0  0  0  0  0  0  0  0  0  0  0  0
    2.8020    0.5455   -1.4716 H   0  0  0  0  0  0  0  0  0  0  0  0
    1.9475   -0.1723    1.3941 H   0  0  0  0  0  0  0  0  0  0  0  0
    1.7849    1.4467    0.6273 H   0  0  0  0  0  0  0  0  0  0  0  0
   -0.3543   -0.4300    1.5068 H   0  0  0  0  0  0  0  0  0  0  0  0
   -0.5416    1.2695    0.8552 H   0  0  0  0  0  0  0  0  0  0  0  0
   -1.7656    0.2015   -1.1541 H   0  0  0  0  0  0  0  0  0  0  0  0
   -2.1327   -2.2116    0.1267 H   0  0  0  0  0  0  0  0  0  0  0  0
   -3.7717   -0.5477   -0.0583 H   0  0  0  0  0  0  0  0  0  0  0  0
   -2.9480   -0.6991    1.5299 H   0  0  0  0  0  0  0  0  0  0  0  0
   -2.7399    1.8414    0.3608 H   0  0  0  0  0  0  0  0  0  0  0  0
  1  2  1  0
  2  3  1  0
  3  4  1  0
  4  5  1  0
  5  6  1  0
  6  7  1  0
  6  8  1  0
  8  9  1  0
  1 10  1  0
  2 11  1  0
  2 12  1  0
  3 13  1  0
  3 14  1  0
  5 15  1  0
  5 16  1  0
  6 17  1  0
  7 18  1  0
  8 19  1  0
  8 20  1  0
  9 21  1  0
M  END
