
     RDKit          3D

 21 21  0  0  0  0  0  0  0  0999 V2000
    3.1464    1.1625   -0.2481 O   0  0  0  0  0  0  0  0  0  0  0  0
    3.0922   -0.1607    0.1650 C   0  0  0  0  0  0  0  0  0  0  0  0
    1.7694   -0.7468   -0.2754 C   0  0  0  0  0  0  0  0  0  0  0  0
    0.7745    0.0303    0.3445 O   0  0  0  0  0  0  0  0  0  0  0  0
   -0.4423   -0.4995   -0.0532 C   0  0  0  0  0  0  0  0  0  0  0  0
   -1.6171    0.2230    0.5265 C   0  0  0  0  0  0  0  0  0  0  0  0
   -2.9183   -0.3726    0.0784 C   0  0  0  0  0  0  0  0  0  0  0  0
   -3.4074    0.9476   -0.0573 O   0  0  0  0  0  0  0  0  0  0  0  0
   -2.0964    1.2991   -0.4240 C   0  0  0  0  0  0  0  0  0  0  0  0
    3.9145    1.5854    0.2177 H   0  0  0  0  0  0  0  0  0  0  0  0
    3.0740   -0.1616    1.2855 H   0  0  0  0  0  0  0  0  0  0  0  0
    3.9422   -0.7481   -0.2247 H   0  0  0  0  0  0  0  0  0  0  0  0
    1.6487   -0.7594   -1.3730 H   0  0  0  0  0  0  0  0  0  0  0  0
    1.7495   -1.7968    0.0954 H   0  0  0  0  0  0  0  0  0  0  0  0
   -0.5238   -1.5698    0.2739 H   0  0  0  0  0  0  0  0  0  0  0  0
   -0.4869   -0.4722   -1.1410 H   0  0  0  0  0  0  0  0  0  0  0  0
   -1.5502    0.5395    1.5655 H   0  0  0  0  0  0  0  0  0  0  0  0
   -2.8184   -0.9022   -0.8884 H   0  0  0  0  0  0  0  0  0  0  0  0
   -3.4983   -0.8923    0.8612 H   0  0  0  0  0  0  0  0  0  0  0  0
   -1.9376    0.9741   -1.4821 H   0  0  0  0  0  0  0  0  0  0  0  0
   -1.8148    2.3205   -0.1780 H   0  0  0  0  0  0  0  0  0  0  0  0
  1  2  1  0
  2  3  1  0
  3  4  1  0
  4  5  1  0
  5  6  1  0
  6  7  1  0
  7  8  1  0
  8  9  1  0
  9  6  1  0
  1 10  1  0
  2 11  1  0
  2 12  1  0
  3 13  1  0
  3 14  1  0
  5 15  1  0
  5 16  1  0
  6 17  1  0
  7 18  1  0
  7 19  1  0
  9 20  1  0
  9 21  1  0
M  END
