
     RDKit          3D

 21 21  0  0  0  0  0  0  0  0999 V2000
    3.9883   -0.3148   -0.7130 O   0  0  0  0  0  0  0  0  0  0  0  0
    2.8576    0.4399   -0.4375 C   0  0  0  0  0  0  0  0  0  0  0  0
    1.6339   -0.4720   -0.4217 C   0  0  0  0  0  0  0  0  0  0  0  0
    0.5464    0.3420   -0.1422 O   0  0  0  0  0  0  0  0  0  0  0  0
   -0.6514   -0.3340   -0.0914 C   0  0  0  0  0  0  0  0  0  0  0  0
   -1.5794    0.3279   -1.1258 C   0  0  0  0  0  0  0  0  0  0  0  0
   -2.9346    0.0498   -0.5247 C   0  0  0  0  0  0  0  0  0  0  0  0
   -2.8312   -0.1357    0.7807 C   0  0  0  0  0  0  0  0  0  0  0  0
   -1.4121    0.0013    1.1655 C   0  0  0  0  0  0  0  0  0  0  0  0
    4.7839    0.1194   -0.2908 H   0  0  0  0  0  0  0  0  0  0  0  0
    2.9107    0.9239    0.5800 H   0  0  0  0  0  0  0  0  0  0  0  0
    2.6754    1.2038   -1.2144 H   0  0  0  0  0  0  0  0  0  0  0  0
    1.5388   -0.8493   -1.4809 H   0  0  0  0  0  0  0  0  0  0  0  0
    1.7877   -1.2810    0.2966 H   0  0  0  0  0  0  0  0  0  0  0  0
   -0.5730   -1.4178   -0.2790 H   0  0  0  0  0  0  0  0  0  0  0  0
   -1.4644   -0.1059   -2.1175 H   0  0  0  0  0  0  0  0  0  0  0  0
   -1.3766    1.4144   -1.1467 H   0  0  0  0  0  0  0  0  0  0  0  0
   -3.8645    0.0047   -1.0643 H   0  0  0  0  0  0  0  0  0  0  0  0
   -3.6931   -0.3558    1.4419 H   0  0  0  0  0  0  0  0  0  0  0  0
   -1.2059    1.0850    1.3917 H   0  0  0  0  0  0  0  0  0  0  0  0
   -1.1364   -0.6458    2.0192 H   0  0  0  0  0  0  0  0  0  0  0  0
  1  2  1  0
  2  3  1  0
  3  4  1  0
  4  5  1  0
  5  6  1  0
  6  7  1  0
  7  8  2  0
  8  9  1  0
  9  5  1  0
  1 10  1  0
  2 11  1  0
  2 12  1  0
  3 13  1  0
  3 14  1  0
  5 15  1  0
  6 16  1  0
  6 17  1  0
  7 18  1  0
  8 19  1  0
  9 20  1  0
  9 21  1  0
M  END
