
     RDKit          3D

 17 17  0  0  0  0  0  0  0  0999 V2000
    1.9855    1.0040   -0.8310 O   0  0  0  0  0  0  0  0  0  0  0  0
    1.9289    0.0500    0.1924 C   0  0  0  0  0  0  0  0  0  0  0  0
    1.0880   -1.0889   -0.3148 C   0  0  0  0  0  0  0  0  0  0  0  0
   -0.1671   -0.6149   -0.6167 O   0  0  0  0  0  0  0  0  0  0  0  0
   -0.8581   -0.0592    0.4333 C   0  0  0  0  0  0  0  0  0  0  0  0
   -1.7772    1.0615    0.0836 C   0  0  0  0  0  0  0  0  0  0  0  0
   -2.3589   -0.3083    0.3680 C   0  0  0  0  0  0  0  0  0  0  0  0
    2.9028    1.3782   -0.9438 H   0  0  0  0  0  0  0  0  0  0  0  0
    1.5389    0.4347    1.1329 H   0  0  0  0  0  0  0  0  0  0  0  0
    2.9841   -0.3207    0.2981 H   0  0  0  0  0  0  0  0  0  0  0  0
    1.5793   -1.4952   -1.2132 H   0  0  0  0  0  0  0  0  0  0  0  0
    1.0544   -1.9399    0.4149 H   0  0  0  0  0  0  0  0  0  0  0  0
   -0.4141   -0.0101    1.4502 H   0  0  0  0  0  0  0  0  0  0  0  0
   -2.0707    1.8164    0.8445 H   0  0  0  0  0  0  0  0  0  0  0  0
   -1.7862    1.4186   -0.9662 H   0  0  0  0  0  0  0  0  0  0  0  0
   -2.8507   -0.4962    1.3447 H   0  0  0  0  0  0  0  0  0  0  0  0
   -2.7789   -0.8299   -0.4914 H   0  0  0  0  0  0  0  0  0  0  0  0
  1  2  1  0
  2  3  1  0
  3  4  1  0
  4  5  1  0
  5  6  1  0
  6  7  1  0
  7  5  1  0
  1  8  1  0
  2  9  1  0
  2 10  1  0
  3 11  1  0
  3 12  1  0
  5 13  1  0
  6 14  1  0
  6 15  1  0
  7 16  1  0
  7 17  1  0
M  END
