
     RDKit          3D

 21 21  0  0  0  0  0  0  0  0999 V2000
    3.1395   -1.8625   -0.5850 O   0  0  0  0  0  0  0  0  0  0  0  0
    1.8159   -1.3750   -0.5317 C   0  0  0  0  0  0  0  0  0  0  0  0
    1.7228   -0.5095    0.6859 C   0  0  0  0  0  0  0  0  0  0  0  0
    0.4885    0.0532    0.8935 O   0  0  0  0  0  0  0  0  0  0  0  0
    0.0372    0.8661   -0.1070 C   0  0  0  0  0  0  0  0  0  0  0  0
   -0.7969    2.0628    0.1435 C   0  0  0  0  0  0  0  0  0  0  0  0
   -1.4103    0.8474   -0.5053 C   0  0  0  0  0  0  0  0  0  0  0  0
   -2.4197    0.1268    0.3274 C   0  0  0  0  0  0  0  0  0  0  0  0
   -2.1359   -1.2311    0.4395 O   0  0  0  0  0  0  0  0  0  0  0  0
    3.7448   -1.3124   -0.0293 H   0  0  0  0  0  0  0  0  0  0  0  0
    1.0945   -2.2280   -0.4839 H   0  0  0  0  0  0  0  0  0  0  0  0
    1.6902   -0.7862   -1.4710 H   0  0  0  0  0  0  0  0  0  0  0  0
    2.5115    0.2626    0.6324 H   0  0  0  0  0  0  0  0  0  0  0  0
    1.9555   -1.1480    1.5673 H   0  0  0  0  0  0  0  0  0  0  0  0
    0.7462    0.9622   -0.9695 H   0  0  0  0  0  0  0  0  0  0  0  0
   -0.6704    2.9559   -0.5024 H   0  0  0  0  0  0  0  0  0  0  0  0
   -1.0261    2.2660    1.2118 H   0  0  0  0  0  0  0  0  0  0  0  0
   -1.6778    0.9481   -1.5839 H   0  0  0  0  0  0  0  0  0  0  0  0
   -2.4565    0.5275    1.3602 H   0  0  0  0  0  0  0  0  0  0  0  0
   -3.4226    0.3054   -0.1128 H   0  0  0  0  0  0  0  0  0  0  0  0
   -2.9305   -1.7313    0.7534 H   0  0  0  0  0  0  0  0  0  0  0  0
  1  2  1  0
  2  3  1  0
  3  4  1  0
  4  5  1  0
  5  6  1  0
  6  7  1  0
  7  8  1  0
  8  9  1  0
  7  5  1  0
  1 10  1  0
  2 11  1  0
  2 12  1  0
  3 13  1  0
  3 14  1  0
  5 15  1  0
  6 16  1  0
  6 17  1  0
  7 18  1  0
  8 19  1  0
  8 20  1  0
  9 21  1  0
M  END
