
     RDKit          3D

 18 18  0  0  0  0  0  0  0  0999 V2000
    2.5931    0.5984   -1.0963 O   0  0  0  0  0  0  0  0  0  0  0  0
    2.5224   -0.2712    0.0107 C   0  0  0  0  0  0  0  0  0  0  0  0
    1.1696    0.0295    0.6652 C   0  0  0  0  0  0  0  0  0  0  0  0
    0.1542   -0.2196   -0.2559 O   0  0  0  0  0  0  0  0  0  0  0  0
   -1.0452    0.0545    0.3461 C   0  0  0  0  0  0  0  0  0  0  0  0
   -2.1738   -0.8988    0.0620 C   0  0  0  0  0  0  0  0  0  0  0  0
   -3.0379    0.2178    0.1092 O   0  0  0  0  0  0  0  0  0  0  0  0
   -1.9785    0.9461   -0.4822 C   0  0  0  0  0  0  0  0  0  0  0  0
    3.1091    0.1773   -1.8388 H   0  0  0  0  0  0  0  0  0  0  0  0
    3.3233   -0.0795    0.7355 H   0  0  0  0  0  0  0  0  0  0  0  0
    2.4864   -1.3073   -0.3710 H   0  0  0  0  0  0  0  0  0  0  0  0
    1.1304    1.1052    0.9696 H   0  0  0  0  0  0  0  0  0  0  0  0
    1.0442   -0.5565    1.6032 H   0  0  0  0  0  0  0  0  0  0  0  0
   -0.9784    0.3954    1.3725 H   0  0  0  0  0  0  0  0  0  0  0  0
   -2.1439   -1.2921   -0.9610 H   0  0  0  0  0  0  0  0  0  0  0  0
   -2.3296   -1.6165    0.8670 H   0  0  0  0  0  0  0  0  0  0  0  0
   -1.9315    1.9965   -0.1802 H   0  0  0  0  0  0  0  0  0  0  0  0
   -1.9139    0.7206   -1.5558 H   0  0  0  0  0  0  0  0  0  0  0  0
  1  2  1  0
  2  3  1  0
  3  4  1  0
  4  5  1  0
  5  6  1  0
  6  7  1  0
  7  8  1  0
  8  5  1  0
  1  9  1  0
  2 10  1  0
  2 11  1  0
  3 12  1  0
  3 13  1  0
  5 14  1  0
  6 15  1  0
  6 16  1  0
  8 17  1  0
  8 18  1  0
M  END
