
     RDKit          3D

 23 23  0  0  0  0  0  0  0  0999 V2000
    4.3749   -0.0964   -0.1339 O   0  0  0  0  0  0  0  0  0  0  0  0
    3.1262   -0.5697   -0.4475 C   0  0  0  0  0  0  0  0  0  0  0  0
    2.1050    0.0780    0.4941 C   0  0  0  0  0  0  0  0  0  0  0  0
    0.8734   -0.4190    0.1499 O   0  0  0  0  0  0  0  0  0  0  0  0
   -0.1767    0.0526    0.8932 C   0  0  0  0  0  0  0  0  0  0  0  0
   -1.4444   -0.6083    0.3660 C   0  0  0  0  0  0  0  0  0  0  0  0
   -1.6377   -0.2598   -1.0937 C   0  0  0  0  0  0  0  0  0  0  0  0
   -2.6246    0.8216   -0.6635 C   0  0  0  0  0  0  0  0  0  0  0  0
   -2.7145    0.1451    0.6904 C   0  0  0  0  0  0  0  0  0  0  0  0
    4.3219    0.6178    0.5388 H   0  0  0  0  0  0  0  0  0  0  0  0
    3.0492   -1.6865   -0.3067 H   0  0  0  0  0  0  0  0  0  0  0  0
    2.8166   -0.3866   -1.4953 H   0  0  0  0  0  0  0  0  0  0  0  0
    2.2142    1.1748    0.3197 H   0  0  0  0  0  0  0  0  0  0  0  0
    2.3763   -0.1330    1.5398 H   0  0  0  0  0  0  0  0  0  0  0  0
   -0.0114   -0.2038    1.9500 H   0  0  0  0  0  0  0  0  0  0  0  0
   -0.3221    1.1444    0.8356 H   0  0  0  0  0  0  0  0  0  0  0  0
   -1.4631   -1.6734    0.6177 H   0  0  0  0  0  0  0  0  0  0  0  0
   -0.7914    0.2101   -1.5984 H   0  0  0  0  0  0  0  0  0  0  0  0
   -2.0973   -1.0734   -1.6834 H   0  0  0  0  0  0  0  0  0  0  0  0
   -2.1769    1.8278   -0.5560 H   0  0  0  0  0  0  0  0  0  0  0  0
   -3.5143    0.7792   -1.2888 H   0  0  0  0  0  0  0  0  0  0  0  0
   -3.6013   -0.5445    0.6791 H   0  0  0  0  0  0  0  0  0  0  0  0
   -2.6820    0.8032    1.5566 H   0  0  0  0  0  0  0  0  0  0  0  0
  1  2  1  0
  2  3  1  0
  3  4  1  0
  4  5  1  0
  5  6  1  0
  6  7  1  0
  7  8  1  0
  8  9  1  0
  9  6  1  0
  1 10  1  0
  2 11  1  0
  2 12  1  0
  3 13  1  0
  3 14  1  0
  5 15  1  0
  5 16  1  0
  6 17  1  0
  7 18  1  0
  7 19  1  0
  8 20  1  0
  8 21  1  0
  9 22  1  0
  9 23  1  0
M  END
