
     RDKit          3D

 10  9  0  0  0  0  0  0  0  0999 V2000
   -1.7067    0.0387   -0.6184 O   0  0  0  0  0  0  0  0  0  0  0  0
   -0.5090    0.5703   -0.1009 C   0  0  0  0  0  0  0  0  0  0  0  0
    0.4851   -0.5405    0.1770 C   0  0  0  0  0  0  0  0  0  0  0  0
    1.6362    0.0881    0.6858 O   0  0  0  0  0  0  0  0  0  0  0  0
   -2.0814   -0.5044    0.1450 H   0  0  0  0  0  0  0  0  0  0  0  0
   -0.7712    1.0338    0.8762 H   0  0  0  0  0  0  0  0  0  0  0  0
   -0.1165    1.2798   -0.8355 H   0  0  0  0  0  0  0  0  0  0  0  0
    0.0784   -1.1461    1.0086 H   0  0  0  0  0  0  0  0  0  0  0  0
    0.7286   -1.1227   -0.7230 H   0  0  0  0  0  0  0  0  0  0  0  0
    2.2564    0.3030   -0.0422 H   0  0  0  0  0  0  0  0  0  0  0  0
  1  2  1  0
  2  3  1  0
  3  4  1  0
  1  5  1  0
  2  6  1  0
  2  7  1  0
  3  8  1  0
  3  9  1  0
  4 10  1  0
M  END
