
     RDKit          3D

 19 19  0  0  0  0  0  0  0  0999 V2000
   -3.0384   -0.0155   -0.9702 O   0  0  0  0  0  0  0  0  0  0  0  0
   -2.7029    0.1187    0.3758 C   0  0  0  0  0  0  0  0  0  0  0  0
   -1.3494   -0.4651    0.6859 C   0  0  0  0  0  0  0  0  0  0  0  0
   -0.3784    0.1836   -0.0651 O   0  0  0  0  0  0  0  0  0  0  0  0
    0.8910   -0.2873    0.1559 C   0  0  0  0  0  0  0  0  0  0  0  0
    2.0030    0.6834    0.1243 C   0  0  0  0  0  0  0  0  0  0  0  0
    3.0759    0.5425    1.0198 O   0  0  0  0  0  0  0  0  0  0  0  0
    1.8919   -0.4023   -0.9309 C   0  0  0  0  0  0  0  0  0  0  0  0
    1.6387    0.0835   -2.2016 O   0  0  0  0  0  0  0  0  0  0  0  0
   -3.4908    0.7835   -1.3327 H   0  0  0  0  0  0  0  0  0  0  0  0
   -2.7792    1.1838    0.6290 H   0  0  0  0  0  0  0  0  0  0  0  0
   -3.4526   -0.4703    0.9786 H   0  0  0  0  0  0  0  0  0  0  0  0
   -1.1960   -0.3516    1.7833 H   0  0  0  0  0  0  0  0  0  0  0  0
   -1.3545   -1.5176    0.3895 H   0  0  0  0  0  0  0  0  0  0  0  0
    0.9287   -1.1247    0.9134 H   0  0  0  0  0  0  0  0  0  0  0  0
    1.7597    1.7363   -0.1662 H   0  0  0  0  0  0  0  0  0  0  0  0
    3.8010    1.1494    0.8002 H   0  0  0  0  0  0  0  0  0  0  0  0
    2.6192   -1.2399   -0.9097 H   0  0  0  0  0  0  0  0  0  0  0  0
    1.1332   -0.5903   -2.7479 H   0  0  0  0  0  0  0  0  0  0  0  0
  1  2  1  0
  2  3  1  0
  3  4  1  0
  4  5  1  0
  5  6  1  0
  6  7  1  0
  6  8  1  0
  8  9  1  0
  8  5  1  0
  1 10  1  0
  2 11  1  0
  2 12  1  0
  3 13  1  0
  3 14  1  0
  5 15  1  0
  6 16  1  0
  7 17  1  0
  8 18  1  0
  9 19  1  0
M  END
